AV-unprocessed.smi:2200|AV-procd|sdf|8925|dock9
  -GOLD-   2272012143D 1   1.00000     0.00000
 Structure written by MMmdl.
 31 31  0  0  0  0  0  0  0  0  1 V2000
  152.9823  143.3008  159.0252 C   0  0  0  0  0  0  0  0  0  0  0  0
  152.1310  144.4647  158.4981 C   0  0  0  0  0  0  0  0  0  0  0  0
  151.8633  145.4922  159.6121 C   0  0  0  0  0  0  0  0  0  0  0  0
  150.8295  143.9411  157.8523 C   0  0  0  0  0  0  0  0  0  0  0  0
  151.0783  142.9268  156.8334 N   0  0  0  0  0  0  0  0  0  0  0  0
  150.5896  141.6777  156.8524 C   0  0  0  0  0  0  0  0  0  0  0  0
  149.8292  141.2643  157.7288 O   0  0  0  0  0  0  0  0  0  0  0  0
  151.0159  140.7642  155.6949 C   0  0  0  0  0  0  0  0  0  0  0  0
  149.9020  140.4388  154.7926 N   0  0  0  0  0  0  0  0  0  0  0  0
  148.8539  141.3318  154.6195 C   0  0  0  0  0  0  0  0  0  0  0  0
  147.7925  141.0884  153.8145 C   0  0  0  0  0  0  0  0  0  0  0  0
  147.7008  139.8365  153.0709 C   0  0  0  0  0  0  0  0  0  0  0  0
  146.7816  139.5253  152.3168 O   0  0  0  0  0  0  0  0  0  0  0  0
  148.7729  138.9634  153.2734 N   0  0  0  0  0  0  0  0  0  0  0  0
  149.8694  139.2074  154.1020 C   0  0  0  0  0  0  0  0  0  0  0  0
  150.7609  138.3663  154.2122 O   0  0  0  0  0  0  0  0  0  0  0  0
  148.7518  138.0821  152.7813 H   0  0  0  0  0  0  0  0  0  0  0  0
  152.4636  142.7556  159.8145 H   0  0  0  0  0  0  0  0  0  0  0  0
  153.9281  143.6589  159.4331 H   0  0  0  0  0  0  0  0  0  0  0  0
  153.2162  142.5931  158.2293 H   0  0  0  0  0  0  0  0  0  0  0  0
  152.7167  144.9644  157.7256 H   0  0  0  0  0  0  0  0  0  0  0  0
  151.2577  145.0620  160.4106 H   0  0  0  0  0  0  0  0  0  0  0  0
  151.3404  146.3706  159.2326 H   0  0  0  0  0  0  0  0  0  0  0  0
  152.7967  145.8407  160.0547 H   0  0  0  0  0  0  0  0  0  0  0  0
  150.1621  143.5356  158.6147 H   0  0  0  0  0  0  0  0  0  0  0  0
  150.2910  144.7646  157.3821 H   0  0  0  0  0  0  0  0  0  0  0  0
  151.6884  143.1861  156.0716 H   0  0  0  0  0  0  0  0  0  0  0  0
  151.8172  141.2633  155.1483 H   0  0  0  0  0  0  0  0  0  0  0  0
  151.4608  139.8455  156.0835 H   0  0  0  0  0  0  0  0  0  0  0  0
  148.8765  142.2707  155.1544 H   0  0  0  0  0  0  0  0  0  0  0  0
  147.0059  141.8233  153.7213 H   0  0  0  0  0  0  0  0  0  0  0  0
  1  2  1  0  0  0  0
  1 18  1  0  0  0  0
  1 19  1  0  0  0  0
  1 20  1  0  0  0  0
  2  3  1  0  0  0  0
  2  4  1  0  0  0  0
  2 21  1  0  0  0  0
  3 22  1  0  0  0  0
  3 23  1  0  0  0  0
  3 24  1  0  0  0  0
  4  5  1  0  0  0  0
  4 25  1  0  0  0  0
  4 26  1  0  0  0  0
  5  6  1  0  0  0  0
  5 27  1  0  0  0  0
  6  7  2  0  0  0  0
  6  8  1  0  0  0  0
  8  9  1  0  0  0  0
  8 28  1  0  0  0  0
  8 29  1  0  0  0  0
  9 15  1  0  0  0  0
  9 10  1  0  0  0  0
 10 11  2  0  0  0  0
 10 30  1  0  0  0  0
 11 12  1  0  0  0  0
 11 31  1  0  0  0  0
 12 13  2  0  0  0  0
 12 14  1  0  0  0  0
 14 17  1  0  0  0  0
 14 15  1  0  0  0  0
 15 16  2  0  0  0  0
M  END
> <s_m_source_file>
AV-unprocessed.smi

> <i_m_source_file_index>
2200

> <i_lp_mmshare_version>
43012

> <i_f3d_flags>
0

> <s_epik_input>
W0NIM11bQ0hdKFtDSDNdKVtDSDJdW05IXUMoPU8pW0NIMl1uMVtjSF1bY0hdYyg9TylbbkhdYzE9Tw==

> <s_epik_cmdline>
J2VwaWtfcHl0aG9uJywgJy1waCcsICc3LjAnLCAnLXRuJywgJzgnLCAnLW1hJywgJzIwMCcsICctbWV0YWxfYmluZGluZycsICctaW1hZScsICc8aW5maWxlLm1hZT4nLCAnLW9tYWUnLCAnPG91dGZpbGUubWFlPic=

> <r_lp_tautomer_probability>
0.999537

> <r_epik_Ionization_Penalty>
0.00328917

> <r_epik_Ionization_Penalty_Charging>
0.00328916

> <r_epik_Ionization_Penalty_Neutral>
1.93017e-08

> <r_epik_State_Penalty>
0.00232387

> <r_epik_Charging_Adjusted_Penalty>
0.00561303

> <i_epik_Tot_Q>
0

> <i_epik_Tot_abs_Q>
0

> <r_epik_Metal_State_Penalty>
0.365274

> <b_epik_Metal_Only>
0

> <s_lp_Force_Field>
OPLS_2005

> <r_lp_Energy>
3.18145

> <b_lp_Chiralities_Consistent>
1

> <s_lp_Variant>
AV-unprocessed.smi:2200-1

> <Gold.Version>
5.8.1

> <Gold.Id.Protein>
6NUR|6NUR_protein|mol2

> <Gold.PLP.Fitness>
40.6219

> <Gold.PLP.PLP>
-35.5452

> <Gold.PLP.part.hbond>
-2.7732

> <Gold.PLP.part.metal>
0.0000

> <Gold.PLP.part.buried>
0.8864

> <Gold.PLP.part.nonpolar>
-35.1003

> <Gold.PLP.part.repulsive>
1.0583

> <Gold.PLP.ligand.clash>
0.0000

> <Gold.PLP.ligand.torsion>
0.4525

> <Gold.PLP.Chemscore.Hbond>
0.9913

> <Gold.PLP.Chemscore.CHOScore>
1.0000

> <Gold.PLP.Chemscore.Metal>
0.0000

> <Gold.Chemscore.Hbonds>
donor molecule, donor type, donor heavy atom, donor atom, acceptor molecule, acceptor atom, score
      L1  H    14    17       P1  7948  0.96
      L1  C    10    30       P1  8028  1.00

> <Gold.PLP.Chemscore.Internal.Correction>
0.0079

> <Gold.Rescore>
     Score         DG    S(hbond)    S(metal)    S(lipo)     H(rot)  DE(clash)    DE(int)     intcor
     11.14     -11.81       0.96        0.00      70.75       2.01       0.35       0.33       ----

> <Gold.Chemscore.Fitness>
11.1367

> <Gold.Chemscore.DG>
-11.8081

> <Gold.Chemscore.ZeroCoef>
-5.4800

> <Gold.Chemscore.Hbond>
0.9607

> <Gold.Chemscore.Metal>
0.0000

> <Gold.Chemscore.Lipo>
70.7482

> <Gold.Chemscore.Internal_Hbond>
0.0000

> <Gold.Chemscore.DEClash>
0.3454

> <Gold.Chemscore.DEInternal>
0.3260

> <Gold.Chemscore.Rot>
2.0150

> <Gold.Chemscore.Internal.Correction>
   9.000000E+99

> <Gold.Chemscore.Hbonds>
donor molecule, donor type, donor heavy atom, donor atom, acceptor molecule, acceptor atom, score
      L1  H    14    17       P1  7948  0.90

> <Gold.Chemscore.Hbond.Weighted>
-3.2089

> <Gold.Chemscore.Metal.Weighted>
-0.0000

> <Gold.Chemscore.Lipo.Weighted>
-8.2775

> <Gold.Chemscore.Internal_Hbond.Weighted>
0.0000

> <Gold.Chemscore.DEClash.Weighted>
0.3454

> <Gold.Chemscore.DEInternal.Weighted>
0.3260

> <Gold.Chemscore.Rot.Weighted>
5.1583

> <Gold.Chemscore.Internal.Correction.Weighted>
   9.000000E+99

> <Gold.Protein.RotatedTorsions>
[ 6907 6896 6895 6894 ] final  -79.01 input  -60.11 | X-H torsion
[ 7974 7965 7964 7962 ] final   37.76 input  175.53 | X-H torsion
[ 8008 7997 7996 7995 ] final  145.63 input   59.86 | X-H torsion
[ 10167 10162 10161 10158 ] final -115.79 input  -65.29 | X-H torsion
[ 10718 10713 10712 10709 ] final   40.77 input   66.30 | X-H torsion
[ 10763 10752 10751 10750 ] final  -86.48 input  -60.55 | X-H torsion
[ 11005 11000 10999 10996 ] final -172.11 input  -57.11 | X-H torsion

> <Gold.Protein.ActiveResidues>
 VAL166  LYS551  ARG553  GLY616  TRP617  ASP618  TYR619  PRO620  LYS621  CYS622 
 ASP623  PHE694  ASN695  SER759  ASP760  ASP761  ALA762  ILE779  LEU786  VAL792 
 PHE793  MET794  SER795  GLU796  ALA797  LYS798  CYS799  TRP800  GLU811  SER814 

> <Gold.Protein.RotatedAtoms>
  150.6959  134.4185  159.5193 H   0  0  0  0  0  0  0  0  0  0  0  0  # atno 6907 bound_to 6896
  152.1932  134.8651  160.0524 H   0  0  0  0  0  0  0  0  0  0  0  0  # atno 6908 bound_to 6896
  151.9599  133.3657  159.4068 H   0  0  0  0  0  0  0  0  0  0  0  0  # atno 6909 bound_to 6896
  146.1113  139.5854  142.9350 H   0  0  0  0  0  0  0  0  0  0  0  0  # atno 7974 bound_to 7965
  156.2878  140.2204  156.5247 H   0  0  0  0  0  0  0  0  0  0  0  0  # atno 8008 bound_to 7997
  154.7499  140.0481  157.0906 H   0  0  0  0  0  0  0  0  0  0  0  0  # atno 8009 bound_to 7997
  155.0123  140.3114  155.4828 H   0  0  0  0  0  0  0  0  0  0  0  0  # atno 8010 bound_to 7997
  140.0862  143.4742  152.1897 H   0  0  0  0  0  0  0  0  0  0  0  0  # atno 10167 bound_to 10162
  157.3859  130.7779  149.7230 H   0  0  0  0  0  0  0  0  0  0  0  0  # atno 10718 bound_to 10713
  154.6229  135.5448  153.7595 H   0  0  0  0  0  0  0  0  0  0  0  0  # atno 10763 bound_to 10752
  153.0247  135.6417  154.1414 H   0  0  0  0  0  0  0  0  0  0  0  0  # atno 10764 bound_to 10752
  154.1348  135.2912  155.3156 H   0  0  0  0  0  0  0  0  0  0  0  0  # atno 10765 bound_to 10752
  140.5007  134.5897  157.4986 H   0  0  0  0  0  0  0  0  0  0  0  0  # atno 11005 bound_to 11000
  145.5658  141.0399  143.2201 LP  0  0  0  0  0  0  0  0  0  0  0  0  # atno 17320 bound_to 7965
  144.7514  139.7185  143.7271 LP  0  0  0  0  0  0  0  0  0  0  0  0  # atno 17321 bound_to 7965
  139.5751  144.7483  151.3787 LP  0  0  0  0  0  0  0  0  0  0  0  0  # atno 17342 bound_to 10162
  140.7052  143.7531  150.7470 LP  0  0  0  0  0  0  0  0  0  0  0  0  # atno 17343 bound_to 10162
  155.9786  130.4049  150.3635 LP  0  0  0  0  0  0  0  0  0  0  0  0  # atno 17370 bound_to 10713
  157.1745  131.0377  151.2779 LP  0  0  0  0  0  0  0  0  0  0  0  0  # atno 17371 bound_to 10713
  139.9715  134.7285  156.0032 LP  0  0  0  0  0  0  0  0  0  0  0  0  # atno 17394 bound_to 11000
  141.1437  133.6560  156.3805 LP  0  0  0  0  0  0  0  0  0  0  0  0  # atno 17395 bound_to 11000

$$$$
