AV-unprocessed.smi:594|AV-procd|sdf|3017|dock10
  -GOLD-   2262023523D 1   1.00000     0.00000
 Structure written by MMmdl.
 40 41  0  0  0  0  0  0  0  0  3 V2000
  153.1033  142.0747  162.2415 C   0  0  0  0  0  0  0  0  0  0  0  0
  152.3563  142.7540  161.0790 C   0  0  1  0  0  0  0  0  0  0  0  0
  152.0231  144.2174  161.4349 C   0  0  0  0  0  0  0  0  0  0  0  0
  151.2641  144.9254  160.3025 C   0  0  0  0  0  0  0  0  0  0  0  0
  152.0548  144.8633  158.9890 C   0  0  0  0  0  0  0  0  0  0  0  0
  152.3768  143.4102  158.6113 C   0  0  0  0  0  0  0  0  0  0  0  0
  153.1348  142.6824  159.7391 C   0  0  2  0  0  0  0  0  0  0  0  0
  153.3540  141.2934  159.3384 N   0  0  0  0  0  0  0  0  0  0  0  0
  152.4209  140.4528  158.8650 C   0  0  0  0  0  0  0  0  0  0  0  0
  151.2333  140.7551  158.7408 O   0  0  0  0  0  0  0  0  0  0  0  0
  152.9125  139.0508  158.4812 C   0  0  0  0  0  0  0  0  0  0  0  0
  152.0301  138.3823  157.5101 N   0  0  0  0  0  0  0  0  0  0  0  0
  151.1160  137.4369  158.0163 C   0  0  0  0  0  0  0  0  0  0  0  0
  150.2588  136.7711  157.2179 C   0  0  0  0  0  0  0  0  0  0  0  0
  149.3244  135.8066  157.7551 N   0  3  0  0  0  0  0  0  0  0  0  0
  148.5463  135.2502  156.9868 O   0  0  0  0  0  0  0  0  0  0  0  0
  149.3374  135.5717  158.9598 O   0  5  0  0  0  0  0  0  0  0  0  0
  150.3009  137.0566  155.7966 C   0  0  0  0  0  0  0  0  0  0  0  0
  151.1707  137.9617  155.3065 C   0  0  0  0  0  0  0  0  0  0  0  0
  152.1016  138.6866  156.1777 C   0  0  0  0  0  0  0  0  0  0  0  0
  152.8969  139.5167  155.7364 O   0  0  0  0  0  0  0  0  0  0  0  0
  154.0885  142.5177  162.3904 H   0  0  0  0  0  0  0  0  0  0  0  0
  153.2414  141.0081  162.0644 H   0  0  0  0  0  0  0  0  0  0  0  0
  152.5495  142.1749  163.1752 H   0  0  0  0  0  0  0  0  0  0  0  0
  151.4103  142.2257  160.9485 H   0  0  0  0  0  0  0  0  0  0  0  0
  151.4263  144.2524  162.3471 H   0  0  0  0  0  0  0  0  0  0  0  0
  152.9440  144.7616  161.6495 H   0  0  0  0  0  0  0  0  0  0  0  0
  150.2880  144.4580  160.1662 H   0  0  0  0  0  0  0  0  0  0  0  0
  151.0749  145.9644  160.5739 H   0  0  0  0  0  0  0  0  0  0  0  0
  151.4864  145.3392  158.1895 H   0  0  0  0  0  0  0  0  0  0  0  0
  152.9813  145.4297  159.0908 H   0  0  0  0  0  0  0  0  0  0  0  0
  151.4480  142.8826  158.3888 H   0  0  0  0  0  0  0  0  0  0  0  0
  152.9675  143.3945  157.6945 H   0  0  0  0  0  0  0  0  0  0  0  0
  154.0928  143.1892  159.8717 H   0  0  0  0  0  0  0  0  0  0  0  0
  154.3010  140.9501  159.4078 H   0  0  0  0  0  0  0  0  0  0  0  0
  153.9264  139.1120  158.0808 H   0  0  0  0  0  0  0  0  0  0  0  0
  153.0018  138.4612  159.3946 H   0  0  0  0  0  0  0  0  0  0  0  0
  151.1578  137.3015  159.0875 H   0  0  0  0  0  0  0  0  0  0  0  0
  149.6353  136.5474  155.1153 H   0  0  0  0  0  0  0  0  0  0  0  0
  151.1845  138.1598  154.2447 H   0  0  0  0  0  0  0  0  0  0  0  0
  1  2  1  0  0  0  0
  1 22  1  0  0  0  0
  1 23  1  0  0  0  0
  1 24  1  0  0  0  0
  2  7  1  0  0  0  0
  2  3  1  0  0  0  0
  2 25  1  0  0  0  0
  3  4  1  0  0  0  0
  3 26  1  0  0  0  0
  3 27  1  0  0  0  0
  4  5  1  0  0  0  0
  4 28  1  0  0  0  0
  4 29  1  0  0  0  0
  5  6  1  0  0  0  0
  5 30  1  0  0  0  0
  5 31  1  0  0  0  0
  6  7  1  0  0  0  0
  6 32  1  0  0  0  0
  6 33  1  0  0  0  0
  7  8  1  0  0  0  0
  7 34  1  0  0  0  0
  8  9  1  0  0  0  0
  8 35  1  0  0  0  0
  9 10  2  0  0  0  0
  9 11  1  0  0  0  0
 11 12  1  0  0  0  0
 11 36  1  0  0  0  0
 11 37  1  0  0  0  0
 12 20  1  0  0  0  0
 12 13  1  0  0  0  0
 13 14  2  0  0  0  0
 13 38  1  0  0  0  0
 14 15  1  0  0  0  0
 14 18  1  0  0  0  0
 15 16  2  0  0  0  0
 15 17  1  0  0  0  0
 18 19  2  0  0  0  0
 18 39  1  0  0  0  0
 19 20  1  0  0  0  0
 19 40  1  0  0  0  0
 20 21  2  0  0  0  0
M  CHG  1  15   1
M  CHG  1  17  -1
M  END
> <s_m_source_file>
AV-unprocessed.smi

> <i_m_source_file_index>
594

> <i_lp_mmshare_version>
43012

> <i_f3d_flags>
0

> <s_epik_input>
W0NIM11bQ0BASF0xW0NIMl1bQ0gyXVtDSDJdW0NIMl1bQ0BIXTFbTkhdQyg9TylbQ0gyXW4yW2NIXWMoW04rXSg9TylbTy1dKVtjSF1bY0hdYzI9Tw==

> <s_epik_cmdline>
J2VwaWtfcHl0aG9uJywgJy1waCcsICc3LjAnLCAnLXRuJywgJzgnLCAnLW1hJywgJzIwMCcsICctbWV0YWxfYmluZGluZycsICctaW1hZScsICc8aW5maWxlLm1hZT4nLCAnLW9tYWUnLCAnPG91dGZpbGUubWFlPic=

> <r_lp_tautomer_probability>
1

> <r_epik_Ionization_Penalty>
1.91305e-08

> <r_epik_Ionization_Penalty_Charging>
8.35811e-11

> <r_epik_Ionization_Penalty_Neutral>
1.90469e-08

> <r_epik_State_Penalty>
-0

> <r_epik_Charging_Adjusted_Penalty>
8.35811e-11

> <i_epik_Tot_Q>
0

> <i_epik_Tot_abs_Q>
2

> <r_epik_Metal_State_Penalty>
-0

> <b_epik_Metal_Only>
0

> <s_lp_Force_Field>
OPLS_2005

> <r_lp_Energy>
21.4369

> <b_lp_Chiralities_Consistent>
1

> <s_lp_Variant>
AV-unprocessed.smi:594-4

> <Gold.Version>
5.8.1

> <Gold.Id.Protein>
6NUR|6NUR_protein|mol2

> <Gold.PLP.Fitness>
46.6611

> <Gold.PLP.PLP>
-42.1107

> <Gold.PLP.part.hbond>
-2.0000

> <Gold.PLP.part.metal>
0.0000

> <Gold.PLP.part.buried>
-6.3184

> <Gold.PLP.part.nonpolar>
-33.9254

> <Gold.PLP.part.repulsive>
0.0804

> <Gold.PLP.ligand.clash>
0.0000

> <Gold.PLP.ligand.torsion>
0.7281

> <Gold.PLP.Chemscore.Hbond>
2.0000

> <Gold.PLP.Chemscore.CHOScore>
0.0000

> <Gold.PLP.Chemscore.Metal>
0.0000

> <Gold.Chemscore.Hbonds>
donor molecule, donor type, donor heavy atom, donor atom, acceptor molecule, acceptor atom, score
      P1  H  6896  6908       L1    17  1.00
      P1  H  7997  8008       L1    21  1.00

> <Gold.PLP.Chemscore.Internal.Correction>
0.0068

> <Gold.Rescore>
     Score         DG    S(hbond)    S(metal)    S(lipo)     H(rot)  DE(clash)    DE(int)     intcor
     19.26     -20.75       2.00        0.00     107.43       1.55       0.08       1.41       ----

> <Gold.Chemscore.Fitness>
19.2594

> <Gold.Chemscore.DG>
-20.7464

> <Gold.Chemscore.ZeroCoef>
-5.4800

> <Gold.Chemscore.Hbond>
1.9960

> <Gold.Chemscore.Metal>
0.0000

> <Gold.Chemscore.Lipo>
107.4258

> <Gold.Chemscore.Internal_Hbond>
0.0000

> <Gold.Chemscore.DEClash>
0.0798

> <Gold.Chemscore.DEInternal>
1.4072

> <Gold.Chemscore.Rot>
1.5505

> <Gold.Chemscore.Internal.Correction>
   9.000000E+99

> <Gold.Chemscore.Hbonds>
donor molecule, donor type, donor heavy atom, donor atom, acceptor molecule, acceptor atom, score
      P1  H  6896  6908       L1    17  0.96
      P1  H  7997  8008       L1    21  0.98

> <Gold.Chemscore.Hbond.Weighted>
-6.6667

> <Gold.Chemscore.Metal.Weighted>
-0.0000

> <Gold.Chemscore.Lipo.Weighted>
-12.5688

> <Gold.Chemscore.Internal_Hbond.Weighted>
0.0000

> <Gold.Chemscore.DEClash.Weighted>
0.0798

> <Gold.Chemscore.DEInternal.Weighted>
1.4072

> <Gold.Chemscore.Rot.Weighted>
3.9692

> <Gold.Chemscore.Internal.Correction.Weighted>
   9.000000E+99

> <Gold.Protein.RotatedTorsions>
[ 6907 6896 6895 6894 ] final -179.82 input  -60.11 | X-H torsion
[ 7974 7965 7964 7962 ] final  144.47 input  175.53 | X-H torsion
[ 8008 7997 7996 7995 ] final  -15.11 input   59.86 | X-H torsion
[ 10167 10162 10161 10158 ] final   89.74 input  -65.29 | X-H torsion
[ 10718 10713 10712 10709 ] final  122.59 input   66.30 | X-H torsion
[ 10763 10752 10751 10750 ] final  115.22 input  -60.55 | X-H torsion
[ 11005 11000 10999 10996 ] final  166.82 input  -57.11 | X-H torsion

> <Gold.Protein.ActiveResidues>
 VAL166  LYS551  ARG553  GLY616  TRP617  ASP618  TYR619  PRO620  LYS621  CYS622 
 ASP623  PHE694  ASN695  SER759  ASP760  ASP761  ALA762  ILE779  LEU786  VAL792 
 PHE793  MET794  SER795  GLU796  ALA797  LYS798  CYS799  TRP800  GLU811  SER814 

> <Gold.Protein.RotatedAtoms>
  151.6596  133.3317  159.3170 H   0  0  0  0  0  0  0  0  0  0  0  0  # atno 6907 bound_to 6896
  150.7920  134.6954  159.6530 H   0  0  0  0  0  0  0  0  0  0  0  0  # atno 6908 bound_to 6896
  152.4001  134.6304  160.0125 H   0  0  0  0  0  0  0  0  0  0  0  0  # atno 6909 bound_to 6896
  144.8833  139.5667  143.5833 H   0  0  0  0  0  0  0  0  0  0  0  0  # atno 7974 bound_to 7965
  154.5156  140.2205  155.9072 H   0  0  0  0  0  0  0  0  0  0  0  0  # atno 8008 bound_to 7997
  156.1603  140.3143  155.8762 H   0  0  0  0  0  0  0  0  0  0  0  0  # atno 8009 bound_to 7997
  155.3764  140.0469  157.3035 H   0  0  0  0  0  0  0  0  0  0  0  0  # atno 8010 bound_to 7997
  139.8543  144.6577  150.9133 H   0  0  0  0  0  0  0  0  0  0  0  0  # atno 10167 bound_to 10162
  157.5730  131.1081  150.8331 H   0  0  0  0  0  0  0  0  0  0  0  0  # atno 10718 bound_to 10713
  153.5190  135.3602  155.2623 H   0  0  0  0  0  0  0  0  0  0  0  0  # atno 10763 bound_to 10752
  154.8736  135.4041  154.3282 H   0  0  0  0  0  0  0  0  0  0  0  0  # atno 10764 bound_to 10752
  153.3949  135.7073  153.6535 H   0  0  0  0  0  0  0  0  0  0  0  0  # atno 10765 bound_to 10752
  140.2703  134.7832  157.3670 H   0  0  0  0  0  0  0  0  0  0  0  0  # atno 11005 bound_to 11000
  146.3008  139.7421  142.9092 LP  0  0  0  0  0  0  0  0  0  0  0  0  # atno 17320 bound_to 7965
  145.3915  141.0373  143.3121 LP  0  0  0  0  0  0  0  0  0  0  0  0  # atno 17321 bound_to 7965
  140.7783  143.3800  151.1494 LP  0  0  0  0  0  0  0  0  0  0  0  0  # atno 17342 bound_to 10162
  139.7435  143.8887  152.3057 LP  0  0  0  0  0  0  0  0  0  0  0  0  # atno 17343 bound_to 10162
  156.8797  130.5175  149.5291 LP  0  0  0  0  0  0  0  0  0  0  0  0  # atno 17370 bound_to 10713
  156.0775  130.5794  150.9502 LP  0  0  0  0  0  0  0  0  0  0  0  0  # atno 17371 bound_to 10713
  140.1379  134.5010  155.8054 LP  0  0  0  0  0  0  0  0  0  0  0  0  # atno 17394 bound_to 11000
  141.2178  133.6814  156.7157 LP  0  0  0  0  0  0  0  0  0  0  0  0  # atno 17395 bound_to 11000

$$$$
