AV-unprocessed.smi:1406|AV-procd|sdf|5723|dock4
  -GOLD-   22720 5353D 1   1.00000     0.00000
 Structure written by MMmdl.
 41 43  0  0  0  0  0  0  0  0  2 V2000
  149.5444  134.4010  154.8718 C   0  0  0  0  0  0  0  0  0  0  0  0
  149.3263  133.3199  153.7938 C   0  0  2  0  0  0  0  0  0  0  0  0
  147.8743  133.2540  153.2914 C   0  0  0  0  0  0  0  0  0  0  0  0
  147.2042  132.2292  153.4223 O   0  0  0  0  0  0  0  0  0  0  0  0
  147.3983  134.3658  152.7098 N   0  0  0  0  0  0  0  0  0  0  0  0
  146.0720  134.4958  152.1185 C   0  0  1  0  0  0  0  0  0  0  0  0
  145.6521  135.9317  151.8191 C   0  0  0  0  0  0  0  0  0  0  0  0
  144.5350  135.7293  150.7934 C   0  0  0  0  0  0  0  0  0  0  0  0
  144.9208  134.5378  150.0030 N   0  3  2  0  0  0  0  0  0  0  0  0
  143.7860  133.6974  149.5491 C   0  0  0  0  0  0  0  0  0  0  0  0
  144.2954  132.4935  148.7345 C   0  0  0  0  0  0  0  0  0  0  0  0
  145.4089  131.7022  149.4537 C   0  0  0  0  0  0  0  0  0  0  0  0
  145.7549  132.2938  150.8292 C   0  0  0  0  0  0  0  0  0  0  0  0
  145.9947  133.8176  150.7437 C   0  0  2  0  0  0  0  0  0  0  0  0
  149.7660  132.0043  154.2437 N   0  0  0  0  0  0  0  0  0  0  0  0
  149.6072  130.8058  153.6775 C   0  0  0  0  0  0  0  0  0  0  0  0
  150.0922  129.8025  154.3951 N   0  0  0  0  0  0  0  0  0  0  0  0
  150.5666  130.4992  155.4701 C   0  0  0  0  0  0  0  0  0  0  0  0
  150.3870  131.8193  155.4354 N   0  0  0  0  0  0  0  0  0  0  0  0
  149.2713  135.3889  154.4994 H   0  0  0  0  0  0  0  0  0  0  0  0
  150.5918  134.4444  155.1710 H   0  0  0  0  0  0  0  0  0  0  0  0
  148.9531  134.2105  155.7685 H   0  0  0  0  0  0  0  0  0  0  0  0
  149.9464  133.5893  152.9373 H   0  0  0  0  0  0  0  0  0  0  0  0
  148.0106  135.1660  152.6446 H   0  0  0  0  0  0  0  0  0  0  0  0
  145.3302  134.0477  152.7835 H   0  0  0  0  0  0  0  0  0  0  0  0
  145.3195  136.4729  152.7056 H   0  0  0  0  0  0  0  0  0  0  0  0
  146.4780  136.4863  151.3707 H   0  0  0  0  0  0  0  0  0  0  0  0
  143.5967  135.5399  151.3178 H   0  0  0  0  0  0  0  0  0  0  0  0
  144.3896  136.6015  150.1557 H   0  0  0  0  0  0  0  0  0  0  0  0
  143.2132  133.3523  150.4114 H   0  0  0  0  0  0  0  0  0  0  0  0
  143.1084  134.2994  148.9427 H   0  0  0  0  0  0  0  0  0  0  0  0
  143.4608  131.8317  148.5010 H   0  0  0  0  0  0  0  0  0  0  0  0
  144.6743  132.8459  147.7743 H   0  0  0  0  0  0  0  0  0  0  0  0
  145.1156  130.6579  149.5656 H   0  0  0  0  0  0  0  0  0  0  0  0
  146.3040  131.6984  148.8304 H   0  0  0  0  0  0  0  0  0  0  0  0
  144.9400  132.0814  151.5228 H   0  0  0  0  0  0  0  0  0  0  0  0
  146.6351  131.7979  151.2402 H   0  0  0  0  0  0  0  0  0  0  0  0
  146.9175  134.0045  150.1916 H   0  0  0  0  0  0  0  0  0  0  0  0
  149.1195  130.6631  152.7244 H   0  0  0  0  0  0  0  0  0  0  0  0
  151.0512  130.0184  156.3071 H   0  0  0  0  0  0  0  0  0  0  0  0
  145.3642  134.8851  149.1645 H   0  0  0  0  0  0  0  0  0  0  0  0
  1  2  1  0  0  0  0
  1 20  1  0  0  0  0
  1 21  1  0  0  0  0
  1 22  1  0  0  0  0
  2  3  1  0  0  0  0
  2 15  1  0  0  0  0
  2 23  1  0  0  0  0
  3  4  2  0  0  0  0
  3  5  1  0  0  0  0
  5  6  1  0  0  0  0
  5 24  1  0  0  0  0
  6 14  1  0  0  0  0
  6  7  1  0  0  0  0
  6 25  1  0  0  0  0
  7  8  1  0  0  0  0
  7 26  1  0  0  0  0
  7 27  1  0  0  0  0
  8  9  1  0  0  0  0
  8 28  1  0  0  0  0
  8 29  1  0  0  0  0
  9 14  1  0  0  0  0
  9 10  1  0  0  0  0
  9 41  1  0  0  0  0
 10 11  1  0  0  0  0
 10 30  1  0  0  0  0
 10 31  1  0  0  0  0
 11 12  1  0  0  0  0
 11 32  1  0  0  0  0
 11 33  1  0  0  0  0
 12 13  1  0  0  0  0
 12 34  1  0  0  0  0
 12 35  1  0  0  0  0
 13 14  1  0  0  0  0
 13 36  1  0  0  0  0
 13 37  1  0  0  0  0
 14 38  1  0  0  0  0
 15 19  1  0  0  0  0
 15 16  1  0  0  0  0
 16 17  2  0  0  0  0
 16 39  1  0  0  0  0
 17 18  1  0  0  0  0
 18 19  2  0  0  0  0
 18 40  1  0  0  0  0
M  CHG  1   9   1
M  END
> <s_m_source_file>
AV-unprocessed.smi

> <i_m_source_file_index>
1406

> <i_lp_mmshare_version>
43012

> <i_f3d_flags>
0

> <s_epik_input>
bjFbY0hdbltjSF1uMVtDQEhdKFtDSDNdKUMoPU8pW05IXVtDQEhdKFtDSDJdW0NIMl0yKVtDQEBIXShOMjMpW0NIMl1bQ0gyXVtDSDJdW0NIMl0z

> <s_epik_cmdline>
J2VwaWtfcHl0aG9uJywgJy1waCcsICc3LjAnLCAnLXRuJywgJzgnLCAnLW1hJywgJzIwMCcsICctbWV0YWxfYmluZGluZycsICctaW1hZScsICc8aW5maWxlLm1hZT4nLCAnLW9tYWUnLCAnPG91dGZpbGUubWFlPic=

> <r_lp_tautomer_probability>
1

> <r_epik_Ionization_Penalty>
0.00197066

> <r_epik_Ionization_Penalty_Charging>
0.00196223

> <r_epik_Ionization_Penalty_Neutral>
8.43107e-06

> <r_epik_State_Penalty>
0.00133866

> <r_epik_Charging_Adjusted_Penalty>
0.00330089

> <i_epik_Tot_Q>
1

> <i_epik_Tot_abs_Q>
1

> <r_epik_Metal_State_Penalty>
-0

> <b_epik_Metal_Only>
0

> <s_lp_Force_Field>
OPLS_2005

> <r_lp_Energy>
45.2549

> <b_lp_Chiralities_Consistent>
1

> <s_lp_Variant>
AV-unprocessed.smi:1406-15

> <Gold.Version>
5.8.1

> <Gold.Id.Protein>
6NUR|6NUR_protein|mol2

> <Gold.PLP.Fitness>
40.6262

> <Gold.PLP.PLP>
-32.4707

> <Gold.PLP.part.hbond>
-2.0000

> <Gold.PLP.part.metal>
0.0000

> <Gold.PLP.part.buried>
-0.5466

> <Gold.PLP.part.nonpolar>
-30.0262

> <Gold.PLP.part.repulsive>
0.2336

> <Gold.PLP.ligand.clash>
0.0000

> <Gold.PLP.ligand.torsion>
0.4534

> <Gold.PLP.Chemscore.Hbond>
1.9920

> <Gold.PLP.Chemscore.CHOScore>
0.9927

> <Gold.PLP.Chemscore.Metal>
0.0000

> <Gold.Chemscore.Hbonds>
donor molecule, donor type, donor heavy atom, donor atom, acceptor molecule, acceptor atom, score
      L1  H     5    24       P1  7948  1.00
      L1  H     9    41       P1  7921  1.00
      L1  C    16    39       P1 10747  0.93

> <Gold.PLP.Chemscore.Internal.Correction>
0.1082

> <Gold.Rescore>
     Score         DG    S(hbond)    S(metal)    S(lipo)     H(rot)  DE(clash)    DE(int)     intcor
     13.43     -16.46       1.97        0.00      78.72       1.89       1.67       1.36       ----

> <Gold.Chemscore.Fitness>
13.4281

> <Gold.Chemscore.DG>
-16.4567

> <Gold.Chemscore.ZeroCoef>
-5.4800

> <Gold.Chemscore.Hbond>
1.9749

> <Gold.Chemscore.Metal>
0.0000

> <Gold.Chemscore.Lipo>
78.7177

> <Gold.Chemscore.Internal_Hbond>
0.0000

> <Gold.Chemscore.DEClash>
1.6673

> <Gold.Chemscore.DEInternal>
1.3613

> <Gold.Chemscore.Rot>
1.8865

> <Gold.Chemscore.Internal.Correction>
   9.000000E+99

> <Gold.Chemscore.Hbonds>
donor molecule, donor type, donor heavy atom, donor atom, acceptor molecule, acceptor atom, score
      L1  H     5    24       P1  7948  0.92
      L1  H     9    41       P1  7921  0.99

> <Gold.Chemscore.Hbond.Weighted>
-6.5963

> <Gold.Chemscore.Metal.Weighted>
-0.0000

> <Gold.Chemscore.Lipo.Weighted>
-9.2100

> <Gold.Chemscore.Internal_Hbond.Weighted>
0.0000

> <Gold.Chemscore.DEClash.Weighted>
1.6673

> <Gold.Chemscore.DEInternal.Weighted>
1.3613

> <Gold.Chemscore.Rot.Weighted>
4.8295

> <Gold.Chemscore.Internal.Correction.Weighted>
   9.000000E+99

> <Gold.Protein.RotatedTorsions>
[ 6907 6896 6895 6894 ] final   90.15 input  -60.11 | X-H torsion
[ 7974 7965 7964 7962 ] final -102.79 input  175.53 | X-H torsion
[ 8008 7997 7996 7995 ] final  147.06 input   59.86 | X-H torsion
[ 10167 10162 10161 10158 ] final  -11.65 input  -65.29 | X-H torsion
[ 10718 10713 10712 10709 ] final   47.02 input   66.30 | X-H torsion
[ 10763 10752 10751 10750 ] final -107.15 input  -60.55 | X-H torsion
[ 11005 11000 10999 10996 ] final  -85.46 input  -57.11 | X-H torsion

> <Gold.Protein.ActiveResidues>
 VAL166  LYS551  ARG553  GLY616  TRP617  ASP618  TYR619  PRO620  LYS621  CYS622 
 ASP623  PHE694  ASN695  SER759  ASP760  ASP761  ALA762  ILE779  LEU786  VAL792 
 PHE793  MET794  SER795  GLU796  ALA797  LYS798  CYS799  TRP800  GLU811  SER814 

> <Gold.Protein.RotatedAtoms>
  152.5442  134.1856  159.8652 H   0  0  0  0  0  0  0  0  0  0  0  0  # atno 6907 bound_to 6896
  151.1855  133.4692  159.2602 H   0  0  0  0  0  0  0  0  0  0  0  0  # atno 6908 bound_to 6896
  151.1135  135.0052  159.8560 H   0  0  0  0  0  0  0  0  0  0  0  0  # atno 6909 bound_to 6896
  145.2642  140.9279  143.3023 H   0  0  0  0  0  0  0  0  0  0  0  0  # atno 7974 bound_to 7965
  156.2836  140.2165  156.5477 H   0  0  0  0  0  0  0  0  0  0  0  0  # atno 8008 bound_to 7997
  154.7317  140.0495  157.0754 H   0  0  0  0  0  0  0  0  0  0  0  0  # atno 8009 bound_to 7997
  155.0345  140.3139  155.4749 H   0  0  0  0  0  0  0  0  0  0  0  0  # atno 8010 bound_to 7997
  140.7143  143.5617  150.9189 H   0  0  0  0  0  0  0  0  0  0  0  0  # atno 10167 bound_to 10162
  157.4541  130.8156  149.7819 H   0  0  0  0  0  0  0  0  0  0  0  0  # atno 10718 bound_to 10713
  154.8057  135.4685  154.0387 H   0  0  0  0  0  0  0  0  0  0  0  0  # atno 10763 bound_to 10752
  153.1857  135.6847  153.8425 H   0  0  0  0  0  0  0  0  0  0  0  0  # atno 10764 bound_to 10752
  153.7960  135.3236  155.3362 H   0  0  0  0  0  0  0  0  0  0  0  0  # atno 10765 bound_to 10752
  141.1641  133.7401  156.9019 H   0  0  0  0  0  0  0  0  0  0  0  0  # atno 11005 bound_to 11000
  144.9391  139.4209  143.6457 LP  0  0  0  0  0  0  0  0  0  0  0  0  # atno 17320 bound_to 7965
  146.3266  139.8342  142.8902 LP  0  0  0  0  0  0  0  0  0  0  0  0  # atno 17321 bound_to 7965
  139.9342  143.6457  152.3069 LP  0  0  0  0  0  0  0  0  0  0  0  0  # atno 17342 bound_to 10162
  139.6919  144.7646  151.1424 LP  0  0  0  0  0  0  0  0  0  0  0  0  # atno 17343 bound_to 10162
  156.0000  130.3886  150.2644 LP  0  0  0  0  0  0  0  0  0  0  0  0  # atno 17370 bound_to 10713
  157.0818  131.0145  151.3154 LP  0  0  0  0  0  0  0  0  0  0  0  0  # atno 17371 bound_to 10713
  140.1577  134.9187  157.2674 LP  0  0  0  0  0  0  0  0  0  0  0  0  # atno 17394 bound_to 11000
  140.2648  134.3529  155.7394 LP  0  0  0  0  0  0  0  0  0  0  0  0  # atno 17395 bound_to 11000

$$$$
