AV-unprocessed.smi:1386|AV-procd|sdf|5638|dock2
  -GOLD-   22720 5253D 1   1.00000     0.00000
 Structure written by MMmdl.
 35 36  0  0  0  0  0  0  0  0  1 V2000
  152.1585  139.0846  155.6978 C   0  0  0  0  0  0  0  0  0  0  0  0
  150.7915  139.7754  155.8126 C   0  0  2  0  0  0  0  0  0  0  0  0
  150.3282  140.3452  154.4584 C   0  0  0  0  0  0  0  0  0  0  0  0
  148.9111  140.6593  154.4517 N   0  0  0  0  0  0  0  0  0  0  0  0
  147.9080  139.9925  153.7612 C   0  0  0  0  0  0  0  0  0  0  0  0
  146.7287  140.6344  154.0649 C   0  0  0  0  0  0  0  0  0  0  0  0
  146.9811  141.6933  154.9339 N   0  0  0  0  0  0  0  0  0  0  0  0
  148.2943  141.6466  155.1159 C   0  0  0  0  0  0  0  0  0  0  0  0
  150.8585  140.8459  156.8052 N   0  0  0  0  0  0  0  0  0  0  0  0
  151.4393  140.7656  158.0144 C   0  0  0  0  0  0  0  0  0  0  0  0
  152.0336  139.7545  158.3911 O   0  0  0  0  0  0  0  0  0  0  0  0
  151.3037  141.8772  158.7816 N   0  0  0  0  0  0  0  0  0  0  0  0
  150.4374  143.0316  158.4895 C   0  0  0  0  0  0  0  0  0  0  0  0
  151.2809  144.1393  157.8372 C   0  0  0  0  0  0  0  0  0  0  0  0
  152.5742  144.7265  158.9754 S   0  0  0  0  0  0  0  0  0  0  0  0
  153.2907  143.1299  159.4768 C   0  0  0  0  0  0  0  0  0  0  0  0
  152.1949  142.1442  159.9167 C   0  0  0  0  0  0  0  0  0  0  0  0
  152.1250  138.2675  154.9769 H   0  0  0  0  0  0  0  0  0  0  0  0
  152.4702  138.6644  156.6546 H   0  0  0  0  0  0  0  0  0  0  0  0
  152.9307  139.7829  155.3731 H   0  0  0  0  0  0  0  0  0  0  0  0
  150.0605  139.0290  156.1299 H   0  0  0  0  0  0  0  0  0  0  0  0
  150.8900  141.2454  154.2047 H   0  0  0  0  0  0  0  0  0  0  0  0
  150.5170  139.6241  153.6621 H   0  0  0  0  0  0  0  0  0  0  0  0
  148.1103  139.1386  153.1316 H   0  0  0  0  0  0  0  0  0  0  0  0
  145.7260  140.4170  153.7280 H   0  0  0  0  0  0  0  0  0  0  0  0
  148.8195  142.3425  155.7535 H   0  0  0  0  0  0  0  0  0  0  0  0
  150.3937  141.7100  156.5682 H   0  0  0  0  0  0  0  0  0  0  0  0
  149.5898  142.7819  157.8510 H   0  0  0  0  0  0  0  0  0  0  0  0
  149.9894  143.4016  159.4128 H   0  0  0  0  0  0  0  0  0  0  0  0
  151.7486  143.7737  156.9224 H   0  0  0  0  0  0  0  0  0  0  0  0
  150.6508  144.9842  157.5590 H   0  0  0  0  0  0  0  0  0  0  0  0
  153.8606  142.7179  158.6432 H   0  0  0  0  0  0  0  0  0  0  0  0
  153.9950  143.3029  160.2906 H   0  0  0  0  0  0  0  0  0  0  0  0
  151.6280  142.5589  160.7514 H   0  0  0  0  0  0  0  0  0  0  0  0
  152.6501  141.2311  160.3032 H   0  0  0  0  0  0  0  0  0  0  0  0
  1  2  1  0  0  0  0
  1 18  1  0  0  0  0
  1 19  1  0  0  0  0
  1 20  1  0  0  0  0
  2  3  1  0  0  0  0
  2  9  1  0  0  0  0
  2 21  1  0  0  0  0
  3  4  1  0  0  0  0
  3 22  1  0  0  0  0
  3 23  1  0  0  0  0
  4  8  1  0  0  0  0
  4  5  1  0  0  0  0
  5  6  2  0  0  0  0
  5 24  1  0  0  0  0
  6  7  1  0  0  0  0
  6 25  1  0  0  0  0
  7  8  2  0  0  0  0
  8 26  1  0  0  0  0
  9 10  1  0  0  0  0
  9 27  1  0  0  0  0
 10 11  2  0  0  0  0
 10 12  1  0  0  0  0
 12 17  1  0  0  0  0
 12 13  1  0  0  0  0
 13 14  1  0  0  0  0
 13 28  1  0  0  0  0
 13 29  1  0  0  0  0
 14 15  1  0  0  0  0
 14 30  1  0  0  0  0
 14 31  1  0  0  0  0
 15 16  1  0  0  0  0
 16 17  1  0  0  0  0
 16 32  1  0  0  0  0
 16 33  1  0  0  0  0
 17 34  1  0  0  0  0
 17 35  1  0  0  0  0
M  END
> <s_m_source_file>
AV-unprocessed.smi

> <i_m_source_file_index>
1386

> <i_lp_mmshare_version>
43012

> <i_f3d_flags>
0

> <s_epik_input>
W2NIXTFuW2NIXVtjSF1uMVtDSDJdW0NAQEhdKFtDSDNdKVtOSF1DKD1PKU4yW0NIMl1bQ0gyXVNbQ0gyXVtDSDJdMg==

> <s_epik_cmdline>
J2VwaWtfcHl0aG9uJywgJy1waCcsICc3LjAnLCAnLXRuJywgJzgnLCAnLW1hJywgJzIwMCcsICctbWV0YWxfYmluZGluZycsICctaW1hZScsICc8aW5maWxlLm1hZT4nLCAnLW9tYWUnLCAnPG91dGZpbGUubWFlPic=

> <r_lp_tautomer_probability>
1

> <r_epik_Ionization_Penalty>
0.622677

> <r_epik_Ionization_Penalty_Charging>
0.62263

> <r_epik_Ionization_Penalty_Neutral>
4.67019e-05

> <r_epik_State_Penalty>
0.63879

> <r_epik_Charging_Adjusted_Penalty>
1.26142

> <i_epik_Tot_Q>
0

> <i_epik_Tot_abs_Q>
0

> <r_epik_Metal_State_Penalty>
0.307117

> <b_epik_Metal_Only>
0

> <s_lp_Force_Field>
OPLS_2005

> <r_lp_Energy>
25.5009

> <b_lp_Chiralities_Consistent>
1

> <s_lp_Variant>
AV-unprocessed.smi:1386-3

> <Gold.Version>
5.8.1

> <Gold.Id.Protein>
6NUR|6NUR_protein|mol2

> <Gold.PLP.Fitness>
40.1377

> <Gold.PLP.PLP>
-33.3715

> <Gold.PLP.part.hbond>
0.0000

> <Gold.PLP.part.metal>
0.0000

> <Gold.PLP.part.buried>
1.7936

> <Gold.PLP.part.nonpolar>
-35.2733

> <Gold.PLP.part.repulsive>
0.1884

> <Gold.PLP.ligand.clash>
0.0000

> <Gold.PLP.ligand.torsion>
0.4834

> <Gold.PLP.Chemscore.Hbond>
0.0000

> <Gold.PLP.Chemscore.CHOScore>
2.5646

> <Gold.PLP.Chemscore.Metal>
0.0000

> <Gold.Chemscore.Hbonds>
donor molecule, donor type, donor heavy atom, donor atom, acceptor molecule, acceptor atom, score
      L1  C     5    24       P1  7957  0.40
      L1  C     6    25       P1 10175  1.00
      L1  C     8    26       P1  8028  0.97

> <Gold.PLP.Chemscore.Internal.Correction>
0.0393

> <Gold.Rescore>
     Score         DG    S(hbond)    S(metal)    S(lipo)     H(rot)  DE(clash)    DE(int)     intcor
      9.97     -11.52       0.00        0.00      86.43       1.59       0.05       1.50       ----

> <Gold.Chemscore.Fitness>
9.9689

> <Gold.Chemscore.DG>
-11.5217

> <Gold.Chemscore.ZeroCoef>
-5.4800

> <Gold.Chemscore.Hbond>
0.0000

> <Gold.Chemscore.Metal>
0.0000

> <Gold.Chemscore.Lipo>
86.4298

> <Gold.Chemscore.Internal_Hbond>
0.0000

> <Gold.Chemscore.DEClash>
0.0494

> <Gold.Chemscore.DEInternal>
1.5034

> <Gold.Chemscore.Rot>
1.5901

> <Gold.Chemscore.Internal.Correction>
   9.000000E+99

> <Gold.Chemscore.Hbond.Weighted>
-0.0000

> <Gold.Chemscore.Metal.Weighted>
-0.0000

> <Gold.Chemscore.Lipo.Weighted>
-10.1123

> <Gold.Chemscore.Internal_Hbond.Weighted>
0.0000

> <Gold.Chemscore.DEClash.Weighted>
0.0494

> <Gold.Chemscore.DEInternal.Weighted>
1.5034

> <Gold.Chemscore.Rot.Weighted>
4.0706

> <Gold.Chemscore.Internal.Correction.Weighted>
   9.000000E+99

> <Gold.Protein.RotatedTorsions>
[ 6907 6896 6895 6894 ] final   -9.49 input  -60.11 | X-H torsion
[ 7974 7965 7964 7962 ] final  -56.17 input  175.53 | X-H torsion
[ 8008 7997 7996 7995 ] final  -81.07 input   59.86 | X-H torsion
[ 10167 10162 10161 10158 ] final  166.86 input  -65.29 | X-H torsion
[ 10718 10713 10712 10709 ] final  -80.60 input   66.30 | X-H torsion
[ 10763 10752 10751 10750 ] final  127.18 input  -60.55 | X-H torsion
[ 11005 11000 10999 10996 ] final  -98.79 input  -57.11 | X-H torsion

> <Gold.Protein.ActiveResidues>
 VAL166  LYS551  ARG553  GLY616  TRP617  ASP618  TYR619  PRO620  LYS621  CYS622 
 ASP623  PHE694  ASN695  SER759  ASP760  ASP761  ALA762  ILE779  LEU786  VAL792 
 PHE793  MET794  SER795  GLU796  ALA797  LYS798  CYS799  TRP800  GLU811  SER814 

> <Gold.Protein.RotatedAtoms>
  151.4169  135.0992  159.9601 H   0  0  0  0  0  0  0  0  0  0  0  0  # atno 6907 bound_to 6896
  152.5001  133.8744  159.7325 H   0  0  0  0  0  0  0  0  0  0  0  0  # atno 6908 bound_to 6896
  150.9251  133.6776  159.2851 H   0  0  0  0  0  0  0  0  0  0  0  0  # atno 6909 bound_to 6896
  145.8658  140.8252  142.9913 H   0  0  0  0  0  0  0  0  0  0  0  0  # atno 7974 bound_to 7965
  154.5946  140.0653  156.9286 H   0  0  0  0  0  0  0  0  0  0  0  0  # atno 8008 bound_to 7997
  155.2236  140.3332  155.4294 H   0  0  0  0  0  0  0  0  0  0  0  0  # atno 8009 bound_to 7997
  156.2279  140.1827  156.7302 H   0  0  0  0  0  0  0  0  0  0  0  0  # atno 8010 bound_to 7997
  139.4933  144.3983  151.9439 H   0  0  0  0  0  0  0  0  0  0  0  0  # atno 10167 bound_to 10162
  156.0067  130.4579  150.3825 H   0  0  0  0  0  0  0  0  0  0  0  0  # atno 10718 bound_to 10713
  153.7053  135.3277  155.3234 H   0  0  0  0  0  0  0  0  0  0  0  0  # atno 10763 bound_to 10752
  154.8401  135.4464  154.1369 H   0  0  0  0  0  0  0  0  0  0  0  0  # atno 10764 bound_to 10752
  153.2448  135.6975  153.7822 H   0  0  0  0  0  0  0  0  0  0  0  0  # atno 10765 bound_to 10752
  141.1332  133.8272  157.0887 H   0  0  0  0  0  0  0  0  0  0  0  0  # atno 11005 bound_to 11000
  144.6726  140.1164  143.7452 LP  0  0  0  0  0  0  0  0  0  0  0  0  # atno 17320 bound_to 7965
  145.9195  139.2536  143.1390 LP  0  0  0  0  0  0  0  0  0  0  0  0  # atno 17321 bound_to 7965
  140.3421  144.3190  150.5965 LP  0  0  0  0  0  0  0  0  0  0  0  0  # atno 17342 bound_to 10162
  140.5557  143.2199  151.7852 LP  0  0  0  0  0  0  0  0  0  0  0  0  # atno 17343 bound_to 10162
  157.1904  131.0414  151.2703 LP  0  0  0  0  0  0  0  0  0  0  0  0  # atno 17370 bound_to 10713
  157.4066  130.7362  149.6807 LP  0  0  0  0  0  0  0  0  0  0  0  0  # atno 17371 bound_to 10713
  140.0406  134.9856  157.0954 LP  0  0  0  0  0  0  0  0  0  0  0  0  # atno 17394 bound_to 11000
  140.4141  134.1950  155.7163 LP  0  0  0  0  0  0  0  0  0  0  0  0  # atno 17395 bound_to 11000

$$$$
