AV-unprocessed.smi:3113|AV-procd|sdf|11853|dock7
  -GOLD-   2272017233D 1   1.00000     0.00000
 Structure written by MMmdl.
 35 36  0  0  0  0  0  0  0  0  2 V2000
  152.5262  143.9287  161.8706 C   0  0  0  0  0  0  0  0  0  0  0  0
  152.7920  142.5671  161.5534 C   0  0  0  0  0  0  0  0  0  0  0  0
  152.6203  142.2998  160.2685 N   0  0  0  0  0  0  0  0  0  0  0  0
  152.2379  143.4759  159.7265 N   0  0  0  0  0  0  0  0  0  0  0  0
  151.9605  143.5541  158.3058 C   0  0  0  0  0  0  0  0  0  0  0  0
  150.7537  142.6892  157.9161 C   0  0  0  0  0  0  0  0  0  0  0  0
  150.5318  142.7176  156.4579 N   0  3  0  0  0  0  0  0  0  0  0  0
  150.1183  141.4206  155.8869 C   0  0  0  0  0  0  0  0  0  0  0  0
  151.1699  140.3364  156.1616 C   0  0  1  0  0  0  0  0  0  0  0  0
  150.8981  139.5906  157.4824 C   0  0  0  0  0  0  0  0  0  0  0  0
  151.9162  138.4621  157.6823 C   0  0  0  0  0  0  0  0  0  0  0  0
  151.9377  137.5581  156.4452 C   0  0  0  0  0  0  0  0  0  0  0  0
  152.1381  138.3962  155.1722 C   0  0  0  0  0  0  0  0  0  0  0  0
  151.1310  139.4004  155.0861 O   0  0  0  0  0  0  0  0  0  0  0  0
  152.1726  144.4783  160.6715 C   0  0  0  0  0  0  0  0  0  0  0  0
  152.5857  144.4237  162.8286 H   0  0  0  0  0  0  0  0  0  0  0  0
  153.1037  141.7710  162.2137 H   0  0  0  0  0  0  0  0  0  0  0  0
  151.7854  144.5983  158.0418 H   0  0  0  0  0  0  0  0  0  0  0  0
  152.8502  143.2348  157.7615 H   0  0  0  0  0  0  0  0  0  0  0  0
  150.9158  141.6586  158.2353 H   0  0  0  0  0  0  0  0  0  0  0  0
  149.8549  143.0471  158.4204 H   0  0  0  0  0  0  0  0  0  0  0  0
  149.8122  143.3975  156.2555 H   0  0  0  0  0  0  0  0  0  0  0  0
  149.1659  141.1322  156.3337 H   0  0  0  0  0  0  0  0  0  0  0  0
  149.9522  141.5252  154.8136 H   0  0  0  0  0  0  0  0  0  0  0  0
  152.1572  140.8006  156.2058 H   0  0  0  0  0  0  0  0  0  0  0  0
  150.9409  140.2823  158.3244 H   0  0  0  0  0  0  0  0  0  0  0  0
  149.8898  139.1744  157.4708 H   0  0  0  0  0  0  0  0  0  0  0  0
  152.9076  138.8866  157.8449 H   0  0  0  0  0  0  0  0  0  0  0  0
  151.6735  137.8825  158.5732 H   0  0  0  0  0  0  0  0  0  0  0  0
  152.7291  136.8135  156.5356 H   0  0  0  0  0  0  0  0  0  0  0  0
  150.9977  137.0091  156.3753 H   0  0  0  0  0  0  0  0  0  0  0  0
  153.1271  138.8569  155.1603 H   0  0  0  0  0  0  0  0  0  0  0  0
  152.0749  137.7581  154.2907 H   0  0  0  0  0  0  0  0  0  0  0  0
  151.8851  145.4876  160.4160 H   0  0  0  0  0  0  0  0  0  0  0  0
  151.3874  143.0091  156.0075 H   0  0  0  0  0  0  0  0  0  0  0  0
  1 15  2  0  0  0  0
  1  2  1  0  0  0  0
  1 16  1  0  0  0  0
  2  3  2  0  0  0  0
  2 17  1  0  0  0  0
  3  4  1  0  0  0  0
  4  5  1  0  0  0  0
  4 15  1  0  0  0  0
  5  6  1  0  0  0  0
  5 18  1  0  0  0  0
  5 19  1  0  0  0  0
  6  7  1  0  0  0  0
  6 20  1  0  0  0  0
  6 21  1  0  0  0  0
  7  8  1  0  0  0  0
  7 22  1  0  0  0  0
  7 35  1  0  0  0  0
  8  9  1  0  0  0  0
  8 23  1  0  0  0  0
  8 24  1  0  0  0  0
  9 14  1  0  0  0  0
  9 10  1  0  0  0  0
  9 25  1  0  0  0  0
 10 11  1  0  0  0  0
 10 26  1  0  0  0  0
 10 27  1  0  0  0  0
 11 12  1  0  0  0  0
 11 28  1  0  0  0  0
 11 29  1  0  0  0  0
 12 13  1  0  0  0  0
 12 30  1  0  0  0  0
 12 31  1  0  0  0  0
 13 14  1  0  0  0  0
 13 32  1  0  0  0  0
 13 33  1  0  0  0  0
 15 34  1  0  0  0  0
M  CHG  1   7   1
M  END
> <s_m_source_file>
AV-unprocessed.smi

> <i_m_source_file_index>
3113

> <i_lp_mmshare_version>
43012

> <i_f3d_flags>
0

> <s_epik_input>
W2NIXTFbY0hdW2NIXW5uMVtDSDJdW0NIMl1bTkhdW0NIMl1bQ0BASF0yW0NIMl1bQ0gyXVtDSDJdW0NIMl1PMg==

> <s_epik_cmdline>
J2VwaWtfcHl0aG9uJywgJy1waCcsICc3LjAnLCAnLXRuJywgJzgnLCAnLW1hJywgJzIwMCcsICctbWV0YWxfYmluZGluZycsICctaW1hZScsICc8aW5maWxlLm1hZT4nLCAnLW9tYWUnLCAnPG91dGZpbGUubWFlPic=

> <r_lp_tautomer_probability>
1

> <r_epik_Ionization_Penalty>
0.00849054

> <r_epik_Ionization_Penalty_Charging>
0.00848754

> <r_epik_Ionization_Penalty_Neutral>
3.00382e-06

> <r_epik_State_Penalty>
0.00639836

> <r_epik_Charging_Adjusted_Penalty>
0.0148859

> <i_epik_Tot_Q>
1

> <i_epik_Tot_abs_Q>
1

> <r_epik_Metal_State_Penalty>
0.00641155

> <b_epik_Metal_Only>
0

> <s_lp_Force_Field>
OPLS_2005

> <r_lp_Energy>
10.7636

> <b_lp_Chiralities_Consistent>
1

> <s_lp_Variant>
AV-unprocessed.smi:3113-2

> <Gold.Version>
5.8.1

> <Gold.Id.Protein>
6NUR|6NUR_protein|mol2

> <Gold.PLP.Fitness>
46.3953

> <Gold.PLP.PLP>
-38.7069

> <Gold.PLP.part.hbond>
-2.0000

> <Gold.PLP.part.metal>
0.0000

> <Gold.PLP.part.buried>
-5.2287

> <Gold.PLP.part.nonpolar>
-30.0111

> <Gold.PLP.part.repulsive>
0.1535

> <Gold.PLP.ligand.clash>
0.0000

> <Gold.PLP.ligand.torsion>
0.6747

> <Gold.PLP.Chemscore.Hbond>
3.0000

> <Gold.PLP.Chemscore.CHOScore>
0.0000

> <Gold.PLP.Chemscore.Metal>
0.0000

> <Gold.Chemscore.Hbonds>
donor molecule, donor type, donor heavy atom, donor atom, acceptor molecule, acceptor atom, score
      L1  H     7    22       P1  8028  2.00
      P1  H  7989  7998       L1    14  0.43

> <Gold.PLP.Chemscore.Internal.Correction>
0.0378

> <Gold.Rescore>
     Score         DG    S(hbond)    S(metal)    S(lipo)     H(rot)  DE(clash)    DE(int)     intcor
     17.28     -18.10       1.70        0.00      96.52       1.70       0.00       0.83       ----

> <Gold.Chemscore.Fitness>
17.2784

> <Gold.Chemscore.DG>
-18.1040

> <Gold.Chemscore.ZeroCoef>
-5.4800

> <Gold.Chemscore.Hbond>
1.7006

> <Gold.Chemscore.Metal>
0.0000

> <Gold.Chemscore.Lipo>
96.5152

> <Gold.Chemscore.Internal_Hbond>
0.0000

> <Gold.Chemscore.DEClash>
0.0000

> <Gold.Chemscore.DEInternal>
0.8255

> <Gold.Chemscore.Rot>
1.6985

> <Gold.Chemscore.Internal.Correction>
   9.000000E+99

> <Gold.Chemscore.Hbonds>
donor molecule, donor type, donor heavy atom, donor atom, acceptor molecule, acceptor atom, score
      L1  H     7    22       P1  8028  1.00
      P1  H  7989  7998       L1    14  0.05

> <Gold.Chemscore.Hbond.Weighted>
-5.6799

> <Gold.Chemscore.Metal.Weighted>
-0.0000

> <Gold.Chemscore.Lipo.Weighted>
-11.2923

> <Gold.Chemscore.Internal_Hbond.Weighted>
0.0000

> <Gold.Chemscore.DEClash.Weighted>
0.0000

> <Gold.Chemscore.DEInternal.Weighted>
0.8255

> <Gold.Chemscore.Rot.Weighted>
4.3482

> <Gold.Chemscore.Internal.Correction.Weighted>
   9.000000E+99

> <Gold.Protein.RotatedTorsions>
[ 6907 6896 6895 6894 ] final  175.82 input  -60.11 | X-H torsion
[ 7974 7965 7964 7962 ] final -122.69 input  175.53 | X-H torsion
[ 8008 7997 7996 7995 ] final  103.90 input   59.86 | X-H torsion
[ 10167 10162 10161 10158 ] final   59.89 input  -65.29 | X-H torsion
[ 10718 10713 10712 10709 ] final  -50.70 input   66.30 | X-H torsion
[ 10763 10752 10751 10750 ] final -175.66 input  -60.55 | X-H torsion
[ 11005 11000 10999 10996 ] final   22.09 input  -57.11 | X-H torsion

> <Gold.Protein.ActiveResidues>
 VAL166  LYS551  ARG553  GLY616  TRP617  ASP618  TYR619  PRO620  LYS621  CYS622 
 ASP623  PHE694  ASN695  SER759  ASP760  ASP761  ALA762  ILE779  LEU786  VAL792 
 PHE793  MET794  SER795  GLU796  ALA797  LYS798  CYS799  TRP800  GLU811  SER814 

> <Gold.Protein.RotatedAtoms>
  151.7300  133.3317  159.3337 H   0  0  0  0  0  0  0  0  0  0  0  0  # atno 6907 bound_to 6896
  150.7616  134.6371  159.6227 H   0  0  0  0  0  0  0  0  0  0  0  0  # atno 6908 bound_to 6896
  152.3597  134.6891  160.0262 H   0  0  0  0  0  0  0  0  0  0  0  0  # atno 6909 bound_to 6896
  145.0268  140.8034  143.4348 H   0  0  0  0  0  0  0  0  0  0  0  0  # atno 7974 bound_to 7965
  156.1526  140.3157  155.8672 H   0  0  0  0  0  0  0  0  0  0  0  0  # atno 8008 bound_to 7997
  155.3942  140.0495  157.3056 H   0  0  0  0  0  0  0  0  0  0  0  0  # atno 8009 bound_to 7997
  154.5072  140.2151  155.9240 H   0  0  0  0  0  0  0  0  0  0  0  0  # atno 8010 bound_to 7997
  140.1715  144.4272  150.6659 H   0  0  0  0  0  0  0  0  0  0  0  0  # atno 10167 bound_to 10162
  156.1777  130.4150  149.9553 H   0  0  0  0  0  0  0  0  0  0  0  0  # atno 10718 bound_to 10713
  154.5817  135.2837  155.0726 H   0  0  0  0  0  0  0  0  0  0  0  0  # atno 10763 bound_to 10752
  154.2059  135.6416  153.5104 H   0  0  0  0  0  0  0  0  0  0  0  0  # atno 10764 bound_to 10752
  153.0090  135.5480  154.6473 H   0  0  0  0  0  0  0  0  0  0  0  0  # atno 10765 bound_to 10752
  140.3844  134.1886  155.7663 H   0  0  0  0  0  0  0  0  0  0  0  0  # atno 11005 bound_to 11000
  145.1823  139.2345  143.5286 LP  0  0  0  0  0  0  0  0  0  0  0  0  # atno 17320 bound_to 7965
  146.3493  140.1600  142.8591 LP  0  0  0  0  0  0  0  0  0  0  0  0  # atno 17321 bound_to 7965
  140.6579  143.2243  151.5926 LP  0  0  0  0  0  0  0  0  0  0  0  0  # atno 17342 bound_to 10162
  139.5336  144.2846  152.1202 LP  0  0  0  0  0  0  0  0  0  0  0  0  # atno 17343 bound_to 10162
  156.7333  130.9051  151.3627 LP  0  0  0  0  0  0  0  0  0  0  0  0  # atno 17370 bound_to 10713
  157.6847  130.9174  150.0355 LP  0  0  0  0  0  0  0  0  0  0  0  0  # atno 17371 bound_to 10713
  141.1912  133.8199  157.0887 LP  0  0  0  0  0  0  0  0  0  0  0  0  # atno 17394 bound_to 11000
  140.0454  134.9833  157.1039 LP  0  0  0  0  0  0  0  0  0  0  0  0  # atno 17395 bound_to 11000

$$$$
