AV-unprocessed.smi:2568|AV-procd|sdf|10089|dock6
  -GOLD-   2272014113D 1   1.00000     0.00000
 Structure written by MMmdl.
 25 26  0  0  0  0  0  0  0  0  2 V2000
  153.5381  138.4093  154.4013 C   0  0  0  0  0  0  0  0  0  0  0  0
  152.0516  138.5111  154.4624 C   0  0  0  0  0  0  0  0  0  0  0  0
  151.2602  137.4522  154.2817 N   0  0  0  0  0  0  0  0  0  0  0  0
  149.9705  137.8341  154.3959 N   0  0  0  0  0  0  0  0  0  0  0  0
  150.0864  139.1413  154.6269 C   0  0  0  0  0  0  0  0  0  0  0  0
  148.8734  139.9849  154.8685 C   0  0  1  0  0  0  0  0  0  0  0  0
  149.2288  141.4689  155.0780 C   0  0  0  0  0  0  0  0  0  0  0  0
  147.9940  142.2650  155.2161 N   0  3  0  0  0  0  0  0  0  0  0  0
  147.0896  142.0632  154.0664 C   0  0  0  0  0  0  0  0  0  0  0  0
  146.8089  140.5629  153.8669 C   0  0  0  0  0  0  0  0  0  0  0  0
  148.0368  139.8565  153.7205 O   0  0  0  0  0  0  0  0  0  0  0  0
  151.3654  139.6238  154.6993 N   0  0  0  0  0  0  0  0  0  0  0  0
  151.5404  136.4996  154.0954 H   0  0  0  0  0  0  0  0  0  0  0  0
  153.9947  139.3875  154.5552 H   0  0  0  0  0  0  0  0  0  0  0  0
  153.8480  138.0296  153.4273 H   0  0  0  0  0  0  0  0  0  0  0  0
  153.8988  137.7304  155.1743 H   0  0  0  0  0  0  0  0  0  0  0  0
  148.3455  139.5962  155.7420 H   0  0  0  0  0  0  0  0  0  0  0  0
  149.8438  141.5972  155.9693 H   0  0  0  0  0  0  0  0  0  0  0  0
  149.8040  141.8473  154.2316 H   0  0  0  0  0  0  0  0  0  0  0  0
  147.5165  141.9773  156.0586 H   0  0  0  0  0  0  0  0  0  0  0  0
  146.1611  142.6084  154.2364 H   0  0  0  0  0  0  0  0  0  0  0  0
  147.5500  142.4826  153.1709 H   0  0  0  0  0  0  0  0  0  0  0  0
  146.2429  140.1573  154.7070 H   0  0  0  0  0  0  0  0  0  0  0  0
  146.2040  140.4095  152.9733 H   0  0  0  0  0  0  0  0  0  0  0  0
  148.2314  143.2441  155.2900 H   0  0  0  0  0  0  0  0  0  0  0  0
  1 14  1  0  0  0  0
  1 15  1  0  0  0  0
  1 16  1  0  0  0  0
  1  2  1  0  0  0  0
  2 12  2  0  0  0  0
  2  3  1  0  0  0  0
  3  4  1  0  0  0  0
  3 13  1  0  0  0  0
  4  5  2  0  0  0  0
  5 12  1  0  0  0  0
  5  6  1  0  0  0  0
  6 11  1  0  0  0  0
  6  7  1  0  0  0  0
  6 17  1  0  0  0  0
  7  8  1  0  0  0  0
  7 18  1  0  0  0  0
  7 19  1  0  0  0  0
  8  9  1  0  0  0  0
  8 20  1  0  0  0  0
  8 25  1  0  0  0  0
  9 10  1  0  0  0  0
  9 21  1  0  0  0  0
  9 22  1  0  0  0  0
 10 11  1  0  0  0  0
 10 23  1  0  0  0  0
 10 24  1  0  0  0  0
M  CHG  1   8   1
M  END
> <s_m_source_file>
AV-unprocessed.smi

> <i_m_source_file_index>
2568

> <i_lp_mmshare_version>
43012

> <i_f3d_flags>
0

> <s_epik_input>
W0NIM11jMW5bbkhdYyhuMSlbQ0BASF0yW0NIMl1bTkhdW0NIMl1bQ0gyXU8y

> <s_epik_cmdline>
J2VwaWtfcHl0aG9uJywgJy1waCcsICc3LjAnLCAnLXRuJywgJzgnLCAnLW1hJywgJzIwMCcsICctbWV0YWxfYmluZGluZycsICctaW1hZScsICc8aW5maWxlLm1hZT4nLCAnLW9tYWUnLCAnPG91dGZpbGUubWFlPic=

> <r_lp_tautomer_probability>
0.948284

> <r_epik_Ionization_Penalty>
0.107151

> <r_epik_Ionization_Penalty_Charging>
0.100865

> <r_epik_Ionization_Penalty_Neutral>
0.00628602

> <r_epik_State_Penalty>
0.200426

> <r_epik_Charging_Adjusted_Penalty>
0.30129

> <i_epik_Tot_Q>
1

> <i_epik_Tot_abs_Q>
1

> <r_epik_Metal_State_Penalty>
0.501686

> <b_epik_Metal_Only>
0

> <s_lp_Force_Field>
OPLS_2005

> <r_lp_Energy>
11.0041

> <b_lp_Chiralities_Consistent>
1

> <s_lp_Variant>
AV-unprocessed.smi:2568-2

> <Gold.Version>
5.8.1

> <Gold.Id.Protein>
6NUR|6NUR_protein|mol2

> <Gold.PLP.Fitness>
30.6134

> <Gold.PLP.PLP>
-21.6597

> <Gold.PLP.part.hbond>
-2.5970

> <Gold.PLP.part.metal>
0.0000

> <Gold.PLP.part.buried>
-5.6960

> <Gold.PLP.part.nonpolar>
-15.7980

> <Gold.PLP.part.repulsive>
1.4748

> <Gold.PLP.ligand.clash>
0.0000

> <Gold.PLP.ligand.torsion>
0.0303

> <Gold.PLP.Chemscore.Hbond>
3.0000

> <Gold.PLP.Chemscore.CHOScore>
0.0000

> <Gold.PLP.Chemscore.Metal>
0.0000

> <Gold.Chemscore.Hbonds>
donor molecule, donor type, donor heavy atom, donor atom, acceptor molecule, acceptor atom, score
      L1  H     8    25       P1  8028  2.00
      P1  H  7989  7998       L1    12  1.00

> <Gold.PLP.Chemscore.Internal.Correction>
0.0143

> <Gold.Rescore>
     Score         DG    S(hbond)    S(metal)    S(lipo)     H(rot)  DE(clash)    DE(int)     intcor
     13.37     -13.46       1.87        0.00      36.67       1.00       0.08       0.01       ----

> <Gold.Chemscore.Fitness>
13.3696

> <Gold.Chemscore.DG>
-13.4567

> <Gold.Chemscore.ZeroCoef>
-5.4800

> <Gold.Chemscore.Hbond>
1.8701

> <Gold.Chemscore.Metal>
0.0000

> <Gold.Chemscore.Lipo>
36.6703

> <Gold.Chemscore.Internal_Hbond>
0.0000

> <Gold.Chemscore.DEClash>
0.0797

> <Gold.Chemscore.DEInternal>
0.0073

> <Gold.Chemscore.Rot>
1.0000

> <Gold.Chemscore.Internal.Correction>
   9.000000E+99

> <Gold.Chemscore.Hbonds>
donor molecule, donor type, donor heavy atom, donor atom, acceptor molecule, acceptor atom, score
      L1  H     8    25       P1  8028  0.94
      P1  H  7989  7998       L1    12  0.64

> <Gold.Chemscore.Hbond.Weighted>
-6.2462

> <Gold.Chemscore.Metal.Weighted>
-0.0000

> <Gold.Chemscore.Lipo.Weighted>
-4.2904

> <Gold.Chemscore.Internal_Hbond.Weighted>
0.0000

> <Gold.Chemscore.DEClash.Weighted>
0.0797

> <Gold.Chemscore.DEInternal.Weighted>
0.0073

> <Gold.Chemscore.Rot.Weighted>
2.5600

> <Gold.Chemscore.Internal.Correction.Weighted>
   9.000000E+99

> <Gold.Protein.RotatedTorsions>
[ 6907 6896 6895 6894 ] final -102.04 input  -60.11 | X-H torsion
[ 7974 7965 7964 7962 ] final  153.39 input  175.53 | X-H torsion
[ 8008 7997 7996 7995 ] final  -68.73 input   59.86 | X-H torsion
[ 10167 10162 10161 10158 ] final  -81.39 input  -65.29 | X-H torsion
[ 10718 10713 10712 10709 ] final -105.93 input   66.30 | X-H torsion
[ 10763 10752 10751 10750 ] final -149.60 input  -60.55 | X-H torsion
[ 11005 11000 10999 10996 ] final  -46.62 input  -57.11 | X-H torsion

> <Gold.Protein.ActiveResidues>
 VAL166  LYS551  ARG553  GLY616  TRP617  ASP618  TYR619  PRO620  LYS621  CYS622 
 ASP623  PHE694  ASN695  SER759  ASP760  ASP761  ALA762  ILE779  LEU786  VAL792 
 PHE793  MET794  SER795  GLU796  ALA797  LYS798  CYS799  TRP800  GLU811  SER814 

> <Gold.Protein.RotatedAtoms>
  150.7179  134.0642  159.3841 H   0  0  0  0  0  0  0  0  0  0  0  0  # atno 6907 bound_to 6896
  151.8622  135.0517  160.0480 H   0  0  0  0  0  0  0  0  0  0  0  0  # atno 6908 bound_to 6896
  152.2708  133.5345  159.5474 H   0  0  0  0  0  0  0  0  0  0  0  0  # atno 6909 bound_to 6896
  144.8158  139.6794  143.6122 H   0  0  0  0  0  0  0  0  0  0  0  0  # atno 7974 bound_to 7965
  154.4888  140.0867  156.7548 H   0  0  0  0  0  0  0  0  0  0  0  0  # atno 8008 bound_to 7997
  155.4282  140.3448  155.4259 H   0  0  0  0  0  0  0  0  0  0  0  0  # atno 8009 bound_to 7997
  156.1301  140.1499  156.9067 H   0  0  0  0  0  0  0  0  0  0  0  0  # atno 8010 bound_to 7997
  140.4416  143.2513  151.8617 H   0  0  0  0  0  0  0  0  0  0  0  0  # atno 10167 bound_to 10162
  156.0368  130.5588  150.7610 H   0  0  0  0  0  0  0  0  0  0  0  0  # atno 10718 bound_to 10713
  154.8168  135.3305  154.7154 H   0  0  0  0  0  0  0  0  0  0  0  0  # atno 10763 bound_to 10752
  153.7793  135.6919  153.4896 H   0  0  0  0  0  0  0  0  0  0  0  0  # atno 10764 bound_to 10752
  153.1991  135.4523  155.0192 H   0  0  0  0  0  0  0  0  0  0  0  0  # atno 10765 bound_to 10752
  141.0590  133.6715  156.3181 H   0  0  0  0  0  0  0  0  0  0  0  0  # atno 11005 bound_to 11000
  146.2461  139.6100  142.9459 LP  0  0  0  0  0  0  0  0  0  0  0  0  # atno 17320 bound_to 7965
  145.5218  141.0431  143.2431 LP  0  0  0  0  0  0  0  0  0  0  0  0  # atno 17321 bound_to 7965
  139.4790  144.5222  151.8785 LP  0  0  0  0  0  0  0  0  0  0  0  0  # atno 17342 bound_to 10162
  140.4312  144.2114  150.5888 LP  0  0  0  0  0  0  0  0  0  0  0  0  # atno 17343 bound_to 10162
  157.5129  131.0926  151.0176 LP  0  0  0  0  0  0  0  0  0  0  0  0  # atno 17370 bound_to 10713
  157.0526  130.5793  149.5373 LP  0  0  0  0  0  0  0  0  0  0  0  0  # atno 17371 bound_to 10713
  140.5906  134.5654  157.5499 LP  0  0  0  0  0  0  0  0  0  0  0  0  # atno 17394 bound_to 11000
  139.9416  134.7777  156.0665 LP  0  0  0  0  0  0  0  0  0  0  0  0  # atno 17395 bound_to 11000

$$$$
