AV-unprocessed.smi:195|AV-procd|sdf|1524|dock4
  -GOLD-   2262019373D 1   1.00000     0.00000
 Structure written by MMmdl.
 45 48  0  0  0  0  0  0  0  0  1 V2000
  146.6812  137.5187  160.0233 N   0  0  0  0  0  0  0  0  0  0  0  0
  147.4669  137.0365  159.3243 C   0  0  0  0  0  0  0  0  0  0  0  0
  148.4673  136.4242  158.4358 C   0  0  0  0  0  0  0  0  0  0  0  0
  147.8513  135.5880  157.3104 C   0  0  0  0  0  0  0  0  0  0  0  0
  147.0541  134.6265  157.9692 O   0  0  0  0  0  0  0  0  0  0  0  0
  147.1531  136.3413  156.1743 C   0  0  0  0  0  0  0  0  0  0  0  0
  148.3488  136.1209  155.3645 N   0  0  0  0  0  0  0  0  0  0  0  0
  149.1953  137.2698  155.2643 C   0  0  0  0  0  0  0  0  0  0  0  0
  150.2434  137.2918  154.3966 N   0  0  0  0  0  0  0  0  0  0  0  0
  151.0352  138.3629  154.2933 C   0  0  0  0  0  0  0  0  0  0  0  0
  150.9601  139.5201  154.9507 N   0  0  0  0  0  0  0  0  0  0  0  0
  149.9034  139.5244  155.8110 C   0  0  0  0  0  0  0  0  0  0  0  0
  148.9821  138.4588  156.0199 C   0  0  0  0  0  0  0  0  0  0  0  0
  148.0319  138.8371  156.9612 N   0  0  0  0  0  0  0  0  0  0  0  0
  148.3754  140.0508  157.2945 C   0  0  0  0  0  0  0  0  0  0  0  0
  149.5013  140.5348  156.6675 N   0  0  0  0  0  0  0  0  0  0  0  0
  150.0995  141.8469  156.8473 C   0  0  0  0  0  0  0  0  0  0  0  0
  149.9211  142.4224  158.2713 C   0  0  2  0  0  0  0  0  0  0  0  0
  148.5905  142.8955  158.3303 O   0  0  0  0  0  0  0  0  0  0  0  0
  150.8436  143.6112  158.6284 C   0  0  2  0  0  0  0  0  0  0  0  0
  152.3440  143.3136  158.6792 C   0  0  0  0  0  0  0  0  0  0  0  0
  152.8939  144.3836  159.6067 C   0  0  0  0  0  0  0  0  0  0  0  0
  151.6635  144.8669  160.3760 C   0  0  0  0  0  0  0  0  0  0  0  0
  150.6127  143.9987  159.9756 O   0  0  0  0  0  0  0  0  0  0  0  0
  148.7861  135.0275  156.2334 C   0  0  0  0  0  0  0  0  0  0  0  0
  149.0960  137.2206  158.0364 H   0  0  0  0  0  0  0  0  0  0  0  0
  149.1131  135.8129  159.0657 H   0  0  0  0  0  0  0  0  0  0  0  0
  147.6355  134.1011  158.4979 H   0  0  0  0  0  0  0  0  0  0  0  0
  146.2874  135.8146  155.7701 H   0  0  0  0  0  0  0  0  0  0  0  0
  146.9221  137.3816  156.4066 H   0  0  0  0  0  0  0  0  0  0  0  0
  151.8439  138.2797  153.5822 H   0  0  0  0  0  0  0  0  0  0  0  0
  147.8162  140.6273  158.0173 H   0  0  0  0  0  0  0  0  0  0  0  0
  151.1574  141.8016  156.5860 H   0  0  0  0  0  0  0  0  0  0  0  0
  149.6308  142.5085  156.1172 H   0  0  0  0  0  0  0  0  0  0  0  0
  150.0298  141.6282  159.0107 H   0  0  0  0  0  0  0  0  0  0  0  0
  148.4564  143.5036  157.6194 H   0  0  0  0  0  0  0  0  0  0  0  0
  150.6613  144.4593  157.9651 H   0  0  0  0  0  0  0  0  0  0  0  0
  152.5203  142.3303  159.1176 H   0  0  0  0  0  0  0  0  0  0  0  0
  152.8148  143.3397  157.6971 H   0  0  0  0  0  0  0  0  0  0  0  0
  153.6600  143.9786  160.2687 H   0  0  0  0  0  0  0  0  0  0  0  0
  153.3357  145.2054  159.0419 H   0  0  0  0  0  0  0  0  0  0  0  0
  151.8052  144.8321  161.4565 H   0  0  0  0  0  0  0  0  0  0  0  0
  151.4126  145.8912  160.0973 H   0  0  0  0  0  0  0  0  0  0  0  0
  149.8405  135.0004  156.5078 H   0  0  0  0  0  0  0  0  0  0  0  0
  148.4587  134.0611  155.8473 H   0  0  0  0  0  0  0  0  0  0  0  0
  1  2  3  0  0  0  0
  2  3  1  0  0  0  0
  3  4  1  0  0  0  0
  3 26  1  0  0  0  0
  3 27  1  0  0  0  0
  4 25  1  0  0  0  0
  4  5  1  0  0  0  0
  4  6  1  0  0  0  0
  5 28  1  0  0  0  0
  6  7  1  0  0  0  0
  6 29  1  0  0  0  0
  6 30  1  0  0  0  0
  7  8  1  0  0  0  0
  7 25  1  0  0  0  0
  8 13  1  0  0  0  0
  8  9  2  0  0  0  0
  9 10  1  0  0  0  0
 10 11  2  0  0  0  0
 10 31  1  0  0  0  0
 11 12  1  0  0  0  0
 12 16  1  0  0  0  0
 12 13  2  0  0  0  0
 13 14  1  0  0  0  0
 14 15  2  0  0  0  0
 15 16  1  0  0  0  0
 15 32  1  0  0  0  0
 16 17  1  0  0  0  0
 17 18  1  0  0  0  0
 17 33  1  0  0  0  0
 17 34  1  0  0  0  0
 18 19  1  0  0  0  0
 18 20  1  0  0  0  0
 18 35  1  0  0  0  0
 19 36  1  0  0  0  0
 20 24  1  0  0  0  0
 20 21  1  0  0  0  0
 20 37  1  0  0  0  0
 21 22  1  0  0  0  0
 21 38  1  0  0  0  0
 21 39  1  0  0  0  0
 22 23  1  0  0  0  0
 22 40  1  0  0  0  0
 22 41  1  0  0  0  0
 23 24  1  0  0  0  0
 23 42  1  0  0  0  0
 23 43  1  0  0  0  0
 25 44  1  0  0  0  0
 25 45  1  0  0  0  0
M  END
> <s_m_source_file>
AV-unprocessed.smi

> <i_m_source_file_index>
195

> <i_lp_mmshare_version>
43012

> <i_f3d_flags>
0

> <s_epik_input>
TiNDW0NIMl1DMShbT0hdKVtDSDJdTihbQ0gyXTEpYyhuW2NIXW4yKWMoYzIzKW5bY0hdbjNbQ0gyXVtDQEhdKFtPSF0pW0NAQEhdNFtDSDJdW0NIMl1bQ0gyXU80

> <s_epik_cmdline>
J2VwaWtfcHl0aG9uJywgJy1waCcsICc3LjAnLCAnLXRuJywgJzgnLCAnLW1hJywgJzIwMCcsICctbWV0YWxfYmluZGluZycsICctaW1hZScsICc8aW5maWxlLm1hZT4nLCAnLW9tYWUnLCAnPG91dGZpbGUubWFlPic=

> <r_lp_tautomer_probability>
1

> <r_epik_Ionization_Penalty>
0.00307146

> <r_epik_Ionization_Penalty_Charging>
0

> <r_epik_Ionization_Penalty_Neutral>
0.00307146

> <r_epik_State_Penalty>
0.0020279

> <r_epik_Charging_Adjusted_Penalty>
0.0020279

> <i_epik_Tot_Q>
0

> <i_epik_Tot_abs_Q>
0

> <r_epik_Metal_State_Penalty>
-0

> <b_epik_Metal_Only>
0

> <s_lp_Force_Field>
OPLS_2005

> <r_lp_Energy>
46.5325

> <b_lp_Chiralities_Consistent>
1

> <s_lp_Variant>
AV-unprocessed.smi:195-1

> <Gold.Version>
5.8.1

> <Gold.Id.Protein>
6NUR|6NUR_protein|mol2

> <Gold.PLP.Fitness>
45.3786

> <Gold.PLP.PLP>
-35.6151

> <Gold.PLP.part.hbond>
-4.3675

> <Gold.PLP.part.metal>
0.0000

> <Gold.PLP.part.buried>
-6.8914

> <Gold.PLP.part.nonpolar>
-26.0653

> <Gold.PLP.part.repulsive>
0.4221

> <Gold.PLP.ligand.clash>
0.0000

> <Gold.PLP.ligand.torsion>
0.9750

> <Gold.PLP.Chemscore.Hbond>
3.7760

> <Gold.PLP.Chemscore.CHOScore>
0.0000

> <Gold.PLP.Chemscore.Metal>
0.0000

> <Gold.Chemscore.Hbonds>
donor molecule, donor type, donor heavy atom, donor atom, acceptor molecule, acceptor atom, score
      L1  H    19    36       P1  8028  0.15
      P1  H  6934  6947       L1     1  1.00
      P1  H  7989  7998       L1    11  0.84

> <Gold.PLP.Chemscore.Internal.Correction>
0.3855

> <Gold.Rescore>
     Score         DG    S(hbond)    S(metal)    S(lipo)     H(rot)  DE(clash)    DE(int)     intcor
      9.67     -13.99       2.76        0.00      75.37       3.72       0.33       4.00       ----

> <Gold.Chemscore.Fitness>
9.6723

> <Gold.Chemscore.DG>
-13.9949

> <Gold.Chemscore.ZeroCoef>
-5.4800

> <Gold.Chemscore.Hbond>
2.7612

> <Gold.Chemscore.Metal>
0.0000

> <Gold.Chemscore.Lipo>
75.3684

> <Gold.Chemscore.Internal_Hbond>
0.0000

> <Gold.Chemscore.DEClash>
0.3263

> <Gold.Chemscore.DEInternal>
3.9963

> <Gold.Chemscore.Rot>
3.7210

> <Gold.Chemscore.Internal.Correction>
   9.000000E+99

> <Gold.Chemscore.Hbonds>
donor molecule, donor type, donor heavy atom, donor atom, acceptor molecule, acceptor atom, score
      L1  H    19    36       P1  8028  0.01
      P1  H  6934  6947       L1     1  0.94
      P1  H  7989  7998       L1    11  0.25

> <Gold.Chemscore.Hbond.Weighted>
-9.2224

> <Gold.Chemscore.Metal.Weighted>
-0.0000

> <Gold.Chemscore.Lipo.Weighted>
-8.8181

> <Gold.Chemscore.Internal_Hbond.Weighted>
0.0000

> <Gold.Chemscore.DEClash.Weighted>
0.3263

> <Gold.Chemscore.DEInternal.Weighted>
3.9963

> <Gold.Chemscore.Rot.Weighted>
9.5256

> <Gold.Chemscore.Internal.Correction.Weighted>
   9.000000E+99

> <Gold.Protein.RotatedTorsions>
[ 6907 6896 6895 6894 ] final   79.54 input  -60.11 | X-H torsion
[ 7974 7965 7964 7962 ] final   30.08 input  175.53 | X-H torsion
[ 8008 7997 7996 7995 ] final    9.83 input   59.86 | X-H torsion
[ 10167 10162 10161 10158 ] final  176.27 input  -65.29 | X-H torsion
[ 10718 10713 10712 10709 ] final  150.45 input   66.30 | X-H torsion
[ 10763 10752 10751 10750 ] final  -69.15 input  -60.55 | X-H torsion
[ 11005 11000 10999 10996 ] final  126.99 input  -57.11 | X-H torsion

> <Gold.Protein.ActiveResidues>
 VAL166  LYS551  ARG553  GLY616  TRP617  ASP618  TYR619  PRO620  LYS621  CYS622 
 ASP623  PHE694  ASN695  SER759  ASP760  ASP761  ALA762  ILE779  LEU786  VAL792 
 PHE793  MET794  SER795  GLU796  ALA797  LYS798  CYS799  TRP800  GLU811  SER814 

> <Gold.Protein.RotatedAtoms>
  152.5202  134.3495  159.9245 H   0  0  0  0  0  0  0  0  0  0  0  0  # atno 6907 bound_to 6896
  151.3446  133.3942  159.2682 H   0  0  0  0  0  0  0  0  0  0  0  0  # atno 6908 bound_to 6896
  150.9776  134.9155  159.7883 H   0  0  0  0  0  0  0  0  0  0  0  0  # atno 6909 bound_to 6896
  146.1633  139.6835  142.9018 H   0  0  0  0  0  0  0  0  0  0  0  0  # atno 7974 bound_to 7965
  154.7853  140.2826  155.6033 H   0  0  0  0  0  0  0  0  0  0  0  0  # atno 8008 bound_to 7997
  156.2956  140.2615  156.2616 H   0  0  0  0  0  0  0  0  0  0  0  0  # atno 8009 bound_to 7997
  154.9735  140.0376  157.2235 H   0  0  0  0  0  0  0  0  0  0  0  0  # atno 8010 bound_to 7997
  139.5208  144.2935  152.0442 H   0  0  0  0  0  0  0  0  0  0  0  0  # atno 10167 bound_to 10162
  157.2833  131.0839  151.1516 H   0  0  0  0  0  0  0  0  0  0  0  0  # atno 10718 bound_to 10713
  154.3993  135.6035  153.5888 H   0  0  0  0  0  0  0  0  0  0  0  0  # atno 10763 bound_to 10752
  152.9788  135.5902  154.4204 H   0  0  0  0  0  0  0  0  0  0  0  0  # atno 10764 bound_to 10752
  154.4000  135.2843  155.2081 H   0  0  0  0  0  0  0  0  0  0  0  0  # atno 10765 bound_to 10752
  139.9484  134.9626  156.8789 H   0  0  0  0  0  0  0  0  0  0  0  0  # atno 11005 bound_to 11000
  145.4532  141.0429  143.2792 LP  0  0  0  0  0  0  0  0  0  0  0  0  # atno 17320 bound_to 7965
  144.8057  139.6056  143.7052 LP  0  0  0  0  0  0  0  0  0  0  0  0  # atno 17321 bound_to 7965
  140.2385  144.4294  150.6270 LP  0  0  0  0  0  0  0  0  0  0  0  0  # atno 17342 bound_to 10162
  140.6306  143.2187  151.6503 LP  0  0  0  0  0  0  0  0  0  0  0  0  # atno 17343 bound_to 10162
  157.2941  130.6810  149.6129 LP  0  0  0  0  0  0  0  0  0  0  0  0  # atno 17370 bound_to 10713
  155.9665  130.4412  150.5330 LP  0  0  0  0  0  0  0  0  0  0  0  0  # atno 17371 bound_to 10713
  140.5778  134.0381  155.7453 LP  0  0  0  0  0  0  0  0  0  0  0  0  # atno 17394 bound_to 11000
  141.1141  133.9569  157.2855 LP  0  0  0  0  0  0  0  0  0  0  0  0  # atno 17395 bound_to 11000

$$$$
