AV-unprocessed.smi:3183|AV-procd|sdf|12156|dock7
  -GOLD-   2272017593D 1   1.00000     0.00000
 Structure written by MMmdl.
 43 44  0  0  0  0  0  0  0  0  2 V2000
  153.3925  142.4564  161.3487 C   0  0  0  0  0  0  0  0  0  0  0  0
  152.9336  142.5675  159.8854 C   0  0  1  0  0  0  0  0  0  0  0  0
  151.9722  141.4267  159.4990 C   0  0  0  0  0  0  0  0  0  0  0  0
  151.5886  141.4965  158.0127 C   0  0  0  0  0  0  0  0  0  0  0  0
  150.9816  142.8614  157.6418 C   0  0  2  0  0  0  0  0  0  0  0  0
  150.6659  142.8882  156.1962 N   0  3  0  0  0  0  0  0  0  0  0  0
  150.2074  141.6046  155.6241 C   0  0  0  0  0  0  0  0  0  0  0  0
  148.9911  141.0649  156.3908 C   0  0  0  0  0  0  0  0  0  0  0  0
  147.6896  141.7001  156.0055 C   0  0  0  0  0  0  0  0  0  0  0  0
  146.7598  142.3750  156.7491 C   0  0  0  0  0  0  0  0  0  0  0  0
  145.7517  142.7276  155.8102 C   0  0  0  0  0  0  0  0  0  0  0  0
  146.0290  142.3091  154.5882 N   0  0  0  0  0  0  0  0  0  0  0  0
  147.2176  141.6802  154.7053 N   0  0  0  0  0  0  0  0  0  0  0  0
  147.8236  141.0869  153.5288 C   0  0  0  0  0  0  0  0  0  0  0  0
  151.9479  144.0012  158.0371 C   0  0  0  0  0  0  0  0  0  0  0  0
  152.3422  143.9554  159.5291 C   0  0  1  0  0  0  0  0  0  0  0  0
  151.1782  144.3993  160.4385 C   0  0  0  0  0  0  0  0  0  0  0  0
  152.5502  142.4782  162.0406 H   0  0  0  0  0  0  0  0  0  0  0  0
  154.0665  143.2717  161.6134 H   0  0  0  0  0  0  0  0  0  0  0  0
  153.9271  141.5213  161.5177 H   0  0  0  0  0  0  0  0  0  0  0  0
  153.8312  142.4443  159.2768 H   0  0  0  0  0  0  0  0  0  0  0  0
  152.4394  140.4631  159.7054 H   0  0  0  0  0  0  0  0  0  0  0  0
  151.0731  141.4655  160.1147 H   0  0  0  0  0  0  0  0  0  0  0  0
  152.4747  141.3087  157.4044 H   0  0  0  0  0  0  0  0  0  0  0  0
  150.8825  140.6977  157.7822 H   0  0  0  0  0  0  0  0  0  0  0  0
  150.0445  142.9725  158.1892 H   0  0  0  0  0  0  0  0  0  0  0  0
  149.9671  143.5976  156.0266 H   0  0  0  0  0  0  0  0  0  0  0  0
  149.9475  141.7509  154.5748 H   0  0  0  0  0  0  0  0  0  0  0  0
  151.0175  140.8764  155.6615 H   0  0  0  0  0  0  0  0  0  0  0  0
  148.9186  139.9879  156.2341 H   0  0  0  0  0  0  0  0  0  0  0  0
  149.1506  141.2062  157.4605 H   0  0  0  0  0  0  0  0  0  0  0  0
  146.7903  142.5872  157.8076 H   0  0  0  0  0  0  0  0  0  0  0  0
  144.8335  143.2705  155.9794 H   0  0  0  0  0  0  0  0  0  0  0  0
  148.8604  141.4128  153.4427 H   0  0  0  0  0  0  0  0  0  0  0  0
  147.2874  141.3857  152.6268 H   0  0  0  0  0  0  0  0  0  0  0  0
  147.7963  140.0002  153.6124 H   0  0  0  0  0  0  0  0  0  0  0  0
  152.8514  143.9313  157.4297 H   0  0  0  0  0  0  0  0  0  0  0  0
  151.5117  144.9745  157.8129 H   0  0  0  0  0  0  0  0  0  0  0  0
  153.1348  144.6918  159.6687 H   0  0  0  0  0  0  0  0  0  0  0  0
  150.3495  143.6923  160.4244 H   0  0  0  0  0  0  0  0  0  0  0  0
  150.7877  145.3677  160.1250 H   0  0  0  0  0  0  0  0  0  0  0  0
  151.5000  144.5096  161.4739 H   0  0  0  0  0  0  0  0  0  0  0  0
  151.5104  143.1486  155.7072 H   0  0  0  0  0  0  0  0  0  0  0  0
  1  2  1  0  0  0  0
  1 18  1  0  0  0  0
  1 19  1  0  0  0  0
  1 20  1  0  0  0  0
  2 16  1  0  0  0  0
  2  3  1  0  0  0  0
  2 21  1  0  0  0  0
  3  4  1  0  0  0  0
  3 22  1  0  0  0  0
  3 23  1  0  0  0  0
  4  5  1  0  0  0  0
  4 24  1  0  0  0  0
  4 25  1  0  0  0  0
  5  6  1  0  0  0  0
  5 15  1  0  0  0  0
  5 26  1  0  0  0  0
  6  7  1  0  0  0  0
  6 27  1  0  0  0  0
  6 43  1  0  0  0  0
  7  8  1  0  0  0  0
  7 28  1  0  0  0  0
  7 29  1  0  0  0  0
  8  9  1  0  0  0  0
  8 30  1  0  0  0  0
  8 31  1  0  0  0  0
  9 13  1  0  0  0  0
  9 10  2  0  0  0  0
 10 11  1  0  0  0  0
 10 32  1  0  0  0  0
 11 12  2  0  0  0  0
 11 33  1  0  0  0  0
 12 13  1  0  0  0  0
 13 14  1  0  0  0  0
 14 34  1  0  0  0  0
 14 35  1  0  0  0  0
 14 36  1  0  0  0  0
 15 16  1  0  0  0  0
 15 37  1  0  0  0  0
 15 38  1  0  0  0  0
 16 17  1  0  0  0  0
 16 39  1  0  0  0  0
 17 40  1  0  0  0  0
 17 41  1  0  0  0  0
 17 42  1  0  0  0  0
M  CHG  1   6   1
M  END
> <s_m_source_file>
AV-unprocessed.smi

> <i_m_source_file_index>
3183

> <i_lp_mmshare_version>
43012

> <i_f3d_flags>
0

> <s_epik_input>
W0NIM11bQ0BASF0xW0NIMl1bQ0gyXVtDQEhdKFtDSDJdW0NASF0xW0NIM10pW05IXVtDSDJdW0NIMl1jMltjSF1bY0hdbm4yW0NIM10=

> <s_epik_cmdline>
J2VwaWtfcHl0aG9uJywgJy1waCcsICc3LjAnLCAnLXRuJywgJzgnLCAnLW1hJywgJzIwMCcsICctbWV0YWxfYmluZGluZycsICctaW1hZScsICc8aW5maWxlLm1hZT4nLCAnLW9tYWUnLCAnPG91dGZpbGUubWFlPic=

> <r_lp_tautomer_probability>
1

> <r_epik_Ionization_Penalty>
0.000327718

> <r_epik_Ionization_Penalty_Charging>
0.000294043

> <r_epik_Ionization_Penalty_Neutral>
3.36755e-05

> <r_epik_State_Penalty>
-0

> <r_epik_Charging_Adjusted_Penalty>
0.000294043

> <i_epik_Tot_Q>
1

> <i_epik_Tot_abs_Q>
1

> <r_epik_Metal_State_Penalty>
-0

> <b_epik_Metal_Only>
0

> <s_lp_Force_Field>
OPLS_2005

> <r_lp_Energy>
13.9595

> <b_lp_Chiralities_Consistent>
1

> <s_lp_Variant>
AV-unprocessed.smi:3183-4

> <Gold.Version>
5.8.1

> <Gold.Id.Protein>
6NUR|6NUR_protein|mol2

> <Gold.PLP.Fitness>
45.1010

> <Gold.PLP.PLP>
-39.8133

> <Gold.PLP.part.hbond>
-1.0000

> <Gold.PLP.part.metal>
0.0000

> <Gold.PLP.part.buried>
-4.1398

> <Gold.PLP.part.nonpolar>
-33.9881

> <Gold.PLP.part.repulsive>
0.2997

> <Gold.PLP.ligand.clash>
0.0000

> <Gold.PLP.ligand.torsion>
0.3626

> <Gold.PLP.Chemscore.Hbond>
2.0000

> <Gold.PLP.Chemscore.CHOScore>
0.0000

> <Gold.PLP.Chemscore.Metal>
0.0000

> <Gold.Chemscore.Hbonds>
donor molecule, donor type, donor heavy atom, donor atom, acceptor molecule, acceptor atom, score
      L1  H     6    27       P1  8028  2.00

> <Gold.PLP.Chemscore.Internal.Correction>
0.0130

> <Gold.Rescore>
     Score         DG    S(hbond)    S(metal)    S(lipo)     H(rot)  DE(clash)    DE(int)     intcor
     18.34     -18.69       0.98        0.00     115.07       1.38       0.06       0.29       ----

> <Gold.Chemscore.Fitness>
18.3426

> <Gold.Chemscore.DG>
-18.6862

> <Gold.Chemscore.ZeroCoef>
-5.4800

> <Gold.Chemscore.Hbond>
0.9784

> <Gold.Chemscore.Metal>
0.0000

> <Gold.Chemscore.Lipo>
115.0677

> <Gold.Chemscore.Internal_Hbond>
0.0000

> <Gold.Chemscore.DEClash>
0.0580

> <Gold.Chemscore.DEInternal>
0.2856

> <Gold.Chemscore.Rot>
1.3768

> <Gold.Chemscore.Internal.Correction>
   9.000000E+99

> <Gold.Chemscore.Hbonds>
donor molecule, donor type, donor heavy atom, donor atom, acceptor molecule, acceptor atom, score
      L1  H     6    27       P1  8028  0.98

> <Gold.Chemscore.Hbond.Weighted>
-3.2680

> <Gold.Chemscore.Metal.Weighted>
-0.0000

> <Gold.Chemscore.Lipo.Weighted>
-13.4629

> <Gold.Chemscore.Internal_Hbond.Weighted>
0.0000

> <Gold.Chemscore.DEClash.Weighted>
0.0580

> <Gold.Chemscore.DEInternal.Weighted>
0.2856

> <Gold.Chemscore.Rot.Weighted>
3.5247

> <Gold.Chemscore.Internal.Correction.Weighted>
   9.000000E+99

> <Gold.Protein.RotatedTorsions>
[ 6907 6896 6895 6894 ] final  -23.03 input  -60.11 | X-H torsion
[ 7974 7965 7964 7962 ] final  -72.82 input  175.53 | X-H torsion
[ 8008 7997 7996 7995 ] final   82.20 input   59.86 | X-H torsion
[ 10167 10162 10161 10158 ] final  172.79 input  -65.29 | X-H torsion
[ 10718 10713 10712 10709 ] final -149.28 input   66.30 | X-H torsion
[ 10763 10752 10751 10750 ] final   77.13 input  -60.55 | X-H torsion
[ 11005 11000 10999 10996 ] final  124.42 input  -57.11 | X-H torsion

> <Gold.Protein.ActiveResidues>
 VAL166  LYS551  ARG553  GLY616  TRP617  ASP618  TYR619  PRO620  LYS621  CYS622 
 ASP623  PHE694  ASN695  SER759  ASP760  ASP761  ALA762  ILE779  LEU786  VAL792 
 PHE793  MET794  SER795  GLU796  ALA797  LYS798  CYS799  TRP800  GLU811  SER814 

> <Gold.Protein.RotatedAtoms>
  151.2100  135.0477  159.8906 H   0  0  0  0  0  0  0  0  0  0  0  0  # atno 6907 bound_to 6896
  152.5425  134.0755  159.8223 H   0  0  0  0  0  0  0  0  0  0  0  0  # atno 6908 bound_to 6896
  151.0907  133.5270  159.2647 H   0  0  0  0  0  0  0  0  0  0  0  0  # atno 6909 bound_to 6896
  145.6601  140.9255  143.0938 H   0  0  0  0  0  0  0  0  0  0  0  0  # atno 7974 bound_to 7965
  155.9074  140.3429  155.6072 H   0  0  0  0  0  0  0  0  0  0  0  0  # atno 8008 bound_to 7997
  155.7428  140.0810  157.2256 H   0  0  0  0  0  0  0  0  0  0  0  0  # atno 8009 bound_to 7997
  154.4051  140.1567  156.2623 H   0  0  0  0  0  0  0  0  0  0  0  0  # atno 8010 bound_to 7997
  139.5087  144.3334  152.0089 H   0  0  0  0  0  0  0  0  0  0  0  0  # atno 10167 bound_to 10162
  156.4311  130.8076  151.2303 H   0  0  0  0  0  0  0  0  0  0  0  0  # atno 10718 bound_to 10713
  153.0776  135.4925  154.8436 H   0  0  0  0  0  0  0  0  0  0  0  0  # atno 10763 bound_to 10752
  154.7108  135.3019  154.9203 H   0  0  0  0  0  0  0  0  0  0  0  0  # atno 10764 bound_to 10752
  153.9897  135.6779  153.4806 H   0  0  0  0  0  0  0  0  0  0  0  0  # atno 10765 bound_to 10752
  139.9358  134.9639  156.8407 H   0  0  0  0  0  0  0  0  0  0  0  0  # atno 11005 bound_to 11000
  144.7092  139.8438  143.7420 LP  0  0  0  0  0  0  0  0  0  0  0  0  # atno 17320 bound_to 7965
  146.1132  139.4139  143.0274 LP  0  0  0  0  0  0  0  0  0  0  0  0  # atno 17321 bound_to 7965
  140.2773  144.3898  150.6130 LP  0  0  0  0  0  0  0  0  0  0  0  0  # atno 17342 bound_to 10162
  140.6044  143.2167  151.7010 LP  0  0  0  0  0  0  0  0  0  0  0  0  # atno 17343 bound_to 10162
  157.7508  131.0198  150.3682 LP  0  0  0  0  0  0  0  0  0  0  0  0  # atno 17370 bound_to 10713
  156.4019  130.3917  149.6953 LP  0  0  0  0  0  0  0  0  0  0  0  0  # atno 17371 bound_to 10713
  140.6080  134.0109  155.7564 LP  0  0  0  0  0  0  0  0  0  0  0  0  # atno 17394 bound_to 11000
  141.0971  133.9827  157.3142 LP  0  0  0  0  0  0  0  0  0  0  0  0  # atno 17395 bound_to 11000

$$$$
