AV-unprocessed.smi:1997|AV-procd|sdf|8086|dock7
  -GOLD-   2272010303D 1   1.00000     0.00000
 Structure written by MMmdl.
 37 39  0  0  0  0  0  0  0  0  1 V2000
  150.1949  135.1093  156.0306 O   0  0  0  0  0  0  0  0  0  0  0  0
  149.7157  135.3694  154.9264 C   0  0  0  0  0  0  0  0  0  0  0  0
  149.2344  134.4664  154.0544 N   0  0  0  0  0  0  0  0  0  0  0  0
  149.1679  133.0549  154.1957 C   0  0  0  0  0  0  0  0  0  0  0  0
  149.9118  132.3568  155.0647 N   0  0  0  0  0  0  0  0  0  0  0  0
  149.6468  130.9961  154.9967 N   0  0  0  0  0  0  0  0  0  0  0  0
  148.7128  130.7049  154.0836 C   0  0  0  0  0  0  0  0  0  0  0  0
  148.2575  129.3068  153.8274 C   0  0  0  0  0  0  0  0  0  0  0  0
  148.6831  128.5492  152.5884 C   0  0  0  0  0  0  0  0  0  0  0  0
  147.2548  129.0074  152.7366 C   0  0  0  0  0  0  0  0  0  0  0  0
  148.0717  132.0965  153.2158 S   0  0  0  0  0  0  0  0  0  0  0  0
  149.6147  136.6157  154.4389 N   0  0  0  0  0  0  0  0  0  0  0  0
  150.0803  137.8300  155.1129 C   0  0  2  0  0  0  0  0  0  0  0  0
  149.3322  139.0292  154.4867 C   0  0  0  0  0  0  0  0  0  0  0  0
  149.2821  140.2705  155.3946 C   0  0  0  0  0  0  0  0  0  0  0  0
  150.6448  140.9168  155.6879 C   0  0  0  0  0  0  0  0  0  0  0  0
  151.6170  139.9957  156.4448 C   0  0  0  0  0  0  0  0  0  0  0  0
  152.2277  139.0047  155.5685 N   0  0  0  0  0  0  0  0  0  0  0  0
  151.6018  138.0182  154.9090 C   0  0  0  0  0  0  0  0  0  0  0  0
  152.2312  137.2805  154.1504 O   0  0  0  0  0  0  0  0  0  0  0  0
  148.8799  134.8310  153.1825 H   0  0  0  0  0  0  0  0  0  0  0  0
  148.1768  128.7519  154.7600 H   0  0  0  0  0  0  0  0  0  0  0  0
  149.2960  129.0658  151.8524 H   0  0  0  0  0  0  0  0  0  0  0  0
  148.8827  127.4849  152.6952 H   0  0  0  0  0  0  0  0  0  0  0  0
  146.5016  128.2499  152.9428 H   0  0  0  0  0  0  0  0  0  0  0  0
  146.9258  129.8347  152.1107 H   0  0  0  0  0  0  0  0  0  0  0  0
  149.2122  136.7357  153.5212 H   0  0  0  0  0  0  0  0  0  0  0  0
  149.8501  137.7572  156.1775 H   0  0  0  0  0  0  0  0  0  0  0  0
  149.7534  139.2896  153.5140 H   0  0  0  0  0  0  0  0  0  0  0  0
  148.2994  138.7388  154.2876 H   0  0  0  0  0  0  0  0  0  0  0  0
  148.6407  141.0174  154.9257 H   0  0  0  0  0  0  0  0  0  0  0  0
  148.7944  140.0108  156.3350 H   0  0  0  0  0  0  0  0  0  0  0  0
  151.1029  141.2689  154.7625 H   0  0  0  0  0  0  0  0  0  0  0  0
  150.4726  141.8074  156.2930 H   0  0  0  0  0  0  0  0  0  0  0  0
  152.4254  140.5958  156.8629 H   0  0  0  0  0  0  0  0  0  0  0  0
  151.1268  139.5101  157.2899 H   0  0  0  0  0  0  0  0  0  0  0  0
  153.2233  139.0922  155.4234 H   0  0  0  0  0  0  0  0  0  0  0  0
  1  2  2  0  0  0  0
  2  3  1  0  0  0  0
  2 12  1  0  0  0  0
  3  4  1  0  0  0  0
  3 21  1  0  0  0  0
  4 11  1  0  0  0  0
  4  5  2  0  0  0  0
  5  6  1  0  0  0  0
  6  7  2  0  0  0  0
  7  8  1  0  0  0  0
  7 11  1  0  0  0  0
  8 10  1  0  0  0  0
  8  9  1  0  0  0  0
  8 22  1  0  0  0  0
  9 10  1  0  0  0  0
  9 23  1  0  0  0  0
  9 24  1  0  0  0  0
 10 25  1  0  0  0  0
 10 26  1  0  0  0  0
 12 13  1  0  0  0  0
 12 27  1  0  0  0  0
 13 19  1  0  0  0  0
 13 14  1  0  0  0  0
 13 28  1  0  0  0  0
 14 15  1  0  0  0  0
 14 29  1  0  0  0  0
 14 30  1  0  0  0  0
 15 16  1  0  0  0  0
 15 31  1  0  0  0  0
 15 32  1  0  0  0  0
 16 17  1  0  0  0  0
 16 33  1  0  0  0  0
 16 34  1  0  0  0  0
 17 18  1  0  0  0  0
 17 35  1  0  0  0  0
 17 36  1  0  0  0  0
 18 19  1  0  0  0  0
 18 37  1  0  0  0  0
 19 20  2  0  0  0  0
M  END
> <s_m_source_file>
AV-unprocessed.smi

> <i_m_source_file_index>
1997

> <i_lp_mmshare_version>
43012

> <i_f3d_flags>
0

> <s_epik_input>
W0NIMl0xW0NIMl1bQ0hdMWMoczIpbm5jMltOSF1DKD1PKVtOSF1bQ0BASF0zW0NIMl1bQ0gyXVtDSDJdW0NIMl1bTkhdQzM9Tw==

> <s_epik_cmdline>
J2VwaWtfcHl0aG9uJywgJy1waCcsICc3LjAnLCAnLXRuJywgJzgnLCAnLW1hJywgJzIwMCcsICctbWV0YWxfYmluZGluZycsICctaW1hZScsICc8aW5maWxlLm1hZT4nLCAnLW9tYWUnLCAnPG91dGZpbGUubWFlPic=

> <r_lp_tautomer_probability>
1

> <r_epik_Ionization_Penalty>
0.000421558

> <r_epik_Ionization_Penalty_Charging>
0

> <r_epik_Ionization_Penalty_Neutral>
0.000421558

> <r_epik_State_Penalty>
-0

> <r_epik_Charging_Adjusted_Penalty>
0

> <i_epik_Tot_Q>
0

> <i_epik_Tot_abs_Q>
0

> <r_epik_Metal_State_Penalty>
0.200761

> <b_epik_Metal_Only>
0

> <s_lp_Force_Field>
OPLS_2005

> <r_lp_Energy>
8.57521

> <b_lp_Chiralities_Consistent>
1

> <s_lp_Variant>
AV-unprocessed.smi:1997-1

> <Gold.Version>
5.8.1

> <Gold.Id.Protein>
6NUR|6NUR_protein|mol2

> <Gold.PLP.Fitness>
38.5291

> <Gold.PLP.PLP>
-31.2506

> <Gold.PLP.part.hbond>
-3.0000

> <Gold.PLP.part.metal>
0.0000

> <Gold.PLP.part.buried>
-4.3220

> <Gold.PLP.part.nonpolar>
-24.6807

> <Gold.PLP.part.repulsive>
0.6190

> <Gold.PLP.ligand.clash>
0.0000

> <Gold.PLP.ligand.torsion>
0.5652

> <Gold.PLP.Chemscore.Hbond>
2.7608

> <Gold.PLP.Chemscore.CHOScore>
0.0000

> <Gold.PLP.Chemscore.Metal>
0.0000

> <Gold.Chemscore.Hbonds>
donor molecule, donor type, donor heavy atom, donor atom, acceptor molecule, acceptor atom, score
      L1  H     3    21       P1  7948  0.90
      L1  H    12    27       P1  7948  1.00
      P1  H 10752 10763       L1    20  0.86

> <Gold.PLP.Chemscore.Internal.Correction>
0.1265

> <Gold.Rescore>
     Score         DG    S(hbond)    S(metal)    S(lipo)     H(rot)  DE(clash)    DE(int)     intcor
     14.00     -16.00       2.12        0.00      57.59       1.29       0.08       1.93       ----

> <Gold.Chemscore.Fitness>
13.9974

> <Gold.Chemscore.DG>
-16.0003

> <Gold.Chemscore.ZeroCoef>
-5.4800

> <Gold.Chemscore.Hbond>
2.1182

> <Gold.Chemscore.Metal>
0.0000

> <Gold.Chemscore.Lipo>
57.5891

> <Gold.Chemscore.Internal_Hbond>
0.0000

> <Gold.Chemscore.DEClash>
0.0775

> <Gold.Chemscore.DEInternal>
1.9253

> <Gold.Chemscore.Rot>
1.2860

> <Gold.Chemscore.Internal.Correction>
   9.000000E+99

> <Gold.Chemscore.Hbonds>
donor molecule, donor type, donor heavy atom, donor atom, acceptor molecule, acceptor atom, score
      L1  H     3    21       P1  7948  0.20
      L1  H    12    27       P1  7948  0.93
      P1  H 10752 10763       L1    20  0.85

> <Gold.Chemscore.Hbond.Weighted>
-7.0746

> <Gold.Chemscore.Metal.Weighted>
-0.0000

> <Gold.Chemscore.Lipo.Weighted>
-6.7379

> <Gold.Chemscore.Internal_Hbond.Weighted>
0.0000

> <Gold.Chemscore.DEClash.Weighted>
0.0775

> <Gold.Chemscore.DEInternal.Weighted>
1.9253

> <Gold.Chemscore.Rot.Weighted>
3.2923

> <Gold.Chemscore.Internal.Correction.Weighted>
   9.000000E+99

> <Gold.Protein.RotatedTorsions>
[ 6907 6896 6895 6894 ] final  -53.34 input  -60.11 | X-H torsion
[ 7974 7965 7964 7962 ] final -111.20 input  175.53 | X-H torsion
[ 8008 7997 7996 7995 ] final   68.93 input   59.86 | X-H torsion
[ 10167 10162 10161 10158 ] final  -94.60 input  -65.29 | X-H torsion
[ 10718 10713 10712 10709 ] final -113.11 input   66.30 | X-H torsion
[ 10763 10752 10751 10750 ] final   31.87 input  -60.55 | X-H torsion
[ 11005 11000 10999 10996 ] final   32.84 input  -57.11 | X-H torsion

> <Gold.Protein.ActiveResidues>
 VAL166  LYS551  ARG553  GLY616  TRP617  ASP618  TYR619  PRO620  LYS621  CYS622 
 ASP623  PHE694  ASN695  SER759  ASP760  ASP761  ALA762  ILE779  LEU786  VAL792 
 PHE793  MET794  SER795  GLU796  ALA797  LYS798  CYS799  TRP800  GLU811  SER814 

> <Gold.Protein.RotatedAtoms>
  150.8435  134.7736  159.6951 H   0  0  0  0  0  0  0  0  0  0  0  0  # atno 6907 bound_to 6896
  152.4517  134.5375  159.9839 H   0  0  0  0  0  0  0  0  0  0  0  0  # atno 6908 bound_to 6896
  151.5510  133.3379  159.2989 H   0  0  0  0  0  0  0  0  0  0  0  0  # atno 6909 bound_to 6896
  145.1589  140.8868  143.3602 H   0  0  0  0  0  0  0  0  0  0  0  0  # atno 7974 bound_to 7965
  155.7158  140.3494  155.4994 H   0  0  0  0  0  0  0  0  0  0  0  0  # atno 8008 bound_to 7997
  155.9314  140.1085  157.1151 H   0  0  0  0  0  0  0  0  0  0  0  0  # atno 8009 bound_to 7997
  154.4086  140.1230  156.4794 H   0  0  0  0  0  0  0  0  0  0  0  0  # atno 8010 bound_to 7997
  140.3128  143.3095  152.0130 H   0  0  0  0  0  0  0  0  0  0  0  0  # atno 10167 bound_to 10162
  156.0746  130.5955  150.8598 H   0  0  0  0  0  0  0  0  0  0  0  0  # atno 10718 bound_to 10713
  153.0292  135.6428  154.1267 H   0  0  0  0  0  0  0  0  0  0  0  0  # atno 10763 bound_to 10752
  154.0991  135.2861  155.3257 H   0  0  0  0  0  0  0  0  0  0  0  0  # atno 10764 bound_to 10752
  154.6411  135.5459  153.7853 H   0  0  0  0  0  0  0  0  0  0  0  0  # atno 10765 bound_to 10752
  140.2693  134.3101  155.7833 H   0  0  0  0  0  0  0  0  0  0  0  0  # atno 11005 bound_to 11000
  145.0352  139.3307  143.6004 LP  0  0  0  0  0  0  0  0  0  0  0  0  # atno 17320 bound_to 7965
  146.3485  139.9704  142.8707 LP  0  0  0  0  0  0  0  0  0  0  0  0  # atno 17321 bound_to 7965
  139.4890  144.6371  151.6953 LP  0  0  0  0  0  0  0  0  0  0  0  0  # atno 17342 bound_to 10162
  140.5553  144.0358  150.6145 LP  0  0  0  0  0  0  0  0  0  0  0  0  # atno 17343 bound_to 10162
  157.5835  131.0946  150.9233 LP  0  0  0  0  0  0  0  0  0  0  0  0  # atno 17370 bound_to 10713
  156.9424  130.5389  149.5280 LP  0  0  0  0  0  0  0  0  0  0  0  0  # atno 17371 bound_to 10713
  141.2180  133.7457  156.9309 LP  0  0  0  0  0  0  0  0  0  0  0  0  # atno 17394 bound_to 11000
  140.1389  134.9307  157.2440 LP  0  0  0  0  0  0  0  0  0  0  0  0  # atno 17395 bound_to 11000

$$$$
