AV-unprocessed.smi:2067|AV-procd|sdf|8424|dock6
  -GOLD-   2272011113D 1   1.00000     0.00000
 Structure written by MMmdl.
 47 48  0  0  0  0  0  0  0  0  1 V2000
  147.8410  139.9536  153.9214 C   0  0  0  0  0  0  0  0  0  0  0  0
  149.3115  140.2588  154.2459 C   0  0  1  0  0  0  0  0  0  0  0  0
  149.4462  141.2932  155.3816 C   0  0  0  0  0  0  0  0  0  0  0  0
  150.9191  141.6221  155.6720 C   0  0  0  0  0  0  0  0  0  0  0  0
  151.7205  140.3510  155.9889 C   0  0  0  0  0  0  0  0  0  0  0  0
  151.5918  139.3151  154.8596 C   0  0  0  0  0  0  0  0  0  0  0  0
  150.1157  138.9767  154.5584 C   0  0  1  0  0  0  0  0  0  0  0  0
  149.5247  138.3287  155.6796 O   0  0  0  0  0  0  0  0  0  0  0  0
  148.7481  137.1860  155.3540 C   0  0  0  0  0  0  0  0  0  0  0  0
  149.6078  135.9348  155.5523 C   0  0  0  0  0  0  0  0  0  0  0  0
  149.0180  134.7875  154.8809 N   0  0  0  0  0  0  0  0  0  0  0  0
  149.5136  133.4882  154.8844 C   0  0  0  0  0  0  0  0  0  0  0  0
  150.6678  133.1718  155.5355 C   0  0  0  0  0  0  0  0  0  0  0  0
  151.4672  134.1341  156.2268 C   0  0  0  0  0  0  0  0  0  0  0  0
  152.1263  134.9145  156.7723 N   0  0  0  0  0  0  0  0  0  0  0  0
  151.2072  131.8137  155.5424 C   0  0  0  0  0  0  0  0  0  0  0  0
  152.2522  131.4937  156.1136 O   0  0  0  0  0  0  0  0  0  0  0  0
  150.4417  130.8712  154.8253 N   0  0  0  0  0  0  0  0  0  0  0  0
  150.9440  129.5115  154.7913 C   0  0  0  0  0  0  0  0  0  0  0  0
  149.2601  131.1784  154.1185 C   0  0  0  0  0  0  0  0  0  0  0  0
  148.6503  130.3209  153.4722 O   0  0  0  0  0  0  0  0  0  0  0  0
  148.8006  132.5172  154.1758 N   0  0  0  0  0  0  0  0  0  0  0  0
  147.5645  132.7609  153.4604 C   0  0  0  0  0  0  0  0  0  0  0  0
  147.3231  139.5234  154.7794 H   0  0  0  0  0  0  0  0  0  0  0  0
  147.7600  139.2469  153.0953 H   0  0  0  0  0  0  0  0  0  0  0  0
  147.3074  140.8597  153.6333 H   0  0  0  0  0  0  0  0  0  0  0  0
  149.7459  140.7031  153.3491 H   0  0  0  0  0  0  0  0  0  0  0  0
  148.9148  142.2081  155.1173 H   0  0  0  0  0  0  0  0  0  0  0  0
  148.9718  140.9137  156.2877 H   0  0  0  0  0  0  0  0  0  0  0  0
  151.3579  142.1257  154.8095 H   0  0  0  0  0  0  0  0  0  0  0  0
  150.9865  142.3216  156.5058 H   0  0  0  0  0  0  0  0  0  0  0  0
  152.7699  140.6023  156.1451 H   0  0  0  0  0  0  0  0  0  0  0  0
  151.3639  139.9205  156.9252 H   0  0  0  0  0  0  0  0  0  0  0  0
  152.0583  139.7120  153.9573 H   0  0  0  0  0  0  0  0  0  0  0  0
  152.1530  138.4171  155.1160 H   0  0  0  0  0  0  0  0  0  0  0  0
  150.0653  138.3220  153.6863 H   0  0  0  0  0  0  0  0  0  0  0  0
  147.8809  137.1431  156.0140 H   0  0  0  0  0  0  0  0  0  0  0  0
  148.3762  137.2277  154.3299 H   0  0  0  0  0  0  0  0  0  0  0  0
  150.6196  136.0979  155.1801 H   0  0  0  0  0  0  0  0  0  0  0  0
  149.6850  135.7328  156.6206 H   0  0  0  0  0  0  0  0  0  0  0  0
  148.0108  134.8507  154.8378 H   0  0  0  0  0  0  0  0  0  0  0  0
  150.1657  128.8160  154.4790 H   0  0  0  0  0  0  0  0  0  0  0  0
  151.2599  129.2369  155.7993 H   0  0  0  0  0  0  0  0  0  0  0  0
  151.7820  129.5000  154.0930 H   0  0  0  0  0  0  0  0  0  0  0  0
  147.7565  132.5718  152.4028 H   0  0  0  0  0  0  0  0  0  0  0  0
  147.2348  133.7871  153.6022 H   0  0  0  0  0  0  0  0  0  0  0  0
  146.8094  132.0834  153.8636 H   0  0  0  0  0  0  0  0  0  0  0  0
  1  2  1  0  0  0  0
  1 24  1  0  0  0  0
  1 25  1  0  0  0  0
  1 26  1  0  0  0  0
  2  7  1  0  0  0  0
  2  3  1  0  0  0  0
  2 27  1  0  0  0  0
  3  4  1  0  0  0  0
  3 28  1  0  0  0  0
  3 29  1  0  0  0  0
  4  5  1  0  0  0  0
  4 30  1  0  0  0  0
  4 31  1  0  0  0  0
  5  6  1  0  0  0  0
  5 32  1  0  0  0  0
  5 33  1  0  0  0  0
  6  7  1  0  0  0  0
  6 34  1  0  0  0  0
  6 35  1  0  0  0  0
  7  8  1  0  0  0  0
  7 36  1  0  0  0  0
  8  9  1  0  0  0  0
  9 10  1  0  0  0  0
  9 37  1  0  0  0  0
  9 38  1  0  0  0  0
 10 11  1  0  0  0  0
 10 39  1  0  0  0  0
 10 40  1  0  0  0  0
 11 12  1  0  0  0  0
 11 41  1  0  0  0  0
 12 22  1  0  0  0  0
 12 13  2  0  0  0  0
 13 14  1  0  0  0  0
 13 16  1  0  0  0  0
 14 15  3  0  0  0  0
 16 17  2  0  0  0  0
 16 18  1  0  0  0  0
 18 19  1  0  0  0  0
 18 20  1  0  0  0  0
 19 42  1  0  0  0  0
 19 43  1  0  0  0  0
 19 44  1  0  0  0  0
 20 21  2  0  0  0  0
 20 22  1  0  0  0  0
 22 23  1  0  0  0  0
 23 45  1  0  0  0  0
 23 46  1  0  0  0  0
 23 47  1  0  0  0  0
M  END
> <s_m_source_file>
AV-unprocessed.smi

> <i_m_source_file_index>
2067

> <i_lp_mmshare_version>
43012

> <i_f3d_flags>
0

> <s_epik_input>
W0NIM11bQ0BASF0xW0NIMl1bQ0gyXVtDSDJdW0NIMl1bQ0BIXTFPW0NIMl1bQ0gyXVtOSF1jMmMoQyNOKWMoPU8pbihbQ0gzXSljKD1PKW4yW0NIM10=

> <s_epik_cmdline>
J2VwaWtfcHl0aG9uJywgJy1waCcsICc3LjAnLCAnLXRuJywgJzgnLCAnLW1hJywgJzIwMCcsICctbWV0YWxfYmluZGluZycsICctaW1hZScsICc8aW5maWxlLm1hZT4nLCAnLW9tYWUnLCAnPG91dGZpbGUubWFlPic=

> <r_epik_Ionization_Penalty>
0.00056529

> <r_epik_Ionization_Penalty_Charging>
3.94678e-10

> <r_epik_Ionization_Penalty_Neutral>
0.000565289

> <r_epik_State_Penalty>
0.000354611

> <r_epik_Charging_Adjusted_Penalty>
0.000354611

> <i_epik_Tot_Q>
0

> <i_epik_Tot_abs_Q>
0

> <r_epik_Metal_State_Penalty>
-0

> <b_epik_Metal_Only>
0

> <s_lp_Force_Field>
OPLS_2005

> <r_lp_Energy>
33.1423

> <b_lp_Chiralities_Consistent>
1

> <s_lp_Variant>
AV-unprocessed.smi:2067-2

> <Gold.Version>
5.8.1

> <Gold.Id.Protein>
6NUR|6NUR_protein|mol2

> <Gold.PLP.Fitness>
39.4355

> <Gold.PLP.PLP>
-39.3572

> <Gold.PLP.part.hbond>
-1.6599

> <Gold.PLP.part.metal>
0.0000

> <Gold.PLP.part.buried>
-4.0850

> <Gold.PLP.part.nonpolar>
-32.4666

> <Gold.PLP.part.repulsive>
1.2702

> <Gold.PLP.ligand.clash>
10.2522

> <Gold.PLP.ligand.torsion>
0.9578

> <Gold.PLP.Chemscore.Hbond>
0.6609

> <Gold.PLP.Chemscore.CHOScore>
0.0000

> <Gold.PLP.Chemscore.Metal>
0.0000

> <Gold.Chemscore.Hbonds>
donor molecule, donor type, donor heavy atom, donor atom, acceptor molecule, acceptor atom, score
      P1  H 10752 10763       L1    15  0.95

> <Gold.PLP.Chemscore.Internal.Correction>
10.2633

> <Gold.Rescore>
     Score         DG    S(hbond)    S(metal)    S(lipo)     H(rot)  DE(clash)    DE(int)     intcor
      6.67     -10.72       0.57        0.00      66.92       1.76       0.49       3.56       ----

> <Gold.Chemscore.Fitness>
6.6740

> <Gold.Chemscore.DG>
-10.7249

> <Gold.Chemscore.ZeroCoef>
-5.4800

> <Gold.Chemscore.Hbond>
0.5736

> <Gold.Chemscore.Metal>
0.0000

> <Gold.Chemscore.Lipo>
66.9244

> <Gold.Chemscore.Internal_Hbond>
0.0000

> <Gold.Chemscore.DEClash>
0.4948

> <Gold.Chemscore.DEInternal>
3.5561

> <Gold.Chemscore.Rot>
1.7583

> <Gold.Chemscore.Internal.Correction>
   9.000000E+99

> <Gold.Chemscore.Hbonds>
donor molecule, donor type, donor heavy atom, donor atom, acceptor molecule, acceptor atom, score
      P1  H 10752 10763       L1    15  0.20

> <Gold.Chemscore.Hbond.Weighted>
-1.9160

> <Gold.Chemscore.Metal.Weighted>
-0.0000

> <Gold.Chemscore.Lipo.Weighted>
-7.8302

> <Gold.Chemscore.Internal_Hbond.Weighted>
0.0000

> <Gold.Chemscore.DEClash.Weighted>
0.4948

> <Gold.Chemscore.DEInternal.Weighted>
3.5561

> <Gold.Chemscore.Rot.Weighted>
4.5012

> <Gold.Chemscore.Internal.Correction.Weighted>
   9.000000E+99

> <Gold.Protein.RotatedTorsions>
[ 6907 6896 6895 6894 ] final   91.80 input  -60.11 | X-H torsion
[ 7974 7965 7964 7962 ] final  121.98 input  175.53 | X-H torsion
[ 8008 7997 7996 7995 ] final -108.11 input   59.86 | X-H torsion
[ 10167 10162 10161 10158 ] final  -10.37 input  -65.29 | X-H torsion
[ 10718 10713 10712 10709 ] final  135.65 input   66.30 | X-H torsion
[ 10763 10752 10751 10750 ] final  107.75 input  -60.55 | X-H torsion
[ 11005 11000 10999 10996 ] final  176.67 input  -57.11 | X-H torsion

> <Gold.Protein.ActiveResidues>
 VAL166  LYS551  ARG553  GLY616  TRP617  ASP618  TYR619  PRO620  LYS621  CYS622 
 ASP623  PHE694  ASN695  SER759  ASP760  ASP761  ALA762  ILE779  LEU786  VAL792 
 PHE793  MET794  SER795  GLU796  ALA797  LYS798  CYS799  TRP800  GLU811  SER814 

> <Gold.Protein.RotatedAtoms>
  152.5451  134.1601  159.8553 H   0  0  0  0  0  0  0  0  0  0  0  0  # atno 6907 bound_to 6896
  151.1620  133.4832  159.2601 H   0  0  0  0  0  0  0  0  0  0  0  0  # atno 6908 bound_to 6896
  151.1363  135.0167  159.8660 H   0  0  0  0  0  0  0  0  0  0  0  0  # atno 6909 bound_to 6896
  145.1129  139.3440  143.4754 H   0  0  0  0  0  0  0  0  0  0  0  0  # atno 7974 bound_to 7965
  154.9394  140.0403  157.2089 H   0  0  0  0  0  0  0  0  0  0  0  0  # atno 8008 bound_to 7997
  154.8083  140.2863  155.5849 H   0  0  0  0  0  0  0  0  0  0  0  0  # atno 8009 bound_to 7997
  156.2969  140.2542  156.2966 H   0  0  0  0  0  0  0  0  0  0  0  0  # atno 8010 bound_to 7997
  140.7112  143.5756  150.9046 H   0  0  0  0  0  0  0  0  0  0  0  0  # atno 10167 bound_to 10162
  157.4548  131.1069  150.9990 H   0  0  0  0  0  0  0  0  0  0  0  0  # atno 10718 bound_to 10713
  153.4111  135.3834  155.2051 H   0  0  0  0  0  0  0  0  0  0  0  0  # atno 10763 bound_to 10752
  154.8738  135.3794  154.4500 H   0  0  0  0  0  0  0  0  0  0  0  0  # atno 10764 bound_to 10752
  153.5008  135.7088  153.5895 H   0  0  0  0  0  0  0  0  0  0  0  0  # atno 10765 bound_to 10752
  140.3757  134.6991  157.4420 H   0  0  0  0  0  0  0  0  0  0  0  0  # atno 11005 bound_to 11000
  146.3525  140.1056  142.8606 LP  0  0  0  0  0  0  0  0  0  0  0  0  # atno 17320 bound_to 7965
  145.0827  140.9231  143.4816 LP  0  0  0  0  0  0  0  0  0  0  0  0  # atno 17321 bound_to 7965
  139.9482  143.6303  152.3036 LP  0  0  0  0  0  0  0  0  0  0  0  0  # atno 17342 bound_to 10162
  139.6812  144.7655  151.1605 LP  0  0  0  0  0  0  0  0  0  0  0  0  # atno 17343 bound_to 10162
  157.0807  130.5902  149.5420 LP  0  0  0  0  0  0  0  0  0  0  0  0  # atno 17370 bound_to 10713
  156.0003  130.5080  150.7636 LP  0  0  0  0  0  0  0  0  0  0  0  0  # atno 17371 bound_to 10713
  140.0517  134.6121  155.8854 LP  0  0  0  0  0  0  0  0  0  0  0  0  # atno 17394 bound_to 11000
  141.1940  133.6581  156.5574 LP  0  0  0  0  0  0  0  0  0  0  0  0  # atno 17395 bound_to 11000

$$$$
