AV-unprocessed.smi:859|AV-procd|sdf|3963|dock1
  -GOLD-   22720 1433D 1   1.00000     0.00000
 Structure written by MMmdl.
 36 37  0  0  0  0  0  0  0  0  2 V2000
  149.4924  141.2654  158.3594 O   0  0  0  0  0  0  0  0  0  0  0  0
  150.5051  141.6836  157.7970 C   0  0  0  0  0  0  0  0  0  0  0  0
  150.8360  141.3552  156.5379 N   0  0  0  0  0  0  0  0  0  0  0  0
  150.0822  140.4503  155.6748 C   0  0  0  0  0  0  0  0  0  0  0  0
  149.6562  141.1260  154.3576 C   0  0  0  0  0  0  0  0  0  0  0  0
  148.2073  141.3343  154.2683 N   0  0  0  0  0  0  0  0  0  0  0  0
  147.4340  142.1396  155.0646 C   0  0  0  0  0  0  0  0  0  0  0  0
  146.1432  142.0014  154.6233 C   0  0  0  0  0  0  0  0  0  0  0  0
  146.1837  141.1224  153.5744 N   0  3  0  0  0  0  0  0  0  0  0  0
  147.4403  140.7218  153.3567 C   0  0  0  0  0  0  0  0  0  0  0  0
  151.4796  142.6031  158.5432 C   0  0  0  0  0  0  0  0  0  0  0  0
  152.1016  141.8745  159.7539 C   0  0  0  0  0  0  0  0  0  0  0  0
  153.0788  142.7873  160.5122 C   0  0  0  0  0  0  0  0  0  0  0  0
  152.3946  144.0908  160.9537 C   0  0  0  0  0  0  0  0  0  0  0  0
  151.7570  144.8186  159.7593 C   0  0  0  0  0  0  0  0  0  0  0  0
  150.7826  143.9015  159.0020 C   0  0  0  0  0  0  0  0  0  0  0  0
  151.6824  141.7507  156.1540 H   0  0  0  0  0  0  0  0  0  0  0  0
  150.6444  139.5360  155.4767 H   0  0  0  0  0  0  0  0  0  0  0  0
  149.1912  140.1438  156.2226 H   0  0  0  0  0  0  0  0  0  0  0  0
  150.1292  142.1047  154.2708 H   0  0  0  0  0  0  0  0  0  0  0  0
  149.9819  140.5401  153.4966 H   0  0  0  0  0  0  0  0  0  0  0  0
  147.8477  142.7284  155.8706 H   0  0  0  0  0  0  0  0  0  0  0  0
  145.2225  142.4487  154.9693 H   0  0  0  0  0  0  0  0  0  0  0  0
  147.7674  140.0286  152.6022 H   0  0  0  0  0  0  0  0  0  0  0  0
  152.2860  142.8753  157.8593 H   0  0  0  0  0  0  0  0  0  0  0  0
  151.3176  141.5434  160.4371 H   0  0  0  0  0  0  0  0  0  0  0  0
  152.6237  140.9749  159.4248 H   0  0  0  0  0  0  0  0  0  0  0  0
  153.4776  142.2643  161.3820 H   0  0  0  0  0  0  0  0  0  0  0  0
  153.9317  143.0199  159.8735 H   0  0  0  0  0  0  0  0  0  0  0  0
  151.6274  143.8671  161.6963 H   0  0  0  0  0  0  0  0  0  0  0  0
  153.1181  144.7430  161.4435 H   0  0  0  0  0  0  0  0  0  0  0  0
  151.2349  145.7117  160.1040 H   0  0  0  0  0  0  0  0  0  0  0  0
  152.5387  145.1612  159.0803 H   0  0  0  0  0  0  0  0  0  0  0  0
  150.3753  144.4348  158.1421 H   0  0  0  0  0  0  0  0  0  0  0  0
  149.9355  143.6669  159.6488 H   0  0  0  0  0  0  0  0  0  0  0  0
  145.3797  140.8153  153.0415 H   0  0  0  0  0  0  0  0  0  0  0  0
  1  2  2  0  0  0  0
  2  3  1  0  0  0  0
  2 11  1  0  0  0  0
  3  4  1  0  0  0  0
  3 17  1  0  0  0  0
  4  5  1  0  0  0  0
  4 18  1  0  0  0  0
  4 19  1  0  0  0  0
  5  6  1  0  0  0  0
  5 20  1  0  0  0  0
  5 21  1  0  0  0  0
  6 10  1  0  0  0  0
  6  7  1  0  0  0  0
  7  8  2  0  0  0  0
  7 22  1  0  0  0  0
  8  9  1  0  0  0  0
  8 23  1  0  0  0  0
  9 10  2  0  0  0  0
  9 36  1  0  0  0  0
 10 24  1  0  0  0  0
 11 16  1  0  0  0  0
 11 12  1  0  0  0  0
 11 25  1  0  0  0  0
 12 13  1  0  0  0  0
 12 26  1  0  0  0  0
 12 27  1  0  0  0  0
 13 14  1  0  0  0  0
 13 28  1  0  0  0  0
 13 29  1  0  0  0  0
 14 15  1  0  0  0  0
 14 30  1  0  0  0  0
 14 31  1  0  0  0  0
 15 16  1  0  0  0  0
 15 32  1  0  0  0  0
 15 33  1  0  0  0  0
 16 34  1  0  0  0  0
 16 35  1  0  0  0  0
M  CHG  1   9   1
M  END
> <s_m_source_file>
AV-unprocessed.smi

> <i_m_source_file_index>
859

> <i_lp_mmshare_version>
43012

> <i_f3d_flags>
0

> <s_epik_input>
W0NIMl0xW0NIMl1bQ0gyXVtDSDJdW0NIMl1bQ0hdMUMoPU8pW05IXVtDSDJdW0NIMl1uMltjSF1bY0hdbltjSF0y

> <s_epik_cmdline>
J2VwaWtfcHl0aG9uJywgJy1waCcsICc3LjAnLCAnLXRuJywgJzgnLCAnLW1hJywgJzIwMCcsICctbWV0YWxfYmluZGluZycsICctaW1hZScsICc8aW5maWxlLm1hZT4nLCAnLW9tYWUnLCAnPG91dGZpbGUubWFlPic=

> <r_lp_tautomer_probability>
1

> <r_epik_Ionization_Penalty>
0.267085

> <r_epik_Ionization_Penalty_Charging>
0

> <r_epik_Ionization_Penalty_Neutral>
0.267085

> <r_epik_State_Penalty>
0.259064

> <r_epik_Charging_Adjusted_Penalty>
0.259064

> <i_epik_Tot_Q>
1

> <i_epik_Tot_abs_Q>
1

> <r_epik_Metal_State_Penalty>
0.54496

> <b_epik_Metal_Only>
0

> <s_lp_Force_Field>
OPLS_2005

> <r_lp_Energy>
13.141

> <b_lp_Chiralities_Consistent>
1

> <s_lp_Variant>
AV-unprocessed.smi:859-1

> <Gold.Version>
5.8.1

> <Gold.Id.Protein>
6NUR|6NUR_protein|mol2

> <Gold.PLP.Fitness>
44.7796

> <Gold.PLP.PLP>
-33.7320

> <Gold.PLP.part.hbond>
-1.0000

> <Gold.PLP.part.metal>
0.0000

> <Gold.PLP.part.buried>
-0.5484

> <Gold.PLP.part.nonpolar>
-31.9206

> <Gold.PLP.part.repulsive>
0.1247

> <Gold.PLP.ligand.clash>
0.0000

> <Gold.PLP.ligand.torsion>
0.3961

> <Gold.PLP.Chemscore.Hbond>
2.0000

> <Gold.PLP.Chemscore.CHOScore>
1.9378

> <Gold.PLP.Chemscore.Metal>
0.0000

> <Gold.Chemscore.Hbonds>
donor molecule, donor type, donor heavy atom, donor atom, acceptor molecule, acceptor atom, score
      L1  H     9    36       P1 10175  2.00
      L1  C     7    22       P1  8028  0.91
      L1  C    10    24       P1  7957  1.00

> <Gold.PLP.Chemscore.Internal.Correction>
0.0262

> <Gold.Rescore>
     Score         DG    S(hbond)    S(metal)    S(lipo)     H(rot)  DE(clash)    DE(int)     intcor
     13.23     -14.14       0.95        0.00      87.47       1.86       0.46       0.45       ----

> <Gold.Chemscore.Fitness>
13.2300

> <Gold.Chemscore.DG>
-14.1368

> <Gold.Chemscore.ZeroCoef>
-5.4800

> <Gold.Chemscore.Hbond>
0.9509

> <Gold.Chemscore.Metal>
0.0000

> <Gold.Chemscore.Lipo>
87.4688

> <Gold.Chemscore.Internal_Hbond>
0.0000

> <Gold.Chemscore.DEClash>
0.4584

> <Gold.Chemscore.DEInternal>
0.4485

> <Gold.Chemscore.Rot>
1.8567

> <Gold.Chemscore.Internal.Correction>
   9.000000E+99

> <Gold.Chemscore.Hbonds>
donor molecule, donor type, donor heavy atom, donor atom, acceptor molecule, acceptor atom, score
      L1  H     9    36       P1 10175  0.55

> <Gold.Chemscore.Hbond.Weighted>
-3.1761

> <Gold.Chemscore.Metal.Weighted>
-0.0000

> <Gold.Chemscore.Lipo.Weighted>
-10.2339

> <Gold.Chemscore.Internal_Hbond.Weighted>
0.0000

> <Gold.Chemscore.DEClash.Weighted>
0.4584

> <Gold.Chemscore.DEInternal.Weighted>
0.4485

> <Gold.Chemscore.Rot.Weighted>
4.7531

> <Gold.Chemscore.Internal.Correction.Weighted>
   9.000000E+99

> <Gold.Protein.RotatedTorsions>
[ 6907 6896 6895 6894 ] final  138.91 input  -60.11 | X-H torsion
[ 7974 7965 7964 7962 ] final  -35.46 input  175.53 | X-H torsion
[ 8008 7997 7996 7995 ] final    7.78 input   59.86 | X-H torsion
[ 10167 10162 10161 10158 ] final  121.69 input  -65.29 | X-H torsion
[ 10718 10713 10712 10709 ] final   -5.47 input   66.30 | X-H torsion
[ 10763 10752 10751 10750 ] final   54.71 input  -60.55 | X-H torsion
[ 11005 11000 10999 10996 ] final -159.82 input  -57.11 | X-H torsion

> <Gold.Protein.ActiveResidues>
 VAL166  LYS551  ARG553  GLY616  TRP617  ASP618  TYR619  PRO620  LYS621  CYS622 
 ASP623  PHE694  ASN695  SER759  ASP760  ASP761  ALA762  ILE779  LEU786  VAL792 
 PHE793  MET794  SER795  GLU796  ALA797  LYS798  CYS799  TRP800  GLU811  SER814 

> <Gold.Protein.RotatedAtoms>
  152.2611  133.5298  159.5381 H   0  0  0  0  0  0  0  0  0  0  0  0  # atno 6907 bound_to 6896
  150.7125  134.0828  159.3913 H   0  0  0  0  0  0  0  0  0  0  0  0  # atno 6908 bound_to 6896
  151.8746  135.0476  160.0533 H   0  0  0  0  0  0  0  0  0  0  0  0  # atno 6909 bound_to 6896
  146.0744  140.6162  142.8937 H   0  0  0  0  0  0  0  0  0  0  0  0  # atno 7974 bound_to 7965
  154.7582  140.2779  155.6236 H   0  0  0  0  0  0  0  0  0  0  0  0  # atno 8008 bound_to 7997
  156.2910  140.2665  156.2281 H   0  0  0  0  0  0  0  0  0  0  0  0  # atno 8009 bound_to 7997
  155.0050  140.0372  157.2366 H   0  0  0  0  0  0  0  0  0  0  0  0  # atno 8010 bound_to 7997
  139.5904  144.7023  151.3304 H   0  0  0  0  0  0  0  0  0  0  0  0  # atno 10167 bound_to 10162
  156.7460  130.5224  149.5814 H   0  0  0  0  0  0  0  0  0  0  0  0  # atno 10718 bound_to 10713
  152.9808  135.5736  154.4948 H   0  0  0  0  0  0  0  0  0  0  0  0  # atno 10763 bound_to 10752
  154.4477  135.2777  155.1805 H   0  0  0  0  0  0  0  0  0  0  0  0  # atno 10764 bound_to 10752
  154.3447  135.6222  153.5667 H   0  0  0  0  0  0  0  0  0  0  0  0  # atno 10765 bound_to 10752
  140.6384  134.4577  157.5232 H   0  0  0  0  0  0  0  0  0  0  0  0  # atno 11005 bound_to 11000
  144.7252  140.4502  143.6978 LP  0  0  0  0  0  0  0  0  0  0  0  0  # atno 17320 bound_to 7965
  145.6333  139.1539  143.2957 LP  0  0  0  0  0  0  0  0  0  0  0  0  # atno 17321 bound_to 7965
  140.7168  143.7244  150.7671 LP  0  0  0  0  0  0  0  0  0  0  0  0  # atno 17342 bound_to 10162
  140.0799  143.4979  152.2536 LP  0  0  0  0  0  0  0  0  0  0  0  0  # atno 17343 bound_to 10162
  156.1433  130.6259  151.0496 LP  0  0  0  0  0  0  0  0  0  0  0  0  # atno 17370 bound_to 10713
  157.6798  131.0841  150.7400 LP  0  0  0  0  0  0  0  0  0  0  0  0  # atno 17371 bound_to 10713
  139.9089  134.8387  156.1600 LP  0  0  0  0  0  0  0  0  0  0  0  0  # atno 17394 bound_to 11000
  141.0625  133.6835  156.1980 LP  0  0  0  0  0  0  0  0  0  0  0  0  # atno 17395 bound_to 11000

$$$$
