AV-unprocessed.smi:2194|AV-procd|sdf|8902|dock9
  -GOLD-   2272012113D 1   1.00000     0.00000
 Structure written by MMmdl.
 45 47  0  0  0  0  0  0  0  0  1 V2000
  151.0707  145.3779  159.4381 C   0  0  0  0  0  0  0  0  0  0  0  0
  151.8986  144.2732  160.0616 C   0  0  0  0  0  0  0  0  0  0  0  0
  152.4138  144.4136  161.3657 C   0  0  0  0  0  0  0  0  0  0  0  0
  153.1825  143.3807  161.9359 C   0  0  0  0  0  0  0  0  0  0  0  0
  153.4468  142.1956  161.2191 C   0  0  0  0  0  0  0  0  0  0  0  0
  154.2062  141.2368  161.8540 O   0  0  0  0  0  0  0  0  0  0  0  0
  154.2359  139.9254  161.3038 C   0  0  0  0  0  0  0  0  0  0  0  0
  154.6460  138.9118  162.3847 C   0  0  2  0  0  0  0  0  0  0  0  0
  156.0571  138.8503  162.4535 O   0  0  0  0  0  0  0  0  0  0  0  0
  154.0138  137.5172  162.1971 C   0  0  0  0  0  0  0  0  0  0  0  0
  154.1416  136.6853  163.3843 N   0  0  0  0  0  0  0  0  0  0  0  0
  154.2710  137.1271  164.6518 C   0  0  0  0  0  0  0  0  0  0  0  0
  154.3808  136.1799  165.5839 N   0  0  0  0  0  0  0  0  0  0  0  0
  154.3107  135.0174  164.8247 C   0  0  0  0  0  0  0  0  0  0  0  0
  154.1671  135.2963  163.5067 C   0  0  0  0  0  0  0  0  0  0  0  0
  154.0727  134.2546  162.4799 C   0  0  0  0  0  0  0  0  0  0  0  0
  153.9502  134.5350  161.2866 O   0  0  0  0  0  0  0  0  0  0  0  0
  154.1357  132.9786  162.9732 N   0  0  0  0  0  0  0  0  0  0  0  0
  154.0378  131.9029  161.9680 C   0  0  0  0  0  0  0  0  0  0  0  0
  154.2801  132.6443  164.3105 C   0  0  0  0  0  0  0  0  0  0  0  0
  154.3278  131.4669  164.6743 O   0  0  0  0  0  0  0  0  0  0  0  0
  154.3707  133.6612  165.2311 N   0  0  0  0  0  0  0  0  0  0  0  0
  154.5336  133.4012  166.6649 C   0  0  0  0  0  0  0  0  0  0  0  0
  152.9261  142.0615  159.9072 C   0  0  0  0  0  0  0  0  0  0  0  0
  152.1584  143.0946  159.3353 C   0  0  0  0  0  0  0  0  0  0  0  0
  150.9058  146.1964  160.1395 H   0  0  0  0  0  0  0  0  0  0  0  0
  150.0982  144.9932  159.1297 H   0  0  0  0  0  0  0  0  0  0  0  0
  151.5766  145.7784  158.5593 H   0  0  0  0  0  0  0  0  0  0  0  0
  152.2220  145.3117  161.9341 H   0  0  0  0  0  0  0  0  0  0  0  0
  153.5720  143.4985  162.9366 H   0  0  0  0  0  0  0  0  0  0  0  0
  153.2672  139.6549  160.8795 H   0  0  0  0  0  0  0  0  0  0  0  0
  154.9715  139.8944  160.4982 H   0  0  0  0  0  0  0  0  0  0  0  0
  154.3196  139.3082  163.3469 H   0  0  0  0  0  0  0  0  0  0  0  0
  156.3877  138.5710  161.6135 H   0  0  0  0  0  0  0  0  0  0  0  0
  152.9515  137.6250  161.9743 H   0  0  0  0  0  0  0  0  0  0  0  0
  154.4437  136.9966  161.3428 H   0  0  0  0  0  0  0  0  0  0  0  0
  154.2887  138.1788  164.8983 H   0  0  0  0  0  0  0  0  0  0  0  0
  154.1033  130.8898  162.3651 H   0  0  0  0  0  0  0  0  0  0  0  0
  154.8375  131.9959  161.2312 H   0  0  0  0  0  0  0  0  0  0  0  0
  153.0863  131.9654  161.4372 H   0  0  0  0  0  0  0  0  0  0  0  0
  154.5512  132.3448  166.9337 H   0  0  0  0  0  0  0  0  0  0  0  0
  153.7167  133.8617  167.2216 H   0  0  0  0  0  0  0  0  0  0  0  0
  155.4671  133.8410  167.0173 H   0  0  0  0  0  0  0  0  0  0  0  0
  153.1021  141.1755  159.3168 H   0  0  0  0  0  0  0  0  0  0  0  0
  151.7683  142.9793  158.3348 H   0  0  0  0  0  0  0  0  0  0  0  0
  1  2  1  0  0  0  0
  1 26  1  0  0  0  0
  1 27  1  0  0  0  0
  1 28  1  0  0  0  0
  2 25  1  0  0  0  0
  2  3  2  0  0  0  0
  3  4  1  0  0  0  0
  3 29  1  0  0  0  0
  4  5  2  0  0  0  0
  4 30  1  0  0  0  0
  5  6  1  0  0  0  0
  5 24  1  0  0  0  0
  6  7  1  0  0  0  0
  7  8  1  0  0  0  0
  7 31  1  0  0  0  0
  7 32  1  0  0  0  0
  8  9  1  0  0  0  0
  8 10  1  0  0  0  0
  8 33  1  0  0  0  0
  9 34  1  0  0  0  0
 10 11  1  0  0  0  0
 10 35  1  0  0  0  0
 10 36  1  0  0  0  0
 11 15  1  0  0  0  0
 11 12  1  0  0  0  0
 12 13  2  0  0  0  0
 12 37  1  0  0  0  0
 13 14  1  0  0  0  0
 14 22  1  0  0  0  0
 14 15  2  0  0  0  0
 15 16  1  0  0  0  0
 16 17  2  0  0  0  0
 16 18  1  0  0  0  0
 18 19  1  0  0  0  0
 18 20  1  0  0  0  0
 19 38  1  0  0  0  0
 19 39  1  0  0  0  0
 19 40  1  0  0  0  0
 20 21  2  0  0  0  0
 20 22  1  0  0  0  0
 22 23  1  0  0  0  0
 23 41  1  0  0  0  0
 23 42  1  0  0  0  0
 23 43  1  0  0  0  0
 24 25  2  0  0  0  0
 24 44  1  0  0  0  0
 25 45  1  0  0  0  0
M  END
> <s_m_source_file>
AV-unprocessed.smi

> <i_m_source_file_index>
2194

> <i_lp_mmshare_version>
43012

> <i_f3d_flags>
0

> <s_epik_input>
W0NIM11jMVtjSF1bY0hdYyhbY0hdW2NIXTEpT1tDSDJdW0NASF0oW09IXSlbQ0gyXW4oW2NIXW4yKWMoYzIzKWMoPU8pbihbQ0gzXSljKD1PKW4zW0NIM10=

> <s_epik_cmdline>
J2VwaWtfcHl0aG9uJywgJy1waCcsICc3LjAnLCAnLXRuJywgJzgnLCAnLW1hJywgJzIwMCcsICctbWV0YWxfYmluZGluZycsICctaW1hZScsICc8aW5maWxlLm1hZT4nLCAnLW9tYWUnLCAnPG91dGZpbGUubWFlPic=

> <r_lp_tautomer_probability>
1

> <r_epik_Ionization_Penalty>
1.06124e-06

> <r_epik_Ionization_Penalty_Charging>
3.25921e-09

> <r_epik_Ionization_Penalty_Neutral>
1.05798e-06

> <r_epik_State_Penalty>
-0

> <r_epik_Charging_Adjusted_Penalty>
3.25921e-09

> <i_epik_Tot_Q>
0

> <i_epik_Tot_abs_Q>
0

> <r_epik_Metal_State_Penalty>
-0

> <b_epik_Metal_Only>
0

> <s_lp_Force_Field>
OPLS_2005

> <r_lp_Energy>
41.6396

> <b_lp_Chiralities_Consistent>
1

> <s_lp_Variant>
AV-unprocessed.smi:2194-1

> <Gold.Version>
5.8.1

> <Gold.Id.Protein>
6NUR|6NUR_protein|mol2

> <Gold.PLP.Fitness>
52.3656

> <Gold.PLP.PLP>
-54.4630

> <Gold.PLP.part.hbond>
-0.1326

> <Gold.PLP.part.metal>
0.0000

> <Gold.PLP.part.buried>
-6.6893

> <Gold.PLP.part.nonpolar>
-48.9252

> <Gold.PLP.part.repulsive>
1.1538

> <Gold.PLP.ligand.clash>
0.0000

> <Gold.PLP.ligand.torsion>
1.0589

> <Gold.PLP.Chemscore.Hbond>
0.0000

> <Gold.PLP.Chemscore.CHOScore>
0.0000

> <Gold.PLP.Chemscore.Metal>
0.0000

> <Gold.Chemscore.Hbonds>
donor molecule, donor type, donor heavy atom, donor atom, acceptor molecule, acceptor atom, score
      P1  H  6896  6909       L1    17  0.50

> <Gold.PLP.Chemscore.Internal.Correction>
0.0204

> <Gold.Rescore>
     Score         DG    S(hbond)    S(metal)    S(lipo)     H(rot)  DE(clash)    DE(int)     intcor
     11.54     -12.71       0.00        0.00     120.59       2.69       0.23       0.95       ----

> <Gold.Chemscore.Fitness>
11.5353

> <Gold.Chemscore.DG>
-12.7066

> <Gold.Chemscore.ZeroCoef>
-5.4800

> <Gold.Chemscore.Hbond>
0.0000

> <Gold.Chemscore.Metal>
0.0000

> <Gold.Chemscore.Lipo>
120.5902

> <Gold.Chemscore.Internal_Hbond>
0.0000

> <Gold.Chemscore.DEClash>
0.2260

> <Gold.Chemscore.DEInternal>
0.9453

> <Gold.Chemscore.Rot>
2.6885

> <Gold.Chemscore.Internal.Correction>
   9.000000E+99

> <Gold.Chemscore.Hbonds>
donor molecule, donor type, donor heavy atom, donor atom, acceptor molecule, acceptor atom, score
      P1  H  6896  6909       L1    17  0.48

> <Gold.Chemscore.Hbond.Weighted>
-0.0000

> <Gold.Chemscore.Metal.Weighted>
-0.0000

> <Gold.Chemscore.Lipo.Weighted>
-14.1091

> <Gold.Chemscore.Internal_Hbond.Weighted>
0.0000

> <Gold.Chemscore.DEClash.Weighted>
0.2260

> <Gold.Chemscore.DEInternal.Weighted>
0.9453

> <Gold.Chemscore.Rot.Weighted>
6.8825

> <Gold.Chemscore.Internal.Correction.Weighted>
   9.000000E+99

> <Gold.Protein.RotatedTorsions>
[ 6907 6896 6895 6894 ] final -143.37 input  -60.11 | X-H torsion
[ 7974 7965 7964 7962 ] final  146.19 input  175.53 | X-H torsion
[ 8008 7997 7996 7995 ] final -122.42 input   59.86 | X-H torsion
[ 10167 10162 10161 10158 ] final  127.38 input  -65.29 | X-H torsion
[ 10718 10713 10712 10709 ] final   92.43 input   66.30 | X-H torsion
[ 10763 10752 10751 10750 ] final   48.82 input  -60.55 | X-H torsion
[ 11005 11000 10999 10996 ] final -120.48 input  -57.11 | X-H torsion

> <Gold.Protein.ActiveResidues>
 VAL166  LYS551  ARG553  GLY616  TRP617  ASP618  TYR619  PRO620  LYS621  CYS622 
 ASP623  PHE694  ASN695  SER759  ASP760  ASP761  ALA762  ILE779  LEU786  VAL792 
 PHE793  MET794  SER795  GLU796  ALA797  LYS798  CYS799  TRP800  GLU811  SER814 

> <Gold.Protein.RotatedAtoms>
  151.0995  133.5254  159.2610 H   0  0  0  0  0  0  0  0  0  0  0  0  # atno 6907 bound_to 6896
  151.2090  135.0473  159.8913 H   0  0  0  0  0  0  0  0  0  0  0  0  # atno 6908 bound_to 6896
  152.5441  134.0813  159.8290 H   0  0  0  0  0  0  0  0  0  0  0  0  # atno 6909 bound_to 6896
  144.8691  139.5874  143.5895 H   0  0  0  0  0  0  0  0  0  0  0  0  # atno 7974 bound_to 7965
  155.1640  140.0406  157.2849 H   0  0  0  0  0  0  0  0  0  0  0  0  # atno 8008 bound_to 7997
  154.6316  140.2525  155.7400 H   0  0  0  0  0  0  0  0  0  0  0  0  # atno 8009 bound_to 7997
  156.2487  140.2874  156.0670 H   0  0  0  0  0  0  0  0  0  0  0  0  # atno 8010 bound_to 7997
  139.5581  144.6863  151.4122 H   0  0  0  0  0  0  0  0  0  0  0  0  # atno 10167 bound_to 10162
  157.6958  131.0443  150.3881 H   0  0  0  0  0  0  0  0  0  0  0  0  # atno 10718 bound_to 10713
  152.9790  135.5932  154.3988 H   0  0  0  0  0  0  0  0  0  0  0  0  # atno 10763 bound_to 10752
  154.3635  135.2767  155.2308 H   0  0  0  0  0  0  0  0  0  0  0  0  # atno 10764 bound_to 10752
  154.4295  135.6040  153.6114 H   0  0  0  0  0  0  0  0  0  0  0  0  # atno 10765 bound_to 10752
  141.0140  134.0223  157.3375 H   0  0  0  0  0  0  0  0  0  0  0  0  # atno 11005 bound_to 11000
  146.2917  139.7159  142.9156 LP  0  0  0  0  0  0  0  0  0  0  0  0  # atno 17320 bound_to 7965
  145.4164  141.0402  143.2988 LP  0  0  0  0  0  0  0  0  0  0  0  0  # atno 17321 bound_to 7965
  140.6857  143.7978  150.7183 LP  0  0  0  0  0  0  0  0  0  0  0  0  # atno 17342 bound_to 10162
  140.1445  143.4411  152.2172 LP  0  0  0  0  0  0  0  0  0  0  0  0  # atno 17343 bound_to 10162
  156.4287  130.3967  149.6775 LP  0  0  0  0  0  0  0  0  0  0  0  0  # atno 17370 bound_to 10713
  156.4000  130.7670  151.2677 LP  0  0  0  0  0  0  0  0  0  0  0  0  # atno 17371 bound_to 10713
  139.9106  135.0189  156.7675 LP  0  0  0  0  0  0  0  0  0  0  0  0  # atno 17394 bound_to 11000
  140.6686  133.9580  155.7844 LP  0  0  0  0  0  0  0  0  0  0  0  0  # atno 17395 bound_to 11000

$$$$
