AV-unprocessed.smi:3267|AV-procd|sdf|12505|dock10
  -GOLD-   2272018413D 1   1.00000     0.00000
 Structure written by MMmdl.
 38 39  0  0  0  0  0  0  0  0  1 V2000
  145.0070  137.4909  152.4260 C   0  0  0  0  0  0  0  0  0  0  0  0
  145.2689  135.9920  152.2064 C   0  0  1  0  0  0  0  0  0  0  0  0
  145.1115  135.5514  150.7311 C   0  0  0  0  0  0  0  0  0  0  0  0
  145.1805  134.1119  150.5378 N   0  0  0  0  0  0  0  0  0  0  0  0
  144.2339  133.2745  149.9852 C   0  0  0  0  0  0  0  0  0  0  0  0
  144.7421  132.0077  150.0178 C   0  0  0  0  0  0  0  0  0  0  0  0
  146.0202  132.1719  150.6210 C   0  0  0  0  0  0  0  0  0  0  0  0
  146.2789  133.4314  150.9327 N   0  0  0  0  0  0  0  0  0  0  0  0
  146.5935  135.6540  152.7229 N   0  0  0  0  0  0  0  0  0  0  0  0
  146.8374  134.9540  153.8393 C   0  0  0  0  0  0  0  0  0  0  0  0
  145.9609  134.5147  154.5841 O   0  0  0  0  0  0  0  0  0  0  0  0
  148.1515  134.7905  154.0430 N   0  0  0  0  0  0  0  0  0  0  0  0
  148.7434  134.0972  155.1809 C   0  0  0  0  0  0  0  0  0  0  0  0
  149.6402  132.9348  154.7244 C   0  0  2  0  0  0  0  0  0  0  0  0
  148.8923  131.8380  153.9668 C   0  0  0  0  0  0  0  0  0  0  0  0
  149.7144  130.5845  154.2319 C   0  0  0  0  0  0  0  0  0  0  0  0
  150.6873  131.0003  155.3382 C   0  0  0  0  0  0  0  0  0  0  0  0
  150.1709  132.2262  155.8332 O   0  0  0  0  0  0  0  0  0  0  0  0
  144.0273  137.7768  152.0428 H   0  0  0  0  0  0  0  0  0  0  0  0
  145.7538  138.1100  151.9280 H   0  0  0  0  0  0  0  0  0  0  0  0
  145.0298  137.7393  153.4876 H   0  0  0  0  0  0  0  0  0  0  0  0
  144.5290  135.4466  152.7950 H   0  0  0  0  0  0  0  0  0  0  0  0
  144.1725  135.9178  150.3132 H   0  0  0  0  0  0  0  0  0  0  0  0
  145.9023  136.0055  150.1329 H   0  0  0  0  0  0  0  0  0  0  0  0
  143.2895  133.6466  149.6162 H   0  0  0  0  0  0  0  0  0  0  0  0
  144.2722  131.1012  149.6662 H   0  0  0  0  0  0  0  0  0  0  0  0
  146.7624  131.4188  150.8409 H   0  0  0  0  0  0  0  0  0  0  0  0
  147.3843  135.9648  152.1779 H   0  0  0  0  0  0  0  0  0  0  0  0
  148.7903  135.1861  153.3689 H   0  0  0  0  0  0  0  0  0  0  0  0
  149.2984  134.7899  155.8162 H   0  0  0  0  0  0  0  0  0  0  0  0
  147.9260  133.7089  155.7890 H   0  0  0  0  0  0  0  0  0  0  0  0
  150.4644  133.3071  154.1126 H   0  0  0  0  0  0  0  0  0  0  0  0
  147.8905  131.7083  154.3788 H   0  0  0  0  0  0  0  0  0  0  0  0
  148.7908  132.0619  152.9045 H   0  0  0  0  0  0  0  0  0  0  0  0
  149.0704  129.7665  154.5564 H   0  0  0  0  0  0  0  0  0  0  0  0
  150.2535  130.2551  153.3431 H   0  0  0  0  0  0  0  0  0  0  0  0
  150.7663  130.2551  156.1302 H   0  0  0  0  0  0  0  0  0  0  0  0
  151.6843  131.1709  154.9296 H   0  0  0  0  0  0  0  0  0  0  0  0
  1  2  1  0  0  0  0
  1 19  1  0  0  0  0
  1 20  1  0  0  0  0
  1 21  1  0  0  0  0
  2  3  1  0  0  0  0
  2  9  1  0  0  0  0
  2 22  1  0  0  0  0
  3  4  1  0  0  0  0
  3 23  1  0  0  0  0
  3 24  1  0  0  0  0
  4  8  1  0  0  0  0
  4  5  1  0  0  0  0
  5  6  2  0  0  0  0
  5 25  1  0  0  0  0
  6  7  1  0  0  0  0
  6 26  1  0  0  0  0
  7  8  2  0  0  0  0
  7 27  1  0  0  0  0
  9 10  1  0  0  0  0
  9 28  1  0  0  0  0
 10 11  2  0  0  0  0
 10 12  1  0  0  0  0
 12 13  1  0  0  0  0
 12 29  1  0  0  0  0
 13 14  1  0  0  0  0
 13 30  1  0  0  0  0
 13 31  1  0  0  0  0
 14 18  1  0  0  0  0
 14 15  1  0  0  0  0
 14 32  1  0  0  0  0
 15 16  1  0  0  0  0
 15 33  1  0  0  0  0
 15 34  1  0  0  0  0
 16 17  1  0  0  0  0
 16 35  1  0  0  0  0
 16 36  1  0  0  0  0
 17 18  1  0  0  0  0
 17 37  1  0  0  0  0
 17 38  1  0  0  0  0
M  END
> <s_m_source_file>
AV-unprocessed.smi

> <i_m_source_file_index>
3267

> <i_lp_mmshare_version>
43012

> <i_f3d_flags>
0

> <s_epik_input>
bjFbY0hdW2NIXVtjSF1uMVtDSDJdW0NAQEhdKFtDSDNdKVtOSF1DKD1PKVtOSF1bQ0gyXVtDQEBIXTJbQ0gyXVtDSDJdW0NIMl1PMg==

> <s_epik_cmdline>
J2VwaWtfcHl0aG9uJywgJy1waCcsICc3LjAnLCAnLXRuJywgJzgnLCAnLW1hJywgJzIwMCcsICctbWV0YWxfYmluZGluZycsICctaW1hZScsICc8aW5maWxlLm1hZT4nLCAnLW9tYWUnLCAnPG91dGZpbGUubWFlPic=

> <r_lp_tautomer_probability>
1

> <r_epik_Ionization_Penalty>
6.24796e-05

> <r_epik_Ionization_Penalty_Charging>
0

> <r_epik_Ionization_Penalty_Neutral>
6.24796e-05

> <r_epik_State_Penalty>
-0

> <r_epik_Charging_Adjusted_Penalty>
0

> <i_epik_Tot_Q>
0

> <i_epik_Tot_abs_Q>
0

> <r_epik_Metal_State_Penalty>
-0

> <b_epik_Metal_Only>
0

> <s_lp_Force_Field>
OPLS_2005

> <r_lp_Energy>
14.7816

> <b_lp_Chiralities_Consistent>
1

> <s_lp_Variant>
AV-unprocessed.smi:3267-2

> <Gold.Version>
5.8.1

> <Gold.Id.Protein>
6NUR|6NUR_protein|mol2

> <Gold.PLP.Fitness>
43.1929

> <Gold.PLP.PLP>
-31.5001

> <Gold.PLP.part.hbond>
-2.0000

> <Gold.PLP.part.metal>
0.0000

> <Gold.PLP.part.buried>
-3.7818

> <Gold.PLP.part.nonpolar>
-26.1141

> <Gold.PLP.part.repulsive>
0.2520

> <Gold.PLP.ligand.clash>
0.0000

> <Gold.PLP.ligand.torsion>
0.1195

> <Gold.PLP.Chemscore.Hbond>
1.9600

> <Gold.PLP.Chemscore.CHOScore>
2.0000

> <Gold.PLP.Chemscore.Metal>
0.0000

> <Gold.Chemscore.Hbonds>
donor molecule, donor type, donor heavy atom, donor atom, acceptor molecule, acceptor atom, score
      L1  H     9    28       P1  7948  1.00
      L1  H    12    29       P1  7948  0.94
      L1  C     5    25       P1 10186  1.00
      L1  C     7    27       P1 10747  1.00

> <Gold.PLP.Chemscore.Internal.Correction>
0.0518

> <Gold.Rescore>
     Score         DG    S(hbond)    S(metal)    S(lipo)     H(rot)  DE(clash)    DE(int)     intcor
     15.17     -15.48       1.90        0.00      72.10       1.87       0.12       0.19       ----

> <Gold.Chemscore.Fitness>
15.1690

> <Gold.Chemscore.DG>
-15.4848

> <Gold.Chemscore.ZeroCoef>
-5.4800

> <Gold.Chemscore.Hbond>
1.9049

> <Gold.Chemscore.Metal>
0.0000

> <Gold.Chemscore.Lipo>
72.0995

> <Gold.Chemscore.Internal_Hbond>
0.0000

> <Gold.Chemscore.DEClash>
0.1238

> <Gold.Chemscore.DEInternal>
0.1920

> <Gold.Chemscore.Rot>
1.8724

> <Gold.Chemscore.Internal.Correction>
   9.000000E+99

> <Gold.Chemscore.Hbonds>
donor molecule, donor type, donor heavy atom, donor atom, acceptor molecule, acceptor atom, score
      L1  H     9    28       P1  7948  0.98
      L1  H    12    29       P1  7948  0.59

> <Gold.Chemscore.Hbond.Weighted>
-6.3624

> <Gold.Chemscore.Metal.Weighted>
-0.0000

> <Gold.Chemscore.Lipo.Weighted>
-8.4356

> <Gold.Chemscore.Internal_Hbond.Weighted>
0.0000

> <Gold.Chemscore.DEClash.Weighted>
0.1238

> <Gold.Chemscore.DEInternal.Weighted>
0.1920

> <Gold.Chemscore.Rot.Weighted>
4.7933

> <Gold.Chemscore.Internal.Correction.Weighted>
   9.000000E+99

> <Gold.Protein.RotatedTorsions>
[ 6907 6896 6895 6894 ] final  160.95 input  -60.11 | X-H torsion
[ 7974 7965 7964 7962 ] final  125.25 input  175.53 | X-H torsion
[ 8008 7997 7996 7995 ] final   -3.98 input   59.86 | X-H torsion
[ 10167 10162 10161 10158 ] final   87.61 input  -65.29 | X-H torsion
[ 10718 10713 10712 10709 ] final -161.01 input   66.30 | X-H torsion
[ 10763 10752 10751 10750 ] final -170.47 input  -60.55 | X-H torsion
[ 11005 11000 10999 10996 ] final -119.73 input  -57.11 | X-H torsion

> <Gold.Protein.ActiveResidues>
 VAL166  LYS551  ARG553  GLY616  TRP617  ASP618  TYR619  PRO620  LYS621  CYS622 
 ASP623  PHE694  ASN695  SER759  ASP760  ASP761  ALA762  ILE779  LEU786  VAL792 
 PHE793  MET794  SER795  GLU796  ALA797  LYS798  CYS799  TRP800  GLU811  SER814 

> <Gold.Protein.RotatedAtoms>
  151.9630  133.3701  159.4042 H   0  0  0  0  0  0  0  0  0  0  0  0  # atno 6907 bound_to 6896
  150.6961  134.4220  159.5219 H   0  0  0  0  0  0  0  0  0  0  0  0  # atno 6908 bound_to 6896
  152.1912  134.8670  160.0568 H   0  0  0  0  0  0  0  0  0  0  0  0  # atno 6909 bound_to 6896
  145.0751  139.3700  143.4937 H   0  0  0  0  0  0  0  0  0  0  0  0  # atno 7974 bound_to 7965
  154.6191  140.2495  155.7572 H   0  0  0  0  0  0  0  0  0  0  0  0  # atno 8008 bound_to 7997
  156.2416  140.2930  156.0410 H   0  0  0  0  0  0  0  0  0  0  0  0  # atno 8009 bound_to 7997
  155.1926  140.0392  157.2893 H   0  0  0  0  0  0  0  0  0  0  0  0  # atno 8010 bound_to 7997
  139.8756  144.6468  150.8900 H   0  0  0  0  0  0  0  0  0  0  0  0  # atno 10167 bound_to 10162
  156.5903  130.8767  151.2888 H   0  0  0  0  0  0  0  0  0  0  0  0  # atno 10718 bound_to 10713
  154.6411  135.2899  155.0102 H   0  0  0  0  0  0  0  0  0  0  0  0  # atno 10763 bound_to 10752
  154.1228  135.6545  153.4910 H   0  0  0  0  0  0  0  0  0  0  0  0  # atno 10764 bound_to 10752
  153.0327  135.5292  154.7278 H   0  0  0  0  0  0  0  0  0  0  0  0  # atno 10765 bound_to 10752
  141.0194  134.0146  157.3303 H   0  0  0  0  0  0  0  0  0  0  0  0  # atno 11005 bound_to 11000
  146.3530  140.0515  142.8635 LP  0  0  0  0  0  0  0  0  0  0  0  0  # atno 17320 bound_to 7965
  145.1245  140.9482  143.4581 LP  0  0  0  0  0  0  0  0  0  0  0  0  # atno 17321 bound_to 7965
  140.7753  143.3627  151.1797 LP  0  0  0  0  0  0  0  0  0  0  0  0  # atno 17342 bound_to 10162
  139.7243  143.9173  152.2997 LP  0  0  0  0  0  0  0  0  0  0  0  0  # atno 17343 bound_to 10162
  157.7305  130.9687  150.1837 LP  0  0  0  0  0  0  0  0  0  0  0  0  # atno 17370 bound_to 10713
  156.2556  130.3705  149.8185 LP  0  0  0  0  0  0  0  0  0  0  0  0  # atno 17371 bound_to 10713
  139.9137  135.0194  156.7795 LP  0  0  0  0  0  0  0  0  0  0  0  0  # atno 17394 bound_to 11000
  140.6598  133.9655  155.7799 LP  0  0  0  0  0  0  0  0  0  0  0  0  # atno 17395 bound_to 11000

$$$$
