AV-unprocessed.smi:2902|AV-procd|sdf|11151|dock9
  -GOLD-   2272016 33D 1   1.00000     0.00000
 Structure written by MMmdl.
 47 48  0  0  0  0  0  0  0  0  1 V2000
  148.8216  140.4441  154.3012 C   0  0  0  0  0  0  0  0  0  0  0  0
  149.2734  141.6901  155.0733 C   0  0  0  0  0  0  0  0  0  0  0  0
  150.1229  141.3474  156.3115 C   0  0  2  0  0  0  0  0  0  0  0  0
  150.7213  142.5585  156.7782 O   0  0  0  0  0  0  0  0  0  0  0  0
  150.7210  142.7866  158.1863 C   0  0  0  0  0  0  0  0  0  0  0  0
  150.8991  144.2575  158.5739 C   0  0  0  0  0  0  0  0  0  0  0  0
  151.4683  144.2219  159.9968 C   0  0  0  0  0  0  0  0  0  0  0  0
  152.1132  142.8371  160.1684 C   0  0  0  0  0  0  0  0  0  0  0  0
  151.9299  142.1119  158.8310 C   0  0  0  0  0  0  0  0  0  0  0  0
  151.2042  140.3056  155.9805 C   0  0  0  0  0  0  0  0  0  0  0  0
  151.5042  140.0682  154.8104 O   0  0  0  0  0  0  0  0  0  0  0  0
  151.7945  139.7127  157.0301 N   0  0  0  0  0  0  0  0  0  0  0  0
  152.8928  138.7519  156.9600 C   0  0  2  0  0  0  0  0  0  0  0  0
  152.5408  137.6418  155.9510 C   0  0  0  0  0  0  0  0  0  0  0  0
  153.2155  138.2131  158.3776 C   0  0  2  0  0  0  0  0  0  0  0  0
  152.0101  137.5360  159.0569 C   0  0  0  0  0  0  0  0  0  0  0  0
  153.7472  139.2586  159.2406 N   0  0  0  0  0  0  0  0  0  0  0  0
  153.2260  139.8483  160.3193 C   0  0  0  0  0  0  0  0  0  0  0  0
  154.0106  140.7700  160.8595 N   0  0  0  0  0  0  0  0  0  0  0  0
  155.0754  140.6896  160.0075 C   0  0  0  0  0  0  0  0  0  0  0  0
  154.9698  139.7983  159.0219 N   0  0  0  0  0  0  0  0  0  0  0  0
  148.2272  140.7222  153.4308 H   0  0  0  0  0  0  0  0  0  0  0  0
  148.2109  139.7914  154.9256 H   0  0  0  0  0  0  0  0  0  0  0  0
  149.6773  139.8673  153.9494 H   0  0  0  0  0  0  0  0  0  0  0  0
  149.8455  142.3280  154.3979 H   0  0  0  0  0  0  0  0  0  0  0  0
  148.3964  142.2667  155.3704 H   0  0  0  0  0  0  0  0  0  0  0  0
  149.4592  140.9421  157.0769 H   0  0  0  0  0  0  0  0  0  0  0  0
  149.8219  142.3851  158.6547 H   0  0  0  0  0  0  0  0  0  0  0  0
  151.6221  144.7271  157.9054 H   0  0  0  0  0  0  0  0  0  0  0  0
  149.9712  144.8267  158.5115 H   0  0  0  0  0  0  0  0  0  0  0  0
  152.1847  145.0278  160.1570 H   0  0  0  0  0  0  0  0  0  0  0  0
  150.6670  144.3479  160.7260 H   0  0  0  0  0  0  0  0  0  0  0  0
  153.1658  142.9062  160.4444 H   0  0  0  0  0  0  0  0  0  0  0  0
  151.6031  142.2905  160.9626 H   0  0  0  0  0  0  0  0  0  0  0  0
  151.7963  141.0365  158.9501 H   0  0  0  0  0  0  0  0  0  0  0  0
  152.8127  142.2683  158.2096 H   0  0  0  0  0  0  0  0  0  0  0  0
  151.4794  139.9723  157.9535 H   0  0  0  0  0  0  0  0  0  0  0  0
  153.7825  139.2666  156.5922 H   0  0  0  0  0  0  0  0  0  0  0  0
  153.3692  136.9482  155.8074 H   0  0  0  0  0  0  0  0  0  0  0  0
  152.3021  138.0599  154.9725 H   0  0  0  0  0  0  0  0  0  0  0  0
  151.6780  137.0645  156.2847 H   0  0  0  0  0  0  0  0  0  0  0  0
  153.9929  137.4535  158.2738 H   0  0  0  0  0  0  0  0  0  0  0  0
  151.6807  136.6550  158.5064 H   0  0  0  0  0  0  0  0  0  0  0  0
  151.1620  138.2169  159.1338 H   0  0  0  0  0  0  0  0  0  0  0  0
  152.2642  137.2062  160.0648 H   0  0  0  0  0  0  0  0  0  0  0  0
  152.2529  139.5988  160.7160 H   0  0  0  0  0  0  0  0  0  0  0  0
  155.9555  141.3058  160.1181 H   0  0  0  0  0  0  0  0  0  0  0  0
  1  2  1  0  0  0  0
  1 22  1  0  0  0  0
  1 23  1  0  0  0  0
  1 24  1  0  0  0  0
  2  3  1  0  0  0  0
  2 25  1  0  0  0  0
  2 26  1  0  0  0  0
  3  4  1  0  0  0  0
  3 10  1  0  0  0  0
  3 27  1  0  0  0  0
  4  5  1  0  0  0  0
  5  9  1  0  0  0  0
  5  6  1  0  0  0  0
  5 28  1  0  0  0  0
  6  7  1  0  0  0  0
  6 29  1  0  0  0  0
  6 30  1  0  0  0  0
  7  8  1  0  0  0  0
  7 31  1  0  0  0  0
  7 32  1  0  0  0  0
  8  9  1  0  0  0  0
  8 33  1  0  0  0  0
  8 34  1  0  0  0  0
  9 35  1  0  0  0  0
  9 36  1  0  0  0  0
 10 11  2  0  0  0  0
 10 12  1  0  0  0  0
 12 13  1  0  0  0  0
 12 37  1  0  0  0  0
 13 14  1  0  0  0  0
 13 15  1  0  0  0  0
 13 38  1  0  0  0  0
 14 39  1  0  0  0  0
 14 40  1  0  0  0  0
 14 41  1  0  0  0  0
 15 16  1  0  0  0  0
 15 17  1  0  0  0  0
 15 42  1  0  0  0  0
 16 43  1  0  0  0  0
 16 44  1  0  0  0  0
 16 45  1  0  0  0  0
 17 21  1  0  0  0  0
 17 18  1  0  0  0  0
 18 19  2  0  0  0  0
 18 46  1  0  0  0  0
 19 20  1  0  0  0  0
 20 21  2  0  0  0  0
 20 47  1  0  0  0  0
M  END
> <s_m_source_file>
AV-unprocessed.smi

> <i_m_source_file_index>
2902

> <i_lp_mmshare_version>
43012

> <i_f3d_flags>
0

> <s_epik_input>
W0NIMl0xW0NIMl1bQ0gyXVtDSDJdW0NIXTFPW0NAQEhdKFtDSDJdW0NIM10pQyg9TylbTkhdW0NASF0oW0NIM10pW0NASF0oW0NIM10pbjJbY0hdbltjSF1uMg==

> <s_epik_cmdline>
J2VwaWtfcHl0aG9uJywgJy1waCcsICc3LjAnLCAnLXRuJywgJzgnLCAnLW1hJywgJzIwMCcsICctbWV0YWxfYmluZGluZycsICctaW1hZScsICc8aW5maWxlLm1hZT4nLCAnLW9tYWUnLCAnPG91dGZpbGUubWFlPic=

> <r_lp_tautomer_probability>
1

> <r_epik_Ionization_Penalty>
6.95617e-05

> <r_epik_Ionization_Penalty_Charging>
0

> <r_epik_Ionization_Penalty_Neutral>
6.95617e-05

> <r_epik_State_Penalty>
-0

> <r_epik_Charging_Adjusted_Penalty>
0

> <i_epik_Tot_Q>
0

> <i_epik_Tot_abs_Q>
0

> <r_epik_Metal_State_Penalty>
-0

> <b_epik_Metal_Only>
0

> <s_lp_Force_Field>
OPLS_2005

> <r_lp_Energy>
29.4531

> <b_lp_Chiralities_Consistent>
1

> <s_lp_Variant>
AV-unprocessed.smi:2902-1

> <Gold.Version>
5.8.1

> <Gold.Id.Protein>
6NUR|6NUR_protein|mol2

> <Gold.PLP.Fitness>
43.3680

> <Gold.PLP.PLP>
-40.5707

> <Gold.PLP.part.hbond>
-2.0000

> <Gold.PLP.part.metal>
0.0000

> <Gold.PLP.part.buried>
-3.3109

> <Gold.PLP.part.nonpolar>
-35.7214

> <Gold.PLP.part.repulsive>
0.2893

> <Gold.PLP.ligand.clash>
0.0000

> <Gold.PLP.ligand.torsion>
1.6560

> <Gold.PLP.Chemscore.Hbond>
2.0000

> <Gold.PLP.Chemscore.CHOScore>
0.0000

> <Gold.PLP.Chemscore.Metal>
0.0000

> <Gold.Chemscore.Hbonds>
donor molecule, donor type, donor heavy atom, donor atom, acceptor molecule, acceptor atom, score
      P1  H  7989  7998       L1    11  1.00
      P1  H  7997  8008       L1    21  1.00

> <Gold.PLP.Chemscore.Internal.Correction>
0.1093

> <Gold.Rescore>
     Score         DG    S(hbond)    S(metal)    S(lipo)     H(rot)  DE(clash)    DE(int)     intcor
     12.16     -16.10       1.94        0.00      94.24       2.69       0.05       3.89       ----

> <Gold.Chemscore.Fitness>
12.1589

> <Gold.Chemscore.DG>
-16.1031

> <Gold.Chemscore.ZeroCoef>
-5.4800

> <Gold.Chemscore.Hbond>
1.9436

> <Gold.Chemscore.Metal>
0.0000

> <Gold.Chemscore.Lipo>
94.2449

> <Gold.Chemscore.Internal_Hbond>
0.0000

> <Gold.Chemscore.DEClash>
0.0500

> <Gold.Chemscore.DEInternal>
3.8941

> <Gold.Chemscore.Rot>
2.6935

> <Gold.Chemscore.Internal.Correction>
   9.000000E+99

> <Gold.Chemscore.Hbonds>
donor molecule, donor type, donor heavy atom, donor atom, acceptor molecule, acceptor atom, score
      P1  H  7989  7998       L1    11  0.92
      P1  H  7997  8008       L1    21  0.89

> <Gold.Chemscore.Hbond.Weighted>
-6.4918

> <Gold.Chemscore.Metal.Weighted>
-0.0000

> <Gold.Chemscore.Lipo.Weighted>
-11.0267

> <Gold.Chemscore.Internal_Hbond.Weighted>
0.0000

> <Gold.Chemscore.DEClash.Weighted>
0.0500

> <Gold.Chemscore.DEInternal.Weighted>
3.8941

> <Gold.Chemscore.Rot.Weighted>
6.8954

> <Gold.Chemscore.Internal.Correction.Weighted>
   9.000000E+99

> <Gold.Protein.RotatedTorsions>
[ 6907 6896 6895 6894 ] final  101.61 input  -60.11 | X-H torsion
[ 7974 7965 7964 7962 ] final  150.56 input  175.53 | X-H torsion
[ 8008 7997 7996 7995 ] final -137.90 input   59.86 | X-H torsion
[ 10167 10162 10161 10158 ] final -121.39 input  -65.29 | X-H torsion
[ 10718 10713 10712 10709 ] final  -68.76 input   66.30 | X-H torsion
[ 10763 10752 10751 10750 ] final  -79.32 input  -60.55 | X-H torsion
[ 11005 11000 10999 10996 ] final -133.99 input  -57.11 | X-H torsion

> <Gold.Protein.ActiveResidues>
 VAL166  LYS551  ARG553  GLY616  TRP617  ASP618  TYR619  PRO620  LYS621  CYS622 
 ASP623  PHE694  ASN695  SER759  ASP760  ASP761  ALA762  ILE779  LEU786  VAL792 
 PHE793  MET794  SER795  GLU796  ALA797  LYS798  CYS799  TRP800  GLU811  SER814 

> <Gold.Protein.RotatedAtoms>
  152.5345  134.0100  159.7933 H   0  0  0  0  0  0  0  0  0  0  0  0  # atno 6907 bound_to 6896
  151.0304  133.5787  159.2668 H   0  0  0  0  0  0  0  0  0  0  0  0  # atno 6908 bound_to 6896
  151.2794  135.0716  159.9217 H   0  0  0  0  0  0  0  0  0  0  0  0  # atno 6909 bound_to 6896
  144.8355  139.6424  143.6040 H   0  0  0  0  0  0  0  0  0  0  0  0  # atno 7974 bound_to 7965
  155.4195  140.0517  157.3026 H   0  0  0  0  0  0  0  0  0  0  0  0  # atno 8008 bound_to 7997
  154.4909  140.2119  155.9510 H   0  0  0  0  0  0  0  0  0  0  0  0  # atno 8009 bound_to 7997
  156.1341  140.3166  155.8398 H   0  0  0  0  0  0  0  0  0  0  0  0  # atno 8010 bound_to 7997
  140.0255  143.5301  152.2201 H   0  0  0  0  0  0  0  0  0  0  0  0  # atno 10167 bound_to 10162
  156.0489  130.4300  150.2048 H   0  0  0  0  0  0  0  0  0  0  0  0  # atno 10718 bound_to 10713
  154.5371  135.5700  153.6808 H   0  0  0  0  0  0  0  0  0  0  0  0  # atno 10763 bound_to 10752
  152.9954  135.6219  154.2551 H   0  0  0  0  0  0  0  0  0  0  0  0  # atno 10764 bound_to 10752
  154.2481  135.2860  155.2807 H   0  0  0  0  0  0  0  0  0  0  0  0  # atno 10765 bound_to 10752
  140.9030  134.1665  157.4446 H   0  0  0  0  0  0  0  0  0  0  0  0  # atno 11005 bound_to 11000
  146.2654  139.6508  142.9333 LP  0  0  0  0  0  0  0  0  0  0  0  0  # atno 17320 bound_to 7965
  145.4804  141.0438  143.2649 LP  0  0  0  0  0  0  0  0  0  0  0  0  # atno 17321 bound_to 7965
  139.6111  144.7609  151.2951 LP  0  0  0  0  0  0  0  0  0  0  0  0  # atno 17342 bound_to 10162
  140.7324  143.6824  150.7990 LP  0  0  0  0  0  0  0  0  0  0  0  0  # atno 17343 bound_to 10162
  157.0134  130.9958  151.3359 LP  0  0  0  0  0  0  0  0  0  0  0  0  # atno 17370 bound_to 10713
  157.5394  130.8110  149.8011 LP  0  0  0  0  0  0  0  0  0  0  0  0  # atno 17371 bound_to 10713
  139.8745  134.9906  156.5509 LP  0  0  0  0  0  0  0  0  0  0  0  0  # atno 17394 bound_to 11000
  140.8205  133.8357  155.8892 LP  0  0  0  0  0  0  0  0  0  0  0  0  # atno 17395 bound_to 11000

$$$$
