AV-unprocessed.smi:2819|AV-procd|sdf|10850|dock10
  -GOLD-   2272015293D 1   1.00000     0.00000
 Structure written by MMmdl.
 50 51  0  0  0  0  0  0  0  0  2 V2000
  153.0338  140.8778  160.6351 C   0  0  0  0  0  0  0  0  0  0  0  0
  152.8177  142.2862  160.9529 N   0  0  0  0  0  0  0  0  0  0  0  0
  152.8708  142.7370  162.3379 C   0  0  0  0  0  0  0  0  0  0  0  0
  152.4381  143.1857  159.9317 C   0  0  0  0  0  0  0  0  0  0  0  0
  152.6422  144.5778  160.0409 C   0  0  0  0  0  0  0  0  0  0  0  0
  152.2206  145.3774  158.9639 C   0  0  0  0  0  0  0  0  0  0  0  0
  151.6447  144.8155  157.8741 N   0  3  0  0  0  0  0  0  0  0  0  0
  151.4766  143.4853  157.8166 C   0  0  0  0  0  0  0  0  0  0  0  0
  150.8841  142.9859  156.6766 N   0  0  0  0  0  0  0  0  0  0  0  0
  150.3469  141.7754  156.4316 C   0  0  0  0  0  0  0  0  0  0  0  0
  150.2987  140.8418  157.2340 O   0  0  0  0  0  0  0  0  0  0  0  0
  149.8680  141.7014  155.1810 N   0  0  0  0  0  0  0  0  0  0  0  0
  149.2387  140.5278  154.5744 C   0  0  0  0  0  0  0  0  0  0  0  0
  147.7873  140.8043  154.0810 C   0  0  0  0  0  0  0  0  0  0  0  0
  147.8731  141.9988  153.0969 C   0  0  0  0  0  0  0  0  0  0  0  0
  147.3439  139.5703  153.2580 C   0  0  0  0  0  0  0  0  0  0  0  0
  146.8692  141.1096  155.2148 N   0  0  0  0  0  0  0  0  0  0  0  0
  146.8897  140.1294  156.3073 C   0  0  0  0  0  0  0  0  0  0  0  0
  145.8384  140.4410  157.3861 C   0  0  0  0  0  0  0  0  0  0  0  0
  146.0416  141.7557  157.8893 O   0  0  0  0  0  0  0  0  0  0  0  0
  145.9695  142.7441  156.8695 C   0  0  0  0  0  0  0  0  0  0  0  0
  147.0243  142.4516  155.7893 C   0  0  0  0  0  0  0  0  0  0  0  0
  151.8607  142.6790  158.8188 N   0  0  0  0  0  0  0  0  0  0  0  0
  153.8124  140.7693  159.8792 H   0  0  0  0  0  0  0  0  0  0  0  0
  152.1172  140.4255  160.2553 H   0  0  0  0  0  0  0  0  0  0  0  0
  153.3455  140.3145  161.5149 H   0  0  0  0  0  0  0  0  0  0  0  0
  151.9018  143.1259  162.6522 H   0  0  0  0  0  0  0  0  0  0  0  0
  153.6184  143.5215  162.4583 H   0  0  0  0  0  0  0  0  0  0  0  0
  153.1347  141.9205  163.0106 H   0  0  0  0  0  0  0  0  0  0  0  0
  153.1012  145.0344  160.9051 H   0  0  0  0  0  0  0  0  0  0  0  0
  152.3254  146.4523  158.9384 H   0  0  0  0  0  0  0  0  0  0  0  0
  150.8514  143.6320  155.9024 H   0  0  0  0  0  0  0  0  0  0  0  0
  149.9593  142.5130  154.5874 H   0  0  0  0  0  0  0  0  0  0  0  0
  149.8505  140.1456  153.7552 H   0  0  0  0  0  0  0  0  0  0  0  0
  149.2516  139.7274  155.3136 H   0  0  0  0  0  0  0  0  0  0  0  0
  148.6760  141.8630  152.3713 H   0  0  0  0  0  0  0  0  0  0  0  0
  148.0604  142.9385  153.6174 H   0  0  0  0  0  0  0  0  0  0  0  0
  146.9586  142.1220  152.5166 H   0  0  0  0  0  0  0  0  0  0  0  0
  148.0310  139.3845  152.4315 H   0  0  0  0  0  0  0  0  0  0  0  0
  146.3551  139.7000  152.8190 H   0  0  0  0  0  0  0  0  0  0  0  0
  147.3232  138.6605  153.8578 H   0  0  0  0  0  0  0  0  0  0  0  0
  146.6921  139.1259  155.9345 H   0  0  0  0  0  0  0  0  0  0  0  0
  147.8742  140.1056  156.7747 H   0  0  0  0  0  0  0  0  0  0  0  0
  144.8298  140.3503  156.9803 H   0  0  0  0  0  0  0  0  0  0  0  0
  145.9175  139.7296  158.2083 H   0  0  0  0  0  0  0  0  0  0  0  0
  144.9681  142.7602  156.4369 H   0  0  0  0  0  0  0  0  0  0  0  0
  146.1432  143.7252  157.3119 H   0  0  0  0  0  0  0  0  0  0  0  0
  148.0155  142.5612  156.2296 H   0  0  0  0  0  0  0  0  0  0  0  0
  146.9329  143.2177  155.0219 H   0  0  0  0  0  0  0  0  0  0  0  0
  151.3456  145.4154  157.1048 H   0  0  0  0  0  0  0  0  0  0  0  0
  1  2  1  0  0  0  0
  1 24  1  0  0  0  0
  1 25  1  0  0  0  0
  1 26  1  0  0  0  0
  2  3  1  0  0  0  0
  2  4  1  0  0  0  0
  3 27  1  0  0  0  0
  3 28  1  0  0  0  0
  3 29  1  0  0  0  0
  4 23  1  0  0  0  0
  4  5  2  0  0  0  0
  5  6  1  0  0  0  0
  5 30  1  0  0  0  0
  6  7  2  0  0  0  0
  6 31  1  0  0  0  0
  7  8  1  0  0  0  0
  7 50  1  0  0  0  0
  8  9  1  0  0  0  0
  8 23  2  0  0  0  0
  9 10  1  0  0  0  0
  9 32  1  0  0  0  0
 10 11  2  0  0  0  0
 10 12  1  0  0  0  0
 12 13  1  0  0  0  0
 12 33  1  0  0  0  0
 13 14  1  0  0  0  0
 13 34  1  0  0  0  0
 13 35  1  0  0  0  0
 14 15  1  0  0  0  0
 14 16  1  0  0  0  0
 14 17  1  0  0  0  0
 15 36  1  0  0  0  0
 15 37  1  0  0  0  0
 15 38  1  0  0  0  0
 16 39  1  0  0  0  0
 16 40  1  0  0  0  0
 16 41  1  0  0  0  0
 17 22  1  0  0  0  0
 17 18  1  0  0  0  0
 18 19  1  0  0  0  0
 18 42  1  0  0  0  0
 18 43  1  0  0  0  0
 19 20  1  0  0  0  0
 19 44  1  0  0  0  0
 19 45  1  0  0  0  0
 20 21  1  0  0  0  0
 21 22  1  0  0  0  0
 21 46  1  0  0  0  0
 21 47  1  0  0  0  0
 22 48  1  0  0  0  0
 22 49  1  0  0  0  0
M  CHG  1   7   1
M  END
> <s_m_source_file>
AV-unprocessed.smi

> <i_m_source_file_index>
2819

> <i_lp_mmshare_version>
43012

> <i_f3d_flags>
0

> <s_epik_input>
W0NIM11OKFtDSDNdKWMxW2NIXVtjSF1uYyhuMSlbTkhdQyg9TylbTkhdW0NIMl1DKFtDSDNdKShbQ0gzXSlOMltDSDJdW0NIMl1PW0NIMl1bQ0gyXTI=

> <s_epik_cmdline>
J2VwaWtfcHl0aG9uJywgJy1waCcsICc3LjAnLCAnLXRuJywgJzgnLCAnLW1hJywgJzIwMCcsICctbWV0YWxfYmluZGluZycsICctaW1hZScsICc8aW5maWxlLm1hZT4nLCAnLW9tYWUnLCAnPG91dGZpbGUubWFlPic=

> <r_lp_tautomer_probability>
0.999336

> <r_epik_Ionization_Penalty>
0.36245

> <r_epik_Ionization_Penalty_Charging>
0.09642

> <r_epik_Ionization_Penalty_Neutral>
0.26603

> <r_epik_State_Penalty>
0.34182

> <r_epik_Charging_Adjusted_Penalty>
0.43824

> <i_epik_Tot_Q>
1

> <i_epik_Tot_abs_Q>
1

> <r_epik_Metal_State_Penalty>
0.680072

> <b_epik_Metal_Only>
0

> <s_lp_Force_Field>
OPLS_2005

> <r_lp_Energy>
46.6514

> <b_lp_Chiralities_Consistent>
1

> <s_lp_Variant>
AV-unprocessed.smi:2819-1

> <Gold.Version>
5.8.1

> <Gold.Id.Protein>
6NUR|6NUR_protein|mol2

> <Gold.PLP.Fitness>
52.0095

> <Gold.PLP.PLP>
-43.0344

> <Gold.PLP.part.hbond>
-3.5948

> <Gold.PLP.part.metal>
0.0000

> <Gold.PLP.part.buried>
-5.9936

> <Gold.PLP.part.nonpolar>
-34.1949

> <Gold.PLP.part.repulsive>
0.4152

> <Gold.PLP.ligand.clash>
0.0000

> <Gold.PLP.ligand.torsion>
0.5878

> <Gold.PLP.Chemscore.Hbond>
3.3508

> <Gold.PLP.Chemscore.CHOScore>
0.0000

> <Gold.PLP.Chemscore.Metal>
0.0000

> <Gold.Chemscore.Hbonds>
donor molecule, donor type, donor heavy atom, donor atom, acceptor molecule, acceptor atom, score
      L1  H     9    32       P1  8028  0.15

> <Gold.PLP.Chemscore.Internal.Correction>
0.0985

> <Gold.Rescore>
     Score         DG    S(hbond)    S(metal)    S(lipo)     H(rot)  DE(clash)    DE(int)     intcor
     16.60     -18.88       2.64        0.00      72.68       1.53       0.16       2.13       ----

> <Gold.Chemscore.Fitness>
16.5955

> <Gold.Chemscore.DG>
-18.8837

> <Gold.Chemscore.ZeroCoef>
-5.4800

> <Gold.Chemscore.Hbond>
2.6384

> <Gold.Chemscore.Metal>
0.0000

> <Gold.Chemscore.Lipo>
72.6803

> <Gold.Chemscore.Internal_Hbond>
0.0000

> <Gold.Chemscore.DEClash>
0.1561

> <Gold.Chemscore.DEInternal>
2.1321

> <Gold.Chemscore.Rot>
1.5282

> <Gold.Chemscore.Internal.Correction>
   9.000000E+99

> <Gold.Chemscore.Hbonds>
donor molecule, donor type, donor heavy atom, donor atom, acceptor molecule, acceptor atom, score
      L1  H     9    32       P1  8028  0.15

> <Gold.Chemscore.Hbond.Weighted>
-8.8122

> <Gold.Chemscore.Metal.Weighted>
-0.0000

> <Gold.Chemscore.Lipo.Weighted>
-8.5036

> <Gold.Chemscore.Internal_Hbond.Weighted>
0.0000

> <Gold.Chemscore.DEClash.Weighted>
0.1561

> <Gold.Chemscore.DEInternal.Weighted>
2.1321

> <Gold.Chemscore.Rot.Weighted>
3.9121

> <Gold.Chemscore.Internal.Correction.Weighted>
   9.000000E+99

> <Gold.Protein.RotatedTorsions>
[ 6907 6896 6895 6894 ] final  -75.57 input  -60.11 | X-H torsion
[ 7974 7965 7964 7962 ] final  -20.93 input  175.53 | X-H torsion
[ 8008 7997 7996 7995 ] final -134.79 input   59.86 | X-H torsion
[ 10167 10162 10161 10158 ] final  -29.18 input  -65.29 | X-H torsion
[ 10718 10713 10712 10709 ] final  -69.71 input   66.30 | X-H torsion
[ 10763 10752 10751 10750 ] final  117.15 input  -60.55 | X-H torsion
[ 11005 11000 10999 10996 ] final -164.66 input  -57.11 | X-H torsion

> <Gold.Protein.ActiveResidues>
 VAL166  LYS551  ARG553  GLY616  TRP617  ASP618  TYR619  PRO620  LYS621  CYS622 
 ASP623  PHE694  ASN695  SER759  ASP760  ASP761  ALA762  ILE779  LEU786  VAL792 
 PHE793  MET794  SER795  GLU796  ALA797  LYS798  CYS799  TRP800  GLU811  SER814 

> <Gold.Protein.RotatedAtoms>
  150.7054  134.4701  159.5420 H   0  0  0  0  0  0  0  0  0  0  0  0  # atno 6907 bound_to 6896
  152.2359  134.8274  160.0476 H   0  0  0  0  0  0  0  0  0  0  0  0  # atno 6908 bound_to 6896
  151.9073  133.3517  159.3888 H   0  0  0  0  0  0  0  0  0  0  0  0  # atno 6909 bound_to 6896
  146.1761  140.4270  142.8513 H   0  0  0  0  0  0  0  0  0  0  0  0  # atno 7974 bound_to 7965
  155.3679  140.0486  157.3046 H   0  0  0  0  0  0  0  0  0  0  0  0  # atno 8008 bound_to 7997
  154.5145  140.2203  155.9055 H   0  0  0  0  0  0  0  0  0  0  0  0  # atno 8009 bound_to 7997
  156.1620  140.3114  155.8830 H   0  0  0  0  0  0  0  0  0  0  0  0  # atno 8010 bound_to 7997
  140.7263  143.3949  151.1364 H   0  0  0  0  0  0  0  0  0  0  0  0  # atno 10167 bound_to 10162
  156.0442  130.4318  150.2188 H   0  0  0  0  0  0  0  0  0  0  0  0  # atno 10718 bound_to 10713
  153.5481  135.3545  155.2747 H   0  0  0  0  0  0  0  0  0  0  0  0  # atno 10763 bound_to 10752
  154.8710  135.4107  154.2968 H   0  0  0  0  0  0  0  0  0  0  0  0  # atno 10764 bound_to 10752
  153.3689  135.7063  153.6722 H   0  0  0  0  0  0  0  0  0  0  0  0  # atno 10765 bound_to 10752
  140.5844  134.5109  157.5183 H   0  0  0  0  0  0  0  0  0  0  0  0  # atno 11005 bound_to 11000
  144.8239  140.6595  143.6335 LP  0  0  0  0  0  0  0  0  0  0  0  0  # atno 17320 bound_to 7965
  145.4207  139.1564  143.4075 LP  0  0  0  0  0  0  0  0  0  0  0  0  # atno 17321 bound_to 7965
  139.7560  143.8706  152.3089 LP  0  0  0  0  0  0  0  0  0  0  0  0  # atno 17342 bound_to 10162
  139.8576  144.7133  150.9138 LP  0  0  0  0  0  0  0  0  0  0  0  0  # atno 17343 bound_to 10162
  157.0279  130.9999  151.3320 LP  0  0  0  0  0  0  0  0  0  0  0  0  # atno 17370 bound_to 10713
  157.5298  130.8051  149.7903 LP  0  0  0  0  0  0  0  0  0  0  0  0  # atno 17371 bound_to 10713
  139.9302  134.7978  156.0952 LP  0  0  0  0  0  0  0  0  0  0  0  0  # atno 17394 bound_to 11000
  141.0975  133.6690  156.2679 LP  0  0  0  0  0  0  0  0  0  0  0  0  # atno 17395 bound_to 11000

$$$$
