AV-unprocessed.smi:2099|AV-procd|sdf|8572|dock5
  -GOLD-   2272011303D 1   1.00000     0.00000
 Structure written by MMmdl.
 31 32  0  0  0  0  0  0  0  0  2 V2000
  145.3705  132.9353  162.3102 C   0  0  0  0  0  0  0  0  0  0  0  0
  145.8159  134.4010  162.2106 C   0  0  2  0  0  0  0  0  0  0  0  0
  145.6283  134.9498  160.7833 C   0  0  0  0  0  0  0  0  0  0  0  0
  146.0792  136.4171  160.6763 C   0  0  0  0  0  0  0  0  0  0  0  0
  147.5378  136.6140  161.1423 C   0  0  2  0  0  0  0  0  0  0  0  0
  148.4866  135.9972  160.2153 N   0  0  0  0  0  0  0  0  0  0  0  0
  148.7175  136.3694  158.9481 C   0  0  0  0  0  0  0  0  0  0  0  0
  148.1041  137.3235  158.4642 O   0  0  0  0  0  0  0  0  0  0  0  0
  149.6414  135.6082  158.3184 N   0  5  0  0  0  0  0  0  0  0  0  0
  150.0044  135.8983  157.0582 C   0  0  0  0  0  0  0  0  0  0  0  0
  151.2665  135.7561  156.6223 N   0  0  0  0  0  0  0  0  0  0  0  0
  151.4253  136.1032  155.2874 N   0  0  0  0  0  0  0  0  0  0  0  0
  150.2711  136.4927  154.7463 C   0  0  0  0  0  0  0  0  0  0  0  0
  148.8857  136.4686  155.8165 S   0  0  0  0  0  0  0  0  0  0  0  0
  147.7351  136.0438  162.5604 C   0  0  0  0  0  0  0  0  0  0  0  0
  147.2763  134.5780  162.6688 C   0  0  0  0  0  0  0  0  0  0  0  0
  145.9706  132.2943  161.6634 H   0  0  0  0  0  0  0  0  0  0  0  0
  144.3265  132.8212  162.0168 H   0  0  0  0  0  0  0  0  0  0  0  0
  145.4681  132.5636  163.3306 H   0  0  0  0  0  0  0  0  0  0  0  0
  145.1811  134.9835  162.8799 H   0  0  0  0  0  0  0  0  0  0  0  0
  146.1928  134.3415  160.0751 H   0  0  0  0  0  0  0  0  0  0  0  0
  144.5816  134.8700  160.4881 H   0  0  0  0  0  0  0  0  0  0  0  0
  145.9514  136.7717  159.6533 H   0  0  0  0  0  0  0  0  0  0  0  0
  145.4236  137.0353  161.2909 H   0  0  0  0  0  0  0  0  0  0  0  0
  147.7519  137.6835  161.1797 H   0  0  0  0  0  0  0  0  0  0  0  0
  149.0144  135.2115  160.5661 H   0  0  0  0  0  0  0  0  0  0  0  0
  150.2345  136.7927  153.7096 H   0  0  0  0  0  0  0  0  0  0  0  0
  148.7803  136.1311  162.8598 H   0  0  0  0  0  0  0  0  0  0  0  0
  147.1666  136.6470  163.2694 H   0  0  0  0  0  0  0  0  0  0  0  0
  147.3860  134.2391  163.6995 H   0  0  0  0  0  0  0  0  0  0  0  0
  147.9306  133.9443  162.0687 H   0  0  0  0  0  0  0  0  0  0  0  0
  1  2  1  0  0  0  0
  1 17  1  0  0  0  0
  1 18  1  0  0  0  0
  1 19  1  0  0  0  0
  2 16  1  0  0  0  0
  2  3  1  0  0  0  0
  2 20  1  0  0  0  0
  3  4  1  0  0  0  0
  3 21  1  0  0  0  0
  3 22  1  0  0  0  0
  4  5  1  0  0  0  0
  4 23  1  0  0  0  0
  4 24  1  0  0  0  0
  5  6  1  0  0  0  0
  5 15  1  0  0  0  0
  5 25  1  0  0  0  0
  6  7  1  0  0  0  0
  6 26  1  0  0  0  0
  7  8  2  0  0  0  0
  7  9  1  0  0  0  0
  9 10  1  0  0  0  0
 10 14  1  0  0  0  0
 10 11  2  0  0  0  0
 11 12  1  0  0  0  0
 12 13  2  0  0  0  0
 13 14  1  0  0  0  0
 13 27  1  0  0  0  0
 15 16  1  0  0  0  0
 15 28  1  0  0  0  0
 15 29  1  0  0  0  0
 16 30  1  0  0  0  0
 16 31  1  0  0  0  0
M  CHG  1   9  -1
M  END
> <s_m_source_file>
AV-unprocessed.smi

> <i_m_source_file_index>
2099

> <i_lp_mmshare_version>
43012

> <i_f3d_flags>
0

> <s_epik_input>
W0NIM11bQ0BASF0xW0NIMl1bQ0gyXVtDQEhdKFtDSDJdW0NIMl0xKVtOSF1DKD1PKVtOSF1jMm5uW2NIXXMy

> <s_epik_cmdline>
J2VwaWtfcHl0aG9uJywgJy1waCcsICc3LjAnLCAnLXRuJywgJzgnLCAnLW1hJywgJzIwMCcsICctbWV0YWxfYmluZGluZycsICctaW1hZScsICc8aW5maWxlLm1hZT4nLCAnLW9tYWUnLCAnPG91dGZpbGUubWFlPic=

> <r_lp_tautomer_probability>
1

> <r_epik_Ionization_Penalty>
4.54895

> <r_epik_Ionization_Penalty_Charging>
4.4996

> <r_epik_Ionization_Penalty_Neutral>
0.0493438

> <r_epik_State_Penalty>
4.4993

> <r_epik_Charging_Adjusted_Penalty>
8.99891

> <i_epik_Tot_Q>
-1

> <i_epik_Tot_abs_Q>
1

> <r_epik_Metal_State_Penalty>
0.819079

> <b_epik_Metal_Only>
1

> <s_lp_Force_Field>
OPLS_2005

> <r_lp_Energy>
5.8403

> <b_lp_Chiralities_Consistent>
1

> <s_lp_Variant>
AV-unprocessed.smi:2099-4

> <Gold.Version>
5.8.1

> <Gold.Id.Protein>
6NUR|6NUR_protein|mol2

> <Gold.PLP.Fitness>
35.6349

> <Gold.PLP.PLP>
-24.1244

> <Gold.PLP.part.hbond>
-2.0000

> <Gold.PLP.part.metal>
0.0000

> <Gold.PLP.part.buried>
-3.2370

> <Gold.PLP.part.nonpolar>
-19.5981

> <Gold.PLP.part.repulsive>
0.2758

> <Gold.PLP.ligand.clash>
0.0000

> <Gold.PLP.ligand.torsion>
0.3363

> <Gold.PLP.Chemscore.Hbond>
2.9920

> <Gold.PLP.Chemscore.CHOScore>
1.0666

> <Gold.PLP.Chemscore.Metal>
0.0000

> <Gold.Chemscore.Hbonds>
donor molecule, donor type, donor heavy atom, donor atom, acceptor molecule, acceptor atom, score
      P1  H  6896  6907       L1     9  2.00
      P1  H 10752 10765       L1    12  0.79
      L1  C    13    27       P1  7948  0.79
      L1  C    13    27       P1  7949  0.19

> <Gold.PLP.Chemscore.Internal.Correction>
0.0072

> <Gold.Rescore>
     Score         DG    S(hbond)    S(metal)    S(lipo)     H(rot)  DE(clash)    DE(int)     intcor
     14.64     -16.32       1.86        0.00      61.46       1.00       0.03       1.65       ----

> <Gold.Chemscore.Fitness>
14.6388

> <Gold.Chemscore.DG>
-16.3161

> <Gold.Chemscore.ZeroCoef>
-5.4800

> <Gold.Chemscore.Hbond>
1.8578

> <Gold.Chemscore.Metal>
0.0000

> <Gold.Chemscore.Lipo>
61.4623

> <Gold.Chemscore.Internal_Hbond>
0.0000

> <Gold.Chemscore.DEClash>
0.0255

> <Gold.Chemscore.DEInternal>
1.6519

> <Gold.Chemscore.Rot>
1.0000

> <Gold.Chemscore.Internal.Correction>
   9.000000E+99

> <Gold.Chemscore.Hbonds>
donor molecule, donor type, donor heavy atom, donor atom, acceptor molecule, acceptor atom, score
      P1  H  6896  6907       L1     9  0.86
      P1  H 10752 10765       L1    12  0.15

> <Gold.Chemscore.Hbond.Weighted>
-6.2051

> <Gold.Chemscore.Metal.Weighted>
-0.0000

> <Gold.Chemscore.Lipo.Weighted>
-7.1911

> <Gold.Chemscore.Internal_Hbond.Weighted>
0.0000

> <Gold.Chemscore.DEClash.Weighted>
0.0255

> <Gold.Chemscore.DEInternal.Weighted>
1.6519

> <Gold.Chemscore.Rot.Weighted>
2.5600

> <Gold.Chemscore.Internal.Correction.Weighted>
   9.000000E+99

> <Gold.Protein.RotatedTorsions>
[ 6907 6896 6895 6894 ] final  -77.64 input  -60.11 | X-H torsion
[ 7974 7965 7964 7962 ] final  135.42 input  175.53 | X-H torsion
[ 8008 7997 7996 7995 ] final   13.55 input   59.86 | X-H torsion
[ 10167 10162 10161 10158 ] final  -35.31 input  -65.29 | X-H torsion
[ 10718 10713 10712 10709 ] final  142.03 input   66.30 | X-H torsion
[ 10763 10752 10751 10750 ] final -148.22 input  -60.55 | X-H torsion
[ 11005 11000 10999 10996 ] final  -94.63 input  -57.11 | X-H torsion

> <Gold.Protein.ActiveResidues>
 VAL166  LYS551  ARG553  GLY616  TRP617  ASP618  TYR619  PRO620  LYS621  CYS622 
 ASP623  PHE694  ASN695  SER759  ASP760  ASP761  ALA762  ILE779  LEU786  VAL792 
 PHE793  MET794  SER795  GLU796  ALA797  LYS798  CYS799  TRP800  GLU811  SER814 

> <Gold.Protein.RotatedAtoms>
  150.6993  134.4392  159.5283 H   0  0  0  0  0  0  0  0  0  0  0  0  # atno 6907 bound_to 6896
  152.2104  134.8503  160.0507 H   0  0  0  0  0  0  0  0  0  0  0  0  # atno 6908 bound_to 6896
  151.9390  133.3597  159.3995 H   0  0  0  0  0  0  0  0  0  0  0  0  # atno 6909 bound_to 6896
  144.9665  139.4652  143.5454 H   0  0  0  0  0  0  0  0  0  0  0  0  # atno 7974 bound_to 7965
  154.8360  140.2907  155.5691 H   0  0  0  0  0  0  0  0  0  0  0  0  # atno 8008 bound_to 7997
  156.3009  140.2523  156.3225 H   0  0  0  0  0  0  0  0  0  0  0  0  # atno 8009 bound_to 7997
  154.9178  140.0386  157.1971 H   0  0  0  0  0  0  0  0  0  0  0  0  # atno 8010 bound_to 7997
  140.7168  143.3486  151.2203 H   0  0  0  0  0  0  0  0  0  0  0  0  # atno 10167 bound_to 10162
  157.3852  131.0997  151.0700 H   0  0  0  0  0  0  0  0  0  0  0  0  # atno 10718 bound_to 10713
  154.8244  135.3340  154.6940 H   0  0  0  0  0  0  0  0  0  0  0  0  # atno 10763 bound_to 10752
  153.7568  135.6935  153.4938 H   0  0  0  0  0  0  0  0  0  0  0  0  # atno 10764 bound_to 10752
  153.2138  135.4473  155.0360 H   0  0  0  0  0  0  0  0  0  0  0  0  # atno 10765 bound_to 10752
  141.1465  133.7970  157.0325 H   0  0  0  0  0  0  0  0  0  0  0  0  # atno 11005 bound_to 11000
  146.3369  139.8850  142.8818 LP  0  0  0  0  0  0  0  0  0  0  0  0  # atno 17320 bound_to 7965
  145.2621  141.0081  143.3820 LP  0  0  0  0  0  0  0  0  0  0  0  0  # atno 17321 bound_to 7965
  139.7012  143.9530  152.2906 LP  0  0  0  0  0  0  0  0  0  0  0  0  # atno 17342 bound_to 10162
  139.9224  144.6791  150.8448 LP  0  0  0  0  0  0  0  0  0  0  0  0  # atno 17343 bound_to 10162
  157.1754  130.6286  149.5654 LP  0  0  0  0  0  0  0  0  0  0  0  0  # atno 17370 bound_to 10713
  155.9785  130.4771  150.6659 LP  0  0  0  0  0  0  0  0  0  0  0  0  # atno 17371 bound_to 10713
  140.0745  134.9683  157.1522 LP  0  0  0  0  0  0  0  0  0  0  0  0  # atno 17394 bound_to 11000
  140.3664  134.2438  155.7182 LP  0  0  0  0  0  0  0  0  0  0  0  0  # atno 17395 bound_to 11000

$$$$
