AV-unprocessed.smi:2742|AV-procd|sdf|10565|dock5
  -GOLD-   2272015 13D 1   1.00000     0.00000
 Structure written by MMmdl.
 37 38  0  0  0  0  0  0  0  0  1 V2000
  144.3530  132.4240  150.7457 C   0  0  0  0  0  0  0  0  0  0  0  0
  146.0944  132.8977  150.5724 S   0  0  0  0  0  0  0  0  0  0  0  0
  146.0705  134.5628  151.2985 C   0  0  1  0  0  0  0  0  0  0  0  0
  145.0093  135.4332  150.6023 C   0  0  0  0  0  0  0  0  0  0  0  0
  144.9512  136.8437  151.2087 C   0  0  0  0  0  0  0  0  0  0  0  0
  144.6923  136.7872  152.7235 C   0  0  0  0  0  0  0  0  0  0  0  0
  145.7294  135.9104  153.4563 C   0  0  2  0  0  0  0  0  0  0  0  0
  147.0471  136.5445  153.4703 N   0  0  0  0  0  0  0  0  0  0  0  0
  147.3847  137.6230  154.1918 C   0  0  0  0  0  0  0  0  0  0  0  0
  146.6057  138.2021  154.9481 O   0  0  0  0  0  0  0  0  0  0  0  0
  148.6679  137.9623  153.9787 N   0  0  0  0  0  0  0  0  0  0  0  0
  149.4226  139.0322  154.5354 C   0  0  0  0  0  0  0  0  0  0  0  0
  148.9070  140.3235  154.8058 C   0  0  0  0  0  0  0  0  0  0  0  0
  149.7710  141.2958  155.3485 C   0  0  0  0  0  0  0  0  0  0  0  0
  151.0729  141.0663  155.6209 N   0  0  0  0  0  0  0  0  0  0  0  0
  151.5641  139.8385  155.3518 C   0  0  0  0  0  0  0  0  0  0  0  0
  150.7866  138.7955  154.8097 C   0  0  0  0  0  0  0  0  0  0  0  0
  151.3448  137.5861  154.5601 F   0  0  0  0  0  0  0  0  0  0  0  0
  145.8175  134.5088  152.8201 C   0  0  0  0  0  0  0  0  0  0  0  0
  144.2098  131.4018  150.3958 H   0  0  0  0  0  0  0  0  0  0  0  0
  143.7107  133.0788  150.1579 H   0  0  0  0  0  0  0  0  0  0  0  0
  144.0451  132.4767  151.7898 H   0  0  0  0  0  0  0  0  0  0  0  0
  147.0486  135.0083  151.1126 H   0  0  0  0  0  0  0  0  0  0  0  0
  145.2255  135.5023  149.5356 H   0  0  0  0  0  0  0  0  0  0  0  0
  144.0300  134.9604  150.6889 H   0  0  0  0  0  0  0  0  0  0  0  0
  145.8880  137.3664  151.0129 H   0  0  0  0  0  0  0  0  0  0  0  0
  144.1676  137.4247  150.7216 H   0  0  0  0  0  0  0  0  0  0  0  0
  144.6797  137.7953  153.1394 H   0  0  0  0  0  0  0  0  0  0  0  0
  143.6958  136.3789  152.8969 H   0  0  0  0  0  0  0  0  0  0  0  0
  145.4048  135.7821  154.4906 H   0  0  0  0  0  0  0  0  0  0  0  0
  147.7528  136.1312  152.8784 H   0  0  0  0  0  0  0  0  0  0  0  0
  149.1882  137.3500  153.3677 H   0  0  0  0  0  0  0  0  0  0  0  0
  147.8829  140.5946  154.6036 H   0  0  0  0  0  0  0  0  0  0  0  0
  149.4058  142.2888  155.5654 H   0  0  0  0  0  0  0  0  0  0  0  0
  152.6094  139.6822  155.5733 H   0  0  0  0  0  0  0  0  0  0  0  0
  144.8829  133.9780  153.0064 H   0  0  0  0  0  0  0  0  0  0  0  0
  146.5960  133.9303  153.3175 H   0  0  0  0  0  0  0  0  0  0  0  0
  1  2  1  0  0  0  0
  1 20  1  0  0  0  0
  1 21  1  0  0  0  0
  1 22  1  0  0  0  0
  2  3  1  0  0  0  0
  3 19  1  0  0  0  0
  3  4  1  0  0  0  0
  3 23  1  0  0  0  0
  4  5  1  0  0  0  0
  4 24  1  0  0  0  0
  4 25  1  0  0  0  0
  5  6  1  0  0  0  0
  5 26  1  0  0  0  0
  5 27  1  0  0  0  0
  6  7  1  0  0  0  0
  6 28  1  0  0  0  0
  6 29  1  0  0  0  0
  7  8  1  0  0  0  0
  7 19  1  0  0  0  0
  7 30  1  0  0  0  0
  8  9  1  0  0  0  0
  8 31  1  0  0  0  0
  9 10  2  0  0  0  0
  9 11  1  0  0  0  0
 11 12  1  0  0  0  0
 11 32  1  0  0  0  0
 12 17  1  0  0  0  0
 12 13  2  0  0  0  0
 13 14  1  0  0  0  0
 13 33  1  0  0  0  0
 14 15  2  0  0  0  0
 14 34  1  0  0  0  0
 15 16  1  0  0  0  0
 16 17  2  0  0  0  0
 16 35  1  0  0  0  0
 17 18  1  0  0  0  0
 19 36  1  0  0  0  0
 19 37  1  0  0  0  0
M  END
> <s_m_source_file>
AV-unprocessed.smi

> <i_m_source_file_index>
2742

> <i_lp_mmshare_version>
43012

> <i_f3d_flags>
0

> <s_epik_input>
W0NIM11TW0NAQEhdMVtDSDJdW0NIMl1bQ0gyXVtDQEhdKFtDSDJdMSlbTkhdQyg9TylbTkhdYzJbY0hdW2NIXW5bY0hdYzJG

> <s_epik_cmdline>
J2VwaWtfcHl0aG9uJywgJy1waCcsICc3LjAnLCAnLXRuJywgJzgnLCAnLW1hJywgJzIwMCcsICctbWV0YWxfYmluZGluZycsICctaW1hZScsICc8aW5maWxlLm1hZT4nLCAnLW9tYWUnLCAnPG91dGZpbGUubWFlPic=

> <r_epik_Ionization_Penalty>
0.00344009

> <r_epik_Ionization_Penalty_Charging>
0

> <r_epik_Ionization_Penalty_Neutral>
0.00344009

> <r_epik_State_Penalty>
0.0024078

> <r_epik_Charging_Adjusted_Penalty>
0.0024078

> <i_epik_Tot_Q>
0

> <i_epik_Tot_abs_Q>
0

> <r_epik_Metal_State_Penalty>
-0

> <b_epik_Metal_Only>
0

> <s_lp_Force_Field>
OPLS_2005

> <r_lp_Energy>
13.9364

> <b_lp_Chiralities_Consistent>
1

> <s_lp_Variant>
AV-unprocessed.smi:2742-4

> <Gold.Version>
5.8.1

> <Gold.Id.Protein>
6NUR|6NUR_protein|mol2

> <Gold.PLP.Fitness>
38.7712

> <Gold.PLP.PLP>
-31.1065

> <Gold.PLP.part.hbond>
-2.9770

> <Gold.PLP.part.metal>
0.0000

> <Gold.PLP.part.buried>
2.2642

> <Gold.PLP.part.nonpolar>
-30.6343

> <Gold.PLP.part.repulsive>
0.1077

> <Gold.PLP.ligand.clash>
0.0000

> <Gold.PLP.ligand.torsion>
0.4450

> <Gold.PLP.Chemscore.Hbond>
1.8480

> <Gold.PLP.Chemscore.CHOScore>
1.0000

> <Gold.PLP.Chemscore.Metal>
0.0000

> <Gold.Chemscore.Hbonds>
donor molecule, donor type, donor heavy atom, donor atom, acceptor molecule, acceptor atom, score
      L1  H     8    31       P1  7948  1.00
      L1  H    11    32       P1  7948  0.85
      L1  C    14    34       P1  8028  1.00

> <Gold.PLP.Chemscore.Internal.Correction>
0.0108

> <Gold.Rescore>
     Score         DG    S(hbond)    S(metal)    S(lipo)     H(rot)  DE(clash)    DE(int)     intcor
     15.64     -17.97       1.84        0.00      80.17       1.19       1.83       0.50       ----

> <Gold.Chemscore.Fitness>
15.6369

> <Gold.Chemscore.DG>
-17.9702

> <Gold.Chemscore.ZeroCoef>
-5.4800

> <Gold.Chemscore.Hbond>
1.8414

> <Gold.Chemscore.Metal>
0.0000

> <Gold.Chemscore.Lipo>
80.1708

> <Gold.Chemscore.Internal_Hbond>
0.0000

> <Gold.Chemscore.DEClash>
1.8330

> <Gold.Chemscore.DEInternal>
0.5003

> <Gold.Chemscore.Rot>
1.1875

> <Gold.Chemscore.Internal.Correction>
   9.000000E+99

> <Gold.Chemscore.Hbonds>
donor molecule, donor type, donor heavy atom, donor atom, acceptor molecule, acceptor atom, score
      L1  H     8    31       P1  7948  0.94
      L1  H    11    32       P1  7948  0.83

> <Gold.Chemscore.Hbond.Weighted>
-6.1502

> <Gold.Chemscore.Metal.Weighted>
-0.0000

> <Gold.Chemscore.Lipo.Weighted>
-9.3800

> <Gold.Chemscore.Internal_Hbond.Weighted>
0.0000

> <Gold.Chemscore.DEClash.Weighted>
1.8330

> <Gold.Chemscore.DEInternal.Weighted>
0.5003

> <Gold.Chemscore.Rot.Weighted>
3.0400

> <Gold.Chemscore.Internal.Correction.Weighted>
   9.000000E+99

> <Gold.Protein.RotatedTorsions>
[ 6907 6896 6895 6894 ] final -138.85 input  -60.11 | X-H torsion
[ 7974 7965 7964 7962 ] final -106.51 input  175.53 | X-H torsion
[ 8008 7997 7996 7995 ] final   60.18 input   59.86 | X-H torsion
[ 10167 10162 10161 10158 ] final -152.01 input  -65.29 | X-H torsion
[ 10718 10713 10712 10709 ] final  -16.30 input   66.30 | X-H torsion
[ 10763 10752 10751 10750 ] final   18.77 input  -60.55 | X-H torsion
[ 11005 11000 10999 10996 ] final   23.89 input  -57.11 | X-H torsion

> <Gold.Protein.ActiveResidues>
 VAL166  LYS551  ARG553  GLY616  TRP617  ASP618  TYR619  PRO620  LYS621  CYS622 
 ASP623  PHE694  ASN695  SER759  ASP760  ASP761  ALA762  ILE779  LEU786  VAL792 
 PHE793  MET794  SER795  GLU796  ALA797  LYS798  CYS799  TRP800  GLU811  SER814 

> <Gold.Protein.RotatedAtoms>
  151.0403  133.5712  159.2651 H   0  0  0  0  0  0  0  0  0  0  0  0  # atno 6907 bound_to 6896
  151.2761  135.0699  159.9162 H   0  0  0  0  0  0  0  0  0  0  0  0  # atno 6908 bound_to 6896
  152.5363  134.0125  159.7999 H   0  0  0  0  0  0  0  0  0  0  0  0  # atno 6909 bound_to 6896
  145.2169  140.9119  143.3282 H   0  0  0  0  0  0  0  0  0  0  0  0  # atno 7974 bound_to 7965
  155.5782  140.3491  155.4533 H   0  0  0  0  0  0  0  0  0  0  0  0  # atno 8008 bound_to 7997
  156.0393  140.1292  157.0198 H   0  0  0  0  0  0  0  0  0  0  0  0  # atno 8009 bound_to 7997
  154.4385  140.1027  156.6199 H   0  0  0  0  0  0  0  0  0  0  0  0  # atno 8010 bound_to 7997
  139.7218  143.8945  152.2506 H   0  0  0  0  0  0  0  0  0  0  0  0  # atno 10167 bound_to 10162
  156.5895  130.4795  149.6285 H   0  0  0  0  0  0  0  0  0  0  0  0  # atno 10718 bound_to 10713
  153.1220  135.6721  153.9319 H   0  0  0  0  0  0  0  0  0  0  0  0  # atno 10763 bound_to 10752
  153.8832  135.3056  155.3447 H   0  0  0  0  0  0  0  0  0  0  0  0  # atno 10764 bound_to 10752
  154.7630  135.4978  153.9581 H   0  0  0  0  0  0  0  0  0  0  0  0  # atno 10765 bound_to 10752
  140.3647  134.2087  155.7670 H   0  0  0  0  0  0  0  0  0  0  0  0  # atno 11005 bound_to 11000
  144.9802  139.3791  143.6266 LP  0  0  0  0  0  0  0  0  0  0  0  0  # atno 17320 bound_to 7965
  146.3385  139.8939  142.8805 LP  0  0  0  0  0  0  0  0  0  0  0  0  # atno 17321 bound_to 7965
  139.8843  144.7000  150.8842 LP  0  0  0  0  0  0  0  0  0  0  0  0  # atno 17342 bound_to 10162
  140.7755  143.3636  151.1781 LP  0  0  0  0  0  0  0  0  0  0  0  0  # atno 17343 bound_to 10162
  156.2561  130.6935  151.1689 LP  0  0  0  0  0  0  0  0  0  0  0  0  # atno 17370 bound_to 10713
  157.7307  131.0614  150.5714 LP  0  0  0  0  0  0  0  0  0  0  0  0  # atno 17371 bound_to 10713
  141.1973  133.8062  157.0632 LP  0  0  0  0  0  0  0  0  0  0  0  0  # atno 17394 bound_to 11000
  140.0599  134.9760  157.1286 LP  0  0  0  0  0  0  0  0  0  0  0  0  # atno 17395 bound_to 11000

$$$$
