AV-unprocessed.smi:657|AV-procd|sdf|3224|dock7
  -GOLD-   22720 0163D 1   1.00000     0.00000
 Structure written by MMmdl.
 46 47  0  0  0  0  0  0  0  0  1 V2000
  148.7451  141.6902  154.3971 C   0  0  0  0  0  0  0  0  0  0  0  0
  148.9389  140.8423  155.6710 C   0  0  0  0  0  0  0  0  0  0  0  0
  149.2464  141.7221  156.8973 C   0  0  0  0  0  0  0  0  0  0  0  0
  149.9385  139.7612  155.5144 N   0  0  0  0  0  0  0  0  0  0  0  0
  151.3316  140.2372  155.5806 C   0  0  0  0  0  0  0  0  0  0  0  0
  152.3132  139.0600  155.7088 C   0  0  0  0  0  0  0  0  0  0  0  0
  152.1768  138.1026  154.5236 C   0  0  0  0  0  0  0  0  0  0  0  0
  150.7189  137.6527  154.4082 C   0  0  0  0  0  0  0  0  0  0  0  0
  149.7632  138.8660  154.3231 C   0  0  1  0  0  0  0  0  0  0  0  0
  148.3240  138.3628  154.0960 C   0  0  0  0  0  0  0  0  0  0  0  0
  147.7495  137.7059  154.9648 O   0  0  0  0  0  0  0  0  0  0  0  0
  147.7487  138.7034  152.9329 N   0  0  0  0  0  0  0  0  0  0  0  0
  146.3899  138.3558  152.5397 C   0  0  0  0  0  0  0  0  0  0  0  0
  146.4058  137.4005  151.3391 C   0  0  0  0  0  0  0  0  0  0  0  0
  145.4529  136.2547  151.5350 C   0  0  0  0  0  0  0  0  0  0  0  0
  144.4360  136.1223  152.5234 C   0  0  0  0  0  0  0  0  0  0  0  0
  143.7700  134.9829  152.4273 N   0  0  0  0  0  0  0  0  0  0  0  0
  144.3364  134.3504  151.3793 N   0  0  0  0  0  0  0  0  0  0  0  0
  143.8484  133.0464  150.9848 C   0  0  0  0  0  0  0  0  0  0  0  0
  145.3531  135.0943  150.8203 C   0  0  0  0  0  0  0  0  0  0  0  0
  147.9355  142.4070  154.5358 H   0  0  0  0  0  0  0  0  0  0  0  0
  148.4839  141.0783  153.5345 H   0  0  0  0  0  0  0  0  0  0  0  0
  149.6385  142.2621  154.1465 H   0  0  0  0  0  0  0  0  0  0  0  0
  147.9759  140.3953  155.9120 H   0  0  0  0  0  0  0  0  0  0  0  0
  148.3946  142.3617  157.1301 H   0  0  0  0  0  0  0  0  0  0  0  0
  150.0986  142.3822  156.7385 H   0  0  0  0  0  0  0  0  0  0  0  0
  149.4461  141.1151  157.7807 H   0  0  0  0  0  0  0  0  0  0  0  0
  151.5777  140.8216  154.6931 H   0  0  0  0  0  0  0  0  0  0  0  0
  151.4882  140.8892  156.4377 H   0  0  0  0  0  0  0  0  0  0  0  0
  153.3360  139.4341  155.7635 H   0  0  0  0  0  0  0  0  0  0  0  0
  152.1283  138.5255  156.6416 H   0  0  0  0  0  0  0  0  0  0  0  0
  152.4859  138.6019  153.6045 H   0  0  0  0  0  0  0  0  0  0  0  0
  152.8319  137.2404  154.6525 H   0  0  0  0  0  0  0  0  0  0  0  0
  150.6063  137.0156  153.5297 H   0  0  0  0  0  0  0  0  0  0  0  0
  150.4669  137.0350  155.2720 H   0  0  0  0  0  0  0  0  0  0  0  0
  150.0429  139.4331  153.4331 H   0  0  0  0  0  0  0  0  0  0  0  0
  148.2898  139.2489  152.2781 H   0  0  0  0  0  0  0  0  0  0  0  0
  145.8873  137.8904  153.3887 H   0  0  0  0  0  0  0  0  0  0  0  0
  145.8257  139.2547  152.2847 H   0  0  0  0  0  0  0  0  0  0  0  0
  146.1518  137.9559  150.4353 H   0  0  0  0  0  0  0  0  0  0  0  0
  147.4200  137.0299  151.1839 H   0  0  0  0  0  0  0  0  0  0  0  0
  144.1657  136.8165  153.3055 H   0  0  0  0  0  0  0  0  0  0  0  0
  144.4142  132.6791  150.1281 H   0  0  0  0  0  0  0  0  0  0  0  0
  142.7948  133.1131  150.7119 H   0  0  0  0  0  0  0  0  0  0  0  0
  143.9620  132.3446  151.8116 H   0  0  0  0  0  0  0  0  0  0  0  0
  145.9183  134.7401  149.9707 H   0  0  0  0  0  0  0  0  0  0  0  0
  1  2  1  0  0  0  0
  1 21  1  0  0  0  0
  1 22  1  0  0  0  0
  1 23  1  0  0  0  0
  2  3  1  0  0  0  0
  2  4  1  0  0  0  0
  2 24  1  0  0  0  0
  3 25  1  0  0  0  0
  3 26  1  0  0  0  0
  3 27  1  0  0  0  0
  4  9  1  0  0  0  0
  4  5  1  0  0  0  0
  5  6  1  0  0  0  0
  5 28  1  0  0  0  0
  5 29  1  0  0  0  0
  6  7  1  0  0  0  0
  6 30  1  0  0  0  0
  6 31  1  0  0  0  0
  7  8  1  0  0  0  0
  7 32  1  0  0  0  0
  7 33  1  0  0  0  0
  8  9  1  0  0  0  0
  8 34  1  0  0  0  0
  8 35  1  0  0  0  0
  9 10  1  0  0  0  0
  9 36  1  0  0  0  0
 10 11  2  0  0  0  0
 10 12  1  0  0  0  0
 12 13  1  0  0  0  0
 12 37  1  0  0  0  0
 13 14  1  0  0  0  0
 13 38  1  0  0  0  0
 13 39  1  0  0  0  0
 14 15  1  0  0  0  0
 14 40  1  0  0  0  0
 14 41  1  0  0  0  0
 15 20  2  0  0  0  0
 15 16  1  0  0  0  0
 16 17  2  0  0  0  0
 16 42  1  0  0  0  0
 17 18  1  0  0  0  0
 18 19  1  0  0  0  0
 18 20  1  0  0  0  0
 19 43  1  0  0  0  0
 19 44  1  0  0  0  0
 19 45  1  0  0  0  0
 20 46  1  0  0  0  0
M  END
> <s_m_source_file>
AV-unprocessed.smi

> <i_m_source_file_index>
657

> <i_lp_mmshare_version>
43012

> <i_f3d_flags>
0

> <s_epik_input>
W0NIM11bQ0hdKFtDSDNdKU4xW0NIMl1bQ0gyXVtDSDJdW0NIMl1bQ0BIXTFDKD1PKVtOSF1bQ0gyXVtDSDJdYzJbY0hdbm4oW0NIM10pW2NIXTI=

> <s_epik_cmdline>
J2VwaWtfcHl0aG9uJywgJy1waCcsICc3LjAnLCAnLXRuJywgJzgnLCAnLW1hJywgJzIwMCcsICctbWV0YWxfYmluZGluZycsICctaW1hZScsICc8aW5maWxlLm1hZT4nLCAnLW9tYWUnLCAnPG91dGZpbGUubWFlPic=

> <r_lp_tautomer_probability>
1

> <r_epik_Ionization_Penalty>
1.91154

> <r_epik_Ionization_Penalty_Charging>
0

> <r_epik_Ionization_Penalty_Neutral>
1.91154

> <r_epik_State_Penalty>
2.0331

> <r_epik_Charging_Adjusted_Penalty>
2.0331

> <i_epik_Tot_Q>
0

> <i_epik_Tot_abs_Q>
0

> <r_epik_Metal_State_Penalty>
2.04973

> <b_epik_Metal_Only>
0

> <s_lp_Force_Field>
OPLS_2005

> <r_lp_Energy>
17.3109

> <b_lp_Chiralities_Consistent>
1

> <s_lp_Variant>
AV-unprocessed.smi:657-5

> <Gold.Version>
5.8.1

> <Gold.Id.Protein>
6NUR|6NUR_protein|mol2

> <Gold.PLP.Fitness>
42.6104

> <Gold.PLP.PLP>
-37.7579

> <Gold.PLP.part.hbond>
-2.0000

> <Gold.PLP.part.metal>
0.0000

> <Gold.PLP.part.buried>
1.5829

> <Gold.PLP.part.nonpolar>
-38.1981

> <Gold.PLP.part.repulsive>
0.2897

> <Gold.PLP.ligand.clash>
0.0000

> <Gold.PLP.ligand.torsion>
0.6294

> <Gold.PLP.Chemscore.Hbond>
1.0000

> <Gold.PLP.Chemscore.CHOScore>
1.0000

> <Gold.PLP.Chemscore.Metal>
0.0000

> <Gold.Chemscore.Hbonds>
donor molecule, donor type, donor heavy atom, donor atom, acceptor molecule, acceptor atom, score
      L1  H    12    37       P1  7957  1.00
      L1  C    20    46       P1  7921  1.00

> <Gold.PLP.Chemscore.Internal.Correction>
0.1113

> <Gold.Rescore>
     Score         DG    S(hbond)    S(metal)    S(lipo)     H(rot)  DE(clash)    DE(int)     intcor
     14.06     -16.11       1.00        0.00      96.75       1.57       1.45       0.59       ----

> <Gold.Chemscore.Fitness>
14.0627

> <Gold.Chemscore.DG>
-16.1078

> <Gold.Chemscore.ZeroCoef>
-5.4800

> <Gold.Chemscore.Hbond>
0.9991

> <Gold.Chemscore.Metal>
0.0000

> <Gold.Chemscore.Lipo>
96.7462

> <Gold.Chemscore.Internal_Hbond>
0.0000

> <Gold.Chemscore.DEClash>
1.4532

> <Gold.Chemscore.DEInternal>
0.5919

> <Gold.Chemscore.Rot>
1.5736

> <Gold.Chemscore.Internal.Correction>
   9.000000E+99

> <Gold.Chemscore.Hbonds>
donor molecule, donor type, donor heavy atom, donor atom, acceptor molecule, acceptor atom, score
      L1  H    12    37       P1  7957  1.00

> <Gold.Chemscore.Hbond.Weighted>
-3.3369

> <Gold.Chemscore.Metal.Weighted>
-0.0000

> <Gold.Chemscore.Lipo.Weighted>
-11.3193

> <Gold.Chemscore.Internal_Hbond.Weighted>
0.0000

> <Gold.Chemscore.DEClash.Weighted>
1.4532

> <Gold.Chemscore.DEInternal.Weighted>
0.5919

> <Gold.Chemscore.Rot.Weighted>
4.0284

> <Gold.Chemscore.Internal.Correction.Weighted>
   9.000000E+99

> <Gold.Protein.RotatedTorsions>
[ 6907 6896 6895 6894 ] final  152.93 input  -60.11 | X-H torsion
[ 7974 7965 7964 7962 ] final -161.87 input  175.53 | X-H torsion
[ 8008 7997 7996 7995 ] final  -44.68 input   59.86 | X-H torsion
[ 10167 10162 10161 10158 ] final   30.44 input  -65.29 | X-H torsion
[ 10718 10713 10712 10709 ] final   48.13 input   66.30 | X-H torsion
[ 10763 10752 10751 10750 ] final -149.50 input  -60.55 | X-H torsion
[ 11005 11000 10999 10996 ] final  110.46 input  -57.11 | X-H torsion

> <Gold.Protein.ActiveResidues>
 VAL166  LYS551  ARG553  GLY616  TRP617  ASP618  TYR619  PRO620  LYS621  CYS622 
 ASP623  PHE694  ASN695  SER759  ASP760  ASP761  ALA762  ILE779  LEU786  VAL792 
 PHE793  MET794  SER795  GLU796  ALA797  LYS798  CYS799  TRP800  GLU811  SER814 

> <Gold.Protein.RotatedAtoms>
  152.0798  133.4147  159.4495 H   0  0  0  0  0  0  0  0  0  0  0  0  # atno 6907 bound_to 6896
  150.6862  134.2995  159.4709 H   0  0  0  0  0  0  0  0  0  0  0  0  # atno 6908 bound_to 6896
  152.0836  134.9454  160.0624 H   0  0  0  0  0  0  0  0  0  0  0  0  # atno 6909 bound_to 6896
  144.7376  140.3334  143.6148 H   0  0  0  0  0  0  0  0  0  0  0  0  # atno 7974 bound_to 7965
  154.3998  140.1416  156.3723 H   0  0  0  0  0  0  0  0  0  0  0  0  # atno 8008 bound_to 7997
  155.8081  140.3473  155.5421 H   0  0  0  0  0  0  0  0  0  0  0  0  # atno 8009 bound_to 7997
  155.8415  140.0927  157.1722 H   0  0  0  0  0  0  0  0  0  0  0  0  # atno 8010 bound_to 7997
  140.4677  144.0810  150.6229 H   0  0  0  0  0  0  0  0  0  0  0  0  # atno 10167 bound_to 10162
  157.4655  130.8223  149.7932 H   0  0  0  0  0  0  0  0  0  0  0  0  # atno 10718 bound_to 10713
  154.8173  135.3307  154.7139 H   0  0  0  0  0  0  0  0  0  0  0  0  # atno 10763 bound_to 10752
  153.7777  135.6921  153.4898 H   0  0  0  0  0  0  0  0  0  0  0  0  # atno 10764 bound_to 10752
  153.2001  135.4519  155.0204 H   0  0  0  0  0  0  0  0  0  0  0  0  # atno 10765 bound_to 10752
  139.8882  134.9484  156.6283 H   0  0  0  0  0  0  0  0  0  0  0  0  # atno 11005 bound_to 11000
  145.7448  139.1775  143.2355 LP  0  0  0  0  0  0  0  0  0  0  0  0  # atno 17320 bound_to 7965
  146.1106  140.7433  142.9505 LP  0  0  0  0  0  0  0  0  0  0  0  0  # atno 17321 bound_to 7965
  140.4015  143.2701  151.9941 LP  0  0  0  0  0  0  0  0  0  0  0  0  # atno 17342 bound_to 10162
  139.4814  144.5993  151.7634 LP  0  0  0  0  0  0  0  0  0  0  0  0  # atno 17343 bound_to 10162
  156.0048  130.3861  150.2470 LP  0  0  0  0  0  0  0  0  0  0  0  0  # atno 17370 bound_to 10713
  157.0649  131.0100  151.3210 LP  0  0  0  0  0  0  0  0  0  0  0  0  # atno 17371 bound_to 10713
  140.7686  133.8757  155.8474 LP  0  0  0  0  0  0  0  0  0  0  0  0  # atno 17394 bound_to 11000
  140.9861  134.1341  157.4451 LP  0  0  0  0  0  0  0  0  0  0  0  0  # atno 17395 bound_to 11000

$$$$
