AV-unprocessed.smi:3056|AV-procd|sdf|11658|dock7
  -GOLD-   2272017 63D 1   1.00000     0.00000
 Structure written by MMmdl.
 47 48  0  0  0  0  0  0  0  0  1 V2000
  151.8632  143.8669  159.6251 C   0  0  0  0  0  0  0  0  0  0  0  0
  151.9957  142.3951  159.3593 C   0  0  0  0  0  0  0  0  0  0  0  0
  153.0985  141.5474  159.6606 C   0  0  0  0  0  0  0  0  0  0  0  0
  152.8944  140.2918  159.2990 N   0  0  0  0  0  0  0  0  0  0  0  0
  151.6599  140.2895  158.7461 N   0  0  0  0  0  0  0  0  0  0  0  0
  151.0661  139.0519  158.2445 C   0  0  1  0  0  0  0  0  0  0  0  0
  151.6875  138.6080  156.9052 C   0  0  0  0  0  0  0  0  0  0  0  0
  151.0187  137.9160  159.3029 C   0  0  2  0  0  0  0  0  0  0  0  0
  152.4146  137.5809  159.8674 C   0  0  0  0  0  0  0  0  0  0  0  0
  150.4153  136.7185  158.7228 N   0  0  0  0  0  0  0  0  0  0  0  0
  148.9472  136.7427  158.7456 C   0  0  0  0  0  0  0  0  0  0  0  0
  148.3675  135.3534  159.0345 C   0  0  0  0  0  0  0  0  0  0  0  0
  148.6925  134.4309  158.2865 O   0  0  0  0  0  0  0  0  0  0  0  0
  147.5255  135.1776  160.0824 N   0  0  0  0  0  0  0  0  0  0  0  0
  146.9208  133.9120  160.5101 C   0  0  0  0  0  0  0  0  0  0  0  0
  147.4512  133.5723  161.9135 C   0  0  0  0  0  0  0  0  0  0  0  0
  147.1511  134.6382  162.8116 O   0  0  0  0  0  0  0  0  0  0  0  0
  147.7044  135.8905  162.4098 C   0  0  2  0  0  0  0  0  0  0  0  0
  147.3332  136.9388  163.4639 C   0  0  0  0  0  0  0  0  0  0  0  0
  147.1682  136.2540  161.0105 C   0  0  0  0  0  0  0  0  0  0  0  0
  151.0956  141.5485  158.7772 C   0  0  0  0  0  0  0  0  0  0  0  0
  152.4990  144.1875  160.4507 H   0  0  0  0  0  0  0  0  0  0  0  0
  150.8402  144.1401  159.8841 H   0  0  0  0  0  0  0  0  0  0  0  0
  152.1438  144.4584  158.7537 H   0  0  0  0  0  0  0  0  0  0  0  0
  154.0351  141.8058  160.1321 H   0  0  0  0  0  0  0  0  0  0  0  0
  150.0278  139.2966  158.0153 H   0  0  0  0  0  0  0  0  0  0  0  0
  151.1624  137.7428  156.5000 H   0  0  0  0  0  0  0  0  0  0  0  0
  152.7380  138.3358  157.0098 H   0  0  0  0  0  0  0  0  0  0  0  0
  151.6257  139.4053  156.1642 H   0  0  0  0  0  0  0  0  0  0  0  0
  150.3872  138.2671  160.1208 H   0  0  0  0  0  0  0  0  0  0  0  0
  152.9210  138.4843  160.2081 H   0  0  0  0  0  0  0  0  0  0  0  0
  153.0509  137.1087  159.1178 H   0  0  0  0  0  0  0  0  0  0  0  0
  152.3597  136.9086  160.7229 H   0  0  0  0  0  0  0  0  0  0  0  0
  150.7570  136.6115  157.7780 H   0  0  0  0  0  0  0  0  0  0  0  0
  148.5703  137.4512  159.4820 H   0  0  0  0  0  0  0  0  0  0  0  0
  148.5795  137.0826  157.7761 H   0  0  0  0  0  0  0  0  0  0  0  0
  145.8363  134.0249  160.5369 H   0  0  0  0  0  0  0  0  0  0  0  0
  147.1133  133.0786  159.8377 H   0  0  0  0  0  0  0  0  0  0  0  0
  146.9843  132.6589  162.2821 H   0  0  0  0  0  0  0  0  0  0  0  0
  148.5276  133.3948  161.8898 H   0  0  0  0  0  0  0  0  0  0  0  0
  148.7918  135.8024  162.3738 H   0  0  0  0  0  0  0  0  0  0  0  0
  147.7472  137.9147  163.2094 H   0  0  0  0  0  0  0  0  0  0  0  0
  147.7205  136.6597  164.4441 H   0  0  0  0  0  0  0  0  0  0  0  0
  146.2517  137.0459  163.5508 H   0  0  0  0  0  0  0  0  0  0  0  0
  147.5624  137.2239  160.7045 H   0  0  0  0  0  0  0  0  0  0  0  0
  146.0829  136.3638  161.0345 H   0  0  0  0  0  0  0  0  0  0  0  0
  150.1056  141.7359  158.3880 H   0  0  0  0  0  0  0  0  0  0  0  0
  1  2  1  0  0  0  0
  1 22  1  0  0  0  0
  1 23  1  0  0  0  0
  1 24  1  0  0  0  0
  2 21  2  0  0  0  0
  2  3  1  0  0  0  0
  3  4  2  0  0  0  0
  3 25  1  0  0  0  0
  4  5  1  0  0  0  0
  5  6  1  0  0  0  0
  5 21  1  0  0  0  0
  6  7  1  0  0  0  0
  6  8  1  0  0  0  0
  6 26  1  0  0  0  0
  7 27  1  0  0  0  0
  7 28  1  0  0  0  0
  7 29  1  0  0  0  0
  8  9  1  0  0  0  0
  8 10  1  0  0  0  0
  8 30  1  0  0  0  0
  9 31  1  0  0  0  0
  9 32  1  0  0  0  0
  9 33  1  0  0  0  0
 10 11  1  0  0  0  0
 10 34  1  0  0  0  0
 11 12  1  0  0  0  0
 11 35  1  0  0  0  0
 11 36  1  0  0  0  0
 12 13  2  0  0  0  0
 12 14  1  0  0  0  0
 14 20  1  0  0  0  0
 14 15  1  0  0  0  0
 15 16  1  0  0  0  0
 15 37  1  0  0  0  0
 15 38  1  0  0  0  0
 16 17  1  0  0  0  0
 16 39  1  0  0  0  0
 16 40  1  0  0  0  0
 17 18  1  0  0  0  0
 18 19  1  0  0  0  0
 18 20  1  0  0  0  0
 18 41  1  0  0  0  0
 19 42  1  0  0  0  0
 19 43  1  0  0  0  0
 19 44  1  0  0  0  0
 20 45  1  0  0  0  0
 20 46  1  0  0  0  0
 21 47  1  0  0  0  0
M  END
> <s_m_source_file>
AV-unprocessed.smi

> <i_m_source_file_index>
3056

> <i_lp_mmshare_version>
43012

> <i_f3d_flags>
0

> <s_epik_input>
W0NIM11jMVtjSF1ubihbY0hdMSlbQ0BIXShbQ0gzXSlbQ0BIXShbQ0gzXSlbTkhdW0NIMl1DKD1PKU4yW0NIMl1bQ0gyXU9bQ0BASF0oW0NIM10pW0NIMl0y

> <s_epik_cmdline>
J2VwaWtfcHl0aG9uJywgJy1waCcsICc3LjAnLCAnLXRuJywgJzgnLCAnLW1hJywgJzIwMCcsICctbWV0YWxfYmluZGluZycsICctaW1hZScsICc8aW5maWxlLm1hZT4nLCAnLW9tYWUnLCAnPG91dGZpbGUubWFlPic=

> <r_lp_tautomer_probability>
1

> <r_epik_Ionization_Penalty>
0.667689

> <r_epik_Ionization_Penalty_Charging>
0

> <r_epik_Ionization_Penalty_Neutral>
0.667689

> <r_epik_State_Penalty>
0.684601

> <r_epik_Charging_Adjusted_Penalty>
0.684601

> <i_epik_Tot_Q>
0

> <i_epik_Tot_abs_Q>
0

> <r_epik_Metal_State_Penalty>
0.681448

> <b_epik_Metal_Only>
0

> <s_lp_Force_Field>
OPLS_2005

> <r_lp_Energy>
30.4655

> <b_lp_Chiralities_Consistent>
1

> <s_lp_Variant>
AV-unprocessed.smi:3056-14

> <Gold.Version>
5.8.1

> <Gold.Id.Protein>
6NUR|6NUR_protein|mol2

> <Gold.PLP.Fitness>
44.7528

> <Gold.PLP.PLP>
-41.4671

> <Gold.PLP.part.hbond>
-2.0000

> <Gold.PLP.part.metal>
0.0000

> <Gold.PLP.part.buried>
-5.1929

> <Gold.PLP.part.nonpolar>
-34.6996

> <Gold.PLP.part.repulsive>
0.0000

> <Gold.PLP.ligand.clash>
0.0000

> <Gold.PLP.ligand.torsion>
0.7985

> <Gold.PLP.Chemscore.Hbond>
1.5680

> <Gold.PLP.Chemscore.CHOScore>
0.0000

> <Gold.PLP.Chemscore.Metal>
0.0000

> <Gold.Chemscore.Hbonds>
donor molecule, donor type, donor heavy atom, donor atom, acceptor molecule, acceptor atom, score
      P1  H  6896  6907       L1    13  0.20
      P1  H  6896  6908       L1    10  0.08

> <Gold.PLP.Chemscore.Internal.Correction>
0.1787

> <Gold.Rescore>
     Score         DG    S(hbond)    S(metal)    S(lipo)     H(rot)  DE(clash)    DE(int)     intcor
     13.87     -16.03       0.85        0.00     102.74       1.68       0.16       1.99       ----

> <Gold.Chemscore.Fitness>
13.8746

> <Gold.Chemscore.DG>
-16.0273

> <Gold.Chemscore.ZeroCoef>
-5.4800

> <Gold.Chemscore.Hbond>
0.8461

> <Gold.Chemscore.Metal>
0.0000

> <Gold.Chemscore.Lipo>
102.7375

> <Gold.Chemscore.Internal_Hbond>
0.0000

> <Gold.Chemscore.DEClash>
0.1619

> <Gold.Chemscore.DEInternal>
1.9908

> <Gold.Chemscore.Rot>
1.6793

> <Gold.Chemscore.Internal.Correction>
   9.000000E+99

> <Gold.Chemscore.Hbonds>
donor molecule, donor type, donor heavy atom, donor atom, acceptor molecule, acceptor atom, score
      P1  H  6896  6907       L1    13  0.04
      P1  H  6896  6908       L1    10  0.01

> <Gold.Chemscore.Hbond.Weighted>
-2.8261

> <Gold.Chemscore.Metal.Weighted>
-0.0000

> <Gold.Chemscore.Lipo.Weighted>
-12.0203

> <Gold.Chemscore.Internal_Hbond.Weighted>
0.0000

> <Gold.Chemscore.DEClash.Weighted>
0.1619

> <Gold.Chemscore.DEInternal.Weighted>
1.9908

> <Gold.Chemscore.Rot.Weighted>
4.2990

> <Gold.Chemscore.Internal.Correction.Weighted>
   9.000000E+99

> <Gold.Protein.RotatedTorsions>
[ 6907 6896 6895 6894 ] final -114.57 input  -60.11 | X-H torsion
[ 7974 7965 7964 7962 ] final   75.08 input  175.53 | X-H torsion
[ 8008 7997 7996 7995 ] final   89.46 input   59.86 | X-H torsion
[ 10167 10162 10161 10158 ] final   83.94 input  -65.29 | X-H torsion
[ 10718 10713 10712 10709 ] final   62.36 input   66.30 | X-H torsion
[ 10763 10752 10751 10750 ] final   79.73 input  -60.55 | X-H torsion
[ 11005 11000 10999 10996 ] final    0.90 input  -57.11 | X-H torsion

> <Gold.Protein.ActiveResidues>
 VAL166  LYS551  ARG553  GLY616  TRP617  ASP618  TYR619  PRO620  LYS621  CYS622 
 ASP623  PHE694  ASN695  SER759  ASP760  ASP761  ALA762  ILE779  LEU786  VAL792 
 PHE793  MET794  SER795  GLU796  ALA797  LYS798  CYS799  TRP800  GLU811  SER814 

> <Gold.Protein.RotatedAtoms>
  150.7912  133.8782  159.3278 H   0  0  0  0  0  0  0  0  0  0  0  0  # atno 6907 bound_to 6896
  151.6620  135.0986  160.0191 H   0  0  0  0  0  0  0  0  0  0  0  0  # atno 6908 bound_to 6896
  152.3986  133.6745  159.6333 H   0  0  0  0  0  0  0  0  0  0  0  0  # atno 6909 bound_to 6896
  145.7202  139.2645  143.1600 H   0  0  0  0  0  0  0  0  0  0  0  0  # atno 7974 bound_to 7965
  156.0003  140.3360  155.6839 H   0  0  0  0  0  0  0  0  0  0  0  0  # atno 8008 bound_to 7997
  155.6300  140.0684  157.2670 H   0  0  0  0  0  0  0  0  0  0  0  0  # atno 8009 bound_to 7997
  154.4247  140.1761  156.1449 H   0  0  0  0  0  0  0  0  0  0  0  0  # atno 8010 bound_to 7997
  139.9132  144.6259  150.8516 H   0  0  0  0  0  0  0  0  0  0  0  0  # atno 10167 bound_to 10162
  157.5895  130.9046  149.9577 H   0  0  0  0  0  0  0  0  0  0  0  0  # atno 10718 bound_to 10713
  153.0976  135.4829  154.8808 H   0  0  0  0  0  0  0  0  0  0  0  0  # atno 10763 bound_to 10752
  154.7342  135.3067  154.8842 H   0  0  0  0  0  0  0  0  0  0  0  0  # atno 10764 bound_to 10752
  153.9468  135.6828  153.4797 H   0  0  0  0  0  0  0  0  0  0  0  0  # atno 10765 bound_to 10752
  140.6214  133.9658  155.8226 H   0  0  0  0  0  0  0  0  0  0  0  0  # atno 11005 bound_to 11000
  146.0633  140.7947  142.9724 LP  0  0  0  0  0  0  0  0  0  0  0  0  # atno 17320 bound_to 7965
  144.6919  140.3230  143.7229 LP  0  0  0  0  0  0  0  0  0  0  0  0  # atno 17321 bound_to 7965
  140.7680  143.3350  151.2327 LP  0  0  0  0  0  0  0  0  0  0  0  0  # atno 17342 bound_to 10162
  139.6925  143.9668  152.2866 LP  0  0  0  0  0  0  0  0  0  0  0  0  # atno 17343 bound_to 10162
  156.0948  130.3660  150.0328 LP  0  0  0  0  0  0  0  0  0  0  0  0  # atno 17370 bound_to 10713
  156.8453  130.9440  151.3629 LP  0  0  0  0  0  0  0  0  0  0  0  0  # atno 17371 bound_to 10713
  141.0740  134.0163  157.3485 LP  0  0  0  0  0  0  0  0  0  0  0  0  # atno 17394 bound_to 11000
  139.9152  135.0196  156.7852 LP  0  0  0  0  0  0  0  0  0  0  0  0  # atno 17395 bound_to 11000

$$$$
