AV-unprocessed.smi:265|AV-procd|sdf|2024|dock7
  -GOLD-   2262021223D 1   1.00000     0.00000
 Structure written by MMmdl.
 52 56  0  0  0  0  0  0  0  0  1 V2000
  150.5121  138.4820  153.9703 C   0  0  0  0  0  0  0  0  0  0  0  0
  150.3326  139.2140  155.3104 C   0  0  1  0  0  0  0  0  0  0  0  0
  151.1037  140.4148  155.3402 O   0  0  0  0  0  0  0  0  0  0  0  0
  150.2728  141.5246  155.6531 C   0  0  0  0  0  0  0  0  0  0  0  0
  149.1020  140.9219  156.4182 C   0  0  0  0  0  0  0  0  0  0  0  0
  148.8870  139.5972  155.7006 C   0  0  1  0  0  0  0  0  0  0  0  0
  148.0978  139.8363  154.5453 O   0  0  0  0  0  0  0  0  0  0  0  0
  148.1880  138.5185  156.5616 C   0  0  0  0  0  0  0  0  0  0  0  0
  147.6977  137.3874  155.7892 N   0  0  0  0  0  0  0  0  0  0  0  0
  148.2967  136.1537  155.6710 C   0  0  0  0  0  0  0  0  0  0  0  0
  147.6652  135.2987  154.9143 N   0  0  0  0  0  0  0  0  0  0  0  0
  146.5365  135.9899  154.4899 C   0  0  0  0  0  0  0  0  0  0  0  0
  145.4319  135.6631  153.6540 C   0  0  0  0  0  0  0  0  0  0  0  0
  145.2864  134.4411  153.0822 N   0  0  0  0  0  0  0  0  0  0  0  0
  146.4018  133.5014  153.1901 C   0  0  0  0  0  0  0  0  0  0  0  0
  145.9421  132.0729  152.8604 C   0  0  0  0  0  0  0  0  0  0  0  0
  145.2314  131.9988  151.4988 C   0  0  2  0  0  0  0  0  0  0  0  0
  146.1583  132.2334  150.4466 O   0  0  0  0  0  0  0  0  0  0  0  0
  145.6203  132.0029  149.1434 C   0  0  0  0  0  0  0  0  0  0  0  0
  144.2649  132.7043  148.9369 C   0  0  0  0  0  0  0  0  0  0  0  0
  143.8176  132.8520  147.8019 O   0  0  0  0  0  0  0  0  0  0  0  0
  143.5853  133.1001  150.0253 N   0  0  0  0  0  0  0  0  0  0  0  0
  144.1162  133.0609  151.3839 C   0  0  2  0  0  0  0  0  0  0  0  0
  144.6275  134.4611  151.7779 C   0  0  0  0  0  0  0  0  0  0  0  0
  144.4995  136.6307  153.4431 N   0  0  0  0  0  0  0  0  0  0  0  0
  144.6292  137.8298  154.0185 C   0  0  0  0  0  0  0  0  0  0  0  0
  145.5978  138.2679  154.8249 N   0  0  0  0  0  0  0  0  0  0  0  0
  146.5428  137.3067  155.0306 C   0  0  0  0  0  0  0  0  0  0  0  0
  144.8126  130.9975  151.3809 H   0  0  0  0  0  0  0  0  0  0  0  0
  143.3004  132.7877  152.0547 H   0  0  0  0  0  0  0  0  0  0  0  0
  149.9143  137.5708  153.9384 H   0  0  0  0  0  0  0  0  0  0  0  0
  151.5543  138.1999  153.8211 H   0  0  0  0  0  0  0  0  0  0  0  0
  150.2198  139.1084  153.1270 H   0  0  0  0  0  0  0  0  0  0  0  0
  150.7503  138.5847  156.0974 H   0  0  0  0  0  0  0  0  0  0  0  0
  150.8100  142.2782  156.2292 H   0  0  0  0  0  0  0  0  0  0  0  0
  149.9295  141.9851  154.7258 H   0  0  0  0  0  0  0  0  0  0  0  0
  149.4065  140.7456  157.4506 H   0  0  0  0  0  0  0  0  0  0  0  0
  148.2211  141.5651  156.4341 H   0  0  0  0  0  0  0  0  0  0  0  0
  147.2711  140.2028  154.8192 H   0  0  0  0  0  0  0  0  0  0  0  0
  148.8760  138.1409  157.3194 H   0  0  0  0  0  0  0  0  0  0  0  0
  147.3462  138.9513  157.1034 H   0  0  0  0  0  0  0  0  0  0  0  0
  149.2273  135.9086  156.1621 H   0  0  0  0  0  0  0  0  0  0  0  0
  147.1967  133.8050  152.5075 H   0  0  0  0  0  0  0  0  0  0  0  0
  146.8162  133.5236  154.1991 H   0  0  0  0  0  0  0  0  0  0  0  0
  146.7930  131.3913  152.8782 H   0  0  0  0  0  0  0  0  0  0  0  0
  145.2583  131.7312  153.6386 H   0  0  0  0  0  0  0  0  0  0  0  0
  146.3349  132.3522  148.3980 H   0  0  0  0  0  0  0  0  0  0  0  0
  145.4900  130.9310  148.9894 H   0  0  0  0  0  0  0  0  0  0  0  0
  142.6787  133.5246  149.8944 H   0  0  0  0  0  0  0  0  0  0  0  0
  143.7968  135.1659  151.7613 H   0  0  0  0  0  0  0  0  0  0  0  0
  145.3477  134.8171  151.0397 H   0  0  0  0  0  0  0  0  0  0  0  0
  143.8440  138.5392  153.8025 H   0  0  0  0  0  0  0  0  0  0  0  0
  1  2  1  0  0  0  0
  1 31  1  0  0  0  0
  1 32  1  0  0  0  0
  1 33  1  0  0  0  0
  2  6  1  0  0  0  0
  2  3  1  0  0  0  0
  2 34  1  0  0  0  0
  3  4  1  0  0  0  0
  4  5  1  0  0  0  0
  4 35  1  0  0  0  0
  4 36  1  0  0  0  0
  5  6  1  0  0  0  0
  5 37  1  0  0  0  0
  5 38  1  0  0  0  0
  6  7  1  0  0  0  0
  6  8  1  0  0  0  0
  7 39  1  0  0  0  0
  8  9  1  0  0  0  0
  8 40  1  0  0  0  0
  8 41  1  0  0  0  0
  9 28  1  0  0  0  0
  9 10  1  0  0  0  0
 10 11  2  0  0  0  0
 10 42  1  0  0  0  0
 11 12  1  0  0  0  0
 12 28  2  0  0  0  0
 12 13  1  0  0  0  0
 13 14  1  0  0  0  0
 13 25  2  0  0  0  0
 14 24  1  0  0  0  0
 14 15  1  0  0  0  0
 15 16  1  0  0  0  0
 15 43  1  0  0  0  0
 15 44  1  0  0  0  0
 16 17  1  0  0  0  0
 16 45  1  0  0  0  0
 16 46  1  0  0  0  0
 17 29  1  0  0  0  0
 17 23  1  0  0  0  0
 17 18  1  0  0  0  0
 18 19  1  0  0  0  0
 19 20  1  0  0  0  0
 19 47  1  0  0  0  0
 19 48  1  0  0  0  0
 20 21  2  0  0  0  0
 20 22  1  0  0  0  0
 22 23  1  0  0  0  0
 22 49  1  0  0  0  0
 23 30  1  0  0  0  0
 23 24  1  0  0  0  0
 24 50  1  0  0  0  0
 24 51  1  0  0  0  0
 25 26  1  0  0  0  0
 26 27  2  0  0  0  0
 26 52  1  0  0  0  0
 27 28  1  0  0  0  0
M  END
> <s_m_source_file>
AV-unprocessed.smi

> <i_m_source_file_index>
265

> <i_lp_mmshare_version>
43012

> <i_f3d_flags>
0

> <s_epik_input>
W0NIMl0xW0NIMl1PW0NAQEhdKFtDSDNdKVtDQEBdMShbT0hdKVtDSDJdbihbY0hdbjIpYyhjMjMpbltjSF1uYzNOKFtDSDJdW0NIMl00KVtDSDJdW0NAQEhdKFtDQEhdNDUpW05IXUMoPU8pW0NIMl1PNQ==

> <s_epik_cmdline>
J2VwaWtfcHl0aG9uJywgJy1waCcsICc3LjAnLCAnLXRuJywgJzgnLCAnLW1hJywgJzIwMCcsICctbWV0YWxfYmluZGluZycsICctaW1hZScsICc8aW5maWxlLm1hZT4nLCAnLW9tYWUnLCAnPG91dGZpbGUubWFlPic=

> <r_lp_tautomer_probability>
1

> <r_epik_Ionization_Penalty>
0.00221504

> <r_epik_Ionization_Penalty_Charging>
0

> <r_epik_Ionization_Penalty_Neutral>
0.00221504

> <r_epik_State_Penalty>
-0

> <r_epik_Charging_Adjusted_Penalty>
0

> <i_epik_Tot_Q>
0

> <i_epik_Tot_abs_Q>
0

> <r_epik_Metal_State_Penalty>
-0

> <b_epik_Metal_Only>
0

> <s_lp_Force_Field>
OPLS_2005

> <r_lp_Energy>
44.7189

> <b_lp_Chiralities_Consistent>
1

> <s_lp_Variant>
AV-unprocessed.smi:265-10

> <Gold.Version>
5.8.1

> <Gold.Id.Protein>
6NUR|6NUR_protein|mol2

> <Gold.PLP.Fitness>
37.9894

> <Gold.PLP.PLP>
-29.6550

> <Gold.PLP.part.hbond>
-3.0000

> <Gold.PLP.part.metal>
0.0000

> <Gold.PLP.part.buried>
-6.0034

> <Gold.PLP.part.nonpolar>
-21.5121

> <Gold.PLP.part.repulsive>
2.1173

> <Gold.PLP.ligand.clash>
0.0000

> <Gold.PLP.ligand.torsion>
0.8873

> <Gold.PLP.Chemscore.Hbond>
2.2494

> <Gold.PLP.Chemscore.CHOScore>
1.0000

> <Gold.PLP.Chemscore.Metal>
0.0000

> <Gold.Chemscore.Hbonds>
donor molecule, donor type, donor heavy atom, donor atom, acceptor molecule, acceptor atom, score
      L1  H    22    49       P1 10186  1.00
      P1  H  7918  7932       L1    21  0.27
      P1  H  7989  7998       L1     3  0.99
      L1  C    26    52       P1 10175  1.00

> <Gold.PLP.Chemscore.Internal.Correction>
0.3607

> <Gold.Rescore>
     Score         DG    S(hbond)    S(metal)    S(lipo)     H(rot)  DE(clash)    DE(int)     intcor
      9.23     -12.03       1.22        0.00      70.36       2.25       0.54       2.25       ----

> <Gold.Chemscore.Fitness>
9.2324

> <Gold.Chemscore.DG>
-12.0300

> <Gold.Chemscore.ZeroCoef>
-5.4800

> <Gold.Chemscore.Hbond>
1.2174

> <Gold.Chemscore.Metal>
0.0000

> <Gold.Chemscore.Lipo>
70.3575

> <Gold.Chemscore.Internal_Hbond>
0.0000

> <Gold.Chemscore.DEClash>
0.5442

> <Gold.Chemscore.DEInternal>
2.2534

> <Gold.Chemscore.Rot>
2.2453

> <Gold.Chemscore.Internal.Correction>
   9.000000E+99

> <Gold.Chemscore.Hbonds>
donor molecule, donor type, donor heavy atom, donor atom, acceptor molecule, acceptor atom, score
      L1  H    22    49       P1 10186  1.00
      P1  H  7918  7932       L1    21  0.27
      P1  H  7989  7998       L1     3  0.16

> <Gold.Chemscore.Hbond.Weighted>
-4.0661

> <Gold.Chemscore.Metal.Weighted>
-0.0000

> <Gold.Chemscore.Lipo.Weighted>
-8.2318

> <Gold.Chemscore.Internal_Hbond.Weighted>
0.0000

> <Gold.Chemscore.DEClash.Weighted>
0.5442

> <Gold.Chemscore.DEInternal.Weighted>
2.2534

> <Gold.Chemscore.Rot.Weighted>
5.7479

> <Gold.Chemscore.Internal.Correction.Weighted>
   9.000000E+99

> <Gold.Protein.RotatedTorsions>
[ 6907 6896 6895 6894 ] final   74.95 input  -60.11 | X-H torsion
[ 7974 7965 7964 7962 ] final  161.88 input  175.53 | X-H torsion
[ 8008 7997 7996 7995 ] final   83.91 input   59.86 | X-H torsion
[ 10167 10162 10161 10158 ] final  134.44 input  -65.29 | X-H torsion
[ 10718 10713 10712 10709 ] final  163.45 input   66.30 | X-H torsion
[ 10763 10752 10751 10750 ] final  -31.90 input  -60.55 | X-H torsion
[ 11005 11000 10999 10996 ] final  -45.57 input  -57.11 | X-H torsion

> <Gold.Protein.ActiveResidues>
 VAL166  LYS551  ARG553  GLY616  TRP617  ASP618  TYR619  PRO620  LYS621  CYS622 
 ASP623  PHE694  ASN695  SER759  ASP760  ASP761  ALA762  ILE779  LEU786  VAL792 
 PHE793  MET794  SER795  GLU796  ALA797  LYS798  CYS799  TRP800  GLU811  SER814 

> <Gold.Protein.RotatedAtoms>
  152.5002  134.4193  159.9475 H   0  0  0  0  0  0  0  0  0  0  0  0  # atno 6907 bound_to 6896
  151.4165  133.3705  159.2758 H   0  0  0  0  0  0  0  0  0  0  0  0  # atno 6908 bound_to 6896
  150.9253  134.8692  159.7575 H   0  0  0  0  0  0  0  0  0  0  0  0  # atno 6909 bound_to 6896
  144.7664  139.7961  143.6313 H   0  0  0  0  0  0  0  0  0  0  0  0  # atno 7974 bound_to 7965
  155.9302  140.3415  155.6243 H   0  0  0  0  0  0  0  0  0  0  0  0  # atno 8008 bound_to 7997
  155.7167  140.0778  157.2367 H   0  0  0  0  0  0  0  0  0  0  0  0  # atno 8009 bound_to 7997
  154.4084  140.1613  156.2343 H   0  0  0  0  0  0  0  0  0  0  0  0  # atno 8010 bound_to 7997
  139.5256  144.6567  151.5140 H   0  0  0  0  0  0  0  0  0  0  0  0  # atno 10167 bound_to 10162
  157.1084  131.0461  151.2468 H   0  0  0  0  0  0  0  0  0  0  0  0  # atno 10718 bound_to 10713
  153.8050  135.6887  153.4849 H   0  0  0  0  0  0  0  0  0  0  0  0  # atno 10763 bound_to 10752
  153.1664  135.4559  154.9842 H   0  0  0  0  0  0  0  0  0  0  0  0  # atno 10764 bound_to 10752
  154.7991  135.3330  154.7535 H   0  0  0  0  0  0  0  0  0  0  0  0  # atno 10765 bound_to 10752
  141.0524  133.6738  156.3031 H   0  0  0  0  0  0  0  0  0  0  0  0  # atno 11005 bound_to 11000
  146.1774  139.4951  142.9888 LP  0  0  0  0  0  0  0  0  0  0  0  0  # atno 17320 bound_to 7965
  145.6458  141.0274  143.1787 LP  0  0  0  0  0  0  0  0  0  0  0  0  # atno 17321 bound_to 7965
  140.6396  143.8916  150.6679 LP  0  0  0  0  0  0  0  0  0  0  0  0  # atno 17342 bound_to 10162
  140.2246  143.3782  152.1615 LP  0  0  0  0  0  0  0  0  0  0  0  0  # atno 17343 bound_to 10162
  157.4581  130.7637  149.7211 LP  0  0  0  0  0  0  0  0  0  0  0  0  # atno 17370 bound_to 10713
  155.9856  130.3981  150.3251 LP  0  0  0  0  0  0  0  0  0  0  0  0  # atno 17371 bound_to 10713
  140.6030  134.5535  157.5521 LP  0  0  0  0  0  0  0  0  0  0  0  0  # atno 17394 bound_to 11000
  139.9361  134.7873  156.0799 LP  0  0  0  0  0  0  0  0  0  0  0  0  # atno 17395 bound_to 11000

$$$$
