AV-unprocessed.smi:459|AV-procd|sdf|2625|dock4
  -GOLD-   2262023 23D 1   1.00000     0.00000
 Structure written by MMmdl.
 44 46  0  0  0  0  0  0  0  0  2 V2000
  154.8155  137.1943  164.5857 C   0  0  0  0  0  0  0  0  0  0  0  0
  155.1052  138.2400  163.6697 O   0  0  0  0  0  0  0  0  0  0  0  0
  154.6349  138.1205  162.3795 C   0  0  0  0  0  0  0  0  0  0  0  0
  154.1383  136.9179  161.8201 C   0  0  0  0  0  0  0  0  0  0  0  0
  153.6733  136.8893  160.4912 C   0  0  0  0  0  0  0  0  0  0  0  0
  153.6884  138.0496  159.6923 C   0  0  0  0  0  0  0  0  0  0  0  0
  153.2064  137.9322  158.4062 O   0  0  0  0  0  0  0  0  0  0  0  0
  152.9073  139.1214  157.6897 C   0  0  0  0  0  0  0  0  0  0  0  0
  151.5933  139.6967  158.2316 C   0  0  0  0  0  0  0  0  0  0  0  0
  151.3265  141.0425  157.7070 N   0  0  0  0  0  0  0  0  0  0  0  0
  150.7321  141.4338  156.5430 C   0  0  0  0  0  0  0  0  0  0  0  0
  150.1906  140.5476  155.4683 C   0  0  0  0  0  0  0  0  0  0  0  0
  148.9337  141.1473  154.8240 C   0  0  0  0  0  0  0  0  0  0  0  0
  149.1827  141.4392  153.4659 O   0  0  0  0  0  0  0  0  0  0  0  0
  150.7363  142.7969  156.5267 N   0  3  0  0  0  0  0  0  0  0  0  0
  151.3245  143.2818  157.6956 C   0  0  0  0  0  0  0  0  0  0  0  0
  151.5492  144.5845  158.1301 C   0  0  0  0  0  0  0  0  0  0  0  0
  152.1727  144.7334  159.3864 C   0  0  0  0  0  0  0  0  0  0  0  0
  152.5453  143.6139  160.1589 C   0  0  0  0  0  0  0  0  0  0  0  0
  152.3140  142.2977  159.7069 C   0  0  0  0  0  0  0  0  0  0  0  0
  151.7006  142.1595  158.4621 C   0  0  0  0  0  0  0  0  0  0  0  0
  154.1898  139.2512  160.2500 C   0  0  0  0  0  0  0  0  0  0  0  0
  154.6562  139.2793  161.5785 C   0  0  0  0  0  0  0  0  0  0  0  0
  155.2403  137.4408  165.5586 H   0  0  0  0  0  0  0  0  0  0  0  0
  155.2549  136.2491  164.2641 H   0  0  0  0  0  0  0  0  0  0  0  0
  153.7402  137.0671  164.7185 H   0  0  0  0  0  0  0  0  0  0  0  0
  154.1023  136.0019  162.3897 H   0  0  0  0  0  0  0  0  0  0  0  0
  153.2963  135.9637  160.0815 H   0  0  0  0  0  0  0  0  0  0  0  0
  153.7073  139.8521  157.8202 H   0  0  0  0  0  0  0  0  0  0  0  0
  152.8104  138.9063  156.6245 H   0  0  0  0  0  0  0  0  0  0  0  0
  150.7501  139.0468  157.9964 H   0  0  0  0  0  0  0  0  0  0  0  0
  151.6350  139.7653  159.3188 H   0  0  0  0  0  0  0  0  0  0  0  0
  150.9639  140.3848  154.7167 H   0  0  0  0  0  0  0  0  0  0  0  0
  149.9633  139.5714  155.8984 H   0  0  0  0  0  0  0  0  0  0  0  0
  148.0992  140.4482  154.8868 H   0  0  0  0  0  0  0  0  0  0  0  0
  148.6326  142.0622  155.3351 H   0  0  0  0  0  0  0  0  0  0  0  0
  149.1651  140.6323  152.9740 H   0  0  0  0  0  0  0  0  0  0  0  0
  151.2624  145.4437  157.5414 H   0  0  0  0  0  0  0  0  0  0  0  0
  152.3673  145.7260  159.7662 H   0  0  0  0  0  0  0  0  0  0  0  0
  153.0180  143.7676  161.1183 H   0  0  0  0  0  0  0  0  0  0  0  0
  152.6015  141.4471  160.3074 H   0  0  0  0  0  0  0  0  0  0  0  0
  154.2274  140.1670  159.6804 H   0  0  0  0  0  0  0  0  0  0  0  0
  155.0336  140.2042  161.9892 H   0  0  0  0  0  0  0  0  0  0  0  0
  150.3596  143.3531  155.7699 H   0  0  0  0  0  0  0  0  0  0  0  0
  1  2  1  0  0  0  0
  1 24  1  0  0  0  0
  1 25  1  0  0  0  0
  1 26  1  0  0  0  0
  2  3  1  0  0  0  0
  3 23  1  0  0  0  0
  3  4  2  0  0  0  0
  4  5  1  0  0  0  0
  4 27  1  0  0  0  0
  5  6  2  0  0  0  0
  5 28  1  0  0  0  0
  6  7  1  0  0  0  0
  6 22  1  0  0  0  0
  7  8  1  0  0  0  0
  8  9  1  0  0  0  0
  8 29  1  0  0  0  0
  8 30  1  0  0  0  0
  9 10  1  0  0  0  0
  9 31  1  0  0  0  0
  9 32  1  0  0  0  0
 10 21  1  0  0  0  0
 10 11  1  0  0  0  0
 11 12  1  0  0  0  0
 11 15  2  0  0  0  0
 12 13  1  0  0  0  0
 12 33  1  0  0  0  0
 12 34  1  0  0  0  0
 13 14  1  0  0  0  0
 13 35  1  0  0  0  0
 13 36  1  0  0  0  0
 14 37  1  0  0  0  0
 15 16  1  0  0  0  0
 15 44  1  0  0  0  0
 16 21  2  0  0  0  0
 16 17  1  0  0  0  0
 17 18  2  0  0  0  0
 17 38  1  0  0  0  0
 18 19  1  0  0  0  0
 18 39  1  0  0  0  0
 19 20  2  0  0  0  0
 19 40  1  0  0  0  0
 20 21  1  0  0  0  0
 20 41  1  0  0  0  0
 22 23  2  0  0  0  0
 22 42  1  0  0  0  0
 23 43  1  0  0  0  0
M  CHG  1  15   1
M  END
> <s_m_source_file>
AV-unprocessed.smi

> <i_m_source_file_index>
459

> <i_lp_mmshare_version>
43012

> <i_f3d_flags>
0

> <s_epik_input>
W0NIM11PYzFbY0hdW2NIXWMoW2NIXVtjSF0xKU9bQ0gyXVtDSDJdbihjKG4yKVtDSDJdW0NIMl1bT0hdKWMoYzIzKVtjSF1bY0hdW2NIXVtjSF0z

> <s_epik_cmdline>
J2VwaWtfcHl0aG9uJywgJy1waCcsICc3LjAnLCAnLXRuJywgJzgnLCAnLW1hJywgJzIwMCcsICctbWV0YWxfYmluZGluZycsICctaW1hZScsICc8aW5maWxlLm1hZT4nLCAnLW9tYWUnLCAnPG91dGZpbGUubWFlPic=

> <r_lp_tautomer_probability>
1

> <r_epik_Ionization_Penalty>
0.723344

> <r_epik_Ionization_Penalty_Charging>
0.723344

> <r_epik_Ionization_Penalty_Neutral>
5.89567e-08

> <r_epik_State_Penalty>
0.747968

> <r_epik_Charging_Adjusted_Penalty>
1.47131

> <i_epik_Tot_Q>
1

> <i_epik_Tot_abs_Q>
1

> <r_epik_Metal_State_Penalty>
4.64387

> <b_epik_Metal_Only>
0

> <s_lp_Force_Field>
OPLS_2005

> <r_lp_Energy>
25.798

> <b_lp_Chiralities_Consistent>
1

> <s_lp_Variant>
AV-unprocessed.smi:459-2

> <Gold.Version>
5.8.1

> <Gold.Id.Protein>
6NUR|6NUR_protein|mol2

> <Gold.PLP.Fitness>
57.1934

> <Gold.PLP.PLP>
-51.0428

> <Gold.PLP.part.hbond>
-3.9146

> <Gold.PLP.part.metal>
0.0000

> <Gold.PLP.part.buried>
-4.2774

> <Gold.PLP.part.nonpolar>
-42.5113

> <Gold.PLP.part.repulsive>
0.0816

> <Gold.PLP.ligand.clash>
0.0000

> <Gold.PLP.ligand.torsion>
1.4949

> <Gold.PLP.Chemscore.Hbond>
2.9920

> <Gold.PLP.Chemscore.CHOScore>
0.0000

> <Gold.PLP.Chemscore.Metal>
0.0000

> <Gold.Chemscore.Hbonds>
donor molecule, donor type, donor heavy atom, donor atom, acceptor molecule, acceptor atom, score
      L1  H    14    37       P1  7957  0.74
      L1  H    15    44       P1  8028  1.34
      P1  H  8011  8017       L1    14  0.85

> <Gold.PLP.Chemscore.Internal.Correction>
0.1643

> <Gold.Rescore>
     Score         DG    S(hbond)    S(metal)    S(lipo)     H(rot)  DE(clash)    DE(int)     intcor
     19.26     -20.77       1.83        0.00     137.02       2.68       0.13       1.37       ----

> <Gold.Chemscore.Fitness>
19.2588

> <Gold.Chemscore.DG>
-20.7666

> <Gold.Chemscore.ZeroCoef>
-5.4800

> <Gold.Chemscore.Hbond>
1.8341

> <Gold.Chemscore.Metal>
0.0000

> <Gold.Chemscore.Lipo>
137.0231

> <Gold.Chemscore.Internal_Hbond>
0.0000

> <Gold.Chemscore.DEClash>
0.1347

> <Gold.Chemscore.DEInternal>
1.3731

> <Gold.Chemscore.Rot>
2.6840

> <Gold.Chemscore.Internal.Correction>
   9.000000E+99

> <Gold.Chemscore.Hbonds>
donor molecule, donor type, donor heavy atom, donor atom, acceptor molecule, acceptor atom, score
      L1  H    14    37       P1  7957  0.73
      L1  H    15    44       P1  8028  0.65
      P1  H  8011  8017       L1    14  0.19

> <Gold.Chemscore.Hbond.Weighted>
-6.1259

> <Gold.Chemscore.Metal.Weighted>
-0.0000

> <Gold.Chemscore.Lipo.Weighted>
-16.0317

> <Gold.Chemscore.Internal_Hbond.Weighted>
0.0000

> <Gold.Chemscore.DEClash.Weighted>
0.1347

> <Gold.Chemscore.DEInternal.Weighted>
1.3731

> <Gold.Chemscore.Rot.Weighted>
6.8710

> <Gold.Chemscore.Internal.Correction.Weighted>
   9.000000E+99

> <Gold.Protein.RotatedTorsions>
[ 6907 6896 6895 6894 ] final  120.17 input  -60.11 | X-H torsion
[ 7974 7965 7964 7962 ] final  128.64 input  175.53 | X-H torsion
[ 8008 7997 7996 7995 ] final  129.04 input   59.86 | X-H torsion
[ 10167 10162 10161 10158 ] final -164.97 input  -65.29 | X-H torsion
[ 10718 10713 10712 10709 ] final -167.46 input   66.30 | X-H torsion
[ 10763 10752 10751 10750 ] final   27.01 input  -60.55 | X-H torsion
[ 11005 11000 10999 10996 ] final   56.56 input  -57.11 | X-H torsion

> <Gold.Protein.ActiveResidues>
 VAL166  LYS551  ARG553  GLY616  TRP617  ASP618  TYR619  PRO620  LYS621  CYS622 
 ASP623  PHE694  ASN695  SER759  ASP760  ASP761  ALA762  ILE779  LEU786  VAL792 
 PHE793  MET794  SER795  GLU796  ALA797  LYS798  CYS799  TRP800  GLU811  SER814 

> <Gold.Protein.RotatedAtoms>
  152.4418  133.7462  159.6668 H   0  0  0  0  0  0  0  0  0  0  0  0  # atno 6907 bound_to 6896
  150.8310  133.8080  159.3104 H   0  0  0  0  0  0  0  0  0  0  0  0  # atno 6908 bound_to 6896
  151.5734  135.1064  160.0052 H   0  0  0  0  0  0  0  0  0  0  0  0  # atno 6909 bound_to 6896
  145.0373  139.3993  143.5119 H   0  0  0  0  0  0  0  0  0  0  0  0  # atno 7974 bound_to 7965
  156.2928  140.2630  156.2534 H   0  0  0  0  0  0  0  0  0  0  0  0  # atno 8008 bound_to 7997
  154.9860  140.0389  157.2317 H   0  0  0  0  0  0  0  0  0  0  0  0  # atno 8009 bound_to 7997
  154.7729  140.2781  155.6128 H   0  0  0  0  0  0  0  0  0  0  0  0  # atno 8010 bound_to 7997
  139.6214  144.0617  152.1936 H   0  0  0  0  0  0  0  0  0  0  0  0  # atno 10167 bound_to 10162
  156.6827  130.9128  151.3059 H   0  0  0  0  0  0  0  0  0  0  0  0  # atno 10718 bound_to 10713
  153.0584  135.6547  154.0521 H   0  0  0  0  0  0  0  0  0  0  0  0  # atno 10763 bound_to 10752
  154.0195  135.2921  155.3384 H   0  0  0  0  0  0  0  0  0  0  0  0  # atno 10764 bound_to 10752
  154.6911  135.5282  153.8461 H   0  0  0  0  0  0  0  0  0  0  0  0  # atno 10765 bound_to 10752
  140.0519  134.5724  155.9253 H   0  0  0  0  0  0  0  0  0  0  0  0  # atno 11005 bound_to 11000
  146.3505  139.9956  142.8681 LP  0  0  0  0  0  0  0  0  0  0  0  0  # atno 17320 bound_to 7965
  145.1692  140.9712  143.4331 LP  0  0  0  0  0  0  0  0  0  0  0  0  # atno 17321 bound_to 7965
  140.0260  144.6117  150.7527 LP  0  0  0  0  0  0  0  0  0  0  0  0  # atno 17342 bound_to 10162
  140.7384  143.2778  151.3689 LP  0  0  0  0  0  0  0  0  0  0  0  0  # atno 17343 bound_to 10162
  157.7038  130.9362  150.0865 LP  0  0  0  0  0  0  0  0  0  0  0  0  # atno 17370 bound_to 10713
  156.1855  130.3652  149.8978 LP  0  0  0  0  0  0  0  0  0  0  0  0  # atno 17371 bound_to 10713
  141.1934  133.6579  156.5548 LP  0  0  0  0  0  0  0  0  0  0  0  0  # atno 17394 bound_to 11000
  140.3903  134.7446  157.4717 LP  0  0  0  0  0  0  0  0  0  0  0  0  # atno 17395 bound_to 11000

$$$$
