AV-unprocessed.smi:110|AV-procd|sdf|1071|dock1
  -GOLD-   2262018153D 1   1.00000     0.00000
 Structure written by MMmdl.
 46 50  0  0  0  0  0  0  0  0  1 V2000
  149.8633  138.7161  153.4849 O   0  0  0  0  0  0  0  0  0  0  0  0
  150.8746  138.6405  154.4666 C   0  0  0  0  0  0  0  0  0  0  0  0
  151.3007  137.1668  154.6686 C   0  0  1  0  0  0  0  0  0  0  0  0
  152.3368  137.0758  155.6416 O   0  0  0  0  0  0  0  0  0  0  0  0
  151.8146  136.9789  156.9355 C   0  0  1  0  0  0  0  0  0  0  0  0
  151.9173  138.3237  157.6019 N   0  0  0  0  0  0  0  0  0  0  0  0
  151.1909  139.4683  157.3452 C   0  0  0  0  0  0  0  0  0  0  0  0
  151.4702  140.4931  158.1023 N   0  0  0  0  0  0  0  0  0  0  0  0
  152.4344  140.0170  158.9809 C   0  0  0  0  0  0  0  0  0  0  0  0
  153.1608  140.5835  160.0674 C   0  0  0  0  0  0  0  0  0  0  0  0
  153.0463  141.8664  160.4827 N   0  0  0  0  0  0  0  0  0  0  0  0
  153.1146  142.1692  161.9193 C   0  0  0  0  0  0  0  0  0  0  0  0
  152.5303  143.5797  162.1248 C   0  0  0  0  0  0  0  0  0  0  0  0
  152.2707  143.9907  160.7111 C   0  0  0  0  0  0  0  0  0  0  0  0
  151.7880  145.2313  160.2596 C   0  0  0  0  0  0  0  0  0  0  0  0
  151.6383  145.4205  158.8691 C   0  0  0  0  0  0  0  0  0  0  0  0
  151.9785  144.3863  157.9664 C   0  0  0  0  0  0  0  0  0  0  0  0
  152.4638  143.1487  158.4430 C   0  0  0  0  0  0  0  0  0  0  0  0
  152.5895  142.9585  159.8346 C   0  0  0  0  0  0  0  0  0  0  0  0
  153.9868  139.7653  160.7671 N   0  0  0  0  0  0  0  0  0  0  0  0
  154.1273  138.4875  160.4066 C   0  0  0  0  0  0  0  0  0  0  0  0
  153.5389  137.8359  159.4027 N   0  0  0  0  0  0  0  0  0  0  0  0
  152.6898  138.6440  158.7031 C   0  0  0  0  0  0  0  0  0  0  0  0
  150.3458  136.5270  156.7815 C   0  0  2  0  0  0  0  0  0  0  0  0
  150.0802  135.3473  157.5127 O   0  0  0  0  0  0  0  0  0  0  0  0
  150.2410  136.2458  155.2871 C   0  0  1  0  0  0  0  0  0  0  0  0
  148.9379  136.4921  154.7955 O   0  0  0  0  0  0  0  0  0  0  0  0
  151.6415  136.7542  153.7180 H   0  0  0  0  0  0  0  0  0  0  0  0
  152.4308  136.3251  157.5538 H   0  0  0  0  0  0  0  0  0  0  0  0
  149.6575  137.3237  157.0636 H   0  0  0  0  0  0  0  0  0  0  0  0
  150.5149  135.2106  155.0756 H   0  0  0  0  0  0  0  0  0  0  0  0
  150.0570  139.4397  152.9086 H   0  0  0  0  0  0  0  0  0  0  0  0
  151.7065  139.2902  154.2004 H   0  0  0  0  0  0  0  0  0  0  0  0
  150.4447  139.0435  155.3831 H   0  0  0  0  0  0  0  0  0  0  0  0
  150.4408  139.5305  156.5706 H   0  0  0  0  0  0  0  0  0  0  0  0
  152.5594  141.4286  162.4967 H   0  0  0  0  0  0  0  0  0  0  0  0
  154.1548  142.1356  162.2457 H   0  0  0  0  0  0  0  0  0  0  0  0
  151.5996  143.5582  162.6924 H   0  0  0  0  0  0  0  0  0  0  0  0
  153.2365  144.2539  162.6096 H   0  0  0  0  0  0  0  0  0  0  0  0
  151.5439  146.0193  160.9562 H   0  0  0  0  0  0  0  0  0  0  0  0
  151.2703  146.3632  158.4919 H   0  0  0  0  0  0  0  0  0  0  0  0
  151.8710  144.5456  156.9037 H   0  0  0  0  0  0  0  0  0  0  0  0
  152.7362  142.3694  157.7470 H   0  0  0  0  0  0  0  0  0  0  0  0
  154.8097  137.9036  161.0062 H   0  0  0  0  0  0  0  0  0  0  0  0
  150.0670  134.6178  156.9121 H   0  0  0  0  0  0  0  0  0  0  0  0
  148.9460  136.3705  153.8582 H   0  0  0  0  0  0  0  0  0  0  0  0
  1  2  1  0  0  0  0
  1 32  1  0  0  0  0
  2  3  1  0  0  0  0
  2 33  1  0  0  0  0
  2 34  1  0  0  0  0
  3 28  1  0  0  0  0
  3 26  1  0  0  0  0
  3  4  1  0  0  0  0
  4  5  1  0  0  0  0
  5 29  1  0  0  0  0
  5  6  1  0  0  0  0
  5 24  1  0  0  0  0
  6 23  1  0  0  0  0
  6  7  1  0  0  0  0
  7  8  2  0  0  0  0
  7 35  1  0  0  0  0
  8  9  1  0  0  0  0
  9 23  2  0  0  0  0
  9 10  1  0  0  0  0
 10 11  1  0  0  0  0
 10 20  2  0  0  0  0
 11 19  1  0  0  0  0
 11 12  1  0  0  0  0
 12 13  1  0  0  0  0
 12 36  1  0  0  0  0
 12 37  1  0  0  0  0
 13 14  1  0  0  0  0
 13 38  1  0  0  0  0
 13 39  1  0  0  0  0
 14 19  2  0  0  0  0
 14 15  1  0  0  0  0
 15 16  2  0  0  0  0
 15 40  1  0  0  0  0
 16 17  1  0  0  0  0
 16 41  1  0  0  0  0
 17 18  2  0  0  0  0
 17 42  1  0  0  0  0
 18 19  1  0  0  0  0
 18 43  1  0  0  0  0
 20 21  1  0  0  0  0
 21 22  2  0  0  0  0
 21 44  1  0  0  0  0
 22 23  1  0  0  0  0
 24 30  1  0  0  0  0
 24 25  1  0  0  0  0
 24 26  1  0  0  0  0
 25 45  1  0  0  0  0
 26 31  1  0  0  0  0
 26 27  1  0  0  0  0
 27 46  1  0  0  0  0
M  END
> <s_m_source_file>
AV-unprocessed.smi

> <i_m_source_file_index>
110

> <i_lp_mmshare_version>
43012

> <i_f3d_flags>
0

> <s_epik_input>
W09IXVtDSDJdW0NASF0xT1tDQEhdKFtDQEhdKFtPSF0pW0NAQEhdMVtPSF0pbihbY0hdbjIpYyhjMjMpbltjSF1uYzNOKFtDSDJdW0NIMl00KWMoYzQ1KVtjSF1bY0hdW2NIXVtjSF01

> <s_epik_cmdline>
J2VwaWtfcHl0aG9uJywgJy1waCcsICc3LjAnLCAnLXRuJywgJzgnLCAnLW1hJywgJzIwMCcsICctbWV0YWxfYmluZGluZycsICctaW1hZScsICc8aW5maWxlLm1hZT4nLCAnLW9tYWUnLCAnPG91dGZpbGUubWFlPic=

> <r_lp_tautomer_probability>
1

> <r_epik_Ionization_Penalty>
0.00068475

> <r_epik_Ionization_Penalty_Charging>
0

> <r_epik_Ionization_Penalty_Neutral>
0.00068475

> <r_epik_State_Penalty>
0.000417442

> <r_epik_Charging_Adjusted_Penalty>
0.000417442

> <i_epik_Tot_Q>
0

> <i_epik_Tot_abs_Q>
0

> <r_epik_Metal_State_Penalty>
-0

> <b_epik_Metal_Only>
0

> <s_epik_Chemistry_Notes>
This compound contains an acetal/aminal-like group ( X-CH(R)-Y where X, Y are N, S, or O) that may be acid/base labile, releasing an aldehyde.

> <s_lp_Force_Field>
OPLS_2005

> <r_lp_Energy>
59.87

> <b_lp_Chiralities_Consistent>
1

> <s_lp_Variant>
AV-unprocessed.smi:110-9

> <Gold.Version>
5.8.1

> <Gold.Id.Protein>
6NUR|6NUR_protein|mol2

> <Gold.PLP.Fitness>
66.7679

> <Gold.PLP.PLP>
-58.6018

> <Gold.PLP.part.hbond>
-4.9290

> <Gold.PLP.part.metal>
0.0000

> <Gold.PLP.part.buried>
-7.7105

> <Gold.PLP.part.nonpolar>
-46.9127

> <Gold.PLP.part.repulsive>
0.0275

> <Gold.PLP.ligand.clash>
0.0000

> <Gold.PLP.ligand.torsion>
0.5467

> <Gold.PLP.Chemscore.Hbond>
3.0403

> <Gold.PLP.Chemscore.CHOScore>
0.0000

> <Gold.PLP.Chemscore.Metal>
0.0000

> <Gold.Chemscore.Hbonds>
donor molecule, donor type, donor heavy atom, donor atom, acceptor molecule, acceptor atom, score
      L1  H     1    32       P1  7957  0.78
      L1  H    27    46       P1  7948  1.00
      P1  H  6896  6908       L1    25  0.38
      P1  H 10752 10765       L1     4  0.77

> <Gold.PLP.Chemscore.Internal.Correction>
0.1386

> <Gold.Rescore>
     Score         DG    S(hbond)    S(metal)    S(lipo)     H(rot)  DE(clash)    DE(int)     intcor
     17.79     -20.74       2.88        0.00     122.34       3.38       0.07       2.88       ----

> <Gold.Chemscore.Fitness>
17.7918

> <Gold.Chemscore.DG>
-20.7405

> <Gold.Chemscore.ZeroCoef>
-5.4800

> <Gold.Chemscore.Hbond>
2.8769

> <Gold.Chemscore.Metal>
0.0000

> <Gold.Chemscore.Lipo>
122.3396

> <Gold.Chemscore.Internal_Hbond>
0.0000

> <Gold.Chemscore.DEClash>
0.0672

> <Gold.Chemscore.DEInternal>
2.8815

> <Gold.Chemscore.Rot>
3.3837

> <Gold.Chemscore.Internal.Correction>
   9.000000E+99

> <Gold.Chemscore.Hbonds>
donor molecule, donor type, donor heavy atom, donor atom, acceptor molecule, acceptor atom, score
      L1  H     1    32       P1  7957  0.75
      L1  H    27    46       P1  7948  0.97
      P1  H  6896  6908       L1    25  0.15
      P1  H 10752 10765       L1     4  0.17

> <Gold.Chemscore.Hbond.Weighted>
-9.6089

> <Gold.Chemscore.Metal.Weighted>
-0.0000

> <Gold.Chemscore.Lipo.Weighted>
-14.3137

> <Gold.Chemscore.Internal_Hbond.Weighted>
0.0000

> <Gold.Chemscore.DEClash.Weighted>
0.0672

> <Gold.Chemscore.DEInternal.Weighted>
2.8815

> <Gold.Chemscore.Rot.Weighted>
8.6622

> <Gold.Chemscore.Internal.Correction.Weighted>
   9.000000E+99

> <Gold.Protein.RotatedTorsions>
[ 6907 6896 6895 6894 ] final  157.14 input  -60.11 | X-H torsion
[ 7974 7965 7964 7962 ] final  104.78 input  175.53 | X-H torsion
[ 8008 7997 7996 7995 ] final  -83.37 input   59.86 | X-H torsion
[ 10167 10162 10161 10158 ] final  162.94 input  -65.29 | X-H torsion
[ 10718 10713 10712 10709 ] final  -95.38 input   66.30 | X-H torsion
[ 10763 10752 10751 10750 ] final -148.28 input  -60.55 | X-H torsion
[ 11005 11000 10999 10996 ] final -148.68 input  -57.11 | X-H torsion

> <Gold.Protein.ActiveResidues>
 VAL166  LYS551  ARG553  GLY616  TRP617  ASP618  TYR619  PRO620  LYS621  CYS622 
 ASP623  PHE694  ASN695  SER759  ASP760  ASP761  ALA762  ILE779  LEU786  VAL792 
 PHE793  MET794  SER795  GLU796  ALA797  LYS798  CYS799  TRP800  GLU811  SER814 

> <Gold.Protein.RotatedAtoms>
  152.0194  133.3892  159.4251 H   0  0  0  0  0  0  0  0  0  0  0  0  # atno 6907 bound_to 6896
  150.6891  134.3643  159.4973 H   0  0  0  0  0  0  0  0  0  0  0  0  # atno 6908 bound_to 6896
  152.1414  134.9059  160.0604 H   0  0  0  0  0  0  0  0  0  0  0  0  # atno 6909 bound_to 6896
  145.3283  139.2493  143.3674 H   0  0  0  0  0  0  0  0  0  0  0  0  # atno 7974 bound_to 7965
  154.6184  140.0620  156.9584 H   0  0  0  0  0  0  0  0  0  0  0  0  # atno 8008 bound_to 7997
  155.1857  140.3303  155.4349 H   0  0  0  0  0  0  0  0  0  0  0  0  # atno 8009 bound_to 7997
  156.2417  140.1890  156.6951 H   0  0  0  0  0  0  0  0  0  0  0  0  # atno 8010 bound_to 7997
  139.4867  144.4387  151.8979 H   0  0  0  0  0  0  0  0  0  0  0  0  # atno 10167 bound_to 10162
  156.0042  130.5106  150.6067 H   0  0  0  0  0  0  0  0  0  0  0  0  # atno 10718 bound_to 10713
  154.8241  135.3338  154.6949 H   0  0  0  0  0  0  0  0  0  0  0  0  # atno 10763 bound_to 10752
  153.7578  135.6935  153.4936 H   0  0  0  0  0  0  0  0  0  0  0  0  # atno 10764 bound_to 10752
  153.2132  135.4475  155.0353 H   0  0  0  0  0  0  0  0  0  0  0  0  # atno 10765 bound_to 10752
  140.7587  134.3323  157.5107 H   0  0  0  0  0  0  0  0  0  0  0  0  # atno 11005 bound_to 11000
  146.3055  140.3855  142.8688 LP  0  0  0  0  0  0  0  0  0  0  0  0  # atno 17320 bound_to 7965
  144.8884  140.7492  143.5942 LP  0  0  0  0  0  0  0  0  0  0  0  0  # atno 17321 bound_to 7965
  140.3838  144.2703  150.5906 LP  0  0  0  0  0  0  0  0  0  0  0  0  # atno 17342 bound_to 10162
  140.5209  143.2266  151.8390 LP  0  0  0  0  0  0  0  0  0  0  0  0  # atno 17343 bound_to 10162
  157.3907  131.0795  151.1396 LP  0  0  0  0  0  0  0  0  0  0  0  0  # atno 17370 bound_to 10713
  157.2089  130.6429  149.5766 LP  0  0  0  0  0  0  0  0  0  0  0  0  # atno 17371 bound_to 10713
  139.8774  134.9188  156.3212 LP  0  0  0  0  0  0  0  0  0  0  0  0  # atno 17394 bound_to 11000
  140.9683  133.7344  156.0498 LP  0  0  0  0  0  0  0  0  0  0  0  0  # atno 17395 bound_to 11000

$$$$
