AV-unprocessed.smi:2775|AV-procd|sdf|10702|dock5
  -GOLD-   2272015143D 1   1.00000     0.00000
 Structure written by MMmdl.
 43 46  0  0  0  0  0  0  0  0  2 V2000
  146.8842  139.6937  152.6752 C   0  0  0  0  0  0  0  0  0  0  0  0
  148.1481  139.7258  153.5126 C   0  0  0  0  0  0  0  0  0  0  0  0
  148.9371  138.6292  153.5019 N   0  3  0  0  0  0  0  0  0  0  0  0
  150.0807  138.5399  154.2116 C   0  0  0  0  0  0  0  0  0  0  0  0
  150.5013  139.6231  155.0075 C   0  0  0  0  0  0  0  0  0  0  0  0
  149.7171  140.8047  155.0481 C   0  0  0  0  0  0  0  0  0  0  0  0
  150.0457  141.9501  155.8268 N   0  0  0  0  0  0  0  0  0  0  0  0
  150.8740  142.0767  156.8813 C   0  0  0  0  0  0  0  0  0  0  0  0
  151.5738  141.1782  157.3417 O   0  0  0  0  0  0  0  0  0  0  0  0
  150.8963  143.3142  157.4053 N   0  0  0  0  0  0  0  0  0  0  0  0
  151.6824  143.7835  158.5464 C   0  0  2  0  0  0  0  0  0  0  0  0
  152.0125  142.6557  159.5262 C   0  0  1  0  0  0  0  0  0  0  0  0
  153.2594  141.9358  159.8936 C   0  0  0  0  0  0  0  0  0  0  0  0
  153.0571  141.9416  161.4304 C   0  0  0  0  0  0  0  0  0  0  0  0
  151.9285  142.8153  161.6766 O   0  0  0  0  0  0  0  0  0  0  0  0
  151.9522  143.7316  160.5988 C   0  0  2  0  0  0  0  0  0  0  0  0
  150.8262  144.3255  159.7396 C   0  0  0  0  0  0  0  0  0  0  0  0
  149.3495  143.9666  159.9899 C   0  0  0  0  0  0  0  0  0  0  0  0
  149.1839  145.3467  160.6345 C   0  0  0  0  0  0  0  0  0  0  0  0
  150.4376  145.8027  159.8797 C   0  0  0  0  0  0  0  0  0  0  0  0
  148.5184  140.8464  154.2928 C   0  0  0  0  0  0  0  0  0  0  0  0
  147.5100  142.2550  154.3211 Cl  0  0  0  0  0  0  0  0  0  0  0  0
  146.9039  140.4869  151.9270 H   0  0  0  0  0  0  0  0  0  0  0  0
  146.0068  139.8371  153.3066 H   0  0  0  0  0  0  0  0  0  0  0  0
  146.7744  138.7407  152.1558 H   0  0  0  0  0  0  0  0  0  0  0  0
  150.6201  137.6077  154.1263 H   0  0  0  0  0  0  0  0  0  0  0  0
  151.4125  139.5133  155.5735 H   0  0  0  0  0  0  0  0  0  0  0  0
  149.5875  142.8023  155.5378 H   0  0  0  0  0  0  0  0  0  0  0  0
  150.3124  144.0067  156.9582 H   0  0  0  0  0  0  0  0  0  0  0  0
  152.5477  144.4017  158.2919 H   0  0  0  0  0  0  0  0  0  0  0  0
  151.1625  141.9658  159.5896 H   0  0  0  0  0  0  0  0  0  0  0  0
  153.3058  140.9283  159.4796 H   0  0  0  0  0  0  0  0  0  0  0  0
  154.1521  142.4876  159.5965 H   0  0  0  0  0  0  0  0  0  0  0  0
  152.8413  140.9456  161.8182 H   0  0  0  0  0  0  0  0  0  0  0  0
  153.9470  142.3174  161.9371 H   0  0  0  0  0  0  0  0  0  0  0  0
  152.8388  144.3736  160.6321 H   0  0  0  0  0  0  0  0  0  0  0  0
  148.7661  143.8640  159.0741 H   0  0  0  0  0  0  0  0  0  0  0  0
  149.1871  143.1286  160.6683 H   0  0  0  0  0  0  0  0  0  0  0  0
  148.2689  145.8720  160.3592 H   0  0  0  0  0  0  0  0  0  0  0  0
  149.3285  145.3248  161.7158 H   0  0  0  0  0  0  0  0  0  0  0  0
  151.1298  146.4044  160.4692 H   0  0  0  0  0  0  0  0  0  0  0  0
  150.1994  146.2790  158.9288 H   0  0  0  0  0  0  0  0  0  0  0  0
  148.6531  137.8302  152.9343 H   0  0  0  0  0  0  0  0  0  0  0  0
  1  2  1  0  0  0  0
  1 23  1  0  0  0  0
  1 24  1  0  0  0  0
  1 25  1  0  0  0  0
  2 21  1  0  0  0  0
  2  3  2  0  0  0  0
  3  4  1  0  0  0  0
  3 43  1  0  0  0  0
  4  5  2  0  0  0  0
  4 26  1  0  0  0  0
  5  6  1  0  0  0  0
  5 27  1  0  0  0  0
  6  7  1  0  0  0  0
  6 21  2  0  0  0  0
  7  8  1  0  0  0  0
  7 28  1  0  0  0  0
  8  9  2  0  0  0  0
  8 10  1  0  0  0  0
 10 11  1  0  0  0  0
 10 29  1  0  0  0  0
 11 17  1  0  0  0  0
 11 12  1  0  0  0  0
 11 30  1  0  0  0  0
 12 16  1  0  0  0  0
 12 13  1  0  0  0  0
 12 31  1  0  0  0  0
 13 14  1  0  0  0  0
 13 32  1  0  0  0  0
 13 33  1  0  0  0  0
 14 15  1  0  0  0  0
 14 34  1  0  0  0  0
 14 35  1  0  0  0  0
 15 16  1  0  0  0  0
 16 17  1  0  0  0  0
 16 36  1  0  0  0  0
 17 20  1  0  0  0  0
 17 18  1  0  0  0  0
 18 19  1  0  0  0  0
 18 37  1  0  0  0  0
 18 38  1  0  0  0  0
 19 20  1  0  0  0  0
 19 39  1  0  0  0  0
 19 40  1  0  0  0  0
 20 41  1  0  0  0  0
 20 42  1  0  0  0  0
 21 22  1  0  0  0  0
M  CHG  1   3   1
M  END
> <s_m_source_file>
AV-unprocessed.smi

> <i_m_source_file_index>
2775

> <i_lp_mmshare_version>
43012

> <i_f3d_flags>
0

> <s_epik_input>
W0NIM11jMW5bY0hdW2NIXWMoYzFDbClbTkhdQyg9TylbTkhdW0NAQEhdMltDQEhdKFtDSDJdW0NIMl1PMylbQ0BASF0zQzI0W0NIMl1bQ0gyXVtDSDJdNA==

> <s_epik_cmdline>
J2VwaWtfcHl0aG9uJywgJy1waCcsICc3LjAnLCAnLXRuJywgJzgnLCAnLW1hJywgJzIwMCcsICctbWV0YWxfYmluZGluZycsICctaW1hZScsICc8aW5maWxlLm1hZT4nLCAnLW9tYWUnLCAnPG91dGZpbGUubWFlPic=

> <r_epik_Ionization_Penalty>
2.4104

> <r_epik_Ionization_Penalty_Charging>
2.41038

> <r_epik_Ionization_Penalty_Neutral>
1.9872e-05

> <r_epik_State_Penalty>
2.56896

> <r_epik_Charging_Adjusted_Penalty>
4.97934

> <i_epik_Tot_Q>
1

> <i_epik_Tot_abs_Q>
1

> <r_epik_Metal_State_Penalty>
2.57906

> <b_epik_Metal_Only>
0

> <s_lp_Force_Field>
OPLS_2005

> <r_lp_Energy>
84.5881

> <b_lp_Chiralities_Consistent>
1

> <s_lp_Variant>
AV-unprocessed.smi:2775-15

> <Gold.Version>
5.8.1

> <Gold.Id.Protein>
6NUR|6NUR_protein|mol2

> <Gold.PLP.Fitness>
54.2341

> <Gold.PLP.PLP>
-43.9224

> <Gold.PLP.part.hbond>
-5.0000

> <Gold.PLP.part.metal>
0.0000

> <Gold.PLP.part.buried>
5.9794

> <Gold.PLP.part.nonpolar>
-45.3402

> <Gold.PLP.part.repulsive>
0.3493

> <Gold.PLP.ligand.clash>
2.7439

> <Gold.PLP.ligand.torsion>
0.2643

> <Gold.PLP.Chemscore.Hbond>
4.4212

> <Gold.PLP.Chemscore.CHOScore>
0.0000

> <Gold.PLP.Chemscore.Metal>
0.0000

> <Gold.Chemscore.Hbonds>
donor molecule, donor type, donor heavy atom, donor atom, acceptor molecule, acceptor atom, score
      L1  H     3    43       P1  7948  2.00
      L1  H     7    28       P1  8028  0.98
      L1  H    10    29       P1  8028  0.99
      P1  H  6933  6945       L1    15  0.37

> <Gold.PLP.Chemscore.Internal.Correction>
0.3206

> <Gold.Rescore>
     Score         DG    S(hbond)    S(metal)    S(lipo)     H(rot)  DE(clash)    DE(int)     intcor
     22.82     -28.31       2.99        0.00     131.72       1.00       2.76       2.72       ----

> <Gold.Chemscore.Fitness>
22.8182

> <Gold.Chemscore.DG>
-28.3067

> <Gold.Chemscore.ZeroCoef>
-5.4800

> <Gold.Chemscore.Hbond>
2.9866

> <Gold.Chemscore.Metal>
0.0000

> <Gold.Chemscore.Lipo>
131.7211

> <Gold.Chemscore.Internal_Hbond>
0.0000

> <Gold.Chemscore.DEClash>
2.7644

> <Gold.Chemscore.DEInternal>
2.7242

> <Gold.Chemscore.Rot>
1.0000

> <Gold.Chemscore.Internal.Correction>
   9.000000E+99

> <Gold.Chemscore.Hbonds>
donor molecule, donor type, donor heavy atom, donor atom, acceptor molecule, acceptor atom, score
      L1  H     3    43       P1  7948  0.97
      L1  H     7    28       P1  8028  0.91
      L1  H    10    29       P1  8028  0.90
      P1  H  6933  6945       L1    15  0.33

> <Gold.Chemscore.Hbond.Weighted>
-9.9754

> <Gold.Chemscore.Metal.Weighted>
-0.0000

> <Gold.Chemscore.Lipo.Weighted>
-15.4114

> <Gold.Chemscore.Internal_Hbond.Weighted>
0.0000

> <Gold.Chemscore.DEClash.Weighted>
2.7644

> <Gold.Chemscore.DEInternal.Weighted>
2.7242

> <Gold.Chemscore.Rot.Weighted>
2.5600

> <Gold.Chemscore.Internal.Correction.Weighted>
   9.000000E+99

> <Gold.Protein.RotatedTorsions>
[ 6907 6896 6895 6894 ] final  -99.88 input  -60.11 | X-H torsion
[ 7974 7965 7964 7962 ] final -125.99 input  175.53 | X-H torsion
[ 8008 7997 7996 7995 ] final  106.17 input   59.86 | X-H torsion
[ 10167 10162 10161 10158 ] final -172.51 input  -65.29 | X-H torsion
[ 10718 10713 10712 10709 ] final  179.89 input   66.30 | X-H torsion
[ 10763 10752 10751 10750 ] final   47.90 input  -60.55 | X-H torsion
[ 11005 11000 10999 10996 ] final -148.39 input  -57.11 | X-H torsion

> <Gold.Protein.ActiveResidues>
 VAL166  LYS551  ARG553  GLY616  TRP617  ASP618  TYR619  PRO620  LYS621  CYS622 
 ASP623  PHE694  ASN695  SER759  ASP760  ASP761  ALA762  ILE779  LEU786  VAL792 
 PHE793  MET794  SER795  GLU796  ALA797  LYS798  CYS799  TRP800  GLU811  SER814 

> <Gold.Protein.RotatedAtoms>
  150.7095  134.0973  159.3952 H   0  0  0  0  0  0  0  0  0  0  0  0  # atno 6907 bound_to 6896
  151.8959  135.0395  160.0511 H   0  0  0  0  0  0  0  0  0  0  0  0  # atno 6908 bound_to 6896
  152.2453  133.5134  159.5330 H   0  0  0  0  0  0  0  0  0  0  0  0  # atno 6909 bound_to 6896
  144.9919  140.7740  143.4549 H   0  0  0  0  0  0  0  0  0  0  0  0  # atno 7974 bound_to 7965
  156.1720  140.3117  155.8991 H   0  0  0  0  0  0  0  0  0  0  0  0  # atno 8008 bound_to 7997
  155.3566  140.0474  157.3063 H   0  0  0  0  0  0  0  0  0  0  0  0  # atno 8009 bound_to 7997
  154.5251  140.2211  155.8915 H   0  0  0  0  0  0  0  0  0  0  0  0  # atno 8010 bound_to 7997
  139.5740  144.1574  152.1425 H   0  0  0  0  0  0  0  0  0  0  0  0  # atno 10167 bound_to 10162
  156.8690  130.9777  151.3075 H   0  0  0  0  0  0  0  0  0  0  0  0  # atno 10718 bound_to 10713
  152.9796  135.5961  154.3839 H   0  0  0  0  0  0  0  0  0  0  0  0  # atno 10763 bound_to 10752
  154.3501  135.2767  155.2379 H   0  0  0  0  0  0  0  0  0  0  0  0  # atno 10764 bound_to 10752
  154.4422  135.6010  153.6192 H   0  0  0  0  0  0  0  0  0  0  0  0  # atno 10765 bound_to 10752
  140.7617  134.3291  157.5100 H   0  0  0  0  0  0  0  0  0  0  0  0  # atno 11005 bound_to 11000
  145.2274  139.2131  143.5061 LP  0  0  0  0  0  0  0  0  0  0  0  0  # atno 17320 bound_to 7965
  146.3433  140.2144  142.8590 LP  0  0  0  0  0  0  0  0  0  0  0  0  # atno 17321 bound_to 7965
  140.1113  144.5454  150.6923 LP  0  0  0  0  0  0  0  0  0  0  0  0  # atno 17342 bound_to 10162
  140.7024  143.2444  151.4826 LP  0  0  0  0  0  0  0  0  0  0  0  0  # atno 17343 bound_to 10162
  157.6206  130.8652  149.9103 LP  0  0  0  0  0  0  0  0  0  0  0  0  # atno 17370 bound_to 10713
  156.0736  130.3682  150.0724 LP  0  0  0  0  0  0  0  0  0  0  0  0  # atno 17371 bound_to 10713
  139.8770  134.9206  156.3255 LP  0  0  0  0  0  0  0  0  0  0  0  0  # atno 17394 bound_to 11000
  140.9657  133.7360  156.0463 LP  0  0  0  0  0  0  0  0  0  0  0  0  # atno 17395 bound_to 11000

$$$$
