AV-unprocessed.smi:283|AV-procd|sdf|2151|dock5
  -GOLD-   2262021493D 1   1.00000     0.00000
 Structure written by MMmdl.
 48 51  0  0  0  0  0  0  0  0  1 V2000
  152.7125  139.7920  158.9919 C   0  0  0  0  0  0  0  0  0  0  0  0
  151.7003  140.6046  158.1639 C   0  0  2  0  0  0  0  0  0  0  0  0
  151.9606  140.4757  156.7304 N   0  0  0  0  0  0  0  0  0  0  0  0
  151.7290  139.3233  156.0630 C   0  0  0  0  0  0  0  0  0  0  0  0
  152.0238  139.1978  154.7430 N   0  0  0  0  0  0  0  0  0  0  0  0
  151.7839  138.0453  154.1118 C   0  0  0  0  0  0  0  0  0  0  0  0
  151.2697  136.9164  154.6040 N   0  0  0  0  0  0  0  0  0  0  0  0
  150.9783  137.0313  155.9321 C   0  0  0  0  0  0  0  0  0  0  0  0
  151.1782  138.1960  156.7256 C   0  0  0  0  0  0  0  0  0  0  0  0
  150.7695  137.9537  158.0297 N   0  0  0  0  0  0  0  0  0  0  0  0
  150.3523  136.7169  158.0040 C   0  0  0  0  0  0  0  0  0  0  0  0
  150.4460  136.0824  156.7846 N   0  0  0  0  0  0  0  0  0  0  0  0
  150.0258  134.6800  156.4674 C   0  0  1  0  0  0  0  0  0  0  0  0
  149.5463  134.0937  157.6423 O   0  0  0  0  0  0  0  0  0  0  0  0
  148.1733  133.7384  157.5015 C   0  0  2  0  0  0  0  0  0  0  0  0
  147.8218  132.5436  158.4062 C   0  0  0  0  0  0  0  0  0  0  0  0
  147.9591  132.8991  159.7657 O   0  0  0  0  0  0  0  0  0  0  0  0
  147.9863  133.5527  155.9895 C   0  0  2  0  0  0  0  0  0  0  0  0
  148.3819  132.2487  155.5915 O   0  0  0  0  0  0  0  0  0  0  0  0
  148.8975  134.6384  155.4242 C   0  0  2  0  0  0  0  0  0  0  0  0
  149.3455  134.3146  154.1219 O   0  0  0  0  0  0  0  0  0  0  0  0
  151.6973  142.0595  158.6303 C   0  0  0  0  0  0  0  0  0  0  0  0
  152.8262  142.5889  159.2994 C   0  0  0  0  0  0  0  0  0  0  0  0
  152.8377  143.9243  159.7441 C   0  0  0  0  0  0  0  0  0  0  0  0
  151.7166  144.7458  159.5303 C   0  0  0  0  0  0  0  0  0  0  0  0
  150.5835  144.2276  158.8773 C   0  0  0  0  0  0  0  0  0  0  0  0
  150.5657  142.8908  158.4304 C   0  0  0  0  0  0  0  0  0  0  0  0
  149.1374  142.3054  157.6505 Cl  0  0  0  0  0  0  0  0  0  0  0  0
  150.9358  134.1692  156.1499 H   0  0  0  0  0  0  0  0  0  0  0  0
  147.5797  134.5956  157.8182 H   0  0  0  0  0  0  0  0  0  0  0  0
  146.9484  133.7011  155.6889 H   0  0  0  0  0  0  0  0  0  0  0  0
  148.3683  135.5912  155.4046 H   0  0  0  0  0  0  0  0  0  0  0  0
  152.4817  139.8517  160.0559 H   0  0  0  0  0  0  0  0  0  0  0  0
  153.7276  140.1650  158.8522 H   0  0  0  0  0  0  0  0  0  0  0  0
  152.7078  138.7366  158.7205 H   0  0  0  0  0  0  0  0  0  0  0  0
  150.7033  140.2020  158.3389 H   0  0  0  0  0  0  0  0  0  0  0  0
  152.3571  141.2914  156.2863 H   0  0  0  0  0  0  0  0  0  0  0  0
  152.0415  138.0243  153.0631 H   0  0  0  0  0  0  0  0  0  0  0  0
  149.9611  136.2281  158.8846 H   0  0  0  0  0  0  0  0  0  0  0  0
  146.8108  132.1811  158.2198 H   0  0  0  0  0  0  0  0  0  0  0  0
  148.4966  131.7128  158.1989 H   0  0  0  0  0  0  0  0  0  0  0  0
  147.9286  132.1112  160.2873 H   0  0  0  0  0  0  0  0  0  0  0  0
  148.5718  131.7454  156.3688 H   0  0  0  0  0  0  0  0  0  0  0  0
  149.1127  135.0262  153.5446 H   0  0  0  0  0  0  0  0  0  0  0  0
  153.6941  141.9727  159.4828 H   0  0  0  0  0  0  0  0  0  0  0  0
  153.7064  144.3171  160.2516 H   0  0  0  0  0  0  0  0  0  0  0  0
  151.7236  145.7705  159.8716 H   0  0  0  0  0  0  0  0  0  0  0  0
  149.7213  144.8591  158.7220 H   0  0  0  0  0  0  0  0  0  0  0  0
  1  2  1  0  0  0  0
  1 33  1  0  0  0  0
  1 34  1  0  0  0  0
  1 35  1  0  0  0  0
  2  3  1  0  0  0  0
  2 22  1  0  0  0  0
  2 36  1  0  0  0  0
  3  4  1  0  0  0  0
  3 37  1  0  0  0  0
  4  9  1  0  0  0  0
  4  5  2  0  0  0  0
  5  6  1  0  0  0  0
  6  7  2  0  0  0  0
  6 38  1  0  0  0  0
  7  8  1  0  0  0  0
  8 12  1  0  0  0  0
  8  9  2  0  0  0  0
  9 10  1  0  0  0  0
 10 11  2  0  0  0  0
 11 12  1  0  0  0  0
 11 39  1  0  0  0  0
 12 13  1  0  0  0  0
 13 29  1  0  0  0  0
 13 20  1  0  0  0  0
 13 14  1  0  0  0  0
 14 15  1  0  0  0  0
 15 30  1  0  0  0  0
 15 16  1  0  0  0  0
 15 18  1  0  0  0  0
 16 17  1  0  0  0  0
 16 40  1  0  0  0  0
 16 41  1  0  0  0  0
 17 42  1  0  0  0  0
 18 31  1  0  0  0  0
 18 19  1  0  0  0  0
 18 20  1  0  0  0  0
 19 43  1  0  0  0  0
 20 32  1  0  0  0  0
 20 21  1  0  0  0  0
 21 44  1  0  0  0  0
 22 27  1  0  0  0  0
 22 23  2  0  0  0  0
 23 24  1  0  0  0  0
 23 45  1  0  0  0  0
 24 25  2  0  0  0  0
 24 46  1  0  0  0  0
 25 26  1  0  0  0  0
 25 47  1  0  0  0  0
 26 27  2  0  0  0  0
 26 48  1  0  0  0  0
 27 28  1  0  0  0  0
M  END
> <s_m_source_file>
AV-unprocessed.smi

> <i_m_source_file_index>
283

> <i_lp_mmshare_version>
43012

> <i_f3d_flags>
0

> <s_epik_input>
Q2xjMVtjSF1bY0hdW2NIXVtjSF1jMVtDQEhdKFtDSDNdKVtOSF1jKG5bY0hdbjIpYyhjMjMpbltjSF1uM1tDQEBIXTRPW0NASF0oW0NIMl1bT0hdKVtDQEBIXShbT0hdKVtDQEhdNFtPSF0=

> <s_epik_cmdline>
J2VwaWtfcHl0aG9uJywgJy1waCcsICc3LjAnLCAnLXRuJywgJzgnLCAnLW1hJywgJzIwMCcsICctbWV0YWxfYmluZGluZycsICctaW1hZScsICc8aW5maWxlLm1hZT4nLCAnLW9tYWUnLCAnPG91dGZpbGUubWFlPic=

> <r_lp_tautomer_probability>
1

> <r_epik_Ionization_Penalty>
0.000266407

> <r_epik_Ionization_Penalty_Charging>
0

> <r_epik_Ionization_Penalty_Neutral>
0.000266407

> <r_epik_State_Penalty>
-0

> <r_epik_Charging_Adjusted_Penalty>
0

> <i_epik_Tot_Q>
0

> <i_epik_Tot_abs_Q>
0

> <r_epik_Metal_State_Penalty>
-0

> <b_epik_Metal_Only>
0

> <s_epik_Chemistry_Notes>
This compound contains an acetal/aminal-like group ( X-CH(R)-Y where X, Y are N, S, or O) that may be acid/base labile, releasing an aldehyde.

> <s_lp_Force_Field>
OPLS_2005

> <r_lp_Energy>
49.1948

> <b_lp_Chiralities_Consistent>
1

> <s_lp_Variant>
AV-unprocessed.smi:283-27

> <Gold.Version>
5.8.1

> <Gold.Id.Protein>
6NUR|6NUR_protein|mol2

> <Gold.PLP.Fitness>
49.2683

> <Gold.PLP.PLP>
-38.2344

> <Gold.PLP.part.hbond>
-3.8129

> <Gold.PLP.part.metal>
0.0000

> <Gold.PLP.part.buried>
-6.3504

> <Gold.PLP.part.nonpolar>
-27.9459

> <Gold.PLP.part.repulsive>
0.3772

> <Gold.PLP.ligand.clash>
0.0000

> <Gold.PLP.ligand.torsion>
0.7503

> <Gold.PLP.Chemscore.Hbond>
3.7230

> <Gold.PLP.Chemscore.CHOScore>
0.4235

> <Gold.PLP.Chemscore.Metal>
0.0000

> <Gold.Chemscore.Hbonds>
donor molecule, donor type, donor heavy atom, donor atom, acceptor molecule, acceptor atom, score
      L1  H    21    44       P1  7948  0.98
      P1  H  6896  6907       L1    14  0.91
      P1  H  7989  7998       L1     5  0.74
      P1  H 10752 10764       L1     7  0.83
      L1  C     6    38       P1  7949  0.45

> <Gold.PLP.Chemscore.Internal.Correction>
0.0949

> <Gold.Rescore>
     Score         DG    S(hbond)    S(metal)    S(lipo)     H(rot)  DE(clash)    DE(int)     intcor
      9.73     -13.41       2.19        0.00      95.00       4.10       0.21       3.47       ----

> <Gold.Chemscore.Fitness>
9.7312

> <Gold.Chemscore.DG>
-13.4109

> <Gold.Chemscore.ZeroCoef>
-5.4800

> <Gold.Chemscore.Hbond>
2.1868

> <Gold.Chemscore.Metal>
0.0000

> <Gold.Chemscore.Lipo>
94.9982

> <Gold.Chemscore.Internal_Hbond>
0.0000

> <Gold.Chemscore.DEClash>
0.2104

> <Gold.Chemscore.DEInternal>
3.4693

> <Gold.Chemscore.Rot>
4.0968

> <Gold.Chemscore.Internal.Correction>
   9.000000E+99

> <Gold.Chemscore.Hbonds>
donor molecule, donor type, donor heavy atom, donor atom, acceptor molecule, acceptor atom, score
      L1  H    21    44       P1  7948  0.24
      P1  H  6896  6907       L1    14  0.82
      P1  H  7989  7998       L1     5  0.54
      P1  H 10752 10764       L1     7  0.13

> <Gold.Chemscore.Hbond.Weighted>
-7.3041

> <Gold.Chemscore.Metal.Weighted>
-0.0000

> <Gold.Chemscore.Lipo.Weighted>
-11.1148

> <Gold.Chemscore.Internal_Hbond.Weighted>
0.0000

> <Gold.Chemscore.DEClash.Weighted>
0.2104

> <Gold.Chemscore.DEInternal.Weighted>
3.4693

> <Gold.Chemscore.Rot.Weighted>
10.4879

> <Gold.Chemscore.Internal.Correction.Weighted>
   9.000000E+99

> <Gold.Protein.RotatedTorsions>
[ 6907 6896 6895 6894 ] final -122.11 input  -60.11 | X-H torsion
[ 7974 7965 7964 7962 ] final  -97.94 input  175.53 | X-H torsion
[ 8008 7997 7996 7995 ] final  171.92 input   59.86 | X-H torsion
[ 10167 10162 10161 10158 ] final  -16.87 input  -65.29 | X-H torsion
[ 10718 10713 10712 10709 ] final   46.14 input   66.30 | X-H torsion
[ 10763 10752 10751 10750 ] final  -69.97 input  -60.55 | X-H torsion
[ 11005 11000 10999 10996 ] final   31.78 input  -57.11 | X-H torsion

> <Gold.Protein.ActiveResidues>
 VAL166  LYS551  ARG553  GLY616  TRP617  ASP618  TYR619  PRO620  LYS621  CYS622 
 ASP623  PHE694  ASN695  SER759  ASP760  ASP761  ALA762  ILE779  LEU786  VAL792 
 PHE793  MET794  SER795  GLU796  ALA797  LYS798  CYS799  TRP800  GLU811  SER814 

> <Gold.Protein.RotatedAtoms>
  150.8546  133.7735  159.3013 H   0  0  0  0  0  0  0  0  0  0  0  0  # atno 6907 bound_to 6896
  151.5397  135.1067  159.9933 H   0  0  0  0  0  0  0  0  0  0  0  0  # atno 6908 bound_to 6896
  152.4579  133.7718  159.6859 H   0  0  0  0  0  0  0  0  0  0  0  0  # atno 6909 bound_to 6896
  145.3271  140.9434  143.2683 H   0  0  0  0  0  0  0  0  0  0  0  0  # atno 7974 bound_to 7965
  156.1224  140.1499  156.9185 H   0  0  0  0  0  0  0  0  0  0  0  0  # atno 8008 bound_to 7997
  154.4846  140.0869  156.7498 H   0  0  0  0  0  0  0  0  0  0  0  0  # atno 8009 bound_to 7997
  155.4404  140.3431  155.4291 H   0  0  0  0  0  0  0  0  0  0  0  0  # atno 8010 bound_to 7997
  140.7239  143.5073  150.9794 H   0  0  0  0  0  0  0  0  0  0  0  0  # atno 10167 bound_to 10162
  157.4450  130.8104  149.7731 H   0  0  0  0  0  0  0  0  0  0  0  0  # atno 10718 bound_to 10713
  154.4111  135.6009  153.5953 H   0  0  0  0  0  0  0  0  0  0  0  0  # atno 10763 bound_to 10752
  152.9790  135.5929  154.4069 H   0  0  0  0  0  0  0  0  0  0  0  0  # atno 10764 bound_to 10752
  154.3881  135.2841  155.2149 H   0  0  0  0  0  0  0  0  0  0  0  0  # atno 10765 bound_to 10752
  140.2803  134.2981  155.7802 H   0  0  0  0  0  0  0  0  0  0  0  0  # atno 11005 bound_to 11000
  144.8893  139.4796  143.6685 LP  0  0  0  0  0  0  0  0  0  0  0  0  # atno 17320 bound_to 7965
  146.3060  139.7582  142.9056 LP  0  0  0  0  0  0  0  0  0  0  0  0  # atno 17321 bound_to 7965
  139.8785  143.7102  152.3159 LP  0  0  0  0  0  0  0  0  0  0  0  0  # atno 17342 bound_to 10162
  139.7376  144.7567  151.0703 LP  0  0  0  0  0  0  0  0  0  0  0  0  # atno 17343 bound_to 10162
  155.9964  130.3906  150.2782 LP  0  0  0  0  0  0  0  0  0  0  0  0  # atno 17370 bound_to 10713
  157.0949  131.0180  151.3107 LP  0  0  0  0  0  0  0  0  0  0  0  0  # atno 17371 bound_to 10713
  141.2164  133.7521  156.9470 LP  0  0  0  0  0  0  0  0  0  0  0  0  # atno 17394 bound_to 11000
  140.1290  134.9368  157.2310 LP  0  0  0  0  0  0  0  0  0  0  0  0  # atno 17395 bound_to 11000

$$$$
