AV-unprocessed.smi:2492|AV-procd|sdf|9818|dock7
  -GOLD-   2272013453D 1   1.00000     0.00000
 Structure written by MMmdl.
 32 33  0  0  0  0  0  0  0  0  2 V2000
  153.9341  142.0844  160.5935 C   0  0  0  0  0  0  0  0  0  0  0  0
  152.8051  142.7552  159.3444 S   0  0  0  0  0  0  0  0  0  0  0  0
  151.6628  141.3553  159.1619 C   0  0  1  0  0  0  0  0  0  0  0  0
  150.5030  141.6641  158.2185 C   0  0  0  0  0  0  0  0  0  0  0  0
  149.9688  140.2897  157.8101 C   0  0  0  0  0  0  0  0  0  0  0  0
  151.1664  139.3230  157.8879 C   0  0  2  0  0  0  0  0  0  0  0  0
  150.8244  138.1370  158.6707 N   0  0  0  0  0  0  0  0  0  0  0  0
  149.6810  137.4413  158.5878 C   0  0  0  0  0  0  0  0  0  0  0  0
  148.8082  137.7858  157.7875 O   0  0  0  0  0  0  0  0  0  0  0  0
  149.6214  136.3897  159.4359 N   0  5  0  0  0  0  0  0  0  0  0  0
  148.5661  136.2480  160.2547 C   0  0  0  0  0  0  0  0  0  0  0  0
  147.9335  137.2321  160.8953 N   0  0  0  0  0  0  0  0  0  0  0  0
  146.9743  136.5505  161.5766 C   0  0  0  0  0  0  0  0  0  0  0  0
  145.9799  137.2196  162.4625 C   0  0  0  0  0  0  0  0  0  0  0  0
  146.9755  135.2355  161.4154 N   0  0  0  0  0  0  0  0  0  0  0  0
  148.0435  135.0249  160.5317 O   0  0  0  0  0  0  0  0  0  0  0  0
  152.3149  140.1184  158.5390 C   0  0  0  0  0  0  0  0  0  0  0  0
  154.6845  142.8291  160.8586 H   0  0  0  0  0  0  0  0  0  0  0  0
  154.4465  141.2009  160.2133 H   0  0  0  0  0  0  0  0  0  0  0  0
  153.3860  141.8094  161.4945 H   0  0  0  0  0  0  0  0  0  0  0  0
  151.2597  141.0961  160.1421 H   0  0  0  0  0  0  0  0  0  0  0  0
  149.7389  142.2885  158.6827 H   0  0  0  0  0  0  0  0  0  0  0  0
  150.8699  142.1884  157.3349 H   0  0  0  0  0  0  0  0  0  0  0  0
  149.1846  139.9905  158.5076 H   0  0  0  0  0  0  0  0  0  0  0  0
  149.5221  140.3090  156.8155 H   0  0  0  0  0  0  0  0  0  0  0  0
  151.4560  139.0211  156.8795 H   0  0  0  0  0  0  0  0  0  0  0  0
  151.5115  137.8179  159.3379 H   0  0  0  0  0  0  0  0  0  0  0  0
  146.2578  137.0842  163.5080 H   0  0  0  0  0  0  0  0  0  0  0  0
  144.9863  136.7978  162.3081 H   0  0  0  0  0  0  0  0  0  0  0  0
  145.9357  138.2885  162.2515 H   0  0  0  0  0  0  0  0  0  0  0  0
  153.0170  140.4248  157.7623 H   0  0  0  0  0  0  0  0  0  0  0  0
  152.8811  139.5400  159.2701 H   0  0  0  0  0  0  0  0  0  0  0  0
  1  2  1  0  0  0  0
  1 18  1  0  0  0  0
  1 19  1  0  0  0  0
  1 20  1  0  0  0  0
  2  3  1  0  0  0  0
  3 17  1  0  0  0  0
  3  4  1  0  0  0  0
  3 21  1  0  0  0  0
  4  5  1  0  0  0  0
  4 22  1  0  0  0  0
  4 23  1  0  0  0  0
  5  6  1  0  0  0  0
  5 24  1  0  0  0  0
  5 25  1  0  0  0  0
  6  7  1  0  0  0  0
  6 17  1  0  0  0  0
  6 26  1  0  0  0  0
  7  8  1  0  0  0  0
  7 27  1  0  0  0  0
  8  9  2  0  0  0  0
  8 10  1  0  0  0  0
 10 11  1  0  0  0  0
 11 16  1  0  0  0  0
 11 12  2  0  0  0  0
 12 13  1  0  0  0  0
 13 14  1  0  0  0  0
 13 15  2  0  0  0  0
 14 28  1  0  0  0  0
 14 29  1  0  0  0  0
 14 30  1  0  0  0  0
 15 16  1  0  0  0  0
 17 31  1  0  0  0  0
 17 32  1  0  0  0  0
M  CHG  1  10  -1
M  END
> <s_m_source_file>
AV-unprocessed.smi

> <i_m_source_file_index>
2492

> <i_lp_mmshare_version>
43012

> <i_f3d_flags>
0

> <s_epik_input>
W0NIM11TW0NAQEhdMVtDSDJdW0NIMl1bQ0BIXShbQ0gyXTEpW05IXUMoPU8pW05IXWMybmMoW0NIM10pbm8y

> <s_epik_cmdline>
J2VwaWtfcHl0aG9uJywgJy1waCcsICc3LjAnLCAnLXRuJywgJzgnLCAnLW1hJywgJzIwMCcsICctbWV0YWxfYmluZGluZycsICctaW1hZScsICc8aW5maWxlLm1hZT4nLCAnLW9tYWUnLCAnPG91dGZpbGUubWFlPic=

> <r_lp_tautomer_probability>
1

> <r_epik_Ionization_Penalty>
6.26454

> <r_epik_Ionization_Penalty_Charging>
6.26445

> <r_epik_Ionization_Penalty_Neutral>
9.05726e-05

> <r_epik_State_Penalty>
6.26444

> <r_epik_Charging_Adjusted_Penalty>
12.5289

> <i_epik_Tot_Q>
-1

> <i_epik_Tot_abs_Q>
1

> <r_epik_Metal_State_Penalty>
2.20125

> <b_epik_Metal_Only>
1

> <s_lp_Force_Field>
OPLS_2005

> <r_lp_Energy>
10.5143

> <b_lp_Chiralities_Consistent>
1

> <s_lp_Variant>
AV-unprocessed.smi:2492-8

> <Gold.Version>
5.8.1

> <Gold.Id.Protein>
6NUR|6NUR_protein|mol2

> <Gold.PLP.Fitness>
36.9989

> <Gold.PLP.PLP>
-27.9050

> <Gold.PLP.part.hbond>
-3.0000

> <Gold.PLP.part.metal>
0.0000

> <Gold.PLP.part.buried>
-4.8774

> <Gold.PLP.part.nonpolar>
-19.8045

> <Gold.PLP.part.repulsive>
0.1439

> <Gold.PLP.ligand.clash>
0.0000

> <Gold.PLP.ligand.torsion>
1.0098

> <Gold.PLP.Chemscore.Hbond>
3.6960

> <Gold.PLP.Chemscore.CHOScore>
0.0000

> <Gold.PLP.Chemscore.Metal>
0.0000

> <Gold.Chemscore.Hbonds>
donor molecule, donor type, donor heavy atom, donor atom, acceptor molecule, acceptor atom, score
      P1  H  6896  6907       L1    10  2.00
      P1  H  6931  6943       L1    12  0.88
      P1  H  6934  6947       L1    12  0.77

> <Gold.PLP.Chemscore.Internal.Correction>
0.0255

> <Gold.Rescore>
     Score         DG    S(hbond)    S(metal)    S(lipo)     H(rot)  DE(clash)    DE(int)     intcor
     13.32     -15.58       2.17        0.00      52.09       1.27       0.00       2.26       ----

> <Gold.Chemscore.Fitness>
13.3196

> <Gold.Chemscore.DG>
-15.5756

> <Gold.Chemscore.ZeroCoef>
-5.4800

> <Gold.Chemscore.Hbond>
2.1721

> <Gold.Chemscore.Metal>
0.0000

> <Gold.Chemscore.Lipo>
52.0945

> <Gold.Chemscore.Internal_Hbond>
0.0000

> <Gold.Chemscore.DEClash>
0.0000

> <Gold.Chemscore.DEInternal>
2.2560

> <Gold.Chemscore.Rot>
1.2712

> <Gold.Chemscore.Internal.Correction>
   9.000000E+99

> <Gold.Chemscore.Hbonds>
donor molecule, donor type, donor heavy atom, donor atom, acceptor molecule, acceptor atom, score
      P1  H  6896  6907       L1    10  0.73
      P1  H  6931  6943       L1    12  0.68
      P1  H  6934  6947       L1    12  0.23

> <Gold.Chemscore.Hbond.Weighted>
-7.2548

> <Gold.Chemscore.Metal.Weighted>
-0.0000

> <Gold.Chemscore.Lipo.Weighted>
-6.0951

> <Gold.Chemscore.Internal_Hbond.Weighted>
0.0000

> <Gold.Chemscore.DEClash.Weighted>
0.0000

> <Gold.Chemscore.DEInternal.Weighted>
2.2560

> <Gold.Chemscore.Rot.Weighted>
3.2542

> <Gold.Chemscore.Internal.Correction.Weighted>
   9.000000E+99

> <Gold.Protein.RotatedTorsions>
[ 6907 6896 6895 6894 ] final  -40.58 input  -60.11 | X-H torsion
[ 7974 7965 7964 7962 ] final -120.60 input  175.53 | X-H torsion
[ 8008 7997 7996 7995 ] final  -26.20 input   59.86 | X-H torsion
[ 10167 10162 10161 10158 ] final -100.44 input  -65.29 | X-H torsion
[ 10718 10713 10712 10709 ] final   -8.23 input   66.30 | X-H torsion
[ 10763 10752 10751 10750 ] final -142.31 input  -60.55 | X-H torsion
[ 11005 11000 10999 10996 ] final  -50.02 input  -57.11 | X-H torsion

> <Gold.Protein.ActiveResidues>
 VAL166  LYS551  ARG553  GLY616  TRP617  ASP618  TYR619  PRO620  LYS621  CYS622 
 ASP623  PHE694  ASN695  SER759  ASP760  ASP761  ALA762  ILE779  LEU786  VAL792 
 PHE793  MET794  SER795  GLU796  ALA797  LYS798  CYS799  TRP800  GLU811  SER814 

> <Gold.Protein.RotatedAtoms>
  150.9768  134.9131  159.7820 H   0  0  0  0  0  0  0  0  0  0  0  0  # atno 6907 bound_to 6896
  152.5209  134.3465  159.9245 H   0  0  0  0  0  0  0  0  0  0  0  0  # atno 6908 bound_to 6896
  151.3473  133.3898  159.2711 H   0  0  0  0  0  0  0  0  0  0  0  0  # atno 6909 bound_to 6896
  145.0496  140.8208  143.4217 H   0  0  0  0  0  0  0  0  0  0  0  0  # atno 7974 bound_to 7965
  154.4437  140.1906  156.0738 H   0  0  0  0  0  0  0  0  0  0  0  0  # atno 8008 bound_to 7997
  156.0491  140.3310  155.7303 H   0  0  0  0  0  0  0  0  0  0  0  0  # atno 8009 bound_to 7997
  155.5585  140.0601  157.2825 H   0  0  0  0  0  0  0  0  0  0  0  0  # atno 8010 bound_to 7997
  140.2519  143.3467  152.0707 H   0  0  0  0  0  0  0  0  0  0  0  0  # atno 10167 bound_to 10162
  156.7056  130.5106  149.5905 H   0  0  0  0  0  0  0  0  0  0  0  0  # atno 10718 bound_to 10713
  154.8514  135.3499  154.6007 H   0  0  0  0  0  0  0  0  0  0  0  0  # atno 10763 bound_to 10752
  153.6616  135.6989  153.5180 H   0  0  0  0  0  0  0  0  0  0  0  0  # atno 10764 bound_to 10752
  153.2813  135.4262  155.1038 H   0  0  0  0  0  0  0  0  0  0  0  0  # atno 10765 bound_to 10752
  141.0792  133.6658  156.3669 H   0  0  0  0  0  0  0  0  0  0  0  0  # atno 11005 bound_to 11000
  145.1544  139.2495  143.5424 LP  0  0  0  0  0  0  0  0  0  0  0  0  # atno 17320 bound_to 7965
  146.3517  140.1255  142.8599 LP  0  0  0  0  0  0  0  0  0  0  0  0  # atno 17321 bound_to 7965
  139.5044  144.6774  151.6095 LP  0  0  0  0  0  0  0  0  0  0  0  0  # atno 17342 bound_to 10162
  140.6034  143.9568  150.6402 LP  0  0  0  0  0  0  0  0  0  0  0  0  # atno 17343 bound_to 10162
  156.1697  130.6429  151.0822 LP  0  0  0  0  0  0  0  0  0  0  0  0  # atno 17370 bound_to 10713
  157.6956  131.0795  150.6978 LP  0  0  0  0  0  0  0  0  0  0  0  0  # atno 17371 bound_to 10713
  140.5506  134.6031  157.5406 LP  0  0  0  0  0  0  0  0  0  0  0  0  # atno 17394 bound_to 11000
  139.9605  134.7460  156.0247 LP  0  0  0  0  0  0  0  0  0  0  0  0  # atno 17395 bound_to 11000

$$$$
