AV-unprocessed.smi:3300|AV-procd|sdf|12651|dock4
  -GOLD-   2272018583D 1   1.00000     0.00000
 Structure written by MMmdl.
 36 37  0  0  0  0  0  0  0  0  1 V2000
  151.8177  145.0804  159.4520 C   0  0  0  0  0  0  0  0  0  0  0  0
  151.3116  144.1217  158.3680 C   0  0  0  0  0  0  0  0  0  0  0  0
  151.9231  142.7385  158.4920 C   0  0  0  0  0  0  0  0  0  0  0  0
  152.8787  142.5794  159.4349 N   0  0  0  0  0  0  0  0  0  0  0  0
  153.4135  141.3617  159.5499 C   0  0  0  0  0  0  0  0  0  0  0  0
  153.1007  140.2808  158.8312 N   0  0  0  0  0  0  0  0  0  0  0  0
  152.1343  140.4183  157.8900 C   0  0  0  0  0  0  0  0  0  0  0  0
  151.7861  139.3085  157.0971 N   0  0  0  0  0  0  0  0  0  0  0  0
  152.2207  139.5417  155.7236 C   0  0  0  0  0  0  0  0  0  0  0  0
  151.7249  138.4224  154.8000 C   0  0  0  0  0  0  0  0  0  0  0  0
  152.1936  137.1778  155.2977 O   0  0  0  0  0  0  0  0  0  0  0  0
  151.6723  136.9008  156.5917 C   0  0  0  0  0  0  0  0  0  0  0  0
  152.1258  137.9734  157.6126 C   0  0  2  0  0  0  0  0  0  0  0  0
  151.4912  137.7073  159.0032 C   0  0  0  0  0  0  0  0  0  0  0  0
  150.2476  136.8046  158.9606 C   0  0  0  0  0  0  0  0  0  0  0  0
  149.6771  136.7161  160.2485 O   0  0  0  0  0  0  0  0  0  0  0  0
  151.5058  141.6659  157.6742 C   0  0  0  0  0  0  0  0  0  0  0  0
  150.5429  141.8222  156.7328 F   0  0  0  0  0  0  0  0  0  0  0  0
  151.3639  146.0654  159.3419 H   0  0  0  0  0  0  0  0  0  0  0  0
  152.8995  145.2043  159.3958 H   0  0  0  0  0  0  0  0  0  0  0  0
  151.5739  144.7099  160.4481 H   0  0  0  0  0  0  0  0  0  0  0  0
  150.2250  144.0474  158.4177 H   0  0  0  0  0  0  0  0  0  0  0  0
  151.5439  144.5255  157.3818 H   0  0  0  0  0  0  0  0  0  0  0  0
  154.1800  141.2383  160.3006 H   0  0  0  0  0  0  0  0  0  0  0  0
  151.8449  140.5016  155.3660 H   0  0  0  0  0  0  0  0  0  0  0  0
  153.3103  139.5920  155.6927 H   0  0  0  0  0  0  0  0  0  0  0  0
  150.6356  138.4209  154.7320 H   0  0  0  0  0  0  0  0  0  0  0  0
  152.1090  138.5696  153.7905 H   0  0  0  0  0  0  0  0  0  0  0  0
  150.5836  136.8400  156.5450 H   0  0  0  0  0  0  0  0  0  0  0  0
  152.0312  135.9144  156.8831 H   0  0  0  0  0  0  0  0  0  0  0  0
  153.2114  137.9153  157.7035 H   0  0  0  0  0  0  0  0  0  0  0  0
  152.2139  137.2293  159.6643 H   0  0  0  0  0  0  0  0  0  0  0  0
  151.2400  138.6575  159.4768 H   0  0  0  0  0  0  0  0  0  0  0  0
  149.4930  137.1943  158.2780 H   0  0  0  0  0  0  0  0  0  0  0  0
  150.5125  135.8024  158.6221 H   0  0  0  0  0  0  0  0  0  0  0  0
  149.5094  135.8063  160.4421 H   0  0  0  0  0  0  0  0  0  0  0  0
  1  2  1  0  0  0  0
  1 19  1  0  0  0  0
  1 20  1  0  0  0  0
  1 21  1  0  0  0  0
  2  3  1  0  0  0  0
  2 22  1  0  0  0  0
  2 23  1  0  0  0  0
  3 17  1  0  0  0  0
  3  4  2  0  0  0  0
  4  5  1  0  0  0  0
  5  6  2  0  0  0  0
  5 24  1  0  0  0  0
  6  7  1  0  0  0  0
  7  8  1  0  0  0  0
  7 17  2  0  0  0  0
  8 13  1  0  0  0  0
  8  9  1  0  0  0  0
  9 10  1  0  0  0  0
  9 25  1  0  0  0  0
  9 26  1  0  0  0  0
 10 11  1  0  0  0  0
 10 27  1  0  0  0  0
 10 28  1  0  0  0  0
 11 12  1  0  0  0  0
 12 13  1  0  0  0  0
 12 29  1  0  0  0  0
 12 30  1  0  0  0  0
 13 14  1  0  0  0  0
 13 31  1  0  0  0  0
 14 15  1  0  0  0  0
 14 32  1  0  0  0  0
 14 33  1  0  0  0  0
 15 16  1  0  0  0  0
 15 34  1  0  0  0  0
 15 35  1  0  0  0  0
 16 36  1  0  0  0  0
 17 18  1  0  0  0  0
M  END
> <s_m_source_file>
AV-unprocessed.smi

> <i_m_source_file_index>
3300

> <i_lp_mmshare_version>
43012

> <i_f3d_flags>
0

> <s_epik_input>
W0NIM11bQ0gyXWMxbltjSF1uYyhjMUYpTjJbQ0gyXVtDSDJdT1tDSDJdW0NASF0yW0NIMl1bQ0gyXVtPSF0=

> <s_epik_cmdline>
J2VwaWtfcHl0aG9uJywgJy1waCcsICc3LjAnLCAnLXRuJywgJzgnLCAnLW1hJywgJzIwMCcsICctbWV0YWxfYmluZGluZycsICctaW1hZScsICc8aW5maWxlLm1hZT4nLCAnLW9tYWUnLCAnPG91dGZpbGUubWFlPic=

> <r_lp_tautomer_probability>
1

> <r_epik_Ionization_Penalty>
2.51351e-05

> <r_epik_Ionization_Penalty_Charging>
0

> <r_epik_Ionization_Penalty_Neutral>
2.51351e-05

> <r_epik_State_Penalty>
-0

> <r_epik_Charging_Adjusted_Penalty>
0

> <i_epik_Tot_Q>
0

> <i_epik_Tot_abs_Q>
0

> <r_epik_Metal_State_Penalty>
-0

> <b_epik_Metal_Only>
0

> <s_lp_Force_Field>
OPLS_2005

> <r_lp_Energy>
16.3992

> <b_lp_Chiralities_Consistent>
1

> <s_lp_Variant>
AV-unprocessed.smi:3300-2

> <Gold.Version>
5.8.1

> <Gold.Id.Protein>
6NUR|6NUR_protein|mol2

> <Gold.PLP.Fitness>
38.8012

> <Gold.PLP.PLP>
-36.0857

> <Gold.PLP.part.hbond>
-2.1843

> <Gold.PLP.part.metal>
0.0000

> <Gold.PLP.part.buried>
-6.6063

> <Gold.PLP.part.nonpolar>
-27.2746

> <Gold.PLP.part.repulsive>
0.0614

> <Gold.PLP.ligand.clash>
0.0000

> <Gold.PLP.ligand.torsion>
0.9644

> <Gold.PLP.Chemscore.Hbond>
1.4995

> <Gold.PLP.Chemscore.CHOScore>
0.0000

> <Gold.PLP.Chemscore.Metal>
0.0000

> <Gold.Chemscore.Hbonds>
donor molecule, donor type, donor heavy atom, donor atom, acceptor molecule, acceptor atom, score
      P1  H  6931  6943       L1    16  0.15
      P1  H  7997  8009       L1     6  0.02
      P1  H 10752 10764       L1    11  0.83

> <Gold.PLP.Chemscore.Internal.Correction>
0.1458

> <Gold.Rescore>
     Score         DG    S(hbond)    S(metal)    S(lipo)     H(rot)  DE(clash)    DE(int)     intcor
     12.00     -13.01       1.52        0.00      72.33       2.35       0.00       1.01       ----

> <Gold.Chemscore.Fitness>
11.9981

> <Gold.Chemscore.DG>
-13.0078

> <Gold.Chemscore.ZeroCoef>
-5.4800

> <Gold.Chemscore.Hbond>
1.5181

> <Gold.Chemscore.Metal>
0.0000

> <Gold.Chemscore.Lipo>
72.3284

> <Gold.Chemscore.Internal_Hbond>
0.0000

> <Gold.Chemscore.DEClash>
0.0000

> <Gold.Chemscore.DEInternal>
1.0098

> <Gold.Chemscore.Rot>
2.3458

> <Gold.Chemscore.Internal.Correction>
   9.000000E+99

> <Gold.Chemscore.Hbonds>
donor molecule, donor type, donor heavy atom, donor atom, acceptor molecule, acceptor atom, score
      P1  H  6931  6943       L1    16  0.14
      P1  H 10752 10764       L1    11  0.50

> <Gold.Chemscore.Hbond.Weighted>
-5.0705

> <Gold.Chemscore.Metal.Weighted>
-0.0000

> <Gold.Chemscore.Lipo.Weighted>
-8.4624

> <Gold.Chemscore.Internal_Hbond.Weighted>
0.0000

> <Gold.Chemscore.DEClash.Weighted>
0.0000

> <Gold.Chemscore.DEInternal.Weighted>
1.0098

> <Gold.Chemscore.Rot.Weighted>
6.0051

> <Gold.Chemscore.Internal.Correction.Weighted>
   9.000000E+99

> <Gold.Protein.RotatedTorsions>
[ 6907 6896 6895 6894 ] final  162.12 input  -60.11 | X-H torsion
[ 7974 7965 7964 7962 ] final  100.03 input  175.53 | X-H torsion
[ 8008 7997 7996 7995 ] final  128.51 input   59.86 | X-H torsion
[ 10167 10162 10161 10158 ] final   45.86 input  -65.29 | X-H torsion
[ 10718 10713 10712 10709 ] final  -52.09 input   66.30 | X-H torsion
[ 10763 10752 10751 10750 ] final  -54.71 input  -60.55 | X-H torsion
[ 11005 11000 10999 10996 ] final  -52.51 input  -57.11 | X-H torsion

> <Gold.Protein.ActiveResidues>
 VAL166  LYS551  ARG553  GLY616  TRP617  ASP618  TYR619  PRO620  LYS621  CYS622 
 ASP623  PHE694  ASN695  SER759  ASP760  ASP761  ALA762  ILE779  LEU786  VAL792 
 PHE793  MET794  SER795  GLU796  ALA797  LYS798  CYS799  TRP800  GLU811  SER814 

> <Gold.Protein.RotatedAtoms>
  151.9452  133.3649  159.3979 H   0  0  0  0  0  0  0  0  0  0  0  0  # atno 6907 bound_to 6896
  150.6991  134.4398  159.5296 H   0  0  0  0  0  0  0  0  0  0  0  0  # atno 6908 bound_to 6896
  152.2061  134.8544  160.0553 H   0  0  0  0  0  0  0  0  0  0  0  0  # atno 6909 bound_to 6896
  145.3910  139.2363  143.3352 H   0  0  0  0  0  0  0  0  0  0  0  0  # atno 7974 bound_to 7965
  156.2916  140.2643  156.2447 H   0  0  0  0  0  0  0  0  0  0  0  0  # atno 8008 bound_to 7997
  154.9942  140.0388  157.2351 H   0  0  0  0  0  0  0  0  0  0  0  0  # atno 8009 bound_to 7997
  154.7659  140.2769  155.6182 H   0  0  0  0  0  0  0  0  0  0  0  0  # atno 8010 bound_to 7997
  140.3199  144.2718  150.6184 H   0  0  0  0  0  0  0  0  0  0  0  0  # atno 10167 bound_to 10162
  156.1652  130.4149  149.9731 H   0  0  0  0  0  0  0  0  0  0  0  0  # atno 10718 bound_to 10713
  154.1791  135.6446  153.5029 H   0  0  0  0  0  0  0  0  0  0  0  0  # atno 10763 bound_to 10752
  153.0064  135.5402  154.6533 H   0  0  0  0  0  0  0  0  0  0  0  0  # atno 10764 bound_to 10752
  154.5892  135.2932  155.0625 H   0  0  0  0  0  0  0  0  0  0  0  0  # atno 10765 bound_to 10752
  141.0928  133.6629  156.4035 H   0  0  0  0  0  0  0  0  0  0  0  0  # atno 11005 bound_to 11000
  146.2797  140.4593  142.8781 LP  0  0  0  0  0  0  0  0  0  0  0  0  # atno 17320 bound_to 7965
  144.8440  140.6901  143.6211 LP  0  0  0  0  0  0  0  0  0  0  0  0  # atno 17321 bound_to 7965
  140.5493  143.2209  151.7954 LP  0  0  0  0  0  0  0  0  0  0  0  0  # atno 17342 bound_to 10162
  139.4876  144.4498  151.9668 LP  0  0  0  0  0  0  0  0  0  0  0  0  # atno 17343 bound_to 10162
  156.7548  130.9129  151.3639 LP  0  0  0  0  0  0  0  0  0  0  0  0  # atno 17370 bound_to 10713
  157.6762  130.9097  150.0157 LP  0  0  0  0  0  0  0  0  0  0  0  0  # atno 17371 bound_to 10713
  140.5211  134.6303  157.5318 LP  0  0  0  0  0  0  0  0  0  0  0  0  # atno 17394 bound_to 11000
  139.9758  134.7218  155.9953 LP  0  0  0  0  0  0  0  0  0  0  0  0  # atno 17395 bound_to 11000

$$$$
