AV-unprocessed.smi:1123|AV-procd|sdf|4829|dock6
  -GOLD-   22720 3393D 1   1.00000     0.00000
 Structure written by MMmdl.
 37 38  0  0  0  0  0  0  0  0  1 V2000
  146.7099  133.6121  152.4704 C   0  0  0  0  0  0  0  0  0  0  0  0
  146.0646  134.1760  151.1877 C   0  0  2  0  0  0  0  0  0  0  0  0
  145.4883  135.5872  151.3849 C   0  0  0  0  0  0  0  0  0  0  0  0
  144.3012  135.8193  151.1528 O   0  0  0  0  0  0  0  0  0  0  0  0
  146.3476  136.5251  151.8145 N   0  0  0  0  0  0  0  0  0  0  0  0
  146.0149  137.9255  152.0444 C   0  0  0  0  0  0  0  0  0  0  0  0
  146.4676  138.3892  153.4416 C   0  0  0  0  0  0  0  0  0  0  0  0
  147.7429  139.1033  153.4707 N   0  0  0  0  0  0  0  0  0  0  0  0
  147.5592  140.4808  153.9159 C   0  0  0  0  0  0  0  0  0  0  0  0
  148.8875  141.2557  153.9571 C   0  0  0  0  0  0  0  0  0  0  0  0
  149.8094  140.5738  154.8009 O   0  0  0  0  0  0  0  0  0  0  0  0
  150.0562  139.2380  154.3752 C   0  0  0  0  0  0  0  0  0  0  0  0
  148.7322  138.4550  154.3295 C   0  0  0  0  0  0  0  0  0  0  0  0
  145.0440  133.2877  150.6447 N   0  0  0  0  0  0  0  0  0  0  0  0
  144.9630  132.7077  149.4451 C   0  0  0  0  0  0  0  0  0  0  0  0
  143.8617  131.9921  149.2648 N   0  0  0  0  0  0  0  0  0  0  0  0
  143.2572  132.1973  150.4724 C   0  0  0  0  0  0  0  0  0  0  0  0
  143.9170  132.9735  151.3316 N   0  0  0  0  0  0  0  0  0  0  0  0
  147.5085  134.2638  152.8266 H   0  0  0  0  0  0  0  0  0  0  0  0
  147.1488  132.6313  152.2847 H   0  0  0  0  0  0  0  0  0  0  0  0
  145.9877  133.5020  153.2804 H   0  0  0  0  0  0  0  0  0  0  0  0
  146.8547  134.2487  150.4384 H   0  0  0  0  0  0  0  0  0  0  0  0
  147.3045  136.2512  151.9839 H   0  0  0  0  0  0  0  0  0  0  0  0
  146.5085  138.5050  151.2650 H   0  0  0  0  0  0  0  0  0  0  0  0
  144.9422  138.0819  151.9183 H   0  0  0  0  0  0  0  0  0  0  0  0
  145.6940  139.0454  153.8428 H   0  0  0  0  0  0  0  0  0  0  0  0
  146.5107  137.5322  154.1156 H   0  0  0  0  0  0  0  0  0  0  0  0
  146.8641  140.9949  153.2513 H   0  0  0  0  0  0  0  0  0  0  0  0
  147.1063  140.4912  154.9086 H   0  0  0  0  0  0  0  0  0  0  0  0
  149.3074  141.3582  152.9553 H   0  0  0  0  0  0  0  0  0  0  0  0
  148.7281  142.2626  154.3430 H   0  0  0  0  0  0  0  0  0  0  0  0
  150.5345  139.2444  153.3947 H   0  0  0  0  0  0  0  0  0  0  0  0
  150.7526  138.7655  155.0680 H   0  0  0  0  0  0  0  0  0  0  0  0
  148.3365  138.3572  155.3415 H   0  0  0  0  0  0  0  0  0  0  0  0
  148.9393  137.4460  153.9750 H   0  0  0  0  0  0  0  0  0  0  0  0
  145.7238  132.8148  148.6861 H   0  0  0  0  0  0  0  0  0  0  0  0
  142.2990  131.7667  150.7235 H   0  0  0  0  0  0  0  0  0  0  0  0
  1  2  1  0  0  0  0
  1 19  1  0  0  0  0
  1 20  1  0  0  0  0
  1 21  1  0  0  0  0
  2  3  1  0  0  0  0
  2 14  1  0  0  0  0
  2 22  1  0  0  0  0
  3  4  2  0  0  0  0
  3  5  1  0  0  0  0
  5  6  1  0  0  0  0
  5 23  1  0  0  0  0
  6  7  1  0  0  0  0
  6 24  1  0  0  0  0
  6 25  1  0  0  0  0
  7  8  1  0  0  0  0
  7 26  1  0  0  0  0
  7 27  1  0  0  0  0
  8 13  1  0  0  0  0
  8  9  1  0  0  0  0
  9 10  1  0  0  0  0
  9 28  1  0  0  0  0
  9 29  1  0  0  0  0
 10 11  1  0  0  0  0
 10 30  1  0  0  0  0
 10 31  1  0  0  0  0
 11 12  1  0  0  0  0
 12 13  1  0  0  0  0
 12 32  1  0  0  0  0
 12 33  1  0  0  0  0
 13 34  1  0  0  0  0
 13 35  1  0  0  0  0
 14 18  1  0  0  0  0
 14 15  1  0  0  0  0
 15 16  2  0  0  0  0
 15 36  1  0  0  0  0
 16 17  1  0  0  0  0
 17 18  2  0  0  0  0
 17 37  1  0  0  0  0
M  END
> <s_m_source_file>
AV-unprocessed.smi

> <i_m_source_file_index>
1123

> <i_lp_mmshare_version>
43012

> <i_f3d_flags>
0

> <s_epik_input>
bjFbY0hdbltjSF1uMVtDQEhdKFtDSDNdKUMoPU8pW05IXVtDSDJdW0NIMl1OMltDSDJdW0NIMl1PW0NIMl1bQ0gyXTI=

> <s_epik_cmdline>
J2VwaWtfcHl0aG9uJywgJy1waCcsICc3LjAnLCAnLXRuJywgJzgnLCAnLW1hJywgJzIwMCcsICctbWV0YWxfYmluZGluZycsICctaW1hZScsICc8aW5maWxlLm1hZT4nLCAnLW9tYWUnLCAnPG91dGZpbGUubWFlPic=

> <r_lp_tautomer_probability>
1

> <r_epik_Ionization_Penalty>
0.211373

> <r_epik_Ionization_Penalty_Charging>
0

> <r_epik_Ionization_Penalty_Neutral>
0.211373

> <r_epik_State_Penalty>
0.201459

> <r_epik_Charging_Adjusted_Penalty>
0.201459

> <i_epik_Tot_Q>
0

> <i_epik_Tot_abs_Q>
0

> <r_epik_Metal_State_Penalty>
0.201458

> <b_epik_Metal_Only>
0

> <s_lp_Force_Field>
OPLS_2005

> <r_lp_Energy>
26.6349

> <b_lp_Chiralities_Consistent>
1

> <s_lp_Variant>
AV-unprocessed.smi:1123-1

> <Gold.Version>
5.8.1

> <Gold.Id.Protein>
6NUR|6NUR_protein|mol2

> <Gold.PLP.Fitness>
36.6348

> <Gold.PLP.PLP>
-29.5832

> <Gold.PLP.part.hbond>
-2.5664

> <Gold.PLP.part.metal>
0.0000

> <Gold.PLP.part.buried>
-4.5519

> <Gold.PLP.part.nonpolar>
-25.0347

> <Gold.PLP.part.repulsive>
0.9589

> <Gold.PLP.ligand.clash>
0.0000

> <Gold.PLP.ligand.torsion>
1.1120

> <Gold.PLP.Chemscore.Hbond>
1.8247

> <Gold.PLP.Chemscore.CHOScore>
1.2234

> <Gold.PLP.Chemscore.Metal>
0.0000

> <Gold.Chemscore.Hbonds>
donor molecule, donor type, donor heavy atom, donor atom, acceptor molecule, acceptor atom, score
      L1  H     5    23       P1  7948  1.00
      P1  H 10785 10796       L1    16  0.78
      L1  C    15    36       P1  7921  0.25
      L1  C    17    37       P1 10952  0.97

> <Gold.PLP.Chemscore.Internal.Correction>
0.1311

> <Gold.Rescore>
     Score         DG    S(hbond)    S(metal)    S(lipo)     H(rot)  DE(clash)    DE(int)     intcor
      8.34     -10.91       1.91        0.00      49.07       2.61       0.23       2.35       ----

> <Gold.Chemscore.Fitness>
8.3363

> <Gold.Chemscore.DG>
-10.9129

> <Gold.Chemscore.ZeroCoef>
-5.4800

> <Gold.Chemscore.Hbond>
1.9081

> <Gold.Chemscore.Metal>
0.0000

> <Gold.Chemscore.Lipo>
49.0651

> <Gold.Chemscore.Internal_Hbond>
0.0000

> <Gold.Chemscore.DEClash>
0.2273

> <Gold.Chemscore.DEInternal>
2.3492

> <Gold.Chemscore.Rot>
2.6097

> <Gold.Chemscore.Internal.Correction>
   9.000000E+99

> <Gold.Chemscore.Hbonds>
donor molecule, donor type, donor heavy atom, donor atom, acceptor molecule, acceptor atom, score
      L1  H     5    23       P1  7948  0.99
      P1  H 10785 10796       L1    16  0.29

> <Gold.Chemscore.Hbond.Weighted>
-6.3731

> <Gold.Chemscore.Metal.Weighted>
-0.0000

> <Gold.Chemscore.Lipo.Weighted>
-5.7406

> <Gold.Chemscore.Internal_Hbond.Weighted>
0.0000

> <Gold.Chemscore.DEClash.Weighted>
0.2273

> <Gold.Chemscore.DEInternal.Weighted>
2.3492

> <Gold.Chemscore.Rot.Weighted>
6.6809

> <Gold.Chemscore.Internal.Correction.Weighted>
   9.000000E+99

> <Gold.Protein.RotatedTorsions>
[ 6907 6896 6895 6894 ] final   50.28 input  -60.11 | X-H torsion
[ 7974 7965 7964 7962 ] final  -66.73 input  175.53 | X-H torsion
[ 8008 7997 7996 7995 ] final  -80.72 input   59.86 | X-H torsion
[ 10167 10162 10161 10158 ] final -167.10 input  -65.29 | X-H torsion
[ 10718 10713 10712 10709 ] final   69.48 input   66.30 | X-H torsion
[ 10763 10752 10751 10750 ] final -141.46 input  -60.55 | X-H torsion
[ 11005 11000 10999 10996 ] final  -81.16 input  -57.11 | X-H torsion

> <Gold.Protein.ActiveResidues>
 VAL166  LYS551  ARG553  GLY616  TRP617  ASP618  TYR619  PRO620  LYS621  CYS622 
 ASP623  PHE694  ASN695  SER759  ASP760  ASP761  ALA762  ILE779  LEU786  VAL792 
 PHE793  MET794  SER795  GLU796  ALA797  LYS798  CYS799  TRP800  GLU811  SER814 

> <Gold.Protein.RotatedAtoms>
  152.3000  134.7621  160.0359 H   0  0  0  0  0  0  0  0  0  0  0  0  # atno 6907 bound_to 6896
  151.8138  133.3380  159.3571 H   0  0  0  0  0  0  0  0  0  0  0  0  # atno 6908 bound_to 6896
  150.7269  134.5568  159.5867 H   0  0  0  0  0  0  0  0  0  0  0  0  # atno 6909 bound_to 6896
  145.7381  140.8966  143.0544 H   0  0  0  0  0  0  0  0  0  0  0  0  # atno 7974 bound_to 7965
  154.5911  140.0658  156.9240 H   0  0  0  0  0  0  0  0  0  0  0  0  # atno 8008 bound_to 7997
  155.2293  140.3336  155.4287 H   0  0  0  0  0  0  0  0  0  0  0  0  # atno 8009 bound_to 7997
  156.2256  140.1818  156.7354 H   0  0  0  0  0  0  0  0  0  0  0  0  # atno 8010 bound_to 7997
  139.6071  144.0890  152.1804 H   0  0  0  0  0  0  0  0  0  0  0  0  # atno 10167 bound_to 10162
  157.6348  130.9428  150.0519 H   0  0  0  0  0  0  0  0  0  0  0  0  # atno 10718 bound_to 10713
  154.8544  135.3524  154.5871 H   0  0  0  0  0  0  0  0  0  0  0  0  # atno 10763 bound_to 10752
  153.6481  135.6995  153.5223 H   0  0  0  0  0  0  0  0  0  0  0  0  # atno 10764 bound_to 10752
  153.2916  135.4233  155.1130 H   0  0  0  0  0  0  0  0  0  0  0  0  # atno 10765 bound_to 10752
  141.1667  133.7183  156.8380 H   0  0  0  0  0  0  0  0  0  0  0  0  # atno 11005 bound_to 11000
  144.6877  139.9423  143.7475 LP  0  0  0  0  0  0  0  0  0  0  0  0  # atno 17320 bound_to 7965
  146.0474  139.3478  143.0660 LP  0  0  0  0  0  0  0  0  0  0  0  0  # atno 17321 bound_to 7965
  140.0500  144.5940  150.7343 LP  0  0  0  0  0  0  0  0  0  0  0  0  # atno 17342 bound_to 10162
  140.7293  143.2670  151.4011 LP  0  0  0  0  0  0  0  0  0  0  0  0  # atno 17343 bound_to 10162
  156.1578  130.3643  149.9343 LP  0  0  0  0  0  0  0  0  0  0  0  0  # atno 17370 bound_to 10713
  156.7348  130.9057  151.3628 LP  0  0  0  0  0  0  0  0  0  0  0  0  # atno 17371 bound_to 10713
  140.2003  134.8902  157.3161 LP  0  0  0  0  0  0  0  0  0  0  0  0  # atno 17394 bound_to 11000
  140.2194  134.4041  155.7573 LP  0  0  0  0  0  0  0  0  0  0  0  0  # atno 17395 bound_to 11000

$$$$
