AV-unprocessed.smi:2319|AV-procd|sdf|9277|dock3
  -GOLD-   2272012503D 1   1.00000     0.00000
 Structure written by MMmdl.
 46 47  0  0  0  0  0  0  0  0  1 V2000
  145.4701  143.5695  153.7762 C   0  0  0  0  0  0  0  0  0  0  0  0
  145.9406  142.8018  155.0161 C   0  0  0  0  0  0  0  0  0  0  0  0
  146.8335  141.6508  154.6884 C   0  0  0  0  0  0  0  0  0  0  0  0
  146.2847  140.6164  153.9991 O   0  0  0  0  0  0  0  0  0  0  0  0
  147.2636  139.6297  153.8055 N   0  0  0  0  0  0  0  0  0  0  0  0
  148.3725  140.0753  154.3778 C   0  0  0  0  0  0  0  0  0  0  0  0
  149.5905  139.1942  154.3914 C   0  0  0  0  0  0  0  0  0  0  0  0
  148.1469  141.3722  154.9258 C   0  0  0  0  0  0  0  0  0  0  0  0
  149.0285  142.2132  155.6493 N   0  0  0  0  0  0  0  0  0  0  0  0
  150.0773  141.8308  156.3928 C   0  0  0  0  0  0  0  0  0  0  0  0
  150.4385  140.6657  156.5548 O   0  0  0  0  0  0  0  0  0  0  0  0
  150.7089  142.8866  156.9226 N   0  0  0  0  0  0  0  0  0  0  0  0
  151.9099  142.8187  157.7526 C   0  0  2  0  0  0  0  0  0  0  0  0
  151.6419  142.1070  159.0640 C   0  0  0  0  0  0  0  0  0  0  0  0
  152.7417  142.6485  159.9861 C   0  0  0  0  0  0  0  0  0  0  0  0
  152.2497  142.8428  161.4285 C   0  0  0  0  0  0  0  0  0  0  0  0
  154.0056  141.7727  159.9481 C   0  0  0  0  0  0  0  0  0  0  0  0
  153.0946  143.9242  159.4522 O   0  0  0  0  0  0  0  0  0  0  0  0
  152.4246  144.1962  158.2224 C   0  0  0  0  0  0  0  0  0  0  0  0
  153.4500  144.8011  157.2508 C   0  0  0  0  0  0  0  0  0  0  0  0
  151.3116  145.2164  158.5428 C   0  0  0  0  0  0  0  0  0  0  0  0
  144.8212  144.3996  154.0557 H   0  0  0  0  0  0  0  0  0  0  0  0
  144.9104  142.9205  153.1020 H   0  0  0  0  0  0  0  0  0  0  0  0
  146.3153  143.9795  153.2222 H   0  0  0  0  0  0  0  0  0  0  0  0
  146.4658  143.4838  155.6854 H   0  0  0  0  0  0  0  0  0  0  0  0
  145.0723  142.4440  155.5700 H   0  0  0  0  0  0  0  0  0  0  0  0
  150.1696  139.3350  155.3040 H   0  0  0  0  0  0  0  0  0  0  0  0
  150.2396  139.4108  153.5429 H   0  0  0  0  0  0  0  0  0  0  0  0
  149.3208  138.1390  154.3389 H   0  0  0  0  0  0  0  0  0  0  0  0
  148.9141  143.2054  155.5027 H   0  0  0  0  0  0  0  0  0  0  0  0
  150.3430  143.8072  156.7286 H   0  0  0  0  0  0  0  0  0  0  0  0
  152.7032  142.2788  157.2314 H   0  0  0  0  0  0  0  0  0  0  0  0
  150.6576  142.3850  159.4446 H   0  0  0  0  0  0  0  0  0  0  0  0
  151.6583  141.0206  158.9674 H   0  0  0  0  0  0  0  0  0  0  0  0
  151.9489  141.8941  161.8738 H   0  0  0  0  0  0  0  0  0  0  0  0
  151.3924  143.5157  161.4671 H   0  0  0  0  0  0  0  0  0  0  0  0
  153.0311  143.2728  162.0558 H   0  0  0  0  0  0  0  0  0  0  0  0
  153.8040  140.7724  160.3326 H   0  0  0  0  0  0  0  0  0  0  0  0
  154.8020  142.2059  160.5540 H   0  0  0  0  0  0  0  0  0  0  0  0
  154.3882  141.6668  158.9328 H   0  0  0  0  0  0  0  0  0  0  0  0
  152.9934  145.0390  156.2900 H   0  0  0  0  0  0  0  0  0  0  0  0
  154.2746  144.1120  157.0660 H   0  0  0  0  0  0  0  0  0  0  0  0
  153.8758  145.7216  157.6508 H   0  0  0  0  0  0  0  0  0  0  0  0
  150.7716  145.5169  157.6446 H   0  0  0  0  0  0  0  0  0  0  0  0
  151.7296  146.1203  158.9869 H   0  0  0  0  0  0  0  0  0  0  0  0
  150.5860  144.8139  159.2494 H   0  0  0  0  0  0  0  0  0  0  0  0
  1  2  1  0  0  0  0
  1 22  1  0  0  0  0
  1 23  1  0  0  0  0
  1 24  1  0  0  0  0
  2  3  1  0  0  0  0
  2 25  1  0  0  0  0
  2 26  1  0  0  0  0
  3  8  2  0  0  0  0
  3  4  1  0  0  0  0
  4  5  1  0  0  0  0
  5  6  2  0  0  0  0
  6  7  1  0  0  0  0
  6  8  1  0  0  0  0
  7 27  1  0  0  0  0
  7 28  1  0  0  0  0
  7 29  1  0  0  0  0
  8  9  1  0  0  0  0
  9 10  1  0  0  0  0
  9 30  1  0  0  0  0
 10 11  2  0  0  0  0
 10 12  1  0  0  0  0
 12 13  1  0  0  0  0
 12 31  1  0  0  0  0
 13 19  1  0  0  0  0
 13 14  1  0  0  0  0
 13 32  1  0  0  0  0
 14 15  1  0  0  0  0
 14 33  1  0  0  0  0
 14 34  1  0  0  0  0
 15 16  1  0  0  0  0
 15 17  1  0  0  0  0
 15 18  1  0  0  0  0
 16 35  1  0  0  0  0
 16 36  1  0  0  0  0
 16 37  1  0  0  0  0
 17 38  1  0  0  0  0
 17 39  1  0  0  0  0
 17 40  1  0  0  0  0
 18 19  1  0  0  0  0
 19 20  1  0  0  0  0
 19 21  1  0  0  0  0
 20 41  1  0  0  0  0
 20 42  1  0  0  0  0
 20 43  1  0  0  0  0
 21 44  1  0  0  0  0
 21 45  1  0  0  0  0
 21 46  1  0  0  0  0
M  END
> <s_m_source_file>
AV-unprocessed.smi

> <i_m_source_file_index>
2319

> <i_lp_mmshare_version>
43012

> <i_f3d_flags>
0

> <s_epik_input>
W0NIM11bQ0gyXWMxb25jKFtDSDNdKWMxW05IXUMoPU8pW05IXVtDQEBIXShDKE8yKShbQ0gzXSlbQ0gzXSlbQ0gyXUMyKFtDSDNdKVtDSDNd

> <s_epik_cmdline>
J2VwaWtfcHl0aG9uJywgJy1waCcsICc3LjAnLCAnLXRuJywgJzgnLCAnLW1hJywgJzIwMCcsICctbWV0YWxfYmluZGluZycsICctaW1hZScsICc8aW5maWxlLm1hZT4nLCAnLW9tYWUnLCAnPG91dGZpbGUubWFlPic=

> <r_lp_tautomer_probability>
1

> <r_epik_Ionization_Penalty>
3.17207e-05

> <r_epik_Ionization_Penalty_Charging>
0

> <r_epik_Ionization_Penalty_Neutral>
3.17207e-05

> <r_epik_State_Penalty>
-0

> <r_epik_Charging_Adjusted_Penalty>
0

> <i_epik_Tot_Q>
0

> <i_epik_Tot_abs_Q>
0

> <r_epik_Metal_State_Penalty>
-0

> <b_epik_Metal_Only>
0

> <s_lp_Force_Field>
OPLS_2005

> <r_lp_Energy>
19.5027

> <b_lp_Chiralities_Consistent>
1

> <s_lp_Variant>
AV-unprocessed.smi:2319-1

> <Gold.Version>
5.8.1

> <Gold.Id.Protein>
6NUR|6NUR_protein|mol2

> <Gold.PLP.Fitness>
47.7944

> <Gold.PLP.PLP>
-42.4063

> <Gold.PLP.part.hbond>
-1.9955

> <Gold.PLP.part.metal>
0.0000

> <Gold.PLP.part.buried>
-4.7562

> <Gold.PLP.part.nonpolar>
-37.0525

> <Gold.PLP.part.repulsive>
0.8923

> <Gold.PLP.ligand.clash>
0.0000

> <Gold.PLP.ligand.torsion>
0.2185

> <Gold.PLP.Chemscore.Hbond>
1.8480

> <Gold.PLP.Chemscore.CHOScore>
0.0000

> <Gold.PLP.Chemscore.Metal>
0.0000

> <Gold.Chemscore.Hbonds>
donor molecule, donor type, donor heavy atom, donor atom, acceptor molecule, acceptor atom, score
      L1  H     9    30       P1  8028  0.96
      L1  H    12    31       P1  8028  0.83

> <Gold.PLP.Chemscore.Internal.Correction>
0.2811

> <Gold.Rescore>
     Score         DG    S(hbond)    S(metal)    S(lipo)     H(rot)  DE(clash)    DE(int)     intcor
     20.73     -24.43       1.93        0.00     132.23       1.16       2.11       1.59       ----

> <Gold.Chemscore.Fitness>
20.7303

> <Gold.Chemscore.DG>
-24.4303

> <Gold.Chemscore.ZeroCoef>
-5.4800

> <Gold.Chemscore.Hbond>
1.9303

> <Gold.Chemscore.Metal>
0.0000

> <Gold.Chemscore.Lipo>
132.2253

> <Gold.Chemscore.Internal_Hbond>
0.0000

> <Gold.Chemscore.DEClash>
2.1139

> <Gold.Chemscore.DEInternal>
1.5861

> <Gold.Chemscore.Rot>
1.1590

> <Gold.Chemscore.Internal.Correction>
   9.000000E+99

> <Gold.Chemscore.Hbonds>
donor molecule, donor type, donor heavy atom, donor atom, acceptor molecule, acceptor atom, score
      L1  H     9    30       P1  8028  0.91
      L1  H    12    31       P1  8028  0.79

> <Gold.Chemscore.Hbond.Weighted>
-6.4471

> <Gold.Chemscore.Metal.Weighted>
-0.0000

> <Gold.Chemscore.Lipo.Weighted>
-15.4704

> <Gold.Chemscore.Internal_Hbond.Weighted>
0.0000

> <Gold.Chemscore.DEClash.Weighted>
2.1139

> <Gold.Chemscore.DEInternal.Weighted>
1.5861

> <Gold.Chemscore.Rot.Weighted>
2.9671

> <Gold.Chemscore.Internal.Correction.Weighted>
   9.000000E+99

> <Gold.Protein.RotatedTorsions>
[ 6907 6896 6895 6894 ] final -123.25 input  -60.11 | X-H torsion
[ 7974 7965 7964 7962 ] final  109.97 input  175.53 | X-H torsion
[ 8008 7997 7996 7995 ] final -169.41 input   59.86 | X-H torsion
[ 10167 10162 10161 10158 ] final   85.11 input  -65.29 | X-H torsion
[ 10718 10713 10712 10709 ] final -146.91 input   66.30 | X-H torsion
[ 10763 10752 10751 10750 ] final -102.87 input  -60.55 | X-H torsion
[ 11005 11000 10999 10996 ] final -107.76 input  -57.11 | X-H torsion

> <Gold.Protein.ActiveResidues>
 VAL166  LYS551  ARG553  GLY616  TRP617  ASP618  TYR619  PRO620  LYS621  CYS622 
 ASP623  PHE694  ASN695  SER759  ASP760  ASP761  ALA762  ILE779  LEU786  VAL792 
 PHE793  MET794  SER795  GLU796  ALA797  LYS798  CYS799  TRP800  GLU811  SER814 

> <Gold.Protein.RotatedAtoms>
  150.8653  133.7584  159.2978 H   0  0  0  0  0  0  0  0  0  0  0  0  # atno 6907 bound_to 6896
  151.5213  135.1065  159.9889 H   0  0  0  0  0  0  0  0  0  0  0  0  # atno 6908 bound_to 6896
  152.4656  133.7872  159.6938 H   0  0  0  0  0  0  0  0  0  0  0  0  # atno 6909 bound_to 6896
  145.2610  139.2702  143.4017 H   0  0  0  0  0  0  0  0  0  0  0  0  # atno 7974 bound_to 7965
  155.9045  140.1047  157.1325 H   0  0  0  0  0  0  0  0  0  0  0  0  # atno 8008 bound_to 7997
  154.4031  140.1286  156.4543 H   0  0  0  0  0  0  0  0  0  0  0  0  # atno 8009 bound_to 7997
  155.7383  140.3467  155.5094 H   0  0  0  0  0  0  0  0  0  0  0  0  # atno 8010 bound_to 7997
  139.9011  144.6329  150.8636 H   0  0  0  0  0  0  0  0  0  0  0  0  # atno 10167 bound_to 10162
  156.4008  130.7933  151.2143 H   0  0  0  0  0  0  0  0  0  0  0  0  # atno 10718 bound_to 10713
  154.7766  135.4844  153.9756 H   0  0  0  0  0  0  0  0  0  0  0  0  # atno 10763 bound_to 10752
  153.1437  135.6777  153.8996 H   0  0  0  0  0  0  0  0  0  0  0  0  # atno 10764 bound_to 10752
  153.8662  135.3149  155.3418 H   0  0  0  0  0  0  0  0  0  0  0  0  # atno 10765 bound_to 10752
  141.0937  133.9009  157.2014 H   0  0  0  0  0  0  0  0  0  0  0  0  # atno 11005 bound_to 11000
  146.3275  140.3027  142.8621 LP  0  0  0  0  0  0  0  0  0  0  0  0  # atno 17320 bound_to 7965
  144.9418  140.8087  143.5625 LP  0  0  0  0  0  0  0  0  0  0  0  0  # atno 17321 bound_to 7965
  140.7706  143.3436  151.2157 LP  0  0  0  0  0  0  0  0  0  0  0  0  # atno 17342 bound_to 10162
  139.7025  143.9510  152.2912 LP  0  0  0  0  0  0  0  0  0  0  0  0  # atno 17343 bound_to 10162
  157.7504  131.0287  150.4061 LP  0  0  0  0  0  0  0  0  0  0  0  0  # atno 17370 bound_to 10713
  156.4340  130.3978  149.6741 LP  0  0  0  0  0  0  0  0  0  0  0  0  # atno 17371 bound_to 10713
  139.9768  135.0111  156.9652 LP  0  0  0  0  0  0  0  0  0  0  0  0  # atno 17394 bound_to 11000
  140.5191  134.0925  155.7288 LP  0  0  0  0  0  0  0  0  0  0  0  0  # atno 17395 bound_to 11000

$$$$
