AV-unprocessed.smi:1661|AV-procd|sdf|6655|dock5
  -GOLD-   22720 7363D 1   1.00000     0.00000
 Structure written by MMmdl.
 37 38  0  0  0  0  0  0  0  0  3 V2000
  144.0356  132.3203  149.6338 C   0  0  0  0  0  0  0  0  0  0  0  0
  144.9659  132.4988  150.8418 C   0  0  2  0  0  0  0  0  0  0  0  0
  146.1198  133.4675  150.5339 C   0  0  0  0  0  0  0  0  0  0  0  0
  147.0637  133.6137  151.7395 C   0  0  0  0  0  0  0  0  0  0  0  0
  147.5979  132.2953  152.1690 N   0  3  1  0  0  0  0  0  0  0  0  0
  148.6126  132.4255  153.2445 C   0  0  0  0  0  0  0  0  0  0  0  0
  148.2836  133.5624  154.2242 C   0  0  0  0  0  0  0  0  0  0  0  0
  149.2485  134.6442  154.0876 N   0  0  0  0  0  0  0  0  0  0  0  0
  150.2134  134.9298  154.9711 C   0  0  0  0  0  0  0  0  0  0  0  0
  150.3315  134.2478  155.9917 O   0  0  0  0  0  0  0  0  0  0  0  0
  150.9797  135.9854  154.6162 N   0  5  0  0  0  0  0  0  0  0  0  0
  150.4582  137.2235  154.6153 C   0  0  0  0  0  0  0  0  0  0  0  0
  151.1944  138.3119  154.3385 N   0  0  0  0  0  0  0  0  0  0  0  0
  150.4664  139.4927  154.3964 N   0  0  0  0  0  0  0  0  0  0  0  0
  149.1949  139.2638  154.7245 C   0  0  0  0  0  0  0  0  0  0  0  0
  148.7725  137.5863  154.9967 S   0  0  0  0  0  0  0  0  0  0  0  0
  146.5013  131.3492  152.5074 C   0  0  0  0  0  0  0  0  0  0  0  0
  145.5467  131.1564  151.3169 C   0  0  0  0  0  0  0  0  0  0  0  0
  144.5681  131.8995  148.7802 H   0  0  0  0  0  0  0  0  0  0  0  0
  143.6093  133.2745  149.3227 H   0  0  0  0  0  0  0  0  0  0  0  0
  143.2072  131.6523  149.8718 H   0  0  0  0  0  0  0  0  0  0  0  0
  144.3748  132.9211  151.6559 H   0  0  0  0  0  0  0  0  0  0  0  0
  146.6844  133.1099  149.6714 H   0  0  0  0  0  0  0  0  0  0  0  0
  145.7232  134.4456  150.2587 H   0  0  0  0  0  0  0  0  0  0  0  0
  147.8872  134.2747  151.4668 H   0  0  0  0  0  0  0  0  0  0  0  0
  146.5411  134.0851  152.5735 H   0  0  0  0  0  0  0  0  0  0  0  0
  148.6545  131.4952  153.8129 H   0  0  0  0  0  0  0  0  0  0  0  0
  149.6021  132.5636  152.8058 H   0  0  0  0  0  0  0  0  0  0  0  0
  147.2869  133.9635  154.0409 H   0  0  0  0  0  0  0  0  0  0  0  0
  148.3011  133.1908  155.2500 H   0  0  0  0  0  0  0  0  0  0  0  0
  149.1825  135.2257  153.2649 H   0  0  0  0  0  0  0  0  0  0  0  0
  148.5026  140.0878  154.8104 H   0  0  0  0  0  0  0  0  0  0  0  0
  146.9081  130.3789  152.7891 H   0  0  0  0  0  0  0  0  0  0  0  0
  145.9507  131.7225  153.3723 H   0  0  0  0  0  0  0  0  0  0  0  0
  144.7395  130.4803  151.6009 H   0  0  0  0  0  0  0  0  0  0  0  0
  146.0808  130.6721  150.4978 H   0  0  0  0  0  0  0  0  0  0  0  0
  148.0813  131.9138  151.3683 H   0  0  0  0  0  0  0  0  0  0  0  0
  1  2  1  0  0  0  0
  1 19  1  0  0  0  0
  1 20  1  0  0  0  0
  1 21  1  0  0  0  0
  2 18  1  0  0  0  0
  2  3  1  0  0  0  0
  2 22  1  0  0  0  0
  3  4  1  0  0  0  0
  3 23  1  0  0  0  0
  3 24  1  0  0  0  0
  4  5  1  0  0  0  0
  4 25  1  0  0  0  0
  4 26  1  0  0  0  0
  5  6  1  0  0  0  0
  5 17  1  0  0  0  0
  5 37  1  0  0  0  0
  6  7  1  0  0  0  0
  6 27  1  0  0  0  0
  6 28  1  0  0  0  0
  7  8  1  0  0  0  0
  7 29  1  0  0  0  0
  7 30  1  0  0  0  0
  8  9  1  0  0  0  0
  8 31  1  0  0  0  0
  9 10  2  0  0  0  0
  9 11  1  0  0  0  0
 11 12  1  0  0  0  0
 12 16  1  0  0  0  0
 12 13  2  0  0  0  0
 13 14  1  0  0  0  0
 14 15  2  0  0  0  0
 15 16  1  0  0  0  0
 15 32  1  0  0  0  0
 17 18  1  0  0  0  0
 17 33  1  0  0  0  0
 17 34  1  0  0  0  0
 18 35  1  0  0  0  0
 18 36  1  0  0  0  0
M  CHG  1   5   1
M  CHG  1  11  -1
M  END
> <s_m_source_file>
AV-unprocessed.smi

> <i_m_source_file_index>
1661

> <i_lp_mmshare_version>
43012

> <i_f3d_flags>
0

> <s_epik_input>
W0NIM11bQ0hdMVtDSDJdW0NIMl1OKFtDSDJdW0NIMl0xKVtDSDJdW0NIMl1bTkhdQyg9TylbTkhdYzJubltjSF1zMg==

> <s_epik_cmdline>
J2VwaWtfcHl0aG9uJywgJy1waCcsICc3LjAnLCAnLXRuJywgJzgnLCAnLW1hJywgJzIwMCcsICctbWV0YWxfYmluZGluZycsICctaW1hZScsICc8aW5maWxlLm1hZT4nLCAnLW9tYWUnLCAnPG91dGZpbGUubWFlPic=

> <r_lp_tautomer_probability>
1

> <r_epik_Ionization_Penalty>
3.04466

> <r_epik_Ionization_Penalty_Charging>
3.01305

> <r_epik_Ionization_Penalty_Neutral>
0.0316037

> <r_epik_State_Penalty>
3.00821

> <r_epik_Charging_Adjusted_Penalty>
6.02127

> <i_epik_Tot_Q>
0

> <i_epik_Tot_abs_Q>
2

> <r_epik_Metal_State_Penalty>
0.454395

> <b_epik_Metal_Only>
1

> <s_lp_Force_Field>
OPLS_2005

> <r_lp_Energy>
9.82396

> <b_lp_Chiralities_Consistent>
1

> <s_lp_Variant>
AV-unprocessed.smi:1661-3

> <Gold.Version>
5.8.1

> <Gold.Id.Protein>
6NUR|6NUR_protein|mol2

> <Gold.PLP.Fitness>
44.3538

> <Gold.PLP.PLP>
-32.4287

> <Gold.PLP.part.hbond>
-4.0000

> <Gold.PLP.part.metal>
0.0000

> <Gold.PLP.part.buried>
-4.9401

> <Gold.PLP.part.nonpolar>
-23.5115

> <Gold.PLP.part.repulsive>
0.5124

> <Gold.PLP.ligand.clash>
0.0000

> <Gold.PLP.ligand.torsion>
1.4135

> <Gold.PLP.Chemscore.Hbond>
4.9000

> <Gold.PLP.Chemscore.CHOScore>
0.0000

> <Gold.PLP.Chemscore.Metal>
0.0000

> <Gold.Chemscore.Hbonds>
donor molecule, donor type, donor heavy atom, donor atom, acceptor molecule, acceptor atom, score
      L1  H     5    37       P1 10747  1.00
      L1  H     8    31       P1  7948  0.90
      P1  H  7989  7998       L1    14  1.00
      P1  H 10752 10763       L1    11  2.00

> <Gold.PLP.Chemscore.Internal.Correction>
0.0520

> <Gold.Rescore>
     Score         DG    S(hbond)    S(metal)    S(lipo)     H(rot)  DE(clash)    DE(int)     intcor
     17.66     -19.13       2.97        0.00      68.53       1.68       0.01       1.46       ----

> <Gold.Chemscore.Fitness>
17.6625

> <Gold.Chemscore.DG>
-19.1303

> <Gold.Chemscore.ZeroCoef>
-5.4800

> <Gold.Chemscore.Hbond>
2.9722

> <Gold.Chemscore.Metal>
0.0000

> <Gold.Chemscore.Lipo>
68.5311

> <Gold.Chemscore.Internal_Hbond>
0.0000

> <Gold.Chemscore.DEClash>
0.0086

> <Gold.Chemscore.DEInternal>
1.4591

> <Gold.Chemscore.Rot>
1.6777

> <Gold.Chemscore.Internal.Correction>
   9.000000E+99

> <Gold.Chemscore.Hbonds>
donor molecule, donor type, donor heavy atom, donor atom, acceptor molecule, acceptor atom, score
      L1  H     5    37       P1 10747  1.00
      L1  H     8    31       P1  7948  0.18
      P1  H  7989  7998       L1    14  0.48
      P1  H 10752 10763       L1    11  0.88

> <Gold.Chemscore.Hbond.Weighted>
-9.9271

> <Gold.Chemscore.Metal.Weighted>
-0.0000

> <Gold.Chemscore.Lipo.Weighted>
-8.0181

> <Gold.Chemscore.Internal_Hbond.Weighted>
0.0000

> <Gold.Chemscore.DEClash.Weighted>
0.0086

> <Gold.Chemscore.DEInternal.Weighted>
1.4591

> <Gold.Chemscore.Rot.Weighted>
4.2950

> <Gold.Chemscore.Internal.Correction.Weighted>
   9.000000E+99

> <Gold.Protein.RotatedTorsions>
[ 6907 6896 6895 6894 ] final  -95.02 input  -60.11 | X-H torsion
[ 7974 7965 7964 7962 ] final -174.56 input  175.53 | X-H torsion
[ 8008 7997 7996 7995 ] final -157.76 input   59.86 | X-H torsion
[ 10167 10162 10161 10158 ] final -141.28 input  -65.29 | X-H torsion
[ 10718 10713 10712 10709 ] final   83.84 input   66.30 | X-H torsion
[ 10763 10752 10751 10750 ] final   50.45 input  -60.55 | X-H torsion
[ 11005 11000 10999 10996 ] final   34.69 input  -57.11 | X-H torsion

> <Gold.Protein.ActiveResidues>
 VAL166  LYS551  ARG553  GLY616  TRP617  ASP618  TYR619  PRO620  LYS621  CYS622 
 ASP623  PHE694  ASN695  SER759  ASP760  ASP761  ALA762  ILE779  LEU786  VAL792 
 PHE793  MET794  SER795  GLU796  ALA797  LYS798  CYS799  TRP800  GLU811  SER814 

> <Gold.Protein.RotatedAtoms>
  150.6954  134.1722  159.4216 H   0  0  0  0  0  0  0  0  0  0  0  0  # atno 6907 bound_to 6896
  151.9699  135.0079  160.0561 H   0  0  0  0  0  0  0  0  0  0  0  0  # atno 6908 bound_to 6896
  152.1850  133.4698  159.5015 H   0  0  0  0  0  0  0  0  0  0  0  0  # atno 6909 bound_to 6896
  144.7131  140.1453  143.6388 H   0  0  0  0  0  0  0  0  0  0  0  0  # atno 7974 bound_to 7965
  155.7374  140.0810  157.2261 H   0  0  0  0  0  0  0  0  0  0  0  0  # atno 8008 bound_to 7997
  154.4026  140.1584  156.2632 H   0  0  0  0  0  0  0  0  0  0  0  0  # atno 8009 bound_to 7997
  155.9053  140.3407  155.6060 H   0  0  0  0  0  0  0  0  0  0  0  0  # atno 8010 bound_to 7997
  139.8200  143.7586  152.2666 H   0  0  0  0  0  0  0  0  0  0  0  0  # atno 10167 bound_to 10162
  157.6887  131.0108  150.2584 H   0  0  0  0  0  0  0  0  0  0  0  0  # atno 10718 bound_to 10713
  152.9785  135.5878  154.4254 H   0  0  0  0  0  0  0  0  0  0  0  0  # atno 10763 bound_to 10752
  154.3874  135.2767  155.2177 H   0  0  0  0  0  0  0  0  0  0  0  0  # atno 10764 bound_to 10752
  154.4064  135.6091  153.5981 H   0  0  0  0  0  0  0  0  0  0  0  0  # atno 10765 bound_to 10752
  140.2503  134.3311  155.7893 H   0  0  0  0  0  0  0  0  0  0  0  0  # atno 11005 bound_to 11000
  145.9165  139.2519  143.1406 LP  0  0  0  0  0  0  0  0  0  0  0  0  # atno 17320 bound_to 7965
  145.9663  140.8796  143.0185 LP  0  0  0  0  0  0  0  0  0  0  0  0  # atno 17321 bound_to 7965
  139.7762  144.7460  151.0154 LP  0  0  0  0  0  0  0  0  0  0  0  0  # atno 17342 bound_to 10162
  140.7814  143.4591  151.0303 LP  0  0  0  0  0  0  0  0  0  0  0  0  # atno 17343 bound_to 10162
  156.3168  130.3780  149.7611 LP  0  0  0  0  0  0  0  0  0  0  0  0  # atno 17370 bound_to 10713
  156.5194  130.8208  151.3198 LP  0  0  0  0  0  0  0  0  0  0  0  0  # atno 17371 bound_to 10713
  141.2202  133.7349  156.9026 LP  0  0  0  0  0  0  0  0  0  0  0  0  # atno 17394 bound_to 11000
  140.1565  134.9195  157.2660 LP  0  0  0  0  0  0  0  0  0  0  0  0  # atno 17395 bound_to 11000

$$$$
