AV-unprocessed.smi:3283|AV-procd|sdf|12569|dock6
  -GOLD-   2272018493D 1   1.00000     0.00000
 Structure written by MMmdl.
 44 45  0  0  0  0  0  0  0  0  2 V2000
  150.8857  139.9104  154.6428 C   0  0  0  0  0  0  0  0  0  0  0  0
  149.3900  139.9547  154.3778 C   0  0  0  0  0  0  0  0  0  0  0  0
  148.8213  139.0111  153.6033 C   0  0  0  0  0  0  0  0  0  0  0  0
  147.3625  138.9971  153.2096 C   0  0  0  0  0  0  0  0  0  0  0  0
  146.7433  140.3895  153.3509 C   0  0  0  0  0  0  0  0  0  0  0  0
  147.0507  141.0041  154.7262 C   0  0  2  0  0  0  0  0  0  0  0  0
  146.3310  142.3613  154.8526 C   0  0  0  0  0  0  0  0  0  0  0  0
  148.5831  141.1142  154.9981 C   0  0  1  0  0  0  0  0  0  0  0  0
  148.8426  141.2799  156.5192 C   0  0  0  0  0  0  0  0  0  0  0  0
  150.0296  142.1085  156.8106 N   0  3  0  0  0  0  0  0  0  0  0  0
  150.6345  141.8600  158.1339 C   0  0  0  0  0  0  0  0  0  0  0  0
  151.9266  142.6679  158.3286 C   0  0  0  0  0  0  0  0  0  0  0  0
  152.5019  142.5579  159.7078 C   0  0  0  0  0  0  0  0  0  0  0  0
  153.2375  141.5487  160.2634 C   0  0  0  0  0  0  0  0  0  0  0  0
  153.4845  141.9882  161.5928 C   0  0  0  0  0  0  0  0  0  0  0  0
  152.9458  143.1685  161.8430 N   0  0  0  0  0  0  0  0  0  0  0  0
  152.3470  143.5259  160.6872 N   0  0  0  0  0  0  0  0  0  0  0  0
  151.6532  144.7991  160.6241 C   0  0  0  0  0  0  0  0  0  0  0  0
  151.3421  140.8725  154.4117 H   0  0  0  0  0  0  0  0  0  0  0  0
  151.3751  139.1580  154.0233 H   0  0  0  0  0  0  0  0  0  0  0  0
  151.0921  139.6578  155.6825 H   0  0  0  0  0  0  0  0  0  0  0  0
  149.4212  138.2041  153.2075 H   0  0  0  0  0  0  0  0  0  0  0  0
  147.2737  138.6576  152.1773 H   0  0  0  0  0  0  0  0  0  0  0  0
  146.8385  138.2719  153.8329 H   0  0  0  0  0  0  0  0  0  0  0  0
  147.1301  141.0409  152.5654 H   0  0  0  0  0  0  0  0  0  0  0  0
  145.6661  140.3232  153.1934 H   0  0  0  0  0  0  0  0  0  0  0  0
  146.6233  140.3321  155.4724 H   0  0  0  0  0  0  0  0  0  0  0  0
  146.7227  143.0838  154.1357 H   0  0  0  0  0  0  0  0  0  0  0  0
  146.4296  142.7960  155.8461 H   0  0  0  0  0  0  0  0  0  0  0  0
  145.2629  142.2553  154.6597 H   0  0  0  0  0  0  0  0  0  0  0  0
  148.9350  142.0143  154.4918 H   0  0  0  0  0  0  0  0  0  0  0  0
  147.9965  141.7549  157.0131 H   0  0  0  0  0  0  0  0  0  0  0  0
  148.9555  140.2989  156.9833 H   0  0  0  0  0  0  0  0  0  0  0  0
  150.7256  141.9266  156.1015 H   0  0  0  0  0  0  0  0  0  0  0  0
  149.9161  142.1121  158.9152 H   0  0  0  0  0  0  0  0  0  0  0  0
  150.8512  140.7952  158.2296 H   0  0  0  0  0  0  0  0  0  0  0  0
  152.6693  142.3159  157.6120 H   0  0  0  0  0  0  0  0  0  0  0  0
  151.7489  143.7117  158.0702 H   0  0  0  0  0  0  0  0  0  0  0  0
  153.5517  140.6299  159.7905 H   0  0  0  0  0  0  0  0  0  0  0  0
  154.0325  141.4877  162.3775 H   0  0  0  0  0  0  0  0  0  0  0  0
  151.9213  145.3275  159.7092 H   0  0  0  0  0  0  0  0  0  0  0  0
  151.9250  145.4256  161.4752 H   0  0  0  0  0  0  0  0  0  0  0  0
  150.5770  144.6319  160.6431 H   0  0  0  0  0  0  0  0  0  0  0  0
  149.7618  143.0811  156.7574 H   0  0  0  0  0  0  0  0  0  0  0  0
  1  2  1  0  0  0  0
  1 19  1  0  0  0  0
  1 20  1  0  0  0  0
  1 21  1  0  0  0  0
  2  8  1  0  0  0  0
  2  3  2  0  0  0  0
  3  4  1  0  0  0  0
  3 22  1  0  0  0  0
  4  5  1  0  0  0  0
  4 23  1  0  0  0  0
  4 24  1  0  0  0  0
  5  6  1  0  0  0  0
  5 25  1  0  0  0  0
  5 26  1  0  0  0  0
  6  7  1  0  0  0  0
  6  8  1  0  0  0  0
  6 27  1  0  0  0  0
  7 28  1  0  0  0  0
  7 29  1  0  0  0  0
  7 30  1  0  0  0  0
  8  9  1  0  0  0  0
  8 31  1  0  0  0  0
  9 10  1  0  0  0  0
  9 32  1  0  0  0  0
  9 33  1  0  0  0  0
 10 11  1  0  0  0  0
 10 34  1  0  0  0  0
 10 44  1  0  0  0  0
 11 12  1  0  0  0  0
 11 35  1  0  0  0  0
 11 36  1  0  0  0  0
 12 13  1  0  0  0  0
 12 37  1  0  0  0  0
 12 38  1  0  0  0  0
 13 17  1  0  0  0  0
 13 14  2  0  0  0  0
 14 15  1  0  0  0  0
 14 39  1  0  0  0  0
 15 16  2  0  0  0  0
 15 40  1  0  0  0  0
 16 17  1  0  0  0  0
 17 18  1  0  0  0  0
 18 41  1  0  0  0  0
 18 42  1  0  0  0  0
 18 43  1  0  0  0  0
M  CHG  1  10   1
M  END
> <s_m_source_file>
AV-unprocessed.smi

> <i_m_source_file_index>
3283

> <i_lp_mmshare_version>
43012

> <i_f3d_flags>
0

> <s_epik_input>
W0NIM11DMT1bQ0hdW0NIMl1bQ0gyXVtDQEBIXShbQ0gzXSlbQ0BIXTFbQ0gyXVtOSF1bQ0gyXVtDSDJdYzJbY0hdW2NIXW5uMltDSDNd

> <s_epik_cmdline>
J2VwaWtfcHl0aG9uJywgJy1waCcsICc3LjAnLCAnLXRuJywgJzgnLCAnLW1hJywgJzIwMCcsICctbWV0YWxfYmluZGluZycsICctaW1hZScsICc8aW5maWxlLm1hZT4nLCAnLW9tYWUnLCAnPG91dGZpbGUubWFlPic=

> <r_lp_tautomer_probability>
1

> <r_epik_Ionization_Penalty>
0.000866911

> <r_epik_Ionization_Penalty_Charging>
0.000836385

> <r_epik_Ionization_Penalty_Neutral>
3.05258e-05

> <r_epik_State_Penalty>
-0

> <r_epik_Charging_Adjusted_Penalty>
0.000836385

> <i_epik_Tot_Q>
1

> <i_epik_Tot_abs_Q>
1

> <r_epik_Metal_State_Penalty>
-0

> <b_epik_Metal_Only>
0

> <s_lp_Force_Field>
OPLS_2005

> <r_lp_Energy>
14.6109

> <b_lp_Chiralities_Consistent>
1

> <s_lp_Variant>
AV-unprocessed.smi:3283-2

> <Gold.Version>
5.8.1

> <Gold.Id.Protein>
6NUR|6NUR_protein|mol2

> <Gold.PLP.Fitness>
50.2307

> <Gold.PLP.PLP>
-45.8188

> <Gold.PLP.part.hbond>
-1.0000

> <Gold.PLP.part.metal>
0.0000

> <Gold.PLP.part.buried>
-0.7117

> <Gold.PLP.part.nonpolar>
-43.3765

> <Gold.PLP.part.repulsive>
0.2137

> <Gold.PLP.ligand.clash>
0.0000

> <Gold.PLP.ligand.torsion>
0.7590

> <Gold.PLP.Chemscore.Hbond>
1.9520

> <Gold.PLP.Chemscore.CHOScore>
0.0000

> <Gold.PLP.Chemscore.Metal>
0.0000

> <Gold.Chemscore.Hbonds>
donor molecule, donor type, donor heavy atom, donor atom, acceptor molecule, acceptor atom, score
      L1  H    10    44       P1  8028  1.37

> <Gold.PLP.Chemscore.Internal.Correction>
0.0737

> <Gold.Rescore>
     Score         DG    S(hbond)    S(metal)    S(lipo)     H(rot)  DE(clash)    DE(int)     intcor
     17.89     -18.81       0.99        0.00     118.26       1.48       0.10       0.82       ----

> <Gold.Chemscore.Fitness>
17.8859

> <Gold.Chemscore.DG>
-18.8053

> <Gold.Chemscore.ZeroCoef>
-5.4800

> <Gold.Chemscore.Hbond>
0.9850

> <Gold.Chemscore.Metal>
0.0000

> <Gold.Chemscore.Lipo>
118.2566

> <Gold.Chemscore.Internal_Hbond>
0.0000

> <Gold.Chemscore.DEClash>
0.1015

> <Gold.Chemscore.DEInternal>
0.8179

> <Gold.Chemscore.Rot>
1.4847

> <Gold.Chemscore.Internal.Correction>
   9.000000E+99

> <Gold.Chemscore.Hbonds>
donor molecule, donor type, donor heavy atom, donor atom, acceptor molecule, acceptor atom, score
      L1  H    10    44       P1  8028  0.66

> <Gold.Chemscore.Hbond.Weighted>
-3.2901

> <Gold.Chemscore.Metal.Weighted>
-0.0000

> <Gold.Chemscore.Lipo.Weighted>
-13.8360

> <Gold.Chemscore.Internal_Hbond.Weighted>
0.0000

> <Gold.Chemscore.DEClash.Weighted>
0.1015

> <Gold.Chemscore.DEInternal.Weighted>
0.8179

> <Gold.Chemscore.Rot.Weighted>
3.8008

> <Gold.Chemscore.Internal.Correction.Weighted>
   9.000000E+99

> <Gold.Protein.RotatedTorsions>
[ 6907 6896 6895 6894 ] final -170.04 input  -60.11 | X-H torsion
[ 7974 7965 7964 7962 ] final  -44.14 input  175.53 | X-H torsion
[ 8008 7997 7996 7995 ] final -104.52 input   59.86 | X-H torsion
[ 10167 10162 10161 10158 ] final  147.34 input  -65.29 | X-H torsion
[ 10718 10713 10712 10709 ] final   -2.41 input   66.30 | X-H torsion
[ 10763 10752 10751 10750 ] final   44.90 input  -60.55 | X-H torsion
[ 11005 11000 10999 10996 ] final  143.77 input  -57.11 | X-H torsion

> <Gold.Protein.ActiveResidues>
 VAL166  LYS551  ARG553  GLY616  TRP617  ASP618  TYR619  PRO620  LYS621  CYS622 
 ASP623  PHE694  ASN695  SER759  ASP760  ASP761  ALA762  ILE779  LEU786  VAL792 
 PHE793  MET794  SER795  GLU796  ALA797  LYS798  CYS799  TRP800  GLU811  SER814 

> <Gold.Protein.RotatedAtoms>
  151.5013  133.3504  159.2869 H   0  0  0  0  0  0  0  0  0  0  0  0  # atno 6907 bound_to 6896
  150.8771  134.8158  159.7209 H   0  0  0  0  0  0  0  0  0  0  0  0  # atno 6908 bound_to 6896
  152.4738  134.4905  159.9746 H   0  0  0  0  0  0  0  0  0  0  0  0  # atno 6909 bound_to 6896
  145.9950  140.7139  142.9298 H   0  0  0  0  0  0  0  0  0  0  0  0  # atno 7974 bound_to 7965
  154.8866  140.0417  157.1814 H   0  0  0  0  0  0  0  0  0  0  0  0  # atno 8008 bound_to 7997
  154.8584  140.2940  155.5533 H   0  0  0  0  0  0  0  0  0  0  0  0  # atno 8009 bound_to 7997
  156.2998  140.2451  156.3554 H   0  0  0  0  0  0  0  0  0  0  0  0  # atno 8010 bound_to 7997
  139.4892  144.5763  151.6959 H   0  0  0  0  0  0  0  0  0  0  0  0  # atno 10167 bound_to 10162
  156.7912  130.5362  149.5735 H   0  0  0  0  0  0  0  0  0  0  0  0  # atno 10718 bound_to 10713
  152.9833  135.6056  154.3349 H   0  0  0  0  0  0  0  0  0  0  0  0  # atno 10763 bound_to 10752
  154.3050  135.2772  155.2595 H   0  0  0  0  0  0  0  0  0  0  0  0  # atno 10764 bound_to 10752
  154.4830  135.5912  153.6459 H   0  0  0  0  0  0  0  0  0  0  0  0  # atno 10765 bound_to 10752
  140.0580  134.9220  157.1134 H   0  0  0  0  0  0  0  0  0  0  0  0  # atno 11005 bound_to 11000
  144.6900  140.3134  143.7244 LP  0  0  0  0  0  0  0  0  0  0  0  0  # atno 17320 bound_to 7965
  145.7574  139.1813  143.2287 LP  0  0  0  0  0  0  0  0  0  0  0  0  # atno 17321 bound_to 7965
  140.5359  144.0656  150.6070 LP  0  0  0  0  0  0  0  0  0  0  0  0  # atno 17342 bound_to 10162
  140.3662  143.2880  152.0329 LP  0  0  0  0  0  0  0  0  0  0  0  0  # atno 17343 bound_to 10162
  156.1158  130.6074  151.0118 LP  0  0  0  0  0  0  0  0  0  0  0  0  # atno 17370 bound_to 10713
  157.6600  131.0882  150.7861 LP  0  0  0  0  0  0  0  0  0  0  0  0  # atno 17371 bound_to 10713
  140.3814  134.2282  155.7171 LP  0  0  0  0  0  0  0  0  0  0  0  0  # atno 17394 bound_to 11000
  141.1960  133.8091  157.0689 LP  0  0  0  0  0  0  0  0  0  0  0  0  # atno 17395 bound_to 11000

$$$$
