AV-unprocessed.smi:777|AV-procd|sdf|3702|dock6
  -GOLD-   22720 1123D 1   1.00000     0.00000
 Structure written by MMmdl.
 37 38  0  0  0  0  0  0  0  0  2 V2000
  153.5940  140.8867  160.4252 C   0  0  0  0  0  0  0  0  0  0  0  0
  153.3038  141.1784  158.9382 C   0  0  1  0  0  0  0  0  0  0  0  0
  152.5303  140.0489  158.2372 C   0  0  0  0  0  0  0  0  0  0  0  0
  152.1728  139.0556  158.8697 O   0  0  0  0  0  0  0  0  0  0  0  0
  152.2973  140.2469  156.9261 N   0  0  0  0  0  0  0  0  0  0  0  0
  151.4696  139.5255  155.9455 C   0  0  0  0  0  0  0  0  0  0  0  0
  152.4656  138.8413  154.9773 C   0  0  0  0  0  0  0  0  0  0  0  0
  152.3568  137.6076  154.7973 O   0  0  0  0  0  0  0  0  0  0  0  0
  153.3552  139.5519  154.4561 O   0  5  0  0  0  0  0  0  0  0  0  0
  150.4701  138.4728  156.5280 C   0  0  0  0  0  0  0  0  0  0  0  0
  149.2990  139.0920  157.3178 C   0  0  0  0  0  0  0  0  0  0  0  0
  148.5511  140.1396  156.4856 C   0  0  0  0  0  0  0  0  0  0  0  0
  149.5161  141.2165  155.9777 C   0  0  0  0  0  0  0  0  0  0  0  0
  150.6587  140.5941  155.1562 C   0  0  0  0  0  0  0  0  0  0  0  0
  152.6121  142.4504  158.7535 N   0  0  0  0  0  0  0  0  0  0  0  0
  152.9941  143.6964  159.2089 C   0  0  0  0  0  0  0  0  0  0  0  0
  152.0768  144.5996  158.7544 C   0  0  0  0  0  0  0  0  0  0  0  0
  151.1635  143.8058  158.0073 C   0  0  0  0  0  0  0  0  0  0  0  0
  151.4885  142.5239  158.0023 N   0  0  0  0  0  0  0  0  0  0  0  0
  154.1728  139.9696  160.5406 H   0  0  0  0  0  0  0  0  0  0  0  0
  152.6781  140.7745  161.0071 H   0  0  0  0  0  0  0  0  0  0  0  0
  154.1727  141.6946  160.8736 H   0  0  0  0  0  0  0  0  0  0  0  0
  154.2673  141.2611  158.4326 H   0  0  0  0  0  0  0  0  0  0  0  0
  152.7119  141.0864  156.5495 H   0  0  0  0  0  0  0  0  0  0  0  0
  150.0395  137.9056  155.7011 H   0  0  0  0  0  0  0  0  0  0  0  0
  150.9781  137.7274  157.1396 H   0  0  0  0  0  0  0  0  0  0  0  0
  148.6096  138.3060  157.6266 H   0  0  0  0  0  0  0  0  0  0  0  0
  149.6590  139.5550  158.2359 H   0  0  0  0  0  0  0  0  0  0  0  0
  148.0607  139.6564  155.6396 H   0  0  0  0  0  0  0  0  0  0  0  0
  147.7624  140.5965  157.0839 H   0  0  0  0  0  0  0  0  0  0  0  0
  148.9738  141.9381  155.3665 H   0  0  0  0  0  0  0  0  0  0  0  0
  149.9251  141.7737  156.8218 H   0  0  0  0  0  0  0  0  0  0  0  0
  151.3119  141.3960  154.8076 H   0  0  0  0  0  0  0  0  0  0  0  0
  150.2316  140.1438  154.2582 H   0  0  0  0  0  0  0  0  0  0  0  0
  153.8812  143.8353  159.8091 H   0  0  0  0  0  0  0  0  0  0  0  0
  152.0649  145.6661  158.9233 H   0  0  0  0  0  0  0  0  0  0  0  0
  150.2829  144.1215  157.4675 H   0  0  0  0  0  0  0  0  0  0  0  0
  1  2  1  0  0  0  0
  1 20  1  0  0  0  0
  1 21  1  0  0  0  0
  1 22  1  0  0  0  0
  2  3  1  0  0  0  0
  2 15  1  0  0  0  0
  2 23  1  0  0  0  0
  3  4  2  0  0  0  0
  3  5  1  0  0  0  0
  5  6  1  0  0  0  0
  5 24  1  0  0  0  0
  6 14  1  0  0  0  0
  6  7  1  0  0  0  0
  6 10  1  0  0  0  0
  7  8  2  0  0  0  0
  7  9  1  0  0  0  0
 10 11  1  0  0  0  0
 10 25  1  0  0  0  0
 10 26  1  0  0  0  0
 11 12  1  0  0  0  0
 11 27  1  0  0  0  0
 11 28  1  0  0  0  0
 12 13  1  0  0  0  0
 12 29  1  0  0  0  0
 12 30  1  0  0  0  0
 13 14  1  0  0  0  0
 13 31  1  0  0  0  0
 13 32  1  0  0  0  0
 14 33  1  0  0  0  0
 14 34  1  0  0  0  0
 15 19  1  0  0  0  0
 15 16  1  0  0  0  0
 16 17  2  0  0  0  0
 16 35  1  0  0  0  0
 17 18  1  0  0  0  0
 17 36  1  0  0  0  0
 18 19  2  0  0  0  0
 18 37  1  0  0  0  0
M  CHG  1   9  -1
M  END
> <s_m_source_file>
AV-unprocessed.smi

> <i_m_source_file_index>
777

> <i_lp_mmshare_version>
43012

> <i_f3d_flags>
0

> <s_epik_input>
bjFbY0hdW2NIXVtjSF1uMVtDQEhdKFtDSDNdKUMoPU8pW05IXUMyKEMoPU8pW09IXSlbQ0gyXVtDSDJdW0NIMl1bQ0gyXVtDSDJdMg==

> <s_epik_cmdline>
J2VwaWtfcHl0aG9uJywgJy1waCcsICc3LjAnLCAnLXRuJywgJzgnLCAnLW1hJywgJzIwMCcsICctbWV0YWxfYmluZGluZycsICctaW1hZScsICc8aW5maWxlLm1hZT4nLCAnLW9tYWUnLCAnPG91dGZpbGUubWFlPic=

> <r_lp_tautomer_probability>
1

> <r_epik_Ionization_Penalty>
0.000371068

> <r_epik_Ionization_Penalty_Charging>
0.000323848

> <r_epik_Ionization_Penalty_Neutral>
4.72198e-05

> <r_epik_State_Penalty>
0.000195685

> <r_epik_Charging_Adjusted_Penalty>
0.000519533

> <i_epik_Tot_Q>
-1

> <i_epik_Tot_abs_Q>
1

> <r_epik_Metal_State_Penalty>
-0

> <b_epik_Metal_Only>
0

> <s_lp_Force_Field>
OPLS_2005

> <r_lp_Energy>
12.5044

> <b_lp_Chiralities_Consistent>
1

> <s_lp_Variant>
AV-unprocessed.smi:777-2

> <Gold.Version>
5.8.1

> <Gold.Id.Protein>
6NUR|6NUR_protein|mol2

> <Gold.PLP.Fitness>
48.6394

> <Gold.PLP.PLP>
-34.8621

> <Gold.PLP.part.hbond>
-2.0000

> <Gold.PLP.part.metal>
0.0000

> <Gold.PLP.part.buried>
-4.3266

> <Gold.PLP.part.nonpolar>
-29.8402

> <Gold.PLP.part.repulsive>
0.2027

> <Gold.PLP.ligand.clash>
0.0000

> <Gold.PLP.ligand.torsion>
0.3391

> <Gold.PLP.Chemscore.Hbond>
3.7600

> <Gold.PLP.Chemscore.CHOScore>
1.0000

> <Gold.PLP.Chemscore.Metal>
0.0000

> <Gold.Chemscore.Hbonds>
donor molecule, donor type, donor heavy atom, donor atom, acceptor molecule, acceptor atom, score
      P1  H  7989  7998       L1     9  0.03
      P1  H  7997  8010       L1     9  1.95
      P1  H 10752 10765       L1     8  0.87
      L1  C    18    37       P1  8028  1.00

> <Gold.PLP.Chemscore.Internal.Correction>
0.1755

> <Gold.Rescore>
     Score         DG    S(hbond)    S(metal)    S(lipo)     H(rot)  DE(clash)    DE(int)     intcor
     13.53     -16.47       1.83        0.00      85.00       1.98       0.07       2.87       ----

> <Gold.Chemscore.Fitness>
13.5316

> <Gold.Chemscore.DG>
-16.4720

> <Gold.Chemscore.ZeroCoef>
-5.4800

> <Gold.Chemscore.Hbond>
1.8289

> <Gold.Chemscore.Metal>
0.0000

> <Gold.Chemscore.Lipo>
85.0029

> <Gold.Chemscore.Internal_Hbond>
0.0000

> <Gold.Chemscore.DEClash>
0.0739

> <Gold.Chemscore.DEInternal>
2.8664

> <Gold.Chemscore.Rot>
1.9774

> <Gold.Chemscore.Internal.Correction>
   9.000000E+99

> <Gold.Chemscore.Hbonds>
donor molecule, donor type, donor heavy atom, donor atom, acceptor molecule, acceptor atom, score
      P1  H  7997  8010       L1     9  0.41
      P1  H 10752 10765       L1     8  0.43

> <Gold.Chemscore.Hbond.Weighted>
-6.1087

> <Gold.Chemscore.Metal.Weighted>
-0.0000

> <Gold.Chemscore.Lipo.Weighted>
-9.9453

> <Gold.Chemscore.Internal_Hbond.Weighted>
0.0000

> <Gold.Chemscore.DEClash.Weighted>
0.0739

> <Gold.Chemscore.DEInternal.Weighted>
2.8664

> <Gold.Chemscore.Rot.Weighted>
5.0620

> <Gold.Chemscore.Internal.Correction.Weighted>
   9.000000E+99

> <Gold.Protein.RotatedTorsions>
[ 6907 6896 6895 6894 ] final  -15.09 input  -60.11 | X-H torsion
[ 7974 7965 7964 7962 ] final  -86.41 input  175.53 | X-H torsion
[ 8008 7997 7996 7995 ] final   95.30 input   59.86 | X-H torsion
[ 10167 10162 10161 10158 ] final   53.13 input  -65.29 | X-H torsion
[ 10718 10713 10712 10709 ] final -107.47 input   66.30 | X-H torsion
[ 10763 10752 10751 10750 ] final -170.40 input  -60.55 | X-H torsion
[ 11005 11000 10999 10996 ] final  -55.06 input  -57.11 | X-H torsion

> <Gold.Protein.ActiveResidues>
 VAL166  LYS551  ARG553  GLY616  TRP617  ASP618  TYR619  PRO620  LYS621  CYS622 
 ASP623  PHE694  ASN695  SER759  ASP760  ASP761  ALA762  ILE779  LEU786  VAL792 
 PHE793  MET794  SER795  GLU796  ALA797  LYS798  CYS799  TRP800  GLU811  SER814 

> <Gold.Protein.RotatedAtoms>
  151.3293  135.0838  159.9332 H   0  0  0  0  0  0  0  0  0  0  0  0  # atno 6907 bound_to 6896
  152.5238  133.9559  159.7704 H   0  0  0  0  0  0  0  0  0  0  0  0  # atno 6908 bound_to 6896
  150.9894  133.6112  159.2740 H   0  0  0  0  0  0  0  0  0  0  0  0  # atno 6909 bound_to 6896
  145.4803  140.9557  143.1868 H   0  0  0  0  0  0  0  0  0  0  0  0  # atno 7974 bound_to 7965
  156.0674  140.3288  155.7534 H   0  0  0  0  0  0  0  0  0  0  0  0  # atno 8008 bound_to 7997
  155.5359  140.0597  157.2897 H   0  0  0  0  0  0  0  0  0  0  0  0  # atno 8009 bound_to 7997
  154.4512  140.1919  156.0531 H   0  0  0  0  0  0  0  0  0  0  0  0  # atno 8010 bound_to 7997
  140.2441  144.3552  150.6370 H   0  0  0  0  0  0  0  0  0  0  0  0  # atno 10167 bound_to 10162
  156.0438  130.5664  150.7827 H   0  0  0  0  0  0  0  0  0  0  0  0  # atno 10718 bound_to 10713
  154.6419  135.2900  155.0093 H   0  0  0  0  0  0  0  0  0  0  0  0  # atno 10763 bound_to 10752
  154.1216  135.6547  153.4908 H   0  0  0  0  0  0  0  0  0  0  0  0  # atno 10764 bound_to 10752
  153.0331  135.5289  154.7290 H   0  0  0  0  0  0  0  0  0  0  0  0  # atno 10765 bound_to 10752
  141.1056  133.6613  156.4413 H   0  0  0  0  0  0  0  0  0  0  0  0  # atno 11005 bound_to 11000
  144.7893  139.6362  143.7120 LP  0  0  0  0  0  0  0  0  0  0  0  0  # atno 17320 bound_to 7965
  146.2345  139.5878  142.9533 LP  0  0  0  0  0  0  0  0  0  0  0  0  # atno 17321 bound_to 7965
  140.6091  143.2169  151.6921 LP  0  0  0  0  0  0  0  0  0  0  0  0  # atno 17342 bound_to 10162
  139.5068  144.3670  152.0507 LP  0  0  0  0  0  0  0  0  0  0  0  0  # atno 17343 bound_to 10162
  157.5290  131.0935  150.9980 LP  0  0  0  0  0  0  0  0  0  0  0  0  # atno 17370 bound_to 10713
  157.0292  130.5704  149.5341 LP  0  0  0  0  0  0  0  0  0  0  0  0  # atno 17371 bound_to 10713
  140.4911  134.6574  157.5211 LP  0  0  0  0  0  0  0  0  0  0  0  0  # atno 17394 bound_to 11000
  139.9924  134.6964  155.9666 LP  0  0  0  0  0  0  0  0  0  0  0  0  # atno 17395 bound_to 11000

$$$$
