AV-unprocessed.smi:891|AV-procd|sdf|4064|dock2
  -GOLD-   22720 1553D 1   1.00000     0.00000
 Structure written by MMmdl.
 38 38  0  0  0  0  0  0  0  0  1 V2000
  153.7438  140.7929  160.9253 C   0  0  0  0  0  0  0  0  0  0  0  0
  152.9387  141.8509  160.2287 C   0  0  0  0  0  0  0  0  0  0  0  0
  152.6022  141.6934  158.9576 N   0  0  0  0  0  0  0  0  0  0  0  0
  151.8856  142.7999  158.6336 N   0  0  0  0  0  0  0  0  0  0  0  0
  151.3550  142.9254  157.2836 C   0  0  0  0  0  0  0  0  0  0  0  0
  150.2927  141.8653  156.9685 C   0  0  0  0  0  0  0  0  0  0  0  0
  150.4856  140.6779  157.2338 O   0  0  0  0  0  0  0  0  0  0  0  0
  149.1641  142.3185  156.4009 N   0  0  0  0  0  0  0  0  0  0  0  0
  148.0179  141.5012  156.0104 C   0  0  0  0  0  0  0  0  0  0  0  0
  148.1563  140.9318  154.5811 C   0  0  1  0  0  0  0  0  0  0  0  0
  149.4893  140.1729  154.4528 C   0  0  0  0  0  0  0  0  0  0  0  0
  146.9495  140.0453  154.1847 C   0  0  0  0  0  0  0  0  0  0  0  0
  147.0323  139.4100  152.7861 C   0  0  0  0  0  0  0  0  0  0  0  0
  146.5964  140.3207  151.7990 O   0  0  0  0  0  0  0  0  0  0  0  0
  151.7656  143.6770  159.7004 C   0  0  0  0  0  0  0  0  0  0  0  0
  151.0257  144.9729  159.6193 C   0  0  0  0  0  0  0  0  0  0  0  0
  152.4361  143.0812  160.7273 C   0  0  0  0  0  0  0  0  0  0  0  0
  152.6330  143.7019  162.3262 Cl  0  0  0  0  0  0  0  0  0  0  0  0
  153.9255  141.0526  161.9681 H   0  0  0  0  0  0  0  0  0  0  0  0
  154.7127  140.6580  160.4445 H   0  0  0  0  0  0  0  0  0  0  0  0
  153.2267  139.8334  160.9090 H   0  0  0  0  0  0  0  0  0  0  0  0
  150.9349  143.9253  157.1670 H   0  0  0  0  0  0  0  0  0  0  0  0
  152.1711  142.8390  156.5646 H   0  0  0  0  0  0  0  0  0  0  0  0
  149.0935  143.3097  156.2211 H   0  0  0  0  0  0  0  0  0  0  0  0
  147.9576  140.6813  156.7269 H   0  0  0  0  0  0  0  0  0  0  0  0
  147.0824  142.0544  156.1093 H   0  0  0  0  0  0  0  0  0  0  0  0
  148.1975  141.7811  153.8978 H   0  0  0  0  0  0  0  0  0  0  0  0
  149.4940  139.2731  155.0685 H   0  0  0  0  0  0  0  0  0  0  0  0
  150.3271  140.7948  154.7695 H   0  0  0  0  0  0  0  0  0  0  0  0
  149.6889  139.8770  153.4234 H   0  0  0  0  0  0  0  0  0  0  0  0
  146.8300  139.2552  154.9270 H   0  0  0  0  0  0  0  0  0  0  0  0
  146.0300  140.6273  154.2256 H   0  0  0  0  0  0  0  0  0  0  0  0
  148.0413  139.0708  152.5546 H   0  0  0  0  0  0  0  0  0  0  0  0
  146.3903  138.5299  152.7439 H   0  0  0  0  0  0  0  0  0  0  0  0
  145.6864  140.5210  151.9564 H   0  0  0  0  0  0  0  0  0  0  0  0
  151.1118  145.5335  160.5501 H   0  0  0  0  0  0  0  0  0  0  0  0
  149.9663  144.8019  159.4299 H   0  0  0  0  0  0  0  0  0  0  0  0
  151.4183  145.5972  158.8168 H   0  0  0  0  0  0  0  0  0  0  0  0
  1  2  1  0  0  0  0
  1 19  1  0  0  0  0
  1 20  1  0  0  0  0
  1 21  1  0  0  0  0
  2 17  1  0  0  0  0
  2  3  2  0  0  0  0
  3  4  1  0  0  0  0
  4  5  1  0  0  0  0
  4 15  1  0  0  0  0
  5  6  1  0  0  0  0
  5 22  1  0  0  0  0
  5 23  1  0  0  0  0
  6  7  2  0  0  0  0
  6  8  1  0  0  0  0
  8  9  1  0  0  0  0
  8 24  1  0  0  0  0
  9 10  1  0  0  0  0
  9 25  1  0  0  0  0
  9 26  1  0  0  0  0
 10 11  1  0  0  0  0
 10 12  1  0  0  0  0
 10 27  1  0  0  0  0
 11 28  1  0  0  0  0
 11 29  1  0  0  0  0
 11 30  1  0  0  0  0
 12 13  1  0  0  0  0
 12 31  1  0  0  0  0
 12 32  1  0  0  0  0
 13 14  1  0  0  0  0
 13 33  1  0  0  0  0
 13 34  1  0  0  0  0
 14 35  1  0  0  0  0
 15 16  1  0  0  0  0
 15 17  2  0  0  0  0
 16 36  1  0  0  0  0
 16 37  1  0  0  0  0
 16 38  1  0  0  0  0
 17 18  1  0  0  0  0
M  END
> <s_m_source_file>
AV-unprocessed.smi

> <i_m_source_file_index>
891

> <i_lp_mmshare_version>
43012

> <i_f3d_flags>
0

> <s_epik_input>
W0NIM11jMW5uKGMoW0NIM10pYzFDbClbQ0gyXUMoPU8pW05IXVtDSDJdW0NASF0oW0NIM10pW0NIMl1bQ0gyXVtPSF0=

> <s_epik_cmdline>
J2VwaWtfcHl0aG9uJywgJy1waCcsICc3LjAnLCAnLXRuJywgJzgnLCAnLW1hJywgJzIwMCcsICctbWV0YWxfYmluZGluZycsICctaW1hZScsICc8aW5maWxlLm1hZT4nLCAnLW9tYWUnLCAnPG91dGZpbGUubWFlPic=

> <r_lp_tautomer_probability>
1

> <r_epik_Ionization_Penalty>
4.9564e-06

> <r_epik_Ionization_Penalty_Charging>
0

> <r_epik_Ionization_Penalty_Neutral>
4.9564e-06

> <r_epik_State_Penalty>
-0

> <r_epik_Charging_Adjusted_Penalty>
0

> <i_epik_Tot_Q>
0

> <i_epik_Tot_abs_Q>
0

> <r_epik_Metal_State_Penalty>
-0

> <b_epik_Metal_Only>
0

> <s_lp_Force_Field>
OPLS_2005

> <r_lp_Energy>
8.21906

> <b_lp_Chiralities_Consistent>
1

> <s_lp_Variant>
AV-unprocessed.smi:891-2

> <Gold.Version>
5.8.1

> <Gold.Id.Protein>
6NUR|6NUR_protein|mol2

> <Gold.PLP.Fitness>
46.5164

> <Gold.PLP.PLP>
-41.3583

> <Gold.PLP.part.hbond>
-2.9113

> <Gold.PLP.part.metal>
0.0000

> <Gold.PLP.part.buried>
-5.5542

> <Gold.PLP.part.nonpolar>
-32.9270

> <Gold.PLP.part.repulsive>
0.0675

> <Gold.PLP.ligand.clash>
0.0000

> <Gold.PLP.ligand.torsion>
0.4970

> <Gold.PLP.Chemscore.Hbond>
1.9913

> <Gold.PLP.Chemscore.CHOScore>
0.0000

> <Gold.PLP.Chemscore.Metal>
0.0000

> <Gold.Chemscore.Hbonds>
donor molecule, donor type, donor heavy atom, donor atom, acceptor molecule, acceptor atom, score
      L1  H     8    24       P1  8028  1.00
      L1  H    14    35       P1 10175  0.72

> <Gold.PLP.Chemscore.Internal.Correction>
0.1784

> <Gold.Rescore>
     Score         DG    S(hbond)    S(metal)    S(lipo)     H(rot)  DE(clash)    DE(int)     intcor
     15.38     -17.32       1.93        0.00     103.51       2.62       0.10       1.84       ----

> <Gold.Chemscore.Fitness>
15.3800

> <Gold.Chemscore.DG>
-17.3243

> <Gold.Chemscore.ZeroCoef>
-5.4800

> <Gold.Chemscore.Hbond>
1.9320

> <Gold.Chemscore.Metal>
0.0000

> <Gold.Chemscore.Lipo>
103.5110

> <Gold.Chemscore.Internal_Hbond>
0.0000

> <Gold.Chemscore.DEClash>
0.1006

> <Gold.Chemscore.DEInternal>
1.8437

> <Gold.Chemscore.Rot>
2.6247

> <Gold.Chemscore.Internal.Correction>
   9.000000E+99

> <Gold.Chemscore.Hbonds>
donor molecule, donor type, donor heavy atom, donor atom, acceptor molecule, acceptor atom, score
      L1  H     8    24       P1  8028  0.93
      L1  H    14    35       P1 10175  0.08

> <Gold.Chemscore.Hbond.Weighted>
-6.4527

> <Gold.Chemscore.Metal.Weighted>
-0.0000

> <Gold.Chemscore.Lipo.Weighted>
-12.1108

> <Gold.Chemscore.Internal_Hbond.Weighted>
0.0000

> <Gold.Chemscore.DEClash.Weighted>
0.1006

> <Gold.Chemscore.DEInternal.Weighted>
1.8437

> <Gold.Chemscore.Rot.Weighted>
6.7192

> <Gold.Chemscore.Internal.Correction.Weighted>
   9.000000E+99

> <Gold.Protein.RotatedTorsions>
[ 6907 6896 6895 6894 ] final  -27.20 input  -60.11 | X-H torsion
[ 7974 7965 7964 7962 ] final  155.04 input  175.53 | X-H torsion
[ 8008 7997 7996 7995 ] final   59.47 input   59.86 | X-H torsion
[ 10167 10162 10161 10158 ] final -114.52 input  -65.29 | X-H torsion
[ 10718 10713 10712 10709 ] final   16.95 input   66.30 | X-H torsion
[ 10763 10752 10751 10750 ] final  -65.66 input  -60.55 | X-H torsion
[ 11005 11000 10999 10996 ] final  115.99 input  -57.11 | X-H torsion

> <Gold.Protein.ActiveResidues>
 VAL166  LYS551  ARG553  GLY616  TRP617  ASP618  TYR619  PRO620  LYS621  CYS622 
 ASP623  PHE694  ASN695  SER759  ASP760  ASP761  ALA762  ILE779  LEU786  VAL792 
 PHE793  MET794  SER795  GLU796  ALA797  LYS798  CYS799  TRP800  GLU811  SER814 

> <Gold.Protein.RotatedAtoms>
  151.1503  135.0224  159.8664 H   0  0  0  0  0  0  0  0  0  0  0  0  # atno 6907 bound_to 6896
  152.5453  134.1397  159.8484 H   0  0  0  0  0  0  0  0  0  0  0  0  # atno 6908 bound_to 6896
  151.1481  133.4880  159.2628 H   0  0  0  0  0  0  0  0  0  0  0  0  # atno 6909 bound_to 6896
  144.8050  139.7014  143.6166 H   0  0  0  0  0  0  0  0  0  0  0  0  # atno 7974 bound_to 7965
  155.5667  140.3489  155.4505 H   0  0  0  0  0  0  0  0  0  0  0  0  # atno 8008 bound_to 7997
  156.0474  140.1310  157.0114 H   0  0  0  0  0  0  0  0  0  0  0  0  # atno 8009 bound_to 7997
  154.4419  140.1011  156.6311 H   0  0  0  0  0  0  0  0  0  0  0  0  # atno 8010 bound_to 7997
  140.1000  143.4621  152.1818 H   0  0  0  0  0  0  0  0  0  0  0  0  # atno 10167 bound_to 10162
  157.0752  130.6365  149.5814 H   0  0  0  0  0  0  0  0  0  0  0  0  # atno 10718 bound_to 10713
  154.3484  135.6142  153.5630 H   0  0  0  0  0  0  0  0  0  0  0  0  # atno 10763 bound_to 10752
  152.9800  135.5786  154.4772 H   0  0  0  0  0  0  0  0  0  0  0  0  # atno 10764 bound_to 10752
  154.4489  135.2852  155.1772 H   0  0  0  0  0  0  0  0  0  0  0  0  # atno 10765 bound_to 10752
  139.9027  134.9592  156.7129 H   0  0  0  0  0  0  0  0  0  0  0  0  # atno 11005 bound_to 11000
  146.2340  139.5868  142.9536 LP  0  0  0  0  0  0  0  0  0  0  0  0  # atno 17320 bound_to 7965
  145.5460  141.0417  143.2305 LP  0  0  0  0  0  0  0  0  0  0  0  0  # atno 17321 bound_to 7965
  139.5676  144.7444  151.3978 LP  0  0  0  0  0  0  0  0  0  0  0  0  # atno 17342 bound_to 10162
  140.6983  143.7695  150.7361 LP  0  0  0  0  0  0  0  0  0  0  0  0  # atno 17343 bound_to 10162
  155.9939  130.5001  150.7399 LP  0  0  0  0  0  0  0  0  0  0  0  0  # atno 17370 bound_to 10713
  157.4845  131.0905  151.0498 LP  0  0  0  0  0  0  0  0  0  0  0  0  # atno 17371 bound_to 10713
  140.7061  133.9264  155.8055 LP  0  0  0  0  0  0  0  0  0  0  0  0  # atno 17394 bound_to 11000
  141.0335  134.0722  157.3986 LP  0  0  0  0  0  0  0  0  0  0  0  0  # atno 17395 bound_to 11000

$$$$
