AV-unprocessed.smi:2764|AV-procd|sdf|10641|dock5
  -GOLD-   2272015 93D 1   1.00000     0.00000
 Structure written by MMmdl.
 47 49  0  0  0  0  0  0  0  0  2 V2000
  148.0928  141.5615  155.8840 O   0  0  0  0  0  0  0  0  0  0  0  0
  148.5985  140.5626  156.3965 C   0  0  0  0  0  0  0  0  0  0  0  0
  149.5294  140.5717  157.3670 N   0  0  0  0  0  0  0  0  0  0  0  0
  150.1451  141.6953  157.9807 C   0  0  0  0  0  0  0  0  0  0  0  0
  151.4017  141.4392  158.5753 C   0  0  0  0  0  0  0  0  0  0  0  0
  152.0970  142.4894  159.2059 C   0  0  0  0  0  0  0  0  0  0  0  0
  151.5145  143.7691  159.2264 C   0  0  0  0  0  0  0  0  0  0  0  0
  152.1450  144.8093  159.8211 F   0  0  0  0  0  0  0  0  0  0  0  0
  150.2598  143.9402  158.6128 C   0  0  0  0  0  0  0  0  0  0  0  0
  149.5930  142.9346  158.0070 N   0  0  0  0  0  0  0  0  0  0  0  0
  148.2762  139.3099  156.0405 N   0  0  0  0  0  0  0  0  0  0  0  0
  147.3217  138.9586  154.9928 C   0  0  2  0  0  0  0  0  0  0  0  0
  147.0357  137.4463  154.9865 C   0  0  0  0  0  0  0  0  0  0  0  0
  146.0957  137.0657  153.8298 C   0  0  0  0  0  0  0  0  0  0  0  0
  146.6468  137.5001  152.5193 N   0  3  1  0  0  0  0  0  0  0  0  0
  145.8275  137.0346  151.3696 C   0  0  0  0  0  0  0  0  0  0  0  0
  145.1746  135.6644  151.6355 C   0  0  1  0  0  0  0  0  0  0  0  0
  144.3686  135.1461  150.4607 C   0  0  0  0  0  0  0  0  0  0  0  0
  144.2372  133.6627  150.7902 C   0  0  0  0  0  0  0  0  0  0  0  0
  145.4182  133.3210  151.5087 O   0  0  0  0  0  0  0  0  0  0  0  0
  146.1438  134.4992  151.8445 C   0  0  0  0  0  0  0  0  0  0  0  0
  146.9035  138.9646  152.4956 C   0  0  0  0  0  0  0  0  0  0  0  0
  147.8669  139.3798  153.6197 C   0  0  0  0  0  0  0  0  0  0  0  0
  149.8477  139.6713  157.6937 H   0  0  0  0  0  0  0  0  0  0  0  0
  151.8344  140.4496  158.5497 H   0  0  0  0  0  0  0  0  0  0  0  0
  153.0591  142.3151  159.6648 H   0  0  0  0  0  0  0  0  0  0  0  0
  149.7787  144.9071  158.6073 H   0  0  0  0  0  0  0  0  0  0  0  0
  148.7370  138.5470  156.5148 H   0  0  0  0  0  0  0  0  0  0  0  0
  146.3882  139.4969  155.1685 H   0  0  0  0  0  0  0  0  0  0  0  0
  147.9704  136.8911  154.8931 H   0  0  0  0  0  0  0  0  0  0  0  0
  146.5893  137.1414  155.9339 H   0  0  0  0  0  0  0  0  0  0  0  0
  145.9553  135.9840  153.8296 H   0  0  0  0  0  0  0  0  0  0  0  0
  145.1126  137.5150  153.9798 H   0  0  0  0  0  0  0  0  0  0  0  0
  145.0216  137.7479  151.1898 H   0  0  0  0  0  0  0  0  0  0  0  0
  146.4170  137.0225  150.4515 H   0  0  0  0  0  0  0  0  0  0  0  0
  144.5106  135.7362  152.4988 H   0  0  0  0  0  0  0  0  0  0  0  0
  143.4035  135.6411  150.3492 H   0  0  0  0  0  0  0  0  0  0  0  0
  144.9253  135.2719  149.5308 H   0  0  0  0  0  0  0  0  0  0  0  0
  143.3760  133.4905  151.4367 H   0  0  0  0  0  0  0  0  0  0  0  0
  144.1204  133.0471  149.8980 H   0  0  0  0  0  0  0  0  0  0  0  0
  146.9968  134.5784  151.1690 H   0  0  0  0  0  0  0  0  0  0  0  0
  146.5217  134.4474  152.8658 H   0  0  0  0  0  0  0  0  0  0  0  0
  147.3274  139.2592  151.5368 H   0  0  0  0  0  0  0  0  0  0  0  0
  145.9589  139.5016  152.5981 H   0  0  0  0  0  0  0  0  0  0  0  0
  148.0195  140.4593  153.5929 H   0  0  0  0  0  0  0  0  0  0  0  0
  148.8436  138.9243  153.4483 H   0  0  0  0  0  0  0  0  0  0  0  0
  147.5428  137.0419  152.4320 H   0  0  0  0  0  0  0  0  0  0  0  0
  1  2  2  0  0  0  0
  2  3  1  0  0  0  0
  2 11  1  0  0  0  0
  3  4  1  0  0  0  0
  3 24  1  0  0  0  0
  4 10  1  0  0  0  0
  4  5  2  0  0  0  0
  5  6  1  0  0  0  0
  5 25  1  0  0  0  0
  6  7  2  0  0  0  0
  6 26  1  0  0  0  0
  7  8  1  0  0  0  0
  7  9  1  0  0  0  0
  9 10  2  0  0  0  0
  9 27  1  0  0  0  0
 11 12  1  0  0  0  0
 11 28  1  0  0  0  0
 12 23  1  0  0  0  0
 12 13  1  0  0  0  0
 12 29  1  0  0  0  0
 13 14  1  0  0  0  0
 13 30  1  0  0  0  0
 13 31  1  0  0  0  0
 14 15  1  0  0  0  0
 14 32  1  0  0  0  0
 14 33  1  0  0  0  0
 15 16  1  0  0  0  0
 15 22  1  0  0  0  0
 15 47  1  0  0  0  0
 16 17  1  0  0  0  0
 16 34  1  0  0  0  0
 16 35  1  0  0  0  0
 17 21  1  0  0  0  0
 17 18  1  0  0  0  0
 17 36  1  0  0  0  0
 18 19  1  0  0  0  0
 18 37  1  0  0  0  0
 18 38  1  0  0  0  0
 19 20  1  0  0  0  0
 19 39  1  0  0  0  0
 19 40  1  0  0  0  0
 20 21  1  0  0  0  0
 21 41  1  0  0  0  0
 21 42  1  0  0  0  0
 22 23  1  0  0  0  0
 22 43  1  0  0  0  0
 22 44  1  0  0  0  0
 23 45  1  0  0  0  0
 23 46  1  0  0  0  0
M  CHG  1  15   1
M  END
> <s_m_source_file>
AV-unprocessed.smi

> <i_m_source_file_index>
2764

> <i_lp_mmshare_version>
43012

> <i_f3d_flags>
0

> <s_epik_input>
bjFbY0hdYyhGKVtjSF1bY0hdYzFbTkhdQyg9TylbTkhdW0NIXTJbQ0gyXVtDSDJdTihbQ0gyXVtDSDJdMilbQ0gyXVtDQEBIXTNbQ0gyXVtDSDJdT1tDSDJdMw==

> <s_epik_cmdline>
J2VwaWtfcHl0aG9uJywgJy1waCcsICc3LjAnLCAnLXRuJywgJzgnLCAnLW1hJywgJzIwMCcsICctbWV0YWxfYmluZGluZycsICctaW1hZScsICc8aW5maWxlLm1hZT4nLCAnLW9tYWUnLCAnPG91dGZpbGUubWFlPic=

> <r_epik_Ionization_Penalty>
0.0075076

> <r_epik_Ionization_Penalty_Charging>
0.00747775

> <r_epik_Ionization_Penalty_Neutral>
2.98483e-05

> <r_epik_State_Penalty>
0.00558817

> <r_epik_Charging_Adjusted_Penalty>
0.0130659

> <i_epik_Tot_Q>
1

> <i_epik_Tot_abs_Q>
1

> <r_epik_Metal_State_Penalty>
-0

> <b_epik_Metal_Only>
0

> <s_lp_Force_Field>
OPLS_2005

> <r_lp_Energy>
37.3143

> <b_lp_Chiralities_Consistent>
1

> <s_lp_Variant>
AV-unprocessed.smi:2764-2

> <Gold.Version>
5.8.1

> <Gold.Id.Protein>
6NUR|6NUR_protein|mol2

> <Gold.PLP.Fitness>
41.7726

> <Gold.PLP.PLP>
-33.6379

> <Gold.PLP.part.hbond>
-1.0000

> <Gold.PLP.part.metal>
0.0000

> <Gold.PLP.part.buried>
-1.7867

> <Gold.PLP.part.nonpolar>
-31.8114

> <Gold.PLP.part.repulsive>
1.1434

> <Gold.PLP.ligand.clash>
0.0000

> <Gold.PLP.ligand.torsion>
0.4187

> <Gold.PLP.Chemscore.Hbond>
2.0000

> <Gold.PLP.Chemscore.CHOScore>
0.9763

> <Gold.PLP.Chemscore.Metal>
0.0000

> <Gold.Chemscore.Hbonds>
donor molecule, donor type, donor heavy atom, donor atom, acceptor molecule, acceptor atom, score
      L1  H    15    47       P1  7948  2.00
      L1  C     9    27       P1  8029  1.00

> <Gold.PLP.Chemscore.Internal.Correction>
0.0433

> <Gold.Rescore>
     Score         DG    S(hbond)    S(metal)    S(lipo)     H(rot)  DE(clash)    DE(int)     intcor
     13.26     -14.86       1.00        0.00      84.26       1.49       0.31       1.29       ----

> <Gold.Chemscore.Fitness>
13.2603

> <Gold.Chemscore.DG>
-14.8595

> <Gold.Chemscore.ZeroCoef>
-5.4800

> <Gold.Chemscore.Hbond>
0.9978

> <Gold.Chemscore.Metal>
0.0000

> <Gold.Chemscore.Lipo>
84.2636

> <Gold.Chemscore.Internal_Hbond>
0.0000

> <Gold.Chemscore.DEClash>
0.3084

> <Gold.Chemscore.DEInternal>
1.2908

> <Gold.Chemscore.Rot>
1.4891

> <Gold.Chemscore.Internal.Correction>
   9.000000E+99

> <Gold.Chemscore.Hbonds>
donor molecule, donor type, donor heavy atom, donor atom, acceptor molecule, acceptor atom, score
      L1  H    15    47       P1  7948  1.00

> <Gold.Chemscore.Hbond.Weighted>
-3.3327

> <Gold.Chemscore.Metal.Weighted>
-0.0000

> <Gold.Chemscore.Lipo.Weighted>
-9.8588

> <Gold.Chemscore.Internal_Hbond.Weighted>
0.0000

> <Gold.Chemscore.DEClash.Weighted>
0.3084

> <Gold.Chemscore.DEInternal.Weighted>
1.2908

> <Gold.Chemscore.Rot.Weighted>
3.8121

> <Gold.Chemscore.Internal.Correction.Weighted>
   9.000000E+99

> <Gold.Protein.RotatedTorsions>
[ 6907 6896 6895 6894 ] final -141.24 input  -60.11 | X-H torsion
[ 7974 7965 7964 7962 ] final  -97.94 input  175.53 | X-H torsion
[ 8008 7997 7996 7995 ] final  -61.99 input   59.86 | X-H torsion
[ 10167 10162 10161 10158 ] final -117.31 input  -65.29 | X-H torsion
[ 10718 10713 10712 10709 ] final  152.47 input   66.30 | X-H torsion
[ 10763 10752 10751 10750 ] final  137.63 input  -60.55 | X-H torsion
[ 11005 11000 10999 10996 ] final  160.29 input  -57.11 | X-H torsion

> <Gold.Protein.ActiveResidues>
 VAL166  LYS551  ARG553  GLY616  TRP617  ASP618  TYR619  PRO620  LYS621  CYS622 
 ASP623  PHE694  ASN695  SER759  ASP760  ASP761  ALA762  ILE779  LEU786  VAL792 
 PHE793  MET794  SER795  GLU796  ALA797  LYS798  CYS799  TRP800  GLU811  SER814 

> <Gold.Protein.RotatedAtoms>
  151.0711  133.5465  159.2626 H   0  0  0  0  0  0  0  0  0  0  0  0  # atno 6907 bound_to 6896
  151.2404  135.0586  159.9032 H   0  0  0  0  0  0  0  0  0  0  0  0  # atno 6908 bound_to 6896
  152.5411  134.0487  159.8154 H   0  0  0  0  0  0  0  0  0  0  0  0  # atno 6909 bound_to 6896
  145.3271  140.9434  143.2682 H   0  0  0  0  0  0  0  0  0  0  0  0  # atno 7974 bound_to 7965
  154.4476  140.1006  156.6517 H   0  0  0  0  0  0  0  0  0  0  0  0  # atno 8008 bound_to 7997
  155.5390  140.3483  155.4424 H   0  0  0  0  0  0  0  0  0  0  0  0  # atno 8009 bound_to 7997
  156.0610  140.1326  156.9930 H   0  0  0  0  0  0  0  0  0  0  0  0  # atno 8010 bound_to 7997
  140.0697  143.4888  152.1986 H   0  0  0  0  0  0  0  0  0  0  0  0  # atno 10167 bound_to 10162
  157.2573  131.0791  151.1689 H   0  0  0  0  0  0  0  0  0  0  0  0  # atno 10718 bound_to 10713
  153.8763  135.3049  155.3444 H   0  0  0  0  0  0  0  0  0  0  0  0  # atno 10763 bound_to 10752
  154.7782  135.4849  153.9792 H   0  0  0  0  0  0  0  0  0  0  0  0  # atno 10764 bound_to 10752
  153.1377  135.6817  153.9173 H   0  0  0  0  0  0  0  0  0  0  0  0  # atno 10765 bound_to 10752
  140.2045  134.8313  157.3054 H   0  0  0  0  0  0  0  0  0  0  0  0  # atno 11005 bound_to 11000
  144.8893  139.4796  143.6685 LP  0  0  0  0  0  0  0  0  0  0  0  0  # atno 17320 bound_to 7965
  146.3060  139.7581  142.9056 LP  0  0  0  0  0  0  0  0  0  0  0  0  # atno 17321 bound_to 7965
  139.5843  144.7524  151.3560 LP  0  0  0  0  0  0  0  0  0  0  0  0  # atno 17342 bound_to 10162
  140.7131  143.7337  150.7604 LP  0  0  0  0  0  0  0  0  0  0  0  0  # atno 17343 bound_to 10162
  157.3213  130.6939  149.6271 LP  0  0  0  0  0  0  0  0  0  0  0  0  # atno 17370 bound_to 10713
  155.9664  130.4334  150.5006 LP  0  0  0  0  0  0  0  0  0  0  0  0  # atno 17371 bound_to 10713
  140.2018  134.4245  155.7658 LP  0  0  0  0  0  0  0  0  0  0  0  0  # atno 17394 bound_to 11000
  141.2227  133.7076  156.8196 LP  0  0  0  0  0  0  0  0  0  0  0  0  # atno 17395 bound_to 11000

$$$$
