AV-unprocessed.smi:34|AV-procd|sdf|246|dock6
  -GOLD-   2262016 03D 1   1.00000     0.00000
 Structure written by MMmdl.
 54 58  0  0  0  0  0  0  0  0  2 V2000
  152.8404  140.1886  158.0928 O   0  0  0  0  0  0  0  0  0  0  0  0
  152.1760  141.1635  157.7348 C   0  0  0  0  0  0  0  0  0  0  0  0
  151.5258  141.3408  156.5566 N   0  5  0  0  0  0  0  0  0  0  0  0
  151.1750  140.2757  155.8202 C   0  0  0  0  0  0  0  0  0  0  0  0
  152.1151  139.3861  155.4116 N   0  0  0  0  0  0  0  0  0  0  0  0
  151.7661  138.3255  154.6754 C   0  0  0  0  0  0  0  0  0  0  0  0
  150.5548  137.9691  154.2383 N   0  0  0  0  0  0  0  0  0  0  0  0
  149.5994  138.8607  154.6320 C   0  0  0  0  0  0  0  0  0  0  0  0
  149.8345  140.0291  155.4148 C   0  0  0  0  0  0  0  0  0  0  0  0
  148.6528  140.7200  155.6358 N   0  0  0  0  0  0  0  0  0  0  0  0
  147.7722  139.9574  154.9925 C   0  0  0  0  0  0  0  0  0  0  0  0
  148.2344  138.8467  154.3837 N   0  0  0  0  0  0  0  0  0  0  0  0
  147.4292  137.8576  153.5998 C   0  0  1  0  0  0  0  0  0  0  0  0
  146.4224  137.3539  154.4317 O   0  0  0  0  0  0  0  0  0  0  0  0
  145.1403  137.7105  153.9193 C   0  0  2  0  0  0  0  0  0  0  0  0
  144.0830  136.6775  154.3290 C   0  0  0  0  0  0  0  0  0  0  0  0
  142.8150  137.0754  153.8323 O   0  0  0  0  0  0  0  0  0  0  0  0
  141.7167  136.3575  154.1388 C   0  0  0  0  0  0  0  0  0  0  0  0
  141.7499  135.1745  154.4840 O   0  0  0  0  0  0  0  0  0  0  0  0
  140.4546  137.1413  154.0091 C   0  0  0  0  0  0  0  0  0  0  0  0
  140.5070  138.4569  153.4920 C   0  0  0  0  0  0  0  0  0  0  0  0
  139.3333  139.2244  153.3625 C   0  0  0  0  0  0  0  0  0  0  0  0
  138.0919  138.6844  153.7456 C   0  0  0  0  0  0  0  0  0  0  0  0
  138.0258  137.3759  154.2588 C   0  0  0  0  0  0  0  0  0  0  0  0
  139.1991  136.6075  154.3912 C   0  0  0  0  0  0  0  0  0  0  0  0
  145.3830  137.8374  152.4158 C   0  0  2  0  0  0  0  0  0  0  0  0
  145.4481  136.6140  151.8809 F   0  0  0  0  0  0  0  0  0  0  0  0
  146.7443  138.5141  152.3908 C   0  0  2  0  0  0  0  0  0  0  0  0
  147.4020  138.2699  151.1638 O   0  0  0  0  0  0  0  0  0  0  0  0
  152.0934  142.3588  158.6461 C   0  0  0  0  0  0  0  0  0  0  0  0
  151.5424  143.5688  158.1652 C   0  0  0  0  0  0  0  0  0  0  0  0
  151.4786  144.7063  158.9934 C   0  0  0  0  0  0  0  0  0  0  0  0
  151.9743  144.6489  160.3094 C   0  0  0  0  0  0  0  0  0  0  0  0
  152.5380  143.4542  160.7948 C   0  0  0  0  0  0  0  0  0  0  0  0
  152.6021  142.3162  159.9673 C   0  0  0  0  0  0  0  0  0  0  0  0
  152.5746  137.6663  154.3964 H   0  0  0  0  0  0  0  0  0  0  0  0
  146.7254  140.2226  154.9646 H   0  0  0  0  0  0  0  0  0  0  0  0
  148.1225  137.0578  153.3350 H   0  0  0  0  0  0  0  0  0  0  0  0
  144.8610  138.6827  154.3234 H   0  0  0  0  0  0  0  0  0  0  0  0
  144.3481  135.6889  153.9514 H   0  0  0  0  0  0  0  0  0  0  0  0
  144.0353  136.6080  155.4165 H   0  0  0  0  0  0  0  0  0  0  0  0
  141.4488  138.8936  153.1923 H   0  0  0  0  0  0  0  0  0  0  0  0
  139.3867  140.2288  152.9690 H   0  0  0  0  0  0  0  0  0  0  0  0
  137.1920  139.2731  153.6457 H   0  0  0  0  0  0  0  0  0  0  0  0
  137.0732  136.9598  154.5517 H   0  0  0  0  0  0  0  0  0  0  0  0
  139.1132  135.6068  154.7886 H   0  0  0  0  0  0  0  0  0  0  0  0
  144.6062  138.3958  151.8926 H   0  0  0  0  0  0  0  0  0  0  0  0
  146.6312  139.5870  152.5495 H   0  0  0  0  0  0  0  0  0  0  0  0
  147.9269  139.0262  150.9500 H   0  0  0  0  0  0  0  0  0  0  0  0
  151.1598  143.6302  157.1565 H   0  0  0  0  0  0  0  0  0  0  0  0
  151.0506  145.6236  158.6171 H   0  0  0  0  0  0  0  0  0  0  0  0
  151.9260  145.5210  160.9444 H   0  0  0  0  0  0  0  0  0  0  0  0
  152.9246  143.4098  161.8023 H   0  0  0  0  0  0  0  0  0  0  0  0
  153.0484  141.4123  160.3567 H   0  0  0  0  0  0  0  0  0  0  0  0
  1  2  2  0  0  0  0
  2  3  1  0  0  0  0
  2 30  1  0  0  0  0
  3  4  1  0  0  0  0
  4  9  1  0  0  0  0
  4  5  2  0  0  0  0
  5  6  1  0  0  0  0
  6  7  2  0  0  0  0
  6 36  1  0  0  0  0
  7  8  1  0  0  0  0
  8 12  1  0  0  0  0
  8  9  2  0  0  0  0
  9 10  1  0  0  0  0
 10 11  2  0  0  0  0
 11 12  1  0  0  0  0
 11 37  1  0  0  0  0
 12 13  1  0  0  0  0
 13 28  1  0  0  0  0
 13 14  1  0  0  0  0
 13 38  1  0  0  0  0
 14 15  1  0  0  0  0
 15 16  1  0  0  0  0
 15 26  1  0  0  0  0
 15 39  1  0  0  0  0
 16 17  1  0  0  0  0
 16 40  1  0  0  0  0
 16 41  1  0  0  0  0
 17 18  1  0  0  0  0
 18 19  2  0  0  0  0
 18 20  1  0  0  0  0
 20 25  1  0  0  0  0
 20 21  2  0  0  0  0
 21 22  1  0  0  0  0
 21 42  1  0  0  0  0
 22 23  2  0  0  0  0
 22 43  1  0  0  0  0
 23 24  1  0  0  0  0
 23 44  1  0  0  0  0
 24 25  2  0  0  0  0
 24 45  1  0  0  0  0
 25 46  1  0  0  0  0
 26 27  1  0  0  0  0
 26 28  1  0  0  0  0
 26 47  1  0  0  0  0
 28 29  1  0  0  0  0
 28 48  1  0  0  0  0
 29 49  1  0  0  0  0
 30 35  1  0  0  0  0
 30 31  2  0  0  0  0
 31 32  1  0  0  0  0
 31 50  1  0  0  0  0
 32 33  2  0  0  0  0
 32 51  1  0  0  0  0
 33 34  1  0  0  0  0
 33 52  1  0  0  0  0
 34 35  2  0  0  0  0
 34 53  1  0  0  0  0
 35 54  1  0  0  0  0
M  CHG  1   3  -1
M  END
> <s_m_source_file>
AV-unprocessed.smi

> <i_m_source_file_index>
34

> <i_lp_mmshare_version>
43012

> <i_f3d_flags>
0

> <s_epik_input>
W2NIXTFbY0hdW2NIXVtjSF1bY0hdYzFDKD1PKVtOSF1jKG5bY0hdbjIpYyhjMjMpbltjSF1uM1tDQEBIXTRPW0NASF0oW0NAQEhdKEYpW0NASF00W09IXSlbQ0gyXU9DKD1PKWM1W2NIXVtjSF1bY0hdW2NIXVtjSF01

> <s_epik_cmdline>
J2VwaWtfcHl0aG9uJywgJy1waCcsICc3LjAnLCAnLXRuJywgJzgnLCAnLW1hJywgJzIwMCcsICctbWV0YWxfYmluZGluZycsICctaW1hZScsICc8aW5maWxlLm1hZT4nLCAnLW9tYWUnLCAnPG91dGZpbGUubWFlPic=

> <r_lp_tautomer_probability>
1

> <r_epik_Ionization_Penalty>
4.33227

> <r_epik_Ionization_Penalty_Charging>
3.41027

> <r_epik_Ionization_Penalty_Neutral>
0.922001

> <r_epik_State_Penalty>
3.41358

> <r_epik_Charging_Adjusted_Penalty>
6.82385

> <i_epik_Tot_Q>
-1

> <i_epik_Tot_abs_Q>
1

> <r_epik_Metal_State_Penalty>
0.496292

> <b_epik_Metal_Only>
1

> <s_epik_Chemistry_Notes>
This compound has an ester and may undergo hydrolysis at high or low pH. This compound contains an acetal/aminal-like group ( X-CH(R)-Y where X, Y are N, S, or O) that may be acid/base labile, releasing an aldehyde.

> <s_lp_Force_Field>
OPLS_2005

> <r_lp_Energy>
46.0199

> <b_lp_Chiralities_Consistent>
1

> <s_lp_Variant>
AV-unprocessed.smi:34-32

> <Gold.Version>
5.8.1

> <Gold.Id.Protein>
6NUR|6NUR_protein|mol2

> <Gold.PLP.Fitness>
65.4260

> <Gold.PLP.PLP>
-58.9689

> <Gold.PLP.part.hbond>
-4.9747

> <Gold.PLP.part.metal>
0.0000

> <Gold.PLP.part.buried>
-1.8467

> <Gold.PLP.part.nonpolar>
-51.9348

> <Gold.PLP.part.repulsive>
0.6177

> <Gold.PLP.ligand.clash>
0.0719

> <Gold.PLP.ligand.torsion>
1.0031

> <Gold.PLP.Chemscore.Hbond>
2.6818

> <Gold.PLP.Chemscore.CHOScore>
0.0000

> <Gold.PLP.Chemscore.Metal>
0.0000

> <Gold.Chemscore.Hbonds>
donor molecule, donor type, donor heavy atom, donor atom, acceptor molecule, acceptor atom, score
      L1  H    29    49       P1  7957  1.00
      P1  H  7997  8010       L1     1  0.97
      P1  H 11000 11005       L1    19  0.67

> <Gold.PLP.Chemscore.Internal.Correction>
0.4897

> <Gold.Rescore>
     Score         DG    S(hbond)    S(metal)    S(lipo)     H(rot)  DE(clash)    DE(int)     intcor
     18.32     -21.24       2.22        0.00     130.41       2.69       0.57       2.35       ----

> <Gold.Chemscore.Fitness>
18.3230

> <Gold.Chemscore.DG>
-21.2442

> <Gold.Chemscore.ZeroCoef>
-5.4800

> <Gold.Chemscore.Hbond>
2.2168

> <Gold.Chemscore.Metal>
0.0000

> <Gold.Chemscore.Lipo>
130.4062

> <Gold.Chemscore.Internal_Hbond>
0.0000

> <Gold.Chemscore.DEClash>
0.5677

> <Gold.Chemscore.DEInternal>
2.3535

> <Gold.Chemscore.Rot>
2.6944

> <Gold.Chemscore.Internal.Correction>
   9.000000E+99

> <Gold.Chemscore.Hbonds>
donor molecule, donor type, donor heavy atom, donor atom, acceptor molecule, acceptor atom, score
      L1  H    29    49       P1  7957  0.24
      P1  H  7997  8010       L1     1  0.61
      P1  H 11000 11005       L1    19  0.62

> <Gold.Chemscore.Hbond.Weighted>
-7.4042

> <Gold.Chemscore.Metal.Weighted>
-0.0000

> <Gold.Chemscore.Lipo.Weighted>
-15.2575

> <Gold.Chemscore.Internal_Hbond.Weighted>
0.0000

> <Gold.Chemscore.DEClash.Weighted>
0.5677

> <Gold.Chemscore.DEInternal.Weighted>
2.3535

> <Gold.Chemscore.Rot.Weighted>
6.8975

> <Gold.Chemscore.Internal.Correction.Weighted>
   9.000000E+99

> <Gold.Protein.RotatedTorsions>
[ 6907 6896 6895 6894 ] final   25.60 input  -60.11 | X-H torsion
[ 7974 7965 7964 7962 ] final  -89.33 input  175.53 | X-H torsion
[ 8008 7997 7996 7995 ] final   42.22 input   59.86 | X-H torsion
[ 10167 10162 10161 10158 ] final  -61.75 input  -65.29 | X-H torsion
[ 10718 10713 10712 10709 ] final  -12.27 input   66.30 | X-H torsion
[ 10763 10752 10751 10750 ] final -169.47 input  -60.55 | X-H torsion
[ 11005 11000 10999 10996 ] final    9.45 input  -57.11 | X-H torsion

> <Gold.Protein.ActiveResidues>
 VAL166  LYS551  ARG553  GLY616  TRP617  ASP618  TYR619  PRO620  LYS621  CYS622 
 ASP623  PHE694  ASN695  SER759  ASP760  ASP761  ALA762  ILE779  LEU786  VAL792 
 PHE793  MET794  SER795  GLU796  ALA797  LYS798  CYS799  TRP800  GLU811  SER814 

> <Gold.Protein.RotatedAtoms>
  151.9749  135.0058  160.0554 H   0  0  0  0  0  0  0  0  0  0  0  0  # atno 6907 bound_to 6896
  152.1749  133.4663  159.4936 H   0  0  0  0  0  0  0  0  0  0  0  0  # atno 6908 bound_to 6896
  150.6907  134.1824  159.4296 H   0  0  0  0  0  0  0  0  0  0  0  0  # atno 6909 bound_to 6896
  145.4413  140.9559  143.2073 H   0  0  0  0  0  0  0  0  0  0  0  0  # atno 7974 bound_to 7965
  155.2825  140.3373  155.4257 H   0  0  0  0  0  0  0  0  0  0  0  0  # atno 8008 bound_to 7997
  156.2083  140.1760  156.7792 H   0  0  0  0  0  0  0  0  0  0  0  0  # atno 8009 bound_to 7997
  154.5651  140.0680  156.8863 H   0  0  0  0  0  0  0  0  0  0  0  0  # atno 8010 bound_to 7997
  140.5985  143.2356  151.5982 H   0  0  0  0  0  0  0  0  0  0  0  0  # atno 10167 bound_to 10162
  156.6471  130.4944  149.6075 H   0  0  0  0  0  0  0  0  0  0  0  0  # atno 10718 bound_to 10713
  154.6519  135.2912  154.9976 H   0  0  0  0  0  0  0  0  0  0  0  0  # atno 10763 bound_to 10752
  154.1066  135.6569  153.4881 H   0  0  0  0  0  0  0  0  0  0  0  0  # atno 10764 bound_to 10752
  153.0381  135.5255  154.7431 H   0  0  0  0  0  0  0  0  0  0  0  0  # atno 10765 bound_to 10752
  140.5256  134.0516  155.7858 H   0  0  0  0  0  0  0  0  0  0  0  0  # atno 11005 bound_to 11000
  144.8120  139.5945  143.7025 LP  0  0  0  0  0  0  0  0  0  0  0  0  # atno 17320 bound_to 7965
  146.2555  139.6292  142.9398 LP  0  0  0  0  0  0  0  0  0  0  0  0  # atno 17321 bound_to 7965
  139.5274  144.3016  152.1068 LP  0  0  0  0  0  0  0  0  0  0  0  0  # atno 17342 bound_to 10162
  140.2193  144.4483  150.6349 LP  0  0  0  0  0  0  0  0  0  0  0  0  # atno 17343 bound_to 10162
  156.2114  130.6681  151.1273 LP  0  0  0  0  0  0  0  0  0  0  0  0  # atno 17370 bound_to 10713
  157.7153  131.0713  150.6351 LP  0  0  0  0  0  0  0  0  0  0  0  0  # atno 17371 bound_to 10713
  141.1310  133.9302  157.2535 LP  0  0  0  0  0  0  0  0  0  0  0  0  # atno 17394 bound_to 11000
  139.9582  135.0160  156.9187 LP  0  0  0  0  0  0  0  0  0  0  0  0  # atno 17395 bound_to 11000

$$$$
