AV-unprocessed.smi:28|AV-procd|sdf|189|dock3
  -GOLD-   2262015453D 1   1.00000     0.00000
 Structure written by MMmdl.
 41 44  0  0  0  0  0  0  0  0  1 V2000
  147.9800  138.6143  155.7921 O   0  0  0  0  0  0  0  0  0  0  0  0
  148.0166  138.0754  156.8996 C   0  0  0  0  0  0  0  0  0  0  0  0
  146.8401  137.9015  157.7447 C   0  0  0  0  0  0  0  0  0  0  0  0
  145.6423  138.3286  157.3110 F   0  0  0  0  0  0  0  0  0  0  0  0
  146.9329  137.3214  158.9610 C   0  0  0  0  0  0  0  0  0  0  0  0
  148.1270  136.8547  159.4870 N   0  0  0  0  0  0  0  0  0  0  0  0
  148.2108  136.2297  160.8643 C   0  0  2  0  0  0  0  0  0  0  0  0
  147.4402  134.8958  160.9043 C   0  0  0  0  0  0  0  0  0  0  0  0
  146.5299  135.0689  162.1042 C   0  0  0  0  0  0  0  0  0  0  0  0
  146.3210  136.5754  162.1275 C   0  0  0  0  0  0  0  0  0  0  0  0
  147.6133  137.0735  161.8077 O   0  0  0  0  0  0  0  0  0  0  0  0
  149.3182  136.9887  158.7406 C   0  0  0  0  0  0  0  0  0  0  0  0
  150.3960  136.6046  159.2011 O   0  0  0  0  0  0  0  0  0  0  0  0
  149.2210  137.5831  157.4602 N   0  0  0  0  0  0  0  0  0  0  0  0
  150.4464  137.7544  156.6974 C   0  0  0  0  0  0  0  0  0  0  0  0
  151.3235  138.7763  157.3492 C   0  0  0  0  0  0  0  0  0  0  0  0
  152.5815  138.6206  157.7658 N   0  0  0  0  0  0  0  0  0  0  0  0
  152.9604  139.8425  158.2730 N   0  0  0  0  0  0  0  0  0  0  0  0
  151.9061  140.6505  158.1197 C   0  0  0  0  0  0  0  0  0  0  0  0
  151.7590  142.0517  158.4967 C   0  0  0  0  0  0  0  0  0  0  0  0
  150.9453  142.8851  157.6982 C   0  0  0  0  0  0  0  0  0  0  0  0
  150.7760  144.2441  158.0238 C   0  0  0  0  0  0  0  0  0  0  0  0
  151.4254  144.7826  159.1494 C   0  0  0  0  0  0  0  0  0  0  0  0
  152.2484  143.9622  159.9431 C   0  0  0  0  0  0  0  0  0  0  0  0
  152.4230  142.6007  159.6222 C   0  0  0  0  0  0  0  0  0  0  0  0
  153.5871  141.5571  160.7150 Br  0  0  0  0  0  0  0  0  0  0  0  0
  150.8376  140.0271  157.5563 O   0  0  0  0  0  0  0  0  0  0  0  0
  146.0227  137.2314  159.5337 H   0  0  0  0  0  0  0  0  0  0  0  0
  149.2766  136.1381  161.0812 H   0  0  0  0  0  0  0  0  0  0  0  0
  146.8506  134.7708  159.9944 H   0  0  0  0  0  0  0  0  0  0  0  0
  148.1240  134.0520  161.0027 H   0  0  0  0  0  0  0  0  0  0  0  0
  145.5983  134.5091  162.0193 H   0  0  0  0  0  0  0  0  0  0  0  0
  147.0417  134.7492  163.0129 H   0  0  0  0  0  0  0  0  0  0  0  0
  145.6000  136.8797  161.3672 H   0  0  0  0  0  0  0  0  0  0  0  0
  145.9779  136.9404  163.0957 H   0  0  0  0  0  0  0  0  0  0  0  0
  150.9499  136.7891  156.6243 H   0  0  0  0  0  0  0  0  0  0  0  0
  150.1932  138.0455  155.6769 H   0  0  0  0  0  0  0  0  0  0  0  0
  150.4395  142.4815  156.8328 H   0  0  0  0  0  0  0  0  0  0  0  0
  150.1473  144.8725  157.4102 H   0  0  0  0  0  0  0  0  0  0  0  0
  151.2973  145.8251  159.4010 H   0  0  0  0  0  0  0  0  0  0  0  0
  152.7542  144.3812  160.8006 H   0  0  0  0  0  0  0  0  0  0  0  0
  1  2  2  0  0  0  0
  2 14  1  0  0  0  0
  2  3  1  0  0  0  0
  3  4  1  0  0  0  0
  3  5  2  0  0  0  0
  5  6  1  0  0  0  0
  5 28  1  0  0  0  0
  6  7  1  0  0  0  0
  6 12  1  0  0  0  0
  7 11  1  0  0  0  0
  7  8  1  0  0  0  0
  7 29  1  0  0  0  0
  8  9  1  0  0  0  0
  8 30  1  0  0  0  0
  8 31  1  0  0  0  0
  9 10  1  0  0  0  0
  9 32  1  0  0  0  0
  9 33  1  0  0  0  0
 10 11  1  0  0  0  0
 10 34  1  0  0  0  0
 10 35  1  0  0  0  0
 12 13  2  0  0  0  0
 12 14  1  0  0  0  0
 14 15  1  0  0  0  0
 15 16  1  0  0  0  0
 15 36  1  0  0  0  0
 15 37  1  0  0  0  0
 16 27  1  0  0  0  0
 16 17  2  0  0  0  0
 17 18  1  0  0  0  0
 18 19  2  0  0  0  0
 19 20  1  0  0  0  0
 19 27  1  0  0  0  0
 20 25  1  0  0  0  0
 20 21  2  0  0  0  0
 21 22  1  0  0  0  0
 21 38  1  0  0  0  0
 22 23  2  0  0  0  0
 22 39  1  0  0  0  0
 23 24  1  0  0  0  0
 23 40  1  0  0  0  0
 24 25  2  0  0  0  0
 24 41  1  0  0  0  0
 25 26  1  0  0  0  0
M  END
> <s_m_source_file>
AV-unprocessed.smi

> <i_m_source_file_index>
28

> <i_lp_mmshare_version>
43012

> <i_f3d_flags>
0

> <s_epik_input>
TzFbQ0gyXVtDSDJdW0NIMl1bQ0BIXTFuKFtjSF1jKEYpYzI9TyljKD1PKW4yW0NIMl1jM25uYyhvMyktYzRbY0hdW2NIXVtjSF1bY0hdYzRCcg==

> <s_epik_cmdline>
J2VwaWtfcHl0aG9uJywgJy1waCcsICc3LjAnLCAnLXRuJywgJzgnLCAnLW1hJywgJzIwMCcsICctbWV0YWxfYmluZGluZycsICctaW1hZScsICc8aW5maWxlLm1hZT4nLCAnLW9tYWUnLCAnPG91dGZpbGUubWFlPic=

> <r_lp_tautomer_probability>
1

> <r_epik_Ionization_Penalty>
2.5628e-09

> <r_epik_Ionization_Penalty_Charging>
2.54231e-09

> <r_epik_Ionization_Penalty_Neutral>
2.0492e-11

> <r_epik_State_Penalty>
-0

> <r_epik_Charging_Adjusted_Penalty>
2.54231e-09

> <i_epik_Tot_Q>
0

> <i_epik_Tot_abs_Q>
0

> <r_epik_Metal_State_Penalty>
-0

> <b_epik_Metal_Only>
0

> <s_epik_Chemistry_Notes>
This compound contains an acetal/aminal-like group ( X-CH(R)-Y where X, Y are N, S, or O) that may be acid/base labile, releasing an aldehyde.

> <s_lp_Force_Field>
OPLS_2005

> <r_lp_Energy>
34.3922

> <b_lp_Chiralities_Consistent>
1

> <s_lp_Variant>
AV-unprocessed.smi:28-1

> <Gold.Version>
5.8.1

> <Gold.Id.Protein>
6NUR|6NUR_protein|mol2

> <Gold.PLP.Fitness>
55.0467

> <Gold.PLP.PLP>
-46.0358

> <Gold.PLP.part.hbond>
-4.0000

> <Gold.PLP.part.metal>
0.0000

> <Gold.PLP.part.buried>
-5.8342

> <Gold.PLP.part.nonpolar>
-36.1141

> <Gold.PLP.part.repulsive>
0.0162

> <Gold.PLP.ligand.clash>
0.0000

> <Gold.PLP.ligand.torsion>
0.6291

> <Gold.PLP.Chemscore.Hbond>
3.4141

> <Gold.PLP.Chemscore.CHOScore>
0.0000

> <Gold.PLP.Chemscore.Metal>
0.0000

> <Gold.Chemscore.Hbonds>
donor molecule, donor type, donor heavy atom, donor atom, acceptor molecule, acceptor atom, score
      P1  H  6896  6907       L1    13  1.00
      P1  H  6931  6943       L1    11  0.80
      P1  H  6934  6947       L1    11  0.48
      P1  H  7997  8010       L1    18  0.69

> <Gold.PLP.Chemscore.Internal.Correction>
0.0268

> <Gold.Rescore>
     Score         DG    S(hbond)    S(metal)    S(lipo)     H(rot)  DE(clash)    DE(int)     intcor
     21.04     -22.07       2.71        0.00     101.45       1.70       0.07       0.96       ----

> <Gold.Chemscore.Fitness>
21.0391

> <Gold.Chemscore.DG>
-22.0694

> <Gold.Chemscore.ZeroCoef>
-5.4800

> <Gold.Chemscore.Hbond>
2.7146

> <Gold.Chemscore.Metal>
0.0000

> <Gold.Chemscore.Lipo>
101.4503

> <Gold.Chemscore.Internal_Hbond>
0.0000

> <Gold.Chemscore.DEClash>
0.0727

> <Gold.Chemscore.DEInternal>
0.9576

> <Gold.Chemscore.Rot>
1.6980

> <Gold.Chemscore.Internal.Correction>
   9.000000E+99

> <Gold.Chemscore.Hbonds>
donor molecule, donor type, donor heavy atom, donor atom, acceptor molecule, acceptor atom, score
      P1  H  6896  6907       L1    13  1.00
      P1  H  6931  6943       L1    11  0.11
      P1  H  6934  6947       L1    11  0.15
      P1  H  7997  8010       L1    18  0.11

> <Gold.Chemscore.Hbond.Weighted>
-9.0666

> <Gold.Chemscore.Metal.Weighted>
-0.0000

> <Gold.Chemscore.Lipo.Weighted>
-11.8697

> <Gold.Chemscore.Internal_Hbond.Weighted>
0.0000

> <Gold.Chemscore.DEClash.Weighted>
0.0727

> <Gold.Chemscore.DEInternal.Weighted>
0.9576

> <Gold.Chemscore.Rot.Weighted>
4.3469

> <Gold.Chemscore.Internal.Correction.Weighted>
   9.000000E+99

> <Gold.Protein.RotatedTorsions>
[ 6907 6896 6895 6894 ] final  -24.86 input  -60.11 | X-H torsion
[ 7974 7965 7964 7962 ] final  168.18 input  175.53 | X-H torsion
[ 8008 7997 7996 7995 ] final   22.57 input   59.86 | X-H torsion
[ 10167 10162 10161 10158 ] final -160.98 input  -65.29 | X-H torsion
[ 10718 10713 10712 10709 ] final  -33.31 input   66.30 | X-H torsion
[ 10763 10752 10751 10750 ] final   83.41 input  -60.55 | X-H torsion
[ 11005 11000 10999 10996 ] final  -99.17 input  -57.11 | X-H torsion

> <Gold.Protein.ActiveResidues>
 VAL166  LYS551  ARG553  GLY616  TRP617  ASP618  TYR619  PRO620  LYS621  CYS622 
 ASP623  PHE694  ASN695  SER759  ASP760  ASP761  ALA762  ILE779  LEU786  VAL792 
 PHE793  MET794  SER795  GLU796  ALA797  LYS798  CYS799  TRP800  GLU811  SER814 

> <Gold.Protein.RotatedAtoms>
  151.1834  135.0371  159.8801 H   0  0  0  0  0  0  0  0  0  0  0  0  # atno 6907 bound_to 6896
  152.5443  134.1037  159.8339 H   0  0  0  0  0  0  0  0  0  0  0  0  # atno 6908 bound_to 6896
  151.1157  133.5094  159.2636 H   0  0  0  0  0  0  0  0  0  0  0  0  # atno 6909 bound_to 6896
  144.7397  139.8870  143.6400 H   0  0  0  0  0  0  0  0  0  0  0  0  # atno 7974 bound_to 7965
  154.9678  140.3086  155.5002 H   0  0  0  0  0  0  0  0  0  0  0  0  # atno 8008 bound_to 7997
  156.2969  140.2289  156.4707 H   0  0  0  0  0  0  0  0  0  0  0  0  # atno 8009 bound_to 7997
  154.7905  140.0440  157.1185 H   0  0  0  0  0  0  0  0  0  0  0  0  # atno 8010 bound_to 7997
  139.6499  144.0103  152.2154 H   0  0  0  0  0  0  0  0  0  0  0  0  # atno 10167 bound_to 10162
  156.3642  130.4329  149.7598 H   0  0  0  0  0  0  0  0  0  0  0  0  # atno 10718 bound_to 10713
  153.1289  135.4692  154.9317 H   0  0  0  0  0  0  0  0  0  0  0  0  # atno 10763 bound_to 10752
  154.7646  135.3141  154.8314 H   0  0  0  0  0  0  0  0  0  0  0  0  # atno 10764 bound_to 10752
  153.8861  135.6889  153.4817 H   0  0  0  0  0  0  0  0  0  0  0  0  # atno 10765 bound_to 10752
  141.1318  133.8301  157.0936 H   0  0  0  0  0  0  0  0  0  0  0  0  # atno 11005 bound_to 11000
  146.1170  139.4182  143.0252 LP  0  0  0  0  0  0  0  0  0  0  0  0  # atno 17320 bound_to 7965
  145.7361  141.0025  143.1326 LP  0  0  0  0  0  0  0  0  0  0  0  0  # atno 17321 bound_to 7965
  139.9815  144.6425  150.7897 LP  0  0  0  0  0  0  0  0  0  0  0  0  # atno 17342 bound_to 10162
  140.7532  143.3005  151.3093 LP  0  0  0  0  0  0  0  0  0  0  0  0  # atno 17343 bound_to 10162
  156.4750  130.8014  151.3031 LP  0  0  0  0  0  0  0  0  0  0  0  0  # atno 17370 bound_to 10713
  157.7477  131.0024  150.2998 LP  0  0  0  0  0  0  0  0  0  0  0  0  # atno 17371 bound_to 10713
  140.0377  134.9870  157.0902 LP  0  0  0  0  0  0  0  0  0  0  0  0  # atno 17394 bound_to 11000
  140.4184  134.1906  155.7164 LP  0  0  0  0  0  0  0  0  0  0  0  0  # atno 17395 bound_to 11000

$$$$
