AV-unprocessed.smi:1492|AV-procd|sdf|6046|dock6
  -GOLD-   22720 6163D 1   1.00000     0.00000
 Structure written by MMmdl.
 52 53  0  0  0  0  0  0  0  0  3 V2000
  148.7995  133.2047  154.3663 C   0  0  0  0  0  0  0  0  0  0  0  0
  147.4199  133.7905  154.7197 C   0  0  0  0  0  0  0  0  0  0  0  0
  146.2343  132.7836  154.9058 C   0  0  1  0  0  0  0  0  0  0  0  0
  146.8117  131.3545  155.0568 C   0  0  0  0  0  0  0  0  0  0  0  0
  145.4566  133.1410  156.2114 C   0  0  0  0  0  0  0  0  0  0  0  0
  146.3069  133.0210  157.3896 N   0  0  0  0  0  0  0  0  0  0  0  0
  146.3029  133.8225  158.4643 C   0  0  0  0  0  0  0  0  0  0  0  0
  145.4209  134.6463  158.7018 O   0  0  0  0  0  0  0  0  0  0  0  0
  147.5319  133.7199  159.3693 C   0  0  0  0  0  0  0  0  0  0  0  0
  147.5383  134.7350  160.5135 C   0  0  0  0  0  0  0  0  0  0  0  0
  146.7831  134.6103  161.6427 C   0  0  0  0  0  0  0  0  0  0  0  0
  145.7945  133.4782  161.8600 C   0  0  0  0  0  0  0  0  0  0  0  0
  146.9056  135.5256  162.7016 N   0  0  0  0  0  0  0  0  0  0  0  0
  147.7583  136.4746  162.6191 C   0  0  0  0  0  0  0  0  0  0  0  0
  147.8999  137.4434  163.7734 C   0  0  0  0  0  0  0  0  0  0  0  0
  148.5792  136.6768  161.5327 N   0  5  0  0  0  0  0  0  0  0  0  0
  148.4891  135.8580  160.4474 C   0  0  0  0  0  0  0  0  0  0  0  0
  149.1830  136.0212  159.4451 O   0  0  0  0  0  0  0  0  0  0  0  0
  145.3020  132.8648  153.7148 N   0  3  0  0  0  0  0  0  0  0  0  0
  144.7983  134.2251  153.3607 C   0  0  0  0  0  0  0  0  0  0  0  0
  143.7709  134.1632  152.2147 C   0  0  0  0  0  0  0  0  0  0  0  0
  144.3210  133.4936  151.0903 O   0  0  0  0  0  0  0  0  0  0  0  0
  144.6818  132.1583  151.4086 C   0  0  0  0  0  0  0  0  0  0  0  0
  145.7820  132.1819  152.4788 C   0  0  0  0  0  0  0  0  0  0  0  0
  149.5094  134.0092  154.1734 H   0  0  0  0  0  0  0  0  0  0  0  0
  148.7671  132.5831  153.4725 H   0  0  0  0  0  0  0  0  0  0  0  0
  149.2131  132.6116  155.1816 H   0  0  0  0  0  0  0  0  0  0  0  0
  147.5379  134.3895  155.6242 H   0  0  0  0  0  0  0  0  0  0  0  0
  147.1772  134.4950  153.9240 H   0  0  0  0  0  0  0  0  0  0  0  0
  147.5120  131.2917  155.8889 H   0  0  0  0  0  0  0  0  0  0  0  0
  147.3474  131.0344  154.1633 H   0  0  0  0  0  0  0  0  0  0  0  0
  146.0370  130.6162  155.2629 H   0  0  0  0  0  0  0  0  0  0  0  0
  144.9993  134.1282  156.1584 H   0  0  0  0  0  0  0  0  0  0  0  0
  144.6076  132.4720  156.3470 H   0  0  0  0  0  0  0  0  0  0  0  0
  147.0700  132.3633  157.3163 H   0  0  0  0  0  0  0  0  0  0  0  0
  147.6038  132.7095  159.7746 H   0  0  0  0  0  0  0  0  0  0  0  0
  148.4187  133.8414  158.7484 H   0  0  0  0  0  0  0  0  0  0  0  0
  144.9995  133.5195  161.1153 H   0  0  0  0  0  0  0  0  0  0  0  0
  145.3319  133.5421  162.8456 H   0  0  0  0  0  0  0  0  0  0  0  0
  146.2899  132.5102  161.7877 H   0  0  0  0  0  0  0  0  0  0  0  0
  148.0019  138.4661  163.4081 H   0  0  0  0  0  0  0  0  0  0  0  0
  148.7831  137.1966  164.3632 H   0  0  0  0  0  0  0  0  0  0  0  0
  147.0274  137.4029  164.4271 H   0  0  0  0  0  0  0  0  0  0  0  0
  144.2952  134.7000  154.2009 H   0  0  0  0  0  0  0  0  0  0  0  0
  145.6314  134.8668  153.0731 H   0  0  0  0  0  0  0  0  0  0  0  0
  142.8567  133.6636  152.5329 H   0  0  0  0  0  0  0  0  0  0  0  0
  143.4852  135.1723  151.9169 H   0  0  0  0  0  0  0  0  0  0  0  0
  143.8131  131.5917  151.7467 H   0  0  0  0  0  0  0  0  0  0  0  0
  145.0486  131.6693  150.5059 H   0  0  0  0  0  0  0  0  0  0  0  0
  146.6516  132.6994  152.0735 H   0  0  0  0  0  0  0  0  0  0  0  0
  146.0844  131.1562  152.6734 H   0  0  0  0  0  0  0  0  0  0  0  0
  144.4782  132.3534  154.0002 H   0  0  0  0  0  0  0  0  0  0  0  0
  1  2  1  0  0  0  0
  1 25  1  0  0  0  0
  1 26  1  0  0  0  0
  1 27  1  0  0  0  0
  2  3  1  0  0  0  0
  2 28  1  0  0  0  0
  2 29  1  0  0  0  0
  3  4  1  0  0  0  0
  3  5  1  0  0  0  0
  3 19  1  0  0  0  0
  4 30  1  0  0  0  0
  4 31  1  0  0  0  0
  4 32  1  0  0  0  0
  5  6  1  0  0  0  0
  5 33  1  0  0  0  0
  5 34  1  0  0  0  0
  6  7  1  0  0  0  0
  6 35  1  0  0  0  0
  7  8  2  0  0  0  0
  7  9  1  0  0  0  0
  9 10  1  0  0  0  0
  9 36  1  0  0  0  0
  9 37  1  0  0  0  0
 10 17  1  0  0  0  0
 10 11  2  0  0  0  0
 11 12  1  0  0  0  0
 11 13  1  0  0  0  0
 12 38  1  0  0  0  0
 12 39  1  0  0  0  0
 12 40  1  0  0  0  0
 13 14  2  0  0  0  0
 14 15  1  0  0  0  0
 14 16  1  0  0  0  0
 15 41  1  0  0  0  0
 15 42  1  0  0  0  0
 15 43  1  0  0  0  0
 16 17  1  0  0  0  0
 17 18  2  0  0  0  0
 19 24  1  0  0  0  0
 19 20  1  0  0  0  0
 19 52  1  0  0  0  0
 20 21  1  0  0  0  0
 20 44  1  0  0  0  0
 20 45  1  0  0  0  0
 21 22  1  0  0  0  0
 21 46  1  0  0  0  0
 21 47  1  0  0  0  0
 22 23  1  0  0  0  0
 23 24  1  0  0  0  0
 23 48  1  0  0  0  0
 23 49  1  0  0  0  0
 24 50  1  0  0  0  0
 24 51  1  0  0  0  0
M  CHG  1  16  -1
M  CHG  1  19   1
M  END
> <s_m_source_file>
AV-unprocessed.smi

> <i_m_source_file_index>
1492

> <i_lp_mmshare_version>
43012

> <i_f3d_flags>
0

> <s_epik_input>
W0NIMl0xW0NIMl1PW0NIMl1bQ0gyXU4xW0NAQF0oW0NIM10pKFtDSDJdW0NIM10pW0NIMl1bTkhdQyg9TylbQ0gyXWMyYyhbQ0gzXSluYyhbQ0gzXSlbbkhdYzI9Tw==

> <s_epik_cmdline>
J2VwaWtfcHl0aG9uJywgJy1waCcsICc3LjAnLCAnLXRuJywgJzgnLCAnLW1hJywgJzIwMCcsICctbWV0YWxfYmluZGluZycsICctaW1hZScsICc8aW5maWxlLm1hZT4nLCAnLW9tYWUnLCAnPG91dGZpbGUubWFlPic=

> <r_lp_tautomer_probability>
0.839158

> <r_epik_Ionization_Penalty>
6.90614

> <r_epik_Ionization_Penalty_Charging>
0.570079

> <r_epik_Ionization_Penalty_Neutral>
6.33607

> <r_epik_State_Penalty>
4.81716

> <r_epik_Charging_Adjusted_Penalty>
5.38724

> <i_epik_Tot_Q>
0

> <i_epik_Tot_abs_Q>
2

> <r_epik_Metal_State_Penalty>
1.25629

> <b_epik_Metal_Only>
1

> <s_lp_Force_Field>
OPLS_2005

> <r_lp_Energy>
28.2979

> <b_lp_Chiralities_Consistent>
1

> <s_lp_Variant>
AV-unprocessed.smi:1492-11

> <Gold.Version>
5.8.1

> <Gold.Id.Protein>
6NUR|6NUR_protein|mol2

> <Gold.PLP.Fitness>
41.9881

> <Gold.PLP.PLP>
-29.9894

> <Gold.PLP.part.hbond>
-2.9961

> <Gold.PLP.part.metal>
0.0000

> <Gold.PLP.part.buried>
-3.8079

> <Gold.PLP.part.nonpolar>
-24.7097

> <Gold.PLP.part.repulsive>
0.1396

> <Gold.PLP.ligand.clash>
0.0000

> <Gold.PLP.ligand.torsion>
1.5723

> <Gold.PLP.Chemscore.Hbond>
4.9913

> <Gold.PLP.Chemscore.CHOScore>
0.0000

> <Gold.PLP.Chemscore.Metal>
0.0000

> <Gold.Chemscore.Hbonds>
donor molecule, donor type, donor heavy atom, donor atom, acceptor molecule, acceptor atom, score
      L1  H    19    52       P1 10957  1.95
      P1  H  6896  6908       L1    18  1.00
      P1  H  6931  6943       L1    16  1.70

> <Gold.PLP.Chemscore.Internal.Correction>
0.1696

> <Gold.Rescore>
     Score         DG    S(hbond)    S(metal)    S(lipo)     H(rot)  DE(clash)    DE(int)     intcor
     12.73     -15.69       2.38        0.00      65.80       2.12       1.22       1.74       ----

> <Gold.Chemscore.Fitness>
12.7303

> <Gold.Chemscore.DG>
-15.6877

> <Gold.Chemscore.ZeroCoef>
-5.4800

> <Gold.Chemscore.Hbond>
2.3789

> <Gold.Chemscore.Metal>
0.0000

> <Gold.Chemscore.Lipo>
65.7962

> <Gold.Chemscore.Internal_Hbond>
0.0000

> <Gold.Chemscore.DEClash>
1.2198

> <Gold.Chemscore.DEInternal>
1.7375

> <Gold.Chemscore.Rot>
2.1235

> <Gold.Chemscore.Internal.Correction>
   9.000000E+99

> <Gold.Chemscore.Hbonds>
donor molecule, donor type, donor heavy atom, donor atom, acceptor molecule, acceptor atom, score
      L1  H    19    52       P1 10957  0.32
      P1  H  6896  6908       L1    18  0.52
      P1  H  6931  6943       L1    16  0.15

> <Gold.Chemscore.Hbond.Weighted>
-7.9456

> <Gold.Chemscore.Metal.Weighted>
-0.0000

> <Gold.Chemscore.Lipo.Weighted>
-7.6982

> <Gold.Chemscore.Internal_Hbond.Weighted>
0.0000

> <Gold.Chemscore.DEClash.Weighted>
1.2198

> <Gold.Chemscore.DEInternal.Weighted>
1.7375

> <Gold.Chemscore.Rot.Weighted>
5.4360

> <Gold.Chemscore.Internal.Correction.Weighted>
   9.000000E+99

> <Gold.Protein.RotatedTorsions>
[ 6907 6896 6895 6894 ] final -175.08 input  -60.11 | X-H torsion
[ 7974 7965 7964 7962 ] final -108.18 input  175.53 | X-H torsion
[ 8008 7997 7996 7995 ] final -176.14 input   59.86 | X-H torsion
[ 10167 10162 10161 10158 ] final   87.87 input  -65.29 | X-H torsion
[ 10718 10713 10712 10709 ] final  114.13 input   66.30 | X-H torsion
[ 10763 10752 10751 10750 ] final -132.06 input  -60.55 | X-H torsion
[ 11005 11000 10999 10996 ] final   13.29 input  -57.11 | X-H torsion

> <Gold.Protein.ActiveResidues>
 VAL166  LYS551  ARG553  GLY616  TRP617  ASP618  TYR619  PRO620  LYS621  CYS622 
 ASP623  PHE694  ASN695  SER759  ASP760  ASP761  ALA762  ILE779  LEU786  VAL792 
 PHE793  MET794  SER795  GLU796  ALA797  LYS798  CYS799  TRP800  GLU811  SER814 

> <Gold.Protein.RotatedAtoms>
  151.5827  133.3376  159.3011 H   0  0  0  0  0  0  0  0  0  0  0  0  # atno 6907 bound_to 6896
  150.8304  134.7558  159.6860 H   0  0  0  0  0  0  0  0  0  0  0  0  # atno 6908 bound_to 6896
  152.4388  134.5638  159.9953 H   0  0  0  0  0  0  0  0  0  0  0  0  # atno 6909 bound_to 6896
  145.1960  140.9036  143.3397 H   0  0  0  0  0  0  0  0  0  0  0  0  # atno 7974 bound_to 7965
  155.9912  140.1201  157.0636 H   0  0  0  0  0  0  0  0  0  0  0  0  # atno 8008 bound_to 7997
  154.4212  140.1125  156.5637 H   0  0  0  0  0  0  0  0  0  0  0  0  # atno 8009 bound_to 7997
  155.6340  140.3473  155.4694 H   0  0  0  0  0  0  0  0  0  0  0  0  # atno 8010 bound_to 7997
  139.8730  144.6482  150.8927 H   0  0  0  0  0  0  0  0  0  0  0  0  # atno 10167 bound_to 10162
  157.6299  131.0994  150.7141 H   0  0  0  0  0  0  0  0  0  0  0  0  # atno 10718 bound_to 10713
  154.8746  135.3810  154.4348 H   0  0  0  0  0  0  0  0  0  0  0  0  # atno 10763 bound_to 10752
  153.5039  135.7030  153.5822 H   0  0  0  0  0  0  0  0  0  0  0  0  # atno 10764 bound_to 10752
  153.4142  135.3917  155.2036 H   0  0  0  0  0  0  0  0  0  0  0  0  # atno 10765 bound_to 10752
  140.4824  134.0922  155.7753 H   0  0  0  0  0  0  0  0  0  0  0  0  # atno 11005 bound_to 11000
  144.9994  139.3613  143.6175 LP  0  0  0  0  0  0  0  0  0  0  0  0  # atno 17320 bound_to 7965
  146.3427  139.9211  142.8766 LP  0  0  0  0  0  0  0  0  0  0  0  0  # atno 17321 bound_to 7965
  140.7757  143.3648  151.1760 LP  0  0  0  0  0  0  0  0  0  0  0  0  # atno 17342 bound_to 10162
  139.7266  143.9139  152.3005 LP  0  0  0  0  0  0  0  0  0  0  0  0  # atno 17343 bound_to 10162
  156.7482  130.4760  149.5462 LP  0  0  0  0  0  0  0  0  0  0  0  0  # atno 17370 bound_to 10713
  156.1495  130.6300  151.0577 LP  0  0  0  0  0  0  0  0  0  0  0  0  # atno 17371 bound_to 10713
  141.1525  133.8943  157.2063 LP  0  0  0  0  0  0  0  0  0  0  0  0  # atno 17394 bound_to 11000
  139.9818  135.0095  156.9769 LP  0  0  0  0  0  0  0  0  0  0  0  0  # atno 17395 bound_to 11000

$$$$
