AV-unprocessed.smi:1268|AV-procd|sdf|5325|dock7
  -GOLD-   22720 4453D 1   1.00000     0.00000
 Structure written by MMmdl.
 39 40  0  0  0  0  0  0  0  0  3 V2000
  153.2843  139.1878  158.0726 O   0  0  0  0  0  0  0  0  0  0  0  0
  152.3837  139.9122  157.6435 C   0  0  0  0  0  0  0  0  0  0  0  0
  151.8525  139.6737  156.4378 N   0  0  0  0  0  0  0  0  0  0  0  0
  152.2350  138.5838  155.5489 C   0  0  0  0  0  0  0  0  0  0  0  0
  150.9902  137.9184  154.9390 C   0  0  2  0  0  0  0  0  0  0  0  0
  151.4248  136.8951  154.0641 O   0  0  0  0  0  0  0  0  0  0  0  0
  150.1637  138.9206  154.1089 C   0  0  0  0  0  0  0  0  0  0  0  0
  148.8405  138.3759  153.7099 N   0  3  0  0  0  0  0  0  0  0  0  0
  148.0234  139.3689  152.9654 C   0  0  0  0  0  0  0  0  0  0  0  0
  146.7262  138.7355  152.4346 C   0  0  0  0  0  0  0  0  0  0  0  0
  145.9140  138.1089  153.5750 C   0  0  0  0  0  0  0  0  0  0  0  0
  146.7850  137.1137  154.3522 C   0  0  0  0  0  0  0  0  0  0  0  0
  148.0817  137.7803  154.8425 C   0  0  0  0  0  0  0  0  0  0  0  0
  151.8344  140.9730  158.2763 N   0  5  0  0  0  0  0  0  0  0  0  0
  152.3781  141.4316  159.4156 C   0  0  0  0  0  0  0  0  0  0  0  0
  151.7232  142.2278  160.2684 N   0  0  0  0  0  0  0  0  0  0  0  0
  152.4761  142.5773  161.3910 C   0  0  0  0  0  0  0  0  0  0  0  0
  153.7302  142.0270  161.3980 C   0  0  0  0  0  0  0  0  0  0  0  0
  154.0049  141.0475  159.9857 S   0  0  0  0  0  0  0  0  0  0  0  0
  151.1224  140.2947  156.1216 H   0  0  0  0  0  0  0  0  0  0  0  0
  152.8521  139.0126  154.7582 H   0  0  0  0  0  0  0  0  0  0  0  0
  152.8524  137.8480  156.0678 H   0  0  0  0  0  0  0  0  0  0  0  0
  150.3835  137.4837  155.7334 H   0  0  0  0  0  0  0  0  0  0  0  0
  151.1994  137.1440  153.1796 H   0  0  0  0  0  0  0  0  0  0  0  0
  150.0175  139.8503  154.6609 H   0  0  0  0  0  0  0  0  0  0  0  0
  150.7388  139.1853  153.2197 H   0  0  0  0  0  0  0  0  0  0  0  0
  147.7931  140.2139  153.6163 H   0  0  0  0  0  0  0  0  0  0  0  0
  148.5963  139.7619  152.1246 H   0  0  0  0  0  0  0  0  0  0  0  0
  146.1274  139.4874  151.9199 H   0  0  0  0  0  0  0  0  0  0  0  0
  146.9679  137.9719  151.6942 H   0  0  0  0  0  0  0  0  0  0  0  0
  145.5569  138.8905  154.2468 H   0  0  0  0  0  0  0  0  0  0  0  0
  145.0301  137.6083  153.1783 H   0  0  0  0  0  0  0  0  0  0  0  0
  146.2271  136.7144  155.1996 H   0  0  0  0  0  0  0  0  0  0  0  0
  147.0293  136.2633  153.7141 H   0  0  0  0  0  0  0  0  0  0  0  0
  148.6876  137.0359  155.3575 H   0  0  0  0  0  0  0  0  0  0  0  0
  147.8489  138.5566  155.5732 H   0  0  0  0  0  0  0  0  0  0  0  0
  152.0383  143.2227  162.1379 H   0  0  0  0  0  0  0  0  0  0  0  0
  154.5040  142.1353  162.1429 H   0  0  0  0  0  0  0  0  0  0  0  0
  149.0342  137.6289  153.0577 H   0  0  0  0  0  0  0  0  0  0  0  0
  1  2  2  0  0  0  0
  2  3  1  0  0  0  0
  2 14  1  0  0  0  0
  3  4  1  0  0  0  0
  3 20  1  0  0  0  0
  4  5  1  0  0  0  0
  4 21  1  0  0  0  0
  4 22  1  0  0  0  0
  5  6  1  0  0  0  0
  5  7  1  0  0  0  0
  5 23  1  0  0  0  0
  6 24  1  0  0  0  0
  7  8  1  0  0  0  0
  7 25  1  0  0  0  0
  7 26  1  0  0  0  0
  8 13  1  0  0  0  0
  8  9  1  0  0  0  0
  8 39  1  0  0  0  0
  9 10  1  0  0  0  0
  9 27  1  0  0  0  0
  9 28  1  0  0  0  0
 10 11  1  0  0  0  0
 10 29  1  0  0  0  0
 10 30  1  0  0  0  0
 11 12  1  0  0  0  0
 11 31  1  0  0  0  0
 11 32  1  0  0  0  0
 12 13  1  0  0  0  0
 12 33  1  0  0  0  0
 12 34  1  0  0  0  0
 13 35  1  0  0  0  0
 13 36  1  0  0  0  0
 14 15  1  0  0  0  0
 15 19  1  0  0  0  0
 15 16  2  0  0  0  0
 16 17  1  0  0  0  0
 17 18  2  0  0  0  0
 17 37  1  0  0  0  0
 18 19  1  0  0  0  0
 18 38  1  0  0  0  0
M  CHG  1   8   1
M  CHG  1  14  -1
M  END
> <s_m_source_file>
AV-unprocessed.smi

> <i_m_source_file_index>
1268

> <i_lp_mmshare_version>
43012

> <i_f3d_flags>
0

> <s_epik_input>
czFbY0hdW2NIXW5jMVtOSF1DKD1PKVtOSF1bQ0gyXVtDQEhdKFtPSF0pW0NIMl1OMltDSDJdW0NIMl1bQ0gyXVtDSDJdW0NIMl0y

> <s_epik_cmdline>
J2VwaWtfcHl0aG9uJywgJy1waCcsICc3LjAnLCAnLXRuJywgJzgnLCAnLW1hJywgJzIwMCcsICctbWV0YWxfYmluZGluZycsICctaW1hZScsICc8aW5maWxlLm1hZT4nLCAnLW9tYWUnLCAnPG91dGZpbGUubWFlPic=

> <r_lp_tautomer_probability>
0.999

> <r_epik_Ionization_Penalty>
6.36291

> <r_epik_Ionization_Penalty_Charging>
5.4816

> <r_epik_Ionization_Penalty_Neutral>
0.881305

> <r_epik_State_Penalty>
5.4805

> <r_epik_Charging_Adjusted_Penalty>
10.9621

> <i_epik_Tot_Q>
0

> <i_epik_Tot_abs_Q>
2

> <r_epik_Metal_State_Penalty>
1.48871

> <b_epik_Metal_Only>
1

> <s_lp_Force_Field>
OPLS_2005

> <r_lp_Energy>
11.3564

> <b_lp_Chiralities_Consistent>
1

> <s_lp_Variant>
AV-unprocessed.smi:1268-3

> <Gold.Version>
5.8.1

> <Gold.Id.Protein>
6NUR|6NUR_protein|mol2

> <Gold.PLP.Fitness>
46.1606

> <Gold.PLP.PLP>
-32.8904

> <Gold.PLP.part.hbond>
-5.7119

> <Gold.PLP.part.metal>
0.0000

> <Gold.PLP.part.buried>
-0.1940

> <Gold.PLP.part.nonpolar>
-27.8984

> <Gold.PLP.part.repulsive>
0.1886

> <Gold.PLP.ligand.clash>
0.0000

> <Gold.PLP.ligand.torsion>
0.2780

> <Gold.PLP.Chemscore.Hbond>
4.5772

> <Gold.PLP.Chemscore.CHOScore>
0.0000

> <Gold.PLP.Chemscore.Metal>
0.0000

> <Gold.Chemscore.Hbonds>
donor molecule, donor type, donor heavy atom, donor atom, acceptor molecule, acceptor atom, score
      L1  H     6    24       P1  7949  0.55
      L1  H     8    39       P1  7948  2.00
      P1  H  7997  8008       L1     1  1.00
      P1  H 10752 10765       L1     6  1.00

> <Gold.PLP.Chemscore.Internal.Correction>
0.0946

> <Gold.Rescore>
     Score         DG    S(hbond)    S(metal)    S(lipo)     H(rot)  DE(clash)    DE(int)     intcor
     16.43     -18.33       3.18        0.00      73.34       2.48       0.15       1.75       ----

> <Gold.Chemscore.Fitness>
16.4296

> <Gold.Chemscore.DG>
-18.3290

> <Gold.Chemscore.ZeroCoef>
-5.4800

> <Gold.Chemscore.Hbond>
3.1812

> <Gold.Chemscore.Metal>
0.0000

> <Gold.Chemscore.Lipo>
73.3431

> <Gold.Chemscore.Internal_Hbond>
0.0000

> <Gold.Chemscore.DEClash>
0.1487

> <Gold.Chemscore.DEInternal>
1.7507

> <Gold.Chemscore.Rot>
2.4834

> <Gold.Chemscore.Internal.Correction>
   9.000000E+99

> <Gold.Chemscore.Hbonds>
donor molecule, donor type, donor heavy atom, donor atom, acceptor molecule, acceptor atom, score
      L1  H     6    24       P1  7949  0.29
      L1  H     8    39       P1  7948  1.00
      P1  H  7997  8008       L1     1  0.28
      P1  H 10752 10765       L1     6  0.89

> <Gold.Chemscore.Hbond.Weighted>
-10.6253

> <Gold.Chemscore.Metal.Weighted>
-0.0000

> <Gold.Chemscore.Lipo.Weighted>
-8.5811

> <Gold.Chemscore.Internal_Hbond.Weighted>
0.0000

> <Gold.Chemscore.DEClash.Weighted>
0.1487

> <Gold.Chemscore.DEInternal.Weighted>
1.7507

> <Gold.Chemscore.Rot.Weighted>
6.3575

> <Gold.Chemscore.Internal.Correction.Weighted>
   9.000000E+99

> <Gold.Protein.RotatedTorsions>
[ 6907 6896 6895 6894 ] final  -27.76 input  -60.11 | X-H torsion
[ 7974 7965 7964 7962 ] final  103.12 input  175.53 | X-H torsion
[ 8008 7997 7996 7995 ] final -105.51 input   59.86 | X-H torsion
[ 10167 10162 10161 10158 ] final -149.50 input  -65.29 | X-H torsion
[ 10718 10713 10712 10709 ] final   38.26 input   66.30 | X-H torsion
[ 10763 10752 10751 10750 ] final  157.06 input  -60.55 | X-H torsion
[ 11005 11000 10999 10996 ] final  122.34 input  -57.11 | X-H torsion

> <Gold.Protein.ActiveResidues>
 VAL166  LYS551  ARG553  GLY616  TRP617  ASP618  TYR619  PRO620  LYS621  CYS622 
 ASP623  PHE694  ASN695  SER759  ASP760  ASP761  ALA762  ILE779  LEU786  VAL792 
 PHE793  MET794  SER795  GLU796  ALA797  LYS798  CYS799  TRP800  GLU811  SER814 

> <Gold.Protein.RotatedAtoms>
  151.1424  135.0186  159.8631 H   0  0  0  0  0  0  0  0  0  0  0  0  # atno 6907 bound_to 6896
  152.5452  134.1484  159.8518 H   0  0  0  0  0  0  0  0  0  0  0  0  # atno 6908 bound_to 6896
  151.1561  133.4830  159.2627 H   0  0  0  0  0  0  0  0  0  0  0  0  # atno 6909 bound_to 6896
  145.3502  139.2441  143.3562 H   0  0  0  0  0  0  0  0  0  0  0  0  # atno 7974 bound_to 7965
  154.9009  140.0413  157.1892 H   0  0  0  0  0  0  0  0  0  0  0  0  # atno 8008 bound_to 7997
  154.8445  140.2919  155.5617 H   0  0  0  0  0  0  0  0  0  0  0  0  # atno 8009 bound_to 7997
  156.2993  140.2476  156.3393 H   0  0  0  0  0  0  0  0  0  0  0  0  # atno 8010 bound_to 7997
  139.7437  143.8623  152.2569 H   0  0  0  0  0  0  0  0  0  0  0  0  # atno 10167 bound_to 10162
  157.3567  130.7627  149.7017 H   0  0  0  0  0  0  0  0  0  0  0  0  # atno 10718 bound_to 10713
  154.1943  135.2793  155.3012 H   0  0  0  0  0  0  0  0  0  0  0  0  # atno 10763 bound_to 10752
  154.5904  135.5561  153.7276 H   0  0  0  0  0  0  0  0  0  0  0  0  # atno 10764 bound_to 10752
  153.0104  135.6367  154.2081 H   0  0  0  0  0  0  0  0  0  0  0  0  # atno 10765 bound_to 10752
  139.9264  134.9641  156.8094 H   0  0  0  0  0  0  0  0  0  0  0  0  # atno 11005 bound_to 11000
  146.2971  140.4116  142.8717 LP  0  0  0  0  0  0  0  0  0  0  0  0  # atno 17320 bound_to 7965
  144.8724  140.7290  143.6038 LP  0  0  0  0  0  0  0  0  0  0  0  0  # atno 17321 bound_to 7965
  139.8581  144.7131  150.9132 LP  0  0  0  0  0  0  0  0  0  0  0  0  # atno 17342 bound_to 10162
  140.7789  143.3841  151.1425 LP  0  0  0  0  0  0  0  0  0  0  0  0  # atno 17343 bound_to 10162
  155.9730  130.4125  150.4036 LP  0  0  0  0  0  0  0  0  0  0  0  0  # atno 17370 bound_to 10713
  157.2107  131.0460  151.2600 LP  0  0  0  0  0  0  0  0  0  0  0  0  # atno 17371 bound_to 10713
  140.6324  133.9893  155.7668 LP  0  0  0  0  0  0  0  0  0  0  0  0  # atno 17394 bound_to 11000
  141.0824  134.0042  157.3365 LP  0  0  0  0  0  0  0  0  0  0  0  0  # atno 17395 bound_to 11000

$$$$
