AV-unprocessed.smi:2627|AV-procd|sdf|10240|dock8
  -GOLD-   2272014253D 1   1.00000     0.00000
 Structure written by MMmdl.
 39 41  0  0  0  0  0  0  0  0  1 V2000
  151.6169  138.2366  158.9161 C   0  0  0  0  0  0  0  0  0  0  0  0
  152.8954  139.0764  159.0489 C   0  0  1  0  0  0  0  0  0  0  0  0
  153.7753  138.7248  158.0019 O   0  0  0  0  0  0  0  0  0  0  0  0
  152.6027  140.5522  159.0600 C   0  0  0  0  0  0  0  0  0  0  0  0
  152.8584  141.2967  160.1389 N   0  0  0  0  0  0  0  0  0  0  0  0
  152.4653  142.5590  159.7443 C   0  0  0  0  0  0  0  0  0  0  0  0
  152.4965  143.7894  160.4389 C   0  0  0  0  0  0  0  0  0  0  0  0
  152.0350  144.9698  159.8207 C   0  0  0  0  0  0  0  0  0  0  0  0
  151.5364  144.9363  158.5024 C   0  0  0  0  0  0  0  0  0  0  0  0
  151.4949  143.7201  157.7940 C   0  0  0  0  0  0  0  0  0  0  0  0
  151.9572  142.5442  158.4155 C   0  0  0  0  0  0  0  0  0  0  0  0
  152.0480  141.2157  158.0094 N   0  0  0  0  0  0  0  0  0  0  0  0
  151.6156  140.7041  156.7151 C   0  0  0  0  0  0  0  0  0  0  0  0
  150.0944  140.5136  156.6362 C   0  0  0  0  0  0  0  0  0  0  0  0
  149.6189  140.9190  155.3598 O   0  0  0  0  0  0  0  0  0  0  0  0
  148.3472  141.4445  155.2746 C   0  0  0  0  0  0  0  0  0  0  0  0
  147.8421  141.6969  153.9819 C   0  0  0  0  0  0  0  0  0  0  0  0
  146.5529  142.2343  153.8026 C   0  0  0  0  0  0  0  0  0  0  0  0
  145.7504  142.5251  154.9210 C   0  0  0  0  0  0  0  0  0  0  0  0
  146.2402  142.2772  156.2168 C   0  0  0  0  0  0  0  0  0  0  0  0
  147.5307  141.7412  156.3960 C   0  0  0  0  0  0  0  0  0  0  0  0
  150.9116  138.4702  159.7131 H   0  0  0  0  0  0  0  0  0  0  0  0
  151.8389  137.1706  158.9714 H   0  0  0  0  0  0  0  0  0  0  0  0
  151.1124  138.4224  157.9673 H   0  0  0  0  0  0  0  0  0  0  0  0
  153.3837  138.7821  159.9748 H   0  0  0  0  0  0  0  0  0  0  0  0
  153.5323  137.8669  157.6879 H   0  0  0  0  0  0  0  0  0  0  0  0
  152.8772  143.8250  161.4490 H   0  0  0  0  0  0  0  0  0  0  0  0
  152.0640  145.9050  160.3603 H   0  0  0  0  0  0  0  0  0  0  0  0
  151.1853  145.8448  158.0355 H   0  0  0  0  0  0  0  0  0  0  0  0
  151.1135  143.6928  156.7843 H   0  0  0  0  0  0  0  0  0  0  0  0
  151.9747  141.3522  155.9168 H   0  0  0  0  0  0  0  0  0  0  0  0
  152.1055  139.7443  156.5493 H   0  0  0  0  0  0  0  0  0  0  0  0
  149.8575  139.4618  156.8035 H   0  0  0  0  0  0  0  0  0  0  0  0
  149.6130  141.0961  157.4235 H   0  0  0  0  0  0  0  0  0  0  0  0
  148.4476  141.4728  153.1161 H   0  0  0  0  0  0  0  0  0  0  0  0
  146.1796  142.4217  152.8065 H   0  0  0  0  0  0  0  0  0  0  0  0
  144.7610  142.9365  154.7854 H   0  0  0  0  0  0  0  0  0  0  0  0
  145.6249  142.4993  157.0762 H   0  0  0  0  0  0  0  0  0  0  0  0
  147.8711  141.5678  157.4054 H   0  0  0  0  0  0  0  0  0  0  0  0
  1  2  1  0  0  0  0
  1 22  1  0  0  0  0
  1 23  1  0  0  0  0
  1 24  1  0  0  0  0
  2  3  1  0  0  0  0
  2  4  1  0  0  0  0
  2 25  1  0  0  0  0
  3 26  1  0  0  0  0
  4 12  1  0  0  0  0
  4  5  2  0  0  0  0
  5  6  1  0  0  0  0
  6 11  2  0  0  0  0
  6  7  1  0  0  0  0
  7  8  2  0  0  0  0
  7 27  1  0  0  0  0
  8  9  1  0  0  0  0
  8 28  1  0  0  0  0
  9 10  2  0  0  0  0
  9 29  1  0  0  0  0
 10 11  1  0  0  0  0
 10 30  1  0  0  0  0
 11 12  1  0  0  0  0
 12 13  1  0  0  0  0
 13 14  1  0  0  0  0
 13 31  1  0  0  0  0
 13 32  1  0  0  0  0
 14 15  1  0  0  0  0
 14 33  1  0  0  0  0
 14 34  1  0  0  0  0
 15 16  1  0  0  0  0
 16 21  1  0  0  0  0
 16 17  2  0  0  0  0
 17 18  1  0  0  0  0
 17 35  1  0  0  0  0
 18 19  2  0  0  0  0
 18 36  1  0  0  0  0
 19 20  1  0  0  0  0
 19 37  1  0  0  0  0
 20 21  2  0  0  0  0
 20 38  1  0  0  0  0
 21 39  1  0  0  0  0
M  END
> <s_m_source_file>
AV-unprocessed.smi

> <i_m_source_file_index>
2627

> <i_lp_mmshare_version>
43012

> <i_f3d_flags>
0

> <s_epik_input>
W2NIXTFbY0hdW2NIXVtjSF1jKGMxMiluKGMobjIpW0NASF0oW0NIM10pW09IXSlbQ0gyXVtDSDJdT2MzW2NIXVtjSF1bY0hdW2NIXVtjSF0z

> <s_epik_cmdline>
J2VwaWtfcHl0aG9uJywgJy1waCcsICc3LjAnLCAnLXRuJywgJzgnLCAnLW1hJywgJzIwMCcsICctbWV0YWxfYmluZGluZycsICctaW1hZScsICc8aW5maWxlLm1hZT4nLCAnLW9tYWUnLCAnPG91dGZpbGUubWFlPic=

> <r_lp_tautomer_probability>
1

> <r_epik_Ionization_Penalty>
0.0472514

> <r_epik_Ionization_Penalty_Charging>
0

> <r_epik_Ionization_Penalty_Neutral>
0.0472514

> <r_epik_State_Penalty>
0.040225

> <r_epik_Charging_Adjusted_Penalty>
0.040225

> <i_epik_Tot_Q>
0

> <i_epik_Tot_abs_Q>
0

> <r_epik_Metal_State_Penalty>
4.16204e-05

> <b_epik_Metal_Only>
0

> <s_lp_Force_Field>
OPLS_2005

> <r_lp_Energy>
14.021

> <b_lp_Chiralities_Consistent>
1

> <s_lp_Variant>
AV-unprocessed.smi:2627-2

> <Gold.Version>
5.8.1

> <Gold.Id.Protein>
6NUR|6NUR_protein|mol2

> <Gold.PLP.Fitness>
47.7958

> <Gold.PLP.PLP>
-46.3444

> <Gold.PLP.part.hbond>
-1.0000

> <Gold.PLP.part.metal>
0.0000

> <Gold.PLP.part.buried>
-7.8390

> <Gold.PLP.part.nonpolar>
-37.8187

> <Gold.PLP.part.repulsive>
0.0948

> <Gold.PLP.ligand.clash>
0.0000

> <Gold.PLP.ligand.torsion>
0.8048

> <Gold.PLP.Chemscore.Hbond>
1.0000

> <Gold.PLP.Chemscore.CHOScore>
0.0000

> <Gold.PLP.Chemscore.Metal>
0.0000

> <Gold.Chemscore.Hbonds>
donor molecule, donor type, donor heavy atom, donor atom, acceptor molecule, acceptor atom, score
      P1  H  7997  8008       L1     3  1.00

> <Gold.PLP.Chemscore.Internal.Correction>
0.0610

> <Gold.Rescore>
     Score         DG    S(hbond)    S(metal)    S(lipo)     H(rot)  DE(clash)    DE(int)     intcor
     17.52     -18.35       0.97        0.00     127.24       2.06       0.09       0.74       ----

> <Gold.Chemscore.Fitness>
17.5173

> <Gold.Chemscore.DG>
-18.3459

> <Gold.Chemscore.ZeroCoef>
-5.4800

> <Gold.Chemscore.Hbond>
0.9722

> <Gold.Chemscore.Metal>
0.0000

> <Gold.Chemscore.Lipo>
127.2350

> <Gold.Chemscore.Internal_Hbond>
0.0000

> <Gold.Chemscore.DEClash>
0.0911

> <Gold.Chemscore.DEInternal>
0.7375

> <Gold.Chemscore.Rot>
2.0577

> <Gold.Chemscore.Internal.Correction>
   9.000000E+99

> <Gold.Chemscore.Hbonds>
donor molecule, donor type, donor heavy atom, donor atom, acceptor molecule, acceptor atom, score
      P1  H  7997  8008       L1     3  0.98

> <Gold.Chemscore.Hbond.Weighted>
-3.2473

> <Gold.Chemscore.Metal.Weighted>
-0.0000

> <Gold.Chemscore.Lipo.Weighted>
-14.8865

> <Gold.Chemscore.Internal_Hbond.Weighted>
0.0000

> <Gold.Chemscore.DEClash.Weighted>
0.0911

> <Gold.Chemscore.DEInternal.Weighted>
0.7375

> <Gold.Chemscore.Rot.Weighted>
5.2678

> <Gold.Chemscore.Internal.Correction.Weighted>
   9.000000E+99

> <Gold.Protein.RotatedTorsions>
[ 6907 6896 6895 6894 ] final   81.92 input  -60.11 | X-H torsion
[ 7974 7965 7964 7962 ] final   93.33 input  175.53 | X-H torsion
[ 8008 7997 7996 7995 ] final  -94.20 input   59.86 | X-H torsion
[ 10167 10162 10161 10158 ] final  112.03 input  -65.29 | X-H torsion
[ 10718 10713 10712 10709 ] final   77.85 input   66.30 | X-H torsion
[ 10763 10752 10751 10750 ] final  177.17 input  -60.55 | X-H torsion
[ 11005 11000 10999 10996 ] final -119.98 input  -57.11 | X-H torsion

> <Gold.Protein.ActiveResidues>
 VAL166  LYS551  ARG553  GLY616  TRP617  ASP618  TYR619  PRO620  LYS621  CYS622 
 ASP623  PHE694  ASN695  SER759  ASP760  ASP761  ALA762  ILE779  LEU786  VAL792 
 PHE793  MET794  SER795  GLU796  ALA797  LYS798  CYS799  TRP800  GLU811  SER814 

> <Gold.Protein.RotatedAtoms>
  152.5283  134.3130  159.9120 H   0  0  0  0  0  0  0  0  0  0  0  0  # atno 6907 bound_to 6896
  151.3079  133.4087  159.2652 H   0  0  0  0  0  0  0  0  0  0  0  0  # atno 6908 bound_to 6896
  151.0063  134.9378  159.8039 H   0  0  0  0  0  0  0  0  0  0  0  0  # atno 6909 bound_to 6896
  145.4804  139.2278  143.2886 H   0  0  0  0  0  0  0  0  0  0  0  0  # atno 7974 bound_to 7965
  154.7453  140.0491  157.0847 H   0  0  0  0  0  0  0  0  0  0  0  0  # atno 8008 bound_to 7997
  155.0125  140.3137  155.4805 H   0  0  0  0  0  0  0  0  0  0  0  0  # atno 8009 bound_to 7997
  156.2873  140.2181  156.5240 H   0  0  0  0  0  0  0  0  0  0  0  0  # atno 8010 bound_to 7997
  139.6566  144.7129  151.1945 H   0  0  0  0  0  0  0  0  0  0  0  0  # atno 10167 bound_to 10162
  157.6725  130.9841  150.1701 H   0  0  0  0  0  0  0  0  0  0  0  0  # atno 10718 bound_to 10713
  154.4909  135.2779  155.1498 H   0  0  0  0  0  0  0  0  0  0  0  0  # atno 10763 bound_to 10752
  154.3170  135.6217  153.5494 H   0  0  0  0  0  0  0  0  0  0  0  0  # atno 10764 bound_to 10752
  152.9888  135.5733  154.5330 H   0  0  0  0  0  0  0  0  0  0  0  0  # atno 10765 bound_to 10752
  141.0177  134.0171  157.3327 H   0  0  0  0  0  0  0  0  0  0  0  0  # atno 11005 bound_to 11000
  146.2344  140.5590  142.8961 LP  0  0  0  0  0  0  0  0  0  0  0  0  # atno 17320 bound_to 7965
  144.7892  140.5998  143.6553 LP  0  0  0  0  0  0  0  0  0  0  0  0  # atno 17321 bound_to 7965
  140.7562  143.6062  150.8650 LP  0  0  0  0  0  0  0  0  0  0  0  0  # atno 17342 bound_to 10162
  139.9716  143.6051  152.2972 LP  0  0  0  0  0  0  0  0  0  0  0  0  # atno 17343 bound_to 10162
  156.2457  130.3695  149.8288 LP  0  0  0  0  0  0  0  0  0  0  0  0  # atno 17370 bound_to 10713
  156.6075  130.8572  151.3446 LP  0  0  0  0  0  0  0  0  0  0  0  0  # atno 17371 bound_to 10713
  139.9127  135.0192  156.7756 LP  0  0  0  0  0  0  0  0  0  0  0  0  # atno 17394 bound_to 11000
  140.6627  133.9631  155.7813 LP  0  0  0  0  0  0  0  0  0  0  0  0  # atno 17395 bound_to 11000

$$$$
