AV-unprocessed.smi:1692|AV-procd|sdf|6784|dock1
  -GOLD-   22720 7543D 1   1.00000     0.00000
 Structure written by MMmdl.
 45 46  0  0  0  0  0  0  0  0  1 V2000
  152.7063  144.7784  158.2231 C   0  0  0  0  0  0  0  0  0  0  0  0
  151.9037  144.0742  159.3303 C   0  0  1  0  0  0  0  0  0  0  0  0
  150.7348  143.2246  158.7916 C   0  0  0  0  0  0  0  0  0  0  0  0
  151.1797  141.9818  158.1637 N   0  0  0  0  0  0  0  0  0  0  0  0
  150.0656  141.1624  157.6887 C   0  0  0  0  0  0  0  0  0  0  0  0
  150.4383  140.0965  156.6441 C   0  0  0  0  0  0  0  0  0  0  0  0
  150.9721  138.8101  157.2952 C   0  0  0  0  0  0  0  0  0  0  0  0
  150.0469  138.2857  158.2935 N   0  0  0  0  0  0  0  0  0  0  0  0
  149.9620  136.9990  158.6620 C   0  0  0  0  0  0  0  0  0  0  0  0
  150.6715  136.1104  158.1894 O   0  0  0  0  0  0  0  0  0  0  0  0
  149.0138  136.8221  159.5992 N   0  0  0  0  0  0  0  0  0  0  0  0
  148.6320  135.6157  160.2452 C   0  0  0  0  0  0  0  0  0  0  0  0
  148.3331  135.7417  161.6209 C   0  0  0  0  0  0  0  0  0  0  0  0
  147.9465  134.6025  162.3533 C   0  0  0  0  0  0  0  0  0  0  0  0
  147.8683  133.3647  161.6906 C   0  0  0  0  0  0  0  0  0  0  0  0
  148.1817  133.3261  160.3194 C   0  0  0  0  0  0  0  0  0  0  0  0
  148.5527  134.4166  159.6156 N   0  0  0  0  0  0  0  0  0  0  0  0
  152.0023  141.2410  159.1118 C   0  0  0  0  0  0  0  0  0  0  0  0
  153.2083  142.0653  159.5967 C   0  0  2  0  0  0  0  0  0  0  0  0
  154.0287  141.3200  160.6545 C   0  0  0  0  0  0  0  0  0  0  0  0
  152.7448  143.2850  160.1730 O   0  0  0  0  0  0  0  0  0  0  0  0
  152.0716  145.4624  157.6597 H   0  0  0  0  0  0  0  0  0  0  0  0
  153.1326  144.0711  157.5122 H   0  0  0  0  0  0  0  0  0  0  0  0
  153.5244  145.3607  158.6470 H   0  0  0  0  0  0  0  0  0  0  0  0
  151.4838  144.8565  159.9632 H   0  0  0  0  0  0  0  0  0  0  0  0
  150.0607  142.9904  159.6170 H   0  0  0  0  0  0  0  0  0  0  0  0
  150.1607  143.8260  158.0875 H   0  0  0  0  0  0  0  0  0  0  0  0
  149.6263  140.6451  158.5428 H   0  0  0  0  0  0  0  0  0  0  0  0
  149.2781  141.8037  157.2902 H   0  0  0  0  0  0  0  0  0  0  0  0
  149.5686  139.8526  156.0342 H   0  0  0  0  0  0  0  0  0  0  0  0
  151.1918  140.4997  155.9659 H   0  0  0  0  0  0  0  0  0  0  0  0
  151.1176  138.0419  156.5352 H   0  0  0  0  0  0  0  0  0  0  0  0
  151.9491  138.9874  157.7480 H   0  0  0  0  0  0  0  0  0  0  0  0
  149.4257  138.9501  158.7314 H   0  0  0  0  0  0  0  0  0  0  0  0
  148.5080  137.6465  159.8866 H   0  0  0  0  0  0  0  0  0  0  0  0
  148.3982  136.7004  162.1149 H   0  0  0  0  0  0  0  0  0  0  0  0
  147.7143  134.6780  163.4054 H   0  0  0  0  0  0  0  0  0  0  0  0
  147.5758  132.4692  162.2184 H   0  0  0  0  0  0  0  0  0  0  0  0
  148.1334  132.3960  159.7729 H   0  0  0  0  0  0  0  0  0  0  0  0
  151.3970  140.9408  159.9689 H   0  0  0  0  0  0  0  0  0  0  0  0
  152.3611  140.3215  158.6480 H   0  0  0  0  0  0  0  0  0  0  0  0
  153.8610  142.2880  158.7521 H   0  0  0  0  0  0  0  0  0  0  0  0
  154.4270  140.3866  160.2560 H   0  0  0  0  0  0  0  0  0  0  0  0
  153.4218  141.0802  161.5281 H   0  0  0  0  0  0  0  0  0  0  0  0
  154.8718  141.9242  160.9900 H   0  0  0  0  0  0  0  0  0  0  0  0
  1  2  1  0  0  0  0
  1 22  1  0  0  0  0
  1 23  1  0  0  0  0
  1 24  1  0  0  0  0
  2 21  1  0  0  0  0
  2  3  1  0  0  0  0
  2 25  1  0  0  0  0
  3  4  1  0  0  0  0
  3 26  1  0  0  0  0
  3 27  1  0  0  0  0
  4  5  1  0  0  0  0
  4 18  1  0  0  0  0
  5  6  1  0  0  0  0
  5 28  1  0  0  0  0
  5 29  1  0  0  0  0
  6  7  1  0  0  0  0
  6 30  1  0  0  0  0
  6 31  1  0  0  0  0
  7  8  1  0  0  0  0
  7 32  1  0  0  0  0
  7 33  1  0  0  0  0
  8  9  1  0  0  0  0
  8 34  1  0  0  0  0
  9 10  2  0  0  0  0
  9 11  1  0  0  0  0
 11 12  1  0  0  0  0
 11 35  1  0  0  0  0
 12 17  1  0  0  0  0
 12 13  2  0  0  0  0
 13 14  1  0  0  0  0
 13 36  1  0  0  0  0
 14 15  2  0  0  0  0
 14 37  1  0  0  0  0
 15 16  1  0  0  0  0
 15 38  1  0  0  0  0
 16 17  2  0  0  0  0
 16 39  1  0  0  0  0
 18 19  1  0  0  0  0
 18 40  1  0  0  0  0
 18 41  1  0  0  0  0
 19 20  1  0  0  0  0
 19 21  1  0  0  0  0
 19 42  1  0  0  0  0
 20 43  1  0  0  0  0
 20 44  1  0  0  0  0
 20 45  1  0  0  0  0
M  END
> <s_m_source_file>
AV-unprocessed.smi

> <i_m_source_file_index>
1692

> <i_lp_mmshare_version>
43012

> <i_f3d_flags>
0

> <s_epik_input>
W0NIM11bQ0BASF0xW0NIMl1OKFtDSDJdW0NASF0oTzEpW0NIM10pW0NIMl1bQ0gyXVtDSDJdW05IXUMoPU8pW05IXWMyW2NIXVtjSF1bY0hdW2NIXW4y

> <s_epik_cmdline>
J2VwaWtfcHl0aG9uJywgJy1waCcsICc3LjAnLCAnLXRuJywgJzgnLCAnLW1hJywgJzIwMCcsICctbWV0YWxfYmluZGluZycsICctaW1hZScsICc8aW5maWxlLm1hZT4nLCAnLW9tYWUnLCAnPG91dGZpbGUubWFlPic=

> <r_epik_Ionization_Penalty>
0.594711

> <r_epik_Ionization_Penalty_Charging>
0

> <r_epik_Ionization_Penalty_Neutral>
0.594711

> <r_epik_State_Penalty>
0.608529

> <r_epik_Charging_Adjusted_Penalty>
0.608529

> <i_epik_Tot_Q>
0

> <i_epik_Tot_abs_Q>
0

> <r_epik_Metal_State_Penalty>
0.608528

> <b_epik_Metal_Only>
0

> <s_lp_Force_Field>
OPLS_2005

> <r_lp_Energy>
25.6838

> <b_lp_Chiralities_Consistent>
1

> <s_lp_Variant>
AV-unprocessed.smi:1692-7

> <Gold.Version>
5.8.1

> <Gold.Id.Protein>
6NUR|6NUR_protein|mol2

> <Gold.PLP.Fitness>
46.3849

> <Gold.PLP.PLP>
-44.8673

> <Gold.PLP.part.hbond>
-1.0000

> <Gold.PLP.part.metal>
0.0000

> <Gold.PLP.part.buried>
-7.3368

> <Gold.PLP.part.nonpolar>
-37.7264

> <Gold.PLP.part.repulsive>
1.0569

> <Gold.PLP.ligand.clash>
0.0000

> <Gold.PLP.ligand.torsion>
0.7589

> <Gold.PLP.Chemscore.Hbond>
1.0000

> <Gold.PLP.Chemscore.CHOScore>
0.0000

> <Gold.PLP.Chemscore.Metal>
0.0000

> <Gold.Chemscore.Hbonds>
donor molecule, donor type, donor heavy atom, donor atom, acceptor molecule, acceptor atom, score
      P1  H  6896  6909       L1    10  0.70

> <Gold.PLP.Chemscore.Internal.Correction>
0.0354

> <Gold.Rescore>
     Score         DG    S(hbond)    S(metal)    S(lipo)     H(rot)  DE(clash)    DE(int)     intcor
     16.20     -17.54       0.97        0.00     113.26       1.73       0.01       1.34       ----

> <Gold.Chemscore.Fitness>
16.1951

> <Gold.Chemscore.DG>
-17.5437

> <Gold.Chemscore.ZeroCoef>
-5.4800

> <Gold.Chemscore.Hbond>
0.9676

> <Gold.Chemscore.Metal>
0.0000

> <Gold.Chemscore.Lipo>
113.2643

> <Gold.Chemscore.Internal_Hbond>
0.0000

> <Gold.Chemscore.DEClash>
0.0112

> <Gold.Chemscore.DEInternal>
1.3373

> <Gold.Chemscore.Rot>
1.7266

> <Gold.Chemscore.Internal.Correction>
   9.000000E+99

> <Gold.Chemscore.Hbonds>
donor molecule, donor type, donor heavy atom, donor atom, acceptor molecule, acceptor atom, score
      P1  H  6896  6909       L1    10  0.27

> <Gold.Chemscore.Hbond.Weighted>
-3.2318

> <Gold.Chemscore.Metal.Weighted>
-0.0000

> <Gold.Chemscore.Lipo.Weighted>
-13.2519

> <Gold.Chemscore.Internal_Hbond.Weighted>
0.0000

> <Gold.Chemscore.DEClash.Weighted>
0.0112

> <Gold.Chemscore.DEInternal.Weighted>
1.3373

> <Gold.Chemscore.Rot.Weighted>
4.4200

> <Gold.Chemscore.Internal.Correction.Weighted>
   9.000000E+99

> <Gold.Protein.RotatedTorsions>
[ 6907 6896 6895 6894 ] final   74.73 input  -60.11 | X-H torsion
[ 7974 7965 7964 7962 ] final  -25.69 input  175.53 | X-H torsion
[ 8008 7997 7996 7995 ] final  157.86 input   59.86 | X-H torsion
[ 10167 10162 10161 10158 ] final  -49.29 input  -65.29 | X-H torsion
[ 10718 10713 10712 10709 ] final  -70.32 input   66.30 | X-H torsion
[ 10763 10752 10751 10750 ] final  -82.94 input  -60.55 | X-H torsion
[ 11005 11000 10999 10996 ] final   89.97 input  -57.11 | X-H torsion

> <Gold.Protein.ActiveResidues>
 VAL166  LYS551  ARG553  GLY616  TRP617  ASP618  TYR619  PRO620  LYS621  CYS622 
 ASP623  PHE694  ASN695  SER759  ASP760  ASP761  ALA762  ILE779  LEU786  VAL792 
 PHE793  MET794  SER795  GLU796  ALA797  LYS798  CYS799  TRP800  GLU811  SER814 

> <Gold.Protein.RotatedAtoms>
  152.4990  134.4227  159.9485 H   0  0  0  0  0  0  0  0  0  0  0  0  # atno 6907 bound_to 6896
  151.4201  133.3695  159.2763 H   0  0  0  0  0  0  0  0  0  0  0  0  # atno 6908 bound_to 6896
  150.9229  134.8668  159.7560 H   0  0  0  0  0  0  0  0  0  0  0  0  # atno 6909 bound_to 6896
  146.1474  140.4920  142.8626 H   0  0  0  0  0  0  0  0  0  0  0  0  # atno 7974 bound_to 7965
  156.2338  140.1874  156.7172 H   0  0  0  0  0  0  0  0  0  0  0  0  # atno 8008 bound_to 7997
  154.6070  140.0627  156.9471 H   0  0  0  0  0  0  0  0  0  0  0  0  # atno 8009 bound_to 7997
  155.2079  140.3297  155.4336 H   0  0  0  0  0  0  0  0  0  0  0  0  # atno 8010 bound_to 7997
  140.6692  143.2704  151.4194 H   0  0  0  0  0  0  0  0  0  0  0  0  # atno 10167 bound_to 10162
  156.0413  130.4329  150.2278 H   0  0  0  0  0  0  0  0  0  0  0  0  # atno 10718 bound_to 10713
  154.5817  135.5574  153.7192 H   0  0  0  0  0  0  0  0  0  0  0  0  # atno 10763 bound_to 10752
  153.0084  135.6322  154.1972 H   0  0  0  0  0  0  0  0  0  0  0  0  # atno 10764 bound_to 10752
  154.1913  135.2882  155.3001 H   0  0  0  0  0  0  0  0  0  0  0  0  # atno 10765 bound_to 10752
  139.8865  134.8584  156.3218 H   0  0  0  0  0  0  0  0  0  0  0  0  # atno 11005 bound_to 11000
  144.7863  140.5943  143.6571 LP  0  0  0  0  0  0  0  0  0  0  0  0  # atno 17320 bound_to 7965
  145.4904  139.1489  143.3713 LP  0  0  0  0  0  0  0  0  0  0  0  0  # atno 17321 bound_to 7965
  139.5952  144.1412  152.2136 LP  0  0  0  0  0  0  0  0  0  0  0  0  # atno 17342 bound_to 10162
  140.0779  144.5725  150.7144 LP  0  0  0  0  0  0  0  0  0  0  0  0  # atno 17343 bound_to 10162
  157.0372  131.0025  151.3294 LP  0  0  0  0  0  0  0  0  0  0  0  0  # atno 17370 bound_to 10713
  157.5235  130.8013  149.7836 LP  0  0  0  0  0  0  0  0  0  0  0  0  # atno 17371 bound_to 10713
  140.9782  133.7284  156.0633 LP  0  0  0  0  0  0  0  0  0  0  0  0  # atno 17394 bound_to 11000
  140.7784  134.3754  157.5493 LP  0  0  0  0  0  0  0  0  0  0  0  0  # atno 17395 bound_to 11000

$$$$
