AV-unprocessed.smi:1703|AV-procd|sdf|6860|dock1
  -GOLD-   22720 8 43D 1   1.00000     0.00000
 Structure written by MMmdl.
 49 51  0  0  0  0  0  0  0  0  2 V2000
  149.2880  141.2823  154.7561 C   0  0  0  0  0  0  0  0  0  0  0  0
  149.8452  139.8811  155.0288 C   0  0  1  0  0  0  0  0  0  0  0  0
  149.0697  138.7900  154.2613 C   0  0  0  0  0  0  0  0  0  0  0  0
  149.6733  137.4515  154.4691 N   0  3  2  0  0  0  0  0  0  0  0  0
  149.3419  136.8483  155.7873 C   0  0  0  0  0  0  0  0  0  0  0  0
  149.8154  135.3809  155.8991 C   0  0  2  0  0  0  0  0  0  0  0  0
  151.0230  135.3434  156.6314 O   0  0  0  0  0  0  0  0  0  0  0  0
  150.0511  134.6956  154.5379 C   0  0  0  0  0  0  0  0  0  0  0  0
  149.6540  133.2927  154.5497 N   0  0  0  0  0  0  0  0  0  0  0  0
  150.2449  132.2498  155.1883 C   0  0  0  0  0  0  0  0  0  0  0  0
  151.4673  132.4153  156.0387 C   0  0  0  0  0  0  0  0  0  0  0  0
  151.2176  132.1707  157.4061 O   0  0  0  0  0  0  0  0  0  0  0  0
  149.6783  131.0582  154.9990 N   0  0  0  0  0  0  0  0  0  0  0  0
  148.6142  131.3541  154.1704 C   0  0  0  0  0  0  0  0  0  0  0  0
  147.6300  130.5130  153.6040 C   0  0  0  0  0  0  0  0  0  0  0  0
  146.6259  131.0492  152.7716 C   0  0  0  0  0  0  0  0  0  0  0  0
  146.5903  132.4312  152.4958 C   0  0  0  0  0  0  0  0  0  0  0  0
  147.5623  133.2867  153.0490 C   0  0  0  0  0  0  0  0  0  0  0  0
  148.5654  132.7461  153.8761 C   0  0  0  0  0  0  0  0  0  0  0  0
  151.1254  137.4852  154.1509 C   0  0  0  0  0  0  0  0  0  0  0  0
  151.8514  138.6215  154.9038 C   0  0  1  0  0  0  0  0  0  0  0  0
  153.3221  138.7359  154.4889 C   0  0  0  0  0  0  0  0  0  0  0  0
  151.2076  139.8580  154.6149 O   0  0  0  0  0  0  0  0  0  0  0  0
  148.2454  141.3571  155.0659 H   0  0  0  0  0  0  0  0  0  0  0  0
  149.3408  141.5296  153.6953 H   0  0  0  0  0  0  0  0  0  0  0  0
  149.8515  142.0390  155.3027 H   0  0  0  0  0  0  0  0  0  0  0  0
  149.7919  139.6945  156.1026 H   0  0  0  0  0  0  0  0  0  0  0  0
  148.0174  138.7824  154.5485 H   0  0  0  0  0  0  0  0  0  0  0  0
  149.0920  139.0109  153.1932 H   0  0  0  0  0  0  0  0  0  0  0  0
  149.7765  137.4655  156.5711 H   0  0  0  0  0  0  0  0  0  0  0  0
  148.2648  136.8796  155.9581 H   0  0  0  0  0  0  0  0  0  0  0  0
  149.0886  134.7883  156.4512 H   0  0  0  0  0  0  0  0  0  0  0  0
  151.7023  134.9841  156.0807 H   0  0  0  0  0  0  0  0  0  0  0  0
  149.5167  135.2254  153.7503 H   0  0  0  0  0  0  0  0  0  0  0  0
  151.1081  134.7442  154.2721 H   0  0  0  0  0  0  0  0  0  0  0  0
  152.2404  131.7252  155.6987 H   0  0  0  0  0  0  0  0  0  0  0  0
  151.8686  133.4211  155.9133 H   0  0  0  0  0  0  0  0  0  0  0  0
  150.6748  131.4008  157.4804 H   0  0  0  0  0  0  0  0  0  0  0  0
  147.6471  129.4531  153.8110 H   0  0  0  0  0  0  0  0  0  0  0  0
  145.8775  130.3972  152.3452 H   0  0  0  0  0  0  0  0  0  0  0  0
  145.8152  132.8344  151.8604 H   0  0  0  0  0  0  0  0  0  0  0  0
  147.5340  134.3456  152.8400 H   0  0  0  0  0  0  0  0  0  0  0  0
  151.6015  136.5283  154.3611 H   0  0  0  0  0  0  0  0  0  0  0  0
  151.2276  137.6427  153.0763 H   0  0  0  0  0  0  0  0  0  0  0  0
  151.8219  138.4460  155.9799 H   0  0  0  0  0  0  0  0  0  0  0  0
  153.8624  137.8136  154.7042 H   0  0  0  0  0  0  0  0  0  0  0  0
  153.8174  139.5434  155.0285 H   0  0  0  0  0  0  0  0  0  0  0  0
  153.4184  138.9397  153.4221 H   0  0  0  0  0  0  0  0  0  0  0  0
  149.2397  136.8434  153.7885 H   0  0  0  0  0  0  0  0  0  0  0  0
  1  2  1  0  0  0  0
  1 24  1  0  0  0  0
  1 25  1  0  0  0  0
  1 26  1  0  0  0  0
  2 23  1  0  0  0  0
  2  3  1  0  0  0  0
  2 27  1  0  0  0  0
  3  4  1  0  0  0  0
  3 28  1  0  0  0  0
  3 29  1  0  0  0  0
  4  5  1  0  0  0  0
  4 20  1  0  0  0  0
  4 49  1  0  0  0  0
  5  6  1  0  0  0  0
  5 30  1  0  0  0  0
  5 31  1  0  0  0  0
  6  7  1  0  0  0  0
  6  8  1  0  0  0  0
  6 32  1  0  0  0  0
  7 33  1  0  0  0  0
  8  9  1  0  0  0  0
  8 34  1  0  0  0  0
  8 35  1  0  0  0  0
  9 19  1  0  0  0  0
  9 10  1  0  0  0  0
 10 11  1  0  0  0  0
 10 13  2  0  0  0  0
 11 12  1  0  0  0  0
 11 36  1  0  0  0  0
 11 37  1  0  0  0  0
 12 38  1  0  0  0  0
 13 14  1  0  0  0  0
 14 19  2  0  0  0  0
 14 15  1  0  0  0  0
 15 16  2  0  0  0  0
 15 39  1  0  0  0  0
 16 17  1  0  0  0  0
 16 40  1  0  0  0  0
 17 18  2  0  0  0  0
 17 41  1  0  0  0  0
 18 19  1  0  0  0  0
 18 42  1  0  0  0  0
 20 21  1  0  0  0  0
 20 43  1  0  0  0  0
 20 44  1  0  0  0  0
 21 22  1  0  0  0  0
 21 23  1  0  0  0  0
 21 45  1  0  0  0  0
 22 46  1  0  0  0  0
 22 47  1  0  0  0  0
 22 48  1  0  0  0  0
M  CHG  1   4   1
M  END
> <s_m_source_file>
AV-unprocessed.smi

> <i_m_source_file_index>
1703

> <i_lp_mmshare_version>
43012

> <i_f3d_flags>
0

> <s_epik_input>
W0NIM11bQ0BASF0xW0NIMl1OKFtDSDJdW0NASF0oTzEpW0NIM10pW0NIMl1bQ0BIXShbT0hdKVtDSDJdbihjKG4yKVtDSDJdW09IXSljKGMyMylbY0hdW2NIXVtjSF1bY0hdMw==

> <s_epik_cmdline>
J2VwaWtfcHl0aG9uJywgJy1waCcsICc3LjAnLCAnLXRuJywgJzgnLCAnLW1hJywgJzIwMCcsICctbWV0YWxfYmluZGluZycsICctaW1hZScsICc8aW5maWxlLm1hZT4nLCAnLW9tYWUnLCAnPG91dGZpbGUubWFlPic=

> <r_epik_Ionization_Penalty>
0.655661

> <r_epik_Ionization_Penalty_Charging>
0.608065

> <r_epik_Ionization_Penalty_Neutral>
0.0475963

> <r_epik_State_Penalty>
0.695267

> <r_epik_Charging_Adjusted_Penalty>
1.30333

> <i_epik_Tot_Q>
1

> <i_epik_Tot_abs_Q>
1

> <r_epik_Metal_State_Penalty>
0.653591

> <b_epik_Metal_Only>
0

> <s_lp_Force_Field>
OPLS_2005

> <r_lp_Energy>
23.3655

> <b_lp_Chiralities_Consistent>
1

> <s_lp_Variant>
AV-unprocessed.smi:1703-8

> <Gold.Version>
5.8.1

> <Gold.Id.Protein>
6NUR|6NUR_protein|mol2

> <Gold.PLP.Fitness>
52.1697

> <Gold.PLP.PLP>
-42.5344

> <Gold.PLP.part.hbond>
-3.0000

> <Gold.PLP.part.metal>
0.0000

> <Gold.PLP.part.buried>
-2.4242

> <Gold.PLP.part.nonpolar>
-37.5546

> <Gold.PLP.part.repulsive>
0.0959

> <Gold.PLP.ligand.clash>
0.0000

> <Gold.PLP.ligand.torsion>
1.2165

> <Gold.PLP.Chemscore.Hbond>
3.9920

> <Gold.PLP.Chemscore.CHOScore>
0.0000

> <Gold.PLP.Chemscore.Metal>
0.0000

> <Gold.Chemscore.Hbonds>
donor molecule, donor type, donor heavy atom, donor atom, acceptor molecule, acceptor atom, score
      L1  H     4    49       P1  7948  2.00
      P1  H  6896  6909       L1    12  0.55
      P1  H  7989  7998       L1    23  1.00

> <Gold.PLP.Chemscore.Internal.Correction>
0.0923

> <Gold.Rescore>
     Score         DG    S(hbond)    S(metal)    S(lipo)     H(rot)  DE(clash)    DE(int)     intcor
     16.38     -18.57       2.85        0.00      95.21       2.96       0.08       2.10       ----

> <Gold.Chemscore.Fitness>
16.3845

> <Gold.Chemscore.DG>
-18.5694

> <Gold.Chemscore.ZeroCoef>
-5.4800

> <Gold.Chemscore.Hbond>
2.8533

> <Gold.Chemscore.Metal>
0.0000

> <Gold.Chemscore.Lipo>
95.2106

> <Gold.Chemscore.Internal_Hbond>
0.0000

> <Gold.Chemscore.DEClash>
0.0830

> <Gold.Chemscore.DEInternal>
2.1019

> <Gold.Chemscore.Rot>
2.9611

> <Gold.Chemscore.Internal.Correction>
   9.000000E+99

> <Gold.Chemscore.Hbonds>
donor molecule, donor type, donor heavy atom, donor atom, acceptor molecule, acceptor atom, score
      L1  H     4    49       P1  7948  0.88
      P1  H  6896  6909       L1    12  0.52
      P1  H  7989  7998       L1    23  0.92

> <Gold.Chemscore.Hbond.Weighted>
-9.5301

> <Gold.Chemscore.Metal.Weighted>
-0.0000

> <Gold.Chemscore.Lipo.Weighted>
-11.1396

> <Gold.Chemscore.Internal_Hbond.Weighted>
0.0000

> <Gold.Chemscore.DEClash.Weighted>
0.0830

> <Gold.Chemscore.DEInternal.Weighted>
2.1019

> <Gold.Chemscore.Rot.Weighted>
7.5803

> <Gold.Chemscore.Internal.Correction.Weighted>
   9.000000E+99

> <Gold.Protein.RotatedTorsions>
[ 6907 6896 6895 6894 ] final  -59.67 input  -60.11 | X-H torsion
[ 7974 7965 7964 7962 ] final   18.73 input  175.53 | X-H torsion
[ 8008 7997 7996 7995 ] final   23.16 input   59.86 | X-H torsion
[ 10167 10162 10161 10158 ] final  177.72 input  -65.29 | X-H torsion
[ 10718 10713 10712 10709 ] final   22.35 input   66.30 | X-H torsion
[ 10763 10752 10751 10750 ] final -124.25 input  -60.55 | X-H torsion
[ 11005 11000 10999 10996 ] final  130.28 input  -57.11 | X-H torsion

> <Gold.Protein.ActiveResidues>
 VAL166  LYS551  ARG553  GLY616  TRP617  ASP618  TYR619  PRO620  LYS621  CYS622 
 ASP623  PHE694  ASN695  SER759  ASP760  ASP761  ALA762  ILE779  LEU786  VAL792 
 PHE793  MET794  SER795  GLU796  ALA797  LYS798  CYS799  TRP800  GLU811  SER814 

> <Gold.Protein.RotatedAtoms>
  150.7913  134.6938  159.6511 H   0  0  0  0  0  0  0  0  0  0  0  0  # atno 6907 bound_to 6896
  152.4018  134.6270  160.0075 H   0  0  0  0  0  0  0  0  0  0  0  0  # atno 6908 bound_to 6896
  151.6539  133.3283  159.3194 H   0  0  0  0  0  0  0  0  0  0  0  0  # atno 6909 bound_to 6896
  146.2174  139.8414  142.8640 H   0  0  0  0  0  0  0  0  0  0  0  0  # atno 7974 bound_to 7965
  154.9767  140.3097  155.4964 H   0  0  0  0  0  0  0  0  0  0  0  0  # atno 8008 bound_to 7997
  156.2959  140.2274  156.4802 H   0  0  0  0  0  0  0  0  0  0  0  0  # atno 8009 bound_to 7997
  154.7827  140.0445  157.1128 H   0  0  0  0  0  0  0  0  0  0  0  0  # atno 8010 bound_to 7997
  139.5264  144.2765  152.0583 H   0  0  0  0  0  0  0  0  0  0  0  0  # atno 10167 bound_to 10162
  157.1512  130.6675  149.6012 H   0  0  0  0  0  0  0  0  0  0  0  0  # atno 10718 bound_to 10713
  154.8720  135.4070  154.3075 H   0  0  0  0  0  0  0  0  0  0  0  0  # atno 10763 bound_to 10752
  153.3924  135.7015  153.6491 H   0  0  0  0  0  0  0  0  0  0  0  0  # atno 10764 bound_to 10752
  153.5268  135.3676  155.2628 H   0  0  0  0  0  0  0  0  0  0  0  0  # atno 10765 bound_to 10752
  139.9663  134.9589  156.9271 H   0  0  0  0  0  0  0  0  0  0  0  0  # atno 11005 bound_to 11000
  145.2895  141.0163  143.3671 LP  0  0  0  0  0  0  0  0  0  0  0  0  # atno 17320 bound_to 7965
  144.9088  139.4554  143.6597 LP  0  0  0  0  0  0  0  0  0  0  0  0  # atno 17321 bound_to 7965
  140.2222  144.4454  150.6337 LP  0  0  0  0  0  0  0  0  0  0  0  0  # atno 17342 bound_to 10162
  140.6411  143.2204  151.6289 LP  0  0  0  0  0  0  0  0  0  0  0  0  # atno 17343 bound_to 10162
  155.9770  130.4744  150.6566 LP  0  0  0  0  0  0  0  0  0  0  0  0  # atno 17370 bound_to 10713
  157.4219  131.0838  151.1123 LP  0  0  0  0  0  0  0  0  0  0  0  0  # atno 17371 bound_to 10713
  140.5389  134.0739  155.7336 LP  0  0  0  0  0  0  0  0  0  0  0  0  # atno 17394 bound_to 11000
  141.1343  133.9249  157.2468 LP  0  0  0  0  0  0  0  0  0  0  0  0  # atno 17395 bound_to 11000

$$$$
