AV-unprocessed.smi:1240|AV-procd|sdf|5201|dock2
  -GOLD-   22720 4283D 1   1.00000     0.00000
 Structure written by MMmdl.
 48 50  0  0  0  0  0  0  0  0  2 V2000
  145.1452  134.0074  153.7329 O   0  0  0  0  0  0  0  0  0  0  0  0
  146.0524  134.5212  153.0793 C   0  0  0  0  0  0  0  0  0  0  0  0
  146.9288  135.3904  153.5982 N   0  0  0  0  0  0  0  0  0  0  0  0
  146.9071  135.8520  154.9826 C   0  0  0  0  0  0  0  0  0  0  0  0
  148.3331  135.9286  155.5842 C   0  0  2  0  0  0  0  0  0  0  0  0
  148.2884  136.0923  157.1396 C   0  0  1  0  0  0  0  0  0  0  0  0
  147.2955  135.1701  157.8390 C   0  0  0  0  0  0  0  0  0  0  0  0
  147.8364  135.1089  159.2575 C   0  0  0  0  0  0  0  0  0  0  0  0
  149.2332  135.0029  159.0565 O   0  0  0  0  0  0  0  0  0  0  0  0
  149.5911  135.7254  157.8828 C   0  0  0  0  0  0  0  0  0  0  0  0
  149.0941  136.9868  154.8363 N   0  3  0  0  0  0  0  0  0  0  0  0
  148.6069  138.3891  154.9094 C   0  0  0  0  0  0  0  0  0  0  0  0
  149.4332  139.2945  153.9796 C   0  0  0  0  0  0  0  0  0  0  0  0
  150.8076  139.2181  154.3319 O   0  0  0  0  0  0  0  0  0  0  0  0
  151.3163  137.8990  154.1889 C   0  0  0  0  0  0  0  0  0  0  0  0
  150.5514  136.9495  155.1257 C   0  0  0  0  0  0  0  0  0  0  0  0
  146.3134  134.2814  151.7826 N   0  0  0  0  0  0  0  0  0  0  0  0
  145.6069  133.4411  150.8807 C   0  0  0  0  0  0  0  0  0  0  0  0
  144.2124  133.3183  151.0502 C   0  0  0  0  0  0  0  0  0  0  0  0
  143.4946  132.4763  150.1774 C   0  0  0  0  0  0  0  0  0  0  0  0
  144.0754  131.7663  149.1875 N   0  0  0  0  0  0  0  0  0  0  0  0
  145.4126  131.8725  149.0375 C   0  0  0  0  0  0  0  0  0  0  0  0
  146.2230  132.6872  149.8533 C   0  0  0  0  0  0  0  0  0  0  0  0
  147.6396  135.7737  152.9926 H   0  0  0  0  0  0  0  0  0  0  0  0
  146.4055  136.8187  155.0326 H   0  0  0  0  0  0  0  0  0  0  0  0
  146.2821  135.1767  155.5674 H   0  0  0  0  0  0  0  0  0  0  0  0
  148.8164  134.9696  155.3896 H   0  0  0  0  0  0  0  0  0  0  0  0
  148.0031  137.1122  157.4014 H   0  0  0  0  0  0  0  0  0  0  0  0
  146.2695  135.5378  157.8033 H   0  0  0  0  0  0  0  0  0  0  0  0
  147.3180  134.1724  157.3978 H   0  0  0  0  0  0  0  0  0  0  0  0
  147.6125  136.0278  159.8012 H   0  0  0  0  0  0  0  0  0  0  0  0
  147.4456  134.2642  159.8252 H   0  0  0  0  0  0  0  0  0  0  0  0
  150.2455  135.0973  157.2774 H   0  0  0  0  0  0  0  0  0  0  0  0
  150.1513  136.6154  158.1691 H   0  0  0  0  0  0  0  0  0  0  0  0
  147.5645  138.4574  154.6026 H   0  0  0  0  0  0  0  0  0  0  0  0
  148.6845  138.7575  155.9327 H   0  0  0  0  0  0  0  0  0  0  0  0
  149.2962  139.0102  152.9350 H   0  0  0  0  0  0  0  0  0  0  0  0
  149.1025  140.3291  154.0728 H   0  0  0  0  0  0  0  0  0  0  0  0
  151.2355  137.5727  153.1506 H   0  0  0  0  0  0  0  0  0  0  0  0
  152.3768  137.9012  154.4410 H   0  0  0  0  0  0  0  0  0  0  0  0
  150.7238  137.2347  156.1648 H   0  0  0  0  0  0  0  0  0  0  0  0
  150.9434  135.9400  155.0074 H   0  0  0  0  0  0  0  0  0  0  0  0
  147.1474  134.7093  151.4084 H   0  0  0  0  0  0  0  0  0  0  0  0
  143.6957  133.8613  151.8281 H   0  0  0  0  0  0  0  0  0  0  0  0
  142.4248  132.3693  150.2791 H   0  0  0  0  0  0  0  0  0  0  0  0
  145.8532  131.2846  148.2459 H   0  0  0  0  0  0  0  0  0  0  0  0
  147.2887  132.7060  149.6846 H   0  0  0  0  0  0  0  0  0  0  0  0
  148.9970  136.7327  153.8634 H   0  0  0  0  0  0  0  0  0  0  0  0
  1  2  2  0  0  0  0
  2  3  1  0  0  0  0
  2 17  1  0  0  0  0
  3  4  1  0  0  0  0
  3 24  1  0  0  0  0
  4  5  1  0  0  0  0
  4 25  1  0  0  0  0
  4 26  1  0  0  0  0
  5  6  1  0  0  0  0
  5 11  1  0  0  0  0
  5 27  1  0  0  0  0
  6 10  1  0  0  0  0
  6  7  1  0  0  0  0
  6 28  1  0  0  0  0
  7  8  1  0  0  0  0
  7 29  1  0  0  0  0
  7 30  1  0  0  0  0
  8  9  1  0  0  0  0
  8 31  1  0  0  0  0
  8 32  1  0  0  0  0
  9 10  1  0  0  0  0
 10 33  1  0  0  0  0
 10 34  1  0  0  0  0
 11 16  1  0  0  0  0
 11 12  1  0  0  0  0
 11 48  1  0  0  0  0
 12 13  1  0  0  0  0
 12 35  1  0  0  0  0
 12 36  1  0  0  0  0
 13 14  1  0  0  0  0
 13 37  1  0  0  0  0
 13 38  1  0  0  0  0
 14 15  1  0  0  0  0
 15 16  1  0  0  0  0
 15 39  1  0  0  0  0
 15 40  1  0  0  0  0
 16 41  1  0  0  0  0
 16 42  1  0  0  0  0
 17 18  1  0  0  0  0
 17 43  1  0  0  0  0
 18 23  1  0  0  0  0
 18 19  2  0  0  0  0
 19 20  1  0  0  0  0
 19 44  1  0  0  0  0
 20 21  2  0  0  0  0
 20 45  1  0  0  0  0
 21 22  1  0  0  0  0
 22 23  2  0  0  0  0
 22 46  1  0  0  0  0
 23 47  1  0  0  0  0
M  CHG  1  11   1
M  END
> <s_m_source_file>
AV-unprocessed.smi

> <i_m_source_file_index>
1240

> <i_lp_mmshare_version>
43012

> <i_f3d_flags>
0

> <s_epik_input>
W2NIXTFbY0hdbltjSF1bY0hdYzFbTkhdQyg9TylbTkhdW0NIMl1bQ0BIXShbQ0BASF0yW0NIMl1bQ0gyXU9bQ0gyXTIpTjNbQ0gyXVtDSDJdT1tDSDJdW0NIMl0z

> <s_epik_cmdline>
J2VwaWtfcHl0aG9uJywgJy1waCcsICc3LjAnLCAnLXRuJywgJzgnLCAnLW1hJywgJzIwMCcsICctbWV0YWxfYmluZGluZycsICctaW1hZScsICc8aW5maWxlLm1hZT4nLCAnLW9tYWUnLCAnPG91dGZpbGUubWFlPic=

> <r_epik_Ionization_Penalty>
1.08433

> <r_epik_Ionization_Penalty_Charging>
0.98326

> <r_epik_Ionization_Penalty_Neutral>
0.10107

> <r_epik_State_Penalty>
1.11265

> <r_epik_Charging_Adjusted_Penalty>
2.09591

> <i_epik_Tot_Q>
1

> <i_epik_Tot_abs_Q>
1

> <r_epik_Metal_State_Penalty>
1.10731

> <b_epik_Metal_Only>
0

> <s_lp_Force_Field>
OPLS_2005

> <r_lp_Energy>
52.9252

> <b_lp_Chiralities_Consistent>
1

> <s_lp_Variant>
AV-unprocessed.smi:1240-7

> <Gold.Version>
5.8.1

> <Gold.Id.Protein>
6NUR|6NUR_protein|mol2

> <Gold.PLP.Fitness>
47.3503

> <Gold.PLP.PLP>
-26.8953

> <Gold.PLP.part.hbond>
-5.5891

> <Gold.PLP.part.metal>
0.0000

> <Gold.PLP.part.buried>
0.8370

> <Gold.PLP.part.nonpolar>
-22.3265

> <Gold.PLP.part.repulsive>
0.4855

> <Gold.PLP.ligand.clash>
0.0000

> <Gold.PLP.ligand.torsion>
0.6965

> <Gold.PLP.Chemscore.Hbond>
6.0093

> <Gold.PLP.Chemscore.CHOScore>
1.2078

> <Gold.PLP.Chemscore.Metal>
0.0000

> <Gold.Chemscore.Hbonds>
donor molecule, donor type, donor heavy atom, donor atom, acceptor molecule, acceptor atom, score
      L1  H     3    24       P1  7948  1.00
      L1  H    11    48       P1  7948  1.92
      L1  H    17    43       P1  7948  0.20
      P1  H  6896  6909       L1     9  1.00
      P1  H  7989  7998       L1    14  1.00
      P1  H 10785 10796       L1    21  0.62
      L1  C    20    45       P1 10186  0.62
      L1  C    20    45       P1 10952  0.66

> <Gold.PLP.Chemscore.Internal.Correction>
0.1966

> <Gold.Rescore>
     Score         DG    S(hbond)    S(metal)    S(lipo)     H(rot)  DE(clash)    DE(int)     intcor
     22.29     -25.70       4.48        0.00      82.32       1.70       1.54       1.87       ----

> <Gold.Chemscore.Fitness>
22.2908

> <Gold.Chemscore.DG>
-25.7023

> <Gold.Chemscore.ZeroCoef>
-5.4800

> <Gold.Chemscore.Hbond>
4.4756

> <Gold.Chemscore.Metal>
0.0000

> <Gold.Chemscore.Lipo>
82.3198

> <Gold.Chemscore.Internal_Hbond>
0.0000

> <Gold.Chemscore.DEClash>
1.5425

> <Gold.Chemscore.DEInternal>
1.8690

> <Gold.Chemscore.Rot>
1.7021

> <Gold.Chemscore.Internal.Correction>
   9.000000E+99

> <Gold.Chemscore.Hbonds>
donor molecule, donor type, donor heavy atom, donor atom, acceptor molecule, acceptor atom, score
      L1  H     3    24       P1  7948  1.00
      L1  H    11    48       P1  7948  0.90
      L1  H    17    43       P1  7948  0.11
      P1  H  6896  6909       L1     9  0.34
      P1  H  7989  7998       L1    14  0.42
      P1  H 10785 10796       L1    21  0.56

> <Gold.Chemscore.Hbond.Weighted>
-14.9484

> <Gold.Chemscore.Metal.Weighted>
-0.0000

> <Gold.Chemscore.Lipo.Weighted>
-9.6314

> <Gold.Chemscore.Internal_Hbond.Weighted>
0.0000

> <Gold.Chemscore.DEClash.Weighted>
1.5425

> <Gold.Chemscore.DEInternal.Weighted>
1.8690

> <Gold.Chemscore.Rot.Weighted>
4.3575

> <Gold.Chemscore.Internal.Correction.Weighted>
   9.000000E+99

> <Gold.Protein.RotatedTorsions>
[ 6907 6896 6895 6894 ] final   35.33 input  -60.11 | X-H torsion
[ 7974 7965 7964 7962 ] final  163.77 input  175.53 | X-H torsion
[ 8008 7997 7996 7995 ] final  126.42 input   59.86 | X-H torsion
[ 10167 10162 10161 10158 ] final  -73.87 input  -65.29 | X-H torsion
[ 10718 10713 10712 10709 ] final  -89.64 input   66.30 | X-H torsion
[ 10763 10752 10751 10750 ] final -126.42 input  -60.55 | X-H torsion
[ 11005 11000 10999 10996 ] final  -10.12 input  -57.11 | X-H torsion

> <Gold.Protein.ActiveResidues>
 VAL166  LYS551  ARG553  GLY616  TRP617  ASP618  TYR619  PRO620  LYS621  CYS622 
 ASP623  PHE694  ASN695  SER759  ASP760  ASP761  ALA762  ILE779  LEU786  VAL792 
 PHE793  MET794  SER795  GLU796  ALA797  LYS798  CYS799  TRP800  GLU811  SER814 

> <Gold.Protein.RotatedAtoms>
  152.1147  134.9249  160.0565 H   0  0  0  0  0  0  0  0  0  0  0  0  # atno 6907 bound_to 6896
  152.0413  133.3974  159.4346 H   0  0  0  0  0  0  0  0  0  0  0  0  # atno 6908 bound_to 6896
  150.6845  134.3332  159.4879 H   0  0  0  0  0  0  0  0  0  0  0  0  # atno 6909 bound_to 6896
  144.7575  139.8229  143.6344 H   0  0  0  0  0  0  0  0  0  0  0  0  # atno 7974 bound_to 7965
  156.2863  140.2693  156.2108 H   0  0  0  0  0  0  0  0  0  0  0  0  # atno 8008 bound_to 7997
  155.0267  140.0386  157.2476 H   0  0  0  0  0  0  0  0  0  0  0  0  # atno 8009 bound_to 7997
  154.7390  140.2721  155.6395 H   0  0  0  0  0  0  0  0  0  0  0  0  # atno 8010 bound_to 7997
  140.5074  143.2350  151.7650 H   0  0  0  0  0  0  0  0  0  0  0  0  # atno 10167 bound_to 10162
  155.9985  130.4880  150.5202 H   0  0  0  0  0  0  0  0  0  0  0  0  # atno 10718 bound_to 10713
  154.8745  135.3996  154.3427 H   0  0  0  0  0  0  0  0  0  0  0  0  # atno 10763 bound_to 10752
  153.4224  135.7023  153.6290 H   0  0  0  0  0  0  0  0  0  0  0  0  # atno 10764 bound_to 10752
  153.4947  135.3740  155.2479 H   0  0  0  0  0  0  0  0  0  0  0  0  # atno 10765 bound_to 10752
  140.7413  133.8667  155.8970 H   0  0  0  0  0  0  0  0  0  0  0  0  # atno 11005 bound_to 11000
  146.1601  139.4713  142.9993 LP  0  0  0  0  0  0  0  0  0  0  0  0  # atno 17320 bound_to 7965
  145.6730  141.0211  143.1647 LP  0  0  0  0  0  0  0  0  0  0  0  0  # atno 17321 bound_to 7965
  139.4887  144.4438  151.9734 LP  0  0  0  0  0  0  0  0  0  0  0  0  # atno 17342 bound_to 10162
  140.3529  144.3067  150.5946 LP  0  0  0  0  0  0  0  0  0  0  0  0  # atno 17343 bound_to 10162
  157.3164  131.0673  151.1964 LP  0  0  0  0  0  0  0  0  0  0  0  0  # atno 17370 bound_to 10713
  157.2892  130.6788  149.6105 LP  0  0  0  0  0  0  0  0  0  0  0  0  # atno 17371 bound_to 10713
  140.9834  134.1376  157.4474 LP  0  0  0  0  0  0  0  0  0  0  0  0  # atno 17394 bound_to 11000
  139.8805  135.0017  156.6086 LP  0  0  0  0  0  0  0  0  0  0  0  0  # atno 17395 bound_to 11000

$$$$
