AV-unprocessed.smi:362|AV-procd|sdf|2422|dock1
  -GOLD-   2262022363D 1   1.00000     0.00000
 Structure written by MMmdl.
 35 37  0  0  0  0  0  0  0  0  2 V2000
  152.7508  139.8236  157.2562 O   0  0  0  0  0  0  0  0  0  0  0  0
  151.8174  140.5369  156.8859 C   0  0  0  0  0  0  0  0  0  0  0  0
  150.9500  140.1211  155.6907 C   0  0  0  0  0  0  0  0  0  0  0  0
  150.8169  138.6604  155.5720 N   0  0  0  0  0  0  0  0  0  0  0  0
  149.6725  138.0593  156.1251 C   0  0  0  0  0  0  0  0  0  0  0  0
  149.4711  136.7291  156.0681 C   0  0  0  0  0  0  0  0  0  0  0  0
  150.4779  135.9060  155.4095 C   0  0  0  0  0  0  0  0  0  0  0  0
  150.3071  134.6903  155.3420 O   0  0  0  0  0  0  0  0  0  0  0  0
  151.5740  136.5355  154.8933 N   0  5  0  0  0  0  0  0  0  0  0  0
  151.7672  137.8892  154.9618 C   0  0  0  0  0  0  0  0  0  0  0  0
  152.7655  138.4371  154.4920 O   0  0  0  0  0  0  0  0  0  0  0  0
  151.4771  141.6873  157.4892 N   0  0  0  0  0  0  0  0  0  0  0  0
  152.1572  142.3167  158.6189 C   0  0  0  0  0  0  0  0  0  0  0  0
  152.4442  141.3597  159.7665 C   0  0  0  0  0  0  0  0  0  0  0  0
  153.4330  141.7099  160.8525 C   0  0  0  0  0  0  0  0  0  0  0  0
  153.7573  140.6207  159.8542 C   0  0  0  0  0  0  0  0  0  0  0  0
  151.4782  143.5819  159.1226 C   0  0  0  0  0  0  0  0  0  0  0  0
  151.9616  144.9494  158.7038 C   0  0  0  0  0  0  0  0  0  0  0  0
  152.1515  144.4835  160.1301 C   0  0  0  0  0  0  0  0  0  0  0  0
  149.9705  140.5873  155.8040 H   0  0  0  0  0  0  0  0  0  0  0  0
  151.3597  140.5354  154.7673 H   0  0  0  0  0  0  0  0  0  0  0  0
  148.9800  138.7385  156.6004 H   0  0  0  0  0  0  0  0  0  0  0  0
  148.5886  136.2820  156.5017 H   0  0  0  0  0  0  0  0  0  0  0  0
  150.6911  142.1921  157.1061 H   0  0  0  0  0  0  0  0  0  0  0  0
  153.1244  142.6198  158.2159 H   0  0  0  0  0  0  0  0  0  0  0  0
  151.5709  140.8004  160.0970 H   0  0  0  0  0  0  0  0  0  0  0  0
  153.9793  142.6466  160.7638 H   0  0  0  0  0  0  0  0  0  0  0  0
  153.1894  141.4061  161.8685 H   0  0  0  0  0  0  0  0  0  0  0  0
  153.7275  139.5900  160.2014 H   0  0  0  0  0  0  0  0  0  0  0  0
  154.5110  140.8368  159.0997 H   0  0  0  0  0  0  0  0  0  0  0  0
  150.4012  143.4809  159.2429 H   0  0  0  0  0  0  0  0  0  0  0  0
  152.8458  145.0035  158.0716 H   0  0  0  0  0  0  0  0  0  0  0  0
  151.2079  145.7119  158.5181 H   0  0  0  0  0  0  0  0  0  0  0  0
  151.5244  144.9353  160.8959 H   0  0  0  0  0  0  0  0  0  0  0  0
  153.1631  144.2339  160.4432 H   0  0  0  0  0  0  0  0  0  0  0  0
  1  2  2  0  0  0  0
  2  3  1  0  0  0  0
  2 12  1  0  0  0  0
  3  4  1  0  0  0  0
  3 20  1  0  0  0  0
  3 21  1  0  0  0  0
  4 10  1  0  0  0  0
  4  5  1  0  0  0  0
  5  6  2  0  0  0  0
  5 22  1  0  0  0  0
  6  7  1  0  0  0  0
  6 23  1  0  0  0  0
  7  8  2  0  0  0  0
  7  9  1  0  0  0  0
  9 10  1  0  0  0  0
 10 11  2  0  0  0  0
 12 13  1  0  0  0  0
 12 24  1  0  0  0  0
 13 14  1  0  0  0  0
 13 17  1  0  0  0  0
 13 25  1  0  0  0  0
 14 16  1  0  0  0  0
 14 15  1  0  0  0  0
 14 26  1  0  0  0  0
 15 16  1  0  0  0  0
 15 27  1  0  0  0  0
 15 28  1  0  0  0  0
 16 29  1  0  0  0  0
 16 30  1  0  0  0  0
 17 19  1  0  0  0  0
 17 18  1  0  0  0  0
 17 31  1  0  0  0  0
 18 19  1  0  0  0  0
 18 32  1  0  0  0  0
 18 33  1  0  0  0  0
 19 34  1  0  0  0  0
 19 35  1  0  0  0  0
M  CHG  1   9  -1
M  END
> <s_m_source_file>
AV-unprocessed.smi

> <i_m_source_file_index>
362

> <i_lp_mmshare_version>
43012

> <i_f3d_flags>
0

> <s_epik_input>
W0NIMl0xW0NIMl1bQ0hdMVtDSF0oW0NIXTJbQ0gyXVtDSDJdMilbTkhdQyg9TylbQ0gyXW4zW2NIXVtjSF1jKD1PKVtuSF1jMz1P

> <s_epik_cmdline>
J2VwaWtfcHl0aG9uJywgJy1waCcsICc3LjAnLCAnLXRuJywgJzgnLCAnLW1hJywgJzIwMCcsICctbWV0YWxfYmluZGluZycsICctaW1hZScsICc8aW5maWxlLm1hZT4nLCAnLW9tYWUnLCAnPG91dGZpbGUubWFlPic=

> <r_lp_tautomer_probability>
0.999537

> <r_epik_Ionization_Penalty>
3.10326

> <r_epik_Ionization_Penalty_Charging>
2.95532e-08

> <r_epik_Ionization_Penalty_Neutral>
3.10326

> <r_epik_State_Penalty>
3.10233

> <r_epik_Charging_Adjusted_Penalty>
3.10233

> <i_epik_Tot_Q>
-1

> <i_epik_Tot_abs_Q>
1

> <r_epik_Metal_State_Penalty>
0.461987

> <b_epik_Metal_Only>
1

> <s_lp_Force_Field>
OPLS_2005

> <r_lp_Energy>
32.875

> <b_lp_Chiralities_Consistent>
1

> <s_lp_Variant>
AV-unprocessed.smi:362-2

> <Gold.Version>
5.8.1

> <Gold.Id.Protein>
6NUR|6NUR_protein|mol2

> <Gold.PLP.Fitness>
44.8821

> <Gold.PLP.PLP>
-37.6372

> <Gold.PLP.part.hbond>
-2.2355

> <Gold.PLP.part.metal>
0.0000

> <Gold.PLP.part.buried>
-5.2120

> <Gold.PLP.part.nonpolar>
-30.0086

> <Gold.PLP.part.repulsive>
0.3424

> <Gold.PLP.ligand.clash>
0.0000

> <Gold.PLP.ligand.torsion>
1.9782

> <Gold.PLP.Chemscore.Hbond>
3.0000

> <Gold.PLP.Chemscore.CHOScore>
0.0000

> <Gold.PLP.Chemscore.Metal>
0.0000

> <Gold.Chemscore.Hbonds>
donor molecule, donor type, donor heavy atom, donor atom, acceptor molecule, acceptor atom, score
      P1  H  7997  8008       L1     1  1.00
      P1  H 10752 10763       L1     9  2.00

> <Gold.PLP.Chemscore.Internal.Correction>
2.2013

> <Gold.Rescore>
     Score         DG    S(hbond)    S(metal)    S(lipo)     H(rot)  DE(clash)    DE(int)     intcor
     12.05     -16.78       1.90        0.00      88.00       2.09       0.11       4.62       ----

> <Gold.Chemscore.Fitness>
12.0547

> <Gold.Chemscore.DG>
-16.7788

> <Gold.Chemscore.ZeroCoef>
-5.4800

> <Gold.Chemscore.Hbond>
1.9045

> <Gold.Chemscore.Metal>
0.0000

> <Gold.Chemscore.Lipo>
87.9984

> <Gold.Chemscore.Internal_Hbond>
0.0000

> <Gold.Chemscore.DEClash>
0.1073

> <Gold.Chemscore.DEInternal>
4.6168

> <Gold.Chemscore.Rot>
2.0929

> <Gold.Chemscore.Internal.Correction>
   9.000000E+99

> <Gold.Chemscore.Hbonds>
donor molecule, donor type, donor heavy atom, donor atom, acceptor molecule, acceptor atom, score
      P1  H  7997  8008       L1     1  0.93
      P1  H 10752 10763       L1     9  0.89

> <Gold.Chemscore.Hbond.Weighted>
-6.3609

> <Gold.Chemscore.Metal.Weighted>
-0.0000

> <Gold.Chemscore.Lipo.Weighted>
-10.2958

> <Gold.Chemscore.Internal_Hbond.Weighted>
0.0000

> <Gold.Chemscore.DEClash.Weighted>
0.1073

> <Gold.Chemscore.DEInternal.Weighted>
4.6168

> <Gold.Chemscore.Rot.Weighted>
5.3579

> <Gold.Chemscore.Internal.Correction.Weighted>
   9.000000E+99

> <Gold.Protein.RotatedTorsions>
[ 6907 6896 6895 6894 ] final   58.95 input  -60.11 | X-H torsion
[ 7974 7965 7964 7962 ] final  137.99 input  175.53 | X-H torsion
[ 8008 7997 7996 7995 ] final  -50.76 input   59.86 | X-H torsion
[ 10167 10162 10161 10158 ] final   83.78 input  -65.29 | X-H torsion
[ 10718 10713 10712 10709 ] final   99.20 input   66.30 | X-H torsion
[ 10763 10752 10751 10750 ] final   57.90 input  -60.55 | X-H torsion
[ 11005 11000 10999 10996 ] final   17.71 input  -57.11 | X-H torsion

> <Gold.Protein.ActiveResidues>
 VAL166  LYS551  ARG553  GLY616  TRP617  ASP618  TYR619  PRO620  LYS621  CYS622 
 ASP623  PHE694  ASN695  SER759  ASP760  ASP761  ALA762  ILE779  LEU786  VAL792 
 PHE793  MET794  SER795  GLU796  ALA797  LYS798  CYS799  TRP800  GLU811  SER814 

> <Gold.Protein.RotatedAtoms>
  152.3871  134.6500  160.0121 H   0  0  0  0  0  0  0  0  0  0  0  0  # atno 6907 bound_to 6896
  151.6745  133.3307  159.3212 H   0  0  0  0  0  0  0  0  0  0  0  0  # atno 6908 bound_to 6896
  150.7795  134.6770  159.6468 H   0  0  0  0  0  0  0  0  0  0  0  0  # atno 6909 bound_to 6896
  144.9415  139.4925  143.5569 H   0  0  0  0  0  0  0  0  0  0  0  0  # atno 7974 bound_to 7965
  154.4068  140.1264  156.4719 H   0  0  0  0  0  0  0  0  0  0  0  0  # atno 8008 bound_to 7997
  155.7171  140.3493  155.4979 H   0  0  0  0  0  0  0  0  0  0  0  0  # atno 8009 bound_to 7997
  155.9248  140.1059  157.1168 H   0  0  0  0  0  0  0  0  0  0  0  0  # atno 8010 bound_to 7997
  139.9148  144.6249  150.8500 H   0  0  0  0  0  0  0  0  0  0  0  0  # atno 10167 bound_to 10162
  157.6881  131.0663  150.4912 H   0  0  0  0  0  0  0  0  0  0  0  0  # atno 10718 bound_to 10713
  152.9859  135.5625  154.5465 H   0  0  0  0  0  0  0  0  0  0  0  0  # atno 10763 bound_to 10752
  154.4910  135.2793  155.1498 H   0  0  0  0  0  0  0  0  0  0  0  0  # atno 10764 bound_to 10752
  154.2968  135.6315  153.5461 H   0  0  0  0  0  0  0  0  0  0  0  0  # atno 10765 bound_to 10752
  140.4329  134.1401  155.7682 H   0  0  0  0  0  0  0  0  0  0  0  0  # atno 11005 bound_to 11000
  146.3287  139.8438  142.8885 LP  0  0  0  0  0  0  0  0  0  0  0  0  # atno 17320 bound_to 7965
  145.2984  141.0187  143.3623 LP  0  0  0  0  0  0  0  0  0  0  0  0  # atno 17321 bound_to 7965
  140.7677  143.3339  151.2350 LP  0  0  0  0  0  0  0  0  0  0  0  0  # atno 17342 bound_to 10162
  139.6911  143.9690  152.2860 LP  0  0  0  0  0  0  0  0  0  0  0  0  # atno 17343 bound_to 10162
  156.5239  130.4168  149.6236 LP  0  0  0  0  0  0  0  0  0  0  0  0  # atno 17370 bound_to 10713
  156.3130  130.7239  151.2135 LP  0  0  0  0  0  0  0  0  0  0  0  0  # atno 17371 bound_to 10713
  141.1738  133.8556  157.1488 LP  0  0  0  0  0  0  0  0  0  0  0  0  # atno 17394 bound_to 11000
  140.0122  134.9983  157.0418 LP  0  0  0  0  0  0  0  0  0  0  0  0  # atno 17395 bound_to 11000

$$$$
