AV-unprocessed.smi:1780|AV-procd|sdf|7184|dock8
  -GOLD-   22720 8423D 1   1.00000     0.00000
 Structure written by MMmdl.
 43 44  0  0  0  0  0  0  0  0  1 V2000
  143.2897  132.6654  150.8829 C   0  0  0  0  0  0  0  0  0  0  0  0
  143.6271  133.8770  150.0049 C   0  0  0  0  0  0  0  0  0  0  0  0
  144.1673  134.9743  150.7840 N   0  0  0  0  0  0  0  0  0  0  0  0
  145.3910  135.5986  150.6443 C   0  0  0  0  0  0  0  0  0  0  0  0
  145.4251  136.5641  151.6106 C   0  0  0  0  0  0  0  0  0  0  0  0
  146.4458  137.5009  151.9107 N   0  0  0  0  0  0  0  0  0  0  0  0
  146.9331  137.8155  153.1219 C   0  0  0  0  0  0  0  0  0  0  0  0
  146.5419  137.3409  154.1885 O   0  0  0  0  0  0  0  0  0  0  0  0
  147.9152  138.7228  153.0298 N   0  0  0  0  0  0  0  0  0  0  0  0
  148.6658  139.2661  154.1586 C   0  0  0  0  0  0  0  0  0  0  0  0
  148.7433  140.8213  154.1696 C   0  0  1  0  0  0  0  0  0  0  0  0
  147.3351  141.3984  153.8746 C   0  0  0  0  0  0  0  0  0  0  0  0
  149.3365  141.3654  155.4133 N   0  0  0  0  0  0  0  0  0  0  0  0
  148.5468  141.0438  156.6079 C   0  0  0  0  0  0  0  0  0  0  0  0
  149.1765  141.5842  157.9036 C   0  0  0  0  0  0  0  0  0  0  0  0
  150.4978  141.0807  158.0420 O   0  0  0  0  0  0  0  0  0  0  0  0
  151.3213  141.4355  156.9400 C   0  0  0  0  0  0  0  0  0  0  0  0
  150.7071  140.8916  155.6385 C   0  0  0  0  0  0  0  0  0  0  0  0
  144.1879  136.4673  152.2989 C   0  0  0  0  0  0  0  0  0  0  0  0
  143.4340  135.5019  151.7956 N   0  0  0  0  0  0  0  0  0  0  0  0
  142.8629  131.8605  150.2846 H   0  0  0  0  0  0  0  0  0  0  0  0
  142.5649  132.9278  151.6543 H   0  0  0  0  0  0  0  0  0  0  0  0
  144.1798  132.2748  151.3775 H   0  0  0  0  0  0  0  0  0  0  0  0
  144.3520  133.6013  149.2376 H   0  0  0  0  0  0  0  0  0  0  0  0
  142.7330  134.2246  149.4862 H   0  0  0  0  0  0  0  0  0  0  0  0
  146.1024  135.3042  149.8871 H   0  0  0  0  0  0  0  0  0  0  0  0
  146.8520  137.9770  151.1188 H   0  0  0  0  0  0  0  0  0  0  0  0
  148.1699  139.0579  152.1123 H   0  0  0  0  0  0  0  0  0  0  0  0
  148.1957  138.9126  155.0768 H   0  0  0  0  0  0  0  0  0  0  0  0
  149.6542  138.8094  154.1230 H   0  0  0  0  0  0  0  0  0  0  0  0
  149.3856  141.1175  153.3388 H   0  0  0  0  0  0  0  0  0  0  0  0
  146.8848  140.9640  152.9829 H   0  0  0  0  0  0  0  0  0  0  0  0
  147.3596  142.4699  153.6815 H   0  0  0  0  0  0  0  0  0  0  0  0
  146.6531  141.2202  154.7065 H   0  0  0  0  0  0  0  0  0  0  0  0
  147.5501  141.4749  156.5402 H   0  0  0  0  0  0  0  0  0  0  0  0
  148.4212  139.9629  156.6890 H   0  0  0  0  0  0  0  0  0  0  0  0
  149.1924  142.6753  157.8995 H   0  0  0  0  0  0  0  0  0  0  0  0
  148.5870  141.2767  158.7675 H   0  0  0  0  0  0  0  0  0  0  0  0
  151.4324  142.5199  156.8916 H   0  0  0  0  0  0  0  0  0  0  0  0
  152.3170  141.0185  157.0914 H   0  0  0  0  0  0  0  0  0  0  0  0
  150.7228  139.8009  155.6594 H   0  0  0  0  0  0  0  0  0  0  0  0
  151.3602  141.2024  154.8252 H   0  0  0  0  0  0  0  0  0  0  0  0
  143.8193  137.0517  153.1291 H   0  0  0  0  0  0  0  0  0  0  0  0
  1  2  1  0  0  0  0
  1 21  1  0  0  0  0
  1 22  1  0  0  0  0
  1 23  1  0  0  0  0
  2  3  1  0  0  0  0
  2 24  1  0  0  0  0
  2 25  1  0  0  0  0
  3 20  1  0  0  0  0
  3  4  1  0  0  0  0
  4  5  2  0  0  0  0
  4 26  1  0  0  0  0
  5  6  1  0  0  0  0
  5 19  1  0  0  0  0
  6  7  1  0  0  0  0
  6 27  1  0  0  0  0
  7  8  2  0  0  0  0
  7  9  1  0  0  0  0
  9 10  1  0  0  0  0
  9 28  1  0  0  0  0
 10 11  1  0  0  0  0
 10 29  1  0  0  0  0
 10 30  1  0  0  0  0
 11 12  1  0  0  0  0
 11 13  1  0  0  0  0
 11 31  1  0  0  0  0
 12 32  1  0  0  0  0
 12 33  1  0  0  0  0
 12 34  1  0  0  0  0
 13 18  1  0  0  0  0
 13 14  1  0  0  0  0
 14 15  1  0  0  0  0
 14 35  1  0  0  0  0
 14 36  1  0  0  0  0
 15 16  1  0  0  0  0
 15 37  1  0  0  0  0
 15 38  1  0  0  0  0
 16 17  1  0  0  0  0
 17 18  1  0  0  0  0
 17 39  1  0  0  0  0
 17 40  1  0  0  0  0
 18 41  1  0  0  0  0
 18 42  1  0  0  0  0
 19 20  2  0  0  0  0
 19 43  1  0  0  0  0
M  END
> <s_m_source_file>
AV-unprocessed.smi

> <i_m_source_file_index>
1780

> <i_lp_mmshare_version>
43012

> <i_f3d_flags>
0

> <s_epik_input>
W0NIM11bQ0gyXW4xW2NIXWMoW2NIXW4xKVtOSF1DKD1PKVtOSF1bQ0gyXVtDQEhdKFtDSDNdKU4yW0NIMl1bQ0gyXU9bQ0gyXVtDSDJdMg==

> <s_epik_cmdline>
J2VwaWtfcHl0aG9uJywgJy1waCcsICc3LjAnLCAnLXRuJywgJzgnLCAnLW1hJywgJzIwMCcsICctbWV0YWxfYmluZGluZycsICctaW1hZScsICc8aW5maWxlLm1hZT4nLCAnLW9tYWUnLCAnPG91dGZpbGUubWFlPic=

> <r_lp_tautomer_probability>
1

> <r_epik_Ionization_Penalty>
0.242902

> <r_epik_Ionization_Penalty_Charging>
0

> <r_epik_Ionization_Penalty_Neutral>
0.242902

> <r_epik_State_Penalty>
0.233765

> <r_epik_Charging_Adjusted_Penalty>
0.233765

> <i_epik_Tot_Q>
0

> <i_epik_Tot_abs_Q>
0

> <r_epik_Metal_State_Penalty>
0.233759

> <b_epik_Metal_Only>
0

> <s_lp_Force_Field>
OPLS_2005

> <r_lp_Energy>
31.4714

> <b_lp_Chiralities_Consistent>
1

> <s_lp_Variant>
AV-unprocessed.smi:1780-2

> <Gold.Version>
5.8.1

> <Gold.Id.Protein>
6NUR|6NUR_protein|mol2

> <Gold.PLP.Fitness>
38.3783

> <Gold.PLP.PLP>
-33.5665

> <Gold.PLP.part.hbond>
-2.6844

> <Gold.PLP.part.metal>
0.0000

> <Gold.PLP.part.buried>
-4.7223

> <Gold.PLP.part.nonpolar>
-28.1278

> <Gold.PLP.part.repulsive>
1.2223

> <Gold.PLP.ligand.clash>
0.0000

> <Gold.PLP.ligand.torsion>
0.5138

> <Gold.PLP.Chemscore.Hbond>
0.9600

> <Gold.PLP.Chemscore.CHOScore>
0.9719

> <Gold.PLP.Chemscore.Metal>
0.0000

> <Gold.Chemscore.Hbonds>
donor molecule, donor type, donor heavy atom, donor atom, acceptor molecule, acceptor atom, score
      L1  H     9    28       P1  7957  0.86
      L1  C     4    26       P1  7921  1.00

> <Gold.PLP.Chemscore.Internal.Correction>
0.0438

> <Gold.Rescore>
     Score         DG    S(hbond)    S(metal)    S(lipo)     H(rot)  DE(clash)    DE(int)     intcor
     12.20     -13.23       0.96        0.00      74.09       1.61       0.56       0.48       ----

> <Gold.Chemscore.Fitness>
12.1979

> <Gold.Chemscore.DG>
-13.2333

> <Gold.Chemscore.ZeroCoef>
-5.4800

> <Gold.Chemscore.Hbond>
0.9613

> <Gold.Chemscore.Metal>
0.0000

> <Gold.Chemscore.Lipo>
74.0912

> <Gold.Chemscore.Internal_Hbond>
0.0000

> <Gold.Chemscore.DEClash>
0.5560

> <Gold.Chemscore.DEInternal>
0.4794

> <Gold.Chemscore.Rot>
1.6117

> <Gold.Chemscore.Internal.Correction>
   9.000000E+99

> <Gold.Chemscore.Hbonds>
donor molecule, donor type, donor heavy atom, donor atom, acceptor molecule, acceptor atom, score
      L1  H     9    28       P1  7957  0.83

> <Gold.Chemscore.Hbond.Weighted>
-3.2107

> <Gold.Chemscore.Metal.Weighted>
-0.0000

> <Gold.Chemscore.Lipo.Weighted>
-8.6687

> <Gold.Chemscore.Internal_Hbond.Weighted>
0.0000

> <Gold.Chemscore.DEClash.Weighted>
0.5560

> <Gold.Chemscore.DEInternal.Weighted>
0.4794

> <Gold.Chemscore.Rot.Weighted>
4.1260

> <Gold.Chemscore.Internal.Correction.Weighted>
   9.000000E+99

> <Gold.Protein.RotatedTorsions>
[ 6907 6896 6895 6894 ] final   57.32 input  -60.11 | X-H torsion
[ 7974 7965 7964 7962 ] final -148.12 input  175.53 | X-H torsion
[ 8008 7997 7996 7995 ] final  166.51 input   59.86 | X-H torsion
[ 10167 10162 10161 10158 ] final  -86.48 input  -65.29 | X-H torsion
[ 10718 10713 10712 10709 ] final   21.59 input   66.30 | X-H torsion
[ 10763 10752 10751 10750 ] final  130.13 input  -60.55 | X-H torsion
[ 11005 11000 10999 10996 ] final   24.48 input  -57.11 | X-H torsion

> <Gold.Protein.ActiveResidues>
 VAL166  LYS551  ARG553  GLY616  TRP617  ASP618  TYR619  PRO620  LYS621  CYS622 
 ASP623  PHE694  ASN695  SER759  ASP760  ASP761  ALA762  ILE779  LEU786  VAL792 
 PHE793  MET794  SER795  GLU796  ALA797  LYS798  CYS799  TRP800  GLU811  SER814 

> <Gold.Protein.RotatedAtoms>
  152.3720  134.6719  160.0172 H   0  0  0  0  0  0  0  0  0  0  0  0  # atno 6907 bound_to 6896
  151.7009  133.3305  159.3274 H   0  0  0  0  0  0  0  0  0  0  0  0  # atno 6908 bound_to 6896
  150.7681  134.6552  159.6354 H   0  0  0  0  0  0  0  0  0  0  0  0  # atno 6909 bound_to 6896
  144.8049  140.5238  143.5681 H   0  0  0  0  0  0  0  0  0  0  0  0  # atno 7974 bound_to 7965
  156.1712  140.1641  156.8443 H   0  0  0  0  0  0  0  0  0  0  0  0  # atno 8008 bound_to 7997
  154.5259  140.0767  156.8292 H   0  0  0  0  0  0  0  0  0  0  0  0  # atno 8009 bound_to 7997
  155.3508  140.3390  155.4241 H   0  0  0  0  0  0  0  0  0  0  0  0  # atno 8010 bound_to 7997
  140.3937  143.2693  151.9231 H   0  0  0  0  0  0  0  0  0  0  0  0  # atno 10167 bound_to 10162
  157.1406  130.6631  149.5980 H   0  0  0  0  0  0  0  0  0  0  0  0  # atno 10718 bound_to 10713
  153.7530  135.3207  155.3324 H   0  0  0  0  0  0  0  0  0  0  0  0  # atno 10763 bound_to 10752
  154.8257  135.4571  154.0913 H   0  0  0  0  0  0  0  0  0  0  0  0  # atno 10764 bound_to 10752
  153.2122  135.6937  153.8183 H   0  0  0  0  0  0  0  0  0  0  0  0  # atno 10765 bound_to 10752
  140.3582  134.2154  155.7674 H   0  0  0  0  0  0  0  0  0  0  0  0  # atno 11005 bound_to 11000
  145.5461  139.1476  143.3420 LP  0  0  0  0  0  0  0  0  0  0  0  0  # atno 17320 bound_to 7965
  146.2339  140.5600  142.8963 LP  0  0  0  0  0  0  0  0  0  0  0  0  # atno 17321 bound_to 7965
  139.4787  144.5702  151.8100 LP  0  0  0  0  0  0  0  0  0  0  0  0  # atno 17342 bound_to 10162
  140.4813  144.1446  150.5933 LP  0  0  0  0  0  0  0  0  0  0  0  0  # atno 17343 bound_to 10162
  155.9789  130.4779  150.6685 LP  0  0  0  0  0  0  0  0  0  0  0  0  # atno 17370 bound_to 10713
  157.4311  131.0849  151.1038 LP  0  0  0  0  0  0  0  0  0  0  0  0  # atno 17371 bound_to 10713
  141.1992  133.8017  157.0547 LP  0  0  0  0  0  0  0  0  0  0  0  0  # atno 17394 bound_to 11000
  140.0648  134.9735  157.1367 LP  0  0  0  0  0  0  0  0  0  0  0  0  # atno 17395 bound_to 11000

$$$$
