AV-unprocessed.smi:518|AV-procd|sdf|2794|dock3
  -GOLD-   2262023273D 1   1.00000     0.00000
 Structure written by MMmdl.
 41 43  0  0  0  0  0  0  0  0  2 V2000
  153.2901  138.9666  156.8045 O   0  0  0  0  0  0  0  0  0  0  0  0
  152.8264  139.1378  158.1272 C   0  0  0  0  0  0  0  0  0  0  0  0
  151.3697  139.6359  158.1609 C   0  0  0  0  0  0  0  0  0  0  0  0
  151.2421  141.0853  157.9307 N   0  0  0  0  0  0  0  0  0  0  0  0
  150.7078  141.7672  156.8752 C   0  0  0  0  0  0  0  0  0  0  0  0
  150.0884  141.1869  155.6419 C   0  0  0  0  0  0  0  0  0  0  0  0
  148.7383  141.6731  155.3684 N   0  0  0  0  0  0  0  0  0  0  0  0
  148.1798  140.9225  154.2415 C   0  0  0  0  0  0  0  0  0  0  0  0
  146.7987  141.4822  153.8587 C   0  0  0  0  0  0  0  0  0  0  0  0
  145.8363  141.4156  155.0497 C   0  0  0  0  0  0  0  0  0  0  0  0
  146.4780  142.0996  156.2623 C   0  0  0  0  0  0  0  0  0  0  0  0
  147.8748  141.5180  156.5446 C   0  0  0  0  0  0  0  0  0  0  0  0
  150.8277  143.0964  157.1508 N   0  3  0  0  0  0  0  0  0  0  0  0
  151.4365  143.2689  158.3939 C   0  0  0  0  0  0  0  0  0  0  0  0
  151.7627  144.4256  159.0949 C   0  0  0  0  0  0  0  0  0  0  0  0
  152.3790  144.2512  160.3514 C   0  0  0  0  0  0  0  0  0  0  0  0
  152.6491  142.9665  160.8667 C   0  0  0  0  0  0  0  0  0  0  0  0
  153.4064  142.8149  162.4093 Cl  0  0  0  0  0  0  0  0  0  0  0  0
  152.3119  141.8023  160.1453 C   0  0  0  0  0  0  0  0  0  0  0  0
  151.7034  141.9818  158.9031 C   0  0  0  0  0  0  0  0  0  0  0  0
  152.5964  138.5800  156.2916 H   0  0  0  0  0  0  0  0  0  0  0  0
  152.9256  138.1910  158.6562 H   0  0  0  0  0  0  0  0  0  0  0  0
  153.4752  139.8522  158.6340 H   0  0  0  0  0  0  0  0  0  0  0  0
  150.7937  139.1312  157.3846 H   0  0  0  0  0  0  0  0  0  0  0  0
  150.8895  139.3803  159.1056 H   0  0  0  0  0  0  0  0  0  0  0  0
  150.7362  141.4378  154.8012 H   0  0  0  0  0  0  0  0  0  0  0  0
  150.0842  140.0983  155.7183 H   0  0  0  0  0  0  0  0  0  0  0  0
  148.8468  141.0004  153.3820 H   0  0  0  0  0  0  0  0  0  0  0  0
  148.1040  139.8635  154.4935 H   0  0  0  0  0  0  0  0  0  0  0  0
  146.9011  142.5150  153.5228 H   0  0  0  0  0  0  0  0  0  0  0  0
  146.3894  140.9216  153.0178 H   0  0  0  0  0  0  0  0  0  0  0  0
  144.8873  141.8910  154.8006 H   0  0  0  0  0  0  0  0  0  0  0  0
  145.6159  140.3742  155.2872 H   0  0  0  0  0  0  0  0  0  0  0  0
  146.5562  143.1727  156.0825 H   0  0  0  0  0  0  0  0  0  0  0  0
  145.8396  141.9788  157.1379 H   0  0  0  0  0  0  0  0  0  0  0  0
  147.7987  140.4649  156.8198 H   0  0  0  0  0  0  0  0  0  0  0  0
  148.3057  142.0416  157.3982 H   0  0  0  0  0  0  0  0  0  0  0  0
  151.5565  145.4111  158.7044 H   0  0  0  0  0  0  0  0  0  0  0  0
  152.6499  145.1215  160.9314 H   0  0  0  0  0  0  0  0  0  0  0  0
  152.5264  140.8226  160.5456 H   0  0  0  0  0  0  0  0  0  0  0  0
  150.5105  143.8307  156.5311 H   0  0  0  0  0  0  0  0  0  0  0  0
  1  2  1  0  0  0  0
  1 21  1  0  0  0  0
  2  3  1  0  0  0  0
  2 22  1  0  0  0  0
  2 23  1  0  0  0  0
  3  4  1  0  0  0  0
  3 24  1  0  0  0  0
  3 25  1  0  0  0  0
  4 20  1  0  0  0  0
  4  5  1  0  0  0  0
  5  6  1  0  0  0  0
  5 13  2  0  0  0  0
  6  7  1  0  0  0  0
  6 26  1  0  0  0  0
  6 27  1  0  0  0  0
  7 12  1  0  0  0  0
  7  8  1  0  0  0  0
  8  9  1  0  0  0  0
  8 28  1  0  0  0  0
  8 29  1  0  0  0  0
  9 10  1  0  0  0  0
  9 30  1  0  0  0  0
  9 31  1  0  0  0  0
 10 11  1  0  0  0  0
 10 32  1  0  0  0  0
 10 33  1  0  0  0  0
 11 12  1  0  0  0  0
 11 34  1  0  0  0  0
 11 35  1  0  0  0  0
 12 36  1  0  0  0  0
 12 37  1  0  0  0  0
 13 14  1  0  0  0  0
 13 41  1  0  0  0  0
 14 20  2  0  0  0  0
 14 15  1  0  0  0  0
 15 16  2  0  0  0  0
 15 38  1  0  0  0  0
 16 17  1  0  0  0  0
 16 39  1  0  0  0  0
 17 18  1  0  0  0  0
 17 19  2  0  0  0  0
 19 20  1  0  0  0  0
 19 40  1  0  0  0  0
M  CHG  1  13   1
M  END
> <s_m_source_file>
AV-unprocessed.smi

> <i_m_source_file_index>
518

> <i_lp_mmshare_version>
43012

> <i_f3d_flags>
0

> <s_epik_input>
W2NIXTFbY0hdYyhDbClbY0hdYyhjMTIpbihbQ0gyXVtDSDJdW09IXSljKG4yKVtDSDJdTjNbQ0gyXVtDSDJdW0NIMl1bQ0gyXVtDSDJdMw==

> <s_epik_cmdline>
J2VwaWtfcHl0aG9uJywgJy1waCcsICc3LjAnLCAnLXRuJywgJzgnLCAnLW1hJywgJzIwMCcsICctbWV0YWxfYmluZGluZycsICctaW1hZScsICc8aW5maWxlLm1hZT4nLCAnLW9tYWUnLCAnPG91dGZpbGUubWFlPic=

> <r_epik_Ionization_Penalty>
1.35728

> <r_epik_Ionization_Penalty_Charging>
1.07632

> <r_epik_Ionization_Penalty_Neutral>
0.28096

> <r_epik_State_Penalty>
1.90917

> <r_epik_Charging_Adjusted_Penalty>
2.98548

> <i_epik_Tot_Q>
1

> <i_epik_Tot_abs_Q>
1

> <r_epik_Metal_State_Penalty>
5.90072

> <b_epik_Metal_Only>
0

> <s_lp_Force_Field>
OPLS_2005

> <r_lp_Energy>
20.298

> <b_lp_Chiralities_Consistent>
1

> <s_lp_Variant>
AV-unprocessed.smi:518-3

> <Gold.Version>
5.8.1

> <Gold.Id.Protein>
6NUR|6NUR_protein|mol2

> <Gold.PLP.Fitness>
52.5116

> <Gold.PLP.PLP>
-44.8774

> <Gold.PLP.part.hbond>
-1.9300

> <Gold.PLP.part.metal>
0.0000

> <Gold.PLP.part.buried>
-7.1330

> <Gold.PLP.part.nonpolar>
-36.9284

> <Gold.PLP.part.repulsive>
1.3443

> <Gold.PLP.ligand.clash>
0.0000

> <Gold.PLP.ligand.torsion>
0.2309

> <Gold.PLP.Chemscore.Hbond>
2.6960

> <Gold.PLP.Chemscore.CHOScore>
0.0000

> <Gold.PLP.Chemscore.Metal>
0.0000

> <Gold.Chemscore.Hbonds>
donor molecule, donor type, donor heavy atom, donor atom, acceptor molecule, acceptor atom, score
      L1  H    13    41       P1  8028  1.84
      P1  H  7997  8008       L1     1  1.00

> <Gold.PLP.Chemscore.Internal.Correction>
0.0079

> <Gold.Rescore>
     Score         DG    S(hbond)    S(metal)    S(lipo)     H(rot)  DE(clash)    DE(int)     intcor
     19.38     -19.69       1.69        0.00     118.81       2.08       0.06       0.25       ----

> <Gold.Chemscore.Fitness>
19.3834

> <Gold.Chemscore.DG>
-19.6927

> <Gold.Chemscore.ZeroCoef>
-5.4800

> <Gold.Chemscore.Hbond>
1.6865

> <Gold.Chemscore.Metal>
0.0000

> <Gold.Chemscore.Lipo>
118.8110

> <Gold.Chemscore.Internal_Hbond>
0.0000

> <Gold.Chemscore.DEClash>
0.0630

> <Gold.Chemscore.DEInternal>
0.2462

> <Gold.Chemscore.Rot>
2.0786

> <Gold.Chemscore.Internal.Correction>
   9.000000E+99

> <Gold.Chemscore.Hbonds>
donor molecule, donor type, donor heavy atom, donor atom, acceptor molecule, acceptor atom, score
      L1  H    13    41       P1  8028  0.85
      P1  H  7997  8008       L1     1  0.38

> <Gold.Chemscore.Hbond.Weighted>
-5.6330

> <Gold.Chemscore.Metal.Weighted>
-0.0000

> <Gold.Chemscore.Lipo.Weighted>
-13.9009

> <Gold.Chemscore.Internal_Hbond.Weighted>
0.0000

> <Gold.Chemscore.DEClash.Weighted>
0.0630

> <Gold.Chemscore.DEInternal.Weighted>
0.2462

> <Gold.Chemscore.Rot.Weighted>
5.3212

> <Gold.Chemscore.Internal.Correction.Weighted>
   9.000000E+99

> <Gold.Protein.RotatedTorsions>
[ 6907 6896 6895 6894 ] final -117.95 input  -60.11 | X-H torsion
[ 7974 7965 7964 7962 ] final -161.19 input  175.53 | X-H torsion
[ 8008 7997 7996 7995 ] final  -64.40 input   59.86 | X-H torsion
[ 10167 10162 10161 10158 ] final  176.30 input  -65.29 | X-H torsion
[ 10718 10713 10712 10709 ] final  113.99 input   66.30 | X-H torsion
[ 10763 10752 10751 10750 ] final    4.39 input  -60.55 | X-H torsion
[ 11005 11000 10999 10996 ] final  148.19 input  -57.11 | X-H torsion

> <Gold.Protein.ActiveResidues>
 VAL166  LYS551  ARG553  GLY616  TRP617  ASP618  TYR619  PRO620  LYS621  CYS622 
 ASP623  PHE694  ASN695  SER759  ASP760  ASP761  ALA762  ILE779  LEU786  VAL792 
 PHE793  MET794  SER795  GLU796  ALA797  LYS798  CYS799  TRP800  GLU811  SER814 

> <Gold.Protein.RotatedAtoms>
  150.8179  133.8304  159.3151 H   0  0  0  0  0  0  0  0  0  0  0  0  # atno 6907 bound_to 6896
  151.6071  135.1041  160.0082 H   0  0  0  0  0  0  0  0  0  0  0  0  # atno 6908 bound_to 6896
  152.4270  133.7171  159.6568 H   0  0  0  0  0  0  0  0  0  0  0  0  # atno 6909 bound_to 6896
  144.7400  140.3433  143.6130 H   0  0  0  0  0  0  0  0  0  0  0  0  # atno 7974 bound_to 7965
  154.4609  140.0954  156.6891 H   0  0  0  0  0  0  0  0  0  0  0  0  # atno 8008 bound_to 7997
  155.4997  140.3473  155.4350 H   0  0  0  0  0  0  0  0  0  0  0  0  # atno 8009 bound_to 7997
  156.0869  140.1387  156.9631 H   0  0  0  0  0  0  0  0  0  0  0  0  # atno 8010 bound_to 7997
  139.5209  144.2931  152.0445 H   0  0  0  0  0  0  0  0  0  0  0  0  # atno 10167 bound_to 10162
  157.6307  131.0992  150.7121 H   0  0  0  0  0  0  0  0  0  0  0  0  # atno 10718 bound_to 10713
  153.2719  135.6933  153.7472 H   0  0  0  0  0  0  0  0  0  0  0  0  # atno 10763 bound_to 10752
  153.6493  135.3379  155.3096 H   0  0  0  0  0  0  0  0  0  0  0  0  # atno 10764 bound_to 10752
  154.8466  135.4450  154.1744 H   0  0  0  0  0  0  0  0  0  0  0  0  # atno 10765 bound_to 10752
  140.0939  134.9024  157.1693 H   0  0  0  0  0  0  0  0  0  0  0  0  # atno 11005 bound_to 11000
  145.7352  139.1748  143.2407 LP  0  0  0  0  0  0  0  0  0  0  0  0  # atno 17320 bound_to 7965
  146.1176  140.7350  142.9473 LP  0  0  0  0  0  0  0  0  0  0  0  0  # atno 17321 bound_to 7965
  140.2382  144.4297  150.6271 LP  0  0  0  0  0  0  0  0  0  0  0  0  # atno 17342 bound_to 10162
  140.6309  143.2187  151.6498 LP  0  0  0  0  0  0  0  0  0  0  0  0  # atno 17343 bound_to 10162
  156.7461  130.4754  149.5466 LP  0  0  0  0  0  0  0  0  0  0  0  0  # atno 17370 bound_to 10713
  156.1508  130.6308  151.0593 LP  0  0  0  0  0  0  0  0  0  0  0  0  # atno 17371 bound_to 10713
  140.3314  134.2806  155.7227 LP  0  0  0  0  0  0  0  0  0  0  0  0  # atno 17394 bound_to 11000
  141.2086  133.7772  157.0048 LP  0  0  0  0  0  0  0  0  0  0  0  0  # atno 17395 bound_to 11000

$$$$
