AV-unprocessed.smi:2573|AV-procd|sdf|10112|dock5
  -GOLD-   2272014133D 1   1.00000     0.00000
 Structure written by MMmdl.
 38 39  0  0  0  0  0  0  0  0  1 V2000
  155.3249  140.1700  162.3251 C   0  0  0  0  0  0  0  0  0  0  0  0
  154.3486  140.1817  161.1409 C   0  0  0  0  0  0  0  0  0  0  0  0
  154.4288  141.4539  160.2773 C   0  0  0  0  0  0  0  0  0  0  0  0
  153.2074  141.6835  159.5063 N   0  0  0  0  0  0  0  0  0  0  0  0
  152.6590  140.8532  158.5875 C   0  0  0  0  0  0  0  0  0  0  0  0
  153.0990  139.7541  158.2510 O   0  0  0  0  0  0  0  0  0  0  0  0
  151.5373  141.4390  158.1071 N   0  0  0  0  0  0  0  0  0  0  0  0
  150.6260  140.8832  157.1081 C   0  0  0  0  0  0  0  0  0  0  0  0
  151.3796  140.4416  155.8367 C   0  0  2  0  0  0  0  0  0  0  0  0
  150.4919  140.5546  154.7416 O   0  0  0  0  0  0  0  0  0  0  0  0
  151.8498  138.9746  155.9280 C   0  0  0  0  0  0  0  0  0  0  0  0
  150.7481  137.9280  155.6775 C   0  0  0  0  0  0  0  0  0  0  0  0
  151.2671  136.7096  155.8276 F   0  0  0  0  0  0  0  0  0  0  0  0
  149.7419  138.0654  156.5404 F   0  0  0  0  0  0  0  0  0  0  0  0
  150.2793  138.0378  154.4345 F   0  0  0  0  0  0  0  0  0  0  0  0
  151.3541  142.6739  158.7468 C   0  0  0  0  0  0  0  0  0  0  0  0
  150.3456  143.6447  158.6162 C   0  0  0  0  0  0  0  0  0  0  0  0
  150.4540  144.8021  159.4225 C   0  0  0  0  0  0  0  0  0  0  0  0
  151.5401  144.9626  160.3220 C   0  0  0  0  0  0  0  0  0  0  0  0
  152.5395  143.9682  160.4358 C   0  0  0  0  0  0  0  0  0  0  0  0
  152.4072  142.8285  159.6239 C   0  0  0  0  0  0  0  0  0  0  0  0
  155.2763  139.2197  162.8570 H   0  0  0  0  0  0  0  0  0  0  0  0
  155.0939  140.9583  163.0416 H   0  0  0  0  0  0  0  0  0  0  0  0
  156.3523  140.3113  161.9887 H   0  0  0  0  0  0  0  0  0  0  0  0
  154.5556  139.3179  160.5087 H   0  0  0  0  0  0  0  0  0  0  0  0
  153.3313  140.0467  161.5099 H   0  0  0  0  0  0  0  0  0  0  0  0
  154.6448  142.3174  160.9084 H   0  0  0  0  0  0  0  0  0  0  0  0
  155.2687  141.3750  159.5862 H   0  0  0  0  0  0  0  0  0  0  0  0
  150.1267  140.0270  157.5629 H   0  0  0  0  0  0  0  0  0  0  0  0
  149.8285  141.5895  156.8696 H   0  0  0  0  0  0  0  0  0  0  0  0
  152.2430  141.0872  155.6710 H   0  0  0  0  0  0  0  0  0  0  0  0
  149.7895  139.9325  154.8560 H   0  0  0  0  0  0  0  0  0  0  0  0
  152.6326  138.8114  155.1862 H   0  0  0  0  0  0  0  0  0  0  0  0
  152.3164  138.7949  156.8977 H   0  0  0  0  0  0  0  0  0  0  0  0
  149.5201  143.5169  157.9318 H   0  0  0  0  0  0  0  0  0  0  0  0
  149.7009  145.5730  159.3529 H   0  0  0  0  0  0  0  0  0  0  0  0
  151.6043  145.8542  160.9283 H   0  0  0  0  0  0  0  0  0  0  0  0
  153.3675  144.0834  161.1195 H   0  0  0  0  0  0  0  0  0  0  0  0
  1  2  1  0  0  0  0
  1 22  1  0  0  0  0
  1 23  1  0  0  0  0
  1 24  1  0  0  0  0
  2  3  1  0  0  0  0
  2 25  1  0  0  0  0
  2 26  1  0  0  0  0
  3  4  1  0  0  0  0
  3 27  1  0  0  0  0
  3 28  1  0  0  0  0
  4 21  1  0  0  0  0
  4  5  1  0  0  0  0
  5  6  2  0  0  0  0
  5  7  1  0  0  0  0
  7  8  1  0  0  0  0
  7 16  1  0  0  0  0
  8  9  1  0  0  0  0
  8 29  1  0  0  0  0
  8 30  1  0  0  0  0
  9 10  1  0  0  0  0
  9 11  1  0  0  0  0
  9 31  1  0  0  0  0
 10 32  1  0  0  0  0
 11 12  1  0  0  0  0
 11 33  1  0  0  0  0
 11 34  1  0  0  0  0
 12 13  1  0  0  0  0
 12 14  1  0  0  0  0
 12 15  1  0  0  0  0
 16 21  2  0  0  0  0
 16 17  1  0  0  0  0
 17 18  2  0  0  0  0
 17 35  1  0  0  0  0
 18 19  1  0  0  0  0
 18 36  1  0  0  0  0
 19 20  2  0  0  0  0
 19 37  1  0  0  0  0
 20 21  1  0  0  0  0
 20 38  1  0  0  0  0
M  END
> <s_m_source_file>
AV-unprocessed.smi

> <i_m_source_file_index>
2573

> <i_lp_mmshare_version>
43012

> <i_f3d_flags>
0

> <s_epik_input>
W2NIXTFbY0hdW2NIXVtjSF1jKGMxMiluKFtDSDJdW0NIMl1bQ0gzXSljKD1PKW4yW0NIMl1bQ0BIXShbT0hdKVtDSDJdQyhGKShGKUY=

> <s_epik_cmdline>
J2VwaWtfcHl0aG9uJywgJy1waCcsICc3LjAnLCAnLXRuJywgJzgnLCAnLW1hJywgJzIwMCcsICctbWV0YWxfYmluZGluZycsICctaW1hZScsICc8aW5maWxlLm1hZT4nLCAnLW9tYWUnLCAnPG91dGZpbGUubWFlPic=

> <r_lp_tautomer_probability>
1

> <r_epik_Ionization_Penalty>
2.4024e-06

> <r_epik_Ionization_Penalty_Charging>
3.10219e-09

> <r_epik_Ionization_Penalty_Neutral>
2.3993e-06

> <r_epik_State_Penalty>
-0

> <r_epik_Charging_Adjusted_Penalty>
3.10219e-09

> <i_epik_Tot_Q>
0

> <i_epik_Tot_abs_Q>
0

> <r_epik_Metal_State_Penalty>
-0

> <b_epik_Metal_Only>
0

> <s_lp_Force_Field>
OPLS_2005

> <r_lp_Energy>
43.3878

> <b_lp_Chiralities_Consistent>
1

> <s_lp_Variant>
AV-unprocessed.smi:2573-1

> <Gold.Version>
5.8.1

> <Gold.Id.Protein>
6NUR|6NUR_protein|mol2

> <Gold.PLP.Fitness>
50.3617

> <Gold.PLP.PLP>
-45.6884

> <Gold.PLP.part.hbond>
-2.0000

> <Gold.PLP.part.metal>
0.0000

> <Gold.PLP.part.buried>
-5.0026

> <Gold.PLP.part.nonpolar>
-38.6263

> <Gold.PLP.part.repulsive>
0.0000

> <Gold.PLP.ligand.clash>
0.0000

> <Gold.PLP.ligand.torsion>
0.6987

> <Gold.PLP.Chemscore.Hbond>
1.9920

> <Gold.PLP.Chemscore.CHOScore>
0.0000

> <Gold.PLP.Chemscore.Metal>
0.0000

> <Gold.Chemscore.Hbonds>
donor molecule, donor type, donor heavy atom, donor atom, acceptor molecule, acceptor atom, score
      P1  H  7989  7998       L1    10  0.98
      P1  H  7997  8010       L1     6  1.00

> <Gold.PLP.Chemscore.Internal.Correction>
0.0946

> <Gold.Rescore>
     Score         DG    S(hbond)    S(metal)    S(lipo)     H(rot)  DE(clash)    DE(int)     intcor
     11.68     -16.49       1.50        0.00     105.70       2.48       0.10       4.71       ----

> <Gold.Chemscore.Fitness>
11.6837

> <Gold.Chemscore.DG>
-16.4945

> <Gold.Chemscore.ZeroCoef>
-5.4800

> <Gold.Chemscore.Hbond>
1.4968

> <Gold.Chemscore.Metal>
0.0000

> <Gold.Chemscore.Lipo>
105.7019

> <Gold.Chemscore.Internal_Hbond>
0.0000

> <Gold.Chemscore.DEClash>
0.0979

> <Gold.Chemscore.DEInternal>
4.7128

> <Gold.Chemscore.Rot>
2.4812

> <Gold.Chemscore.Internal.Correction>
   9.000000E+99

> <Gold.Chemscore.Hbonds>
donor molecule, donor type, donor heavy atom, donor atom, acceptor molecule, acceptor atom, score
      P1  H  7989  7998       L1    10  0.24
      P1  H  7997  8010       L1     6  0.64

> <Gold.Chemscore.Hbond.Weighted>
-4.9992

> <Gold.Chemscore.Metal.Weighted>
-0.0000

> <Gold.Chemscore.Lipo.Weighted>
-12.3671

> <Gold.Chemscore.Internal_Hbond.Weighted>
0.0000

> <Gold.Chemscore.DEClash.Weighted>
0.0979

> <Gold.Chemscore.DEInternal.Weighted>
4.7128

> <Gold.Chemscore.Rot.Weighted>
6.3518

> <Gold.Chemscore.Internal.Correction.Weighted>
   9.000000E+99

> <Gold.Protein.RotatedTorsions>
[ 6907 6896 6895 6894 ] final -167.68 input  -60.11 | X-H torsion
[ 7974 7965 7964 7962 ] final   80.45 input  175.53 | X-H torsion
[ 8008 7997 7996 7995 ] final   35.09 input   59.86 | X-H torsion
[ 10167 10162 10161 10158 ] final   64.62 input  -65.29 | X-H torsion
[ 10718 10713 10712 10709 ] final -101.65 input   66.30 | X-H torsion
[ 10763 10752 10751 10750 ] final  -28.78 input  -60.55 | X-H torsion
[ 11005 11000 10999 10996 ] final  -79.05 input  -57.11 | X-H torsion

> <Gold.Protein.ActiveResidues>
 VAL166  LYS551  ARG553  GLY616  TRP617  ASP618  TYR619  PRO620  LYS621  CYS622 
 ASP623  PHE694  ASN695  SER759  ASP760  ASP761  ALA762  ILE779  LEU786  VAL792 
 PHE793  MET794  SER795  GLU796  ALA797  LYS798  CYS799  TRP800  GLU811  SER814 

> <Gold.Protein.RotatedAtoms>
  151.4635  133.3587  159.2812 H   0  0  0  0  0  0  0  0  0  0  0  0  # atno 6907 bound_to 6896
  150.9009  134.8423  159.7370 H   0  0  0  0  0  0  0  0  0  0  0  0  # atno 6908 bound_to 6896
  152.4879  134.4555  159.9640 H   0  0  0  0  0  0  0  0  0  0  0  0  # atno 6909 bound_to 6896
  145.6510  139.2448  143.1976 H   0  0  0  0  0  0  0  0  0  0  0  0  # atno 7974 bound_to 7965
  155.1654  140.3287  155.4403 H   0  0  0  0  0  0  0  0  0  0  0  0  # atno 8008 bound_to 7997
  156.2528  140.1953  156.6710 H   0  0  0  0  0  0  0  0  0  0  0  0  # atno 8009 bound_to 7997
  154.6375  140.0574  156.9793 H   0  0  0  0  0  0  0  0  0  0  0  0  # atno 8010 bound_to 7997
  140.1202  144.4738  150.6925 H   0  0  0  0  0  0  0  0  0  0  0  0  # atno 10167 bound_to 10162
  156.0202  130.5383  150.6994 H   0  0  0  0  0  0  0  0  0  0  0  0  # atno 10718 bound_to 10713
  153.7538  135.6924  153.4940 H   0  0  0  0  0  0  0  0  0  0  0  0  # atno 10763 bound_to 10752
  153.1985  135.4445  155.0236 H   0  0  0  0  0  0  0  0  0  0  0  0  # atno 10764 bound_to 10752
  154.8177  135.3407  154.7058 H   0  0  0  0  0  0  0  0  0  0  0  0  # atno 10765 bound_to 10752
  141.1666  133.7089  156.8064 H   0  0  0  0  0  0  0  0  0  0  0  0  # atno 11005 bound_to 11000
  146.1203  140.7317  142.9460 LP  0  0  0  0  0  0  0  0  0  0  0  0  # atno 17320 bound_to 7965
  144.7122  140.4082  143.7071 LP  0  0  0  0  0  0  0  0  0  0  0  0  # atno 17321 bound_to 7965
  140.6876  143.2358  151.5218 LP  0  0  0  0  0  0  0  0  0  0  0  0  # atno 17342 bound_to 10162
  139.5572  144.2245  152.1633 LP  0  0  0  0  0  0  0  0  0  0  0  0  # atno 17343 bound_to 10162
  157.4657  131.0888  151.0697 LP  0  0  0  0  0  0  0  0  0  0  0  0  # atno 17370 bound_to 10713
  157.1172  130.6046  149.5496 LP  0  0  0  0  0  0  0  0  0  0  0  0  # atno 17371 bound_to 10713
  140.2219  134.8750  157.3386 LP  0  0  0  0  0  0  0  0  0  0  0  0  # atno 17394 bound_to 11000
  140.1979  134.4291  155.7679 LP  0  0  0  0  0  0  0  0  0  0  0  0  # atno 17395 bound_to 11000

$$$$
