AV-unprocessed.smi:1815|AV-procd|sdf|7362|dock1
  -GOLD-   22720 9 23D 1   1.00000     0.00000
 Structure written by MMmdl.
 39 40  0  0  0  0  0  0  0  0  3 V2000
  148.7037  141.3377  154.3423 C   0  0  0  0  0  0  0  0  0  0  0  0
  149.2080  139.9138  154.0824 C   0  0  2  0  0  0  0  0  0  0  0  0
  148.2673  138.8477  154.6749 C   0  0  0  0  0  0  0  0  0  0  0  0
  148.8251  137.4888  154.4764 N   0  3  2  0  0  0  0  0  0  0  0  0
  147.9175  136.4297  154.9833 C   0  0  0  0  0  0  0  0  0  0  0  0
  147.1759  136.8505  156.2615 C   0  0  0  0  0  0  0  0  0  0  0  0
  147.9893  136.5600  157.4335 N   0  0  0  0  0  0  0  0  0  0  0  0
  147.9555  137.2410  158.5862 C   0  0  0  0  0  0  0  0  0  0  0  0
  147.1921  138.2014  158.7097 O   0  0  0  0  0  0  0  0  0  0  0  0
  148.8081  136.7646  159.5209 N   0  5  0  0  0  0  0  0  0  0  0  0
  148.3316  136.1881  160.6363 C   0  0  0  0  0  0  0  0  0  0  0  0
  148.0070  136.8832  161.7323 N   0  0  0  0  0  0  0  0  0  0  0  0
  147.5212  136.0872  162.7714 C   0  0  0  0  0  0  0  0  0  0  0  0
  147.4660  134.7555  162.4556 C   0  0  0  0  0  0  0  0  0  0  0  0
  148.0286  134.4595  160.8352 S   0  0  0  0  0  0  0  0  0  0  0  0
  150.2000  137.4109  155.0288 C   0  0  0  0  0  0  0  0  0  0  0  0
  151.0879  138.5151  154.4241 C   0  0  2  0  0  0  0  0  0  0  0  0
  152.4975  138.5173  155.0263 C   0  0  0  0  0  0  0  0  0  0  0  0
  150.4935  139.7829  154.6792 O   0  0  0  0  0  0  0  0  0  0  0  0
  147.7227  141.4962  153.8939 H   0  0  0  0  0  0  0  0  0  0  0  0
  149.3849  142.0759  153.9179 H   0  0  0  0  0  0  0  0  0  0  0  0
  148.6197  141.5391  155.4107 H   0  0  0  0  0  0  0  0  0  0  0  0
  149.2959  139.7690  153.0042 H   0  0  0  0  0  0  0  0  0  0  0  0
  148.1174  139.0259  155.7414 H   0  0  0  0  0  0  0  0  0  0  0  0
  147.2891  138.9173  154.1972 H   0  0  0  0  0  0  0  0  0  0  0  0
  147.2107  136.1438  154.2026 H   0  0  0  0  0  0  0  0  0  0  0  0
  148.5052  135.5387  155.2102 H   0  0  0  0  0  0  0  0  0  0  0  0
  146.9517  137.9180  156.2367 H   0  0  0  0  0  0  0  0  0  0  0  0
  146.2280  136.3197  156.3529 H   0  0  0  0  0  0  0  0  0  0  0  0
  148.6284  135.7808  157.3732 H   0  0  0  0  0  0  0  0  0  0  0  0
  147.2353  136.5541  163.7021 H   0  0  0  0  0  0  0  0  0  0  0  0
  147.1301  133.9355  163.0723 H   0  0  0  0  0  0  0  0  0  0  0  0
  150.1623  137.5095  156.1150 H   0  0  0  0  0  0  0  0  0  0  0  0
  150.6424  136.4393  154.8119 H   0  0  0  0  0  0  0  0  0  0  0  0
  151.1731  138.3690  153.3459 H   0  0  0  0  0  0  0  0  0  0  0  0
  153.0005  137.5658  154.8517 H   0  0  0  0  0  0  0  0  0  0  0  0
  152.4672  138.6875  156.1028 H   0  0  0  0  0  0  0  0  0  0  0  0
  153.1097  139.3025  154.5822 H   0  0  0  0  0  0  0  0  0  0  0  0
  148.8968  137.3523  153.4781 H   0  0  0  0  0  0  0  0  0  0  0  0
  1  2  1  0  0  0  0
  1 20  1  0  0  0  0
  1 21  1  0  0  0  0
  1 22  1  0  0  0  0
  2 19  1  0  0  0  0
  2  3  1  0  0  0  0
  2 23  1  0  0  0  0
  3  4  1  0  0  0  0
  3 24  1  0  0  0  0
  3 25  1  0  0  0  0
  4  5  1  0  0  0  0
  4 16  1  0  0  0  0
  4 39  1  0  0  0  0
  5  6  1  0  0  0  0
  5 26  1  0  0  0  0
  5 27  1  0  0  0  0
  6  7  1  0  0  0  0
  6 28  1  0  0  0  0
  6 29  1  0  0  0  0
  7  8  1  0  0  0  0
  7 30  1  0  0  0  0
  8  9  2  0  0  0  0
  8 10  1  0  0  0  0
 10 11  1  0  0  0  0
 11 15  1  0  0  0  0
 11 12  2  0  0  0  0
 12 13  1  0  0  0  0
 13 14  2  0  0  0  0
 13 31  1  0  0  0  0
 14 15  1  0  0  0  0
 14 32  1  0  0  0  0
 16 17  1  0  0  0  0
 16 33  1  0  0  0  0
 16 34  1  0  0  0  0
 17 18  1  0  0  0  0
 17 19  1  0  0  0  0
 17 35  1  0  0  0  0
 18 36  1  0  0  0  0
 18 37  1  0  0  0  0
 18 38  1  0  0  0  0
M  CHG  1   4   1
M  CHG  1  10  -1
M  END
> <s_m_source_file>
AV-unprocessed.smi

> <i_m_source_file_index>
1815

> <i_lp_mmshare_version>
43012

> <i_f3d_flags>
0

> <s_epik_input>
W0NIM11bQ0BASF0xW0NIMl1OKFtDSDJdW0NASF0oTzEpW0NIM10pW0NIMl1bQ0gyXVtOSF1DKD1PKVtOSF1jMm5bY0hdW2NIXXMy

> <s_epik_cmdline>
J2VwaWtfcHl0aG9uJywgJy1waCcsICc3LjAnLCAnLXRuJywgJzgnLCAnLW1hJywgJzIwMCcsICctbWV0YWxfYmluZGluZycsICctaW1hZScsICc8aW5maWxlLm1hZT4nLCAnLW9tYWUnLCAnPG91dGZpbGUubWFlPic=

> <r_lp_tautomer_probability>
0.999

> <r_epik_Ionization_Penalty>
6.71699

> <r_epik_Ionization_Penalty_Charging>
5.88592

> <r_epik_Ionization_Penalty_Neutral>
0.831074

> <r_epik_State_Penalty>
6.08365

> <r_epik_Charging_Adjusted_Penalty>
11.9696

> <i_epik_Tot_Q>
0

> <i_epik_Tot_abs_Q>
2

> <r_epik_Metal_State_Penalty>
2.0947

> <b_epik_Metal_Only>
1

> <s_lp_Force_Field>
OPLS_2005

> <r_lp_Energy>
4.96906

> <b_lp_Chiralities_Consistent>
1

> <s_lp_Variant>
AV-unprocessed.smi:1815-13

> <Gold.Version>
5.8.1

> <Gold.Id.Protein>
6NUR|6NUR_protein|mol2

> <Gold.PLP.Fitness>
42.8823

> <Gold.PLP.PLP>
-32.6225

> <Gold.PLP.part.hbond>
-5.0000

> <Gold.PLP.part.metal>
0.0000

> <Gold.PLP.part.buried>
-1.5682

> <Gold.PLP.part.nonpolar>
-25.7915

> <Gold.PLP.part.repulsive>
0.0881

> <Gold.PLP.ligand.clash>
0.0000

> <Gold.PLP.ligand.torsion>
2.0373

> <Gold.PLP.Chemscore.Hbond>
4.6978

> <Gold.PLP.Chemscore.CHOScore>
0.0000

> <Gold.PLP.Chemscore.Metal>
0.0000

> <Gold.Chemscore.Hbonds>
donor molecule, donor type, donor heavy atom, donor atom, acceptor molecule, acceptor atom, score
      L1  H     4    39       P1  7948  2.00
      P1  H  6931  6943       L1    12  1.00
      P1  H  6934  6947       L1     9  0.10
      P1  H  7989  7998       L1    19  0.90

> <Gold.PLP.Chemscore.Internal.Correction>
0.2410

> <Gold.Rescore>
     Score         DG    S(hbond)    S(metal)    S(lipo)     H(rot)  DE(clash)    DE(int)     intcor
     15.09     -18.56       2.69        0.00      70.21       1.61       1.47       1.99       ----

> <Gold.Chemscore.Fitness>
15.0937

> <Gold.Chemscore.DG>
-18.5560

> <Gold.Chemscore.ZeroCoef>
-5.4800

> <Gold.Chemscore.Hbond>
2.6865

> <Gold.Chemscore.Metal>
0.0000

> <Gold.Chemscore.Lipo>
70.2090

> <Gold.Chemscore.Internal_Hbond>
0.0000

> <Gold.Chemscore.DEClash>
1.4722

> <Gold.Chemscore.DEInternal>
1.9900

> <Gold.Chemscore.Rot>
1.6060

> <Gold.Chemscore.Internal.Correction>
   9.000000E+99

> <Gold.Chemscore.Hbonds>
donor molecule, donor type, donor heavy atom, donor atom, acceptor molecule, acceptor atom, score
      L1  H     4    39       P1  7948  0.97
      P1  H  6931  6943       L1    12  0.78
      P1  H  6934  6947       L1     9  0.08
      P1  H  7989  7998       L1    19  0.06

> <Gold.Chemscore.Hbond.Weighted>
-8.9728

> <Gold.Chemscore.Metal.Weighted>
-0.0000

> <Gold.Chemscore.Lipo.Weighted>
-8.2145

> <Gold.Chemscore.Internal_Hbond.Weighted>
0.0000

> <Gold.Chemscore.DEClash.Weighted>
1.4722

> <Gold.Chemscore.DEInternal.Weighted>
1.9900

> <Gold.Chemscore.Rot.Weighted>
4.1112

> <Gold.Chemscore.Internal.Correction.Weighted>
   9.000000E+99

> <Gold.Protein.RotatedTorsions>
[ 6907 6896 6895 6894 ] final   45.22 input  -60.11 | X-H torsion
[ 7974 7965 7964 7962 ] final -133.06 input  175.53 | X-H torsion
[ 8008 7997 7996 7995 ] final  -60.70 input   59.86 | X-H torsion
[ 10167 10162 10161 10158 ] final   64.41 input  -65.29 | X-H torsion
[ 10718 10713 10712 10709 ] final   -3.24 input   66.30 | X-H torsion
[ 10763 10752 10751 10750 ] final   65.61 input  -60.55 | X-H torsion
[ 11005 11000 10999 10996 ] final  -77.08 input  -57.11 | X-H torsion

> <Gold.Protein.ActiveResidues>
 VAL166  LYS551  ARG553  GLY616  TRP617  ASP618  TYR619  PRO620  LYS621  CYS622 
 ASP623  PHE694  ASN695  SER759  ASP760  ASP761  ALA762  ILE779  LEU786  VAL792 
 PHE793  MET794  SER795  GLU796  ALA797  LYS798  CYS799  TRP800  GLU811  SER814 

> <Gold.Protein.RotatedAtoms>
  152.2419  134.8220  160.0458 H   0  0  0  0  0  0  0  0  0  0  0  0  # atno 6907 bound_to 6896
  151.8931  133.3515  159.3813 H   0  0  0  0  0  0  0  0  0  0  0  0  # atno 6908 bound_to 6896
  150.7056  134.4829  159.5523 H   0  0  0  0  0  0  0  0  0  0  0  0  # atno 6909 bound_to 6896
  144.9228  140.7035  143.4954 H   0  0  0  0  0  0  0  0  0  0  0  0  # atno 7974 bound_to 7965
  154.4411  140.1034  156.6314 H   0  0  0  0  0  0  0  0  0  0  0  0  # atno 8008 bound_to 7997
  155.5600  140.3487  155.4470 H   0  0  0  0  0  0  0  0  0  0  0  0  # atno 8009 bound_to 7997
  156.0466  140.1294  157.0086 H   0  0  0  0  0  0  0  0  0  0  0  0  # atno 8010 bound_to 7997
  140.1225  144.4718  150.6912 H   0  0  0  0  0  0  0  0  0  0  0  0  # atno 10167 bound_to 10162
  156.7790  130.5324  149.5754 H   0  0  0  0  0  0  0  0  0  0  0  0  # atno 10718 bound_to 10713
  153.0104  135.5350  154.6694 H   0  0  0  0  0  0  0  0  0  0  0  0  # atno 10763 bound_to 10752
  154.5883  135.2856  155.0664 H   0  0  0  0  0  0  0  0  0  0  0  0  # atno 10764 bound_to 10752
  154.1767  135.6523  153.5076 H   0  0  0  0  0  0  0  0  0  0  0  0  # atno 10765 bound_to 10752
  141.1658  133.7008  156.7766 H   0  0  0  0  0  0  0  0  0  0  0  0  # atno 11005 bound_to 11000
  145.3268  139.1771  143.4558 LP  0  0  0  0  0  0  0  0  0  0  0  0  # atno 17320 bound_to 7965
  146.3212  140.3293  142.8639 LP  0  0  0  0  0  0  0  0  0  0  0  0  # atno 17321 bound_to 7965
  140.6864  143.2352  151.5250 LP  0  0  0  0  0  0  0  0  0  0  0  0  # atno 17342 bound_to 10162
  139.5561  144.2272  152.1614 LP  0  0  0  0  0  0  0  0  0  0  0  0  # atno 17343 bound_to 10162
  156.1230  130.6123  151.0222 LP  0  0  0  0  0  0  0  0  0  0  0  0  # atno 17370 bound_to 10713
  157.6655  131.0872  150.7737 LP  0  0  0  0  0  0  0  0  0  0  0  0  # atno 17371 bound_to 10713
  140.2425  134.8603  157.3587 LP  0  0  0  0  0  0  0  0  0  0  0  0  # atno 17394 bound_to 11000
  140.1782  134.4523  155.7788 LP  0  0  0  0  0  0  0  0  0  0  0  0  # atno 17395 bound_to 11000

$$$$
