AV-unprocessed.smi:2492|AV-procd|sdf|9816|dock8
  -GOLD-   2272013443D 1   1.00000     0.00000
 Structure written by MMmdl.
 32 33  0  0  0  0  0  0  0  0  2 V2000
  149.7555  144.6878  160.1300 C   0  0  0  0  0  0  0  0  0  0  0  0
  151.3298  145.5843  160.0914 S   0  0  0  0  0  0  0  0  0  0  0  0
  152.4970  144.1932  160.1417 C   0  0  1  0  0  0  0  0  0  0  0  0
  152.3261  143.3044  161.3724 C   0  0  0  0  0  0  0  0  0  0  0  0
  153.0091  141.9932  160.9817 C   0  0  0  0  0  0  0  0  0  0  0  0
  152.8356  141.8603  159.4575 C   0  0  1  0  0  0  0  0  0  0  0  0
  151.9083  140.7769  159.1385 N   0  0  0  0  0  0  0  0  0  0  0  0
  152.1872  139.7011  158.3880 C   0  0  0  0  0  0  0  0  0  0  0  0
  153.3125  139.5663  157.9014 O   0  0  0  0  0  0  0  0  0  0  0  0
  151.1448  138.8514  158.2455 N   0  5  0  0  0  0  0  0  0  0  0  0
  151.2839  137.7358  157.5103 C   0  0  0  0  0  0  0  0  0  0  0  0
  150.2993  137.0595  156.9169 N   0  0  0  0  0  0  0  0  0  0  0  0
  150.9795  136.0495  156.3115 C   0  0  0  0  0  0  0  0  0  0  0  0
  150.3094  134.9950  155.4991 C   0  0  0  0  0  0  0  0  0  0  0  0
  152.2936  136.0576  156.4772 N   0  0  0  0  0  0  0  0  0  0  0  0
  152.5056  137.1892  157.2767 O   0  0  0  0  0  0  0  0  0  0  0  0
  152.3138  143.2275  158.9677 C   0  0  0  0  0  0  0  0  0  0  0  0
  148.9242  145.3921  160.1540 H   0  0  0  0  0  0  0  0  0  0  0  0
  149.6981  144.0553  161.0158 H   0  0  0  0  0  0  0  0  0  0  0  0
  149.6485  144.0607  159.2450 H   0  0  0  0  0  0  0  0  0  0  0  0
  153.5149  144.5851  160.1191 H   0  0  0  0  0  0  0  0  0  0  0  0
  152.7544  143.7420  162.2742 H   0  0  0  0  0  0  0  0  0  0  0  0
  151.2665  143.1227  161.5583 H   0  0  0  0  0  0  0  0  0  0  0  0
  154.0724  142.0588  161.2167 H   0  0  0  0  0  0  0  0  0  0  0  0
  152.6108  141.1443  161.5392 H   0  0  0  0  0  0  0  0  0  0  0  0
  153.8087  141.6460  159.0114 H   0  0  0  0  0  0  0  0  0  0  0  0
  150.9753  140.8486  159.5169 H   0  0  0  0  0  0  0  0  0  0  0  0
  150.2994  135.2820  154.4476 H   0  0  0  0  0  0  0  0  0  0  0  0
  149.2803  134.8538  155.8304 H   0  0  0  0  0  0  0  0  0  0  0  0
  150.8343  134.0442  155.5952 H   0  0  0  0  0  0  0  0  0  0  0  0
  151.2541  143.1587  158.7159 H   0  0  0  0  0  0  0  0  0  0  0  0
  152.8342  143.5677  158.0718 H   0  0  0  0  0  0  0  0  0  0  0  0
  1  2  1  0  0  0  0
  1 18  1  0  0  0  0
  1 19  1  0  0  0  0
  1 20  1  0  0  0  0
  2  3  1  0  0  0  0
  3 17  1  0  0  0  0
  3  4  1  0  0  0  0
  3 21  1  0  0  0  0
  4  5  1  0  0  0  0
  4 22  1  0  0  0  0
  4 23  1  0  0  0  0
  5  6  1  0  0  0  0
  5 24  1  0  0  0  0
  5 25  1  0  0  0  0
  6  7  1  0  0  0  0
  6 17  1  0  0  0  0
  6 26  1  0  0  0  0
  7  8  1  0  0  0  0
  7 27  1  0  0  0  0
  8  9  2  0  0  0  0
  8 10  1  0  0  0  0
 10 11  1  0  0  0  0
 11 16  1  0  0  0  0
 11 12  2  0  0  0  0
 12 13  1  0  0  0  0
 13 14  1  0  0  0  0
 13 15  2  0  0  0  0
 14 28  1  0  0  0  0
 14 29  1  0  0  0  0
 14 30  1  0  0  0  0
 15 16  1  0  0  0  0
 17 31  1  0  0  0  0
 17 32  1  0  0  0  0
M  CHG  1  10  -1
M  END
> <s_m_source_file>
AV-unprocessed.smi

> <i_m_source_file_index>
2492

> <i_lp_mmshare_version>
43012

> <i_f3d_flags>
0

> <s_epik_input>
W0NIM11TW0NAQEhdMVtDSDJdW0NIMl1bQ0BIXShbQ0gyXTEpW05IXUMoPU8pW05IXWMybmMoW0NIM10pbm8y

> <s_epik_cmdline>
J2VwaWtfcHl0aG9uJywgJy1waCcsICc3LjAnLCAnLXRuJywgJzgnLCAnLW1hJywgJzIwMCcsICctbWV0YWxfYmluZGluZycsICctaW1hZScsICc8aW5maWxlLm1hZT4nLCAnLW9tYWUnLCAnPG91dGZpbGUubWFlPic=

> <r_lp_tautomer_probability>
1

> <r_epik_Ionization_Penalty>
6.26454

> <r_epik_Ionization_Penalty_Charging>
6.26445

> <r_epik_Ionization_Penalty_Neutral>
9.05726e-05

> <r_epik_State_Penalty>
6.26444

> <r_epik_Charging_Adjusted_Penalty>
12.5289

> <i_epik_Tot_Q>
-1

> <i_epik_Tot_abs_Q>
1

> <r_epik_Metal_State_Penalty>
2.20125

> <b_epik_Metal_Only>
1

> <s_lp_Force_Field>
OPLS_2005

> <r_lp_Energy>
11.8534

> <b_lp_Chiralities_Consistent>
1

> <s_lp_Variant>
AV-unprocessed.smi:2492-6

> <Gold.Version>
5.8.1

> <Gold.Id.Protein>
6NUR|6NUR_protein|mol2

> <Gold.PLP.Fitness>
38.6529

> <Gold.PLP.PLP>
-32.8827

> <Gold.PLP.part.hbond>
-2.0000

> <Gold.PLP.part.metal>
0.0000

> <Gold.PLP.part.buried>
-5.1455

> <Gold.PLP.part.nonpolar>
-26.0486

> <Gold.PLP.part.repulsive>
0.1511

> <Gold.PLP.ligand.clash>
0.0000

> <Gold.PLP.ligand.torsion>
0.1179

> <Gold.PLP.Chemscore.Hbond>
2.0000

> <Gold.PLP.Chemscore.CHOScore>
0.0000

> <Gold.PLP.Chemscore.Metal>
0.0000

> <Gold.Chemscore.Hbonds>
donor molecule, donor type, donor heavy atom, donor atom, acceptor molecule, acceptor atom, score
      P1  H  7997  8008       L1     9  1.00
      P1  H 10752 10764       L1    15  1.00

> <Gold.PLP.Chemscore.Internal.Correction>
0.0061

> <Gold.Rescore>
     Score         DG    S(hbond)    S(metal)    S(lipo)     H(rot)  DE(clash)    DE(int)     intcor
     16.70     -18.49       1.98        0.00      82.52       1.27       0.01       1.78       ----

> <Gold.Chemscore.Fitness>
16.6981

> <Gold.Chemscore.DG>
-18.4915

> <Gold.Chemscore.ZeroCoef>
-5.4800

> <Gold.Chemscore.Hbond>
1.9792

> <Gold.Chemscore.Metal>
0.0000

> <Gold.Chemscore.Lipo>
82.5228

> <Gold.Chemscore.Internal_Hbond>
0.0000

> <Gold.Chemscore.DEClash>
0.0149

> <Gold.Chemscore.DEInternal>
1.7786

> <Gold.Chemscore.Rot>
1.2712

> <Gold.Chemscore.Internal.Correction>
   9.000000E+99

> <Gold.Chemscore.Hbonds>
donor molecule, donor type, donor heavy atom, donor atom, acceptor molecule, acceptor atom, score
      P1  H  7997  8008       L1     9  0.99
      P1  H 10752 10764       L1    15  0.99

> <Gold.Chemscore.Hbond.Weighted>
-6.6105

> <Gold.Chemscore.Metal.Weighted>
-0.0000

> <Gold.Chemscore.Lipo.Weighted>
-9.6552

> <Gold.Chemscore.Internal_Hbond.Weighted>
0.0000

> <Gold.Chemscore.DEClash.Weighted>
0.0149

> <Gold.Chemscore.DEInternal.Weighted>
1.7786

> <Gold.Chemscore.Rot.Weighted>
3.2542

> <Gold.Chemscore.Internal.Correction.Weighted>
   9.000000E+99

> <Gold.Protein.RotatedTorsions>
[ 6907 6896 6895 6894 ] final  156.91 input  -60.11 | X-H torsion
[ 7974 7965 7964 7962 ] final  113.06 input  175.53 | X-H torsion
[ 8008 7997 7996 7995 ] final  -73.90 input   59.86 | X-H torsion
[ 10167 10162 10161 10158 ] final   98.96 input  -65.29 | X-H torsion
[ 10718 10713 10712 10709 ] final   13.76 input   66.30 | X-H torsion
[ 10763 10752 10751 10750 ] final   -9.09 input  -60.55 | X-H torsion
[ 11005 11000 10999 10996 ] final   11.28 input  -57.11 | X-H torsion

> <Gold.Protein.ActiveResidues>
 VAL166  LYS551  ARG553  GLY616  TRP617  ASP618  TYR619  PRO620  LYS621  CYS622 
 ASP623  PHE694  ASN695  SER759  ASP760  ASP761  ALA762  ILE779  LEU786  VAL792 
 PHE793  MET794  SER795  GLU796  ALA797  LYS798  CYS799  TRP800  GLU811  SER814 

> <Gold.Protein.RotatedAtoms>
  152.0228  133.3905  159.4264 H   0  0  0  0  0  0  0  0  0  0  0  0  # atno 6907 bound_to 6896
  150.6889  134.3607  159.4958 H   0  0  0  0  0  0  0  0  0  0  0  0  # atno 6908 bound_to 6896
  152.1383  134.9081  160.0606 H   0  0  0  0  0  0  0  0  0  0  0  0  # atno 6909 bound_to 6896
  145.2217  139.2859  143.4215 H   0  0  0  0  0  0  0  0  0  0  0  0  # atno 7974 bound_to 7965
  154.5286  140.0771  156.8303 H   0  0  0  0  0  0  0  0  0  0  0  0  # atno 8008 bound_to 7997
  155.3423  140.3408  155.4221 H   0  0  0  0  0  0  0  0  0  0  0  0  # atno 8009 bound_to 7997
  156.1757  140.1635  156.8353 H   0  0  0  0  0  0  0  0  0  0  0  0  # atno 8010 bound_to 7997
  139.7661  144.6938  151.0222 H   0  0  0  0  0  0  0  0  0  0  0  0  # atno 10167 bound_to 10162
  157.0293  130.6186  149.5733 H   0  0  0  0  0  0  0  0  0  0  0  0  # atno 10718 bound_to 10713
  153.4498  135.7015  153.6116 H   0  0  0  0  0  0  0  0  0  0  0  0  # atno 10763 bound_to 10752
  153.4455  135.3770  155.2253 H   0  0  0  0  0  0  0  0  0  0  0  0  # atno 10764 bound_to 10752
  154.8728  135.3984  154.3909 H   0  0  0  0  0  0  0  0  0  0  0  0  # atno 10765 bound_to 10752
  140.5050  134.0708  155.7803 H   0  0  0  0  0  0  0  0  0  0  0  0  # atno 11005 bound_to 11000
  146.3374  140.2525  142.8599 LP  0  0  0  0  0  0  0  0  0  0  0  0  # atno 17320 bound_to 7965
  144.9759  140.8413  143.5426 LP  0  0  0  0  0  0  0  0  0  0  0  0  # atno 17321 bound_to 7965
  140.7811  143.4641  151.0237 LP  0  0  0  0  0  0  0  0  0  0  0  0  # atno 17342 bound_to 10162
  139.8326  143.7671  152.3180 LP  0  0  0  0  0  0  0  0  0  0  0  0  # atno 17343 bound_to 10162
  156.0075  130.5163  150.7879 LP  0  0  0  0  0  0  0  0  0  0  0  0  # atno 17370 bound_to 10713
  157.5190  131.0930  151.0103 LP  0  0  0  0  0  0  0  0  0  0  0  0  # atno 17371 bound_to 10713
  141.1416  133.9129  157.2313 LP  0  0  0  0  0  0  0  0  0  0  0  0  # atno 17394 bound_to 11000
  139.9691  135.0133  156.9466 LP  0  0  0  0  0  0  0  0  0  0  0  0  # atno 17395 bound_to 11000

$$$$
