AV-unprocessed.smi:2923|AV-procd|sdf|11213|dock8
  -GOLD-   2272016103D 1   1.00000     0.00000
 Structure written by MMmdl.
 46 48  0  0  0  0  0  0  0  0  1 V2000
  148.4717  129.2360  153.9596 C   0  0  0  0  0  0  0  0  0  0  0  0
  149.5266  129.8911  154.7170 N   0  0  0  0  0  0  0  0  0  0  0  0
  150.8713  129.3673  154.5322 C   0  0  0  0  0  0  0  0  0  0  0  0
  149.4643  131.2885  154.6361 C   0  0  0  0  0  0  0  0  0  0  0  0
  148.7992  131.9342  153.5691 C   0  0  0  0  0  0  0  0  0  0  0  0
  148.7666  133.3414  153.5423 C   0  0  0  0  0  0  0  0  0  0  0  0
  149.3942  134.0597  154.5878 C   0  0  0  0  0  0  0  0  0  0  0  0
  149.4468  135.4774  154.6680 N   0  0  0  0  0  0  0  0  0  0  0  0
  149.5900  136.2511  155.7574 C   0  0  0  0  0  0  0  0  0  0  0  0
  149.7069  135.8425  156.9124 O   0  0  0  0  0  0  0  0  0  0  0  0
  149.6077  137.5481  155.4249 N   0  0  0  0  0  0  0  0  0  0  0  0
  149.7534  138.6621  156.3642 C   0  0  1  0  0  0  0  0  0  0  0  0
  151.2297  139.0018  156.6697 C   0  0  1  0  0  0  0  0  0  0  0  0
  152.3781  138.1094  156.2659 C   0  0  0  0  0  0  0  0  0  0  0  0
  152.8572  138.7454  154.9576 C   0  0  0  0  0  0  0  0  0  0  0  0
  151.7457  139.5102  154.4953 O   0  0  0  0  0  0  0  0  0  0  0  0
  151.1254  140.1076  155.6319 C   0  0  1  0  0  0  0  0  0  0  0  0
  149.5841  140.0472  155.6863 C   0  0  0  0  0  0  0  0  0  0  0  0
  148.8497  140.1270  154.3409 C   0  0  0  0  0  0  0  0  0  0  0  0
  148.9485  141.1111  156.5863 C   0  0  0  0  0  0  0  0  0  0  0  0
  150.0415  133.3172  155.5972 C   0  0  0  0  0  0  0  0  0  0  0  0
  150.0747  131.9683  155.6303 N   0  0  0  0  0  0  0  0  0  0  0  0
  147.5028  129.6914  154.1684 H   0  0  0  0  0  0  0  0  0  0  0  0
  148.4130  128.1818  154.2312 H   0  0  0  0  0  0  0  0  0  0  0  0
  148.6614  129.3031  152.8878 H   0  0  0  0  0  0  0  0  0  0  0  0
  151.5868  129.9109  155.1506 H   0  0  0  0  0  0  0  0  0  0  0  0
  151.1842  129.4462  153.4904 H   0  0  0  0  0  0  0  0  0  0  0  0
  150.9078  128.3167  154.8207 H   0  0  0  0  0  0  0  0  0  0  0  0
  148.3243  131.3658  152.7828 H   0  0  0  0  0  0  0  0  0  0  0  0
  148.2756  133.8351  152.7185 H   0  0  0  0  0  0  0  0  0  0  0  0
  149.4340  135.9600  153.7813 H   0  0  0  0  0  0  0  0  0  0  0  0
  149.5090  137.7914  154.4499 H   0  0  0  0  0  0  0  0  0  0  0  0
  149.1589  138.5629  157.2742 H   0  0  0  0  0  0  0  0  0  0  0  0
  151.3310  139.4175  157.6736 H   0  0  0  0  0  0  0  0  0  0  0  0
  153.1737  138.0990  157.0114 H   0  0  0  0  0  0  0  0  0  0  0  0
  152.0634  137.0770  156.1138 H   0  0  0  0  0  0  0  0  0  0  0  0
  153.6961  139.4176  155.1439 H   0  0  0  0  0  0  0  0  0  0  0  0
  153.1696  138.0063  154.2198 H   0  0  0  0  0  0  0  0  0  0  0  0
  151.5837  141.0498  155.9360 H   0  0  0  0  0  0  0  0  0  0  0  0
  148.8791  141.1361  153.9289 H   0  0  0  0  0  0  0  0  0  0  0  0
  147.8017  139.8433  154.4421 H   0  0  0  0  0  0  0  0  0  0  0  0
  149.2902  139.4710  153.5898 H   0  0  0  0  0  0  0  0  0  0  0  0
  149.0703  142.1120  156.1712 H   0  0  0  0  0  0  0  0  0  0  0  0
  149.3978  141.1196  157.5798 H   0  0  0  0  0  0  0  0  0  0  0  0
  147.8802  140.9363  156.7185 H   0  0  0  0  0  0  0  0  0  0  0  0
  150.5460  133.8202  156.4093 H   0  0  0  0  0  0  0  0  0  0  0  0
  1  2  1  0  0  0  0
  1 23  1  0  0  0  0
  1 24  1  0  0  0  0
  1 25  1  0  0  0  0
  2  3  1  0  0  0  0
  2  4  1  0  0  0  0
  3 26  1  0  0  0  0
  3 27  1  0  0  0  0
  3 28  1  0  0  0  0
  4 22  1  0  0  0  0
  4  5  2  0  0  0  0
  5  6  1  0  0  0  0
  5 29  1  0  0  0  0
  6  7  2  0  0  0  0
  6 30  1  0  0  0  0
  7  8  1  0  0  0  0
  7 21  1  0  0  0  0
  8  9  1  0  0  0  0
  8 31  1  0  0  0  0
  9 10  2  0  0  0  0
  9 11  1  0  0  0  0
 11 12  1  0  0  0  0
 11 32  1  0  0  0  0
 12 18  1  0  0  0  0
 12 13  1  0  0  0  0
 12 33  1  0  0  0  0
 13 17  1  0  0  0  0
 13 14  1  0  0  0  0
 13 34  1  0  0  0  0
 14 15  1  0  0  0  0
 14 35  1  0  0  0  0
 14 36  1  0  0  0  0
 15 16  1  0  0  0  0
 15 37  1  0  0  0  0
 15 38  1  0  0  0  0
 16 17  1  0  0  0  0
 17 18  1  0  0  0  0
 17 39  1  0  0  0  0
 18 19  1  0  0  0  0
 18 20  1  0  0  0  0
 19 40  1  0  0  0  0
 19 41  1  0  0  0  0
 19 42  1  0  0  0  0
 20 43  1  0  0  0  0
 20 44  1  0  0  0  0
 20 45  1  0  0  0  0
 21 22  2  0  0  0  0
 21 46  1  0  0  0  0
M  END
> <s_m_source_file>
AV-unprocessed.smi

> <i_m_source_file_index>
2923

> <i_lp_mmshare_version>
43012

> <i_f3d_flags>
0

> <s_epik_input>
W0NIM11OKFtDSDNdKWMxW2NIXVtjSF1jKFtjSF1uMSlbTkhdQyg9TylbTkhdW0NASF0yQyhbQ0gzXSkoW0NIM10pW0NAQEhdKFtDQEhdMjMpT1tDSDJdW0NIMl0z

> <s_epik_cmdline>
J2VwaWtfcHl0aG9uJywgJy1waCcsICc3LjAnLCAnLXRuJywgJzgnLCAnLW1hJywgJzIwMCcsICctbWV0YWxfYmluZGluZycsICctaW1hZScsICc8aW5maWxlLm1hZT4nLCAnLW9tYWUnLCAnPG91dGZpbGUubWFlPic=

> <r_lp_tautomer_probability>
1

> <r_epik_Ionization_Penalty>
0.628785

> <r_epik_Ionization_Penalty_Charging>
0

> <r_epik_Ionization_Penalty_Neutral>
0.628785

> <r_epik_State_Penalty>
0.644286

> <r_epik_Charging_Adjusted_Penalty>
0.644286

> <i_epik_Tot_Q>
0

> <i_epik_Tot_abs_Q>
0

> <r_epik_Metal_State_Penalty>
0.308404

> <b_epik_Metal_Only>
0

> <s_lp_Force_Field>
OPLS_2005

> <r_lp_Energy>
44.9089

> <b_lp_Chiralities_Consistent>
1

> <s_lp_Variant>
AV-unprocessed.smi:2923-12

> <Gold.Version>
5.8.1

> <Gold.Id.Protein>
6NUR|6NUR_protein|mol2

> <Gold.PLP.Fitness>
37.4832

> <Gold.PLP.PLP>
-32.6518

> <Gold.PLP.part.hbond>
-1.9724

> <Gold.PLP.part.metal>
0.0000

> <Gold.PLP.part.buried>
-2.8676

> <Gold.PLP.part.nonpolar>
-27.7173

> <Gold.PLP.part.repulsive>
0.2020

> <Gold.PLP.ligand.clash>
0.1504

> <Gold.PLP.ligand.torsion>
0.7071

> <Gold.PLP.Chemscore.Hbond>
2.0000

> <Gold.PLP.Chemscore.CHOScore>
0.0000

> <Gold.PLP.Chemscore.Metal>
0.0000

> <Gold.Chemscore.Hbonds>
donor molecule, donor type, donor heavy atom, donor atom, acceptor molecule, acceptor atom, score
      L1  H     8    31       P1  7948  1.00
      P1  H  7989  7998       L1    16  0.85

> <Gold.PLP.Chemscore.Internal.Correction>
0.3960

> <Gold.Rescore>
     Score         DG    S(hbond)    S(metal)    S(lipo)     H(rot)  DE(clash)    DE(int)     intcor
     14.44     -16.25       1.75        0.00      68.31       1.19       0.02       1.79       ----

> <Gold.Chemscore.Fitness>
14.4410

> <Gold.Chemscore.DG>
-16.2500

> <Gold.Chemscore.ZeroCoef>
-5.4800

> <Gold.Chemscore.Hbond>
1.7466

> <Gold.Chemscore.Metal>
0.0000

> <Gold.Chemscore.Lipo>
68.3102

> <Gold.Chemscore.Internal_Hbond>
0.0000

> <Gold.Chemscore.DEClash>
0.0224

> <Gold.Chemscore.DEInternal>
1.7866

> <Gold.Chemscore.Rot>
1.1937

> <Gold.Chemscore.Internal.Correction>
   9.000000E+99

> <Gold.Chemscore.Hbonds>
donor molecule, donor type, donor heavy atom, donor atom, acceptor molecule, acceptor atom, score
      L1  H     8    31       P1  7948  0.58
      P1  H  7989  7998       L1    16  0.14

> <Gold.Chemscore.Hbond.Weighted>
-5.8336

> <Gold.Chemscore.Metal.Weighted>
-0.0000

> <Gold.Chemscore.Lipo.Weighted>
-7.9923

> <Gold.Chemscore.Internal_Hbond.Weighted>
0.0000

> <Gold.Chemscore.DEClash.Weighted>
0.0224

> <Gold.Chemscore.DEInternal.Weighted>
1.7866

> <Gold.Chemscore.Rot.Weighted>
3.0559

> <Gold.Chemscore.Internal.Correction.Weighted>
   9.000000E+99

> <Gold.Protein.RotatedTorsions>
[ 6907 6896 6895 6894 ] final  170.22 input  -60.11 | X-H torsion
[ 7974 7965 7964 7962 ] final  -28.84 input  175.53 | X-H torsion
[ 8008 7997 7996 7995 ] final -169.91 input   59.86 | X-H torsion
[ 10167 10162 10161 10158 ] final  177.11 input  -65.29 | X-H torsion
[ 10718 10713 10712 10709 ] final -121.14 input   66.30 | X-H torsion
[ 10763 10752 10751 10750 ] final  -34.96 input  -60.55 | X-H torsion
[ 11005 11000 10999 10996 ] final  154.80 input  -57.11 | X-H torsion

> <Gold.Protein.ActiveResidues>
 VAL166  LYS551  ARG553  GLY616  TRP617  ASP618  TYR619  PRO620  LYS621  CYS622 
 ASP623  PHE694  ASN695  SER759  ASP760  ASP761  ALA762  ILE779  LEU786  VAL792 
 PHE793  MET794  SER795  GLU796  ALA797  LYS798  CYS799  TRP800  GLU811  SER814 

> <Gold.Protein.RotatedAtoms>
  151.8196  133.3393  159.3579 H   0  0  0  0  0  0  0  0  0  0  0  0  # atno 6907 bound_to 6896
  150.7299  134.5586  159.5840 H   0  0  0  0  0  0  0  0  0  0  0  0  # atno 6908 bound_to 6896
  152.3016  134.7606  160.0408 H   0  0  0  0  0  0  0  0  0  0  0  0  # atno 6909 bound_to 6896
  146.1259  140.5335  142.8715 H   0  0  0  0  0  0  0  0  0  0  0  0  # atno 7974 bound_to 7965
  155.9113  140.1058  157.1277 H   0  0  0  0  0  0  0  0  0  0  0  0  # atno 8008 bound_to 7997
  154.4040  140.1274  156.4625 H   0  0  0  0  0  0  0  0  0  0  0  0  # atno 8009 bound_to 7997
  155.7307  140.3468  155.5060 H   0  0  0  0  0  0  0  0  0  0  0  0  # atno 8010 bound_to 7997
  139.5240  144.2837  152.0525 H   0  0  0  0  0  0  0  0  0  0  0  0  # atno 10167 bound_to 10162
  156.1314  130.6398  150.9626 H   0  0  0  0  0  0  0  0  0  0  0  0  # atno 10718 bound_to 10713
  153.8554  135.6845  153.4788 H   0  0  0  0  0  0  0  0  0  0  0  0  # atno 10763 bound_to 10752
  153.1373  135.4672  154.9440 H   0  0  0  0  0  0  0  0  0  0  0  0  # atno 10764 bound_to 10752
  154.7783  135.3260  154.7993 H   0  0  0  0  0  0  0  0  0  0  0  0  # atno 10765 bound_to 10752
  140.1522  134.8667  157.2469 H   0  0  0  0  0  0  0  0  0  0  0  0  # atno 11005 bound_to 11000
  144.7642  140.5492  143.6714 LP  0  0  0  0  0  0  0  0  0  0  0  0  # atno 17320 bound_to 7965
  145.5366  139.1475  143.3470 LP  0  0  0  0  0  0  0  0  0  0  0  0  # atno 17321 bound_to 7965
  140.2291  144.4387  150.6308 LP  0  0  0  0  0  0  0  0  0  0  0  0  # atno 17342 bound_to 10162
  140.6367  143.2196  151.6378 LP  0  0  0  0  0  0  0  0  0  0  0  0  # atno 17343 bound_to 10162
  157.6491  131.0899  150.8089 LP  0  0  0  0  0  0  0  0  0  0  0  0  # atno 17370 bound_to 10713
  156.8174  130.4972  149.5347 LP  0  0  0  0  0  0  0  0  0  0  0  0  # atno 17371 bound_to 10713
  140.2590  134.3593  155.7413 LP  0  0  0  0  0  0  0  0  0  0  0  0  # atno 17394 bound_to 11000
  141.2200  133.7359  156.9052 LP  0  0  0  0  0  0  0  0  0  0  0  0  # atno 17395 bound_to 11000

$$$$
