AV-unprocessed.smi:1538|AV-procd|sdf|6194|dock7
  -GOLD-   22720 6363D 1   1.00000     0.00000
 Structure written by MMmdl.
 36 37  0  0  0  0  0  0  0  0  1 V2000
  149.1319  135.6314  155.8097 C   0  0  0  0  0  0  0  0  0  0  0  0
  150.2913  136.5252  155.7942 N   0  0  0  0  0  0  0  0  0  0  0  0
  150.4648  137.2916  154.5540 C   0  0  0  0  0  0  0  0  0  0  0  0
  151.8925  137.8226  154.3694 C   0  0  0  0  0  0  0  0  0  0  0  0
  152.4078  138.5193  155.6369 C   0  0  1  0  0  0  0  0  0  0  0  0
  151.7350  139.8829  155.8678 C   0  0  0  0  0  0  0  0  0  0  0  0
  151.0525  140.3995  154.9824 O   0  0  0  0  0  0  0  0  0  0  0  0
  151.9517  140.4628  157.0590 N   0  0  0  0  0  0  0  0  0  0  0  0
  151.4986  141.7982  157.4385 C   0  0  0  0  0  0  0  0  0  0  0  0
  152.1070  142.2494  158.7801 C   0  0  0  0  0  0  0  0  0  0  0  0
  151.7271  143.6034  159.1403 N   0  0  0  0  0  0  0  0  0  0  0  0
  152.0825  144.2973  160.2893 C   0  0  0  0  0  0  0  0  0  0  0  0
  151.4793  145.5320  160.2048 C   0  0  0  0  0  0  0  0  0  0  0  0
  150.7593  145.6225  159.0158 N   0  0  0  0  0  0  0  0  0  0  0  0
  150.9565  144.4452  158.4372 C   0  0  0  0  0  0  0  0  0  0  0  0
  152.2971  137.5899  156.8674 C   0  0  0  0  0  0  0  0  0  0  0  0
  151.0821  136.6418  156.8889 C   0  0  0  0  0  0  0  0  0  0  0  0
  150.8771  135.9979  157.9185 O   0  0  0  0  0  0  0  0  0  0  0  0
  148.4928  135.8368  156.6700 H   0  0  0  0  0  0  0  0  0  0  0  0
  149.4544  134.5908  155.8637 H   0  0  0  0  0  0  0  0  0  0  0  0
  148.5141  135.7423  154.9180 H   0  0  0  0  0  0  0  0  0  0  0  0
  150.2081  136.6733  153.6928 H   0  0  0  0  0  0  0  0  0  0  0  0
  149.7530  138.1178  154.5603 H   0  0  0  0  0  0  0  0  0  0  0  0
  152.5556  136.9911  154.1263 H   0  0  0  0  0  0  0  0  0  0  0  0
  151.9301  138.4984  153.5137 H   0  0  0  0  0  0  0  0  0  0  0  0
  153.4699  138.7203  155.4858 H   0  0  0  0  0  0  0  0  0  0  0  0
  152.5149  139.9641  157.7326 H   0  0  0  0  0  0  0  0  0  0  0  0
  151.7123  142.5270  156.6549 H   0  0  0  0  0  0  0  0  0  0  0  0
  150.4129  141.7640  157.5303 H   0  0  0  0  0  0  0  0  0  0  0  0
  151.7788  141.5833  159.5785 H   0  0  0  0  0  0  0  0  0  0  0  0
  153.1954  142.1841  158.7460 H   0  0  0  0  0  0  0  0  0  0  0  0
  152.7093  143.8639  161.0545 H   0  0  0  0  0  0  0  0  0  0  0  0
  151.5084  146.3558  160.9026 H   0  0  0  0  0  0  0  0  0  0  0  0
  150.5202  144.1850  157.4839 H   0  0  0  0  0  0  0  0  0  0  0  0
  153.1857  136.9588  156.9056 H   0  0  0  0  0  0  0  0  0  0  0  0
  152.3102  138.1670  157.7934 H   0  0  0  0  0  0  0  0  0  0  0  0
  1  2  1  0  0  0  0
  1 19  1  0  0  0  0
  1 20  1  0  0  0  0
  1 21  1  0  0  0  0
  2 17  1  0  0  0  0
  2  3  1  0  0  0  0
  3  4  1  0  0  0  0
  3 22  1  0  0  0  0
  3 23  1  0  0  0  0
  4  5  1  0  0  0  0
  4 24  1  0  0  0  0
  4 25  1  0  0  0  0
  5  6  1  0  0  0  0
  5 16  1  0  0  0  0
  5 26  1  0  0  0  0
  6  7  2  0  0  0  0
  6  8  1  0  0  0  0
  8  9  1  0  0  0  0
  8 27  1  0  0  0  0
  9 10  1  0  0  0  0
  9 28  1  0  0  0  0
  9 29  1  0  0  0  0
 10 11  1  0  0  0  0
 10 30  1  0  0  0  0
 10 31  1  0  0  0  0
 11 15  1  0  0  0  0
 11 12  1  0  0  0  0
 12 13  2  0  0  0  0
 12 32  1  0  0  0  0
 13 14  1  0  0  0  0
 13 33  1  0  0  0  0
 14 15  2  0  0  0  0
 15 34  1  0  0  0  0
 16 17  1  0  0  0  0
 16 35  1  0  0  0  0
 16 36  1  0  0  0  0
 17 18  2  0  0  0  0
M  END
> <s_m_source_file>
AV-unprocessed.smi

> <i_m_source_file_index>
1538

> <i_lp_mmshare_version>
43012

> <i_f3d_flags>
0

> <s_epik_input>
W0NIM11OMVtDSDJdW0NIMl1bQ0BIXShbQ0gyXUMxPU8pQyg9TylbTkhdW0NIMl1bQ0gyXW4yW2NIXVtjSF1uW2NIXTI=

> <s_epik_cmdline>
J2VwaWtfcHl0aG9uJywgJy1waCcsICc3LjAnLCAnLXRuJywgJzgnLCAnLW1hJywgJzIwMCcsICctbWV0YWxfYmluZGluZycsICctaW1hZScsICc8aW5maWxlLm1hZT4nLCAnLW9tYWUnLCAnPG91dGZpbGUubWFlPic=

> <r_lp_tautomer_probability>
1

> <r_epik_Ionization_Penalty>
0.590576

> <r_epik_Ionization_Penalty_Charging>
0.590576

> <r_epik_Ionization_Penalty_Neutral>
2.97775e-08

> <r_epik_State_Penalty>
0.604111

> <r_epik_Charging_Adjusted_Penalty>
1.19469

> <i_epik_Tot_Q>
0

> <i_epik_Tot_abs_Q>
0

> <r_epik_Metal_State_Penalty>
0.298544

> <b_epik_Metal_Only>
0

> <s_lp_Force_Field>
OPLS_2005

> <r_lp_Energy>
13.4422

> <b_lp_Chiralities_Consistent>
1

> <s_lp_Variant>
AV-unprocessed.smi:1538-3

> <Gold.Version>
5.8.1

> <Gold.Id.Protein>
6NUR|6NUR_protein|mol2

> <Gold.PLP.Fitness>
41.7693

> <Gold.PLP.PLP>
-34.9471

> <Gold.PLP.part.hbond>
-3.3986

> <Gold.PLP.part.metal>
0.0000

> <Gold.PLP.part.buried>
-3.0359

> <Gold.PLP.part.nonpolar>
-29.1802

> <Gold.PLP.part.repulsive>
0.3638

> <Gold.PLP.ligand.clash>
0.0000

> <Gold.PLP.ligand.torsion>
0.3964

> <Gold.PLP.Chemscore.Hbond>
1.5234

> <Gold.PLP.Chemscore.CHOScore>
1.0000

> <Gold.PLP.Chemscore.Metal>
0.0000

> <Gold.Chemscore.Hbonds>
donor molecule, donor type, donor heavy atom, donor atom, acceptor molecule, acceptor atom, score
      P1  H  6896  6908       L1    18  0.45
      P1  H  7989  7998       L1     7  1.00
      L1  C    15    34       P1  8028  1.00

> <Gold.PLP.Chemscore.Internal.Correction>
0.0448

> <Gold.Rescore>
     Score         DG    S(hbond)    S(metal)    S(lipo)     H(rot)  DE(clash)    DE(int)     intcor
     13.50     -14.13       1.84        0.00      64.76       1.98       0.00       0.63       ----

> <Gold.Chemscore.Fitness>
13.5002

> <Gold.Chemscore.DG>
-14.1274

> <Gold.Chemscore.ZeroCoef>
-5.4800

> <Gold.Chemscore.Hbond>
1.8367

> <Gold.Chemscore.Metal>
0.0000

> <Gold.Chemscore.Lipo>
64.7628

> <Gold.Chemscore.Internal_Hbond>
0.0000

> <Gold.Chemscore.DEClash>
0.0004

> <Gold.Chemscore.DEInternal>
0.6268

> <Gold.Chemscore.Rot>
1.9782

> <Gold.Chemscore.Internal.Correction>
   9.000000E+99

> <Gold.Chemscore.Hbonds>
donor molecule, donor type, donor heavy atom, donor atom, acceptor molecule, acceptor atom, score
      P1  H  6896  6908       L1    18  0.44
      P1  H  7989  7998       L1     7  0.97

> <Gold.Chemscore.Hbond.Weighted>
-6.1345

> <Gold.Chemscore.Metal.Weighted>
-0.0000

> <Gold.Chemscore.Lipo.Weighted>
-7.5772

> <Gold.Chemscore.Internal_Hbond.Weighted>
0.0000

> <Gold.Chemscore.DEClash.Weighted>
0.0004

> <Gold.Chemscore.DEInternal.Weighted>
0.6268

> <Gold.Chemscore.Rot.Weighted>
5.0643

> <Gold.Chemscore.Internal.Correction.Weighted>
   9.000000E+99

> <Gold.Protein.RotatedTorsions>
[ 6907 6896 6895 6894 ] final -168.58 input  -60.11 | X-H torsion
[ 7974 7965 7964 7962 ] final  125.54 input  175.53 | X-H torsion
[ 8008 7997 7996 7995 ] final  -29.17 input   59.86 | X-H torsion
[ 10167 10162 10161 10158 ] final  174.34 input  -65.29 | X-H torsion
[ 10718 10713 10712 10709 ] final  -12.27 input   66.30 | X-H torsion
[ 10763 10752 10751 10750 ] final  128.35 input  -60.55 | X-H torsion
[ 11005 11000 10999 10996 ] final   22.19 input  -57.11 | X-H torsion

> <Gold.Protein.ActiveResidues>
 VAL166  LYS551  ARG553  GLY616  TRP617  ASP618  TYR619  PRO620  LYS621  CYS622 
 ASP623  PHE694  ASN695  SER759  ASP760  ASP761  ALA762  ILE779  LEU786  VAL792 
 PHE793  MET794  SER795  GLU796  ALA797  LYS798  CYS799  TRP800  GLU811  SER814 

> <Gold.Protein.RotatedAtoms>
  151.4778  133.3553  159.2833 H   0  0  0  0  0  0  0  0  0  0  0  0  # atno 6907 bound_to 6896
  150.8917  134.8324  159.7309 H   0  0  0  0  0  0  0  0  0  0  0  0  # atno 6908 bound_to 6896
  152.4827  134.4689  159.9681 H   0  0  0  0  0  0  0  0  0  0  0  0  # atno 6909 bound_to 6896
  145.0718  139.3724  143.4953 H   0  0  0  0  0  0  0  0  0  0  0  0  # atno 7974 bound_to 7965
  154.4301  140.1825  156.1205 H   0  0  0  0  0  0  0  0  0  0  0  0  # atno 8008 bound_to 7997
  156.0147  140.3347  155.6951 H   0  0  0  0  0  0  0  0  0  0  0  0  # atno 8009 bound_to 7997
  155.6061  140.0645  157.2710 H   0  0  0  0  0  0  0  0  0  0  0  0  # atno 8010 bound_to 7997
  139.5138  144.3158  152.0249 H   0  0  0  0  0  0  0  0  0  0  0  0  # atno 10167 bound_to 10162
  156.6471  130.4944  149.6075 H   0  0  0  0  0  0  0  0  0  0  0  0  # atno 10718 bound_to 10713
  153.7241  135.3249  155.3272 H   0  0  0  0  0  0  0  0  0  0  0  0  # atno 10763 bound_to 10752
  154.8347  135.4506  154.1188 H   0  0  0  0  0  0  0  0  0  0  0  0  # atno 10764 bound_to 10752
  153.2316  135.6960  153.7963 H   0  0  0  0  0  0  0  0  0  0  0  0  # atno 10765 bound_to 10752
  140.3833  134.1897  155.7663 H   0  0  0  0  0  0  0  0  0  0  0  0  # atno 11005 bound_to 11000
  146.3529  140.0467  142.8639 LP  0  0  0  0  0  0  0  0  0  0  0  0  # atno 17320 bound_to 7965
  145.1283  140.9503  143.4559 LP  0  0  0  0  0  0  0  0  0  0  0  0  # atno 17321 bound_to 7965
  140.2601  144.4076  150.6189 LP  0  0  0  0  0  0  0  0  0  0  0  0  # atno 17342 bound_to 10162
  140.6163  143.2172  151.6785 LP  0  0  0  0  0  0  0  0  0  0  0  0  # atno 17343 bound_to 10162
  156.2113  130.6681  151.1273 LP  0  0  0  0  0  0  0  0  0  0  0  0  # atno 17370 bound_to 10713
  157.7153  131.0713  150.6351 LP  0  0  0  0  0  0  0  0  0  0  0  0  # atno 17371 bound_to 10713
  141.1916  133.8191  157.0873 LP  0  0  0  0  0  0  0  0  0  0  0  0  # atno 17394 bound_to 11000
  140.0462  134.9829  157.1053 LP  0  0  0  0  0  0  0  0  0  0  0  0  # atno 17395 bound_to 11000

$$$$
