AV-unprocessed.smi:2509|AV-procd|sdf|9869|dock3
  -GOLD-   2272013503D 1   1.00000     0.00000
 Structure written by MMmdl.
 45 46  0  0  0  0  0  0  0  0  1 V2000
  148.9453  142.2043  157.8457 C   0  0  0  0  0  0  0  0  0  0  0  0
  150.1050  141.3692  157.2528 C   0  0  0  0  0  0  0  0  0  0  0  0
  151.0141  142.3724  156.5046 C   0  0  0  0  0  0  0  0  0  0  0  0
  150.8974  140.7054  158.3937 C   0  0  0  0  0  0  0  0  0  0  0  0
  149.5755  140.2850  156.2982 C   0  0  0  0  0  0  0  0  0  0  0  0
  149.9615  140.3588  155.0180 N   0  0  0  0  0  0  0  0  0  0  0  0
  149.4060  139.4920  154.1460 C   0  0  0  0  0  0  0  0  0  0  0  0
  148.4261  138.5588  154.5388 C   0  0  0  0  0  0  0  0  0  0  0  0
  147.8975  137.6761  153.5579 N   0  0  0  0  0  0  0  0  0  0  0  0
  146.6316  137.2612  153.3826 C   0  0  0  0  0  0  0  0  0  0  0  0
  145.6605  137.6210  154.0467 O   0  0  0  0  0  0  0  0  0  0  0  0
  146.5500  136.3828  152.3740 N   0  0  0  0  0  0  0  0  0  0  0  0
  145.3314  135.7007  151.9517 C   0  0  0  0  0  0  0  0  0  0  0  0
  145.6101  134.5417  150.9702 C   0  0  1  0  0  0  0  0  0  0  0  0
  146.3549  133.3708  151.6333 C   0  0  0  0  0  0  0  0  0  0  0  0
  145.8699  132.0858  150.9436 C   0  0  0  0  0  0  0  0  0  0  0  0
  144.8565  132.5241  149.8836 C   0  0  0  0  0  0  0  0  0  0  0  0
  144.3601  133.8883  150.3609 C   0  0  2  0  0  0  0  0  0  0  0  0
  143.8193  134.6285  149.2851 O   0  0  0  0  0  0  0  0  0  0  0  0
  148.0610  138.5933  155.9065 C   0  0  0  0  0  0  0  0  0  0  0  0
  148.6256  139.4662  156.7681 N   0  0  0  0  0  0  0  0  0  0  0  0
  149.3191  143.0039  158.4863 H   0  0  0  0  0  0  0  0  0  0  0  0
  148.2761  141.5992  158.4584 H   0  0  0  0  0  0  0  0  0  0  0  0
  148.3469  142.6672  157.0599 H   0  0  0  0  0  0  0  0  0  0  0  0
  150.4880  142.8396  155.6713 H   0  0  0  0  0  0  0  0  0  0  0  0
  151.9092  141.8945  156.1048 H   0  0  0  0  0  0  0  0  0  0  0  0
  151.3534  143.1701  157.1662 H   0  0  0  0  0  0  0  0  0  0  0  0
  151.2823  141.4463  159.0954 H   0  0  0  0  0  0  0  0  0  0  0  0
  151.7492  140.1431  158.0092 H   0  0  0  0  0  0  0  0  0  0  0  0
  150.2731  140.0116  158.9575 H   0  0  0  0  0  0  0  0  0  0  0  0
  149.7454  139.5501  153.1221 H   0  0  0  0  0  0  0  0  0  0  0  0
  148.5754  137.2989  152.9117 H   0  0  0  0  0  0  0  0  0  0  0  0
  147.3983  136.1429  151.8822 H   0  0  0  0  0  0  0  0  0  0  0  0
  144.7965  135.3319  152.8285 H   0  0  0  0  0  0  0  0  0  0  0  0
  144.6796  136.4383  151.4829 H   0  0  0  0  0  0  0  0  0  0  0  0
  146.2397  134.9040  150.1552 H   0  0  0  0  0  0  0  0  0  0  0  0
  147.4351  133.4933  151.5469 H   0  0  0  0  0  0  0  0  0  0  0  0
  146.1226  133.3167  152.6978 H   0  0  0  0  0  0  0  0  0  0  0  0
  146.6927  131.5248  150.4991 H   0  0  0  0  0  0  0  0  0  0  0  0
  145.3887  131.4351  151.6745 H   0  0  0  0  0  0  0  0  0  0  0  0
  145.3667  132.6266  148.9244 H   0  0  0  0  0  0  0  0  0  0  0  0
  144.0479  131.8044  149.7522 H   0  0  0  0  0  0  0  0  0  0  0  0
  143.5960  133.7525  151.1276 H   0  0  0  0  0  0  0  0  0  0  0  0
  142.8846  134.6956  149.4072 H   0  0  0  0  0  0  0  0  0  0  0  0
  147.3222  137.9381  156.3387 H   0  0  0  0  0  0  0  0  0  0  0  0
  1  2  1  0  0  0  0
  1 22  1  0  0  0  0
  1 23  1  0  0  0  0
  1 24  1  0  0  0  0
  2  3  1  0  0  0  0
  2  4  1  0  0  0  0
  2  5  1  0  0  0  0
  3 25  1  0  0  0  0
  3 26  1  0  0  0  0
  3 27  1  0  0  0  0
  4 28  1  0  0  0  0
  4 29  1  0  0  0  0
  4 30  1  0  0  0  0
  5 21  1  0  0  0  0
  5  6  2  0  0  0  0
  6  7  1  0  0  0  0
  7  8  2  0  0  0  0
  7 31  1  0  0  0  0
  8  9  1  0  0  0  0
  8 20  1  0  0  0  0
  9 10  1  0  0  0  0
  9 32  1  0  0  0  0
 10 11  2  0  0  0  0
 10 12  1  0  0  0  0
 12 13  1  0  0  0  0
 12 33  1  0  0  0  0
 13 14  1  0  0  0  0
 13 34  1  0  0  0  0
 13 35  1  0  0  0  0
 14 18  1  0  0  0  0
 14 15  1  0  0  0  0
 14 36  1  0  0  0  0
 15 16  1  0  0  0  0
 15 37  1  0  0  0  0
 15 38  1  0  0  0  0
 16 17  1  0  0  0  0
 16 39  1  0  0  0  0
 16 40  1  0  0  0  0
 17 18  1  0  0  0  0
 17 41  1  0  0  0  0
 17 42  1  0  0  0  0
 18 19  1  0  0  0  0
 18 43  1  0  0  0  0
 19 44  1  0  0  0  0
 20 21  2  0  0  0  0
 20 45  1  0  0  0  0
M  END
> <s_m_source_file>
AV-unprocessed.smi

> <i_m_source_file_index>
2509

> <i_lp_mmshare_version>
43012

> <i_f3d_flags>
0

> <s_epik_input>
W0NIM11DKFtDSDNdKShbQ0gzXSljMW5bY0hdYyhbY0hdbjEpW05IXUMoPU8pW05IXVtDSDJdW0NAQEhdMltDSDJdW0NIMl1bQ0gyXVtDQEhdMltPSF0=

> <s_epik_cmdline>
J2VwaWtfcHl0aG9uJywgJy1waCcsICc3LjAnLCAnLXRuJywgJzgnLCAnLW1hJywgJzIwMCcsICctbWV0YWxfYmluZGluZycsICctaW1hZScsICc8aW5maWxlLm1hZT4nLCAnLW9tYWUnLCAnPG91dGZpbGUubWFlPic=

> <r_lp_tautomer_probability>
1

> <r_epik_Ionization_Penalty>
2.77586e-05

> <r_epik_Ionization_Penalty_Charging>
0

> <r_epik_Ionization_Penalty_Neutral>
2.77586e-05

> <r_epik_State_Penalty>
-0

> <r_epik_Charging_Adjusted_Penalty>
0

> <i_epik_Tot_Q>
0

> <i_epik_Tot_abs_Q>
0

> <r_epik_Metal_State_Penalty>
-0

> <b_epik_Metal_Only>
0

> <s_lp_Force_Field>
OPLS_2005

> <r_lp_Energy>
20.408

> <b_lp_Chiralities_Consistent>
1

> <s_lp_Variant>
AV-unprocessed.smi:2509-4

> <Gold.Version>
5.8.1

> <Gold.Id.Protein>
6NUR|6NUR_protein|mol2

> <Gold.PLP.Fitness>
41.1333

> <Gold.PLP.PLP>
-29.6186

> <Gold.PLP.part.hbond>
-3.8520

> <Gold.PLP.part.metal>
0.0000

> <Gold.PLP.part.buried>
-3.7587

> <Gold.PLP.part.nonpolar>
-22.0978

> <Gold.PLP.part.repulsive>
0.2537

> <Gold.PLP.ligand.clash>
0.0000

> <Gold.PLP.ligand.torsion>
0.5066

> <Gold.PLP.Chemscore.Hbond>
3.1267

> <Gold.PLP.Chemscore.CHOScore>
0.9997

> <Gold.PLP.Chemscore.Metal>
0.0000

> <Gold.Chemscore.Hbonds>
donor molecule, donor type, donor heavy atom, donor atom, acceptor molecule, acceptor atom, score
      L1  H     9    32       P1  7948  1.00
      L1  H    12    33       P1  7948  0.96
      L1  H    19    44       P1 10186  1.00
      P1  H  7989  7998       L1     6  0.16
      L1  C     7    31       P1  7957  0.98

> <Gold.PLP.Chemscore.Internal.Correction>
0.1487

> <Gold.Rescore>
     Score         DG    S(hbond)    S(metal)    S(lipo)     H(rot)  DE(clash)    DE(int)     intcor
     17.62     -18.45       2.83        0.00      71.87       1.91       0.36       0.47       ----

> <Gold.Chemscore.Fitness>
17.6181

> <Gold.Chemscore.DG>
-18.4520

> <Gold.Chemscore.ZeroCoef>
-5.4800

> <Gold.Chemscore.Hbond>
2.8315

> <Gold.Chemscore.Metal>
0.0000

> <Gold.Chemscore.Lipo>
71.8673

> <Gold.Chemscore.Internal_Hbond>
0.0000

> <Gold.Chemscore.DEClash>
0.3600

> <Gold.Chemscore.DEInternal>
0.4738

> <Gold.Chemscore.Rot>
1.9116

> <Gold.Chemscore.Internal.Correction>
   9.000000E+99

> <Gold.Chemscore.Hbonds>
donor molecule, donor type, donor heavy atom, donor atom, acceptor molecule, acceptor atom, score
      L1  H     9    32       P1  7948  0.88
      L1  H    12    33       P1  7948  0.86
      L1  H    19    44       P1 10186  0.94
      P1  H  7989  7998       L1     6  0.01

> <Gold.Chemscore.Hbond.Weighted>
-9.4571

> <Gold.Chemscore.Metal.Weighted>
-0.0000

> <Gold.Chemscore.Lipo.Weighted>
-8.4085

> <Gold.Chemscore.Internal_Hbond.Weighted>
0.0000

> <Gold.Chemscore.DEClash.Weighted>
0.3600

> <Gold.Chemscore.DEInternal.Weighted>
0.4738

> <Gold.Chemscore.Rot.Weighted>
4.8936

> <Gold.Chemscore.Internal.Correction.Weighted>
   9.000000E+99

> <Gold.Protein.RotatedTorsions>
[ 6907 6896 6895 6894 ] final -130.81 input  -60.11 | X-H torsion
[ 7974 7965 7964 7962 ] final   91.11 input  175.53 | X-H torsion
[ 8008 7997 7996 7995 ] final -106.37 input   59.86 | X-H torsion
[ 10167 10162 10161 10158 ] final  108.56 input  -65.29 | X-H torsion
[ 10718 10713 10712 10709 ] final   50.45 input   66.30 | X-H torsion
[ 10763 10752 10751 10750 ] final  -14.73 input  -60.55 | X-H torsion
[ 11005 11000 10999 10996 ] final   56.05 input  -57.11 | X-H torsion

> <Gold.Protein.ActiveResidues>
 VAL166  LYS551  ARG553  GLY616  TRP617  ASP618  TYR619  PRO620  LYS621  CYS622 
 ASP623  PHE694  ASN695  SER759  ASP760  ASP761  ALA762  ILE779  LEU786  VAL792 
 PHE793  MET794  SER795  GLU796  ALA797  LYS798  CYS799  TRP800  GLU811  SER814 

> <Gold.Protein.RotatedAtoms>
  150.9438  133.6626  159.2785 H   0  0  0  0  0  0  0  0  0  0  0  0  # atno 6907 bound_to 6896
  151.4005  135.0969  159.9564 H   0  0  0  0  0  0  0  0  0  0  0  0  # atno 6908 bound_to 6896
  152.5081  133.8933  159.7459 H   0  0  0  0  0  0  0  0  0  0  0  0  # atno 6909 bound_to 6896
  145.5100  139.2277  143.2730 H   0  0  0  0  0  0  0  0  0  0  0  0  # atno 7974 bound_to 7965
  154.9135  140.0409  157.1959 H   0  0  0  0  0  0  0  0  0  0  0  0  # atno 8008 bound_to 7997
  154.8324  140.2901  155.5692 H   0  0  0  0  0  0  0  0  0  0  0  0  # atno 8009 bound_to 7997
  156.2987  140.2498  156.3252 H   0  0  0  0  0  0  0  0  0  0  0  0  # atno 8010 bound_to 7997
  139.6836  144.7116  151.1472 H   0  0  0  0  0  0  0  0  0  0  0  0  # atno 10167 bound_to 10162
  157.4886  130.8361  149.8176 H   0  0  0  0  0  0  0  0  0  0  0  0  # atno 10718 bound_to 10713
  153.5327  135.7014  153.5675 H   0  0  0  0  0  0  0  0  0  0  0  0  # atno 10763 bound_to 10752
  153.3675  135.3953  155.1764 H   0  0  0  0  0  0  0  0  0  0  0  0  # atno 10764 bound_to 10752
  154.8683  135.3804  154.4825 H   0  0  0  0  0  0  0  0  0  0  0  0  # atno 10765 bound_to 10752
  140.0559  134.5671  155.9208 H   0  0  0  0  0  0  0  0  0  0  0  0  # atno 11005 bound_to 11000
  146.2172  140.5906  142.9033 LP  0  0  0  0  0  0  0  0  0  0  0  0  # atno 17320 bound_to 7965
  144.7733  140.5684  143.6655 LP  0  0  0  0  0  0  0  0  0  0  0  0  # atno 17321 bound_to 7965
  140.7660  143.5662  150.9045 LP  0  0  0  0  0  0  0  0  0  0  0  0  # atno 17342 bound_to 10162
  139.9336  143.6464  152.3070 LP  0  0  0  0  0  0  0  0  0  0  0  0  # atno 17343 bound_to 10162
  156.0160  130.3813  150.2108 LP  0  0  0  0  0  0  0  0  0  0  0  0  # atno 17370 bound_to 10713
  157.0296  131.0003  151.3316 LP  0  0  0  0  0  0  0  0  0  0  0  0  # atno 17371 bound_to 10713
  141.1952  133.6586  156.5630 LP  0  0  0  0  0  0  0  0  0  0  0  0  # atno 17394 bound_to 11000
  140.3845  134.7494  157.4682 LP  0  0  0  0  0  0  0  0  0  0  0  0  # atno 17395 bound_to 11000

$$$$
