AV-unprocessed.smi:1512|AV-procd|sdf|6101|dock2
  -GOLD-   22720 6233D 1   1.00000     0.00000
 Structure written by MMmdl.
 44 46  0  0  0  0  0  0  0  0  3 V2000
  151.3101  140.5080  157.6487 C   0  0  0  0  0  0  0  0  0  0  0  0
  151.2650  141.9714  157.1776 C   0  0  1  0  0  0  0  0  0  0  0  0
  150.1102  142.1361  156.2962 N   0  0  0  0  0  0  0  0  0  0  0  0
  149.7909  141.3474  155.2587 C   0  0  0  0  0  0  0  0  0  0  0  0
  150.4154  140.3295  154.9581 O   0  0  0  0  0  0  0  0  0  0  0  0
  148.5689  141.7781  154.4370 C   0  0  0  0  0  0  0  0  0  0  0  0
  147.4572  140.8167  154.5331 N   0  0  0  0  0  0  0  0  0  0  0  0
  147.5709  139.6310  153.7836 C   0  0  0  0  0  0  0  0  0  0  0  0
  146.6118  138.6943  153.7898 C   0  0  0  0  0  0  0  0  0  0  0  0
  145.4378  138.9243  154.5959 C   0  0  0  0  0  0  0  0  0  0  0  0
  145.3057  140.0564  155.3250 C   0  0  0  0  0  0  0  0  0  0  0  0
  144.1056  140.2220  156.1128 N   0  3  0  0  0  0  0  0  0  0  0  0
  143.2617  139.3311  156.1026 O   0  0  0  0  0  0  0  0  0  0  0  0
  143.9657  141.2580  156.7561 O   0  5  0  0  0  0  0  0  0  0  0  0
  146.3620  141.0897  155.3096 C   0  0  0  0  0  0  0  0  0  0  0  0
  146.2757  142.1440  155.9428 O   0  0  0  0  0  0  0  0  0  0  0  0
  151.1667  142.9813  158.3483 C   0  0  2  0  0  0  0  0  0  0  0  0
  151.3233  144.4624  157.9154 C   0  0  0  0  0  0  0  0  0  0  0  0
  152.4359  144.9875  158.8385 C   0  0  1  0  0  0  0  0  0  0  0  0
  151.9154  145.0658  160.2851 C   0  0  0  0  0  0  0  0  0  0  0  0
  151.8367  143.5840  160.6962 C   0  0  0  0  0  0  0  0  0  0  0  0
  152.2827  142.8512  159.4160 C   0  0  2  0  0  0  0  0  0  0  0  0
  153.3702  143.7874  158.8978 C   0  0  0  0  0  0  0  0  0  0  0  0
  152.1955  140.3015  158.2485 H   0  0  0  0  0  0  0  0  0  0  0  0
  151.3356  139.8256  156.7983 H   0  0  0  0  0  0  0  0  0  0  0  0
  150.4347  140.2568  158.2488 H   0  0  0  0  0  0  0  0  0  0  0  0
  152.1851  142.1725  156.6269 H   0  0  0  0  0  0  0  0  0  0  0  0
  149.5290  142.9442  156.4652 H   0  0  0  0  0  0  0  0  0  0  0  0
  148.2619  142.7666  154.7809 H   0  0  0  0  0  0  0  0  0  0  0  0
  148.8506  141.9144  153.3909 H   0  0  0  0  0  0  0  0  0  0  0  0
  148.4758  139.5374  153.2009 H   0  0  0  0  0  0  0  0  0  0  0  0
  146.7140  137.7925  153.2041 H   0  0  0  0  0  0  0  0  0  0  0  0
  144.6646  138.1700  154.6141 H   0  0  0  0  0  0  0  0  0  0  0  0
  150.1933  142.8471  158.8232 H   0  0  0  0  0  0  0  0  0  0  0  0
  151.6435  144.5477  156.8763 H   0  0  0  0  0  0  0  0  0  0  0  0
  150.3954  145.0260  158.0189 H   0  0  0  0  0  0  0  0  0  0  0  0
  152.8942  145.9124  158.4870 H   0  0  0  0  0  0  0  0  0  0  0  0
  152.6166  145.6045  160.9239 H   0  0  0  0  0  0  0  0  0  0  0  0
  150.9492  145.5673  160.3485 H   0  0  0  0  0  0  0  0  0  0  0  0
  152.5247  143.3790  161.5175 H   0  0  0  0  0  0  0  0  0  0  0  0
  150.8372  143.2918  161.0202 H   0  0  0  0  0  0  0  0  0  0  0  0
  152.6152  141.8323  159.6090 H   0  0  0  0  0  0  0  0  0  0  0  0
  153.7686  143.4994  157.9234 H   0  0  0  0  0  0  0  0  0  0  0  0
  154.1983  143.9189  159.5969 H   0  0  0  0  0  0  0  0  0  0  0  0
  1  2  1  0  0  0  0
  1 24  1  0  0  0  0
  1 25  1  0  0  0  0
  1 26  1  0  0  0  0
  2  3  1  0  0  0  0
  2 17  1  0  0  0  0
  2 27  1  0  0  0  0
  3  4  1  0  0  0  0
  3 28  1  0  0  0  0
  4  5  2  0  0  0  0
  4  6  1  0  0  0  0
  6  7  1  0  0  0  0
  6 29  1  0  0  0  0
  6 30  1  0  0  0  0
  7 15  1  0  0  0  0
  7  8  1  0  0  0  0
  8  9  2  0  0  0  0
  8 31  1  0  0  0  0
  9 10  1  0  0  0  0
  9 32  1  0  0  0  0
 10 11  2  0  0  0  0
 10 33  1  0  0  0  0
 11 12  1  0  0  0  0
 11 15  1  0  0  0  0
 12 13  2  0  0  0  0
 12 14  1  0  0  0  0
 15 16  2  0  0  0  0
 17 22  1  0  0  0  0
 17 18  1  0  0  0  0
 17 34  1  0  0  0  0
 18 19  1  0  0  0  0
 18 35  1  0  0  0  0
 18 36  1  0  0  0  0
 19 23  1  0  0  0  0
 19 20  1  0  0  0  0
 19 37  1  0  0  0  0
 20 21  1  0  0  0  0
 20 38  1  0  0  0  0
 20 39  1  0  0  0  0
 21 22  1  0  0  0  0
 21 40  1  0  0  0  0
 21 41  1  0  0  0  0
 22 23  1  0  0  0  0
 22 42  1  0  0  0  0
 23 43  1  0  0  0  0
 23 44  1  0  0  0  0
M  CHG  1  12   1
M  CHG  1  14  -1
M  END
> <s_m_source_file>
AV-unprocessed.smi

> <i_m_source_file_index>
1512

> <i_lp_mmshare_version>
43012

> <i_f3d_flags>
0

> <s_epik_input>
W0NIMl0xW0NIMl1bQ0BIXShbQ0gyXTIpW0NAQEhdKFtDSDJdW0NAQEhdMTIpW0NASF0oW0NIM10pW05IXUMoPU8pW0NIMl1uM1tjSF1bY0hdW2NIXWMoW04rXSg9TylbTy1dKWMzPU8=

> <s_epik_cmdline>
J2VwaWtfcHl0aG9uJywgJy1waCcsICc3LjAnLCAnLXRuJywgJzgnLCAnLW1hJywgJzIwMCcsICctbWV0YWxfYmluZGluZycsICctaW1hZScsICc8aW5maWxlLm1hZT4nLCAnLW9tYWUnLCAnPG91dGZpbGUubWFlPic=

> <r_lp_tautomer_probability>
1

> <r_epik_Ionization_Penalty>
2.17697e-08

> <r_epik_Ionization_Penalty_Charging>
1.42735e-10

> <r_epik_Ionization_Penalty_Neutral>
2.16269e-08

> <r_epik_State_Penalty>
-0

> <r_epik_Charging_Adjusted_Penalty>
1.42735e-10

> <i_epik_Tot_Q>
0

> <i_epik_Tot_abs_Q>
2

> <r_epik_Metal_State_Penalty>
-0

> <b_epik_Metal_Only>
0

> <s_lp_Force_Field>
OPLS_2005

> <r_lp_Energy>
64.6124

> <b_lp_Chiralities_Consistent>
1

> <s_lp_Variant>
AV-unprocessed.smi:1512-2

> <Gold.Version>
5.8.1

> <Gold.Id.Protein>
6NUR|6NUR_protein|mol2

> <Gold.PLP.Fitness>
49.6169

> <Gold.PLP.PLP>
-41.7952

> <Gold.PLP.part.hbond>
-2.0000

> <Gold.PLP.part.metal>
0.0000

> <Gold.PLP.part.buried>
-3.8595

> <Gold.PLP.part.nonpolar>
-34.9515

> <Gold.PLP.part.repulsive>
0.3808

> <Gold.PLP.ligand.clash>
0.0000

> <Gold.PLP.ligand.torsion>
0.3623

> <Gold.PLP.Chemscore.Hbond>
1.8299

> <Gold.PLP.Chemscore.CHOScore>
1.0000

> <Gold.PLP.Chemscore.Metal>
0.0000

> <Gold.Chemscore.Hbonds>
donor molecule, donor type, donor heavy atom, donor atom, acceptor molecule, acceptor atom, score
      L1  H     3    28       P1  8028  0.83
      P1  H  7989  7998       L1     5  1.00
      L1  C     8    31       P1  7957  1.00

> <Gold.PLP.Chemscore.Internal.Correction>
0.0565

> <Gold.Rescore>
     Score         DG    S(hbond)    S(metal)    S(lipo)     H(rot)  DE(clash)    DE(int)     intcor
     17.01     -20.49       1.62        0.00     120.27       1.75       0.26       3.22       ----

> <Gold.Chemscore.Fitness>
17.0106

> <Gold.Chemscore.DG>
-20.4913

> <Gold.Chemscore.ZeroCoef>
-5.4800

> <Gold.Chemscore.Hbond>
1.6206

> <Gold.Chemscore.Metal>
0.0000

> <Gold.Chemscore.Lipo>
120.2723

> <Gold.Chemscore.Internal_Hbond>
0.0000

> <Gold.Chemscore.DEClash>
0.2619

> <Gold.Chemscore.DEInternal>
3.2188

> <Gold.Chemscore.Rot>
1.7474

> <Gold.Chemscore.Internal.Correction>
   9.000000E+99

> <Gold.Chemscore.Hbonds>
donor molecule, donor type, donor heavy atom, donor atom, acceptor molecule, acceptor atom, score
      L1  H     3    28       P1  8028  0.78
      P1  H  7989  7998       L1     5  0.48

> <Gold.Chemscore.Hbond.Weighted>
-5.4128

> <Gold.Chemscore.Metal.Weighted>
-0.0000

> <Gold.Chemscore.Lipo.Weighted>
-14.0719

> <Gold.Chemscore.Internal_Hbond.Weighted>
0.0000

> <Gold.Chemscore.DEClash.Weighted>
0.2619

> <Gold.Chemscore.DEInternal.Weighted>
3.2188

> <Gold.Chemscore.Rot.Weighted>
4.4733

> <Gold.Chemscore.Internal.Correction.Weighted>
   9.000000E+99

> <Gold.Protein.RotatedTorsions>
[ 6907 6896 6895 6894 ] final   63.46 input  -60.11 | X-H torsion
[ 7974 7965 7964 7962 ] final   74.95 input  175.53 | X-H torsion
[ 8008 7997 7996 7995 ] final -163.38 input   59.86 | X-H torsion
[ 10167 10162 10161 10158 ] final   72.83 input  -65.29 | X-H torsion
[ 10718 10713 10712 10709 ] final -133.68 input   66.30 | X-H torsion
[ 10763 10752 10751 10750 ] final  143.75 input  -60.55 | X-H torsion
[ 11005 11000 10999 10996 ] final  159.88 input  -57.11 | X-H torsion

> <Gold.Protein.ActiveResidues>
 VAL166  LYS551  ARG553  GLY616  TRP617  ASP618  TYR619  PRO620  LYS621  CYS622 
 ASP623  PHE694  ASN695  SER759  ASP760  ASP761  ALA762  ILE779  LEU786  VAL792 
 PHE793  MET794  SER795  GLU796  ALA797  LYS798  CYS799  TRP800  GLU811  SER814 

> <Gold.Protein.RotatedAtoms>
  152.4255  134.5876  159.9965 H   0  0  0  0  0  0  0  0  0  0  0  0  # atno 6907 bound_to 6896
  151.6014  133.3350  159.3056 H   0  0  0  0  0  0  0  0  0  0  0  0  # atno 6908 bound_to 6896
  150.8144  134.7355  159.6782 H   0  0  0  0  0  0  0  0  0  0  0  0  # atno 6909 bound_to 6896
  145.7217  139.2651  143.1592 H   0  0  0  0  0  0  0  0  0  0  0  0  # atno 7974 bound_to 7965
  155.8204  140.0919  157.1852 H   0  0  0  0  0  0  0  0  0  0  0  0  # atno 8008 bound_to 7997
  154.3979  140.1438  156.3554 H   0  0  0  0  0  0  0  0  0  0  0  0  # atno 8009 bound_to 7997
  155.8272  140.3444  155.5552 H   0  0  0  0  0  0  0  0  0  0  0  0  # atno 8010 bound_to 7997
  140.0311  144.5465  150.7506 H   0  0  0  0  0  0  0  0  0  0  0  0  # atno 10167 bound_to 10162
  156.2475  130.7133  151.1019 H   0  0  0  0  0  0  0  0  0  0  0  0  # atno 10718 bound_to 10713
  153.9775  135.2944  155.3423 H   0  0  0  0  0  0  0  0  0  0  0  0  # atno 10763 bound_to 10752
  154.7287  135.5077  153.8932 H   0  0  0  0  0  0  0  0  0  0  0  0  # atno 10764 bound_to 10752
  153.0870  135.6696  154.0043 H   0  0  0  0  0  0  0  0  0  0  0  0  # atno 10765 bound_to 10752
  140.2004  134.8342  157.3012 H   0  0  0  0  0  0  0  0  0  0  0  0  # atno 11005 bound_to 11000
  146.0619  140.7961  142.9730 LP  0  0  0  0  0  0  0  0  0  0  0  0  # atno 17320 bound_to 7965
  144.6915  140.3210  143.7232 LP  0  0  0  0  0  0  0  0  0  0  0  0  # atno 17321 bound_to 7965
  140.7302  143.2680  151.3980 LP  0  0  0  0  0  0  0  0  0  0  0  0  # atno 17342 bound_to 10162
  139.6075  144.1166  152.2265 LP  0  0  0  0  0  0  0  0  0  0  0  0  # atno 17343 bound_to 10162
  157.7201  131.0687  150.6171 LP  0  0  0  0  0  0  0  0  0  0  0  0  # atno 17370 bound_to 10713
  156.6248  130.4416  149.5808 LP  0  0  0  0  0  0  0  0  0  0  0  0  # atno 17371 bound_to 10713
  140.2060  134.4196  155.7637 LP  0  0  0  0  0  0  0  0  0  0  0  0  # atno 17394 bound_to 11000
  141.2227  133.7095  156.8261 LP  0  0  0  0  0  0  0  0  0  0  0  0  # atno 17395 bound_to 11000

$$$$
