AV-unprocessed.smi:1403|AV-procd|sdf|5703|dock8
  -GOLD-   22720 5333D 1   1.00000     0.00000
 Structure written by MMmdl.
 35 36  0  0  0  0  0  0  0  0  2 V2000
  154.3384  141.3149  160.4515 C   0  0  0  0  0  0  0  0  0  0  0  0
  152.8667  141.3497  160.0157 C   0  0  2  0  0  0  0  0  0  0  0  0
  152.7618  140.7789  158.6753 N   0  0  0  0  0  0  0  0  0  0  0  0
  152.1755  139.6147  158.3463 C   0  0  0  0  0  0  0  0  0  0  0  0
  151.6362  138.8795  159.1727 O   0  0  0  0  0  0  0  0  0  0  0  0
  152.1690  139.2005  156.8645 C   0  0  0  0  0  0  0  0  0  0  0  0
  151.0495  139.7439  156.0734 N   0  0  0  0  0  0  0  0  0  0  0  0
  150.3864  138.8650  155.1989 C   0  0  0  0  0  0  0  0  0  0  0  0
  149.3483  139.2656  154.4406 C   0  0  0  0  0  0  0  0  0  0  0  0
  148.9141  140.6533  154.5429 C   0  0  0  0  0  0  0  0  0  0  0  0
  147.9695  141.0375  153.8562 O   0  0  0  0  0  0  0  0  0  0  0  0
  149.5867  141.4664  155.4089 N   0  5  0  0  0  0  0  0  0  0  0  0
  150.6397  141.0446  156.1755 C   0  0  0  0  0  0  0  0  0  0  0  0
  151.2257  141.7921  156.9588 O   0  0  0  0  0  0  0  0  0  0  0  0
  152.2983  142.7830  160.0326 C   0  0  1  0  0  0  0  0  0  0  0  0
  152.9877  143.7655  159.0860 C   0  0  0  0  0  0  0  0  0  0  0  0
  151.9380  144.8443  158.8861 C   0  0  0  0  0  0  0  0  0  0  0  0
  150.6212  144.1500  159.2479 C   0  0  0  0  0  0  0  0  0  0  0  0
  150.9647  142.8026  159.5472 O   0  0  0  0  0  0  0  0  0  0  0  0
  154.4592  141.7022  161.4634 H   0  0  0  0  0  0  0  0  0  0  0  0
  154.9638  141.9143  159.7887 H   0  0  0  0  0  0  0  0  0  0  0  0
  154.7260  140.2956  160.4423 H   0  0  0  0  0  0  0  0  0  0  0  0
  152.2988  140.7426  160.7229 H   0  0  0  0  0  0  0  0  0  0  0  0
  153.1820  141.3109  157.9262 H   0  0  0  0  0  0  0  0  0  0  0  0
  153.1231  139.4893  156.4205 H   0  0  0  0  0  0  0  0  0  0  0  0
  152.1580  138.1106  156.8201 H   0  0  0  0  0  0  0  0  0  0  0  0
  150.7666  137.8539  155.1880 H   0  0  0  0  0  0  0  0  0  0  0  0
  148.8481  138.5769  153.7758 H   0  0  0  0  0  0  0  0  0  0  0  0
  152.3093  143.1839  161.0481 H   0  0  0  0  0  0  0  0  0  0  0  0
  153.9252  144.1541  159.4850 H   0  0  0  0  0  0  0  0  0  0  0  0
  153.2012  143.2806  158.1323 H   0  0  0  0  0  0  0  0  0  0  0  0
  152.1157  145.6864  159.5558 H   0  0  0  0  0  0  0  0  0  0  0  0
  151.9402  145.2213  157.8630 H   0  0  0  0  0  0  0  0  0  0  0  0
  150.1717  144.6136  160.1268 H   0  0  0  0  0  0  0  0  0  0  0  0
  149.8951  144.1872  158.4356 H   0  0  0  0  0  0  0  0  0  0  0  0
  1  2  1  0  0  0  0
  1 20  1  0  0  0  0
  1 21  1  0  0  0  0
  1 22  1  0  0  0  0
  2  3  1  0  0  0  0
  2 15  1  0  0  0  0
  2 23  1  0  0  0  0
  3  4  1  0  0  0  0
  3 24  1  0  0  0  0
  4  5  2  0  0  0  0
  4  6  1  0  0  0  0
  6  7  1  0  0  0  0
  6 25  1  0  0  0  0
  6 26  1  0  0  0  0
  7 13  1  0  0  0  0
  7  8  1  0  0  0  0
  8  9  2  0  0  0  0
  8 27  1  0  0  0  0
  9 10  1  0  0  0  0
  9 28  1  0  0  0  0
 10 11  2  0  0  0  0
 10 12  1  0  0  0  0
 12 13  1  0  0  0  0
 13 14  2  0  0  0  0
 15 19  1  0  0  0  0
 15 16  1  0  0  0  0
 15 29  1  0  0  0  0
 16 17  1  0  0  0  0
 16 30  1  0  0  0  0
 16 31  1  0  0  0  0
 17 18  1  0  0  0  0
 17 32  1  0  0  0  0
 17 33  1  0  0  0  0
 18 19  1  0  0  0  0
 18 34  1  0  0  0  0
 18 35  1  0  0  0  0
M  CHG  1  12  -1
M  END
> <s_m_source_file>
AV-unprocessed.smi

> <i_m_source_file_index>
1403

> <i_lp_mmshare_version>
43012

> <i_f3d_flags>
0

> <s_epik_input>
TzFbQ0gyXVtDSDJdW0NIMl1bQ0BIXTFbQ0BIXShbQ0gzXSlbTkhdQyg9TylbQ0gyXW4yW2NIXVtjSF1jKD1PKVtuSF1jMj1P

> <s_epik_cmdline>
J2VwaWtfcHl0aG9uJywgJy1waCcsICc3LjAnLCAnLXRuJywgJzgnLCAnLW1hJywgJzIwMCcsICctbWV0YWxfYmluZGluZycsICctaW1hZScsICc8aW5maWxlLm1hZT4nLCAnLW9tYWUnLCAnPG91dGZpbGUubWFlPic=

> <r_lp_tautomer_probability>
0.999537

> <r_epik_Ionization_Penalty>
3.07438

> <r_epik_Ionization_Penalty_Charging>
2.82466e-08

> <r_epik_Ionization_Penalty_Neutral>
3.07438

> <r_epik_State_Penalty>
3.07341

> <r_epik_Charging_Adjusted_Penalty>
3.07341

> <i_epik_Tot_Q>
-1

> <i_epik_Tot_abs_Q>
1

> <r_epik_Metal_State_Penalty>
0.45947

> <b_epik_Metal_Only>
1

> <s_lp_Force_Field>
OPLS_2005

> <r_lp_Energy>
26.9379

> <b_lp_Chiralities_Consistent>
1

> <s_lp_Variant>
AV-unprocessed.smi:1403-7

> <Gold.Version>
5.8.1

> <Gold.Id.Protein>
6NUR|6NUR_protein|mol2

> <Gold.PLP.Fitness>
38.8271

> <Gold.PLP.PLP>
-39.7725

> <Gold.PLP.part.hbond>
-1.2234

> <Gold.PLP.part.metal>
0.0000

> <Gold.PLP.part.buried>
-3.2827

> <Gold.PLP.part.nonpolar>
-35.9257

> <Gold.PLP.part.repulsive>
0.4572

> <Gold.PLP.ligand.clash>
0.0000

> <Gold.PLP.ligand.torsion>
0.6314

> <Gold.PLP.Chemscore.Hbond>
0.0972

> <Gold.PLP.Chemscore.CHOScore>
0.0000

> <Gold.PLP.Chemscore.Metal>
0.0000

> <Gold.PLP.Chemscore.Internal.Correction>
0.0257

> <Gold.Rescore>
     Score         DG    S(hbond)    S(metal)    S(lipo)     H(rot)  DE(clash)    DE(int)     intcor
      9.91     -10.22       0.00        0.00      84.18       1.99       0.09       0.23       ----

> <Gold.Chemscore.Fitness>
9.9101

> <Gold.Chemscore.DG>
-10.2240

> <Gold.Chemscore.ZeroCoef>
-5.4800

> <Gold.Chemscore.Hbond>
0.0000

> <Gold.Chemscore.Metal>
0.0000

> <Gold.Chemscore.Lipo>
84.1768

> <Gold.Chemscore.Internal_Hbond>
0.0000

> <Gold.Chemscore.DEClash>
0.0853

> <Gold.Chemscore.DEInternal>
0.2286

> <Gold.Chemscore.Rot>
1.9940

> <Gold.Chemscore.Internal.Correction>
   9.000000E+99

> <Gold.Chemscore.Hbond.Weighted>
-0.0000

> <Gold.Chemscore.Metal.Weighted>
-0.0000

> <Gold.Chemscore.Lipo.Weighted>
-9.8487

> <Gold.Chemscore.Internal_Hbond.Weighted>
0.0000

> <Gold.Chemscore.DEClash.Weighted>
0.0853

> <Gold.Chemscore.DEInternal.Weighted>
0.2286

> <Gold.Chemscore.Rot.Weighted>
5.1047

> <Gold.Chemscore.Internal.Correction.Weighted>
   9.000000E+99

> <Gold.Protein.RotatedTorsions>
[ 6907 6896 6895 6894 ] final  -81.79 input  -60.11 | X-H torsion
[ 7974 7965 7964 7962 ] final -135.98 input  175.53 | X-H torsion
[ 8008 7997 7996 7995 ] final   59.38 input   59.86 | X-H torsion
[ 10167 10162 10161 10158 ] final  132.00 input  -65.29 | X-H torsion
[ 10718 10713 10712 10709 ] final   -1.61 input   66.30 | X-H torsion
[ 10763 10752 10751 10750 ] final  108.80 input  -60.55 | X-H torsion
[ 11005 11000 10999 10996 ] final -142.23 input  -57.11 | X-H torsion

> <Gold.Protein.ActiveResidues>
 VAL166  LYS551  ARG553  GLY616  TRP617  ASP618  TYR619  PRO620  LYS621  CYS622 
 ASP623  PHE694  ASN695  SER759  ASP760  ASP761  ALA762  ILE779  LEU786  VAL792 
 PHE793  MET794  SER795  GLU796  ALA797  LYS798  CYS799  TRP800  GLU811  SER814 

> <Gold.Protein.RotatedAtoms>
  150.6906  134.3764  159.5014 H   0  0  0  0  0  0  0  0  0  0  0  0  # atno 6907 bound_to 6896
  152.1572  134.8938  160.0553 H   0  0  0  0  0  0  0  0  0  0  0  0  # atno 6908 bound_to 6896
  152.0014  133.3792  159.4220 H   0  0  0  0  0  0  0  0  0  0  0  0  # atno 6909 bound_to 6896
  144.8967  140.6715  143.5111 H   0  0  0  0  0  0  0  0  0  0  0  0  # atno 7974 bound_to 7965
  155.5653  140.3489  155.4501 H   0  0  0  0  0  0  0  0  0  0  0  0  # atno 8008 bound_to 7997
  156.0484  140.1312  157.0103 H   0  0  0  0  0  0  0  0  0  0  0  0  # atno 8009 bound_to 7997
  154.4423  140.1010  156.6325 H   0  0  0  0  0  0  0  0  0  0  0  0  # atno 8010 bound_to 7997
  139.5359  144.6681  151.4789 H   0  0  0  0  0  0  0  0  0  0  0  0  # atno 10167 bound_to 10162
  156.8031  130.5399  149.5719 H   0  0  0  0  0  0  0  0  0  0  0  0  # atno 10718 bound_to 10713
  153.4258  135.3800  155.2139 H   0  0  0  0  0  0  0  0  0  0  0  0  # atno 10763 bound_to 10752
  154.8747  135.3828  154.4328 H   0  0  0  0  0  0  0  0  0  0  0  0  # atno 10764 bound_to 10752
  153.4855  135.7088  153.5977 H   0  0  0  0  0  0  0  0  0  0  0  0  # atno 10765 bound_to 10752
  140.8245  134.2591  157.4885 H   0  0  0  0  0  0  0  0  0  0  0  0  # atno 11005 bound_to 11000
  145.3688  139.1663  143.4343 LP  0  0  0  0  0  0  0  0  0  0  0  0  # atno 17320 bound_to 7965
  146.3085  140.3758  142.8679 LP  0  0  0  0  0  0  0  0  0  0  0  0  # atno 17321 bound_to 7965
  140.6564  143.8589  150.6840 LP  0  0  0  0  0  0  0  0  0  0  0  0  # atno 17342 bound_to 10162
  140.1970  143.3990  152.1820 LP  0  0  0  0  0  0  0  0  0  0  0  0  # atno 17343 bound_to 10162
  156.1089  130.6025  151.0015 LP  0  0  0  0  0  0  0  0  0  0  0  0  # atno 17370 bound_to 10713
  157.6543  131.0892  150.7981 LP  0  0  0  0  0  0  0  0  0  0  0  0  # atno 17371 bound_to 10713
  139.8707  134.9553  156.4203 LP  0  0  0  0  0  0  0  0  0  0  0  0  # atno 17394 bound_to 11000
  140.9063  133.7743  155.9739 LP  0  0  0  0  0  0  0  0  0  0  0  0  # atno 17395 bound_to 11000

$$$$
