AV-unprocessed.smi:264|AV-procd|sdf|2011|dock4
  -GOLD-   2262021213D 1   1.00000     0.00000
 Structure written by MMmdl.
 52 56  0  0  0  0  0  0  0  0  1 V2000
  142.9173  133.4228  151.6986 C   0  0  0  0  0  0  0  0  0  0  0  0
  144.0818  133.7436  150.7482 C   0  0  2  0  0  0  0  0  0  0  0  0
  145.0108  132.6652  150.8192 O   0  0  0  0  0  0  0  0  0  0  0  0
  146.3091  133.1654  150.5548 C   0  0  0  0  0  0  0  0  0  0  0  0
  146.3077  134.4867  151.3082 C   0  0  0  0  0  0  0  0  0  0  0  0
  144.9039  135.0290  151.0517 C   0  0  1  0  0  0  0  0  0  0  0  0
  144.9481  135.7999  149.8621 O   0  0  0  0  0  0  0  0  0  0  0  0
  144.3720  135.9372  152.1915 C   0  0  0  0  0  0  0  0  0  0  0  0
  145.3508  136.9044  152.6668 N   0  0  0  0  0  0  0  0  0  0  0  0
  146.0059  137.8508  151.9141 C   0  0  0  0  0  0  0  0  0  0  0  0
  146.8406  138.6040  152.5748 N   0  0  0  0  0  0  0  0  0  0  0  0
  146.7506  138.1565  153.8895 C   0  0  0  0  0  0  0  0  0  0  0  0
  147.3735  138.5214  155.1231 C   0  0  0  0  0  0  0  0  0  0  0  0
  148.2785  139.5219  155.2908 N   0  0  0  0  0  0  0  0  0  0  0  0
  147.9539  140.8100  154.6866 C   0  0  0  0  0  0  0  0  0  0  0  0
  149.2255  141.6582  154.5459 C   0  0  0  0  0  0  0  0  0  0  0  0
  149.8818  141.7769  155.8070 O   0  0  0  0  0  0  0  0  0  0  0  0
  150.2559  140.5274  156.3943 C   0  0  2  0  0  0  0  0  0  0  0  0
  150.8900  140.8207  157.7492 C   0  0  0  0  0  0  0  0  0  0  0  0
  151.9409  139.7296  157.8816 C   0  0  0  0  0  0  0  0  0  0  0  0
  152.4750  139.6608  156.5725 O   0  0  0  0  0  0  0  0  0  0  0  0
  151.4108  139.8263  155.6411 C   0  0  0  0  0  0  0  0  0  0  0  0
  149.0044  139.6322  156.5503 C   0  0  0  0  0  0  0  0  0  0  0  0
  147.0196  137.8141  156.2280 N   0  0  0  0  0  0  0  0  0  0  0  0
  146.1229  136.8279  156.1482 C   0  0  0  0  0  0  0  0  0  0  0  0
  145.4637  136.3864  155.0769 N   0  0  0  0  0  0  0  0  0  0  0  0
  145.8147  137.0829  153.9588 C   0  0  0  0  0  0  0  0  0  0  0  0
  142.1636  134.2103  151.6855 H   0  0  0  0  0  0  0  0  0  0  0  0
  143.2612  133.2937  152.7250 H   0  0  0  0  0  0  0  0  0  0  0  0
  142.4252  132.4963  151.4021 H   0  0  0  0  0  0  0  0  0  0  0  0
  143.6931  133.7732  149.7284 H   0  0  0  0  0  0  0  0  0  0  0  0
  147.0835  132.4812  150.9017 H   0  0  0  0  0  0  0  0  0  0  0  0
  146.4360  133.3215  149.4824 H   0  0  0  0  0  0  0  0  0  0  0  0
  146.4417  134.2790  152.3703 H   0  0  0  0  0  0  0  0  0  0  0  0
  147.1069  135.1615  150.9980 H   0  0  0  0  0  0  0  0  0  0  0  0
  144.6237  136.6663  150.0546 H   0  0  0  0  0  0  0  0  0  0  0  0
  143.4876  136.4844  151.8624 H   0  0  0  0  0  0  0  0  0  0  0  0
  144.0614  135.3353  153.0458 H   0  0  0  0  0  0  0  0  0  0  0  0
  145.8489  137.9620  150.8511 H   0  0  0  0  0  0  0  0  0  0  0  0
  147.4905  140.6962  153.7064 H   0  0  0  0  0  0  0  0  0  0  0  0
  147.2308  141.3231  155.3219 H   0  0  0  0  0  0  0  0  0  0  0  0
  149.8931  141.2243  153.8012 H   0  0  0  0  0  0  0  0  0  0  0  0
  148.9696  142.6561  154.1901 H   0  0  0  0  0  0  0  0  0  0  0  0
  151.3878  141.7912  157.7294 H   0  0  0  0  0  0  0  0  0  0  0  0
  150.1781  140.8316  158.5751 H   0  0  0  0  0  0  0  0  0  0  0  0
  152.7085  139.9677  158.6179 H   0  0  0  0  0  0  0  0  0  0  0  0
  151.4866  138.7740  158.1480 H   0  0  0  0  0  0  0  0  0  0  0  0
  151.1068  138.8521  155.2563 H   0  0  0  0  0  0  0  0  0  0  0  0
  151.7805  140.4123  154.7999 H   0  0  0  0  0  0  0  0  0  0  0  0
  148.3339  140.0582  157.2979 H   0  0  0  0  0  0  0  0  0  0  0  0
  149.3039  138.6452  156.9048 H   0  0  0  0  0  0  0  0  0  0  0  0
  145.9015  136.3209  157.0756 H   0  0  0  0  0  0  0  0  0  0  0  0
  1  2  1  0  0  0  0
  1 28  1  0  0  0  0
  1 29  1  0  0  0  0
  1 30  1  0  0  0  0
  2  6  1  0  0  0  0
  2  3  1  0  0  0  0
  2 31  1  0  0  0  0
  3  4  1  0  0  0  0
  4  5  1  0  0  0  0
  4 32  1  0  0  0  0
  4 33  1  0  0  0  0
  5  6  1  0  0  0  0
  5 34  1  0  0  0  0
  5 35  1  0  0  0  0
  6  7  1  0  0  0  0
  6  8  1  0  0  0  0
  7 36  1  0  0  0  0
  8  9  1  0  0  0  0
  8 37  1  0  0  0  0
  8 38  1  0  0  0  0
  9 27  1  0  0  0  0
  9 10  1  0  0  0  0
 10 11  2  0  0  0  0
 10 39  1  0  0  0  0
 11 12  1  0  0  0  0
 12 27  2  0  0  0  0
 12 13  1  0  0  0  0
 13 14  1  0  0  0  0
 13 24  2  0  0  0  0
 14 23  1  0  0  0  0
 14 15  1  0  0  0  0
 15 16  1  0  0  0  0
 15 40  1  0  0  0  0
 15 41  1  0  0  0  0
 16 17  1  0  0  0  0
 16 42  1  0  0  0  0
 16 43  1  0  0  0  0
 17 18  1  0  0  0  0
 18 22  1  0  0  0  0
 18 19  1  0  0  0  0
 18 23  1  0  0  0  0
 19 20  1  0  0  0  0
 19 44  1  0  0  0  0
 19 45  1  0  0  0  0
 20 21  1  0  0  0  0
 20 46  1  0  0  0  0
 20 47  1  0  0  0  0
 21 22  1  0  0  0  0
 22 48  1  0  0  0  0
 22 49  1  0  0  0  0
 23 50  1  0  0  0  0
 23 51  1  0  0  0  0
 24 25  1  0  0  0  0
 25 26  2  0  0  0  0
 25 52  1  0  0  0  0
 26 27  1  0  0  0  0
M  END
> <s_m_source_file>
AV-unprocessed.smi

> <i_m_source_file_index>
264

> <i_lp_mmshare_version>
43012

> <i_f3d_flags>
0

> <s_epik_input>
W0NIMl0xW0NIMl1PW0NAQEhdKFtDSDNdKVtDQEBdMShbT0hdKVtDSDJdbihbY0hdbjIpYyhjMjMpbltjSF1uYzNOKFtDSDJdNClbQ0gyXVtDSDJdT1tDQF00NVtDSDJdW0NIMl1PW0NIMl01

> <s_epik_cmdline>
J2VwaWtfcHl0aG9uJywgJy1waCcsICc3LjAnLCAnLXRuJywgJzgnLCAnLW1hJywgJzIwMCcsICctbWV0YWxfYmluZGluZycsICctaW1hZScsICc8aW5maWxlLm1hZT4nLCAnLW9tYWUnLCAnPG91dGZpbGUubWFlPic=

> <r_lp_tautomer_probability>
1

> <r_epik_Ionization_Penalty>
0.00539389

> <r_epik_Ionization_Penalty_Charging>
0

> <r_epik_Ionization_Penalty_Neutral>
0.00539389

> <r_epik_State_Penalty>
0.00375441

> <r_epik_Charging_Adjusted_Penalty>
0.00375441

> <i_epik_Tot_Q>
0

> <i_epik_Tot_abs_Q>
0

> <r_epik_Metal_State_Penalty>
-0

> <b_epik_Metal_Only>
0

> <s_lp_Force_Field>
OPLS_2005

> <r_lp_Energy>
55.2391

> <b_lp_Chiralities_Consistent>
1

> <s_lp_Variant>
AV-unprocessed.smi:264-5

> <Gold.Version>
5.8.1

> <Gold.Id.Protein>
6NUR|6NUR_protein|mol2

> <Gold.PLP.Fitness>
42.5185

> <Gold.PLP.PLP>
-34.5158

> <Gold.PLP.part.hbond>
-3.0000

> <Gold.PLP.part.metal>
0.0000

> <Gold.PLP.part.buried>
-2.8728

> <Gold.PLP.part.nonpolar>
-29.6586

> <Gold.PLP.part.repulsive>
0.7299

> <Gold.PLP.ligand.clash>
0.0000

> <Gold.PLP.ligand.torsion>
0.6142

> <Gold.PLP.Chemscore.Hbond>
1.9913

> <Gold.PLP.Chemscore.CHOScore>
0.9860

> <Gold.PLP.Chemscore.Metal>
0.0000

> <Gold.Chemscore.Hbonds>
donor molecule, donor type, donor heavy atom, donor atom, acceptor molecule, acceptor atom, score
      L1  H     7    36       P1 10171  0.93
      P1  H  7997  8009       L1    21  1.00
      L1  C    10    39       P1 10171  0.94

> <Gold.PLP.Chemscore.Internal.Correction>
0.2994

> <Gold.Rescore>
     Score         DG    S(hbond)    S(metal)    S(lipo)     H(rot)  DE(clash)    DE(int)     intcor
     15.43     -16.10       1.96        0.00      74.05       1.79       0.15       0.52       ----

> <Gold.Chemscore.Fitness>
15.4298

> <Gold.Chemscore.DG>
-16.1024

> <Gold.Chemscore.ZeroCoef>
-5.4800

> <Gold.Chemscore.Hbond>
1.9611

> <Gold.Chemscore.Metal>
0.0000

> <Gold.Chemscore.Lipo>
74.0475

> <Gold.Chemscore.Internal_Hbond>
0.0000

> <Gold.Chemscore.DEClash>
0.1477

> <Gold.Chemscore.DEInternal>
0.5249

> <Gold.Chemscore.Rot>
1.7935

> <Gold.Chemscore.Internal.Correction>
   9.000000E+99

> <Gold.Chemscore.Hbonds>
donor molecule, donor type, donor heavy atom, donor atom, acceptor molecule, acceptor atom, score
      L1  H     7    36       P1 10171  0.88
      P1  H  7997  8009       L1    21  0.85

> <Gold.Chemscore.Hbond.Weighted>
-6.5501

> <Gold.Chemscore.Metal.Weighted>
-0.0000

> <Gold.Chemscore.Lipo.Weighted>
-8.6636

> <Gold.Chemscore.Internal_Hbond.Weighted>
0.0000

> <Gold.Chemscore.DEClash.Weighted>
0.1477

> <Gold.Chemscore.DEInternal.Weighted>
0.5249

> <Gold.Chemscore.Rot.Weighted>
4.5913

> <Gold.Chemscore.Internal.Correction.Weighted>
   9.000000E+99

> <Gold.Protein.RotatedTorsions>
[ 6907 6896 6895 6894 ] final  -54.75 input  -60.11 | X-H torsion
[ 7974 7965 7964 7962 ] final -124.13 input  175.53 | X-H torsion
[ 8008 7997 7996 7995 ] final -170.97 input   59.86 | X-H torsion
[ 10167 10162 10161 10158 ] final   70.33 input  -65.29 | X-H torsion
[ 10718 10713 10712 10709 ] final  163.17 input   66.30 | X-H torsion
[ 10763 10752 10751 10750 ] final   68.29 input  -60.55 | X-H torsion
[ 11005 11000 10999 10996 ] final -163.60 input  -57.11 | X-H torsion

> <Gold.Protein.ActiveResidues>
 VAL166  LYS551  ARG553  GLY616  TRP617  ASP618  TYR619  PRO620  LYS621  CYS622 
 ASP623  PHE694  ASN695  SER759  ASP760  ASP761  ALA762  ILE779  LEU786  VAL792 
 PHE793  MET794  SER795  GLU796  ALA797  LYS798  CYS799  TRP800  GLU811  SER814 

> <Gold.Protein.RotatedAtoms>
  150.8311  134.7564  159.6853 H   0  0  0  0  0  0  0  0  0  0  0  0  # atno 6907 bound_to 6896
  152.4415  134.5578  159.9895 H   0  0  0  0  0  0  0  0  0  0  0  0  # atno 6908 bound_to 6896
  151.5738  133.3349  159.3031 H   0  0  0  0  0  0  0  0  0  0  0  0  # atno 6909 bound_to 6896
  145.0113  140.7908  143.4437 H   0  0  0  0  0  0  0  0  0  0  0  0  # atno 7974 bound_to 7965
  155.9253  140.1081  157.1175 H   0  0  0  0  0  0  0  0  0  0  0  0  # atno 8008 bound_to 7997
  154.4061  140.1248  156.4798 H   0  0  0  0  0  0  0  0  0  0  0  0  # atno 8009 bound_to 7997
  155.7146  140.3470  155.4991 H   0  0  0  0  0  0  0  0  0  0  0  0  # atno 8010 bound_to 7997
  140.0581  144.5256  150.7314 H   0  0  0  0  0  0  0  0  0  0  0  0  # atno 10167 bound_to 10162
  157.1123  131.0471  151.2452 H   0  0  0  0  0  0  0  0  0  0  0  0  # atno 10718 bound_to 10713
  153.0228  135.5253  154.7112 H   0  0  0  0  0  0  0  0  0  0  0  0  # atno 10763 bound_to 10752
  154.6194  135.2887  155.0346 H   0  0  0  0  0  0  0  0  0  0  0  0  # atno 10764 bound_to 10752
  154.1338  135.6589  153.4980 H   0  0  0  0  0  0  0  0  0  0  0  0  # atno 10765 bound_to 10752
  140.5963  134.4993  157.5199 H   0  0  0  0  0  0  0  0  0  0  0  0  # atno 11005 bound_to 11000
  145.2019  139.2248  143.5188 LP  0  0  0  0  0  0  0  0  0  0  0  0  # atno 17320 bound_to 7965
  146.3470  140.1838  142.8589 LP  0  0  0  0  0  0  0  0  0  0  0  0  # atno 17321 bound_to 7965
  140.7185  143.2566  151.4357 LP  0  0  0  0  0  0  0  0  0  0  0  0  # atno 17342 bound_to 10162
  139.5911  144.1498  152.2089 LP  0  0  0  0  0  0  0  0  0  0  0  0  # atno 17343 bound_to 10162
  157.4548  130.7619  149.7183 LP  0  0  0  0  0  0  0  0  0  0  0  0  # atno 17370 bound_to 10713
  155.9847  130.3989  150.3296 LP  0  0  0  0  0  0  0  0  0  0  0  0  # atno 17371 bound_to 10713
  139.9252  134.8070  156.1091 LP  0  0  0  0  0  0  0  0  0  0  0  0  # atno 17394 bound_to 11000
  141.0902  133.6717  156.2523 LP  0  0  0  0  0  0  0  0  0  0  0  0  # atno 17395 bound_to 11000

$$$$
