AV-unprocessed.smi:2973|AV-procd|sdf|11347|dock3
  -GOLD-   2272016263D 1   1.00000     0.00000
 Structure written by MMmdl.
 48 50  0  0  0  0  0  0  0  0  2 V2000
  152.4027  139.4728  158.8232 C   0  0  0  0  0  0  0  0  0  0  0  0
  152.4218  140.9220  158.2877 C   0  0  2  0  0  0  0  0  0  0  0  0
  152.3552  141.9385  159.4480 C   0  0  0  0  0  0  0  0  0  0  0  0
  152.4890  143.3849  158.9488 C   0  0  0  0  0  0  0  0  0  0  0  0
  151.4181  143.7091  157.8994 C   0  0  0  0  0  0  0  0  0  0  0  0
  151.4678  142.7142  156.7266 C   0  0  0  0  0  0  0  0  0  0  0  0
  151.3544  141.2378  157.1886 C   0  0  2  0  0  0  0  0  0  0  0  0
  150.0029  140.9588  157.6485 N   0  5  0  0  0  0  0  0  0  0  0  0
  149.4446  140.0298  156.8389 C   0  0  0  0  0  0  0  0  0  0  0  0
  148.3159  139.5503  156.9381 O   0  0  0  0  0  0  0  0  0  0  0  0
  150.3033  139.6523  155.8724 N   0  0  0  0  0  0  0  0  0  0  0  0
  150.0316  138.6299  154.8494 C   0  0  0  0  0  0  0  0  0  0  0  0
  150.3495  137.1852  155.2741 C   0  0  0  0  0  0  0  0  0  0  0  0
  151.0236  136.9958  156.2862 O   0  0  0  0  0  0  0  0  0  0  0  0
  149.8796  136.1789  154.5172 N   0  0  0  0  0  0  0  0  0  0  0  0
  150.1120  134.7604  154.7571 C   0  0  0  0  0  0  0  0  0  0  0  0
  149.0665  133.8901  154.0396 C   0  0  0  0  0  0  0  0  0  0  0  0
  149.3484  132.4073  154.1903 C   0  0  0  0  0  0  0  0  0  0  0  0
  148.6082  131.4558  153.4561 C   0  0  0  0  0  0  0  0  0  0  0  0
  148.9112  130.0912  153.6287 C   0  0  0  0  0  0  0  0  0  0  0  0
  149.9374  129.7325  154.5239 C   0  0  0  0  0  0  0  0  0  0  0  0
  150.6192  130.7589  155.2080 C   0  0  0  0  0  0  0  0  0  0  0  0
  150.3378  132.0699  155.0482 N   0  0  0  0  0  0  0  0  0  0  0  0
  151.4640  140.3065  155.9898 C   0  0  0  0  0  0  0  0  0  0  0  0
  152.4662  140.1898  155.2832 O   0  0  0  0  0  0  0  0  0  0  0  0
  151.4562  139.2358  159.3095 H   0  0  0  0  0  0  0  0  0  0  0  0
  153.1935  139.3201  159.5575 H   0  0  0  0  0  0  0  0  0  0  0  0
  152.5625  138.7432  158.0296 H   0  0  0  0  0  0  0  0  0  0  0  0
  153.4010  141.0552  157.8241 H   0  0  0  0  0  0  0  0  0  0  0  0
  151.4148  141.8244  159.9886 H   0  0  0  0  0  0  0  0  0  0  0  0
  153.1478  141.7336  160.1685 H   0  0  0  0  0  0  0  0  0  0  0  0
  152.4071  144.0761  159.7880 H   0  0  0  0  0  0  0  0  0  0  0  0
  153.4802  143.5352  158.5194 H   0  0  0  0  0  0  0  0  0  0  0  0
  150.4315  143.6851  158.3638 H   0  0  0  0  0  0  0  0  0  0  0  0
  151.5569  144.7250  157.5292 H   0  0  0  0  0  0  0  0  0  0  0  0
  150.6805  142.9563  156.0104 H   0  0  0  0  0  0  0  0  0  0  0  0
  152.4093  142.8579  156.1940 H   0  0  0  0  0  0  0  0  0  0  0  0
  148.9818  138.6770  154.5557 H   0  0  0  0  0  0  0  0  0  0  0  0
  150.5960  138.8514  153.9422 H   0  0  0  0  0  0  0  0  0  0  0  0
  149.3367  136.4203  153.7000 H   0  0  0  0  0  0  0  0  0  0  0  0
  151.1206  134.4873  154.4423 H   0  0  0  0  0  0  0  0  0  0  0  0
  150.0642  134.5900  155.8331 H   0  0  0  0  0  0  0  0  0  0  0  0
  148.0711  134.1030  154.4322 H   0  0  0  0  0  0  0  0  0  0  0  0
  149.0341  134.1374  152.9776 H   0  0  0  0  0  0  0  0  0  0  0  0
  147.8275  131.7632  152.7757 H   0  0  0  0  0  0  0  0  0  0  0  0
  148.3660  129.3343  153.0846 H   0  0  0  0  0  0  0  0  0  0  0  0
  150.1960  128.6960  154.6823 H   0  0  0  0  0  0  0  0  0  0  0  0
  151.4113  130.5202  155.9023 H   0  0  0  0  0  0  0  0  0  0  0  0
  1  2  1  0  0  0  0
  1 26  1  0  0  0  0
  1 27  1  0  0  0  0
  1 28  1  0  0  0  0
  2  7  1  0  0  0  0
  2  3  1  0  0  0  0
  2 29  1  0  0  0  0
  3  4  1  0  0  0  0
  3 30  1  0  0  0  0
  3 31  1  0  0  0  0
  4  5  1  0  0  0  0
  4 32  1  0  0  0  0
  4 33  1  0  0  0  0
  5  6  1  0  0  0  0
  5 34  1  0  0  0  0
  5 35  1  0  0  0  0
  6  7  1  0  0  0  0
  6 36  1  0  0  0  0
  6 37  1  0  0  0  0
  7 24  1  0  0  0  0
  7  8  1  0  0  0  0
  8  9  1  0  0  0  0
  9 10  2  0  0  0  0
  9 11  1  0  0  0  0
 11 12  1  0  0  0  0
 11 24  1  0  0  0  0
 12 13  1  0  0  0  0
 12 38  1  0  0  0  0
 12 39  1  0  0  0  0
 13 14  2  0  0  0  0
 13 15  1  0  0  0  0
 15 16  1  0  0  0  0
 15 40  1  0  0  0  0
 16 17  1  0  0  0  0
 16 41  1  0  0  0  0
 16 42  1  0  0  0  0
 17 18  1  0  0  0  0
 17 43  1  0  0  0  0
 17 44  1  0  0  0  0
 18 23  1  0  0  0  0
 18 19  2  0  0  0  0
 19 20  1  0  0  0  0
 19 45  1  0  0  0  0
 20 21  2  0  0  0  0
 20 46  1  0  0  0  0
 21 22  1  0  0  0  0
 21 47  1  0  0  0  0
 22 23  2  0  0  0  0
 22 48  1  0  0  0  0
 24 25  2  0  0  0  0
M  CHG  1   8  -1
M  END
> <s_m_source_file>
AV-unprocessed.smi

> <i_m_source_file_index>
2973

> <i_lp_mmshare_version>
43012

> <i_f3d_flags>
0

> <s_epik_input>
W0NIMl0xW0NIMl1bQ0gyXVtDSDJdW0NAQEhdKFtDSDNdKVtDQF0xMltOSF1DKD1PKU4oQzI9TylbQ0gyXUMoPU8pW05IXVtDSDJdW0NIMl1jM1tjSF1bY0hdW2NIXVtjSF1uMw==

> <s_epik_cmdline>
J2VwaWtfcHl0aG9uJywgJy1waCcsICc3LjAnLCAnLXRuJywgJzgnLCAnLW1hJywgJzIwMCcsICctbWV0YWxfYmluZGluZycsICctaW1hZScsICc8aW5maWxlLm1hZT4nLCAnLW9tYWUnLCAnPG91dGZpbGUubWFlPic=

> <r_lp_tautomer_probability>
1

> <r_epik_Ionization_Penalty>
6.04175

> <r_epik_Ionization_Penalty_Charging>
6.01728

> <r_epik_Ionization_Penalty_Neutral>
0.0244696

> <r_epik_State_Penalty>
6.03712

> <r_epik_Charging_Adjusted_Penalty>
12.0544

> <i_epik_Tot_Q>
-1

> <i_epik_Tot_abs_Q>
1

> <r_epik_Metal_State_Penalty>
2.01153

> <b_epik_Metal_Only>
1

> <s_lp_Force_Field>
OPLS_2005

> <r_lp_Energy>
17.3345

> <b_lp_Chiralities_Consistent>
1

> <s_lp_Variant>
AV-unprocessed.smi:2973-11

> <Gold.Version>
5.8.1

> <Gold.Id.Protein>
6NUR|6NUR_protein|mol2

> <Gold.PLP.Fitness>
48.2301

> <Gold.PLP.PLP>
-42.3500

> <Gold.PLP.part.hbond>
-3.0785

> <Gold.PLP.part.metal>
0.0000

> <Gold.PLP.part.buried>
-3.4620

> <Gold.PLP.part.nonpolar>
-35.7662

> <Gold.PLP.part.repulsive>
0.0864

> <Gold.PLP.ligand.clash>
0.0000

> <Gold.PLP.ligand.torsion>
0.7429

> <Gold.PLP.Chemscore.Hbond>
2.4408

> <Gold.PLP.Chemscore.CHOScore>
0.0000

> <Gold.PLP.Chemscore.Metal>
0.0000

> <Gold.Chemscore.Hbonds>
donor molecule, donor type, donor heavy atom, donor atom, acceptor molecule, acceptor atom, score
      L1  H    15    40       P1  7948  0.99
      P1  H  7989  7998       L1    25  0.49
      P1  H  7997  8008       L1    25  0.91

> <Gold.PLP.Chemscore.Internal.Correction>
0.0436

> <Gold.Rescore>
     Score         DG    S(hbond)    S(metal)    S(lipo)     H(rot)  DE(clash)    DE(int)     intcor
     17.51     -19.43       1.85        0.00     106.11       1.81       1.22       0.70       ----

> <Gold.Chemscore.Fitness>
17.5084

> <Gold.Chemscore.DG>
-19.4318

> <Gold.Chemscore.ZeroCoef>
-5.4800

> <Gold.Chemscore.Hbond>
1.8467

> <Gold.Chemscore.Metal>
0.0000

> <Gold.Chemscore.Lipo>
106.1112

> <Gold.Chemscore.Internal_Hbond>
0.0000

> <Gold.Chemscore.DEClash>
1.2219

> <Gold.Chemscore.DEInternal>
0.7015

> <Gold.Chemscore.Rot>
1.8090

> <Gold.Chemscore.Internal.Correction>
   9.000000E+99

> <Gold.Chemscore.Hbonds>
donor molecule, donor type, donor heavy atom, donor atom, acceptor molecule, acceptor atom, score
      L1  H    15    40       P1  7948  0.82
      P1  H  7989  7998       L1    25  0.11
      P1  H  7997  8008       L1    25  0.85

> <Gold.Chemscore.Hbond.Weighted>
-6.1678

> <Gold.Chemscore.Metal.Weighted>
-0.0000

> <Gold.Chemscore.Lipo.Weighted>
-12.4150

> <Gold.Chemscore.Internal_Hbond.Weighted>
0.0000

> <Gold.Chemscore.DEClash.Weighted>
1.2219

> <Gold.Chemscore.DEInternal.Weighted>
0.7015

> <Gold.Chemscore.Rot.Weighted>
4.6310

> <Gold.Chemscore.Internal.Correction.Weighted>
   9.000000E+99

> <Gold.Protein.RotatedTorsions>
[ 6907 6896 6895 6894 ] final -128.89 input  -60.11 | X-H torsion
[ 7974 7965 7964 7962 ] final -179.27 input  175.53 | X-H torsion
[ 8008 7997 7996 7995 ] final  -29.53 input   59.86 | X-H torsion
[ 10167 10162 10161 10158 ] final   95.61 input  -65.29 | X-H torsion
[ 10718 10713 10712 10709 ] final  118.06 input   66.30 | X-H torsion
[ 10763 10752 10751 10750 ] final -141.85 input  -60.55 | X-H torsion
[ 11005 11000 10999 10996 ] final  -71.38 input  -57.11 | X-H torsion

> <Gold.Protein.ActiveResidues>
 VAL166  LYS551  ARG553  GLY616  TRP617  ASP618  TYR619  PRO620  LYS621  CYS622 
 ASP623  PHE694  ASN695  SER759  ASP760  ASP761  ALA762  ILE779  LEU786  VAL792 
 PHE793  MET794  SER795  GLU796  ALA797  LYS798  CYS799  TRP800  GLU811  SER814 

> <Gold.Protein.RotatedAtoms>
  150.9228  133.6859  159.2827 H   0  0  0  0  0  0  0  0  0  0  0  0  # atno 6907 bound_to 6896
  151.4308  135.1008  159.9651 H   0  0  0  0  0  0  0  0  0  0  0  0  # atno 6908 bound_to 6896
  152.4988  133.8659  159.7329 H   0  0  0  0  0  0  0  0  0  0  0  0  # atno 6909 bound_to 6896
  144.7135  140.0743  143.6428 H   0  0  0  0  0  0  0  0  0  0  0  0  # atno 7974 bound_to 7965
  154.4286  140.1816  156.1262 H   0  0  0  0  0  0  0  0  0  0  0  0  # atno 8008 bound_to 7997
  156.0104  140.3351  155.6910 H   0  0  0  0  0  0  0  0  0  0  0  0  # atno 8009 bound_to 7997
  155.6119  140.0651  157.2694 H   0  0  0  0  0  0  0  0  0  0  0  0  # atno 8010 bound_to 7997
  139.7972  144.6828  150.9813 H   0  0  0  0  0  0  0  0  0  0  0  0  # atno 10167 bound_to 10162
  157.6055  131.1044  150.7703 H   0  0  0  0  0  0  0  0  0  0  0  0  # atno 10718 bound_to 10713
  154.8530  135.3512  154.5934 H   0  0  0  0  0  0  0  0  0  0  0  0  # atno 10763 bound_to 10752
  153.6544  135.6992  153.5203 H   0  0  0  0  0  0  0  0  0  0  0  0  # atno 10764 bound_to 10752
  153.2868  135.4247  155.1088 H   0  0  0  0  0  0  0  0  0  0  0  0  # atno 10765 bound_to 10752
  141.1591  133.6816  156.6897 H   0  0  0  0  0  0  0  0  0  0  0  0  # atno 11005 bound_to 11000
  145.9756  139.2903  143.1072 LP  0  0  0  0  0  0  0  0  0  0  0  0  # atno 17320 bound_to 7965
  145.9067  140.9207  143.0475 LP  0  0  0  0  0  0  0  0  0  0  0  0  # atno 17321 bound_to 7965
  140.7820  143.4319  151.0682 LP  0  0  0  0  0  0  0  0  0  0  0  0  # atno 17342 bound_to 10162
  139.7992  143.8107  152.3161 LP  0  0  0  0  0  0  0  0  0  0  0  0  # atno 17343 bound_to 10162
  156.8092  130.4947  149.5358 LP  0  0  0  0  0  0  0  0  0  0  0  0  # atno 17370 bound_to 10713
  156.1140  130.6061  151.0092 LP  0  0  0  0  0  0  0  0  0  0  0  0  # atno 17371 bound_to 10713
  140.3039  134.8141  157.4121 LP  0  0  0  0  0  0  0  0  0  0  0  0  # atno 17394 bound_to 11000
  140.1237  134.5186  155.8162 LP  0  0  0  0  0  0  0  0  0  0  0  0  # atno 17395 bound_to 11000

$$$$
