AV-unprocessed.smi:218|AV-procd|sdf|1676|dock3
  -GOLD-   2262020103D 1   1.00000     0.00000
 Structure written by MMmdl.
 54 57  0  0  0  0  0  0  0  0  1 V2000
  149.0076  142.3497  157.4368 C   0  0  0  0  0  0  0  0  0  0  0  0
  150.1422  141.3578  157.7205 C   0  0  0  0  0  0  0  0  0  0  0  0
  151.3653  142.0698  158.3242 C   0  0  0  0  0  0  0  0  0  0  0  0
  150.4872  140.7532  156.4723 O   0  0  0  0  0  0  0  0  0  0  0  0
  150.6418  139.3830  156.3839 C   0  0  0  0  0  0  0  0  0  0  0  0
  149.5557  138.5630  156.7527 C   0  0  0  0  0  0  0  0  0  0  0  0
  149.6968  137.1633  156.6639 C   0  0  0  0  0  0  0  0  0  0  0  0
  148.5521  136.2456  157.0423 C   0  0  0  0  0  0  0  0  0  0  0  0
  148.8099  134.8491  156.7179 N   0  0  0  0  0  0  0  0  0  0  0  0
  148.1104  134.2422  155.7356 C   0  0  0  0  0  0  0  0  0  0  0  0
  148.3609  132.9518  155.3929 N   0  0  0  0  0  0  0  0  0  0  0  0
  147.6553  132.3721  154.4175 C   0  0  0  0  0  0  0  0  0  0  0  0
  146.6761  132.8925  153.6748 N   0  0  0  0  0  0  0  0  0  0  0  0
  146.4181  134.1885  154.0149 C   0  0  0  0  0  0  0  0  0  0  0  0
  147.0906  134.9290  155.0272 C   0  0  0  0  0  0  0  0  0  0  0  0
  146.5717  136.2150  155.0940 N   0  0  0  0  0  0  0  0  0  0  0  0
  145.6452  136.2290  154.1740 C   0  0  0  0  0  0  0  0  0  0  0  0
  145.4850  135.0532  153.4746 N   0  0  0  0  0  0  0  0  0  0  0  0
  144.5041  134.7857  152.3717 C   0  0  2  0  0  0  0  0  0  0  0  0
  144.3195  133.4068  152.2329 O   0  0  0  0  0  0  0  0  0  0  0  0
  144.6851  132.9797  150.9202 C   0  0  1  0  0  0  0  0  0  0  0  0
  143.8072  131.7922  150.4961 C   0  0  0  0  0  0  0  0  0  0  0  0
  143.7882  131.6800  149.0893 O   0  0  0  0  0  0  0  0  0  0  0  0
  144.4591  134.2378  150.0798 C   0  0  2  0  0  0  0  0  0  0  0  0
  145.1372  134.2160  148.8383 O   0  0  0  0  0  0  0  0  0  0  0  0
  144.9532  135.3391  151.0060 C   0  0  2  0  0  0  0  0  0  0  0  0
  146.3547  135.5459  150.9083 O   0  0  0  0  0  0  0  0  0  0  0  0
  150.9256  136.6362  156.2166 C   0  0  0  0  0  0  0  0  0  0  0  0
  151.9549  137.5343  155.8754 C   0  0  0  0  0  0  0  0  0  0  0  0
  151.8239  138.8754  155.9540 N   0  0  0  0  0  0  0  0  0  0  0  0
  143.5704  135.2295  152.7196 H   0  0  0  0  0  0  0  0  0  0  0  0
  145.7433  132.7138  150.8993 H   0  0  0  0  0  0  0  0  0  0  0  0
  143.3910  134.3699  149.8993 H   0  0  0  0  0  0  0  0  0  0  0  0
  144.4518  136.2878  150.8121 H   0  0  0  0  0  0  0  0  0  0  0  0
  148.6791  142.8438  158.3514 H   0  0  0  0  0  0  0  0  0  0  0  0
  148.1442  141.8415  157.0068 H   0  0  0  0  0  0  0  0  0  0  0  0
  149.3231  143.1215  156.7341 H   0  0  0  0  0  0  0  0  0  0  0  0
  149.7556  140.6181  158.4233 H   0  0  0  0  0  0  0  0  0  0  0  0
  151.1040  142.5720  159.2558 H   0  0  0  0  0  0  0  0  0  0  0  0
  151.7588  142.8216  157.6396 H   0  0  0  0  0  0  0  0  0  0  0  0
  152.1721  141.3719  158.5462 H   0  0  0  0  0  0  0  0  0  0  0  0
  148.6304  139.0051  157.0922 H   0  0  0  0  0  0  0  0  0  0  0  0
  148.3754  136.3430  158.1143 H   0  0  0  0  0  0  0  0  0  0  0  0
  147.6432  136.5715  156.5345 H   0  0  0  0  0  0  0  0  0  0  0  0
  149.5489  134.3992  157.2389 H   0  0  0  0  0  0  0  0  0  0  0  0
  147.9102  131.3452  154.2008 H   0  0  0  0  0  0  0  0  0  0  0  0
  145.0476  137.1075  153.9773 H   0  0  0  0  0  0  0  0  0  0  0  0
  144.1522  130.8620  150.9480 H   0  0  0  0  0  0  0  0  0  0  0  0
  142.7792  131.9497  150.8236 H   0  0  0  0  0  0  0  0  0  0  0  0
  144.1360  132.4770  148.7188 H   0  0  0  0  0  0  0  0  0  0  0  0
  146.0167  133.9027  148.9886 H   0  0  0  0  0  0  0  0  0  0  0  0
  146.7579  135.2431  151.7076 H   0  0  0  0  0  0  0  0  0  0  0  0
  151.0787  135.5698  156.1375 H   0  0  0  0  0  0  0  0  0  0  0  0
  152.9094  137.1657  155.5297 H   0  0  0  0  0  0  0  0  0  0  0  0
  1  2  1  0  0  0  0
  1 35  1  0  0  0  0
  1 36  1  0  0  0  0
  1 37  1  0  0  0  0
  2  3  1  0  0  0  0
  2  4  1  0  0  0  0
  2 38  1  0  0  0  0
  3 39  1  0  0  0  0
  3 40  1  0  0  0  0
  3 41  1  0  0  0  0
  4  5  1  0  0  0  0
  5 30  1  0  0  0  0
  5  6  2  0  0  0  0
  6  7  1  0  0  0  0
  6 42  1  0  0  0  0
  7  8  1  0  0  0  0
  7 28  2  0  0  0  0
  8  9  1  0  0  0  0
  8 43  1  0  0  0  0
  8 44  1  0  0  0  0
  9 10  1  0  0  0  0
  9 45  1  0  0  0  0
 10 15  1  0  0  0  0
 10 11  2  0  0  0  0
 11 12  1  0  0  0  0
 12 13  2  0  0  0  0
 12 46  1  0  0  0  0
 13 14  1  0  0  0  0
 14 18  1  0  0  0  0
 14 15  2  0  0  0  0
 15 16  1  0  0  0  0
 16 17  2  0  0  0  0
 17 18  1  0  0  0  0
 17 47  1  0  0  0  0
 18 19  1  0  0  0  0
 19 31  1  0  0  0  0
 19 26  1  0  0  0  0
 19 20  1  0  0  0  0
 20 21  1  0  0  0  0
 21 32  1  0  0  0  0
 21 22  1  0  0  0  0
 21 24  1  0  0  0  0
 22 23  1  0  0  0  0
 22 48  1  0  0  0  0
 22 49  1  0  0  0  0
 23 50  1  0  0  0  0
 24 33  1  0  0  0  0
 24 25  1  0  0  0  0
 24 26  1  0  0  0  0
 25 51  1  0  0  0  0
 26 34  1  0  0  0  0
 26 27  1  0  0  0  0
 27 52  1  0  0  0  0
 28 29  1  0  0  0  0
 28 53  1  0  0  0  0
 29 30  2  0  0  0  0
 29 54  1  0  0  0  0
M  END
> <s_m_source_file>
AV-unprocessed.smi

> <i_m_source_file_index>
218

> <i_lp_mmshare_version>
43012

> <i_f3d_flags>
0

> <s_epik_input>
W0NIM11bQ0hdKFtDSDNdKU9jMVtjSF1jKFtjSF1bY0hdbjEpW0NIMl1bTkhdYyhuW2NIXW4yKWMoYzIzKW5bY0hdbjNbQ0BASF00T1tDQEhdKFtDSDJdW09IXSlbQ0BASF0oW09IXSlbQ0BIXTRbT0hd

> <s_epik_cmdline>
J2VwaWtfcHl0aG9uJywgJy1waCcsICc3LjAnLCAnLXRuJywgJzgnLCAnLW1hJywgJzIwMCcsICctbWV0YWxfYmluZGluZycsICctaW1hZScsICc8aW5maWxlLm1hZT4nLCAnLW9tYWUnLCAnPG91dGZpbGUubWFlPic=

> <r_lp_tautomer_probability>
1

> <r_epik_Ionization_Penalty>
0.00457014

> <r_epik_Ionization_Penalty_Charging>
0

> <r_epik_Ionization_Penalty_Neutral>
0.00457014

> <r_epik_State_Penalty>
-0

> <r_epik_Charging_Adjusted_Penalty>
0

> <i_epik_Tot_Q>
0

> <i_epik_Tot_abs_Q>
0

> <r_epik_Metal_State_Penalty>
-0

> <b_epik_Metal_Only>
0

> <s_epik_Chemistry_Notes>
This compound contains an acetal/aminal-like group ( X-CH(R)-Y where X, Y are N, S, or O) that may be acid/base labile, releasing an aldehyde.

> <s_lp_Force_Field>
OPLS_2005

> <r_lp_Energy>
48.139

> <b_lp_Chiralities_Consistent>
1

> <s_lp_Variant>
AV-unprocessed.smi:218-15

> <Gold.Version>
5.8.1

> <Gold.Id.Protein>
6NUR|6NUR_protein|mol2

> <Gold.PLP.Fitness>
48.9530

> <Gold.PLP.PLP>
-40.4069

> <Gold.PLP.part.hbond>
-4.5690

> <Gold.PLP.part.metal>
0.0000

> <Gold.PLP.part.buried>
-7.8778

> <Gold.PLP.part.nonpolar>
-28.4557

> <Gold.PLP.part.repulsive>
0.6574

> <Gold.PLP.ligand.clash>
0.0000

> <Gold.PLP.ligand.torsion>
1.4974

> <Gold.PLP.Chemscore.Hbond>
2.7920

> <Gold.PLP.Chemscore.CHOScore>
1.0000

> <Gold.PLP.Chemscore.Metal>
0.0000

> <Gold.Chemscore.Hbonds>
donor molecule, donor type, donor heavy atom, donor atom, acceptor molecule, acceptor atom, score
      L1  H    27    52       P1  7948  0.02
      P1  H 10785 10796       L1    23  0.74

> <Gold.PLP.Chemscore.Internal.Correction>
0.1650

> <Gold.Rescore>
     Score         DG    S(hbond)    S(metal)    S(lipo)     H(rot)  DE(clash)    DE(int)     intcor
      4.06      -8.81       2.17        0.00      73.78       4.90       0.35       4.40       ----

> <Gold.Chemscore.Fitness>
4.0610

> <Gold.Chemscore.DG>
-8.8058

> <Gold.Chemscore.ZeroCoef>
-5.4800

> <Gold.Chemscore.Hbond>
2.1691

> <Gold.Chemscore.Metal>
0.0000

> <Gold.Chemscore.Lipo>
73.7835

> <Gold.Chemscore.Internal_Hbond>
0.0000

> <Gold.Chemscore.DEClash>
0.3451

> <Gold.Chemscore.DEInternal>
4.3997

> <Gold.Chemscore.Rot>
4.9029

> <Gold.Chemscore.Internal.Correction>
   9.000000E+99

> <Gold.Chemscore.Hbonds>
donor molecule, donor type, donor heavy atom, donor atom, acceptor molecule, acceptor atom, score
      L1  H    27    52       P1  7948  0.02
      P1  H 10785 10796       L1    23  0.45

> <Gold.Chemscore.Hbond.Weighted>
-7.2446

> <Gold.Chemscore.Metal.Weighted>
-0.0000

> <Gold.Chemscore.Lipo.Weighted>
-8.6327

> <Gold.Chemscore.Internal_Hbond.Weighted>
0.0000

> <Gold.Chemscore.DEClash.Weighted>
0.3451

> <Gold.Chemscore.DEInternal.Weighted>
4.3997

> <Gold.Chemscore.Rot.Weighted>
12.5515

> <Gold.Chemscore.Internal.Correction.Weighted>
   9.000000E+99

> <Gold.Protein.RotatedTorsions>
[ 6907 6896 6895 6894 ] final   66.24 input  -60.11 | X-H torsion
[ 7974 7965 7964 7962 ] final  122.94 input  175.53 | X-H torsion
[ 8008 7997 7996 7995 ] final  144.93 input   59.86 | X-H torsion
[ 10167 10162 10161 10158 ] final   65.01 input  -65.29 | X-H torsion
[ 10718 10713 10712 10709 ] final  147.85 input   66.30 | X-H torsion
[ 10763 10752 10751 10750 ] final   31.29 input  -60.55 | X-H torsion
[ 11005 11000 10999 10996 ] final -108.34 input  -57.11 | X-H torsion

> <Gold.Protein.ActiveResidues>
 VAL166  LYS551  ARG553  GLY616  TRP617  ASP618  TYR619  PRO620  LYS621  CYS622 
 ASP623  PHE694  ASN695  SER759  ASP760  ASP761  ALA762  ILE779  LEU786  VAL792 
 PHE793  MET794  SER795  GLU796  ALA797  LYS798  CYS799  TRP800  GLU811  SER814 

> <Gold.Protein.RotatedAtoms>
  152.4466  134.5481  159.9858 H   0  0  0  0  0  0  0  0  0  0  0  0  # atno 6907 bound_to 6896
  151.5565  133.3404  159.2971 H   0  0  0  0  0  0  0  0  0  0  0  0  # atno 6908 bound_to 6896
  150.8384  134.7699  159.6975 H   0  0  0  0  0  0  0  0  0  0  0  0  # atno 6909 bound_to 6896
  145.1017  139.3514  143.4808 H   0  0  0  0  0  0  0  0  0  0  0  0  # atno 7974 bound_to 7965
  156.2896  140.2222  156.5133 H   0  0  0  0  0  0  0  0  0  0  0  0  # atno 8008 bound_to 7997
  154.7590  140.0474  157.0979 H   0  0  0  0  0  0  0  0  0  0  0  0  # atno 8009 bound_to 7997
  155.0014  140.3102  155.4869 H   0  0  0  0  0  0  0  0  0  0  0  0  # atno 8010 bound_to 7997
  140.1160  144.4775  150.6949 H   0  0  0  0  0  0  0  0  0  0  0  0  # atno 10167 bound_to 10162
  157.3159  131.0896  151.1279 H   0  0  0  0  0  0  0  0  0  0  0  0  # atno 10718 bound_to 10713
  153.0324  135.6442  154.1177 H   0  0  0  0  0  0  0  0  0  0  0  0  # atno 10763 bound_to 10752
  154.0897  135.2867  155.3275 H   0  0  0  0  0  0  0  0  0  0  0  0  # atno 10764 bound_to 10752
  154.6473  135.5438  153.7924 H   0  0  0  0  0  0  0  0  0  0  0  0  # atno 10765 bound_to 10752
  141.0907  133.9060  157.2082 H   0  0  0  0  0  0  0  0  0  0  0  0  # atno 11005 bound_to 11000
  146.3529  140.0897  142.8613 LP  0  0  0  0  0  0  0  0  0  0  0  0  # atno 17320 bound_to 7965
  145.0948  140.9308  143.4748 LP  0  0  0  0  0  0  0  0  0  0  0  0  # atno 17321 bound_to 7965
  140.6899  143.2370  151.5159 LP  0  0  0  0  0  0  0  0  0  0  0  0  # atno 17342 bound_to 10162
  139.5594  144.2194  152.1666 LP  0  0  0  0  0  0  0  0  0  0  0  0  # atno 17343 bound_to 10162
  157.2583  130.6646  149.5963 LP  0  0  0  0  0  0  0  0  0  0  0  0  # atno 17370 bound_to 10713
  155.9681  130.4517  150.5744 LP  0  0  0  0  0  0  0  0  0  0  0  0  # atno 17371 bound_to 10713
  139.9732  135.0122  156.9566 LP  0  0  0  0  0  0  0  0  0  0  0  0  # atno 17394 bound_to 11000
  140.5259  134.0861  155.7303 LP  0  0  0  0  0  0  0  0  0  0  0  0  # atno 17395 bound_to 11000

$$$$
