AV-unprocessed.smi:1277|AV-procd|sdf|5345|dock6
  -GOLD-   22720 4473D 1   1.00000     0.00000
 Structure written by MMmdl.
 43 44  0  0  0  0  0  0  0  0  1 V2000
  154.4548  143.6741  165.6304 C   0  0  0  0  0  0  0  0  0  0  0  0
  154.0121  142.8544  164.5631 O   0  0  0  0  0  0  0  0  0  0  0  0
  153.0907  143.5184  163.7137 C   0  0  0  0  0  0  0  0  0  0  0  0
  152.6999  142.5825  162.5661 C   0  0  0  0  0  0  0  0  0  0  0  0
  152.6247  143.3425  161.3639 O   0  0  0  0  0  0  0  0  0  0  0  0
  152.3049  142.6920  160.1901 C   0  0  0  0  0  0  0  0  0  0  0  0
  151.8244  143.4556  159.1084 C   0  0  0  0  0  0  0  0  0  0  0  0
  151.4988  142.7991  157.9069 C   0  0  0  0  0  0  0  0  0  0  0  0
  151.6685  141.4029  157.8171 C   0  0  0  0  0  0  0  0  0  0  0  0
  151.3159  140.7696  156.5947 N   0  0  0  0  0  0  0  0  0  0  0  0
  151.9474  139.7725  155.9483 C   0  0  0  0  0  0  0  0  0  0  0  0
  152.9779  139.2262  156.3438 O   0  0  0  0  0  0  0  0  0  0  0  0
  151.2908  139.3263  154.6268 C   0  0  2  0  0  0  0  0  0  0  0  0
  150.1607  140.2862  154.2260 C   0  0  0  0  0  0  0  0  0  0  0  0
  148.9097  139.6846  154.8487 C   0  0  0  0  0  0  0  0  0  0  0  0
  149.1691  138.1770  154.8239 C   0  0  0  0  0  0  0  0  0  0  0  0
  150.6243  138.0218  154.7489 N   0  0  0  0  0  0  0  0  0  0  0  0
  151.2737  136.8367  154.7432 C   0  0  0  0  0  0  0  0  0  0  0  0
  150.4504  135.5529  154.8630 C   0  0  0  0  0  0  0  0  0  0  0  0
  152.4979  136.7514  154.6456 O   0  0  0  0  0  0  0  0  0  0  0  0
  152.1442  140.7224  158.9648 C   0  0  0  0  0  0  0  0  0  0  0  0
  152.4579  141.3465  160.1205 N   0  0  0  0  0  0  0  0  0  0  0  0
  152.0452  139.2959  153.8378 H   0  0  0  0  0  0  0  0  0  0  0  0
  155.1610  143.1202  166.2489 H   0  0  0  0  0  0  0  0  0  0  0  0
  153.6218  143.9820  166.2636 H   0  0  0  0  0  0  0  0  0  0  0  0
  154.9610  144.5659  165.2590 H   0  0  0  0  0  0  0  0  0  0  0  0
  152.2009  143.7825  164.2871 H   0  0  0  0  0  0  0  0  0  0  0  0
  153.5155  144.4440  163.3220 H   0  0  0  0  0  0  0  0  0  0  0  0
  153.4238  141.7703  162.4784 H   0  0  0  0  0  0  0  0  0  0  0  0
  151.7247  142.1423  162.7800 H   0  0  0  0  0  0  0  0  0  0  0  0
  151.7092  144.5256  159.1986 H   0  0  0  0  0  0  0  0  0  0  0  0
  151.1276  143.3644  157.0646 H   0  0  0  0  0  0  0  0  0  0  0  0
  150.5206  141.1673  156.1166 H   0  0  0  0  0  0  0  0  0  0  0  0
  150.3278  141.3187  154.5370 H   0  0  0  0  0  0  0  0  0  0  0  0
  150.0583  140.2889  153.1400 H   0  0  0  0  0  0  0  0  0  0  0  0
  148.8181  140.0236  155.8815 H   0  0  0  0  0  0  0  0  0  0  0  0
  147.9959  139.9658  154.3245 H   0  0  0  0  0  0  0  0  0  0  0  0
  148.7512  137.6924  155.7072 H   0  0  0  0  0  0  0  0  0  0  0  0
  148.7124  137.7308  153.9392 H   0  0  0  0  0  0  0  0  0  0  0  0
  149.7457  135.4666  154.0356 H   0  0  0  0  0  0  0  0  0  0  0  0
  149.8950  135.5373  155.8011 H   0  0  0  0  0  0  0  0  0  0  0  0
  151.0993  134.6765  154.8438 H   0  0  0  0  0  0  0  0  0  0  0  0
  152.2640  139.6507  158.9874 H   0  0  0  0  0  0  0  0  0  0  0  0
  1  2  1  0  0  0  0
  1 24  1  0  0  0  0
  1 25  1  0  0  0  0
  1 26  1  0  0  0  0
  2  3  1  0  0  0  0
  3  4  1  0  0  0  0
  3 27  1  0  0  0  0
  3 28  1  0  0  0  0
  4  5  1  0  0  0  0
  4 29  1  0  0  0  0
  4 30  1  0  0  0  0
  5  6  1  0  0  0  0
  6 22  1  0  0  0  0
  6  7  2  0  0  0  0
  7  8  1  0  0  0  0
  7 31  1  0  0  0  0
  8  9  2  0  0  0  0
  8 32  1  0  0  0  0
  9 10  1  0  0  0  0
  9 21  1  0  0  0  0
 10 11  1  0  0  0  0
 10 33  1  0  0  0  0
 11 12  2  0  0  0  0
 11 13  1  0  0  0  0
 13 23  1  0  0  0  0
 13 17  1  0  0  0  0
 13 14  1  0  0  0  0
 14 15  1  0  0  0  0
 14 34  1  0  0  0  0
 14 35  1  0  0  0  0
 15 16  1  0  0  0  0
 15 36  1  0  0  0  0
 15 37  1  0  0  0  0
 16 17  1  0  0  0  0
 16 38  1  0  0  0  0
 16 39  1  0  0  0  0
 17 18  1  0  0  0  0
 18 19  1  0  0  0  0
 18 20  2  0  0  0  0
 19 40  1  0  0  0  0
 19 41  1  0  0  0  0
 19 42  1  0  0  0  0
 21 22  2  0  0  0  0
 21 43  1  0  0  0  0
M  END
> <s_m_source_file>
AV-unprocessed.smi

> <i_m_source_file_index>
1277

> <i_lp_mmshare_version>
43012

> <i_f3d_flags>
0

> <s_epik_input>
W0NIM11PW0NIMl1bQ0gyXU9jMVtjSF1bY0hdYyhbY0hdbjEpW05IXUMoPU8pW0NAQEhdMltDSDJdW0NIMl1bQ0gyXU4yQyg9TylbQ0gzXQ==

> <s_epik_cmdline>
J2VwaWtfcHl0aG9uJywgJy1waCcsICc3LjAnLCAnLXRuJywgJzgnLCAnLW1hJywgJzIwMCcsICctbWV0YWxfYmluZGluZycsICctaW1hZScsICc8aW5maWxlLm1hZT4nLCAnLW9tYWUnLCAnPG91dGZpbGUubWFlPic=

> <r_lp_tautomer_probability>
1

> <r_epik_Ionization_Penalty>
1.62854e-05

> <r_epik_Ionization_Penalty_Charging>
0

> <r_epik_Ionization_Penalty_Neutral>
1.62854e-05

> <r_epik_State_Penalty>
-0

> <r_epik_Charging_Adjusted_Penalty>
0

> <i_epik_Tot_Q>
0

> <i_epik_Tot_abs_Q>
0

> <r_epik_Metal_State_Penalty>
-0

> <b_epik_Metal_Only>
0

> <s_lp_Force_Field>
OPLS_2005

> <r_lp_Energy>
18.7182

> <b_lp_Chiralities_Consistent>
1

> <s_lp_Variant>
AV-unprocessed.smi:1277-1

> <Gold.Version>
5.8.1

> <Gold.Id.Protein>
6NUR|6NUR_protein|mol2

> <Gold.PLP.Fitness>
45.9900

> <Gold.PLP.PLP>
-44.6446

> <Gold.PLP.part.hbond>
-2.6102

> <Gold.PLP.part.metal>
0.0000

> <Gold.PLP.part.buried>
-5.5389

> <Gold.PLP.part.nonpolar>
-37.5793

> <Gold.PLP.part.repulsive>
0.3465

> <Gold.PLP.ligand.clash>
2.5365

> <Gold.PLP.ligand.torsion>
1.1000

> <Gold.PLP.Chemscore.Hbond>
2.0000

> <Gold.PLP.Chemscore.CHOScore>
0.0000

> <Gold.PLP.Chemscore.Metal>
0.0000

> <Gold.Chemscore.Hbonds>
donor molecule, donor type, donor heavy atom, donor atom, acceptor molecule, acceptor atom, score
      P1  H  7997  8008       L1    12  0.88
      P1  H 10752 10764       L1    20  0.19

> <Gold.PLP.Chemscore.Internal.Correction>
0.0820

> <Gold.Rescore>
     Score         DG    S(hbond)    S(metal)    S(lipo)     H(rot)  DE(clash)    DE(int)     intcor
     11.93     -14.69       0.91        0.00      94.17       1.89       0.06       2.71       ----

> <Gold.Chemscore.Fitness>
11.9282

> <Gold.Chemscore.DG>
-14.6940

> <Gold.Chemscore.ZeroCoef>
-5.4800

> <Gold.Chemscore.Hbond>
0.9073

> <Gold.Chemscore.Metal>
0.0000

> <Gold.Chemscore.Lipo>
94.1698

> <Gold.Chemscore.Internal_Hbond>
0.0000

> <Gold.Chemscore.DEClash>
0.0605

> <Gold.Chemscore.DEInternal>
2.7053

> <Gold.Chemscore.Rot>
1.8884

> <Gold.Chemscore.Internal.Correction>
   9.000000E+99

> <Gold.Chemscore.Hbonds>
donor molecule, donor type, donor heavy atom, donor atom, acceptor molecule, acceptor atom, score
      P1  H  7997  8008       L1    12  0.74
      P1  H 10752 10764       L1    20  0.18

> <Gold.Chemscore.Hbond.Weighted>
-3.0304

> <Gold.Chemscore.Metal.Weighted>
-0.0000

> <Gold.Chemscore.Lipo.Weighted>
-11.0179

> <Gold.Chemscore.Internal_Hbond.Weighted>
0.0000

> <Gold.Chemscore.DEClash.Weighted>
0.0605

> <Gold.Chemscore.DEInternal.Weighted>
2.7053

> <Gold.Chemscore.Rot.Weighted>
4.8342

> <Gold.Chemscore.Internal.Correction.Weighted>
   9.000000E+99

> <Gold.Protein.RotatedTorsions>
[ 6907 6896 6895 6894 ] final  127.87 input  -60.11 | X-H torsion
[ 7974 7965 7964 7962 ] final  134.67 input  175.53 | X-H torsion
[ 8008 7997 7996 7995 ] final  -22.58 input   59.86 | X-H torsion
[ 10167 10162 10161 10158 ] final -125.42 input  -65.29 | X-H torsion
[ 10718 10713 10712 10709 ] final   66.74 input   66.30 | X-H torsion
[ 10763 10752 10751 10750 ] final  -82.74 input  -60.55 | X-H torsion
[ 11005 11000 10999 10996 ] final   13.49 input  -57.11 | X-H torsion

> <Gold.Protein.ActiveResidues>
 VAL166  LYS551  ARG553  GLY616  TRP617  ASP618  TYR619  PRO620  LYS621  CYS622 
 ASP623  PHE694  ASN695  SER759  ASP760  ASP761  ALA762  ILE779  LEU786  VAL792 
 PHE793  MET794  SER795  GLU796  ALA797  LYS798  CYS799  TRP800  GLU811  SER814 

> <Gold.Protein.RotatedAtoms>
  152.3772  133.6497  159.6132 H   0  0  0  0  0  0  0  0  0  0  0  0  # atno 6907 bound_to 6896
  150.7713  133.9174  159.3396 H   0  0  0  0  0  0  0  0  0  0  0  0  # atno 6908 bound_to 6896
  151.6986  135.0935  160.0298 H   0  0  0  0  0  0  0  0  0  0  0  0  # atno 6909 bound_to 6896
  144.9740  139.4575  143.5419 H   0  0  0  0  0  0  0  0  0  0  0  0  # atno 7974 bound_to 7965
  154.4636  140.2004  156.0179 H   0  0  0  0  0  0  0  0  0  0  0  0  # atno 8008 bound_to 7997
  156.0885  140.3261  155.7756 H   0  0  0  0  0  0  0  0  0  0  0  0  # atno 8009 bound_to 7997
  155.4995  140.0552  157.2932 H   0  0  0  0  0  0  0  0  0  0  0  0  # atno 8010 bound_to 7997
  139.9823  143.5730  152.2374 H   0  0  0  0  0  0  0  0  0  0  0  0  # atno 10167 bound_to 10162
  157.6188  130.9284  150.0149 H   0  0  0  0  0  0  0  0  0  0  0  0  # atno 10718 bound_to 10713
  154.5794  135.5580  153.7171 H   0  0  0  0  0  0  0  0  0  0  0  0  # atno 10763 bound_to 10752
  153.0076  135.6316  154.2003 H   0  0  0  0  0  0  0  0  0  0  0  0  # atno 10764 bound_to 10752
  154.1944  135.2881  155.2991 H   0  0  0  0  0  0  0  0  0  0  0  0  # atno 10765 bound_to 10752
  140.4802  134.0943  155.7749 H   0  0  0  0  0  0  0  0  0  0  0  0  # atno 11005 bound_to 11000
  146.3390  139.8970  142.8800 LP  0  0  0  0  0  0  0  0  0  0  0  0  # atno 17320 bound_to 7965
  145.2517  141.0046  143.3877 LP  0  0  0  0  0  0  0  0  0  0  0  0  # atno 17321 bound_to 7965
  139.6401  144.7654  151.2357 LP  0  0  0  0  0  0  0  0  0  0  0  0  # atno 17342 bound_to 10162
  140.7485  143.6332  150.8404 LP  0  0  0  0  0  0  0  0  0  0  0  0  # atno 17343 bound_to 10162
  156.1323  130.3643  149.9713 LP  0  0  0  0  0  0  0  0  0  0  0  0  # atno 17370 bound_to 10713
  156.7771  130.9207  151.3645 LP  0  0  0  0  0  0  0  0  0  0  0  0  # atno 17371 bound_to 10713
  141.1535  133.8926  157.2038 LP  0  0  0  0  0  0  0  0  0  0  0  0  # atno 17394 bound_to 11000
  139.9831  135.0091  156.9797 LP  0  0  0  0  0  0  0  0  0  0  0  0  # atno 17395 bound_to 11000

$$$$
