AV-unprocessed.smi:1128|AV-procd|sdf|4843|dock8
  -GOLD-   22720 3413D 1   1.00000     0.00000
 Structure written by MMmdl.
 38 39  0  0  0  0  0  0  0  0  1 V2000
  150.9466  137.0646  159.7669 O   0  0  0  0  0  0  0  0  0  0  0  0
  150.3269  137.6894  158.9068 C   0  0  0  0  0  0  0  0  0  0  0  0
  150.8182  138.7745  158.2921 N   0  0  0  0  0  0  0  0  0  0  0  0
  152.1341  139.3557  158.5388 C   0  0  0  0  0  0  0  0  0  0  0  0
  152.0511  140.7742  159.1405 C   0  0  1  0  0  0  0  0  0  0  0  0
  153.3614  141.1908  159.8505 C   0  0  0  0  0  0  0  0  0  0  0  0
  153.4009  142.6708  160.1870 C   0  0  0  0  0  0  0  0  0  0  0  0
  152.5536  143.5727  159.6645 C   0  0  0  0  0  0  0  0  0  0  0  0
  151.4647  143.2146  158.6707 C   0  0  0  0  0  0  0  0  0  0  0  0
  151.6633  141.8109  158.0693 C   0  0  0  0  0  0  0  0  0  0  0  0
  149.0883  137.4086  158.4613 N   0  0  0  0  0  0  0  0  0  0  0  0
  148.2164  136.3680  158.8262 C   0  0  0  0  0  0  0  0  0  0  0  0
  147.9008  136.0215  160.1018 C   0  0  0  0  0  0  0  0  0  0  0  0
  146.9885  134.9305  160.4019 C   0  0  0  0  0  0  0  0  0  0  0  0
  146.6895  134.5157  161.8341 C   0  0  0  0  0  0  0  0  0  0  0  0
  147.2513  135.3508  162.7091 F   0  0  0  0  0  0  0  0  0  0  0  0
  145.3761  134.4940  162.0606 F   0  0  0  0  0  0  0  0  0  0  0  0
  147.1686  133.2934  162.0604 F   0  0  0  0  0  0  0  0  0  0  0  0
  146.4885  134.2588  159.3483 C   0  0  0  0  0  0  0  0  0  0  0  0
  146.8050  134.6098  158.0345 N   0  0  0  0  0  0  0  0  0  0  0  0
  147.6404  135.6178  157.6974 C   0  0  0  0  0  0  0  0  0  0  0  0
  147.8766  135.8581  156.5138 O   0  0  0  0  0  0  0  0  0  0  0  0
  146.3812  134.0633  157.2986 H   0  0  0  0  0  0  0  0  0  0  0  0
  150.2412  139.2329  157.6022 H   0  0  0  0  0  0  0  0  0  0  0  0
  152.6711  138.6943  159.2193 H   0  0  0  0  0  0  0  0  0  0  0  0
  152.7080  139.3697  157.6106 H   0  0  0  0  0  0  0  0  0  0  0  0
  151.2545  140.7752  159.8866 H   0  0  0  0  0  0  0  0  0  0  0  0
  153.4850  140.6217  160.7726 H   0  0  0  0  0  0  0  0  0  0  0  0
  154.2242  140.9684  159.2219 H   0  0  0  0  0  0  0  0  0  0  0  0
  154.1659  142.9920  160.8786 H   0  0  0  0  0  0  0  0  0  0  0  0
  152.6242  144.6097  159.9583 H   0  0  0  0  0  0  0  0  0  0  0  0
  150.5054  143.2723  159.1857 H   0  0  0  0  0  0  0  0  0  0  0  0
  151.4439  143.9597  157.8751 H   0  0  0  0  0  0  0  0  0  0  0  0
  152.4455  141.8506  157.3100 H   0  0  0  0  0  0  0  0  0  0  0  0
  150.7517  141.5055  157.5544 H   0  0  0  0  0  0  0  0  0  0  0  0
  148.7055  138.0503  157.7822 H   0  0  0  0  0  0  0  0  0  0  0  0
  148.3242  136.5433  160.9438 H   0  0  0  0  0  0  0  0  0  0  0  0
  145.8228  133.4118  159.4265 H   0  0  0  0  0  0  0  0  0  0  0  0
  1  2  2  0  0  0  0
  2  3  1  0  0  0  0
  2 11  1  0  0  0  0
  3  4  1  0  0  0  0
  3 24  1  0  0  0  0
  4  5  1  0  0  0  0
  4 25  1  0  0  0  0
  4 26  1  0  0  0  0
  5 10  1  0  0  0  0
  5  6  1  0  0  0  0
  5 27  1  0  0  0  0
  6  7  1  0  0  0  0
  6 28  1  0  0  0  0
  6 29  1  0  0  0  0
  7  8  2  0  0  0  0
  7 30  1  0  0  0  0
  8  9  1  0  0  0  0
  8 31  1  0  0  0  0
  9 10  1  0  0  0  0
  9 32  1  0  0  0  0
  9 33  1  0  0  0  0
 10 34  1  0  0  0  0
 10 35  1  0  0  0  0
 11 12  1  0  0  0  0
 11 36  1  0  0  0  0
 12 21  1  0  0  0  0
 12 13  2  0  0  0  0
 13 14  1  0  0  0  0
 13 37  1  0  0  0  0
 14 15  1  0  0  0  0
 14 19  2  0  0  0  0
 15 16  1  0  0  0  0
 15 17  1  0  0  0  0
 15 18  1  0  0  0  0
 19 20  1  0  0  0  0
 19 38  1  0  0  0  0
 20 23  1  0  0  0  0
 20 21  1  0  0  0  0
 21 22  2  0  0  0  0
M  END
> <s_m_source_file>
AV-unprocessed.smi

> <i_m_source_file_index>
1128

> <i_lp_mmshare_version>
43012

> <i_f3d_flags>
0

> <s_epik_input>
Tz1jMVtuSF1bY0hdYyhDKEYpKEYpRilbY0hdYzFbTkhdQyg9TylbTkhdW0NIMl1bQ0BASF0yW0NIMl1bQ0hdPVtDSF1bQ0gyXVtDSDJdMg==

> <s_epik_cmdline>
J2VwaWtfcHl0aG9uJywgJy1waCcsICc3LjAnLCAnLXRuJywgJzgnLCAnLW1hJywgJzIwMCcsICctbWV0YWxfYmluZGluZycsICctaW1hZScsICc8aW5maWxlLm1hZT4nLCAnLW9tYWUnLCAnPG91dGZpbGUubWFlPic=

> <r_lp_tautomer_probability>
1

> <r_epik_Ionization_Penalty>
0.00381734

> <r_epik_Ionization_Penalty_Charging>
0.00379608

> <r_epik_Ionization_Penalty_Neutral>
2.12611e-05

> <r_epik_State_Penalty>
-0

> <r_epik_Charging_Adjusted_Penalty>
0.00379608

> <i_epik_Tot_Q>
0

> <i_epik_Tot_abs_Q>
0

> <r_epik_Metal_State_Penalty>
0.371155

> <b_epik_Metal_Only>
0

> <s_lp_Force_Field>
OPLS_2005

> <r_lp_Energy>
19.5554

> <b_lp_Chiralities_Consistent>
1

> <s_lp_Variant>
AV-unprocessed.smi:1128-2

> <Gold.Version>
5.8.1

> <Gold.Id.Protein>
6NUR|6NUR_protein|mol2

> <Gold.PLP.Fitness>
43.4212

> <Gold.PLP.PLP>
-41.7402

> <Gold.PLP.part.hbond>
-0.9485

> <Gold.PLP.part.metal>
0.0000

> <Gold.PLP.part.buried>
-5.6796

> <Gold.PLP.part.nonpolar>
-36.2298

> <Gold.PLP.part.repulsive>
0.2333

> <Gold.PLP.ligand.clash>
0.0000

> <Gold.PLP.ligand.torsion>
0.6663

> <Gold.PLP.Chemscore.Hbond>
0.9913

> <Gold.PLP.Chemscore.CHOScore>
0.0000

> <Gold.PLP.Chemscore.Metal>
0.0000

> <Gold.Chemscore.Hbonds>
donor molecule, donor type, donor heavy atom, donor atom, acceptor molecule, acceptor atom, score
      P1  H  6896  6909       L1     1  1.00

> <Gold.PLP.Chemscore.Internal.Correction>
0.0398

> <Gold.Rescore>
     Score         DG    S(hbond)    S(metal)    S(lipo)     H(rot)  DE(clash)    DE(int)     intcor
     15.56     -16.13       0.98        0.00      91.74       1.30       0.02       0.56       ----

> <Gold.Chemscore.Fitness>
15.5621

> <Gold.Chemscore.DG>
-16.1348

> <Gold.Chemscore.ZeroCoef>
-5.4800

> <Gold.Chemscore.Hbond>
0.9756

> <Gold.Chemscore.Metal>
0.0000

> <Gold.Chemscore.Lipo>
91.7428

> <Gold.Chemscore.Internal_Hbond>
0.0000

> <Gold.Chemscore.DEClash>
0.0177

> <Gold.Chemscore.DEInternal>
0.5550

> <Gold.Chemscore.Rot>
1.3038

> <Gold.Chemscore.Internal.Correction>
   9.000000E+99

> <Gold.Chemscore.Hbonds>
donor molecule, donor type, donor heavy atom, donor atom, acceptor molecule, acceptor atom, score
      P1  H  6896  6909       L1     1  0.99

> <Gold.Chemscore.Hbond.Weighted>
-3.2586

> <Gold.Chemscore.Metal.Weighted>
-0.0000

> <Gold.Chemscore.Lipo.Weighted>
-10.7339

> <Gold.Chemscore.Internal_Hbond.Weighted>
0.0000

> <Gold.Chemscore.DEClash.Weighted>
0.0177

> <Gold.Chemscore.DEInternal.Weighted>
0.5550

> <Gold.Chemscore.Rot.Weighted>
3.3377

> <Gold.Chemscore.Internal.Correction.Weighted>
   9.000000E+99

> <Gold.Protein.RotatedTorsions>
[ 6907 6896 6895 6894 ] final  106.61 input  -60.11 | X-H torsion
[ 7974 7965 7964 7962 ] final  150.42 input  175.53 | X-H torsion
[ 8008 7997 7996 7995 ] final  147.26 input   59.86 | X-H torsion
[ 10167 10162 10161 10158 ] final  -10.68 input  -65.29 | X-H torsion
[ 10718 10713 10712 10709 ] final -146.18 input   66.30 | X-H torsion
[ 10763 10752 10751 10750 ] final  -39.91 input  -60.55 | X-H torsion
[ 11005 11000 10999 10996 ] final -147.39 input  -57.11 | X-H torsion

> <Gold.Protein.ActiveResidues>
 VAL166  LYS551  ARG553  GLY616  TRP617  ASP618  TYR619  PRO620  LYS621  CYS622 
 ASP623  PHE694  ASN695  SER759  ASP760  ASP761  ALA762  ILE779  LEU786  VAL792 
 PHE793  MET794  SER795  GLU796  ALA797  LYS798  CYS799  TRP800  GLU811  SER814 

> <Gold.Protein.RotatedAtoms>
  152.5187  133.9356  159.7601 H   0  0  0  0  0  0  0  0  0  0  0  0  # atno 6907 bound_to 6896
  150.9697  133.6349  159.2747 H   0  0  0  0  0  0  0  0  0  0  0  0  # atno 6908 bound_to 6896
  151.3564  135.0901  159.9473 H   0  0  0  0  0  0  0  0  0  0  0  0  # atno 6909 bound_to 6896
  144.8366  139.6406  143.6035 H   0  0  0  0  0  0  0  0  0  0  0  0  # atno 7974 bound_to 7965
  156.2830  140.2160  156.5510 H   0  0  0  0  0  0  0  0  0  0  0  0  # atno 8008 bound_to 7997
  154.7291  140.0497  157.0733 H   0  0  0  0  0  0  0  0  0  0  0  0  # atno 8009 bound_to 7997
  155.0377  140.3142  155.4739 H   0  0  0  0  0  0  0  0  0  0  0  0  # atno 8010 bound_to 7997
  140.7120  143.5721  150.9081 H   0  0  0  0  0  0  0  0  0  0  0  0  # atno 10167 bound_to 10162
  156.3918  130.7889  151.2092 H   0  0  0  0  0  0  0  0  0  0  0  0  # atno 10718 bound_to 10713
  153.9371  135.6765  153.4744 H   0  0  0  0  0  0  0  0  0  0  0  0  # atno 10763 bound_to 10752
  153.0950  135.4856  154.8758 H   0  0  0  0  0  0  0  0  0  0  0  0  # atno 10764 bound_to 10752
  154.7397  135.3157  154.8708 H   0  0  0  0  0  0  0  0  0  0  0  0  # atno 10765 bound_to 10752
  140.7721  134.3177  157.5071 H   0  0  0  0  0  0  0  0  0  0  0  0  # atno 11005 bound_to 11000
  146.2664  139.6529  142.9327 LP  0  0  0  0  0  0  0  0  0  0  0  0  # atno 17320 bound_to 7965
  145.4782  141.0437  143.2660 LP  0  0  0  0  0  0  0  0  0  0  0  0  # atno 17321 bound_to 7965
  139.9447  143.6341  152.3044 LP  0  0  0  0  0  0  0  0  0  0  0  0  # atno 17342 bound_to 10162
  139.6838  144.7653  151.1560 LP  0  0  0  0  0  0  0  0  0  0  0  0  # atno 17343 bound_to 10162
  157.7499  131.0313  150.4177 LP  0  0  0  0  0  0  0  0  0  0  0  0  # atno 17370 bound_to 10713
  156.4440  130.3997  149.6679 LP  0  0  0  0  0  0  0  0  0  0  0  0  # atno 17371 bound_to 10713
  139.8754  134.9267  156.3407 LP  0  0  0  0  0  0  0  0  0  0  0  0  # atno 17394 bound_to 11000
  140.9563  133.7417  156.0340 LP  0  0  0  0  0  0  0  0  0  0  0  0  # atno 17395 bound_to 11000

$$$$
