AV-unprocessed.smi:1934|AV-procd|sdf|7826|dock9
  -GOLD-   22720 9573D 1   1.00000     0.00000
 Structure written by MMmdl.
 46 47  0  0  0  0  0  0  0  0  2 V2000
  152.1219  141.3090  158.0245 C   0  0  0  0  0  0  0  0  0  0  0  0
  151.6629  140.5776  156.7977 C   0  0  0  0  0  0  0  0  0  0  0  0
  150.4650  140.7811  156.0532 C   0  0  0  0  0  0  0  0  0  0  0  0
  150.5669  139.8482  155.0576 C   0  0  0  0  0  0  0  0  0  0  0  0
  149.7007  139.5828  154.0438 N   0  0  0  0  0  0  0  0  0  0  0  0
  148.4362  139.1321  154.1181 C   0  0  0  0  0  0  0  0  0  0  0  0
  147.8241  138.8844  155.1572 O   0  0  0  0  0  0  0  0  0  0  0  0
  147.9057  138.9688  152.8975 N   0  0  0  0  0  0  0  0  0  0  0  0
  146.5569  138.4805  152.6341 C   0  0  0  0  0  0  0  0  0  0  0  0
  146.2518  137.2023  153.4397 C   0  0  0  0  0  0  0  0  0  0  0  0
  146.3984  135.9673  152.6285 N   0  3  2  0  0  0  0  0  0  0  0  0
  145.3084  135.8260  151.6282 C   0  0  0  0  0  0  0  0  0  0  0  0
  145.5489  134.6172  150.7106 C   0  0  0  0  0  0  0  0  0  0  0  0
  145.7055  133.3298  151.5291 C   0  0  0  0  0  0  0  0  0  0  0  0
  146.8191  133.4975  152.5761 C   0  0  2  0  0  0  0  0  0  0  0  0
  146.9808  132.2312  153.4290 C   0  0  0  0  0  0  0  0  0  0  0  0
  146.5463  134.7368  153.4524 C   0  0  0  0  0  0  0  0  0  0  0  0
  151.7491  139.1585  155.2135 N   0  0  0  0  0  0  0  0  0  0  0  0
  152.3006  138.0800  154.4160 C   0  0  0  0  0  0  0  0  0  0  0  0
  152.4218  139.6106  156.2938 N   0  0  0  0  0  0  0  0  0  0  0  0
  151.4143  142.0897  158.3050 H   0  0  0  0  0  0  0  0  0  0  0  0
  153.0900  141.7831  157.8607 H   0  0  0  0  0  0  0  0  0  0  0  0
  152.2199  140.6308  158.8725 H   0  0  0  0  0  0  0  0  0  0  0  0
  149.6782  141.4969  156.2373 H   0  0  0  0  0  0  0  0  0  0  0  0
  150.0697  139.7265  153.1154 H   0  0  0  0  0  0  0  0  0  0  0  0
  148.4746  139.1982  152.0952 H   0  0  0  0  0  0  0  0  0  0  0  0
  145.8281  139.2604  152.8614 H   0  0  0  0  0  0  0  0  0  0  0  0
  146.4876  138.2932  151.5633 H   0  0  0  0  0  0  0  0  0  0  0  0
  146.8857  137.1412  154.3259 H   0  0  0  0  0  0  0  0  0  0  0  0
  145.2246  137.2631  153.8024 H   0  0  0  0  0  0  0  0  0  0  0  0
  144.3513  135.7248  152.1427 H   0  0  0  0  0  0  0  0  0  0  0  0
  145.2466  136.7277  151.0177 H   0  0  0  0  0  0  0  0  0  0  0  0
  144.7215  134.5129  150.0078 H   0  0  0  0  0  0  0  0  0  0  0  0
  146.4449  134.7834  150.1109 H   0  0  0  0  0  0  0  0  0  0  0  0
  144.7619  133.0923  152.0228 H   0  0  0  0  0  0  0  0  0  0  0  0
  145.9303  132.4936  150.8659 H   0  0  0  0  0  0  0  0  0  0  0  0
  147.7596  133.6587  152.0464 H   0  0  0  0  0  0  0  0  0  0  0  0
  146.0755  132.0173  153.9983 H   0  0  0  0  0  0  0  0  0  0  0  0
  147.8024  132.3373  154.1380 H   0  0  0  0  0  0  0  0  0  0  0  0
  147.1945  131.3623  152.8057 H   0  0  0  0  0  0  0  0  0  0  0  0
  147.3683  134.8552  154.1574 H   0  0  0  0  0  0  0  0  0  0  0  0
  145.6426  134.5874  154.0462 H   0  0  0  0  0  0  0  0  0  0  0  0
  152.2283  138.3286  153.3570 H   0  0  0  0  0  0  0  0  0  0  0  0
  151.7421  137.1633  154.6069 H   0  0  0  0  0  0  0  0  0  0  0  0
  153.3496  137.9157  154.6668 H   0  0  0  0  0  0  0  0  0  0  0  0
  147.2519  136.0727  152.0987 H   0  0  0  0  0  0  0  0  0  0  0  0
  1  2  1  0  0  0  0
  1 21  1  0  0  0  0
  1 22  1  0  0  0  0
  1 23  1  0  0  0  0
  2 20  2  0  0  0  0
  2  3  1  0  0  0  0
  3  4  2  0  0  0  0
  3 24  1  0  0  0  0
  4  5  1  0  0  0  0
  4 18  1  0  0  0  0
  5  6  1  0  0  0  0
  5 25  1  0  0  0  0
  6  7  2  0  0  0  0
  6  8  1  0  0  0  0
  8  9  1  0  0  0  0
  8 26  1  0  0  0  0
  9 10  1  0  0  0  0
  9 27  1  0  0  0  0
  9 28  1  0  0  0  0
 10 11  1  0  0  0  0
 10 29  1  0  0  0  0
 10 30  1  0  0  0  0
 11 17  1  0  0  0  0
 11 12  1  0  0  0  0
 11 46  1  0  0  0  0
 12 13  1  0  0  0  0
 12 31  1  0  0  0  0
 12 32  1  0  0  0  0
 13 14  1  0  0  0  0
 13 33  1  0  0  0  0
 13 34  1  0  0  0  0
 14 15  1  0  0  0  0
 14 35  1  0  0  0  0
 14 36  1  0  0  0  0
 15 16  1  0  0  0  0
 15 17  1  0  0  0  0
 15 37  1  0  0  0  0
 16 38  1  0  0  0  0
 16 39  1  0  0  0  0
 16 40  1  0  0  0  0
 17 41  1  0  0  0  0
 17 42  1  0  0  0  0
 18 19  1  0  0  0  0
 18 20  1  0  0  0  0
 19 43  1  0  0  0  0
 19 44  1  0  0  0  0
 19 45  1  0  0  0  0
M  CHG  1  11   1
M  END
> <s_m_source_file>
AV-unprocessed.smi

> <i_m_source_file_index>
1934

> <i_lp_mmshare_version>
43012

> <i_f3d_flags>
0

> <s_epik_input>
W0NIM11jMVtjSF1jKG4objEpW0NIM10pW05IXUMoPU8pW05IXVtDSDJdW0NIMl1OMltDSDJdW0NIMl1bQ0gyXVtDQEBIXShbQ0gzXSlbQ0gyXTI=

> <s_epik_cmdline>
J2VwaWtfcHl0aG9uJywgJy1waCcsICc3LjAnLCAnLXRuJywgJzgnLCAnLW1hJywgJzIwMCcsICctbWV0YWxfYmluZGluZycsICctaW1hZScsICc8aW5maWxlLm1hZT4nLCAnLW9tYWUnLCAnPG91dGZpbGUubWFlPic=

> <r_lp_tautomer_probability>
1

> <r_epik_Ionization_Penalty>
0.00202955

> <r_epik_Ionization_Penalty_Charging>
0.00195276

> <r_epik_Ionization_Penalty_Neutral>
7.67968e-05

> <r_epik_State_Penalty>
0.00133177

> <r_epik_Charging_Adjusted_Penalty>
0.00328452

> <i_epik_Tot_Q>
1

> <i_epik_Tot_abs_Q>
1

> <r_epik_Metal_State_Penalty>
-0

> <b_epik_Metal_Only>
0

> <s_lp_Force_Field>
OPLS_2005

> <r_lp_Energy>
17.6546

> <b_lp_Chiralities_Consistent>
1

> <s_lp_Variant>
AV-unprocessed.smi:1934-4

> <Gold.Version>
5.8.1

> <Gold.Id.Protein>
6NUR|6NUR_protein|mol2

> <Gold.PLP.Fitness>
48.6075

> <Gold.PLP.PLP>
-35.8072

> <Gold.PLP.part.hbond>
-4.6486

> <Gold.PLP.part.metal>
0.0000

> <Gold.PLP.part.buried>
-4.1349

> <Gold.PLP.part.nonpolar>
-27.4610

> <Gold.PLP.part.repulsive>
0.2516

> <Gold.PLP.ligand.clash>
0.0000

> <Gold.PLP.ligand.torsion>
1.0518

> <Gold.PLP.Chemscore.Hbond>
4.9600

> <Gold.PLP.Chemscore.CHOScore>
0.0000

> <Gold.PLP.Chemscore.Metal>
0.0000

> <Gold.Chemscore.Hbonds>
donor molecule, donor type, donor heavy atom, donor atom, acceptor molecule, acceptor atom, score
      L1  H     5    25       P1  7957  0.93
      L1  H     8    26       P1  7957  1.00
      L1  H    11    46       P1  7948  2.00
      P1  H  7997  8008       L1    20  1.00

> <Gold.PLP.Chemscore.Internal.Correction>
0.0240

> <Gold.Rescore>
     Score         DG    S(hbond)    S(metal)    S(lipo)     H(rot)  DE(clash)    DE(int)     intcor
     20.13     -22.56       3.88        0.00      67.70       1.48       0.22       2.21       ----

> <Gold.Chemscore.Fitness>
20.1269

> <Gold.Chemscore.DG>
-22.5615

> <Gold.Chemscore.ZeroCoef>
-5.4800

> <Gold.Chemscore.Hbond>
3.8801

> <Gold.Chemscore.Metal>
0.0000

> <Gold.Chemscore.Lipo>
67.6965

> <Gold.Chemscore.Internal_Hbond>
0.0000

> <Gold.Chemscore.DEClash>
0.2222

> <Gold.Chemscore.DEInternal>
2.2124

> <Gold.Chemscore.Rot>
1.4838

> <Gold.Chemscore.Internal.Correction>
   9.000000E+99

> <Gold.Chemscore.Hbonds>
donor molecule, donor type, donor heavy atom, donor atom, acceptor molecule, acceptor atom, score
      L1  H     5    25       P1  7957  0.84
      L1  H     8    26       P1  7957  0.99
      L1  H    11    46       P1  7948  0.99
      P1  H  7997  8008       L1    20  0.78

> <Gold.Chemscore.Hbond.Weighted>
-12.9595

> <Gold.Chemscore.Metal.Weighted>
-0.0000

> <Gold.Chemscore.Lipo.Weighted>
-7.9205

> <Gold.Chemscore.Internal_Hbond.Weighted>
0.0000

> <Gold.Chemscore.DEClash.Weighted>
0.2222

> <Gold.Chemscore.DEInternal.Weighted>
2.2124

> <Gold.Chemscore.Rot.Weighted>
3.7985

> <Gold.Chemscore.Internal.Correction.Weighted>
   9.000000E+99

> <Gold.Protein.RotatedTorsions>
[ 6907 6896 6895 6894 ] final   86.72 input  -60.11 | X-H torsion
[ 7974 7965 7964 7962 ] final   43.49 input  175.53 | X-H torsion
[ 8008 7997 7996 7995 ] final  -32.97 input   59.86 | X-H torsion
[ 10167 10162 10161 10158 ] final  -50.48 input  -65.29 | X-H torsion
[ 10718 10713 10712 10709 ] final   49.99 input   66.30 | X-H torsion
[ 10763 10752 10751 10750 ] final  -91.88 input  -60.55 | X-H torsion
[ 11005 11000 10999 10996 ] final  139.87 input  -57.11 | X-H torsion

> <Gold.Protein.ActiveResidues>
 VAL166  LYS551  ARG553  GLY616  TRP617  ASP618  TYR619  PRO620  LYS621  CYS622 
 ASP623  PHE694  ASN695  SER759  ASP760  ASP761  ALA762  ILE779  LEU786  VAL792 
 PHE793  MET794  SER795  GLU796  ALA797  LYS798  CYS799  TRP800  GLU811  SER814 

> <Gold.Protein.RotatedAtoms>
  152.5399  134.2387  159.8853 H   0  0  0  0  0  0  0  0  0  0  0  0  # atno 6907 bound_to 6896
  151.2356  133.4420  159.2613 H   0  0  0  0  0  0  0  0  0  0  0  0  # atno 6908 bound_to 6896
  151.0675  134.9790  159.8347 H   0  0  0  0  0  0  0  0  0  0  0  0  # atno 6909 bound_to 6896
  146.0651  139.5181  142.9633 H   0  0  0  0  0  0  0  0  0  0  0  0  # atno 7974 bound_to 7965
  154.4163  140.1723  156.1812 H   0  0  0  0  0  0  0  0  0  0  0  0  # atno 8008 bound_to 7997
  155.9680  140.3388  155.6526 H   0  0  0  0  0  0  0  0  0  0  0  0  # atno 8009 bound_to 7997
  155.6662  140.0706  157.2527 H   0  0  0  0  0  0  0  0  0  0  0  0  # atno 8010 bound_to 7997
  140.6635  143.2656  151.4366 H   0  0  0  0  0  0  0  0  0  0  0  0  # atno 10167 bound_to 10162
  157.4841  130.8334  149.8127 H   0  0  0  0  0  0  0  0  0  0  0  0  # atno 10718 bound_to 10713
  154.6805  135.5252  153.8256 H   0  0  0  0  0  0  0  0  0  0  0  0  # atno 10763 bound_to 10752
  153.0561  135.6551  154.0583 H   0  0  0  0  0  0  0  0  0  0  0  0  # atno 10764 bound_to 10752
  154.0471  135.2972  155.3326 H   0  0  0  0  0  0  0  0  0  0  0  0  # atno 10765 bound_to 10752
  140.0286  134.9363  157.0617 H   0  0  0  0  0  0  0  0  0  0  0  0  # atno 11005 bound_to 11000
  145.6492  141.0267  143.1770 LP  0  0  0  0  0  0  0  0  0  0  0  0  # atno 17320 bound_to 7965
  144.7197  139.8071  143.7386 LP  0  0  0  0  0  0  0  0  0  0  0  0  # atno 17321 bound_to 7965
  139.5876  144.1569  152.2048 LP  0  0  0  0  0  0  0  0  0  0  0  0  # atno 17342 bound_to 10162
  140.0914  144.5617  150.7052 LP  0  0  0  0  0  0  0  0  0  0  0  0  # atno 17343 bound_to 10162
  156.0137  130.3822  150.2179 LP  0  0  0  0  0  0  0  0  0  0  0  0  # atno 17370 bound_to 10713
  157.0366  131.0023  151.3296 LP  0  0  0  0  0  0  0  0  0  0  0  0  # atno 17371 bound_to 10713
  140.4265  134.1826  155.7166 LP  0  0  0  0  0  0  0  0  0  0  0  0  # atno 17394 bound_to 11000
  141.1817  133.8399  157.1233 LP  0  0  0  0  0  0  0  0  0  0  0  0  # atno 17395 bound_to 11000

$$$$
