AV-unprocessed.smi:627|AV-procd|sdf|3113|dock2
  -GOLD-   22720 0 33D 1   1.00000     0.00000
 Structure written by MMmdl.
 40 42  0  0  0  0  0  0  0  0  1 V2000
  153.2900  137.7027  156.8823 C   0  0  0  0  0  0  0  0  0  0  0  0
  152.5195  138.4527  155.3904 S   0  0  0  0  0  0  0  0  0  0  0  0
  153.5514  139.2394  154.6967 O   0  0  0  0  0  0  0  0  0  0  0  0
  151.7997  137.3965  154.6619 O   0  0  0  0  0  0  0  0  0  0  0  0
  151.3061  139.5833  156.0612 C   0  0  0  0  0  0  0  0  0  0  0  0
  150.3789  139.1444  157.0280 C   0  0  0  0  0  0  0  0  0  0  0  0
  149.4249  140.0665  157.4986 C   0  0  0  0  0  0  0  0  0  0  0  0
  149.4352  141.3858  156.9828 C   0  0  0  0  0  0  0  0  0  0  0  0
  148.5165  142.3985  157.3686 N   0  0  0  0  0  0  0  0  0  0  0  0
  147.4345  142.2837  158.1577 C   0  0  0  0  0  0  0  0  0  0  0  0
  147.0522  141.2425  158.6911 O   0  0  0  0  0  0  0  0  0  0  0  0
  146.8222  143.4665  158.3132 N   0  0  0  0  0  0  0  0  0  0  0  0
  145.6355  143.7090  159.1275 C   0  0  0  0  0  0  0  0  0  0  0  0
  145.2052  145.1630  159.0673 C   0  0  0  0  0  0  0  0  0  0  0  0
  143.7758  145.5724  159.3332 C   0  0  0  0  0  0  0  0  0  0  0  0
  144.3462  145.6755  157.9364 C   0  0  0  0  0  0  0  0  0  0  0  0
  145.8237  143.2744  160.5717 C   0  0  0  0  0  0  0  0  0  0  0  0
  144.9817  143.8510  161.6853 C   0  0  0  0  0  0  0  0  0  0  0  0
  146.4511  144.1938  161.5933 C   0  0  0  0  0  0  0  0  0  0  0  0
  150.3914  141.7011  155.9936 C   0  0  0  0  0  0  0  0  0  0  0  0
  151.3110  140.8264  155.5351 N   0  0  0  0  0  0  0  0  0  0  0  0
  154.0551  136.9900  156.5757 H   0  0  0  0  0  0  0  0  0  0  0  0
  152.5274  137.1870  157.4656 H   0  0  0  0  0  0  0  0  0  0  0  0
  153.7437  138.4854  157.4893 H   0  0  0  0  0  0  0  0  0  0  0  0
  150.3919  138.1312  157.4011 H   0  0  0  0  0  0  0  0  0  0  0  0
  148.7000  139.7419  158.2289 H   0  0  0  0  0  0  0  0  0  0  0  0
  148.7517  143.3339  157.0705 H   0  0  0  0  0  0  0  0  0  0  0  0
  147.2121  144.2661  157.8364 H   0  0  0  0  0  0  0  0  0  0  0  0
  144.8126  143.1219  158.7141 H   0  0  0  0  0  0  0  0  0  0  0  0
  145.9649  145.8537  159.4292 H   0  0  0  0  0  0  0  0  0  0  0  0
  143.0438  144.7881  159.5152 H   0  0  0  0  0  0  0  0  0  0  0  0
  143.6128  146.4984  159.8809 H   0  0  0  0  0  0  0  0  0  0  0  0
  144.5628  146.6703  157.5529 H   0  0  0  0  0  0  0  0  0  0  0  0
  143.9996  144.9556  157.1975 H   0  0  0  0  0  0  0  0  0  0  0  0
  146.0792  142.2213  160.6742 H   0  0  0  0  0  0  0  0  0  0  0  0
  144.2693  144.6341  161.4336 H   0  0  0  0  0  0  0  0  0  0  0  0
  144.6703  143.1753  162.4791 H   0  0  0  0  0  0  0  0  0  0  0  0
  147.1192  143.7479  162.3272 H   0  0  0  0  0  0  0  0  0  0  0  0
  146.7064  145.2054  161.2841 H   0  0  0  0  0  0  0  0  0  0  0  0
  150.4240  142.6892  155.5581 H   0  0  0  0  0  0  0  0  0  0  0  0
  1  2  1  0  0  0  0
  1 22  1  0  0  0  0
  1 23  1  0  0  0  0
  1 24  1  0  0  0  0
  2  3  2  0  0  0  0
  2  4  2  0  0  0  0
  2  5  1  0  0  0  0
  5 21  1  0  0  0  0
  5  6  2  0  0  0  0
  6  7  1  0  0  0  0
  6 25  1  0  0  0  0
  7  8  2  0  0  0  0
  7 26  1  0  0  0  0
  8  9  1  0  0  0  0
  8 20  1  0  0  0  0
  9 10  1  0  0  0  0
  9 27  1  0  0  0  0
 10 11  2  0  0  0  0
 10 12  1  0  0  0  0
 12 13  1  0  0  0  0
 12 28  1  0  0  0  0
 13 14  1  0  0  0  0
 13 17  1  0  0  0  0
 13 29  1  0  0  0  0
 14 16  1  0  0  0  0
 14 15  1  0  0  0  0
 14 30  1  0  0  0  0
 15 16  1  0  0  0  0
 15 31  1  0  0  0  0
 15 32  1  0  0  0  0
 16 33  1  0  0  0  0
 16 34  1  0  0  0  0
 17 19  1  0  0  0  0
 17 18  1  0  0  0  0
 17 35  1  0  0  0  0
 18 19  1  0  0  0  0
 18 36  1  0  0  0  0
 18 37  1  0  0  0  0
 19 38  1  0  0  0  0
 19 39  1  0  0  0  0
 20 21  2  0  0  0  0
 20 40  1  0  0  0  0
M  END
> <s_m_source_file>
AV-unprocessed.smi

> <i_m_source_file_index>
627

> <i_lp_mmshare_version>
43012

> <i_f3d_flags>
0

> <s_epik_input>
W0NIM11TKD1PKSg9TyljMVtjSF1bY0hdYyhbY0hdbjEpW05IXUMoPU8pW05IXVtDSF0oW0NIXTJbQ0gyXVtDSDJdMilbQ0hdM1tDSDJdW0NIMl0z

> <s_epik_cmdline>
J2VwaWtfcHl0aG9uJywgJy1waCcsICc3LjAnLCAnLXRuJywgJzgnLCAnLW1hJywgJzIwMCcsICctbWV0YWxfYmluZGluZycsICctaW1hZScsICc8aW5maWxlLm1hZT4nLCAnLW9tYWUnLCAnPG91dGZpbGUubWFlPic=

> <r_lp_tautomer_probability>
1

> <r_epik_Ionization_Penalty>
4.12334e-05

> <r_epik_Ionization_Penalty_Charging>
0

> <r_epik_Ionization_Penalty_Neutral>
4.12334e-05

> <r_epik_State_Penalty>
-0

> <r_epik_Charging_Adjusted_Penalty>
0

> <i_epik_Tot_Q>
0

> <i_epik_Tot_abs_Q>
0

> <r_epik_Metal_State_Penalty>
-0

> <b_epik_Metal_Only>
0

> <s_lp_Force_Field>
OPLS_2005

> <r_lp_Energy>
25.9195

> <b_lp_Chiralities_Consistent>
1

> <s_lp_Variant>
AV-unprocessed.smi:627-1

> <Gold.Version>
5.8.1

> <Gold.Id.Protein>
6NUR|6NUR_protein|mol2

> <Gold.PLP.Fitness>
49.5424

> <Gold.PLP.PLP>
-32.6385

> <Gold.PLP.part.hbond>
-6.2617

> <Gold.PLP.part.metal>
0.0000

> <Gold.PLP.part.buried>
-6.0769

> <Gold.PLP.part.nonpolar>
-21.2169

> <Gold.PLP.part.repulsive>
0.2809

> <Gold.PLP.ligand.clash>
0.0000

> <Gold.PLP.ligand.torsion>
2.1856

> <Gold.PLP.Chemscore.Hbond>
4.7091

> <Gold.PLP.Chemscore.CHOScore>
0.9761

> <Gold.PLP.Chemscore.Metal>
0.0000

> <Gold.Chemscore.Hbonds>
donor molecule, donor type, donor heavy atom, donor atom, acceptor molecule, acceptor atom, score
      L1  H     9    27       P1  8028  1.00
      L1  H    12    28       P1  8029  0.85
      P1  H  6934  6946       L1    11  0.32
      P1  H  7989  7998       L1    21  0.69
      P1  H  7997  8010       L1     3  1.00
      P1  H 10752 10765       L1     4  0.81
      L1  C    20    40       P1  8028  0.97

> <Gold.PLP.Chemscore.Internal.Correction>
4.2197

> <Gold.Rescore>
     Score         DG    S(hbond)    S(metal)    S(lipo)     H(rot)  DE(clash)    DE(int)     intcor
     14.94     -18.43       3.24        0.00      48.65       1.40       0.00       3.50       ----

> <Gold.Chemscore.Fitness>
14.9375

> <Gold.Chemscore.DG>
-18.4336

> <Gold.Chemscore.ZeroCoef>
-5.4800

> <Gold.Chemscore.Hbond>
3.2441

> <Gold.Chemscore.Metal>
0.0000

> <Gold.Chemscore.Lipo>
48.6467

> <Gold.Chemscore.Internal_Hbond>
0.0000

> <Gold.Chemscore.DEClash>
0.0000

> <Gold.Chemscore.DEInternal>
3.4961

> <Gold.Chemscore.Rot>
1.3958

> <Gold.Chemscore.Internal.Correction>
   9.000000E+99

> <Gold.Chemscore.Hbonds>
donor molecule, donor type, donor heavy atom, donor atom, acceptor molecule, acceptor atom, score
      L1  H     9    27       P1  8028  0.42
      L1  H    12    28       P1  8029  0.15
      P1  H  6934  6946       L1    11  0.30
      P1  H  7989  7998       L1    21  0.53
      P1  H  7997  8010       L1     3  0.63
      P1  H 10752 10765       L1     4  0.66

> <Gold.Chemscore.Hbond.Weighted>
-10.8353

> <Gold.Chemscore.Metal.Weighted>
-0.0000

> <Gold.Chemscore.Lipo.Weighted>
-5.6917

> <Gold.Chemscore.Internal_Hbond.Weighted>
0.0000

> <Gold.Chemscore.DEClash.Weighted>
0.0000

> <Gold.Chemscore.DEInternal.Weighted>
3.4961

> <Gold.Chemscore.Rot.Weighted>
3.5733

> <Gold.Chemscore.Internal.Correction.Weighted>
   9.000000E+99

> <Gold.Protein.RotatedTorsions>
[ 6907 6896 6895 6894 ] final  -46.09 input  -60.11 | X-H torsion
[ 7974 7965 7964 7962 ] final -131.92 input  175.53 | X-H torsion
[ 8008 7997 7996 7995 ] final  100.99 input   59.86 | X-H torsion
[ 10167 10162 10161 10158 ] final   24.97 input  -65.29 | X-H torsion
[ 10718 10713 10712 10709 ] final   50.29 input   66.30 | X-H torsion
[ 10763 10752 10751 10750 ] final  169.71 input  -60.55 | X-H torsion
[ 11005 11000 10999 10996 ] final  131.05 input  -57.11 | X-H torsion

> <Gold.Protein.ActiveResidues>
 VAL166  LYS551  ARG553  GLY616  TRP617  ASP618  TYR619  PRO620  LYS621  CYS622 
 ASP623  PHE694  ASN695  SER759  ASP760  ASP761  ALA762  ILE779  LEU786  VAL792 
 PHE793  MET794  SER795  GLU796  ALA797  LYS798  CYS799  TRP800  GLU811  SER814 

> <Gold.Protein.RotatedAtoms>
  150.9150  134.8567  159.7450 H   0  0  0  0  0  0  0  0  0  0  0  0  # atno 6907 bound_to 6896
  152.4964  134.4303  159.9520 H   0  0  0  0  0  0  0  0  0  0  0  0  # atno 6908 bound_to 6896
  151.4342  133.3622  159.2808 H   0  0  0  0  0  0  0  0  0  0  0  0  # atno 6909 bound_to 6896
  144.9333  140.7154  143.4892 H   0  0  0  0  0  0  0  0  0  0  0  0  # atno 7974 bound_to 7965
  156.1257  140.3204  155.8273 H   0  0  0  0  0  0  0  0  0  0  0  0  # atno 8008 bound_to 7997
  155.4424  140.0526  157.3026 H   0  0  0  0  0  0  0  0  0  0  0  0  # atno 8009 bound_to 7997
  154.4860  140.2073  155.9667 H   0  0  0  0  0  0  0  0  0  0  0  0  # atno 8010 bound_to 7997
  140.5144  144.0106  150.6387 H   0  0  0  0  0  0  0  0  0  0  0  0  # atno 10167 bound_to 10162
  157.4870  130.8351  149.8158 H   0  0  0  0  0  0  0  0  0  0  0  0  # atno 10718 bound_to 10713
  154.3870  135.2754  155.2177 H   0  0  0  0  0  0  0  0  0  0  0  0  # atno 10763 bound_to 10752
  154.4259  135.5989  153.6042 H   0  0  0  0  0  0  0  0  0  0  0  0  # atno 10764 bound_to 10752
  152.9833  135.5984  154.4120 H   0  0  0  0  0  0  0  0  0  0  0  0  # atno 10765 bound_to 10752
  139.9708  134.9578  156.9383 H   0  0  0  0  0  0  0  0  0  0  0  0  # atno 11005 bound_to 11000
  145.3106  139.1820  143.4641 LP  0  0  0  0  0  0  0  0  0  0  0  0  # atno 17320 bound_to 7965
  146.3256  140.3110  142.8627 LP  0  0  0  0  0  0  0  0  0  0  0  0  # atno 17321 bound_to 7965
  140.3438  143.3004  152.0560 LP  0  0  0  0  0  0  0  0  0  0  0  0  # atno 17342 bound_to 10162
  139.4905  144.6424  151.6850 LP  0  0  0  0  0  0  0  0  0  0  0  0  # atno 17343 bound_to 10162
  156.0152  130.3816  150.2134 LP  0  0  0  0  0  0  0  0  0  0  0  0  # atno 17370 bound_to 10713
  157.0321  131.0010  151.3309 LP  0  0  0  0  0  0  0  0  0  0  0  0  # atno 17371 bound_to 10713
  140.5298  134.0825  155.7313 LP  0  0  0  0  0  0  0  0  0  0  0  0  # atno 17394 bound_to 11000
  141.1387  133.9176  157.2375 LP  0  0  0  0  0  0  0  0  0  0  0  0  # atno 17395 bound_to 11000

$$$$
