AV-unprocessed.smi:1596|AV-procd|sdf|6416|dock4
  -GOLD-   22720 7 53D 1   1.00000     0.00000
 Structure written by MMmdl.
 49 50  0  0  0  0  0  0  0  0  2 V2000
  152.4704  143.4647  161.6952 C   0  0  0  0  0  0  0  0  0  0  0  0
  152.8214  142.4028  160.6420 C   0  0  0  0  0  0  0  0  0  0  0  0
  152.1898  142.6465  159.3429 N   0  0  0  0  0  0  0  0  0  0  0  0
  151.8164  144.0113  158.9709 C   0  0  0  0  0  0  0  0  0  0  0  0
  152.8452  144.6948  158.0580 C   0  0  0  0  0  0  0  0  0  0  0  0
  151.7829  141.5529  158.5399 C   0  0  0  0  0  0  0  0  0  0  0  0
  151.2722  141.6917  157.2246 C   0  0  0  0  0  0  0  0  0  0  0  0
  150.8896  140.5493  156.4919 C   0  0  0  0  0  0  0  0  0  0  0  0
  151.0261  139.2683  157.0649 C   0  0  0  0  0  0  0  0  0  0  0  0
  150.6125  138.1471  156.2952 N   0  0  0  0  0  0  0  0  0  0  0  0
  150.4303  136.8776  156.6981 C   0  0  0  0  0  0  0  0  0  0  0  0
  150.6452  136.4553  157.8340 O   0  0  0  0  0  0  0  0  0  0  0  0
  149.9980  136.1053  155.6908 N   0  0  0  0  0  0  0  0  0  0  0  0
  149.7130  134.6765  155.7870 C   0  0  2  0  0  0  0  0  0  0  0  0
  150.9088  133.9250  156.4085 C   0  0  0  0  0  0  0  0  0  0  0  0
  150.6590  132.4086  156.4513 C   0  0  0  0  0  0  0  0  0  0  0  0
  150.3289  131.8608  155.0522 C   0  0  1  0  0  0  0  0  0  0  0  0
  150.0361  130.4827  155.1420 O   0  0  0  0  0  0  0  0  0  0  0  0
  149.1302  132.6027  154.4360 C   0  0  0  0  0  0  0  0  0  0  0  0
  149.3821  134.1186  154.3898 C   0  0  0  0  0  0  0  0  0  0  0  0
  151.5315  139.1787  158.3830 C   0  0  0  0  0  0  0  0  0  0  0  0
  151.8829  140.2998  159.0485 N   0  3  0  0  0  0  0  0  0  0  0  0
  152.9422  143.2268  162.6485 H   0  0  0  0  0  0  0  0  0  0  0  0
  151.3953  143.5217  161.8667 H   0  0  0  0  0  0  0  0  0  0  0  0
  152.8156  144.4548  161.4012 H   0  0  0  0  0  0  0  0  0  0  0  0
  153.9035  142.3807  160.5099 H   0  0  0  0  0  0  0  0  0  0  0  0
  152.5563  141.4101  161.0069 H   0  0  0  0  0  0  0  0  0  0  0  0
  150.8548  143.9835  158.4577 H   0  0  0  0  0  0  0  0  0  0  0  0
  151.6418  144.6093  159.8649 H   0  0  0  0  0  0  0  0  0  0  0  0
  152.5449  145.7215  157.8479 H   0  0  0  0  0  0  0  0  0  0  0  0
  152.9361  144.1828  157.1011 H   0  0  0  0  0  0  0  0  0  0  0  0
  153.8337  144.7284  158.5157 H   0  0  0  0  0  0  0  0  0  0  0  0
  151.1576  142.6582  156.7586 H   0  0  0  0  0  0  0  0  0  0  0  0
  150.4970  140.6615  155.4918 H   0  0  0  0  0  0  0  0  0  0  0  0
  150.4737  138.3234  155.3108 H   0  0  0  0  0  0  0  0  0  0  0  0
  149.8536  136.5352  154.7889 H   0  0  0  0  0  0  0  0  0  0  0  0
  148.8370  134.5300  156.4222 H   0  0  0  0  0  0  0  0  0  0  0  0
  151.8124  134.1252  155.8307 H   0  0  0  0  0  0  0  0  0  0  0  0
  151.1009  134.2906  157.4180 H   0  0  0  0  0  0  0  0  0  0  0  0
  151.5359  131.9019  156.8556 H   0  0  0  0  0  0  0  0  0  0  0  0
  149.8362  132.1987  157.1365 H   0  0  0  0  0  0  0  0  0  0  0  0
  151.1983  131.9769  154.4037 H   0  0  0  0  0  0  0  0  0  0  0  0
  149.1005  130.3787  155.2246 H   0  0  0  0  0  0  0  0  0  0  0  0
  148.9349  132.2304  153.4296 H   0  0  0  0  0  0  0  0  0  0  0  0
  148.2302  132.4045  155.0202 H   0  0  0  0  0  0  0  0  0  0  0  0
  148.5042  134.6231  153.9840 H   0  0  0  0  0  0  0  0  0  0  0  0
  150.2037  134.3268  153.7027 H   0  0  0  0  0  0  0  0  0  0  0  0
  151.6593  138.2636  158.9411 H   0  0  0  0  0  0  0  0  0  0  0  0
  152.2436  140.1958  159.9970 H   0  0  0  0  0  0  0  0  0  0  0  0
  1  2  1  0  0  0  0
  1 23  1  0  0  0  0
  1 24  1  0  0  0  0
  1 25  1  0  0  0  0
  2  3  1  0  0  0  0
  2 26  1  0  0  0  0
  2 27  1  0  0  0  0
  3  4  1  0  0  0  0
  3  6  1  0  0  0  0
  4  5  1  0  0  0  0
  4 28  1  0  0  0  0
  4 29  1  0  0  0  0
  5 30  1  0  0  0  0
  5 31  1  0  0  0  0
  5 32  1  0  0  0  0
  6 22  1  0  0  0  0
  6  7  2  0  0  0  0
  7  8  1  0  0  0  0
  7 33  1  0  0  0  0
  8  9  2  0  0  0  0
  8 34  1  0  0  0  0
  9 10  1  0  0  0  0
  9 21  1  0  0  0  0
 10 11  1  0  0  0  0
 10 35  1  0  0  0  0
 11 12  2  0  0  0  0
 11 13  1  0  0  0  0
 13 14  1  0  0  0  0
 13 36  1  0  0  0  0
 14 20  1  0  0  0  0
 14 15  1  0  0  0  0
 14 37  1  0  0  0  0
 15 16  1  0  0  0  0
 15 38  1  0  0  0  0
 15 39  1  0  0  0  0
 16 17  1  0  0  0  0
 16 40  1  0  0  0  0
 16 41  1  0  0  0  0
 17 18  1  0  0  0  0
 17 19  1  0  0  0  0
 17 42  1  0  0  0  0
 18 43  1  0  0  0  0
 19 20  1  0  0  0  0
 19 44  1  0  0  0  0
 19 45  1  0  0  0  0
 20 46  1  0  0  0  0
 20 47  1  0  0  0  0
 21 22  2  0  0  0  0
 21 48  1  0  0  0  0
 22 49  1  0  0  0  0
M  CHG  1  22   1
M  END
> <s_m_source_file>
AV-unprocessed.smi

> <i_m_source_file_index>
1596

> <i_lp_mmshare_version>
43012

> <i_f3d_flags>
0

> <s_epik_input>
W0NIM11bQ0gyXU4oW0NIMl1bQ0gzXSljMVtjSF1bY0hdYyhbY0hdbjEpW05IXUMoPU8pW05IXVtDQEBIXTJbQ0gyXVtDSDJdW0NAQEhdKFtPSF0pW0NIMl1bQ0gyXTI=

> <s_epik_cmdline>
J2VwaWtfcHl0aG9uJywgJy1waCcsICc3LjAnLCAnLXRuJywgJzgnLCAnLW1hJywgJzIwMCcsICctbWV0YWxfYmluZGluZycsICctaW1hZScsICc8aW5maWxlLm1hZT4nLCAnLW9tYWUnLCAnPG91dGZpbGUubWFlPic=

> <r_lp_tautomer_probability>
0.999994

> <r_epik_Ionization_Penalty>
0.224167

> <r_epik_Ionization_Penalty_Charging>
0.224146

> <r_epik_Ionization_Penalty_Neutral>
2.1696e-05

> <r_epik_State_Penalty>
0.0144855

> <r_epik_Charging_Adjusted_Penalty>
0.238631

> <i_epik_Tot_Q>
1

> <i_epik_Tot_abs_Q>
1

> <r_epik_Metal_State_Penalty>
0.0446449

> <b_epik_Metal_Only>
0

> <s_lp_Force_Field>
OPLS_2005

> <r_lp_Energy>
22.6617

> <b_lp_Chiralities_Consistent>
1

> <s_lp_Variant>
AV-unprocessed.smi:1596-1

> <Gold.Version>
5.8.1

> <Gold.Id.Protein>
6NUR|6NUR_protein|mol2

> <Gold.PLP.Fitness>
41.2454

> <Gold.PLP.PLP>
-42.7782

> <Gold.PLP.part.hbond>
-0.3755

> <Gold.PLP.part.metal>
0.0000

> <Gold.PLP.part.buried>
-5.9646

> <Gold.PLP.part.nonpolar>
-36.2880

> <Gold.PLP.part.repulsive>
0.2074

> <Gold.PLP.ligand.clash>
0.0000

> <Gold.PLP.ligand.torsion>
0.8321

> <Gold.PLP.Chemscore.Hbond>
0.0000

> <Gold.PLP.Chemscore.CHOScore>
0.0000

> <Gold.PLP.Chemscore.Metal>
0.0000

> <Gold.PLP.Chemscore.Internal.Correction>
0.1313

> <Gold.Rescore>
     Score         DG    S(hbond)    S(metal)    S(lipo)     H(rot)  DE(clash)    DE(int)     intcor
     10.07     -13.27       0.00        0.00     106.70       1.83       0.07       3.13       ----

> <Gold.Chemscore.Fitness>
10.0728

> <Gold.Chemscore.DG>
-13.2749

> <Gold.Chemscore.ZeroCoef>
-5.4800

> <Gold.Chemscore.Hbond>
0.0000

> <Gold.Chemscore.Metal>
0.0000

> <Gold.Chemscore.Lipo>
106.7017

> <Gold.Chemscore.Internal_Hbond>
0.0000

> <Gold.Chemscore.DEClash>
0.0742

> <Gold.Chemscore.DEInternal>
3.1280

> <Gold.Chemscore.Rot>
1.8317

> <Gold.Chemscore.Internal.Correction>
   9.000000E+99

> <Gold.Chemscore.Hbond.Weighted>
-0.0000

> <Gold.Chemscore.Metal.Weighted>
-0.0000

> <Gold.Chemscore.Lipo.Weighted>
-12.4841

> <Gold.Chemscore.Internal_Hbond.Weighted>
0.0000

> <Gold.Chemscore.DEClash.Weighted>
0.0742

> <Gold.Chemscore.DEInternal.Weighted>
3.1280

> <Gold.Chemscore.Rot.Weighted>
4.6892

> <Gold.Chemscore.Internal.Correction.Weighted>
   9.000000E+99

> <Gold.Protein.RotatedTorsions>
[ 6907 6896 6895 6894 ] final   28.28 input  -60.11 | X-H torsion
[ 7974 7965 7964 7962 ] final  119.87 input  175.53 | X-H torsion
[ 8008 7997 7996 7995 ] final  138.79 input   59.86 | X-H torsion
[ 10167 10162 10161 10158 ] final   54.51 input  -65.29 | X-H torsion
[ 10718 10713 10712 10709 ] final  -44.87 input   66.30 | X-H torsion
[ 10763 10752 10751 10750 ] final   88.50 input  -60.55 | X-H torsion
[ 11005 11000 10999 10996 ] final   59.62 input  -57.11 | X-H torsion

> <Gold.Protein.ActiveResidues>
 VAL166  LYS551  ARG553  GLY616  TRP617  ASP618  TYR619  PRO620  LYS621  CYS622 
 ASP623  PHE694  ASN695  SER759  ASP760  ASP761  ALA762  ILE779  LEU786  VAL792 
 PHE793  MET794  SER795  GLU796  ALA797  LYS798  CYS799  TRP800  GLU811  SER814 

> <Gold.Protein.RotatedAtoms>
  152.0147  134.9857  160.0568 H   0  0  0  0  0  0  0  0  0  0  0  0  # atno 6907 bound_to 6896
  152.1395  133.4451  159.4768 H   0  0  0  0  0  0  0  0  0  0  0  0  # atno 6908 bound_to 6896
  150.6864  134.2240  159.4451 H   0  0  0  0  0  0  0  0  0  0  0  0  # atno 6909 bound_to 6896
  145.1380  139.3286  143.4631 H   0  0  0  0  0  0  0  0  0  0  0  0  # atno 7974 bound_to 7965
  156.2995  140.2384  156.4130 H   0  0  0  0  0  0  0  0  0  0  0  0  # atno 8008 bound_to 7997
  154.8423  140.0428  157.1570 H   0  0  0  0  0  0  0  0  0  0  0  0  # atno 8009 bound_to 7997
  154.9089  140.2987  155.5281 H   0  0  0  0  0  0  0  0  0  0  0  0  # atno 8010 bound_to 7997
  140.2293  144.3704  150.6420 H   0  0  0  0  0  0  0  0  0  0  0  0  # atno 10167 bound_to 10162
  156.2341  130.4175  149.8839 H   0  0  0  0  0  0  0  0  0  0  0  0  # atno 10718 bound_to 10713
  153.1775  135.4504  154.9985 H   0  0  0  0  0  0  0  0  0  0  0  0  # atno 10763 bound_to 10752
  154.8008  135.3255  154.7557 H   0  0  0  0  0  0  0  0  0  0  0  0  # atno 10764 bound_to 10752
  153.8025  135.6961  153.4908 H   0  0  0  0  0  0  0  0  0  0  0  0  # atno 10765 bound_to 10752
  140.0291  134.6039  155.9532 H   0  0  0  0  0  0  0  0  0  0  0  0  # atno 11005 bound_to 11000
  146.3508  140.1405  142.8594 LP  0  0  0  0  0  0  0  0  0  0  0  0  # atno 17320 bound_to 7965
  145.0563  140.9055  143.4965 LP  0  0  0  0  0  0  0  0  0  0  0  0  # atno 17321 bound_to 7965
  140.6197  143.2175  151.6719 LP  0  0  0  0  0  0  0  0  0  0  0  0  # atno 17342 bound_to 10162
  139.5116  144.3505  152.0657 LP  0  0  0  0  0  0  0  0  0  0  0  0  # atno 17343 bound_to 10162
  156.6443  130.8717  151.3519 LP  0  0  0  0  0  0  0  0  0  0  0  0  # atno 17370 bound_to 10713
  157.7146  130.9482  150.1211 LP  0  0  0  0  0  0  0  0  0  0  0  0  # atno 17371 bound_to 10713
  141.1820  133.6548  156.5060 LP  0  0  0  0  0  0  0  0  0  0  0  0  # atno 17394 bound_to 11000
  140.4257  134.7147  157.4914 LP  0  0  0  0  0  0  0  0  0  0  0  0  # atno 17395 bound_to 11000

$$$$
