AV-unprocessed.smi:1005|AV-procd|sdf|4389|dock9
  -GOLD-   22720 2313D 1   1.00000     0.00000
 Structure written by MMmdl.
 55 57  0  0  0  0  0  0  0  0  1 V2000
  151.8313  145.1022  159.9033 C   0  0  0  0  0  0  0  0  0  0  0  0
  151.8171  143.6997  159.3217 C   0  0  0  0  0  0  0  0  0  0  0  0
  151.3115  143.5012  158.0164 C   0  0  0  0  0  0  0  0  0  0  0  0
  151.2748  142.2115  157.4422 C   0  0  0  0  0  0  0  0  0  0  0  0
  150.8281  141.7894  156.2011 N   0  0  0  0  0  0  0  0  0  0  0  0
  151.0474  140.4788  156.2679 C   0  0  0  0  0  0  0  0  0  0  0  0
  151.5844  140.0028  157.4071 N   0  0  0  0  0  0  0  0  0  0  0  0
  151.9024  138.6248  157.7289 C   0  0  0  0  0  0  0  0  0  0  0  0
  151.6579  137.6859  156.5304 C   0  0  1  0  0  0  0  0  0  0  0  0
  152.3445  136.4699  156.7471 O   0  0  0  0  0  0  0  0  0  0  0  0
  150.1667  137.3652  156.3055 C   0  0  0  0  0  0  0  0  0  0  0  0
  149.5863  136.3990  157.2391 N   0  0  0  0  0  0  0  0  0  0  0  0
  148.5049  135.6465  156.6150 C   0  0  0  0  0  0  0  0  0  0  0  0
  147.8923  134.6183  157.5806 C   0  0  0  0  0  0  0  0  0  0  0  0
  147.4563  135.2789  158.7643 O   0  0  0  0  0  0  0  0  0  0  0  0
  148.5062  135.9707  159.4376 C   0  0  2  0  0  0  0  0  0  0  0  0
  147.9607  136.6274  160.7203 C   0  0  0  0  0  0  0  0  0  0  0  0
  147.7063  135.7174  161.8385 N   0  0  0  0  0  0  0  0  0  0  0  0
  146.5108  134.9061  161.6428 C   0  0  0  0  0  0  0  0  0  0  0  0
  147.6145  136.4550  163.0905 C   0  0  0  0  0  0  0  0  0  0  0  0
  149.0879  137.0158  158.4662 C   0  0  0  0  0  0  0  0  0  0  0  0
  151.7601  141.1184  158.2169 C   0  0  0  0  0  0  0  0  0  0  0  0
  152.2715  141.3033  159.5132 C   0  0  0  0  0  0  0  0  0  0  0  0
  152.3019  142.5977  160.0715 C   0  0  0  0  0  0  0  0  0  0  0  0
  152.8555  142.7849  161.4731 C   0  0  0  0  0  0  0  0  0  0  0  0
  151.4146  145.8280  159.2044 H   0  0  0  0  0  0  0  0  0  0  0  0
  152.8512  145.4084  160.1362 H   0  0  0  0  0  0  0  0  0  0  0  0
  151.2396  145.1423  160.8180 H   0  0  0  0  0  0  0  0  0  0  0  0
  150.9439  144.3403  157.4443 H   0  0  0  0  0  0  0  0  0  0  0  0
  150.7973  139.8260  155.4444 H   0  0  0  0  0  0  0  0  0  0  0  0
  152.9369  138.5640  158.0699 H   0  0  0  0  0  0  0  0  0  0  0  0
  151.2791  138.3349  158.5754 H   0  0  0  0  0  0  0  0  0  0  0  0
  152.0823  138.1231  155.6267 H   0  0  0  0  0  0  0  0  0  0  0  0
  151.7204  135.8198  157.0311 H   0  0  0  0  0  0  0  0  0  0  0  0
  149.5913  138.2916  156.3438 H   0  0  0  0  0  0  0  0  0  0  0  0
  150.0530  136.9844  155.2895 H   0  0  0  0  0  0  0  0  0  0  0  0
  147.7254  136.3313  156.2772 H   0  0  0  0  0  0  0  0  0  0  0  0
  148.8742  135.1318  155.7274 H   0  0  0  0  0  0  0  0  0  0  0  0
  147.0414  134.1203  157.1156 H   0  0  0  0  0  0  0  0  0  0  0  0
  148.6185  133.8444  157.8340 H   0  0  0  0  0  0  0  0  0  0  0  0
  149.2931  135.2640  159.7086 H   0  0  0  0  0  0  0  0  0  0  0  0
  148.7029  137.3568  161.0484 H   0  0  0  0  0  0  0  0  0  0  0  0
  147.0635  137.2037  160.4891 H   0  0  0  0  0  0  0  0  0  0  0  0
  146.3198  134.2819  162.5164 H   0  0  0  0  0  0  0  0  0  0  0  0
  146.6246  134.2349  160.7923 H   0  0  0  0  0  0  0  0  0  0  0  0
  145.6325  135.5306  161.4750 H   0  0  0  0  0  0  0  0  0  0  0  0
  147.4758  135.7749  163.9317 H   0  0  0  0  0  0  0  0  0  0  0  0
  146.7764  137.1533  163.0762 H   0  0  0  0  0  0  0  0  0  0  0  0
  148.5274  137.0223  163.2749 H   0  0  0  0  0  0  0  0  0  0  0  0
  149.8919  137.5435  158.9763 H   0  0  0  0  0  0  0  0  0  0  0  0
  148.3268  137.7602  158.2263 H   0  0  0  0  0  0  0  0  0  0  0  0
  152.6362  140.4548  160.0728 H   0  0  0  0  0  0  0  0  0  0  0  0
  153.1838  141.8372  161.9011 H   0  0  0  0  0  0  0  0  0  0  0  0
  152.0946  143.2034  162.1323 H   0  0  0  0  0  0  0  0  0  0  0  0
  153.7119  143.4594  161.4586 H   0  0  0  0  0  0  0  0  0  0  0  0
  1  2  1  0  0  0  0
  1 26  1  0  0  0  0
  1 27  1  0  0  0  0
  1 28  1  0  0  0  0
  2 24  1  0  0  0  0
  2  3  2  0  0  0  0
  3  4  1  0  0  0  0
  3 29  1  0  0  0  0
  4 22  2  0  0  0  0
  4  5  1  0  0  0  0
  5  6  2  0  0  0  0
  6  7  1  0  0  0  0
  6 30  1  0  0  0  0
  7  8  1  0  0  0  0
  7 22  1  0  0  0  0
  8  9  1  0  0  0  0
  8 31  1  0  0  0  0
  8 32  1  0  0  0  0
  9 10  1  0  0  0  0
  9 11  1  0  0  0  0
  9 33  1  0  0  0  0
 10 34  1  0  0  0  0
 11 12  1  0  0  0  0
 11 35  1  0  0  0  0
 11 36  1  0  0  0  0
 12 21  1  0  0  0  0
 12 13  1  0  0  0  0
 13 14  1  0  0  0  0
 13 37  1  0  0  0  0
 13 38  1  0  0  0  0
 14 15  1  0  0  0  0
 14 39  1  0  0  0  0
 14 40  1  0  0  0  0
 15 16  1  0  0  0  0
 16 17  1  0  0  0  0
 16 21  1  0  0  0  0
 16 41  1  0  0  0  0
 17 18  1  0  0  0  0
 17 42  1  0  0  0  0
 17 43  1  0  0  0  0
 18 19  1  0  0  0  0
 18 20  1  0  0  0  0
 19 44  1  0  0  0  0
 19 45  1  0  0  0  0
 19 46  1  0  0  0  0
 20 47  1  0  0  0  0
 20 48  1  0  0  0  0
 20 49  1  0  0  0  0
 21 50  1  0  0  0  0
 21 51  1  0  0  0  0
 22 23  1  0  0  0  0
 23 24  2  0  0  0  0
 23 52  1  0  0  0  0
 24 25  1  0  0  0  0
 25 53  1  0  0  0  0
 25 54  1  0  0  0  0
 25 55  1  0  0  0  0
M  END
> <s_m_source_file>
AV-unprocessed.smi

> <i_m_source_file_index>
1005

> <i_lp_mmshare_version>
43012

> <i_f3d_flags>
0

> <s_epik_input>
W0NIM11jKFtjSF0xKWMoW0NIM10pW2NIXWMoYzEyKW4oW2NIXW4yKVtDSDJdW0NASF0oW09IXSlbQ0gyXU4zW0NIMl1bQ0gyXU9bQ0BIXShbQ0gyXTMpW0NIMl1OKFtDSDNdKVtDSDNd

> <s_epik_cmdline>
J2VwaWtfcHl0aG9uJywgJy1waCcsICc3LjAnLCAnLXRuJywgJzgnLCAnLW1hJywgJzIwMCcsICctbWV0YWxfYmluZGluZycsICctaW1hZScsICc8aW5maWxlLm1hZT4nLCAnLW9tYWUnLCAnPG91dGZpbGUubWFlPic=

> <r_epik_Ionization_Penalty>
2.78613

> <r_epik_Ionization_Penalty_Charging>
0

> <r_epik_Ionization_Penalty_Neutral>
2.78613

> <r_epik_State_Penalty>
2.57336

> <r_epik_Charging_Adjusted_Penalty>
2.57336

> <i_epik_Tot_Q>
0

> <i_epik_Tot_abs_Q>
0

> <r_epik_Metal_State_Penalty>
2.49087

> <b_epik_Metal_Only>
0

> <s_lp_Force_Field>
OPLS_2005

> <r_lp_Energy>
32.9837

> <b_lp_Chiralities_Consistent>
1

> <s_lp_Variant>
AV-unprocessed.smi:1005-28

> <Gold.Version>
5.8.1

> <Gold.Id.Protein>
6NUR|6NUR_protein|mol2

> <Gold.PLP.Fitness>
46.6727

> <Gold.PLP.PLP>
-45.3028

> <Gold.PLP.part.hbond>
-1.0000

> <Gold.PLP.part.metal>
0.0000

> <Gold.PLP.part.buried>
-6.5579

> <Gold.PLP.part.nonpolar>
-38.1977

> <Gold.PLP.part.repulsive>
0.0740

> <Gold.PLP.ligand.clash>
0.0000

> <Gold.PLP.ligand.torsion>
0.8578

> <Gold.PLP.Chemscore.Hbond>
1.0000

> <Gold.PLP.Chemscore.CHOScore>
0.0000

> <Gold.PLP.Chemscore.Metal>
0.0000

> <Gold.Chemscore.Hbonds>
donor molecule, donor type, donor heavy atom, donor atom, acceptor molecule, acceptor atom, score
      P1  H 10752 10763       L1    10  0.83

> <Gold.PLP.Chemscore.Internal.Correction>
0.0856

> <Gold.Rescore>
     Score         DG    S(hbond)    S(metal)    S(lipo)     H(rot)  DE(clash)    DE(int)     intcor
     14.25     -15.34       0.15        0.00     130.16       2.29       0.14       0.95       ----

> <Gold.Chemscore.Fitness>
14.2467

> <Gold.Chemscore.DG>
-15.3405

> <Gold.Chemscore.ZeroCoef>
-5.4800

> <Gold.Chemscore.Hbond>
0.1475

> <Gold.Chemscore.Metal>
0.0000

> <Gold.Chemscore.Lipo>
130.1620

> <Gold.Chemscore.Internal_Hbond>
0.0000

> <Gold.Chemscore.DEClash>
0.1389

> <Gold.Chemscore.DEInternal>
0.9550

> <Gold.Chemscore.Rot>
2.2895

> <Gold.Chemscore.Internal.Correction>
   9.000000E+99

> <Gold.Chemscore.Hbonds>
donor molecule, donor type, donor heavy atom, donor atom, acceptor molecule, acceptor atom, score
      P1  H 10752 10763       L1    10  0.24

> <Gold.Chemscore.Hbond.Weighted>
-0.4927

> <Gold.Chemscore.Metal.Weighted>
-0.0000

> <Gold.Chemscore.Lipo.Weighted>
-15.2290

> <Gold.Chemscore.Internal_Hbond.Weighted>
0.0000

> <Gold.Chemscore.DEClash.Weighted>
0.1389

> <Gold.Chemscore.DEInternal.Weighted>
0.9550

> <Gold.Chemscore.Rot.Weighted>
5.8612

> <Gold.Chemscore.Internal.Correction.Weighted>
   9.000000E+99

> <Gold.Protein.RotatedTorsions>
[ 6907 6896 6895 6894 ] final   62.63 input  -60.11 | X-H torsion
[ 7974 7965 7964 7962 ] final  123.54 input  175.53 | X-H torsion
[ 8008 7997 7996 7995 ] final  -40.48 input   59.86 | X-H torsion
[ 10167 10162 10161 10158 ] final   65.99 input  -65.29 | X-H torsion
[ 10718 10713 10712 10709 ] final  172.98 input   66.30 | X-H torsion
[ 10763 10752 10751 10750 ] final  108.14 input  -60.55 | X-H torsion
[ 11005 11000 10999 10996 ] final   20.53 input  -57.11 | X-H torsion

> <Gold.Protein.ActiveResidues>
 VAL166  LYS551  ARG553  GLY616  TRP617  ASP618  TYR619  PRO620  LYS621  CYS622 
 ASP623  PHE694  ASN695  SER759  ASP760  ASP761  ALA762  ILE779  LEU786  VAL792 
 PHE793  MET794  SER795  GLU796  ALA797  LYS798  CYS799  TRP800  GLU811  SER814 

> <Gold.Protein.RotatedAtoms>
  152.4188  134.5993  159.9995 H   0  0  0  0  0  0  0  0  0  0  0  0  # atno 6907 bound_to 6896
  151.6149  133.3338  159.3083 H   0  0  0  0  0  0  0  0  0  0  0  0  # atno 6908 bound_to 6896
  150.8076  134.7250  159.6724 H   0  0  0  0  0  0  0  0  0  0  0  0  # atno 6909 bound_to 6896
  145.0948  139.3561  143.4842 H   0  0  0  0  0  0  0  0  0  0  0  0  # atno 7974 bound_to 7965
  154.4012  140.1524  156.3033 H   0  0  0  0  0  0  0  0  0  0  0  0  # atno 8008 bound_to 7997
  155.8681  140.3450  155.5780 H   0  0  0  0  0  0  0  0  0  0  0  0  # atno 8009 bound_to 7997
  155.7805  140.0843  157.2052 H   0  0  0  0  0  0  0  0  0  0  0  0  # atno 8010 bound_to 7997
  140.1052  144.4867  150.7012 H   0  0  0  0  0  0  0  0  0  0  0  0  # atno 10167 bound_to 10162
  156.9710  131.0090  151.2905 H   0  0  0  0  0  0  0  0  0  0  0  0  # atno 10718 bound_to 10713
  153.4165  135.3821  155.2084 H   0  0  0  0  0  0  0  0  0  0  0  0  # atno 10763 bound_to 10752
  154.8741  135.3807  154.4437 H   0  0  0  0  0  0  0  0  0  0  0  0  # atno 10764 bound_to 10752
  153.4951  135.7088  153.5925 H   0  0  0  0  0  0  0  0  0  0  0  0  # atno 10765 bound_to 10752
  140.4015  134.1713  155.7664 H   0  0  0  0  0  0  0  0  0  0  0  0  # atno 11005 bound_to 11000
  146.3531  140.0798  142.8618 LP  0  0  0  0  0  0  0  0  0  0  0  0  # atno 17320 bound_to 7965
  145.1024  140.9354  143.4705 LP  0  0  0  0  0  0  0  0  0  0  0  0  # atno 17321 bound_to 7965
  140.6956  143.2402  151.5011 LP  0  0  0  0  0  0  0  0  0  0  0  0  # atno 17342 bound_to 10162
  139.5649  144.2067  152.1749 LP  0  0  0  0  0  0  0  0  0  0  0  0  # atno 17343 bound_to 10162
  157.5593  130.8235  149.8244 LP  0  0  0  0  0  0  0  0  0  0  0  0  # atno 17370 bound_to 10713
  156.0283  130.3772  150.1760 LP  0  0  0  0  0  0  0  0  0  0  0  0  # atno 17371 bound_to 10713
  141.1855  133.8322  157.1103 LP  0  0  0  0  0  0  0  0  0  0  0  0  # atno 17394 bound_to 11000
  140.0332  134.9891  157.0821 LP  0  0  0  0  0  0  0  0  0  0  0  0  # atno 17395 bound_to 11000

$$$$
