AV-unprocessed.smi:3181|AV-procd|sdf|12143|dock6
  -GOLD-   2272017583D 1   1.00000     0.00000
 Structure written by MMmdl.
 42 43  0  0  0  0  0  0  0  0  2 V2000
  149.1775  141.4234  156.7686 C   0  0  0  0  0  0  0  0  0  0  0  0
  150.5108  141.8639  156.1417 C   0  0  2  0  0  0  0  0  0  0  0  0
  151.5912  140.7610  156.2261 C   0  0  0  0  0  0  0  0  0  0  0  0
  151.1588  139.5016  155.6492 N   0  0  0  0  0  0  0  0  0  0  0  0
  151.1478  138.2686  156.1589 C   0  0  0  0  0  0  0  0  0  0  0  0
  150.6826  137.3498  155.3246 N   0  0  0  0  0  0  0  0  0  0  0  0
  150.4152  138.1382  154.2413 C   0  0  0  0  0  0  0  0  0  0  0  0
  150.6854  139.4361  154.3829 N   0  0  0  0  0  0  0  0  0  0  0  0
  150.9725  143.1070  156.8025 N   0  3  0  0  0  0  0  0  0  0  0  0
  151.0840  143.0652  158.2792 C   0  0  2  0  0  0  0  0  0  0  0  0
  151.1517  144.4970  158.8322 C   0  0  0  0  0  0  0  0  0  0  0  0
  151.2890  144.4951  160.3607 C   0  0  0  0  0  0  0  0  0  0  0  0
  152.5258  143.7018  160.8284 C   0  0  1  0  0  0  0  0  0  0  0  0
  152.6223  143.7434  162.3639 C   0  0  0  0  0  0  0  0  0  0  0  0
  152.4937  142.2577  160.2616 C   0  0  2  0  0  0  0  0  0  0  0  0
  153.7391  141.4373  160.6430 C   0  0  0  0  0  0  0  0  0  0  0  0
  152.3299  142.2749  158.7270 C   0  0  0  0  0  0  0  0  0  0  0  0
  148.7561  140.5605  156.2521 H   0  0  0  0  0  0  0  0  0  0  0  0
  148.4368  142.2220  156.7149 H   0  0  0  0  0  0  0  0  0  0  0  0
  149.3013  141.1550  157.8185 H   0  0  0  0  0  0  0  0  0  0  0  0
  150.3123  142.0812  155.0922 H   0  0  0  0  0  0  0  0  0  0  0  0
  152.5037  141.0633  155.7121 H   0  0  0  0  0  0  0  0  0  0  0  0
  151.8665  140.5837  157.2668 H   0  0  0  0  0  0  0  0  0  0  0  0
  151.4823  138.0384  157.1601 H   0  0  0  0  0  0  0  0  0  0  0  0
  150.0099  137.7441  153.3210 H   0  0  0  0  0  0  0  0  0  0  0  0
  151.8841  143.3441  156.4376 H   0  0  0  0  0  0  0  0  0  0  0  0
  150.1943  142.5890  158.6914 H   0  0  0  0  0  0  0  0  0  0  0  0
  151.9965  145.0293  158.3924 H   0  0  0  0  0  0  0  0  0  0  0  0
  150.2554  145.0501  158.5481 H   0  0  0  0  0  0  0  0  0  0  0  0
  151.3494  145.5237  160.7179 H   0  0  0  0  0  0  0  0  0  0  0  0
  150.3880  144.0694  160.8049 H   0  0  0  0  0  0  0  0  0  0  0  0
  153.4100  144.2027  160.4310 H   0  0  0  0  0  0  0  0  0  0  0  0
  151.8011  143.1967  162.8285 H   0  0  0  0  0  0  0  0  0  0  0  0
  152.5848  144.7699  162.7295 H   0  0  0  0  0  0  0  0  0  0  0  0
  153.5573  143.3154  162.7240 H   0  0  0  0  0  0  0  0  0  0  0  0
  151.6249  141.7476  160.6809 H   0  0  0  0  0  0  0  0  0  0  0  0
  154.6548  141.9316  160.3171 H   0  0  0  0  0  0  0  0  0  0  0  0
  153.7137  140.4499  160.1812 H   0  0  0  0  0  0  0  0  0  0  0  0
  153.8069  141.2795  161.7190 H   0  0  0  0  0  0  0  0  0  0  0  0
  152.2736  141.2480  158.3658 H   0  0  0  0  0  0  0  0  0  0  0  0
  153.2212  142.7094  158.2713 H   0  0  0  0  0  0  0  0  0  0  0  0
  150.3297  143.8439  156.5494 H   0  0  0  0  0  0  0  0  0  0  0  0
  1  2  1  0  0  0  0
  1 18  1  0  0  0  0
  1 19  1  0  0  0  0
  1 20  1  0  0  0  0
  2  3  1  0  0  0  0
  2  9  1  0  0  0  0
  2 21  1  0  0  0  0
  3  4  1  0  0  0  0
  3 22  1  0  0  0  0
  3 23  1  0  0  0  0
  4  8  1  0  0  0  0
  4  5  1  0  0  0  0
  5  6  2  0  0  0  0
  5 24  1  0  0  0  0
  6  7  1  0  0  0  0
  7  8  2  0  0  0  0
  7 25  1  0  0  0  0
  9 10  1  0  0  0  0
  9 26  1  0  0  0  0
  9 42  1  0  0  0  0
 10 17  1  0  0  0  0
 10 11  1  0  0  0  0
 10 27  1  0  0  0  0
 11 12  1  0  0  0  0
 11 28  1  0  0  0  0
 11 29  1  0  0  0  0
 12 13  1  0  0  0  0
 12 30  1  0  0  0  0
 12 31  1  0  0  0  0
 13 14  1  0  0  0  0
 13 15  1  0  0  0  0
 13 32  1  0  0  0  0
 14 33  1  0  0  0  0
 14 34  1  0  0  0  0
 14 35  1  0  0  0  0
 15 16  1  0  0  0  0
 15 17  1  0  0  0  0
 15 36  1  0  0  0  0
 16 37  1  0  0  0  0
 16 38  1  0  0  0  0
 16 39  1  0  0  0  0
 17 40  1  0  0  0  0
 17 41  1  0  0  0  0
M  CHG  1   9   1
M  END
> <s_m_source_file>
AV-unprocessed.smi

> <i_m_source_file_index>
3181

> <i_lp_mmshare_version>
43012

> <i_f3d_flags>
0

> <s_epik_input>
bjFbY0hdbltjSF1uMVtDSDJdW0NAQEhdKFtDSDNdKVtOSF1bQ0BASF0yW0NIMl1bQ0gyXVtDQEBIXShbQ0gzXSlbQ0BASF0oW0NIM10pW0NIMl0y

> <s_epik_cmdline>
J2VwaWtfcHl0aG9uJywgJy1waCcsICc3LjAnLCAnLXRuJywgJzgnLCAnLW1hJywgJzIwMCcsICctbWV0YWxfYmluZGluZycsICctaW1hZScsICc8aW5maWxlLm1hZT4nLCAnLW9tYWUnLCAnPG91dGZpbGUubWFlPic=

> <r_lp_tautomer_probability>
1

> <r_epik_Ionization_Penalty>
0.000617007

> <r_epik_Ionization_Penalty_Charging>
0.000616215

> <r_epik_Ionization_Penalty_Neutral>
7.92544e-07

> <r_epik_State_Penalty>
0.000388807

> <r_epik_Charging_Adjusted_Penalty>
0.00100502

> <i_epik_Tot_Q>
1

> <i_epik_Tot_abs_Q>
1

> <r_epik_Metal_State_Penalty>
-0

> <b_epik_Metal_Only>
0

> <s_lp_Force_Field>
OPLS_2005

> <r_lp_Energy>
18.1842

> <b_lp_Chiralities_Consistent>
1

> <s_lp_Variant>
AV-unprocessed.smi:3181-9

> <Gold.Version>
5.8.1

> <Gold.Id.Protein>
6NUR|6NUR_protein|mol2

> <Gold.PLP.Fitness>
52.4213

> <Gold.PLP.PLP>
-40.4518

> <Gold.PLP.part.hbond>
-2.0000

> <Gold.PLP.part.metal>
0.0000

> <Gold.PLP.part.buried>
-5.4075

> <Gold.PLP.part.nonpolar>
-33.1054

> <Gold.PLP.part.repulsive>
0.2784

> <Gold.PLP.ligand.clash>
0.0000

> <Gold.PLP.ligand.torsion>
0.2122

> <Gold.PLP.Chemscore.Hbond>
3.0000

> <Gold.PLP.Chemscore.CHOScore>
1.1234

> <Gold.PLP.Chemscore.Metal>
0.0000

> <Gold.Chemscore.Hbonds>
donor molecule, donor type, donor heavy atom, donor atom, acceptor molecule, acceptor atom, score
      L1  H     9    42       P1  8028  2.00
      P1  H  7989  7998       L1     8  1.00
      L1  C     7    25       P1  7948  1.00
      L1  C     7    25       P1  7949  0.02

> <Gold.PLP.Chemscore.Internal.Correction>
0.0238

> <Gold.Rescore>
     Score         DG    S(hbond)    S(metal)    S(lipo)     H(rot)  DE(clash)    DE(int)     intcor
     18.49     -18.88       1.84        0.00     108.18       2.11       0.02       0.37       ----

> <Gold.Chemscore.Fitness>
18.4856

> <Gold.Chemscore.DG>
-18.8759

> <Gold.Chemscore.ZeroCoef>
-5.4800

> <Gold.Chemscore.Hbond>
1.8381

> <Gold.Chemscore.Metal>
0.0000

> <Gold.Chemscore.Lipo>
108.1803

> <Gold.Chemscore.Internal_Hbond>
0.0000

> <Gold.Chemscore.DEClash>
0.0214

> <Gold.Chemscore.DEInternal>
0.3688

> <Gold.Chemscore.Rot>
2.1095

> <Gold.Chemscore.Internal.Correction>
   9.000000E+99

> <Gold.Chemscore.Hbonds>
donor molecule, donor type, donor heavy atom, donor atom, acceptor molecule, acceptor atom, score
      L1  H     9    42       P1  8028  0.99
      P1  H  7989  7998       L1     8  0.39

> <Gold.Chemscore.Hbond.Weighted>
-6.1391

> <Gold.Chemscore.Metal.Weighted>
-0.0000

> <Gold.Chemscore.Lipo.Weighted>
-12.6571

> <Gold.Chemscore.Internal_Hbond.Weighted>
0.0000

> <Gold.Chemscore.DEClash.Weighted>
0.0214

> <Gold.Chemscore.DEInternal.Weighted>
0.3688

> <Gold.Chemscore.Rot.Weighted>
5.4003

> <Gold.Chemscore.Internal.Correction.Weighted>
   9.000000E+99

> <Gold.Protein.RotatedTorsions>
[ 6907 6896 6895 6894 ] final  147.05 input  -60.11 | X-H torsion
[ 7974 7965 7964 7962 ] final -177.45 input  175.53 | X-H torsion
[ 8008 7997 7996 7995 ] final -100.64 input   59.86 | X-H torsion
[ 10167 10162 10161 10158 ] final  126.02 input  -65.29 | X-H torsion
[ 10718 10713 10712 10709 ] final  130.72 input   66.30 | X-H torsion
[ 10763 10752 10751 10750 ] final  156.50 input  -60.55 | X-H torsion
[ 11005 11000 10999 10996 ] final  157.17 input  -57.11 | X-H torsion

> <Gold.Protein.ActiveResidues>
 VAL166  LYS551  ARG553  GLY616  TRP617  ASP618  TYR619  PRO620  LYS621  CYS622 
 ASP623  PHE694  ASN695  SER759  ASP760  ASP761  ALA762  ILE779  LEU786  VAL792 
 PHE793  MET794  SER795  GLU796  ALA797  LYS798  CYS799  TRP800  GLU811  SER814 

> <Gold.Protein.RotatedAtoms>
  152.1599  133.4575  159.4855 H   0  0  0  0  0  0  0  0  0  0  0  0  # atno 6907 bound_to 6896
  150.6905  134.2085  159.4359 H   0  0  0  0  0  0  0  0  0  0  0  0  # atno 6908 bound_to 6896
  151.9986  134.9940  160.0615 H   0  0  0  0  0  0  0  0  0  0  0  0  # atno 6909 bound_to 6896
  144.7128  140.1018  143.6416 H   0  0  0  0  0  0  0  0  0  0  0  0  # atno 7974 bound_to 7965
  154.8314  140.0439  157.1479 H   0  0  0  0  0  0  0  0  0  0  0  0  # atno 8008 bound_to 7997
  154.9148  140.3018  155.5227 H   0  0  0  0  0  0  0  0  0  0  0  0  # atno 8009 bound_to 7997
  156.2987  140.2351  156.4192 H   0  0  0  0  0  0  0  0  0  0  0  0  # atno 8010 bound_to 7997
  139.5654  144.6908  151.3926 H   0  0  0  0  0  0  0  0  0  0  0  0  # atno 10167 bound_to 10162
  157.5035  131.1095  150.9394 H   0  0  0  0  0  0  0  0  0  0  0  0  # atno 10718 bound_to 10713
  154.1853  135.2797  155.3039 H   0  0  0  0  0  0  0  0  0  0  0  0  # atno 10763 bound_to 10752
  154.5971  135.5541  153.7340 H   0  0  0  0  0  0  0  0  0  0  0  0  # atno 10764 bound_to 10752
  153.0127  135.6382  154.1991 H   0  0  0  0  0  0  0  0  0  0  0  0  # atno 10765 bound_to 10752
  140.1744  134.8520  157.2729 H   0  0  0  0  0  0  0  0  0  0  0  0  # atno 11005 bound_to 11000
  145.9531  139.2748  143.1200 LP  0  0  0  0  0  0  0  0  0  0  0  0  # atno 17320 bound_to 7965
  145.9301  140.9054  143.0360 LP  0  0  0  0  0  0  0  0  0  0  0  0  # atno 17321 bound_to 7965
  140.6937  143.7801  150.7293 LP  0  0  0  0  0  0  0  0  0  0  0  0  # atno 17342 bound_to 10162
  140.1291  143.4542  152.2266 LP  0  0  0  0  0  0  0  0  0  0  0  0  # atno 17343 bound_to 10162
  157.0057  130.5617  149.5315 LP  0  0  0  0  0  0  0  0  0  0  0  0  # atno 17370 bound_to 10713
  156.0244  130.5338  150.8365 LP  0  0  0  0  0  0  0  0  0  0  0  0  # atno 17371 bound_to 10713
  140.2340  134.3875  155.7509 LP  0  0  0  0  0  0  0  0  0  0  0  0  # atno 17394 bound_to 11000
  141.2219  133.7230  156.8685 LP  0  0  0  0  0  0  0  0  0  0  0  0  # atno 17395 bound_to 11000

$$$$
