AV-unprocessed.smi:258|AV-procd|sdf|1966|dock10
  -GOLD-   2262021123D 1   1.00000     0.00000
 Structure written by MMmdl.
 57 60  0  0  0  0  0  0  0  0  1 V2000
  149.2457  144.3197  159.7452 O   0  0  0  0  0  0  0  0  0  0  0  0
  150.3404  145.0626  160.2382 C   0  0  0  0  0  0  0  0  0  0  0  0
  151.6509  144.3061  159.9891 C   0  0  0  0  0  0  0  0  0  0  0  0
  151.4085  143.2478  159.0730 O   0  0  0  0  0  0  0  0  0  0  0  0
  152.4820  142.3252  158.9432 C   0  0  1  0  0  0  0  0  0  0  0  0
  153.0198  141.9049  160.3259 C   0  0  0  0  0  0  0  0  0  0  0  0
  154.0744  140.7988  160.1713 C   0  0  0  0  0  0  0  0  0  0  0  0
  153.5136  139.6083  159.3772 C   0  0  0  0  0  0  0  0  0  0  0  0
  152.9657  140.0508  158.0937 N   0  0  0  0  0  0  0  0  0  0  0  0
  152.7285  139.1066  157.1474 C   0  0  0  0  0  0  0  0  0  0  0  0
  153.4815  139.0755  156.0146 N   0  0  0  0  0  0  0  0  0  0  0  0
  153.2638  138.1426  155.0830 C   0  0  0  0  0  0  0  0  0  0  0  0
  152.3592  137.1617  155.0791 N   0  0  0  0  0  0  0  0  0  0  0  0
  151.5943  137.1927  156.2072 C   0  0  0  0  0  0  0  0  0  0  0  0
  151.7082  138.1220  157.2799 C   0  0  0  0  0  0  0  0  0  0  0  0
  150.7463  137.8471  158.2458 N   0  0  0  0  0  0  0  0  0  0  0  0
  150.1110  136.8076  157.7779 C   0  0  0  0  0  0  0  0  0  0  0  0
  150.5549  136.3505  156.5578 N   0  0  0  0  0  0  0  0  0  0  0  0
  150.0354  135.2188  155.8103 C   0  0  0  0  0  0  0  0  0  0  0  0
  150.4778  133.8476  156.3799 C   0  0  2  0  0  0  0  0  0  0  0  0
  152.0081  133.7514  156.5932 C   0  0  0  0  0  0  0  0  0  0  0  0
  152.3526  132.6145  157.3583 O   0  0  0  0  0  0  0  0  0  0  0  0
  149.9298  132.6757  155.5268 C   0  0  2  0  0  0  0  0  0  0  0  0
  150.3088  132.7252  154.0570 C   0  0  0  0  0  0  0  0  0  0  0  0
  149.2947  131.7740  153.4307 C   0  0  0  0  0  0  0  0  0  0  0  0
  148.1196  131.8847  154.2264 O   0  0  0  0  0  0  0  0  0  0  0  0
  148.4029  132.6192  155.4133 C   0  0  0  0  0  0  0  0  0  0  0  0
  151.9475  141.0975  158.1851 C   0  0  0  0  0  0  0  0  0  0  0  0
  148.8233  144.8224  159.0657 H   0  0  0  0  0  0  0  0  0  0  0  0
  150.3625  146.0556  159.7883 H   0  0  0  0  0  0  0  0  0  0  0  0
  150.1904  145.1968  161.3096 H   0  0  0  0  0  0  0  0  0  0  0  0
  152.3740  144.9900  159.5423 H   0  0  0  0  0  0  0  0  0  0  0  0
  152.0790  143.9518  160.9273 H   0  0  0  0  0  0  0  0  0  0  0  0
  153.2858  142.7670  158.3510 H   0  0  0  0  0  0  0  0  0  0  0  0
  153.4577  142.7539  160.8498 H   0  0  0  0  0  0  0  0  0  0  0  0
  152.1988  141.5438  160.9466 H   0  0  0  0  0  0  0  0  0  0  0  0
  154.9483  141.1999  159.6565 H   0  0  0  0  0  0  0  0  0  0  0  0
  154.4170  140.4662  161.1513 H   0  0  0  0  0  0  0  0  0  0  0  0
  154.3066  138.8766  159.2155 H   0  0  0  0  0  0  0  0  0  0  0  0
  152.7291  139.1140  159.9518 H   0  0  0  0  0  0  0  0  0  0  0  0
  153.9081  138.1885  154.2175 H   0  0  0  0  0  0  0  0  0  0  0  0
  149.2907  136.3471  158.3094 H   0  0  0  0  0  0  0  0  0  0  0  0
  148.9483  135.2990  155.8042 H   0  0  0  0  0  0  0  0  0  0  0  0
  150.3565  135.3166  154.7726 H   0  0  0  0  0  0  0  0  0  0  0  0
  150.0283  133.7599  157.3702 H   0  0  0  0  0  0  0  0  0  0  0  0
  152.5339  133.7031  155.6396 H   0  0  0  0  0  0  0  0  0  0  0  0
  152.3879  134.6403  157.0962 H   0  0  0  0  0  0  0  0  0  0  0  0
  152.8975  132.0512  156.8305 H   0  0  0  0  0  0  0  0  0  0  0  0
  150.2822  131.7281  155.9376 H   0  0  0  0  0  0  0  0  0  0  0  0
  150.1709  133.7324  153.6610 H   0  0  0  0  0  0  0  0  0  0  0  0
  151.3380  132.4207  153.8655 H   0  0  0  0  0  0  0  0  0  0  0  0
  149.0934  132.0079  152.3851 H   0  0  0  0  0  0  0  0  0  0  0  0
  149.6547  130.7459  153.4851 H   0  0  0  0  0  0  0  0  0  0  0  0
  147.9359  132.1529  156.2810 H   0  0  0  0  0  0  0  0  0  0  0  0
  147.9854  133.6209  155.3024 H   0  0  0  0  0  0  0  0  0  0  0  0
  151.0781  140.6902  158.7034 H   0  0  0  0  0  0  0  0  0  0  0  0
  151.6025  141.4076  157.1995 H   0  0  0  0  0  0  0  0  0  0  0  0
  1  2  1  0  0  0  0
  1 29  1  0  0  0  0
  2  3  1  0  0  0  0
  2 30  1  0  0  0  0
  2 31  1  0  0  0  0
  3  4  1  0  0  0  0
  3 32  1  0  0  0  0
  3 33  1  0  0  0  0
  4  5  1  0  0  0  0
  5 28  1  0  0  0  0
  5  6  1  0  0  0  0
  5 34  1  0  0  0  0
  6  7  1  0  0  0  0
  6 35  1  0  0  0  0
  6 36  1  0  0  0  0
  7  8  1  0  0  0  0
  7 37  1  0  0  0  0
  7 38  1  0  0  0  0
  8  9  1  0  0  0  0
  8 39  1  0  0  0  0
  8 40  1  0  0  0  0
  9 10  1  0  0  0  0
  9 28  1  0  0  0  0
 10 15  1  0  0  0  0
 10 11  2  0  0  0  0
 11 12  1  0  0  0  0
 12 13  2  0  0  0  0
 12 41  1  0  0  0  0
 13 14  1  0  0  0  0
 14 18  1  0  0  0  0
 14 15  2  0  0  0  0
 15 16  1  0  0  0  0
 16 17  2  0  0  0  0
 17 18  1  0  0  0  0
 17 42  1  0  0  0  0
 18 19  1  0  0  0  0
 19 20  1  0  0  0  0
 19 43  1  0  0  0  0
 19 44  1  0  0  0  0
 20 21  1  0  0  0  0
 20 23  1  0  0  0  0
 20 45  1  0  0  0  0
 21 22  1  0  0  0  0
 21 46  1  0  0  0  0
 21 47  1  0  0  0  0
 22 48  1  0  0  0  0
 23 27  1  0  0  0  0
 23 24  1  0  0  0  0
 23 49  1  0  0  0  0
 24 25  1  0  0  0  0
 24 50  1  0  0  0  0
 24 51  1  0  0  0  0
 25 26  1  0  0  0  0
 25 52  1  0  0  0  0
 25 53  1  0  0  0  0
 26 27  1  0  0  0  0
 27 54  1  0  0  0  0
 27 55  1  0  0  0  0
 28 56  1  0  0  0  0
 28 57  1  0  0  0  0
M  END
> <s_m_source_file>
AV-unprocessed.smi

> <i_m_source_file_index>
258

> <i_lp_mmshare_version>
43012

> <i_f3d_flags>
0

> <s_epik_input>
W09IXVtDSDJdW0NIMl1PW0NAQEhdMVtDSDJdW0NIMl1bQ0gyXU4oW0NIMl0xKWMobltjSF1uMiljKGMyMyluW2NIXW4zW0NIMl1bQ0BIXShbQ0gyXVtPSF0pW0NAQEhdNFtDSDJdW0NIMl1PW0NIMl00

> <s_epik_cmdline>
J2VwaWtfcHl0aG9uJywgJy1waCcsICc3LjAnLCAnLXRuJywgJzgnLCAnLW1hJywgJzIwMCcsICctbWV0YWxfYmluZGluZycsICctaW1hZScsICc8aW5maWxlLm1hZT4nLCAnLW9tYWUnLCAnPG91dGZpbGUubWFlPic=

> <r_lp_tautomer_probability>
1

> <r_epik_Ionization_Penalty>
0.00349036

> <r_epik_Ionization_Penalty_Charging>
0

> <r_epik_Ionization_Penalty_Neutral>
0.00349036

> <r_epik_State_Penalty>
0.00229798

> <r_epik_Charging_Adjusted_Penalty>
0.00229798

> <i_epik_Tot_Q>
0

> <i_epik_Tot_abs_Q>
0

> <r_epik_Metal_State_Penalty>
-0

> <b_epik_Metal_Only>
0

> <s_lp_Force_Field>
OPLS_2005

> <r_lp_Energy>
45.891

> <b_lp_Chiralities_Consistent>
1

> <s_lp_Variant>
AV-unprocessed.smi:258-2

> <Gold.Version>
5.8.1

> <Gold.Id.Protein>
6NUR|6NUR_protein|mol2

> <Gold.PLP.Fitness>
52.5968

> <Gold.PLP.PLP>
-42.3485

> <Gold.PLP.part.hbond>
-4.8624

> <Gold.PLP.part.metal>
0.0000

> <Gold.PLP.part.buried>
-5.0037

> <Gold.PLP.part.nonpolar>
-33.2759

> <Gold.PLP.part.repulsive>
0.2051

> <Gold.PLP.ligand.clash>
0.0000

> <Gold.PLP.ligand.torsion>
0.9579

> <Gold.PLP.Chemscore.Hbond>
3.8705

> <Gold.PLP.Chemscore.CHOScore>
0.0000

> <Gold.PLP.Chemscore.Metal>
0.0000

> <Gold.Chemscore.Hbonds>
donor molecule, donor type, donor heavy atom, donor atom, acceptor molecule, acceptor atom, score
      L1  H     1    29       P1  8029  0.31
      P1  H  6896  6908       L1    22  0.33
      P1  H  7997  8008       L1    11  0.62
      P1  H 10752 10765       L1    13  0.74

> <Gold.PLP.Chemscore.Internal.Correction>
0.5527

> <Gold.Rescore>
     Score         DG    S(hbond)    S(metal)    S(lipo)     H(rot)  DE(clash)    DE(int)     intcor
     15.24     -16.41       3.21        0.00      94.17       4.22       0.06       1.11       ----

> <Gold.Chemscore.Fitness>
15.2377

> <Gold.Chemscore.DG>
-16.4071

> <Gold.Chemscore.ZeroCoef>
-5.4800

> <Gold.Chemscore.Hbond>
3.2109

> <Gold.Chemscore.Metal>
0.0000

> <Gold.Chemscore.Lipo>
94.1667

> <Gold.Chemscore.Internal_Hbond>
0.0000

> <Gold.Chemscore.DEClash>
0.0579

> <Gold.Chemscore.DEInternal>
1.1115

> <Gold.Chemscore.Rot>
4.2246

> <Gold.Chemscore.Internal.Correction>
   9.000000E+99

> <Gold.Chemscore.Hbonds>
donor molecule, donor type, donor heavy atom, donor atom, acceptor molecule, acceptor atom, score
      L1  H     1    29       P1  8029  0.31
      P1  H  6896  6908       L1    22  0.04
      P1  H  7997  8008       L1    11  0.17
      P1  H 10752 10765       L1    13  0.63

> <Gold.Chemscore.Hbond.Weighted>
-10.7245

> <Gold.Chemscore.Metal.Weighted>
-0.0000

> <Gold.Chemscore.Lipo.Weighted>
-11.0175

> <Gold.Chemscore.Internal_Hbond.Weighted>
0.0000

> <Gold.Chemscore.DEClash.Weighted>
0.0579

> <Gold.Chemscore.DEInternal.Weighted>
1.1115

> <Gold.Chemscore.Rot.Weighted>
10.8149

> <Gold.Chemscore.Internal.Correction.Weighted>
   9.000000E+99

> <Gold.Protein.RotatedTorsions>
[ 6907 6896 6895 6894 ] final   76.31 input  -60.11 | X-H torsion
[ 7974 7965 7964 7962 ] final  -14.82 input  175.53 | X-H torsion
[ 8008 7997 7996 7995 ] final  -38.28 input   59.86 | X-H torsion
[ 10167 10162 10161 10158 ] final   67.67 input  -65.29 | X-H torsion
[ 10718 10713 10712 10709 ] final -173.43 input   66.30 | X-H torsion
[ 10763 10752 10751 10750 ] final  175.14 input  -60.55 | X-H torsion
[ 11005 11000 10999 10996 ] final    9.88 input  -57.11 | X-H torsion

> <Gold.Protein.ActiveResidues>
 VAL166  LYS551  ARG553  GLY616  TRP617  ASP618  TYR619  PRO620  LYS621  CYS622 
 ASP623  PHE694  ASN695  SER759  ASP760  ASP761  ALA762  ILE779  LEU786  VAL792 
 PHE793  MET794  SER795  GLU796  ALA797  LYS798  CYS799  TRP800  GLU811  SER814 

> <Gold.Protein.RotatedAtoms>
  152.5067  134.3988  159.9409 H   0  0  0  0  0  0  0  0  0  0  0  0  # atno 6907 bound_to 6896
  151.3951  133.3769  159.2733 H   0  0  0  0  0  0  0  0  0  0  0  0  # atno 6908 bound_to 6896
  150.9403  134.8833  159.7667 H   0  0  0  0  0  0  0  0  0  0  0  0  # atno 6909 bound_to 6896
  146.2058  140.3404  142.8407 H   0  0  0  0  0  0  0  0  0  0  0  0  # atno 7974 bound_to 7965
  154.4039  140.1582  156.2675 H   0  0  0  0  0  0  0  0  0  0  0  0  # atno 8008 bound_to 7997
  155.8983  140.3434  155.5985 H   0  0  0  0  0  0  0  0  0  0  0  0  # atno 8009 bound_to 7997
  155.7478  140.0801  157.2206 H   0  0  0  0  0  0  0  0  0  0  0  0  # atno 8010 bound_to 7997
  140.0870  144.5021  150.7124 H   0  0  0  0  0  0  0  0  0  0  0  0  # atno 10167 bound_to 10162
  156.7702  130.9446  151.3120 H   0  0  0  0  0  0  0  0  0  0  0  0  # atno 10718 bound_to 10713
  154.4635  135.2768  155.1695 H   0  0  0  0  0  0  0  0  0  0  0  0  # atno 10763 bound_to 10752
  154.3473  135.6157  153.5629 H   0  0  0  0  0  0  0  0  0  0  0  0  # atno 10764 bound_to 10752
  152.9857  135.5803  154.5002 H   0  0  0  0  0  0  0  0  0  0  0  0  # atno 10765 bound_to 10752
  140.5208  134.0561  155.7844 H   0  0  0  0  0  0  0  0  0  0  0  0  # atno 11005 bound_to 11000
  144.8789  140.7374  143.5999 LP  0  0  0  0  0  0  0  0  0  0  0  0  # atno 17320 bound_to 7965
  145.3324  139.1755  143.4529 LP  0  0  0  0  0  0  0  0  0  0  0  0  # atno 17321 bound_to 7965
  140.7048  143.2460  151.4758 LP  0  0  0  0  0  0  0  0  0  0  0  0  # atno 17342 bound_to 10162
  139.5746  144.1848  152.1885 LP  0  0  0  0  0  0  0  0  0  0  0  0  # atno 17343 bound_to 10162
  157.6694  130.9037  150.0006 LP  0  0  0  0  0  0  0  0  0  0  0  0  # atno 17370 bound_to 10713
  156.1283  130.3644  149.9774 LP  0  0  0  0  0  0  0  0  0  0  0  0  # atno 17371 bound_to 10713
  141.1335  133.9261  157.2484 LP  0  0  0  0  0  0  0  0  0  0  0  0  # atno 17394 bound_to 11000
  139.9607  135.0155  156.9252 LP  0  0  0  0  0  0  0  0  0  0  0  0  # atno 17395 bound_to 11000

$$$$
