AV-unprocessed.smi:1066|AV-procd|sdf|4671|dock4
  -GOLD-   22720 3183D 1   1.00000     0.00000
 Structure written by MMmdl.
 38 40  0  0  0  0  0  0  0  0  2 V2000
  150.0521  135.3250  156.8514 C   0  0  0  0  0  0  0  0  0  0  0  0
  149.9451  133.8465  156.6115 C   0  0  0  0  0  0  0  0  0  0  0  0
  150.0575  133.0096  157.6349 N   0  0  0  0  0  0  0  0  0  0  0  0
  149.9184  131.7204  157.1078 O   0  0  0  0  0  0  0  0  0  0  0  0
  149.7242  131.8563  155.7762 C   0  0  0  0  0  0  0  0  0  0  0  0
  149.5181  130.5040  154.7344 Cl  0  0  0  0  0  0  0  0  0  0  0  0
  149.7275  133.1628  155.3795 C   0  0  0  0  0  0  0  0  0  0  0  0
  149.5533  133.7498  154.0019 C   0  0  0  0  0  0  0  0  0  0  0  0
  148.1990  133.3273  153.4340 C   0  0  0  0  0  0  0  0  0  0  0  0
  147.6900  132.2614  153.7788 O   0  0  0  0  0  0  0  0  0  0  0  0
  147.6211  134.1773  152.5720 N   0  0  0  0  0  0  0  0  0  0  0  0
  146.3159  133.9797  151.9537 C   0  0  1  0  0  0  0  0  0  0  0  0
  145.5554  135.2671  151.6505 C   0  0  0  0  0  0  0  0  0  0  0  0
  144.5537  134.8182  150.5810 C   0  0  0  0  0  0  0  0  0  0  0  0
  145.1740  133.6733  149.8684 N   0  3  2  0  0  0  0  0  0  0  0  0
  144.2677  132.5151  149.7075 C   0  0  0  0  0  0  0  0  0  0  0  0
  143.2149  132.4184  150.7858 C   0  0  0  0  0  0  0  0  0  0  0  0
  144.4051  131.4838  150.8020 C   0  0  0  0  0  0  0  0  0  0  0  0
  146.4351  133.3447  150.5690 C   0  0  0  0  0  0  0  0  0  0  0  0
  150.5375  135.8254  156.0132 H   0  0  0  0  0  0  0  0  0  0  0  0
  150.6347  135.5451  157.7467 H   0  0  0  0  0  0  0  0  0  0  0  0
  149.0656  135.7710  156.9777 H   0  0  0  0  0  0  0  0  0  0  0  0
  149.6124  134.8389  154.0188 H   0  0  0  0  0  0  0  0  0  0  0  0
  150.3425  133.4165  153.3268 H   0  0  0  0  0  0  0  0  0  0  0  0
  148.1147  135.0289  152.3455 H   0  0  0  0  0  0  0  0  0  0  0  0
  145.7035  133.3353  152.5882 H   0  0  0  0  0  0  0  0  0  0  0  0
  145.0710  135.6947  152.5290 H   0  0  0  0  0  0  0  0  0  0  0  0
  146.2307  136.0183  151.2374 H   0  0  0  0  0  0  0  0  0  0  0  0
  143.6263  134.5039  151.0629 H   0  0  0  0  0  0  0  0  0  0  0  0
  144.3062  135.6229  149.8883 H   0  0  0  0  0  0  0  0  0  0  0  0
  144.0431  132.2122  148.6860 H   0  0  0  0  0  0  0  0  0  0  0  0
  143.1789  133.2003  151.5426 H   0  0  0  0  0  0  0  0  0  0  0  0
  142.2516  131.9935  150.5108 H   0  0  0  0  0  0  0  0  0  0  0  0
  144.2249  130.4437  150.5374 H   0  0  0  0  0  0  0  0  0  0  0  0
  145.1600  131.6440  151.5698 H   0  0  0  0  0  0  0  0  0  0  0  0
  147.2548  133.8004  150.0110 H   0  0  0  0  0  0  0  0  0  0  0  0
  146.6277  132.2718  150.6169 H   0  0  0  0  0  0  0  0  0  0  0  0
  145.4247  133.9855  148.9409 H   0  0  0  0  0  0  0  0  0  0  0  0
  1  2  1  0  0  0  0
  1 20  1  0  0  0  0
  1 21  1  0  0  0  0
  1 22  1  0  0  0  0
  2  7  1  0  0  0  0
  2  3  2  0  0  0  0
  3  4  1  0  0  0  0
  4  5  1  0  0  0  0
  5  6  1  0  0  0  0
  5  7  2  0  0  0  0
  7  8  1  0  0  0  0
  8  9  1  0  0  0  0
  8 23  1  0  0  0  0
  8 24  1  0  0  0  0
  9 10  2  0  0  0  0
  9 11  1  0  0  0  0
 11 12  1  0  0  0  0
 11 25  1  0  0  0  0
 12 19  1  0  0  0  0
 12 13  1  0  0  0  0
 12 26  1  0  0  0  0
 13 14  1  0  0  0  0
 13 27  1  0  0  0  0
 13 28  1  0  0  0  0
 14 15  1  0  0  0  0
 14 29  1  0  0  0  0
 14 30  1  0  0  0  0
 15 16  1  0  0  0  0
 15 19  1  0  0  0  0
 15 38  1  0  0  0  0
 16 18  1  0  0  0  0
 16 17  1  0  0  0  0
 16 31  1  0  0  0  0
 17 18  1  0  0  0  0
 17 32  1  0  0  0  0
 17 33  1  0  0  0  0
 18 34  1  0  0  0  0
 18 35  1  0  0  0  0
 19 36  1  0  0  0  0
 19 37  1  0  0  0  0
M  CHG  1  15   1
M  END
> <s_m_source_file>
AV-unprocessed.smi

> <i_m_source_file_index>
1066

> <i_lp_mmshare_version>
43012

> <i_f3d_flags>
0

> <s_epik_input>
W0NIM11jMW5vYyhDbCljMVtDSDJdQyg9TylbTkhdW0NAQEhdMltDSDJdW0NIMl1OKFtDSDJdMilbQ0hdM1tDSDJdW0NIMl0z

> <s_epik_cmdline>
J2VwaWtfcHl0aG9uJywgJy1waCcsICc3LjAnLCAnLXRuJywgJzgnLCAnLW1hJywgJzIwMCcsICctbWV0YWxfYmluZGluZycsICctaW1hZScsICc8aW5maWxlLm1hZT4nLCAnLW9tYWUnLCAnPG91dGZpbGUubWFlPic=

> <r_epik_Ionization_Penalty>
0.00108138

> <r_epik_Ionization_Penalty_Charging>
0.00108128

> <r_epik_Ionization_Penalty_Neutral>
9.66632e-08

> <r_epik_State_Penalty>
0.000708577

> <r_epik_Charging_Adjusted_Penalty>
0.00178986

> <i_epik_Tot_Q>
1

> <i_epik_Tot_abs_Q>
1

> <r_epik_Metal_State_Penalty>
-0

> <b_epik_Metal_Only>
0

> <s_lp_Force_Field>
OPLS_2005

> <r_lp_Energy>
31.8821

> <b_lp_Chiralities_Consistent>
1

> <s_lp_Variant>
AV-unprocessed.smi:1066-4

> <Gold.Version>
5.8.1

> <Gold.Id.Protein>
6NUR|6NUR_protein|mol2

> <Gold.PLP.Fitness>
43.2873

> <Gold.PLP.PLP>
-36.2185

> <Gold.PLP.part.hbond>
-3.0000

> <Gold.PLP.part.metal>
0.0000

> <Gold.PLP.part.buried>
-3.8783

> <Gold.PLP.part.nonpolar>
-29.2241

> <Gold.PLP.part.repulsive>
0.1958

> <Gold.PLP.ligand.clash>
0.0000

> <Gold.PLP.ligand.torsion>
1.6066

> <Gold.PLP.Chemscore.Hbond>
3.0000

> <Gold.PLP.Chemscore.CHOScore>
0.0000

> <Gold.PLP.Chemscore.Metal>
0.0000

> <Gold.Chemscore.Hbonds>
donor molecule, donor type, donor heavy atom, donor atom, acceptor molecule, acceptor atom, score
      L1  H    11    25       P1  7948  0.93
      L1  H    15    38       P1  7921  1.00
      P1  H  6896  6908       L1     3  1.00

> <Gold.PLP.Chemscore.Internal.Correction>
1.2820

> <Gold.Rescore>
     Score         DG    S(hbond)    S(metal)    S(lipo)     H(rot)  DE(clash)    DE(int)     intcor
     17.74     -20.20       2.83        0.00      79.46       1.57       0.01       2.44       ----

> <Gold.Chemscore.Fitness>
17.7441

> <Gold.Chemscore.DG>
-20.1956

> <Gold.Chemscore.ZeroCoef>
-5.4800

> <Gold.Chemscore.Hbond>
2.8265

> <Gold.Chemscore.Metal>
0.0000

> <Gold.Chemscore.Lipo>
79.4633

> <Gold.Chemscore.Internal_Hbond>
0.0000

> <Gold.Chemscore.DEClash>
0.0096

> <Gold.Chemscore.DEInternal>
2.4419

> <Gold.Chemscore.Rot>
1.5711

> <Gold.Chemscore.Internal.Correction>
   9.000000E+99

> <Gold.Chemscore.Hbonds>
donor molecule, donor type, donor heavy atom, donor atom, acceptor molecule, acceptor atom, score
      L1  H    11    25       P1  7948  0.66
      L1  H    15    38       P1  7921  0.82
      P1  H  6896  6908       L1     3  0.96

> <Gold.Chemscore.Hbond.Weighted>
-9.4404

> <Gold.Chemscore.Metal.Weighted>
-0.0000

> <Gold.Chemscore.Lipo.Weighted>
-9.2972

> <Gold.Chemscore.Internal_Hbond.Weighted>
0.0000

> <Gold.Chemscore.DEClash.Weighted>
0.0096

> <Gold.Chemscore.DEInternal.Weighted>
2.4419

> <Gold.Chemscore.Rot.Weighted>
4.0221

> <Gold.Chemscore.Internal.Correction.Weighted>
   9.000000E+99

> <Gold.Protein.RotatedTorsions>
[ 6907 6896 6895 6894 ] final   93.26 input  -60.11 | X-H torsion
[ 7974 7965 7964 7962 ] final -104.32 input  175.53 | X-H torsion
[ 8008 7997 7996 7995 ] final  146.68 input   59.86 | X-H torsion
[ 10167 10162 10161 10158 ] final  147.23 input  -65.29 | X-H torsion
[ 10718 10713 10712 10709 ] final  -70.50 input   66.30 | X-H torsion
[ 10763 10752 10751 10750 ] final   92.49 input  -60.55 | X-H torsion
[ 11005 11000 10999 10996 ] final   52.10 input  -57.11 | X-H torsion

> <Gold.Protein.ActiveResidues>
 VAL166  LYS551  ARG553  GLY616  TRP617  ASP618  TYR619  PRO620  LYS621  CYS622 
 ASP623  PHE694  ASN695  SER759  ASP760  ASP761  ALA762  ILE779  LEU786  VAL792 
 PHE793  MET794  SER795  GLU796  ALA797  LYS798  CYS799  TRP800  GLU811  SER814 

> <Gold.Protein.RotatedAtoms>
  152.5452  134.1376  159.8464 H   0  0  0  0  0  0  0  0  0  0  0  0  # atno 6907 bound_to 6896
  151.1415  133.4961  159.2604 H   0  0  0  0  0  0  0  0  0  0  0  0  # atno 6908 bound_to 6896
  151.1568  135.0264  159.8747 H   0  0  0  0  0  0  0  0  0  0  0  0  # atno 6909 bound_to 6896
  145.2447  140.9217  143.3130 H   0  0  0  0  0  0  0  0  0  0  0  0  # atno 7974 bound_to 7965
  156.2848  140.2176  156.5416 H   0  0  0  0  0  0  0  0  0  0  0  0  # atno 8008 bound_to 7997
  154.7365  140.0491  157.0795 H   0  0  0  0  0  0  0  0  0  0  0  0  # atno 8009 bound_to 7997
  155.0286  140.3132  155.4770 H   0  0  0  0  0  0  0  0  0  0  0  0  # atno 8010 bound_to 7997
  139.4893  144.5771  151.6944 H   0  0  0  0  0  0  0  0  0  0  0  0  # atno 10167 bound_to 10162
  156.0405  130.4333  150.2304 H   0  0  0  0  0  0  0  0  0  0  0  0  # atno 10718 bound_to 10713
  153.2198  135.4359  155.0476 H   0  0  0  0  0  0  0  0  0  0  0  0  # atno 10763 bound_to 10752
  154.8244  135.3353  154.6944 H   0  0  0  0  0  0  0  0  0  0  0  0  # atno 10764 bound_to 10752
  153.7377  135.7007  153.5030 H   0  0  0  0  0  0  0  0  0  0  0  0  # atno 10765 bound_to 10752
  140.0877  134.5251  155.8882 H   0  0  0  0  0  0  0  0  0  0  0  0  # atno 11005 bound_to 11000
  144.9557  139.4034  143.6380 LP  0  0  0  0  0  0  0  0  0  0  0  0  # atno 17320 bound_to 7965
  146.3319  139.8586  142.8860 LP  0  0  0  0  0  0  0  0  0  0  0  0  # atno 17321 bound_to 7965
  140.5369  144.0641  150.6074 LP  0  0  0  0  0  0  0  0  0  0  0  0  # atno 17342 bound_to 10162
  140.3650  143.2886  152.0341 LP  0  0  0  0  0  0  0  0  0  0  0  0  # atno 17343 bound_to 10162
  157.0400  131.0032  151.3286 LP  0  0  0  0  0  0  0  0  0  0  0  0  # atno 17370 bound_to 10713
  157.5216  130.8002  149.7816 LP  0  0  0  0  0  0  0  0  0  0  0  0  # atno 17371 bound_to 10713
  141.2068  133.6658  156.6265 LP  0  0  0  0  0  0  0  0  0  0  0  0  # atno 17394 bound_to 11000
  140.3396  134.7860  157.4388 LP  0  0  0  0  0  0  0  0  0  0  0  0  # atno 17395 bound_to 11000

$$$$
