AV-unprocessed.smi:951|AV-procd|sdf|4253|dock9
  -GOLD-   22720 2163D 1   1.00000     0.00000
 Structure written by MMmdl.
 52 54  0  0  0  0  0  0  0  0  2 V2000
  147.7985  139.2457  158.4834 O   0  0  0  0  0  0  0  0  0  0  0  0
  148.7009  138.7676  157.7940 C   0  0  0  0  0  0  0  0  0  0  0  0
  149.6323  139.5147  157.1827 N   0  0  0  0  0  0  0  0  0  0  0  0
  149.7243  140.9668  157.2674 C   0  0  0  0  0  0  0  0  0  0  0  0
  151.1786  141.4508  157.1434 C   0  0  0  0  0  0  0  0  0  0  0  0
  151.4627  142.6429  158.0356 C   0  0  0  0  0  0  0  0  0  0  0  0
  152.3663  142.5740  159.1183 C   0  0  0  0  0  0  0  0  0  0  0  0
  152.5782  143.7205  159.9124 C   0  0  0  0  0  0  0  0  0  0  0  0
  151.8828  144.9092  159.6082 C   0  0  0  0  0  0  0  0  0  0  0  0
  150.9903  144.9211  158.5167 C   0  0  0  0  0  0  0  0  0  0  0  0
  150.8145  143.8024  157.7796 N   0  3  0  0  0  0  0  0  0  0  0  0
  148.7947  137.2452  157.5720 C   0  0  2  0  0  0  0  0  0  0  0  0
  148.5561  136.9237  156.0882 C   0  0  0  0  0  0  0  0  0  0  0  0
  147.9461  135.5367  156.0894 C   0  0  0  0  0  0  0  0  0  0  0  0
  147.1910  135.4479  157.4141 C   0  0  0  0  0  0  0  0  0  0  0  0
  147.7974  136.4398  158.3081 N   0  0  0  0  0  0  0  0  0  0  0  0
  147.5398  136.5318  159.6392 C   0  0  0  0  0  0  0  0  0  0  0  0
  148.1759  137.2930  160.3689 O   0  0  0  0  0  0  0  0  0  0  0  0
  146.4295  135.6513  160.2658 C   0  0  0  0  0  0  0  0  0  0  0  0
  146.1373  135.9926  161.7500 C   0  0  0  0  0  0  0  0  0  0  0  0
  147.1697  135.4290  162.7478 C   0  0  0  0  0  0  0  0  0  0  0  0
  147.4008  133.9258  162.5349 C   0  0  0  0  0  0  0  0  0  0  0  0
  147.7965  133.6258  161.0822 C   0  0  0  0  0  0  0  0  0  0  0  0
  146.7282  134.1426  160.1022 C   0  0  0  0  0  0  0  0  0  0  0  0
  150.3341  139.0415  156.6317 H   0  0  0  0  0  0  0  0  0  0  0  0
  149.0989  141.4225  156.4977 H   0  0  0  0  0  0  0  0  0  0  0  0
  149.3101  141.2771  158.2272 H   0  0  0  0  0  0  0  0  0  0  0  0
  151.8642  140.6413  157.3982 H   0  0  0  0  0  0  0  0  0  0  0  0
  151.4006  141.7274  156.1117 H   0  0  0  0  0  0  0  0  0  0  0  0
  152.8898  141.6553  159.3403 H   0  0  0  0  0  0  0  0  0  0  0  0
  153.2653  143.6878  160.7453 H   0  0  0  0  0  0  0  0  0  0  0  0
  152.0313  145.7982  160.2035 H   0  0  0  0  0  0  0  0  0  0  0  0
  150.4162  145.7843  158.2133 H   0  0  0  0  0  0  0  0  0  0  0  0
  149.7824  136.8873  157.8690 H   0  0  0  0  0  0  0  0  0  0  0  0
  147.8415  137.6180  155.6420 H   0  0  0  0  0  0  0  0  0  0  0  0
  149.4720  136.9720  155.4984 H   0  0  0  0  0  0  0  0  0  0  0  0
  147.3093  135.3498  155.2244 H   0  0  0  0  0  0  0  0  0  0  0  0
  148.7455  134.7945  156.0790 H   0  0  0  0  0  0  0  0  0  0  0  0
  146.1432  135.7067  157.2551 H   0  0  0  0  0  0  0  0  0  0  0  0
  147.2372  134.4368  157.8208 H   0  0  0  0  0  0  0  0  0  0  0  0
  145.4964  135.8578  159.7447 H   0  0  0  0  0  0  0  0  0  0  0  0
  146.0556  137.0728  161.8787 H   0  0  0  0  0  0  0  0  0  0  0  0
  145.1561  135.5921  162.0085 H   0  0  0  0  0  0  0  0  0  0  0  0
  148.1170  135.9595  162.6602 H   0  0  0  0  0  0  0  0  0  0  0  0
  146.8254  135.6055  163.7673 H   0  0  0  0  0  0  0  0  0  0  0  0
  148.1760  133.5692  163.2137 H   0  0  0  0  0  0  0  0  0  0  0  0
  146.4925  133.3767  162.7867 H   0  0  0  0  0  0  0  0  0  0  0  0
  148.7629  134.0795  160.8604 H   0  0  0  0  0  0  0  0  0  0  0  0
  147.9271  132.5513  160.9506 H   0  0  0  0  0  0  0  0  0  0  0  0
  145.8059  133.5816  160.2572 H   0  0  0  0  0  0  0  0  0  0  0  0
  147.0378  133.9251  159.0793 H   0  0  0  0  0  0  0  0  0  0  0  0
  150.1635  143.8333  156.9943 H   0  0  0  0  0  0  0  0  0  0  0  0
  1  2  2  0  0  0  0
  2  3  1  0  0  0  0
  2 12  1  0  0  0  0
  3  4  1  0  0  0  0
  3 25  1  0  0  0  0
  4  5  1  0  0  0  0
  4 26  1  0  0  0  0
  4 27  1  0  0  0  0
  5  6  1  0  0  0  0
  5 28  1  0  0  0  0
  5 29  1  0  0  0  0
  6 11  1  0  0  0  0
  6  7  2  0  0  0  0
  7  8  1  0  0  0  0
  7 30  1  0  0  0  0
  8  9  2  0  0  0  0
  8 31  1  0  0  0  0
  9 10  1  0  0  0  0
  9 32  1  0  0  0  0
 10 11  2  0  0  0  0
 10 33  1  0  0  0  0
 11 52  1  0  0  0  0
 12 16  1  0  0  0  0
 12 13  1  0  0  0  0
 12 34  1  0  0  0  0
 13 14  1  0  0  0  0
 13 35  1  0  0  0  0
 13 36  1  0  0  0  0
 14 15  1  0  0  0  0
 14 37  1  0  0  0  0
 14 38  1  0  0  0  0
 15 16  1  0  0  0  0
 15 39  1  0  0  0  0
 15 40  1  0  0  0  0
 16 17  1  0  0  0  0
 17 18  2  0  0  0  0
 17 19  1  0  0  0  0
 19 24  1  0  0  0  0
 19 20  1  0  0  0  0
 19 41  1  0  0  0  0
 20 21  1  0  0  0  0
 20 42  1  0  0  0  0
 20 43  1  0  0  0  0
 21 22  1  0  0  0  0
 21 44  1  0  0  0  0
 21 45  1  0  0  0  0
 22 23  1  0  0  0  0
 22 46  1  0  0  0  0
 22 47  1  0  0  0  0
 23 24  1  0  0  0  0
 23 48  1  0  0  0  0
 23 49  1  0  0  0  0
 24 50  1  0  0  0  0
 24 51  1  0  0  0  0
M  CHG  1  11   1
M  END
> <s_m_source_file>
AV-unprocessed.smi

> <i_m_source_file_index>
951

> <i_lp_mmshare_version>
43012

> <i_f3d_flags>
0

> <s_epik_input>
bjFbY0hdW2NIXVtjSF1bY0hdYzFbQ0gyXVtDSDJdW05IXUMoPU8pW0NAQEhdMltDSDJdW0NIMl1bQ0gyXU4yQyg9TylbQ0hdM1tDSDJdW0NIMl1bQ0gyXVtDSDJdW0NIMl0z

> <s_epik_cmdline>
J2VwaWtfcHl0aG9uJywgJy1waCcsICc3LjAnLCAnLXRuJywgJzgnLCAnLW1hJywgJzIwMCcsICctbWV0YWxfYmluZGluZycsICctaW1hZScsICc8aW5maWxlLm1hZT4nLCAnLW9tYWUnLCAnPG91dGZpbGUubWFlPic=

> <r_epik_Ionization_Penalty>
1.85306

> <r_epik_Ionization_Penalty_Charging>
1.85306

> <r_epik_Ionization_Penalty_Neutral>
5.78903e-08

> <r_epik_State_Penalty>
1.97071

> <r_epik_Charging_Adjusted_Penalty>
3.82377

> <i_epik_Tot_Q>
1

> <i_epik_Tot_abs_Q>
1

> <r_epik_Metal_State_Penalty>
1.99634

> <b_epik_Metal_Only>
0

> <s_lp_Force_Field>
OPLS_2005

> <r_lp_Energy>
27.2114

> <b_lp_Chiralities_Consistent>
1

> <s_lp_Variant>
AV-unprocessed.smi:951-3

> <Gold.Version>
5.8.1

> <Gold.Id.Protein>
6NUR|6NUR_protein|mol2

> <Gold.PLP.Fitness>
49.4367

> <Gold.PLP.PLP>
-40.7514

> <Gold.PLP.part.hbond>
-4.0000

> <Gold.PLP.part.metal>
0.0000

> <Gold.PLP.part.buried>
-5.5638

> <Gold.PLP.part.nonpolar>
-31.9314

> <Gold.PLP.part.repulsive>
0.0347

> <Gold.PLP.ligand.clash>
0.0000

> <Gold.PLP.ligand.torsion>
0.5673

> <Gold.PLP.Chemscore.Hbond>
3.2432

> <Gold.PLP.Chemscore.CHOScore>
0.0000

> <Gold.PLP.Chemscore.Metal>
0.0000

> <Gold.Chemscore.Hbonds>
donor molecule, donor type, donor heavy atom, donor atom, acceptor molecule, acceptor atom, score
      L1  H    11    52       P1  8028  1.98
      P1  H  6931  6943       L1    18  0.67
      P1  H  6934  6947       L1    18  0.61

> <Gold.PLP.Chemscore.Internal.Correction>
0.0904

> <Gold.Rescore>
     Score         DG    S(hbond)    S(metal)    S(lipo)     H(rot)  DE(clash)    DE(int)     intcor
     17.50     -22.03       2.17        0.00     115.61       1.65       0.11       4.42       ----

> <Gold.Chemscore.Fitness>
17.4953

> <Gold.Chemscore.DG>
-22.0277

> <Gold.Chemscore.ZeroCoef>
-5.4800

> <Gold.Chemscore.Hbond>
2.1728

> <Gold.Chemscore.Metal>
0.0000

> <Gold.Chemscore.Lipo>
115.6138

> <Gold.Chemscore.Internal_Hbond>
0.0000

> <Gold.Chemscore.DEClash>
0.1110

> <Gold.Chemscore.DEInternal>
4.4214

> <Gold.Chemscore.Rot>
1.6548

> <Gold.Chemscore.Internal.Correction>
   9.000000E+99

> <Gold.Chemscore.Hbonds>
donor molecule, donor type, donor heavy atom, donor atom, acceptor molecule, acceptor atom, score
      L1  H    11    52       P1  8028  0.89
      P1  H  6931  6943       L1    18  0.64
      P1  H  6934  6947       L1    18  0.53

> <Gold.Chemscore.Hbond.Weighted>
-7.2571

> <Gold.Chemscore.Metal.Weighted>
-0.0000

> <Gold.Chemscore.Lipo.Weighted>
-13.5268

> <Gold.Chemscore.Internal_Hbond.Weighted>
0.0000

> <Gold.Chemscore.DEClash.Weighted>
0.1110

> <Gold.Chemscore.DEInternal.Weighted>
4.4214

> <Gold.Chemscore.Rot.Weighted>
4.2362

> <Gold.Chemscore.Internal.Correction.Weighted>
   9.000000E+99

> <Gold.Protein.RotatedTorsions>
[ 6907 6896 6895 6894 ] final  -28.89 input  -60.11 | X-H torsion
[ 7974 7965 7964 7962 ] final -162.18 input  175.53 | X-H torsion
[ 8008 7997 7996 7995 ] final  147.89 input   59.86 | X-H torsion
[ 10167 10162 10161 10158 ] final   51.50 input  -65.29 | X-H torsion
[ 10718 10713 10712 10709 ] final -152.79 input   66.30 | X-H torsion
[ 10763 10752 10751 10750 ] final  102.79 input  -60.55 | X-H torsion
[ 11005 11000 10999 10996 ] final  -48.13 input  -57.11 | X-H torsion

> <Gold.Protein.ActiveResidues>
 VAL166  LYS551  ARG553  GLY616  TRP617  ASP618  TYR619  PRO620  LYS621  CYS622 
 ASP623  PHE694  ASN695  SER759  ASP760  ASP761  ALA762  ILE779  LEU786  VAL792 
 PHE793  MET794  SER795  GLU796  ALA797  LYS798  CYS799  TRP800  GLU811  SER814 

> <Gold.Protein.RotatedAtoms>
  151.1268  135.0109  159.8563 H   0  0  0  0  0  0  0  0  0  0  0  0  # atno 6907 bound_to 6896
  152.5450  134.1658  159.8586 H   0  0  0  0  0  0  0  0  0  0  0  0  # atno 6908 bound_to 6896
  151.1721  133.4733  159.2627 H   0  0  0  0  0  0  0  0  0  0  0  0  # atno 6909 bound_to 6896
  144.7366  140.3289  143.6157 H   0  0  0  0  0  0  0  0  0  0  0  0  # atno 7974 bound_to 7965
  156.2810  140.2143  156.5610 H   0  0  0  0  0  0  0  0  0  0  0  0  # atno 8008 bound_to 7997
  154.7213  140.0503  157.0664 H   0  0  0  0  0  0  0  0  0  0  0  0  # atno 8009 bound_to 7997
  155.0475  140.3152  155.4706 H   0  0  0  0  0  0  0  0  0  0  0  0  # atno 8010 bound_to 7997
  140.2613  144.3370  150.6317 H   0  0  0  0  0  0  0  0  0  0  0  0  # atno 10167 bound_to 10162
  156.4772  130.8286  151.2514 H   0  0  0  0  0  0  0  0  0  0  0  0  # atno 10718 bound_to 10713
  153.3442  135.3998  155.1596 H   0  0  0  0  0  0  0  0  0  0  0  0  # atno 10763 bound_to 10752
  154.8650  135.3641  154.5306 H   0  0  0  0  0  0  0  0  0  0  0  0  # atno 10764 bound_to 10752
  153.5753  135.7078  153.5546 H   0  0  0  0  0  0  0  0  0  0  0  0  # atno 10765 bound_to 10752
  141.0682  133.6687  156.3397 H   0  0  0  0  0  0  0  0  0  0  0  0  # atno 11005 bound_to 11000
  145.7492  139.1788  143.2331 LP  0  0  0  0  0  0  0  0  0  0  0  0  # atno 17320 bound_to 7965
  146.1074  140.7470  142.9520 LP  0  0  0  0  0  0  0  0  0  0  0  0  # atno 17321 bound_to 7965
  140.5964  143.2167  151.7156 LP  0  0  0  0  0  0  0  0  0  0  0  0  # atno 17342 bound_to 10162
  139.5016  144.3861  152.0327 LP  0  0  0  0  0  0  0  0  0  0  0  0  # atno 17343 bound_to 10162
  157.7486  131.0057  150.3123 LP  0  0  0  0  0  0  0  0  0  0  0  0  # atno 17370 bound_to 10713
  156.3558  130.3838  149.7291 LP  0  0  0  0  0  0  0  0  0  0  0  0  # atno 17371 bound_to 10713
  140.5729  134.5823  157.5462 LP  0  0  0  0  0  0  0  0  0  0  0  0  # atno 17394 bound_to 11000
  139.9497  134.7638  156.0477 LP  0  0  0  0  0  0  0  0  0  0  0  0  # atno 17395 bound_to 11000

$$$$
