AV-unprocessed.smi:811|AV-procd|sdf|3813|dock6
  -GOLD-   22720 1253D 1   1.00000     0.00000
 Structure written by MMmdl.
 46 48  0  0  0  0  0  0  0  0  2 V2000
  143.3378  132.4643  148.7738 C   0  0  0  0  0  0  0  0  0  0  0  0
  144.4889  133.1151  149.4366 N   0  3  1  0  0  0  0  0  0  0  0  0
  144.1453  133.7810  150.7189 C   0  0  0  0  0  0  0  0  0  0  0  0
  145.2045  133.3451  151.7387 C   0  0  0  0  0  0  0  0  0  0  0  0
  145.6279  131.9806  151.2105 C   0  0  2  0  0  0  0  0  0  0  0  0
  146.9313  131.5389  151.6988 N   0  0  0  0  0  0  0  0  0  0  0  0
  147.4297  131.7822  152.9197 C   0  0  0  0  0  0  0  0  0  0  0  0
  146.8228  132.4049  153.7903 O   0  0  0  0  0  0  0  0  0  0  0  0
  148.6686  131.2763  153.0457 N   0  0  0  0  0  0  0  0  0  0  0  0
  149.5407  131.3347  154.1666 C   0  0  0  0  0  0  0  0  0  0  0  0
  149.5033  132.3447  155.1575 C   0  0  0  0  0  0  0  0  0  0  0  0
  150.4141  132.2808  156.2293 C   0  0  0  0  0  0  0  0  0  0  0  0
  151.3280  131.2089  156.2836 C   0  0  0  0  0  0  0  0  0  0  0  0
  152.2376  131.1436  157.3483 N   0  0  0  0  0  0  0  0  0  0  0  0
  151.6014  130.9287  158.6421 C   0  0  0  0  0  0  0  0  0  0  0  0
  152.6732  130.7436  159.7301 C   0  0  0  0  0  0  0  0  0  0  0  0
  153.5484  131.8683  159.7359 O   0  0  0  0  0  0  0  0  0  0  0  0
  154.2208  132.0299  158.4901 C   0  0  0  0  0  0  0  0  0  0  0  0
  153.1884  132.2482  157.3707 C   0  0  0  0  0  0  0  0  0  0  0  0
  151.3614  130.2321  155.3465 N   0  0  0  0  0  0  0  0  0  0  0  0
  150.4851  130.2988  154.3225 C   0  0  0  0  0  0  0  0  0  0  0  0
  145.6249  132.2030  149.6985 C   0  0  0  0  0  0  0  0  0  0  0  0
  142.9337  131.6596  149.3897 H   0  0  0  0  0  0  0  0  0  0  0  0
  143.6370  132.0436  147.8134 H   0  0  0  0  0  0  0  0  0  0  0  0
  142.5433  133.1881  148.5898 H   0  0  0  0  0  0  0  0  0  0  0  0
  144.1116  134.8644  150.6026 H   0  0  0  0  0  0  0  0  0  0  0  0
  143.1609  133.4572  151.0613 H   0  0  0  0  0  0  0  0  0  0  0  0
  146.0471  134.0384  151.7203 H   0  0  0  0  0  0  0  0  0  0  0  0
  144.8201  133.3058  152.7584 H   0  0  0  0  0  0  0  0  0  0  0  0
  144.8464  131.2585  151.4561 H   0  0  0  0  0  0  0  0  0  0  0  0
  147.5069  131.0209  151.0510 H   0  0  0  0  0  0  0  0  0  0  0  0
  149.0619  130.8547  152.2171 H   0  0  0  0  0  0  0  0  0  0  0  0
  148.7919  133.1548  155.1279 H   0  0  0  0  0  0  0  0  0  0  0  0
  150.4060  133.0403  156.9974 H   0  0  0  0  0  0  0  0  0  0  0  0
  150.9679  131.7817  158.8892 H   0  0  0  0  0  0  0  0  0  0  0  0
  150.9574  130.0495  158.5963 H   0  0  0  0  0  0  0  0  0  0  0  0
  152.2028  130.6531  160.7091 H   0  0  0  0  0  0  0  0  0  0  0  0
  153.2425  129.8276  159.5634 H   0  0  0  0  0  0  0  0  0  0  0  0
  154.8907  132.8872  158.5556 H   0  0  0  0  0  0  0  0  0  0  0  0
  154.8400  131.1558  158.2831 H   0  0  0  0  0  0  0  0  0  0  0  0
  153.6914  132.3229  156.4056 H   0  0  0  0  0  0  0  0  0  0  0  0
  152.6603  133.1888  157.5343 H   0  0  0  0  0  0  0  0  0  0  0  0
  150.5454  129.4979  153.5998 H   0  0  0  0  0  0  0  0  0  0  0  0
  145.5609  131.2679  149.1400 H   0  0  0  0  0  0  0  0  0  0  0  0
  146.5400  132.7090  149.3864 H   0  0  0  0  0  0  0  0  0  0  0  0
  144.8263  133.8265  148.8038 H   0  0  0  0  0  0  0  0  0  0  0  0
  1  2  1  0  0  0  0
  1 23  1  0  0  0  0
  1 24  1  0  0  0  0
  1 25  1  0  0  0  0
  2 22  1  0  0  0  0
  2  3  1  0  0  0  0
  2 46  1  0  0  0  0
  3  4  1  0  0  0  0
  3 26  1  0  0  0  0
  3 27  1  0  0  0  0
  4  5  1  0  0  0  0
  4 28  1  0  0  0  0
  4 29  1  0  0  0  0
  5  6  1  0  0  0  0
  5 22  1  0  0  0  0
  5 30  1  0  0  0  0
  6  7  1  0  0  0  0
  6 31  1  0  0  0  0
  7  8  2  0  0  0  0
  7  9  1  0  0  0  0
  9 10  1  0  0  0  0
  9 32  1  0  0  0  0
 10 21  1  0  0  0  0
 10 11  2  0  0  0  0
 11 12  1  0  0  0  0
 11 33  1  0  0  0  0
 12 13  2  0  0  0  0
 12 34  1  0  0  0  0
 13 14  1  0  0  0  0
 13 20  1  0  0  0  0
 14 19  1  0  0  0  0
 14 15  1  0  0  0  0
 15 16  1  0  0  0  0
 15 35  1  0  0  0  0
 15 36  1  0  0  0  0
 16 17  1  0  0  0  0
 16 37  1  0  0  0  0
 16 38  1  0  0  0  0
 17 18  1  0  0  0  0
 18 19  1  0  0  0  0
 18 39  1  0  0  0  0
 18 40  1  0  0  0  0
 19 41  1  0  0  0  0
 19 42  1  0  0  0  0
 20 21  2  0  0  0  0
 21 43  1  0  0  0  0
 22 44  1  0  0  0  0
 22 45  1  0  0  0  0
M  CHG  1   2   1
M  END
> <s_m_source_file>
AV-unprocessed.smi

> <i_m_source_file_index>
811

> <i_lp_mmshare_version>
43012

> <i_f3d_flags>
0

> <s_epik_input>
W0NIM11OMVtDSDJdW0NIMl1bQ0BIXShbQ0gyXTEpW05IXUMoPU8pW05IXWMyW2NIXVtjSF1jKG5bY0hdMilOM1tDSDJdW0NIMl1PW0NIMl1bQ0gyXTM=

> <s_epik_cmdline>
J2VwaWtfcHl0aG9uJywgJy1waCcsICc3LjAnLCAnLXRuJywgJzgnLCAnLW1hJywgJzIwMCcsICctbWV0YWxfYmluZGluZycsICctaW1hZScsICc8aW5maWxlLm1hZT4nLCAnLW9tYWUnLCAnPG91dGZpbGUubWFlPic=

> <r_lp_tautomer_probability>
1

> <r_epik_Ionization_Penalty>
0.00503422

> <r_epik_Ionization_Penalty_Charging>
0.00366104

> <r_epik_Ionization_Penalty_Neutral>
0.00137318

> <r_epik_State_Penalty>
-0

> <r_epik_Charging_Adjusted_Penalty>
0.00366104

> <i_epik_Tot_Q>
1

> <i_epik_Tot_abs_Q>
1

> <r_epik_Metal_State_Penalty>
-0

> <b_epik_Metal_Only>
0

> <s_lp_Force_Field>
OPLS_2005

> <r_lp_Energy>
46.7377

> <b_lp_Chiralities_Consistent>
1

> <s_lp_Variant>
AV-unprocessed.smi:811-3

> <Gold.Version>
5.8.1

> <Gold.Id.Protein>
6NUR|6NUR_protein|mol2

> <Gold.PLP.Fitness>
42.3456

> <Gold.PLP.PLP>
-33.3661

> <Gold.PLP.part.hbond>
-3.9899

> <Gold.PLP.part.metal>
0.0000

> <Gold.PLP.part.buried>
-3.3794

> <Gold.PLP.part.nonpolar>
-26.7903

> <Gold.PLP.part.repulsive>
0.2952

> <Gold.PLP.ligand.clash>
0.0000

> <Gold.PLP.ligand.torsion>
0.5654

> <Gold.PLP.Chemscore.Hbond>
3.3321

> <Gold.PLP.Chemscore.CHOScore>
0.0000

> <Gold.PLP.Chemscore.Metal>
0.0000

> <Gold.Chemscore.Hbonds>
donor molecule, donor type, donor heavy atom, donor atom, acceptor molecule, acceptor atom, score
      L1  H     2    46       P1  7921  1.00
      L1  H     6    31       P1 10747  0.98
      L1  H     9    32       P1 10747  0.90
      P1  H  6896  6909       L1    17  0.78

> <Gold.PLP.Chemscore.Internal.Correction>
0.1141

> <Gold.Rescore>
     Score         DG    S(hbond)    S(metal)    S(lipo)     H(rot)  DE(clash)    DE(int)     intcor
     17.58     -20.65       2.60        0.00      82.47       1.23       0.39       2.69       ----

> <Gold.Chemscore.Fitness>
17.5750

> <Gold.Chemscore.DG>
-20.6507

> <Gold.Chemscore.ZeroCoef>
-5.4800

> <Gold.Chemscore.Hbond>
2.5954

> <Gold.Chemscore.Metal>
0.0000

> <Gold.Chemscore.Lipo>
82.4750

> <Gold.Chemscore.Internal_Hbond>
0.0000

> <Gold.Chemscore.DEClash>
0.3897

> <Gold.Chemscore.DEInternal>
2.6860

> <Gold.Chemscore.Rot>
1.2295

> <Gold.Chemscore.Internal.Correction>
   9.000000E+99

> <Gold.Chemscore.Hbonds>
donor molecule, donor type, donor heavy atom, donor atom, acceptor molecule, acceptor atom, score
      L1  H     2    46       P1  7921  0.93
      L1  H     6    31       P1 10747  0.93
      L1  H     9    32       P1 10747  0.26
      P1  H  6896  6909       L1    17  0.05

> <Gold.Chemscore.Hbond.Weighted>
-8.6685

> <Gold.Chemscore.Metal.Weighted>
-0.0000

> <Gold.Chemscore.Lipo.Weighted>
-9.6496

> <Gold.Chemscore.Internal_Hbond.Weighted>
0.0000

> <Gold.Chemscore.DEClash.Weighted>
0.3897

> <Gold.Chemscore.DEInternal.Weighted>
2.6860

> <Gold.Chemscore.Rot.Weighted>
3.1474

> <Gold.Chemscore.Internal.Correction.Weighted>
   9.000000E+99

> <Gold.Protein.RotatedTorsions>
[ 6907 6896 6895 6894 ] final  -98.71 input  -60.11 | X-H torsion
[ 7974 7965 7964 7962 ] final -123.31 input  175.53 | X-H torsion
[ 8008 7997 7996 7995 ] final  -49.72 input   59.86 | X-H torsion
[ 10167 10162 10161 10158 ] final   85.29 input  -65.29 | X-H torsion
[ 10718 10713 10712 10709 ] final -112.77 input   66.30 | X-H torsion
[ 10763 10752 10751 10750 ] final  143.26 input  -60.55 | X-H torsion
[ 11005 11000 10999 10996 ] final  171.80 input  -57.11 | X-H torsion

> <Gold.Protein.ActiveResidues>
 VAL166  LYS551  ARG553  GLY616  TRP617  ASP618  TYR619  PRO620  LYS621  CYS622 
 ASP623  PHE694  ASN695  SER759  ASP760  ASP761  ALA762  ILE779  LEU786  VAL792 
 PHE793  MET794  SER795  GLU796  ALA797  LYS798  CYS799  TRP800  GLU811  SER814 

> <Gold.Protein.RotatedAtoms>
  150.7055  134.1153  159.4014 H   0  0  0  0  0  0  0  0  0  0  0  0  # atno 6907 bound_to 6896
  151.9139  135.0325  160.0526 H   0  0  0  0  0  0  0  0  0  0  0  0  # atno 6908 bound_to 6896
  152.2313  133.5025  159.5254 H   0  0  0  0  0  0  0  0  0  0  0  0  # atno 6909 bound_to 6896
  145.0200  140.7980  143.4386 H   0  0  0  0  0  0  0  0  0  0  0  0  # atno 7974 bound_to 7965
  154.4049  140.1290  156.4548 H   0  0  0  0  0  0  0  0  0  0  0  0  # atno 8008 bound_to 7997
  155.7331  140.3491  155.5049 H   0  0  0  0  0  0  0  0  0  0  0  0  # atno 8009 bound_to 7997
  155.9109  140.1035  157.1270 H   0  0  0  0  0  0  0  0  0  0  0  0  # atno 8010 bound_to 7997
  139.8992  144.6339  150.8655 H   0  0  0  0  0  0  0  0  0  0  0  0  # atno 10167 bound_to 10162
  156.0726  130.5938  150.8554 H   0  0  0  0  0  0  0  0  0  0  0  0  # atno 10718 bound_to 10713
  153.9694  135.2952  155.3428 H   0  0  0  0  0  0  0  0  0  0  0  0  # atno 10763 bound_to 10752
  154.7330  135.5059  153.8999 H   0  0  0  0  0  0  0  0  0  0  0  0  # atno 10764 bound_to 10752
  153.0907  135.6707  153.9971 H   0  0  0  0  0  0  0  0  0  0  0  0  # atno 10765 bound_to 10752
  140.3229  134.7422  157.4077 H   0  0  0  0  0  0  0  0  0  0  0  0  # atno 11005 bound_to 11000
  145.1908  139.2302  143.5244 LP  0  0  0  0  0  0  0  0  0  0  0  0  # atno 17320 bound_to 7965
  146.3484  140.1703  142.8589 LP  0  0  0  0  0  0  0  0  0  0  0  0  # atno 17321 bound_to 7965
  140.7710  143.3450  151.2130 LP  0  0  0  0  0  0  0  0  0  0  0  0  # atno 17342 bound_to 10162
  139.7040  143.9485  152.2918 LP  0  0  0  0  0  0  0  0  0  0  0  0  # atno 17343 bound_to 10162
  157.5805  131.0946  150.9279 LP  0  0  0  0  0  0  0  0  0  0  0  0  # atno 17370 bound_to 10713
  156.9475  130.5407  149.5281 LP  0  0  0  0  0  0  0  0  0  0  0  0  # atno 17371 bound_to 10713
  140.0926  134.5580  155.8429 LP  0  0  0  0  0  0  0  0  0  0  0  0  # atno 17394 bound_to 11000
  141.2082  133.6671  156.6356 LP  0  0  0  0  0  0  0  0  0  0  0  0  # atno 17395 bound_to 11000

$$$$
