AV-unprocessed.smi:2737|AV-procd|sdf|10547|dock6
  -GOLD-   2272014593D 1   1.00000     0.00000
 Structure written by MMmdl.
 43 44  0  0  0  0  0  0  0  0  1 V2000
  143.5837  144.5341  157.8925 C   0  0  0  0  0  0  0  0  0  0  0  0
  144.6504  143.6525  157.5537 O   0  0  0  0  0  0  0  0  0  0  0  0
  144.4662  142.7784  156.4332 C   0  0  0  0  0  0  0  0  0  0  0  0
  143.3065  141.7884  156.6791 C   0  0  0  0  0  0  0  0  0  0  0  0
  144.1253  143.7062  155.2565 C   0  0  0  0  0  0  0  0  0  0  0  0
  145.7713  142.0747  156.1692 C   0  0  0  0  0  0  0  0  0  0  0  0
  146.5477  142.2102  155.0945 N   0  0  0  0  0  0  0  0  0  0  0  0
  147.6407  141.4845  155.4593 C   0  0  0  0  0  0  0  0  0  0  0  0
  148.8220  141.2916  154.5635 C   0  0  0  0  0  0  0  0  0  0  0  0
  150.1232  141.4818  155.3442 C   0  0  0  0  0  0  0  0  0  0  0  0
  151.0999  140.7754  155.0945 O   0  0  0  0  0  0  0  0  0  0  0  0
  150.1231  142.4386  156.2861 N   0  0  0  0  0  0  0  0  0  0  0  0
  151.2479  142.7668  157.1568 C   0  0  0  0  0  0  0  0  0  0  0  0
  151.4960  141.6054  158.1381 C   0  0  0  0  0  0  0  0  0  0  0  0
  152.6427  141.9266  159.1107 C   0  0  0  0  0  0  0  0  0  0  0  0
  152.3797  143.2374  159.8688 C   0  0  0  0  0  0  0  0  0  0  0  0
  152.1330  144.4009  158.8957 C   0  0  0  0  0  0  0  0  0  0  0  0
  150.9868  144.0815  157.9223 C   0  0  0  0  0  0  0  0  0  0  0  0
  147.6015  140.9523  156.6744 N   0  0  0  0  0  0  0  0  0  0  0  0
  146.3645  141.3817  157.1742 O   0  0  0  0  0  0  0  0  0  0  0  0
  143.8152  145.0247  158.8378 H   0  0  0  0  0  0  0  0  0  0  0  0
  142.6343  144.0130  158.0169 H   0  0  0  0  0  0  0  0  0  0  0  0
  143.4583  145.3182  157.1458 H   0  0  0  0  0  0  0  0  0  0  0  0
  143.0995  141.1982  155.7858 H   0  0  0  0  0  0  0  0  0  0  0  0
  142.3888  142.3149  156.9422 H   0  0  0  0  0  0  0  0  0  0  0  0
  143.5303  141.0829  157.4794 H   0  0  0  0  0  0  0  0  0  0  0  0
  143.9957  143.1430  154.3317 H   0  0  0  0  0  0  0  0  0  0  0  0
  144.9165  144.4383  155.0891 H   0  0  0  0  0  0  0  0  0  0  0  0
  143.2020  144.2558  155.4421 H   0  0  0  0  0  0  0  0  0  0  0  0
  148.7979  140.2912  154.1285 H   0  0  0  0  0  0  0  0  0  0  0  0
  148.7734  141.9981  153.7337 H   0  0  0  0  0  0  0  0  0  0  0  0
  149.2742  142.9684  156.4217 H   0  0  0  0  0  0  0  0  0  0  0  0
  152.1430  142.8876  156.5433 H   0  0  0  0  0  0  0  0  0  0  0  0
  150.5877  141.4008  158.7071 H   0  0  0  0  0  0  0  0  0  0  0  0
  151.7270  140.6926  157.5872 H   0  0  0  0  0  0  0  0  0  0  0  0
  152.7709  141.1067  159.8181 H   0  0  0  0  0  0  0  0  0  0  0  0
  153.5792  142.0061  158.5570 H   0  0  0  0  0  0  0  0  0  0  0  0
  151.5132  143.1158  160.5200 H   0  0  0  0  0  0  0  0  0  0  0  0
  153.2248  143.4681  160.5179 H   0  0  0  0  0  0  0  0  0  0  0  0
  151.9051  145.3099  159.4529 H   0  0  0  0  0  0  0  0  0  0  0  0
  153.0440  144.6048  158.3317 H   0  0  0  0  0  0  0  0  0  0  0  0
  150.8640  144.9094  157.2231 H   0  0  0  0  0  0  0  0  0  0  0  0
  150.0512  144.0062  158.4783 H   0  0  0  0  0  0  0  0  0  0  0  0
  1  2  1  0  0  0  0
  1 21  1  0  0  0  0
  1 22  1  0  0  0  0
  1 23  1  0  0  0  0
  2  3  1  0  0  0  0
  3  4  1  0  0  0  0
  3  5  1  0  0  0  0
  3  6  1  0  0  0  0
  4 24  1  0  0  0  0
  4 25  1  0  0  0  0
  4 26  1  0  0  0  0
  5 27  1  0  0  0  0
  5 28  1  0  0  0  0
  5 29  1  0  0  0  0
  6 20  1  0  0  0  0
  6  7  2  0  0  0  0
  7  8  1  0  0  0  0
  8  9  1  0  0  0  0
  8 19  2  0  0  0  0
  9 10  1  0  0  0  0
  9 30  1  0  0  0  0
  9 31  1  0  0  0  0
 10 11  2  0  0  0  0
 10 12  1  0  0  0  0
 12 13  1  0  0  0  0
 12 32  1  0  0  0  0
 13 18  1  0  0  0  0
 13 14  1  0  0  0  0
 13 33  1  0  0  0  0
 14 15  1  0  0  0  0
 14 34  1  0  0  0  0
 14 35  1  0  0  0  0
 15 16  1  0  0  0  0
 15 36  1  0  0  0  0
 15 37  1  0  0  0  0
 16 17  1  0  0  0  0
 16 38  1  0  0  0  0
 16 39  1  0  0  0  0
 17 18  1  0  0  0  0
 17 40  1  0  0  0  0
 17 41  1  0  0  0  0
 18 42  1  0  0  0  0
 18 43  1  0  0  0  0
 19 20  1  0  0  0  0
M  END
> <s_m_source_file>
AV-unprocessed.smi

> <i_m_source_file_index>
2737

> <i_lp_mmshare_version>
43012

> <i_f3d_flags>
0

> <s_epik_input>
W0NIM11PQyhbQ0gzXSkoW0NIM10pYzFuYyhubzEpW0NIMl1DKD1PKVtOSF1bQ0hdMltDSDJdW0NIMl1bQ0gyXVtDSDJdW0NIMl0y

> <s_epik_cmdline>
J2VwaWtfcHl0aG9uJywgJy1waCcsICc3LjAnLCAnLXRuJywgJzgnLCAnLW1hJywgJzIwMCcsICctbWV0YWxfYmluZGluZycsICctaW1hZScsICc8aW5maWxlLm1hZT4nLCAnLW9tYWUnLCAnPG91dGZpbGUubWFlPic=

> <r_lp_tautomer_probability>
1

> <r_epik_Ionization_Penalty>
6.23621e-08

> <r_epik_Ionization_Penalty_Charging>
0

> <r_epik_Ionization_Penalty_Neutral>
6.23621e-08

> <r_epik_State_Penalty>
-0

> <r_epik_Charging_Adjusted_Penalty>
0

> <i_epik_Tot_Q>
0

> <i_epik_Tot_abs_Q>
0

> <r_epik_Metal_State_Penalty>
-0

> <b_epik_Metal_Only>
0

> <s_lp_Force_Field>
OPLS_2005

> <r_lp_Energy>
12.1287

> <b_lp_Chiralities_Consistent>
1

> <s_lp_Variant>
AV-unprocessed.smi:2737-1

> <Gold.Version>
5.8.1

> <Gold.Id.Protein>
6NUR|6NUR_protein|mol2

> <Gold.PLP.Fitness>
40.7945

> <Gold.PLP.PLP>
-36.5590

> <Gold.PLP.part.hbond>
-2.0000

> <Gold.PLP.part.metal>
0.0000

> <Gold.PLP.part.buried>
-3.4676

> <Gold.PLP.part.nonpolar>
-31.4588

> <Gold.PLP.part.repulsive>
0.6887

> <Gold.PLP.ligand.clash>
0.0000

> <Gold.PLP.ligand.torsion>
0.7569

> <Gold.PLP.Chemscore.Hbond>
1.8416

> <Gold.PLP.Chemscore.CHOScore>
0.0000

> <Gold.PLP.Chemscore.Metal>
0.0000

> <Gold.Chemscore.Hbonds>
donor molecule, donor type, donor heavy atom, donor atom, acceptor molecule, acceptor atom, score
      L1  H    12    32       P1  8028  0.53
      P1  H  7989  7998       L1    11  0.82

> <Gold.PLP.Chemscore.Internal.Correction>
0.2246

> <Gold.Rescore>
     Score         DG    S(hbond)    S(metal)    S(lipo)     H(rot)  DE(clash)    DE(int)     intcor
     13.23     -15.81       1.51        0.00      85.78       1.86       0.47       2.11       ----

> <Gold.Chemscore.Fitness>
13.2278

> <Gold.Chemscore.DG>
-15.8125

> <Gold.Chemscore.ZeroCoef>
-5.4800

> <Gold.Chemscore.Hbond>
1.5140

> <Gold.Chemscore.Metal>
0.0000

> <Gold.Chemscore.Lipo>
85.7785

> <Gold.Chemscore.Internal_Hbond>
0.0000

> <Gold.Chemscore.DEClash>
0.4745

> <Gold.Chemscore.DEInternal>
2.1103

> <Gold.Chemscore.Rot>
1.8596

> <Gold.Chemscore.Internal.Correction>
   9.000000E+99

> <Gold.Chemscore.Hbonds>
donor molecule, donor type, donor heavy atom, donor atom, acceptor molecule, acceptor atom, score
      L1  H    12    32       P1  8028  0.51
      P1  H  7989  7998       L1    11  0.72

> <Gold.Chemscore.Hbond.Weighted>
-5.0569

> <Gold.Chemscore.Metal.Weighted>
-0.0000

> <Gold.Chemscore.Lipo.Weighted>
-10.0361

> <Gold.Chemscore.Internal_Hbond.Weighted>
0.0000

> <Gold.Chemscore.DEClash.Weighted>
0.4745

> <Gold.Chemscore.DEInternal.Weighted>
2.1103

> <Gold.Chemscore.Rot.Weighted>
4.7605

> <Gold.Chemscore.Internal.Correction.Weighted>
   9.000000E+99

> <Gold.Protein.RotatedTorsions>
[ 6907 6896 6895 6894 ] final -161.01 input  -60.11 | X-H torsion
[ 7974 7965 7964 7962 ] final  -23.98 input  175.53 | X-H torsion
[ 8008 7997 7996 7995 ] final  -70.89 input   59.86 | X-H torsion
[ 10167 10162 10161 10158 ] final    6.11 input  -65.29 | X-H torsion
[ 10718 10713 10712 10709 ] final  135.32 input   66.30 | X-H torsion
[ 10763 10752 10751 10750 ] final -137.68 input  -60.55 | X-H torsion
[ 11005 11000 10999 10996 ] final -135.37 input  -57.11 | X-H torsion

> <Gold.Protein.ActiveResidues>
 VAL166  LYS551  ARG553  GLY616  TRP617  ASP618  TYR619  PRO620  LYS621  CYS622 
 ASP623  PHE694  ASN695  SER759  ASP760  ASP761  ALA762  ILE779  LEU786  VAL792 
 PHE793  MET794  SER795  GLU796  ALA797  LYS798  CYS799  TRP800  GLU811  SER814 

> <Gold.Protein.RotatedAtoms>
  151.3580  133.3900  159.2686 H   0  0  0  0  0  0  0  0  0  0  0  0  # atno 6907 bound_to 6896
  150.9748  134.9115  159.7820 H   0  0  0  0  0  0  0  0  0  0  0  0  # atno 6908 bound_to 6896
  152.5197  134.3543  159.9314 H   0  0  0  0  0  0  0  0  0  0  0  0  # atno 6909 bound_to 6896
  146.1583  140.4689  142.8582 H   0  0  0  0  0  0  0  0  0  0  0  0  # atno 7974 bound_to 7965
  154.5046  140.0826  156.7868 H   0  0  0  0  0  0  0  0  0  0  0  0  # atno 8008 bound_to 7997
  155.3923  140.3433  155.4234 H   0  0  0  0  0  0  0  0  0  0  0  0  # atno 8009 bound_to 7997
  156.1499  140.1555  156.8773 H   0  0  0  0  0  0  0  0  0  0  0  0  # atno 8010 bound_to 7997
  140.6445  143.7694  150.7478 H   0  0  0  0  0  0  0  0  0  0  0  0  # atno 10167 bound_to 10162
  157.4582  131.1071  150.9952 H   0  0  0  0  0  0  0  0  0  0  0  0  # atno 10718 bound_to 10713
  154.8656  135.3635  154.5263 H   0  0  0  0  0  0  0  0  0  0  0  0  # atno 10763 bound_to 10752
  153.5890  135.7016  153.5436 H   0  0  0  0  0  0  0  0  0  0  0  0  # atno 10764 bound_to 10752
  153.3390  135.4103  155.1518 H   0  0  0  0  0  0  0  0  0  0  0  0  # atno 10765 bound_to 10752
  140.8904  134.1818  157.4531 H   0  0  0  0  0  0  0  0  0  0  0  0  # atno 11005 bound_to 11000
  144.7993  140.6182  143.6489 LP  0  0  0  0  0  0  0  0  0  0  0  0  # atno 17320 bound_to 7965
  145.4652  139.1509  143.3844 LP  0  0  0  0  0  0  0  0  0  0  0  0  # atno 17321 bound_to 7965
  140.1332  143.4507  152.2241 LP  0  0  0  0  0  0  0  0  0  0  0  0  # atno 17342 bound_to 10162
  139.5655  144.7432  151.4033 LP  0  0  0  0  0  0  0  0  0  0  0  0  # atno 17343 bound_to 10162
  157.0758  130.5883  149.5411 LP  0  0  0  0  0  0  0  0  0  0  0  0  # atno 17370 bound_to 10713
  156.0017  130.5097  150.7685 LP  0  0  0  0  0  0  0  0  0  0  0  0  # atno 17371 bound_to 10713
  139.8729  134.9856  156.5289 LP  0  0  0  0  0  0  0  0  0  0  0  0  # atno 17394 bound_to 11000
  140.8353  133.8247  155.9023 LP  0  0  0  0  0  0  0  0  0  0  0  0  # atno 17395 bound_to 11000

$$$$
