AV-unprocessed.smi:898|AV-procd|sdf|4086|dock10
  -GOLD-   22720 1573D 1   1.00000     0.00000
 Structure written by MMmdl.
 33 35  0  0  0  0  0  0  0  0  2 V2000
  151.5472  140.5472  156.3242 O   0  0  0  0  0  0  0  0  0  0  0  0
  150.7797  141.4287  155.9308 C   0  0  0  0  0  0  0  0  0  0  0  0
  149.8871  141.3217  154.9203 N   0  5  0  0  0  0  0  0  0  0  0  0
  148.6126  141.7024  155.1068 C   0  0  0  0  0  0  0  0  0  0  0  0
  148.0222  141.6732  156.3098 N   0  0  0  0  0  0  0  0  0  0  0  0
  146.7035  142.1032  156.2794 N   0  0  0  0  0  0  0  0  0  0  0  0
  146.3134  142.4457  155.0494 C   0  0  0  0  0  0  0  0  0  0  0  0
  144.9373  142.9433  154.7569 C   0  0  0  0  0  0  0  0  0  0  0  0
  144.7036  144.2595  154.0474 C   0  0  0  0  0  0  0  0  0  0  0  0
  144.3671  144.1229  155.5104 C   0  0  0  0  0  0  0  0  0  0  0  0
  147.5485  142.2570  153.8149 S   0  0  0  0  0  0  0  0  0  0  0  0
  150.7765  142.6299  156.5268 N   0  0  0  0  0  0  0  0  0  0  0  0
  151.6120  143.0369  157.6537 C   0  0  1  0  0  0  0  0  0  0  0  0
  151.2894  144.4991  158.0170 C   0  0  0  0  0  0  0  0  0  0  0  0
  152.1683  145.0362  159.1582 C   0  0  0  0  0  0  0  0  0  0  0  0
  151.9893  144.2389  160.4576 C   0  0  0  0  0  0  0  0  0  0  0  0
  152.4840  142.5087  160.2387 S   0  0  0  0  0  0  0  0  0  0  0  0
  151.3935  142.0900  158.8503 C   0  0  0  0  0  0  0  0  0  0  0  0
  144.2706  142.1153  154.5242 H   0  0  0  0  0  0  0  0  0  0  0  0
  145.5686  144.8684  153.7915 H   0  0  0  0  0  0  0  0  0  0  0  0
  143.8750  144.3097  153.3441 H   0  0  0  0  0  0  0  0  0  0  0  0
  143.3148  144.0820  155.7838 H   0  0  0  0  0  0  0  0  0  0  0  0
  145.0159  144.6276  156.2238 H   0  0  0  0  0  0  0  0  0  0  0  0
  150.1314  143.3185  156.1684 H   0  0  0  0  0  0  0  0  0  0  0  0
  152.6586  142.9857  157.3476 H   0  0  0  0  0  0  0  0  0  0  0  0
  151.4289  145.1300  157.1382 H   0  0  0  0  0  0  0  0  0  0  0  0
  150.2378  144.5903  158.2932 H   0  0  0  0  0  0  0  0  0  0  0  0
  153.2165  145.0209  158.8569 H   0  0  0  0  0  0  0  0  0  0  0  0
  151.9186  146.0816  159.3417 H   0  0  0  0  0  0  0  0  0  0  0  0
  152.5907  144.6757  161.2549 H   0  0  0  0  0  0  0  0  0  0  0  0
  150.9497  144.2731  160.7851 H   0  0  0  0  0  0  0  0  0  0  0  0
  150.3576  142.1340  159.1884 H   0  0  0  0  0  0  0  0  0  0  0  0
  151.5916  141.0563  158.5655 H   0  0  0  0  0  0  0  0  0  0  0  0
  1  2  2  0  0  0  0
  2  3  1  0  0  0  0
  2 12  1  0  0  0  0
  3  4  1  0  0  0  0
  4 11  1  0  0  0  0
  4  5  2  0  0  0  0
  5  6  1  0  0  0  0
  6  7  2  0  0  0  0
  7  8  1  0  0  0  0
  7 11  1  0  0  0  0
  8 10  1  0  0  0  0
  8  9  1  0  0  0  0
  8 19  1  0  0  0  0
  9 10  1  0  0  0  0
  9 20  1  0  0  0  0
  9 21  1  0  0  0  0
 10 22  1  0  0  0  0
 10 23  1  0  0  0  0
 12 13  1  0  0  0  0
 12 24  1  0  0  0  0
 13 18  1  0  0  0  0
 13 14  1  0  0  0  0
 13 25  1  0  0  0  0
 14 15  1  0  0  0  0
 14 26  1  0  0  0  0
 14 27  1  0  0  0  0
 15 16  1  0  0  0  0
 15 28  1  0  0  0  0
 15 29  1  0  0  0  0
 16 17  1  0  0  0  0
 16 30  1  0  0  0  0
 16 31  1  0  0  0  0
 17 18  1  0  0  0  0
 18 32  1  0  0  0  0
 18 33  1  0  0  0  0
M  CHG  1   3  -1
M  END
> <s_m_source_file>
AV-unprocessed.smi

> <i_m_source_file_index>
898

> <i_lp_mmshare_version>
43012

> <i_f3d_flags>
0

> <s_epik_input>
W0NIMl0xU1tDSDJdW0NIMl1bQ0gyXVtDQEhdMVtOSF1DKD1PKVtOSF1jMm5uYyhzMilbQ0hdM1tDSDJdW0NIMl0z

> <s_epik_cmdline>
J2VwaWtfcHl0aG9uJywgJy1waCcsICc3LjAnLCAnLXRuJywgJzgnLCAnLW1hJywgJzIwMCcsICctbWV0YWxfYmluZGluZycsICctaW1hZScsICc8aW5maWxlLm1hZT4nLCAnLW9tYWUnLCAnPG91dGZpbGUubWFlPic=

> <r_lp_tautomer_probability>
1

> <r_epik_Ionization_Penalty>
4.71411

> <r_epik_Ionization_Penalty_Charging>
4.5615

> <r_epik_Ionization_Penalty_Neutral>
0.152604

> <r_epik_State_Penalty>
4.56123

> <r_epik_Charging_Adjusted_Penalty>
9.12273

> <i_epik_Tot_Q>
-1

> <i_epik_Tot_abs_Q>
1

> <r_epik_Metal_State_Penalty>
0.850765

> <b_epik_Metal_Only>
1

> <s_lp_Force_Field>
OPLS_2005

> <r_lp_Energy>
0.516701

> <b_lp_Chiralities_Consistent>
1

> <s_lp_Variant>
AV-unprocessed.smi:898-4

> <Gold.Version>
5.8.1

> <Gold.Id.Protein>
6NUR|6NUR_protein|mol2

> <Gold.PLP.Fitness>
41.5014

> <Gold.PLP.PLP>
-39.5433

> <Gold.PLP.part.hbond>
-1.8971

> <Gold.PLP.part.metal>
0.0000

> <Gold.PLP.part.buried>
-5.4565

> <Gold.PLP.part.nonpolar>
-32.6387

> <Gold.PLP.part.repulsive>
0.4640

> <Gold.PLP.ligand.clash>
0.0231

> <Gold.PLP.ligand.torsion>
0.6578

> <Gold.PLP.Chemscore.Hbond>
1.0517

> <Gold.PLP.Chemscore.CHOScore>
0.0000

> <Gold.PLP.Chemscore.Metal>
0.0000

> <Gold.Chemscore.Hbonds>
donor molecule, donor type, donor heavy atom, donor atom, acceptor molecule, acceptor atom, score
      L1  H    12    24       P1  8028  1.00
      P1  H  7989  7998       L1     3  0.09

> <Gold.PLP.Chemscore.Internal.Correction>
0.1417

> <Gold.Rescore>
     Score         DG    S(hbond)    S(metal)    S(lipo)     H(rot)  DE(clash)    DE(int)     intcor
     15.40     -17.19       1.00        0.00      97.61       1.19       0.08       1.70       ----

> <Gold.Chemscore.Fitness>
15.4043

> <Gold.Chemscore.DG>
-17.1898

> <Gold.Chemscore.ZeroCoef>
-5.4800

> <Gold.Chemscore.Hbond>
0.9997

> <Gold.Chemscore.Metal>
0.0000

> <Gold.Chemscore.Lipo>
97.6070

> <Gold.Chemscore.Internal_Hbond>
0.0000

> <Gold.Chemscore.DEClash>
0.0845

> <Gold.Chemscore.DEInternal>
1.7010

> <Gold.Chemscore.Rot>
1.1911

> <Gold.Chemscore.Internal.Correction>
   9.000000E+99

> <Gold.Chemscore.Hbonds>
donor molecule, donor type, donor heavy atom, donor atom, acceptor molecule, acceptor atom, score
      L1  H    12    24       P1  8028  0.99

> <Gold.Chemscore.Hbond.Weighted>
-3.3391

> <Gold.Chemscore.Metal.Weighted>
-0.0000

> <Gold.Chemscore.Lipo.Weighted>
-11.4200

> <Gold.Chemscore.Internal_Hbond.Weighted>
0.0000

> <Gold.Chemscore.DEClash.Weighted>
0.0845

> <Gold.Chemscore.DEInternal.Weighted>
1.7010

> <Gold.Chemscore.Rot.Weighted>
3.0492

> <Gold.Chemscore.Internal.Correction.Weighted>
   9.000000E+99

> <Gold.Protein.RotatedTorsions>
[ 6907 6896 6895 6894 ] final   90.49 input  -60.11 | X-H torsion
[ 7974 7965 7964 7962 ] final  -33.94 input  175.53 | X-H torsion
[ 8008 7997 7996 7995 ] final  124.26 input   59.86 | X-H torsion
[ 10167 10162 10161 10158 ] final  159.82 input  -65.29 | X-H torsion
[ 10718 10713 10712 10709 ] final   18.33 input   66.30 | X-H torsion
[ 10763 10752 10751 10750 ] final   41.41 input  -60.55 | X-H torsion
[ 11005 11000 10999 10996 ] final  170.22 input  -57.11 | X-H torsion

> <Gold.Protein.ActiveResidues>
 VAL166  LYS551  ARG553  GLY616  TRP617  ASP618  TYR619  PRO620  LYS621  CYS622 
 ASP623  PHE694  ASN695  SER759  ASP760  ASP761  ALA762  ILE779  LEU786  VAL792 
 PHE793  MET794  SER795  GLU796  ALA797  LYS798  CYS799  TRP800  GLU811  SER814 

> <Gold.Protein.RotatedAtoms>
  152.5445  134.1803  159.8632 H   0  0  0  0  0  0  0  0  0  0  0  0  # atno 6907 bound_to 6896
  151.1806  133.4720  159.2601 H   0  0  0  0  0  0  0  0  0  0  0  0  # atno 6908 bound_to 6896
  151.1182  135.0076  159.8581 H   0  0  0  0  0  0  0  0  0  0  0  0  # atno 6909 bound_to 6896
  146.0870  140.5978  142.8882 H   0  0  0  0  0  0  0  0  0  0  0  0  # atno 7974 bound_to 7965
  156.2795  140.2744  156.1759 H   0  0  0  0  0  0  0  0  0  0  0  0  # atno 8008 bound_to 7997
  155.0606  140.0386  157.2593 H   0  0  0  0  0  0  0  0  0  0  0  0  # atno 8009 bound_to 7997
  154.7120  140.2670  155.6626 H   0  0  0  0  0  0  0  0  0  0  0  0  # atno 8010 bound_to 7997
  139.4835  144.4694  151.8597 H   0  0  0  0  0  0  0  0  0  0  0  0  # atno 10167 bound_to 10162
  157.0948  130.6443  149.5858 H   0  0  0  0  0  0  0  0  0  0  0  0  # atno 10718 bound_to 10713
  152.9909  135.6163  154.2782 H   0  0  0  0  0  0  0  0  0  0  0  0  # atno 10763 bound_to 10752
  154.2513  135.2785  155.2817 H   0  0  0  0  0  0  0  0  0  0  0  0  # atno 10764 bound_to 10752
  154.5286  135.5794  153.6797 H   0  0  0  0  0  0  0  0  0  0  0  0  # atno 10765 bound_to 10752
  140.3060  134.7556  157.3954 H   0  0  0  0  0  0  0  0  0  0  0  0  # atno 11005 bound_to 11000
  144.7333  140.4735  143.6922 LP  0  0  0  0  0  0  0  0  0  0  0  0  # atno 17320 bound_to 7965
  145.6111  139.1513  143.3075 LP  0  0  0  0  0  0  0  0  0  0  0  0  # atno 17321 bound_to 7965
  140.4161  144.2305  150.5887 LP  0  0  0  0  0  0  0  0  0  0  0  0  # atno 17342 bound_to 10162
  140.4919  143.2345  151.8806 LP  0  0  0  0  0  0  0  0  0  0  0  0  # atno 17343 bound_to 10162
  155.9888  130.4933  150.7188 LP  0  0  0  0  0  0  0  0  0  0  0  0  # atno 17370 bound_to 10713
  157.4690  131.0891  151.0663 LP  0  0  0  0  0  0  0  0  0  0  0  0  # atno 17371 bound_to 10713
  140.1066  134.5401  155.8303 LP  0  0  0  0  0  0  0  0  0  0  0  0  # atno 17394 bound_to 11000
  141.2118  133.6711  156.6611 LP  0  0  0  0  0  0  0  0  0  0  0  0  # atno 17395 bound_to 11000

$$$$
