AV-unprocessed.smi:837|AV-procd|sdf|3897|dock10
  -GOLD-   22720 1353D 1   1.00000     0.00000
 Structure written by MMmdl.
 50 52  0  0  0  0  0  0  0  0  2 V2000
  149.6503  139.4676  154.3546 C   0  0  0  0  0  0  0  0  0  0  0  0
  150.6560  140.1469  155.3078 C   0  0  1  0  0  0  0  0  0  0  0  0
  150.1361  141.5304  155.7550 C   0  0  0  0  0  0  0  0  0  0  0  0
  151.1634  142.2681  156.6274 C   0  0  0  0  0  0  0  0  0  0  0  0
  151.5684  141.4310  157.8487 C   0  0  0  0  0  0  0  0  0  0  0  0
  152.0909  140.0464  157.4258 C   0  0  0  0  0  0  0  0  0  0  0  0
  151.0977  139.2711  156.5231 C   0  0  2  0  0  0  0  0  0  0  0  0
  151.7100  138.0300  156.0812 N   0  0  0  0  0  0  0  0  0  0  0  0
  151.0774  136.9394  156.5300 C   0  0  0  0  0  0  0  0  0  0  0  0
  151.4180  135.7787  156.3049 O   0  0  0  0  0  0  0  0  0  0  0  0
  150.0209  137.3349  157.2614 N   0  0  0  0  0  0  0  0  0  0  0  0
  149.1002  136.4144  157.9405 C   0  0  0  0  0  0  0  0  0  0  0  0
  149.1228  136.5701  159.4669 C   0  0  0  0  0  0  0  0  0  0  0  0
  150.1737  136.8144  160.0611 O   0  0  0  0  0  0  0  0  0  0  0  0
  147.9443  136.4245  160.0904 N   0  0  0  0  0  0  0  0  0  0  0  0
  147.7388  136.5020  161.5341 C   0  0  0  0  0  0  0  0  0  0  0  0
  147.4643  135.1302  162.1852 C   0  0  0  0  0  0  0  0  0  0  0  0
  145.9907  134.7637  162.2416 C   0  0  0  0  0  0  0  0  0  0  0  0
  145.0103  135.7561  162.4662 C   0  0  0  0  0  0  0  0  0  0  0  0
  143.6510  135.3855  162.5237 C   0  0  0  0  0  0  0  0  0  0  0  0
  143.3012  134.0311  162.3505 C   0  0  0  0  0  0  0  0  0  0  0  0
  144.2659  133.1100  162.1343 N   0  3  0  0  0  0  0  0  0  0  0  0
  145.5788  133.4240  162.0747 C   0  0  0  0  0  0  0  0  0  0  0  0
  149.9414  138.6712  157.3264 C   0  0  0  0  0  0  0  0  0  0  0  0
  149.0918  139.3285  157.9281 O   0  0  0  0  0  0  0  0  0  0  0  0
  148.6935  139.2791  154.8419 H   0  0  0  0  0  0  0  0  0  0  0  0
  150.0289  138.5165  153.9804 H   0  0  0  0  0  0  0  0  0  0  0  0
  149.4530  140.0978  153.4872 H   0  0  0  0  0  0  0  0  0  0  0  0
  151.5531  140.3294  154.7137 H   0  0  0  0  0  0  0  0  0  0  0  0
  149.9094  142.1398  154.8795 H   0  0  0  0  0  0  0  0  0  0  0  0
  149.1975  141.4271  156.3000 H   0  0  0  0  0  0  0  0  0  0  0  0
  152.0487  142.4965  156.0327 H   0  0  0  0  0  0  0  0  0  0  0  0
  150.7549  143.2253  156.9523 H   0  0  0  0  0  0  0  0  0  0  0  0
  152.3372  141.9563  158.4159 H   0  0  0  0  0  0  0  0  0  0  0  0
  150.7174  141.3252  158.5214 H   0  0  0  0  0  0  0  0  0  0  0  0
  153.0346  140.1749  156.8936 H   0  0  0  0  0  0  0  0  0  0  0  0
  152.3305  139.4650  158.3177 H   0  0  0  0  0  0  0  0  0  0  0  0
  152.5387  138.0087  155.5048 H   0  0  0  0  0  0  0  0  0  0  0  0
  148.0774  136.5680  157.5925 H   0  0  0  0  0  0  0  0  0  0  0  0
  149.3527  135.3863  157.6739 H   0  0  0  0  0  0  0  0  0  0  0  0
  147.1295  136.2387  159.5232 H   0  0  0  0  0  0  0  0  0  0  0  0
  148.5944  136.9847  162.0091 H   0  0  0  0  0  0  0  0  0  0  0  0
  146.8841  137.1578  161.7019 H   0  0  0  0  0  0  0  0  0  0  0  0
  148.0005  134.3506  161.6427 H   0  0  0  0  0  0  0  0  0  0  0  0
  147.8698  135.1184  163.1973 H   0  0  0  0  0  0  0  0  0  0  0  0
  145.2953  136.7895  162.6021 H   0  0  0  0  0  0  0  0  0  0  0  0
  142.8893  136.1308  162.7013 H   0  0  0  0  0  0  0  0  0  0  0  0
  142.2871  133.6596  162.3791 H   0  0  0  0  0  0  0  0  0  0  0  0
  146.2545  132.5995  161.8990 H   0  0  0  0  0  0  0  0  0  0  0  0
  143.9909  132.1352  162.0107 H   0  0  0  0  0  0  0  0  0  0  0  0
  1  2  1  0  0  0  0
  1 26  1  0  0  0  0
  1 27  1  0  0  0  0
  1 28  1  0  0  0  0
  2  7  1  0  0  0  0
  2  3  1  0  0  0  0
  2 29  1  0  0  0  0
  3  4  1  0  0  0  0
  3 30  1  0  0  0  0
  3 31  1  0  0  0  0
  4  5  1  0  0  0  0
  4 32  1  0  0  0  0
  4 33  1  0  0  0  0
  5  6  1  0  0  0  0
  5 34  1  0  0  0  0
  5 35  1  0  0  0  0
  6  7  1  0  0  0  0
  6 36  1  0  0  0  0
  6 37  1  0  0  0  0
  7 24  1  0  0  0  0
  7  8  1  0  0  0  0
  8  9  1  0  0  0  0
  8 38  1  0  0  0  0
  9 10  2  0  0  0  0
  9 11  1  0  0  0  0
 11 12  1  0  0  0  0
 11 24  1  0  0  0  0
 12 13  1  0  0  0  0
 12 39  1  0  0  0  0
 12 40  1  0  0  0  0
 13 14  2  0  0  0  0
 13 15  1  0  0  0  0
 15 16  1  0  0  0  0
 15 41  1  0  0  0  0
 16 17  1  0  0  0  0
 16 42  1  0  0  0  0
 16 43  1  0  0  0  0
 17 18  1  0  0  0  0
 17 44  1  0  0  0  0
 17 45  1  0  0  0  0
 18 23  1  0  0  0  0
 18 19  2  0  0  0  0
 19 20  1  0  0  0  0
 19 46  1  0  0  0  0
 20 21  2  0  0  0  0
 20 47  1  0  0  0  0
 21 22  1  0  0  0  0
 21 48  1  0  0  0  0
 22 23  2  0  0  0  0
 22 50  1  0  0  0  0
 23 49  1  0  0  0  0
 24 25  2  0  0  0  0
M  CHG  1  22   1
M  END
> <s_m_source_file>
AV-unprocessed.smi

> <i_m_source_file_index>
837

> <i_lp_mmshare_version>
43012

> <i_f3d_flags>
0

> <s_epik_input>
W0NIMl0xW0NIMl1bQ0gyXVtDSDJdW0NAQEhdKFtDSDNdKVtDQEBdMTJbTkhdQyg9TylOKEMyPU8pW0NIMl1DKD1PKVtOSF1bQ0gyXVtDSDJdYzNbY0hdW2NIXVtjSF1uW2NIXTM=

> <s_epik_cmdline>
J2VwaWtfcHl0aG9uJywgJy1waCcsICc3LjAnLCAnLXRuJywgJzgnLCAnLW1hJywgJzIwMCcsICctbWV0YWxfYmluZGluZycsICctaW1hZScsICc8aW5maWxlLm1hZT4nLCAnLW9tYWUnLCAnPG91dGZpbGUubWFlPic=

> <r_lp_tautomer_probability>
1

> <r_epik_Ionization_Penalty>
2.28139

> <r_epik_Ionization_Penalty_Charging>
2.28135

> <r_epik_Ionization_Penalty_Neutral>
4.65525e-05

> <r_epik_State_Penalty>
2.43066

> <r_epik_Charging_Adjusted_Penalty>
4.71201

> <i_epik_Tot_Q>
1

> <i_epik_Tot_abs_Q>
1

> <r_epik_Metal_State_Penalty>
2.4646

> <b_epik_Metal_Only>
0

> <s_lp_Force_Field>
OPLS_2005

> <r_lp_Energy>
25.3405

> <b_lp_Chiralities_Consistent>
1

> <s_lp_Variant>
AV-unprocessed.smi:837-6

> <Gold.Version>
5.8.1

> <Gold.Id.Protein>
6NUR|6NUR_protein|mol2

> <Gold.PLP.Fitness>
44.5556

> <Gold.PLP.PLP>
-40.9201

> <Gold.PLP.part.hbond>
-3.2555

> <Gold.PLP.part.metal>
0.0000

> <Gold.PLP.part.buried>
-3.3689

> <Gold.PLP.part.nonpolar>
-33.4792

> <Gold.PLP.part.repulsive>
0.3407

> <Gold.PLP.ligand.clash>
0.0000

> <Gold.PLP.ligand.torsion>
0.9400

> <Gold.PLP.Chemscore.Hbond>
1.8288

> <Gold.PLP.Chemscore.CHOScore>
0.0000

> <Gold.PLP.Chemscore.Metal>
0.0000

> <Gold.Chemscore.Hbonds>
donor molecule, donor type, donor heavy atom, donor atom, acceptor molecule, acceptor atom, score
      P1  H  6896  6909       L1    14  1.00
      P1  H 10752 10765       L1    10  0.70

> <Gold.PLP.Chemscore.Internal.Correction>
0.0293

> <Gold.Rescore>
     Score         DG    S(hbond)    S(metal)    S(lipo)     H(rot)  DE(clash)    DE(int)     intcor
     17.64     -18.67       1.87        0.00     102.34       1.96       0.20       0.82       ----

> <Gold.Chemscore.Fitness>
17.6427

> <Gold.Chemscore.DG>
-18.6670

> <Gold.Chemscore.ZeroCoef>
-5.4800

> <Gold.Chemscore.Hbond>
1.8684

> <Gold.Chemscore.Metal>
0.0000

> <Gold.Chemscore.Lipo>
102.3416

> <Gold.Chemscore.Internal_Hbond>
0.0000

> <Gold.Chemscore.DEClash>
0.2001

> <Gold.Chemscore.DEInternal>
0.8242

> <Gold.Chemscore.Rot>
1.9638

> <Gold.Chemscore.Internal.Correction>
   9.000000E+99

> <Gold.Chemscore.Hbonds>
donor molecule, donor type, donor heavy atom, donor atom, acceptor molecule, acceptor atom, score
      P1  H  6896  6909       L1    14  0.48
      P1  H 10752 10765       L1    10  0.68

> <Gold.Chemscore.Hbond.Weighted>
-6.2404

> <Gold.Chemscore.Metal.Weighted>
-0.0000

> <Gold.Chemscore.Lipo.Weighted>
-11.9740

> <Gold.Chemscore.Internal_Hbond.Weighted>
0.0000

> <Gold.Chemscore.DEClash.Weighted>
0.2001

> <Gold.Chemscore.DEInternal.Weighted>
0.8242

> <Gold.Chemscore.Rot.Weighted>
5.0274

> <Gold.Chemscore.Internal.Correction.Weighted>
   9.000000E+99

> <Gold.Protein.RotatedTorsions>
[ 6907 6896 6895 6894 ] final  100.99 input  -60.11 | X-H torsion
[ 7974 7965 7964 7962 ] final -155.66 input  175.53 | X-H torsion
[ 8008 7997 7996 7995 ] final  -56.17 input   59.86 | X-H torsion
[ 10167 10162 10161 10158 ] final  133.85 input  -65.29 | X-H torsion
[ 10718 10713 10712 10709 ] final -171.72 input   66.30 | X-H torsion
[ 10763 10752 10751 10750 ] final -150.68 input  -60.55 | X-H torsion
[ 11005 11000 10999 10996 ] final -104.45 input  -57.11 | X-H torsion

> <Gold.Protein.ActiveResidues>
 VAL166  LYS551  ARG553  GLY616  TRP617  ASP618  TYR619  PRO620  LYS621  CYS622 
 ASP623  PHE694  ASN695  SER759  ASP760  ASP761  ALA762  ILE779  LEU786  VAL792 
 PHE793  MET794  SER795  GLU796  ALA797  LYS798  CYS799  TRP800  GLU811  SER814 

> <Gold.Protein.RotatedAtoms>
  152.5360  134.0194  159.7974 H   0  0  0  0  0  0  0  0  0  0  0  0  # atno 6907 bound_to 6896
  151.0383  133.5721  159.2661 H   0  0  0  0  0  0  0  0  0  0  0  0  # atno 6908 bound_to 6896
  151.2700  135.0689  159.9184 H   0  0  0  0  0  0  0  0  0  0  0  0  # atno 6909 bound_to 6896
  144.7629  140.4218  143.5963 H   0  0  0  0  0  0  0  0  0  0  0  0  # atno 7974 bound_to 7965
  154.4220  140.1136  156.5595 H   0  0  0  0  0  0  0  0  0  0  0  0  # atno 8008 bound_to 7997
  155.6326  140.3496  155.4669 H   0  0  0  0  0  0  0  0  0  0  0  0  # atno 8009 bound_to 7997
  155.9936  140.1184  157.0605 H   0  0  0  0  0  0  0  0  0  0  0  0  # atno 8010 bound_to 7997
  139.5280  144.6596  151.5055 H   0  0  0  0  0  0  0  0  0  0  0  0  # atno 10167 bound_to 10162
  156.7450  130.9356  151.3112 H   0  0  0  0  0  0  0  0  0  0  0  0  # atno 10718 bound_to 10713
  154.8104  135.3278  154.7319 H   0  0  0  0  0  0  0  0  0  0  0  0  # atno 10763 bound_to 10752
  153.7969  135.6906  153.4866 H   0  0  0  0  0  0  0  0  0  0  0  0  # atno 10764 bound_to 10752
  153.1879  135.4562  155.0058 H   0  0  0  0  0  0  0  0  0  0  0  0  # atno 10765 bound_to 10752
  141.1100  133.8724  157.1613 H   0  0  0  0  0  0  0  0  0  0  0  0  # atno 11005 bound_to 11000
  145.6561  139.1573  143.2835 LP  0  0  0  0  0  0  0  0  0  0  0  0  # atno 17320 bound_to 7965
  146.1710  140.6645  142.9233 LP  0  0  0  0  0  0  0  0  0  0  0  0  # atno 17321 bound_to 7965
  140.6438  143.8836  150.6717 LP  0  0  0  0  0  0  0  0  0  0  0  0  # atno 17342 bound_to 10162
  140.2179  143.3832  152.1666 LP  0  0  0  0  0  0  0  0  0  0  0  0  # atno 17343 bound_to 10162
  157.6802  130.9133  150.0248 LP  0  0  0  0  0  0  0  0  0  0  0  0  # atno 17370 bound_to 10713
  156.1439  130.3642  149.9540 LP  0  0  0  0  0  0  0  0  0  0  0  0  # atno 17371 bound_to 10713
  139.9988  135.0036  157.0144 LP  0  0  0  0  0  0  0  0  0  0  0  0  # atno 17394 bound_to 11000
  140.4801  134.1298  155.7215 LP  0  0  0  0  0  0  0  0  0  0  0  0  # atno 17395 bound_to 11000

$$$$
