AV-unprocessed.smi:1239|AV-procd|sdf|5188|dock1
  -GOLD-   22720 4273D 1   1.00000     0.00000
 Structure written by MMmdl.
 47 48  0  0  0  0  0  0  0  0  1 V2000
  148.0489  142.2900  154.5002 C   0  0  0  0  0  0  0  0  0  0  0  0
  146.7516  141.6866  153.9036 C   0  0  1  0  0  0  0  0  0  0  0  0
  146.5856  140.2300  154.4284 C   0  0  0  0  0  0  0  0  0  0  0  0
  145.8371  139.3641  153.5210 N   0  0  0  0  0  0  0  0  0  0  0  0
  146.1030  138.0695  153.2967 C   0  0  0  0  0  0  0  0  0  0  0  0
  147.0347  137.4666  153.8291 O   0  0  0  0  0  0  0  0  0  0  0  0
  145.2350  137.5427  152.4164 N   0  0  0  0  0  0  0  0  0  0  0  0
  145.1601  136.2088  151.9319 C   0  0  0  0  0  0  0  0  0  0  0  0
  145.9539  135.1388  152.4049 C   0  0  0  0  0  0  0  0  0  0  0  0
  145.7707  133.8559  151.8540 C   0  0  0  0  0  0  0  0  0  0  0  0
  144.7937  133.6647  150.8456 C   0  0  0  0  0  0  0  0  0  0  0  0
  144.5747  132.3965  150.2607 N   0  0  0  0  0  0  0  0  0  0  0  0
  145.1143  131.2005  150.8995 C   0  0  0  0  0  0  0  0  0  0  0  0
  143.7286  132.2693  149.0807 C   0  0  0  0  0  0  0  0  0  0  0  0
  144.0270  134.6932  150.4070 N   0  0  0  0  0  0  0  0  0  0  0  0
  144.2054  135.9202  150.9379 C   0  0  0  0  0  0  0  0  0  0  0  0
  145.5622  142.5365  154.1462 N   0  0  0  0  0  0  0  0  0  0  0  0
  145.6513  143.8420  153.4813 C   0  0  0  0  0  0  0  0  0  0  0  0
  144.4331  144.7399  153.7604 C   0  0  0  0  0  0  0  0  0  0  0  0
  144.2752  144.9147  155.1615 O   0  0  0  0  0  0  0  0  0  0  0  0
  144.1066  143.6764  155.8369 C   0  0  0  0  0  0  0  0  0  0  0  0
  145.3245  142.7738  155.5749 C   0  0  0  0  0  0  0  0  0  0  0  0
  148.9127  141.6411  154.3608 H   0  0  0  0  0  0  0  0  0  0  0  0
  147.9436  142.4699  155.5705 H   0  0  0  0  0  0  0  0  0  0  0  0
  148.3245  143.2305  154.0255 H   0  0  0  0  0  0  0  0  0  0  0  0
  146.8991  141.6236  152.8244 H   0  0  0  0  0  0  0  0  0  0  0  0
  147.5656  139.7811  154.5928 H   0  0  0  0  0  0  0  0  0  0  0  0
  146.0678  140.1974  155.3859 H   0  0  0  0  0  0  0  0  0  0  0  0
  145.0562  139.7812  153.0358 H   0  0  0  0  0  0  0  0  0  0  0  0
  144.5740  138.1870  152.0075 H   0  0  0  0  0  0  0  0  0  0  0  0
  146.6872  135.2683  153.1855 H   0  0  0  0  0  0  0  0  0  0  0  0
  146.3809  133.0444  152.2206 H   0  0  0  0  0  0  0  0  0  0  0  0
  144.7011  131.0838  151.9019 H   0  0  0  0  0  0  0  0  0  0  0  0
  146.2004  131.2631  150.9764 H   0  0  0  0  0  0  0  0  0  0  0  0
  144.8725  130.3020  150.3315 H   0  0  0  0  0  0  0  0  0  0  0  0
  144.1545  132.8223  148.2431 H   0  0  0  0  0  0  0  0  0  0  0  0
  142.7282  132.6536  149.2822 H   0  0  0  0  0  0  0  0  0  0  0  0
  143.6282  131.2281  148.7740 H   0  0  0  0  0  0  0  0  0  0  0  0
  143.5643  136.6989  150.5506 H   0  0  0  0  0  0  0  0  0  0  0  0
  146.5606  144.3566  153.7957 H   0  0  0  0  0  0  0  0  0  0  0  0
  145.7107  143.7222  152.4017 H   0  0  0  0  0  0  0  0  0  0  0  0
  144.5684  145.7157  153.2939 H   0  0  0  0  0  0  0  0  0  0  0  0
  143.5270  144.3053  153.3351 H   0  0  0  0  0  0  0  0  0  0  0  0
  143.9996  143.8665  156.9049 H   0  0  0  0  0  0  0  0  0  0  0  0
  143.1875  143.1916  155.5041 H   0  0  0  0  0  0  0  0  0  0  0  0
  145.1429  141.8357  156.0965 H   0  0  0  0  0  0  0  0  0  0  0  0
  146.2102  143.2225  156.0273 H   0  0  0  0  0  0  0  0  0  0  0  0
  1  2  1  0  0  0  0
  1 23  1  0  0  0  0
  1 24  1  0  0  0  0
  1 25  1  0  0  0  0
  2  3  1  0  0  0  0
  2 17  1  0  0  0  0
  2 26  1  0  0  0  0
  3  4  1  0  0  0  0
  3 27  1  0  0  0  0
  3 28  1  0  0  0  0
  4  5  1  0  0  0  0
  4 29  1  0  0  0  0
  5  6  2  0  0  0  0
  5  7  1  0  0  0  0
  7  8  1  0  0  0  0
  7 30  1  0  0  0  0
  8 16  1  0  0  0  0
  8  9  2  0  0  0  0
  9 10  1  0  0  0  0
  9 31  1  0  0  0  0
 10 11  2  0  0  0  0
 10 32  1  0  0  0  0
 11 12  1  0  0  0  0
 11 15  1  0  0  0  0
 12 13  1  0  0  0  0
 12 14  1  0  0  0  0
 13 33  1  0  0  0  0
 13 34  1  0  0  0  0
 13 35  1  0  0  0  0
 14 36  1  0  0  0  0
 14 37  1  0  0  0  0
 14 38  1  0  0  0  0
 15 16  2  0  0  0  0
 16 39  1  0  0  0  0
 17 22  1  0  0  0  0
 17 18  1  0  0  0  0
 18 19  1  0  0  0  0
 18 40  1  0  0  0  0
 18 41  1  0  0  0  0
 19 20  1  0  0  0  0
 19 42  1  0  0  0  0
 19 43  1  0  0  0  0
 20 21  1  0  0  0  0
 21 22  1  0  0  0  0
 21 44  1  0  0  0  0
 21 45  1  0  0  0  0
 22 46  1  0  0  0  0
 22 47  1  0  0  0  0
M  END
> <s_m_source_file>
AV-unprocessed.smi

> <i_m_source_file_index>
1239

> <i_lp_mmshare_version>
43012

> <i_f3d_flags>
0

> <s_epik_input>
W0NIMl0xW0NIMl1PW0NIMl1bQ0gyXU4xW0NASF0oW0NIM10pW0NIMl1bTkhdQyg9TylbTkhdYzJbY0hdW2NIXWMoTihbQ0gzXSlbQ0gzXSluW2NIXTI=

> <s_epik_cmdline>
J2VwaWtfcHl0aG9uJywgJy1waCcsICc3LjAnLCAnLXRuJywgJzgnLCAnLW1hJywgJzIwMCcsICctbWV0YWxfYmluZGluZycsICctaW1hZScsICc8aW5maWxlLm1hZT4nLCAnLW9tYWUnLCAnPG91dGZpbGUubWFlPic=

> <r_lp_tautomer_probability>
1

> <r_epik_Ionization_Penalty>
0.87526

> <r_epik_Ionization_Penalty_Charging>
0

> <r_epik_Ionization_Penalty_Neutral>
0.87526

> <r_epik_State_Penalty>
0.859346

> <r_epik_Charging_Adjusted_Penalty>
0.859346

> <i_epik_Tot_Q>
0

> <i_epik_Tot_abs_Q>
0

> <r_epik_Metal_State_Penalty>
0.538105

> <b_epik_Metal_Only>
0

> <s_lp_Force_Field>
OPLS_2005

> <r_lp_Energy>
32.4423

> <b_lp_Chiralities_Consistent>
1

> <s_lp_Variant>
AV-unprocessed.smi:1239-4

> <Gold.Version>
5.8.1

> <Gold.Id.Protein>
6NUR|6NUR_protein|mol2

> <Gold.PLP.Fitness>
39.1224

> <Gold.PLP.PLP>
-33.5968

> <Gold.PLP.part.hbond>
-1.7132

> <Gold.PLP.part.metal>
0.0000

> <Gold.PLP.part.buried>
-0.0399

> <Gold.PLP.part.nonpolar>
-33.5651

> <Gold.PLP.part.repulsive>
1.9348

> <Gold.PLP.ligand.clash>
0.0000

> <Gold.PLP.ligand.torsion>
0.5391

> <Gold.PLP.Chemscore.Hbond>
1.1789

> <Gold.PLP.Chemscore.CHOScore>
0.9972

> <Gold.PLP.Chemscore.Metal>
0.0000

> <Gold.Chemscore.Hbonds>
donor molecule, donor type, donor heavy atom, donor atom, acceptor molecule, acceptor atom, score
      L1  H     4    29       P1 10175  1.00
      L1  H     7    30       P1 10171  0.17
      L1  C    16    39       P1 10171  0.99

> <Gold.PLP.Chemscore.Internal.Correction>
0.0756

> <Gold.Rescore>
     Score         DG    S(hbond)    S(metal)    S(lipo)     H(rot)  DE(clash)    DE(int)     intcor
     11.91     -16.78       1.49        0.00      85.40       1.44       3.20       1.67       ----

> <Gold.Chemscore.Fitness>
11.9115

> <Gold.Chemscore.DG>
-16.7813

> <Gold.Chemscore.ZeroCoef>
-5.4800

> <Gold.Chemscore.Hbond>
1.4935

> <Gold.Chemscore.Metal>
0.0000

> <Gold.Chemscore.Lipo>
85.3987

> <Gold.Chemscore.Internal_Hbond>
0.0000

> <Gold.Chemscore.DEClash>
3.1968

> <Gold.Chemscore.DEInternal>
1.6729

> <Gold.Chemscore.Rot>
1.4370

> <Gold.Chemscore.Internal.Correction>
   9.000000E+99

> <Gold.Chemscore.Hbonds>
donor molecule, donor type, donor heavy atom, donor atom, acceptor molecule, acceptor atom, score
      L1  H     4    29       P1 10175  1.00
      L1  H     7    30       P1 10171  0.17

> <Gold.Chemscore.Hbond.Weighted>
-4.9882

> <Gold.Chemscore.Metal.Weighted>
-0.0000

> <Gold.Chemscore.Lipo.Weighted>
-9.9916

> <Gold.Chemscore.Internal_Hbond.Weighted>
0.0000

> <Gold.Chemscore.DEClash.Weighted>
3.1968

> <Gold.Chemscore.DEInternal.Weighted>
1.6729

> <Gold.Chemscore.Rot.Weighted>
3.6786

> <Gold.Chemscore.Internal.Correction.Weighted>
   9.000000E+99

> <Gold.Protein.RotatedTorsions>
[ 6907 6896 6895 6894 ] final -136.67 input  -60.11 | X-H torsion
[ 7974 7965 7964 7962 ] final  -54.07 input  175.53 | X-H torsion
[ 8008 7997 7996 7995 ] final  175.46 input   59.86 | X-H torsion
[ 10167 10162 10161 10158 ] final  -10.10 input  -65.29 | X-H torsion
[ 10718 10713 10712 10709 ] final   76.30 input   66.30 | X-H torsion
[ 10763 10752 10751 10750 ] final  -66.30 input  -60.55 | X-H torsion
[ 11005 11000 10999 10996 ] final -171.60 input  -57.11 | X-H torsion

> <Gold.Protein.ActiveResidues>
 VAL166  LYS551  ARG553  GLY616  TRP617  ASP618  TYR619  PRO620  LYS621  CYS622 
 ASP623  PHE694  ASN695  SER759  ASP760  ASP761  ALA762  ILE779  LEU786  VAL792 
 PHE793  MET794  SER795  GLU796  ALA797  LYS798  CYS799  TRP800  GLU811  SER814 

> <Gold.Protein.RotatedAtoms>
  151.0130  133.5947  159.2680 H   0  0  0  0  0  0  0  0  0  0  0  0  # atno 6907 bound_to 6896
  151.3092  135.0789  159.9276 H   0  0  0  0  0  0  0  0  0  0  0  0  # atno 6908 bound_to 6896
  152.5304  133.9798  159.7855 H   0  0  0  0  0  0  0  0  0  0  0  0  # atno 6909 bound_to 6896
  145.8897  140.8080  142.9798 H   0  0  0  0  0  0  0  0  0  0  0  0  # atno 7974 bound_to 7965
  156.0868  140.1408  156.9643 H   0  0  0  0  0  0  0  0  0  0  0  0  # atno 8008 bound_to 7997
  154.4617  140.0940  156.6960 H   0  0  0  0  0  0  0  0  0  0  0  0  # atno 8009 bound_to 7997
  155.4986  140.3450  155.4369 H   0  0  0  0  0  0  0  0  0  0  0  0  # atno 8010 bound_to 7997
  140.7105  143.5785  150.9017 H   0  0  0  0  0  0  0  0  0  0  0  0  # atno 10167 bound_to 10162
  157.6668  130.9768  150.1477 H   0  0  0  0  0  0  0  0  0  0  0  0  # atno 10718 bound_to 10713
  154.3578  135.6122  153.5675 H   0  0  0  0  0  0  0  0  0  0  0  0  # atno 10763 bound_to 10752
  152.9795  135.5808  154.4668 H   0  0  0  0  0  0  0  0  0  0  0  0  # atno 10764 bound_to 10752
  154.4400  135.2850  155.1831 H   0  0  0  0  0  0  0  0  0  0  0  0  # atno 10765 bound_to 10752
  140.5064  134.5844  157.5004 H   0  0  0  0  0  0  0  0  0  0  0  0  # atno 11005 bound_to 11000
  144.6730  140.1511  143.7430 LP  0  0  0  0  0  0  0  0  0  0  0  0  # atno 17320 bound_to 7965
  145.8923  139.2383  143.1542 LP  0  0  0  0  0  0  0  0  0  0  0  0  # atno 17321 bound_to 7965
  139.9511  143.6271  152.3028 LP  0  0  0  0  0  0  0  0  0  0  0  0  # atno 17342 bound_to 10162
  139.6790  144.7657  151.1643 LP  0  0  0  0  0  0  0  0  0  0  0  0  # atno 17343 bound_to 10162
  156.2284  130.3680  149.8473 LP  0  0  0  0  0  0  0  0  0  0  0  0  # atno 17370 bound_to 10713
  156.6307  130.8664  151.3494 LP  0  0  0  0  0  0  0  0  0  0  0  0  # atno 17371 bound_to 10713
  139.9684  134.7334  156.0092 LP  0  0  0  0  0  0  0  0  0  0  0  0  # atno 17394 bound_to 11000
  141.1409  133.6565  156.3726 LP  0  0  0  0  0  0  0  0  0  0  0  0  # atno 17395 bound_to 11000

$$$$
