AV-unprocessed.smi:698|AV-procd|sdf|3397|dock9
  -GOLD-   22720 0383D 1   1.00000     0.00000
 Structure written by MMmdl.
 33 34  0  0  0  0  0  0  0  0  1 V2000
  154.4586  140.6241  161.7875 C   0  0  0  0  0  0  0  0  0  0  0  0
  153.6273  141.2966  160.6924 C   0  0  0  0  0  0  0  0  0  0  0  0
  153.2495  142.5965  161.1363 O   0  0  0  0  0  0  0  0  0  0  0  0
  152.4509  143.3651  160.3143 C   0  0  0  0  0  0  0  0  0  0  0  0
  152.2078  144.7058  160.6682 C   0  0  0  0  0  0  0  0  0  0  0  0
  151.3934  145.4847  159.8271 C   0  0  0  0  0  0  0  0  0  0  0  0
  150.8534  144.8958  158.6680 C   0  0  0  0  0  0  0  0  0  0  0  0
  151.1411  143.5437  158.3788 C   0  0  0  0  0  0  0  0  0  0  0  0
  150.5497  143.0401  157.1905 N   0  0  0  0  0  0  0  0  0  0  0  0
  150.7639  141.8549  156.5870 C   0  0  0  0  0  0  0  0  0  0  0  0
  151.5302  140.9878  157.0082 O   0  0  0  0  0  0  0  0  0  0  0  0
  149.9685  141.5925  155.3011 C   0  0  2  0  0  0  0  0  0  0  0  0
  148.4552  141.5205  155.5085 C   0  0  0  0  0  0  0  0  0  0  0  0
  148.0226  140.7312  154.2925 C   0  0  0  0  0  0  0  0  0  0  0  0
  149.1752  139.7455  154.1052 C   0  0  0  0  0  0  0  0  0  0  0  0
  150.3091  140.3216  154.7497 O   0  0  0  0  0  0  0  0  0  0  0  0
  151.9285  142.8032  159.1969 N   0  0  0  0  0  0  0  0  0  0  0  0
  154.7625  139.6219  161.4849 H   0  0  0  0  0  0  0  0  0  0  0  0
  153.8881  140.5357  162.7124 H   0  0  0  0  0  0  0  0  0  0  0  0
  155.3608  141.1972  162.0019 H   0  0  0  0  0  0  0  0  0  0  0  0
  154.2154  141.3633  159.7757 H   0  0  0  0  0  0  0  0  0  0  0  0
  152.7430  140.6925  160.4830 H   0  0  0  0  0  0  0  0  0  0  0  0
  152.6375  145.1269  161.5650 H   0  0  0  0  0  0  0  0  0  0  0  0
  151.1857  146.5172  160.0665 H   0  0  0  0  0  0  0  0  0  0  0  0
  150.2255  145.4800  158.0107 H   0  0  0  0  0  0  0  0  0  0  0  0
  149.8925  143.6559  156.7339 H   0  0  0  0  0  0  0  0  0  0  0  0
  150.2066  142.3624  154.5654 H   0  0  0  0  0  0  0  0  0  0  0  0
  148.2079  140.9744  156.4206 H   0  0  0  0  0  0  0  0  0  0  0  0
  147.9860  142.5037  155.5579 H   0  0  0  0  0  0  0  0  0  0  0  0
  147.0577  140.2399  154.4208 H   0  0  0  0  0  0  0  0  0  0  0  0
  147.9542  141.3932  153.4281 H   0  0  0  0  0  0  0  0  0  0  0  0
  148.9515  138.7935  154.5874 H   0  0  0  0  0  0  0  0  0  0  0  0
  149.3774  139.5513  153.0517 H   0  0  0  0  0  0  0  0  0  0  0  0
  1  2  1  0  0  0  0
  1 18  1  0  0  0  0
  1 19  1  0  0  0  0
  1 20  1  0  0  0  0
  2  3  1  0  0  0  0
  2 21  1  0  0  0  0
  2 22  1  0  0  0  0
  3  4  1  0  0  0  0
  4 17  1  0  0  0  0
  4  5  2  0  0  0  0
  5  6  1  0  0  0  0
  5 23  1  0  0  0  0
  6  7  2  0  0  0  0
  6 24  1  0  0  0  0
  7  8  1  0  0  0  0
  7 25  1  0  0  0  0
  8  9  1  0  0  0  0
  8 17  2  0  0  0  0
  9 10  1  0  0  0  0
  9 26  1  0  0  0  0
 10 11  2  0  0  0  0
 10 12  1  0  0  0  0
 12 16  1  0  0  0  0
 12 13  1  0  0  0  0
 12 27  1  0  0  0  0
 13 14  1  0  0  0  0
 13 28  1  0  0  0  0
 13 29  1  0  0  0  0
 14 15  1  0  0  0  0
 14 30  1  0  0  0  0
 14 31  1  0  0  0  0
 15 16  1  0  0  0  0
 15 32  1  0  0  0  0
 15 33  1  0  0  0  0
M  END
> <s_m_source_file>
AV-unprocessed.smi

> <i_m_source_file_index>
698

> <i_lp_mmshare_version>
43012

> <i_f3d_flags>
0

> <s_epik_input>
W0NIM11bQ0gyXU9jMVtjSF1bY0hdW2NIXWMobjEpW05IXUMoPU8pW0NAQEhdMltDSDJdW0NIMl1bQ0gyXU8y

> <s_epik_cmdline>
J2VwaWtfcHl0aG9uJywgJy1waCcsICc3LjAnLCAnLXRuJywgJzgnLCAnLW1hJywgJzIwMCcsICctbWV0YWxfYmluZGluZycsICctaW1hZScsICc8aW5maWxlLm1hZT4nLCAnLW9tYWUnLCAnPG91dGZpbGUubWFlPic=

> <r_lp_tautomer_probability>
1

> <r_epik_Ionization_Penalty>
3.42089e-05

> <r_epik_Ionization_Penalty_Charging>
0

> <r_epik_Ionization_Penalty_Neutral>
3.42089e-05

> <r_epik_State_Penalty>
-0

> <r_epik_Charging_Adjusted_Penalty>
0

> <i_epik_Tot_Q>
0

> <i_epik_Tot_abs_Q>
0

> <r_epik_Metal_State_Penalty>
-0

> <b_epik_Metal_Only>
0

> <s_lp_Force_Field>
OPLS_2005

> <r_lp_Energy>
21.1038

> <b_lp_Chiralities_Consistent>
1

> <s_lp_Variant>
AV-unprocessed.smi:698-1

> <Gold.Version>
5.8.1

> <Gold.Id.Protein>
6NUR|6NUR_protein|mol2

> <Gold.PLP.Fitness>
43.9031

> <Gold.PLP.PLP>
-38.0892

> <Gold.PLP.part.hbond>
-2.0000

> <Gold.PLP.part.metal>
0.0000

> <Gold.PLP.part.buried>
-4.5972

> <Gold.PLP.part.nonpolar>
-31.7034

> <Gold.PLP.part.repulsive>
0.1197

> <Gold.PLP.ligand.clash>
0.0000

> <Gold.PLP.ligand.torsion>
0.0993

> <Gold.PLP.Chemscore.Hbond>
2.0000

> <Gold.PLP.Chemscore.CHOScore>
0.0000

> <Gold.PLP.Chemscore.Metal>
0.0000

> <Gold.Chemscore.Hbonds>
donor molecule, donor type, donor heavy atom, donor atom, acceptor molecule, acceptor atom, score
      L1  H     9    26       P1  8028  1.00
      P1  H  7989  7998       L1    16  0.95

> <Gold.PLP.Chemscore.Internal.Correction>
0.0125

> <Gold.Rescore>
     Score         DG    S(hbond)    S(metal)    S(lipo)     H(rot)  DE(clash)    DE(int)     intcor
     14.39     -16.01       1.52        0.00      77.57       1.42       0.15       1.47       ----

> <Gold.Chemscore.Fitness>
14.3858

> <Gold.Chemscore.DG>
-16.0071

> <Gold.Chemscore.ZeroCoef>
-5.4800

> <Gold.Chemscore.Hbond>
1.5217

> <Gold.Chemscore.Metal>
0.0000

> <Gold.Chemscore.Lipo>
77.5726

> <Gold.Chemscore.Internal_Hbond>
0.0000

> <Gold.Chemscore.DEClash>
0.1524

> <Gold.Chemscore.DEInternal>
1.4688

> <Gold.Chemscore.Rot>
1.4185

> <Gold.Chemscore.Internal.Correction>
   9.000000E+99

> <Gold.Chemscore.Hbonds>
donor molecule, donor type, donor heavy atom, donor atom, acceptor molecule, acceptor atom, score
      L1  H     9    26       P1  8028  1.00
      P1  H  7989  7998       L1    16  0.17

> <Gold.Chemscore.Hbond.Weighted>
-5.0824

> <Gold.Chemscore.Metal.Weighted>
-0.0000

> <Gold.Chemscore.Lipo.Weighted>
-9.0760

> <Gold.Chemscore.Internal_Hbond.Weighted>
0.0000

> <Gold.Chemscore.DEClash.Weighted>
0.1524

> <Gold.Chemscore.DEInternal.Weighted>
1.4688

> <Gold.Chemscore.Rot.Weighted>
3.6313

> <Gold.Chemscore.Internal.Correction.Weighted>
   9.000000E+99

> <Gold.Protein.RotatedTorsions>
[ 6907 6896 6895 6894 ] final   52.15 input  -60.11 | X-H torsion
[ 7974 7965 7964 7962 ] final   20.96 input  175.53 | X-H torsion
[ 8008 7997 7996 7995 ] final  139.89 input   59.86 | X-H torsion
[ 10167 10162 10161 10158 ] final -138.76 input  -65.29 | X-H torsion
[ 10718 10713 10712 10709 ] final -103.00 input   66.30 | X-H torsion
[ 10763 10752 10751 10750 ] final -173.48 input  -60.55 | X-H torsion
[ 11005 11000 10999 10996 ] final  169.03 input  -57.11 | X-H torsion

> <Gold.Protein.ActiveResidues>
 VAL166  LYS551  ARG553  GLY616  TRP617  ASP618  TYR619  PRO620  LYS621  CYS622 
 ASP623  PHE694  ASN695  SER759  ASP760  ASP761  ALA762  ILE779  LEU786  VAL792 
 PHE793  MET794  SER795  GLU796  ALA797  LYS798  CYS799  TRP800  GLU811  SER814 

> <Gold.Protein.RotatedAtoms>
  152.3202  134.7389  160.0315 H   0  0  0  0  0  0  0  0  0  0  0  0  # atno 6907 bound_to 6896
  151.7840  133.3347  159.3488 H   0  0  0  0  0  0  0  0  0  0  0  0  # atno 6908 bound_to 6896
  150.7366  134.5835  159.5995 H   0  0  0  0  0  0  0  0  0  0  0  0  # atno 6909 bound_to 6896
  146.2091  139.8096  142.8703 H   0  0  0  0  0  0  0  0  0  0  0  0  # atno 7974 bound_to 7965
  156.2985  140.2356  156.4311 H   0  0  0  0  0  0  0  0  0  0  0  0  # atno 8008 bound_to 7997
  154.8269  140.0435  157.1470 H   0  0  0  0  0  0  0  0  0  0  0  0  # atno 8009 bound_to 7997
  154.9251  140.3009  155.5200 H   0  0  0  0  0  0  0  0  0  0  0  0  # atno 8010 bound_to 7997
  139.8446  143.7278  152.2661 H   0  0  0  0  0  0  0  0  0  0  0  0  # atno 10167 bound_to 10162
  156.0249  130.5446  150.7190 H   0  0  0  0  0  0  0  0  0  0  0  0  # atno 10718 bound_to 10713
  154.6073  135.2861  155.0470 H   0  0  0  0  0  0  0  0  0  0  0  0  # atno 10763 bound_to 10752
  154.1713  135.6472  153.5014 H   0  0  0  0  0  0  0  0  0  0  0  0  # atno 10764 bound_to 10752
  153.0181  135.5401  154.6814 H   0  0  0  0  0  0  0  0  0  0  0  0  # atno 10765 bound_to 10752
  140.2935  134.7654  157.3857 H   0  0  0  0  0  0  0  0  0  0  0  0  # atno 11005 bound_to 11000
  145.3210  141.0244  143.3500 LP  0  0  0  0  0  0  0  0  0  0  0  0  # atno 17320 bound_to 7965
  144.8866  139.4830  143.6697 LP  0  0  0  0  0  0  0  0  0  0  0  0  # atno 17321 bound_to 7965
  139.7525  144.7530  151.0485 LP  0  0  0  0  0  0  0  0  0  0  0  0  # atno 17342 bound_to 10162
  140.7794  143.4843  150.9976 LP  0  0  0  0  0  0  0  0  0  0  0  0  # atno 17343 bound_to 10162
  157.4810  131.0902  151.0536 LP  0  0  0  0  0  0  0  0  0  0  0  0  # atno 17370 bound_to 10713
  157.0970  130.5966  149.5452 LP  0  0  0  0  0  0  0  0  0  0  0  0  # atno 17371 bound_to 10713
  140.1174  134.5265  155.8213 LP  0  0  0  0  0  0  0  0  0  0  0  0  # atno 17394 bound_to 11000
  141.2142  133.6744  156.6802 LP  0  0  0  0  0  0  0  0  0  0  0  0  # atno 17395 bound_to 11000

$$$$
