AV-unprocessed.smi:302|AV-procd|sdf|2273|dock10
  -GOLD-   2262022163D 1   1.00000     0.00000
 Structure written by MMmdl.
 44 45  0  0  0  0  0  0  0  0  1 V2000
  150.6176  130.1526  154.6609 C   0  0  0  0  0  0  0  0  0  0  0  0
  150.6137  131.5392  155.3081 C   0  0  0  0  0  0  0  0  0  0  0  0
  149.3911  132.1907  154.9836 O   0  0  0  0  0  0  0  0  0  0  0  0
  149.5180  133.3809  154.2086 C   0  0  1  0  0  0  0  0  0  0  0  0
  148.1264  133.6876  153.6183 C   0  0  0  0  0  0  0  0  0  0  0  0
  147.7364  132.7944  152.4304 C   0  0  0  0  0  0  0  0  0  0  0  0
  150.0437  134.5285  155.0893 C   0  0  0  0  0  0  0  0  0  0  0  0
  150.3544  134.3039  156.2588 O   0  0  0  0  0  0  0  0  0  0  0  0
  150.1192  135.7338  154.4952 N   0  0  0  0  0  0  0  0  0  0  0  0
  150.5442  136.9704  155.0513 C   0  0  0  0  0  0  0  0  0  0  0  0
  150.9496  138.0902  154.2868 C   0  0  0  0  0  0  0  0  0  0  0  0
  151.3384  139.2663  154.9560 C   0  0  0  0  0  0  0  0  0  0  0  0
  151.3015  139.2918  156.3652 C   0  0  0  0  0  0  0  0  0  0  0  0
  151.6954  140.4589  157.0344 N   0  0  0  0  0  0  0  0  0  0  0  0
  151.8974  140.2669  158.4650 C   0  0  0  0  0  0  0  0  0  0  0  0
  152.4520  141.5559  159.0956 C   0  0  0  0  0  0  0  0  0  0  0  0
  151.5755  142.6430  158.8118 O   0  0  0  0  0  0  0  0  0  0  0  0
  151.4399  142.8696  157.4114 C   0  0  0  0  0  0  0  0  0  0  0  0
  150.8565  141.6142  156.7404 C   0  0  0  0  0  0  0  0  0  0  0  0
  150.8987  138.2301  157.1028 N   0  0  0  0  0  0  0  0  0  0  0  0
  150.5271  137.1058  156.4549 C   0  0  0  0  0  0  0  0  0  0  0  0
  151.5464  129.6242  154.8771 H   0  0  0  0  0  0  0  0  0  0  0  0
  150.5180  130.2250  153.5778 H   0  0  0  0  0  0  0  0  0  0  0  0
  149.7927  129.5449  155.0338 H   0  0  0  0  0  0  0  0  0  0  0  0
  150.7320  131.4365  156.3872 H   0  0  0  0  0  0  0  0  0  0  0  0
  151.4581  132.1219  154.9372 H   0  0  0  0  0  0  0  0  0  0  0  0
  150.2084  133.1961  153.3830 H   0  0  0  0  0  0  0  0  0  0  0  0
  147.3794  133.5619  154.4026 H   0  0  0  0  0  0  0  0  0  0  0  0
  148.0682  134.7351  153.3187 H   0  0  0  0  0  0  0  0  0  0  0  0
  146.7246  133.0212  152.0940 H   0  0  0  0  0  0  0  0  0  0  0  0
  147.7659  131.7401  152.7055 H   0  0  0  0  0  0  0  0  0  0  0  0
  148.4032  132.9390  151.5801 H   0  0  0  0  0  0  0  0  0  0  0  0
  149.7588  135.7835  153.5532 H   0  0  0  0  0  0  0  0  0  0  0  0
  150.9591  138.0765  153.2082 H   0  0  0  0  0  0  0  0  0  0  0  0
  151.6563  140.1329  154.3948 H   0  0  0  0  0  0  0  0  0  0  0  0
  150.9516  140.0006  158.9398 H   0  0  0  0  0  0  0  0  0  0  0  0
  152.5883  139.4398  158.6335 H   0  0  0  0  0  0  0  0  0  0  0  0
  152.5364  141.4400  160.1760 H   0  0  0  0  0  0  0  0  0  0  0  0
  153.4526  141.7737  158.7189 H   0  0  0  0  0  0  0  0  0  0  0  0
  150.7808  143.7229  157.2510 H   0  0  0  0  0  0  0  0  0  0  0  0
  152.4077  143.1284  156.9784 H   0  0  0  0  0  0  0  0  0  0  0  0
  150.7933  141.7604  155.6614 H   0  0  0  0  0  0  0  0  0  0  0  0
  149.8430  141.4387  157.1038 H   0  0  0  0  0  0  0  0  0  0  0  0
  150.2118  136.2842  157.0813 H   0  0  0  0  0  0  0  0  0  0  0  0
  1  2  1  0  0  0  0
  1 22  1  0  0  0  0
  1 23  1  0  0  0  0
  1 24  1  0  0  0  0
  2  3  1  0  0  0  0
  2 25  1  0  0  0  0
  2 26  1  0  0  0  0
  3  4  1  0  0  0  0
  4  5  1  0  0  0  0
  4  7  1  0  0  0  0
  4 27  1  0  0  0  0
  5  6  1  0  0  0  0
  5 28  1  0  0  0  0
  5 29  1  0  0  0  0
  6 30  1  0  0  0  0
  6 31  1  0  0  0  0
  6 32  1  0  0  0  0
  7  8  2  0  0  0  0
  7  9  1  0  0  0  0
  9 10  1  0  0  0  0
  9 33  1  0  0  0  0
 10 21  1  0  0  0  0
 10 11  2  0  0  0  0
 11 12  1  0  0  0  0
 11 34  1  0  0  0  0
 12 13  2  0  0  0  0
 12 35  1  0  0  0  0
 13 14  1  0  0  0  0
 13 20  1  0  0  0  0
 14 19  1  0  0  0  0
 14 15  1  0  0  0  0
 15 16  1  0  0  0  0
 15 36  1  0  0  0  0
 15 37  1  0  0  0  0
 16 17  1  0  0  0  0
 16 38  1  0  0  0  0
 16 39  1  0  0  0  0
 17 18  1  0  0  0  0
 18 19  1  0  0  0  0
 18 40  1  0  0  0  0
 18 41  1  0  0  0  0
 19 42  1  0  0  0  0
 19 43  1  0  0  0  0
 20 21  2  0  0  0  0
 21 44  1  0  0  0  0
M  END
> <s_m_source_file>
AV-unprocessed.smi

> <i_m_source_file_index>
302

> <i_lp_mmshare_version>
43012

> <i_f3d_flags>
0

> <s_epik_input>
W0NIM11bQ0gyXU9bQ0BIXShbQ0gyXVtDSDNdKUMoPU8pW05IXWMxW2NIXVtjSF1jKG5bY0hdMSlOMltDSDJdW0NIMl1PW0NIMl1bQ0gyXTI=

> <s_epik_cmdline>
J2VwaWtfcHl0aG9uJywgJy1waCcsICc3LjAnLCAnLXRuJywgJzgnLCAnLW1hJywgJzIwMCcsICctbWV0YWxfYmluZGluZycsICctaW1hZScsICc8aW5maWxlLm1hZT4nLCAnLW9tYWUnLCAnPG91dGZpbGUubWFlPic=

> <r_lp_tautomer_probability>
1

> <r_epik_Ionization_Penalty>
0.000497413

> <r_epik_Ionization_Penalty_Charging>
0

> <r_epik_Ionization_Penalty_Neutral>
0.000497413

> <r_epik_State_Penalty>
0.000308489

> <r_epik_Charging_Adjusted_Penalty>
0.000308489

> <i_epik_Tot_Q>
0

> <i_epik_Tot_abs_Q>
0

> <r_epik_Metal_State_Penalty>
-0

> <b_epik_Metal_Only>
0

> <s_lp_Force_Field>
OPLS_2005

> <r_lp_Energy>
26.1218

> <b_lp_Chiralities_Consistent>
1

> <s_lp_Variant>
AV-unprocessed.smi:302-2

> <Gold.Version>
5.8.1

> <Gold.Id.Protein>
6NUR|6NUR_protein|mol2

> <Gold.PLP.Fitness>
35.9253

> <Gold.PLP.PLP>
-34.8598

> <Gold.PLP.part.hbond>
-1.2766

> <Gold.PLP.part.metal>
0.0000

> <Gold.PLP.part.buried>
-5.0528

> <Gold.PLP.part.nonpolar>
-29.5330

> <Gold.PLP.part.repulsive>
0.0813

> <Gold.PLP.ligand.clash>
0.0000

> <Gold.PLP.ligand.torsion>
0.8899

> <Gold.PLP.Chemscore.Hbond>
0.9000

> <Gold.PLP.Chemscore.CHOScore>
0.0000

> <Gold.PLP.Chemscore.Metal>
0.0000

> <Gold.Chemscore.Hbonds>
donor molecule, donor type, donor heavy atom, donor atom, acceptor molecule, acceptor atom, score
      L1  H     9    33       P1  7948  0.75

> <Gold.PLP.Chemscore.Internal.Correction>
0.1453

> <Gold.Rescore>
     Score         DG    S(hbond)    S(metal)    S(lipo)     H(rot)  DE(clash)    DE(int)     intcor
     11.43     -13.90       0.90        0.00      81.92       1.63       0.02       2.45       ----

> <Gold.Chemscore.Fitness>
11.4290

> <Gold.Chemscore.DG>
-13.9022

> <Gold.Chemscore.ZeroCoef>
-5.4800

> <Gold.Chemscore.Hbond>
0.8983

> <Gold.Chemscore.Metal>
0.0000

> <Gold.Chemscore.Lipo>
81.9180

> <Gold.Chemscore.Internal_Hbond>
0.0000

> <Gold.Chemscore.DEClash>
0.0239

> <Gold.Chemscore.DEInternal>
2.4492

> <Gold.Chemscore.Rot>
1.6260

> <Gold.Chemscore.Internal.Correction>
   9.000000E+99

> <Gold.Chemscore.Hbonds>
donor molecule, donor type, donor heavy atom, donor atom, acceptor molecule, acceptor atom, score
      L1  H     9    33       P1  7948  0.09

> <Gold.Chemscore.Hbond.Weighted>
-3.0003

> <Gold.Chemscore.Metal.Weighted>
-0.0000

> <Gold.Chemscore.Lipo.Weighted>
-9.5844

> <Gold.Chemscore.Internal_Hbond.Weighted>
0.0000

> <Gold.Chemscore.DEClash.Weighted>
0.0239

> <Gold.Chemscore.DEInternal.Weighted>
2.4492

> <Gold.Chemscore.Rot.Weighted>
4.1626

> <Gold.Chemscore.Internal.Correction.Weighted>
   9.000000E+99

> <Gold.Protein.RotatedTorsions>
[ 6907 6896 6895 6894 ] final   74.37 input  -60.11 | X-H torsion
[ 7974 7965 7964 7962 ] final -136.40 input  175.53 | X-H torsion
[ 8008 7997 7996 7995 ] final    6.33 input   59.86 | X-H torsion
[ 10167 10162 10161 10158 ] final  -65.76 input  -65.29 | X-H torsion
[ 10718 10713 10712 10709 ] final   76.27 input   66.30 | X-H torsion
[ 10763 10752 10751 10750 ] final   64.42 input  -60.55 | X-H torsion
[ 11005 11000 10999 10996 ] final  104.10 input  -57.11 | X-H torsion

> <Gold.Protein.ActiveResidues>
 VAL166  LYS551  ARG553  GLY616  TRP617  ASP618  TYR619  PRO620  LYS621  CYS622 
 ASP623  PHE694  ASN695  SER759  ASP760  ASP761  ALA762  ILE779  LEU786  VAL792 
 PHE793  MET794  SER795  GLU796  ALA797  LYS798  CYS799  TRP800  GLU811  SER814 

> <Gold.Protein.RotatedAtoms>
  152.4972  134.4282  159.9503 H   0  0  0  0  0  0  0  0  0  0  0  0  # atno 6907 bound_to 6896
  151.4259  133.3678  159.2770 H   0  0  0  0  0  0  0  0  0  0  0  0  # atno 6908 bound_to 6896
  150.9189  134.8630  159.7535 H   0  0  0  0  0  0  0  0  0  0  0  0  # atno 6909 bound_to 6896
  144.8930  140.6668  143.5133 H   0  0  0  0  0  0  0  0  0  0  0  0  # atno 7974 bound_to 7965
  154.7396  140.2746  155.6384 H   0  0  0  0  0  0  0  0  0  0  0  0  # atno 8008 bound_to 7997
  156.2870  140.2699  156.2046 H   0  0  0  0  0  0  0  0  0  0  0  0  # atno 8009 bound_to 7997
  155.0275  140.0371  157.2451 H   0  0  0  0  0  0  0  0  0  0  0  0  # atno 8010 bound_to 7997
  140.5706  143.2317  151.6545 H   0  0  0  0  0  0  0  0  0  0  0  0  # atno 10167 bound_to 10162
  157.6667  130.9766  150.1473 H   0  0  0  0  0  0  0  0  0  0  0  0  # atno 10718 bound_to 10713
  153.0055  135.5393  154.6507 H   0  0  0  0  0  0  0  0  0  0  0  0  # atno 10763 bound_to 10752
  154.5740  135.2844  155.0801 H   0  0  0  0  0  0  0  0  0  0  0  0  # atno 10764 bound_to 10752
  154.1956  135.6493  153.5125 H   0  0  0  0  0  0  0  0  0  0  0  0  # atno 10765 bound_to 10752
  139.8789  134.9288  156.5311 H   0  0  0  0  0  0  0  0  0  0  0  0  # atno 11005 bound_to 11000
  145.3750  139.1650  143.4311 LP  0  0  0  0  0  0  0  0  0  0  0  0  # atno 17320 bound_to 7965
  146.3065  140.3825  142.8685 LP  0  0  0  0  0  0  0  0  0  0  0  0  # atno 17321 bound_to 7965
  139.5115  144.3505  152.0656 LP  0  0  0  0  0  0  0  0  0  0  0  0  # atno 17342 bound_to 10162
  140.2642  144.4034  150.6174 LP  0  0  0  0  0  0  0  0  0  0  0  0  # atno 17343 bound_to 10162
  156.2281  130.3679  149.8477 LP  0  0  0  0  0  0  0  0  0  0  0  0  # atno 17370 bound_to 10713
  156.6311  130.8666  151.3495 LP  0  0  0  0  0  0  0  0  0  0  0  0  # atno 17371 bound_to 10713
  140.8380  133.8227  155.9047 LP  0  0  0  0  0  0  0  0  0  0  0  0  # atno 17394 bound_to 11000
  140.9265  134.2076  157.4892 LP  0  0  0  0  0  0  0  0  0  0  0  0  # atno 17395 bound_to 11000

$$$$
