AV-unprocessed.smi:2563|AV-procd|sdf|10061|dock6
  -GOLD-   2272014103D 1   1.00000     0.00000
 Structure written by MMmdl.
 34 35  0  0  0  0  0  0  0  0  1 V2000
  151.9478  144.4718  158.0447 C   0  0  0  0  0  0  0  0  0  0  0  0
  151.0647  143.2283  158.2150 C   0  0  0  0  0  0  0  0  0  0  0  0
  151.7971  142.1034  158.7988 N   0  0  0  0  0  0  0  0  0  0  0  0
  151.9041  140.8661  158.0263 C   0  0  0  0  0  0  0  0  0  0  0  0
  151.3103  140.9997  156.6124 C   0  0  1  0  0  0  0  0  0  0  0  0
  151.6606  139.7784  155.7380 C   0  0  0  0  0  0  0  0  0  0  0  0
  151.0357  139.8938  154.4211 N   0  0  0  0  0  0  0  0  0  0  0  0
  149.5909  140.0830  154.5333 C   0  0  0  0  0  0  0  0  0  0  0  0
  149.2808  141.2837  155.4428 C   0  0  0  0  0  0  0  0  0  0  0  0
  149.8908  141.0817  156.7125 O   0  0  0  0  0  0  0  0  0  0  0  0
  152.4590  142.2495  160.0432 C   0  0  0  0  0  0  0  0  0  0  0  0
  153.6015  141.4834  160.3835 C   0  0  0  0  0  0  0  0  0  0  0  0
  154.1936  141.6946  161.6401 C   0  0  0  0  0  0  0  0  0  0  0  0
  153.6078  142.6581  162.4776 C   0  0  0  0  0  0  0  0  0  0  0  0
  152.5179  143.3663  162.1143 N   0  0  0  0  0  0  0  0  0  0  0  0
  151.9575  143.1612  160.9178 N   0  0  0  0  0  0  0  0  0  0  0  0
  151.3782  145.2908  157.6055 H   0  0  0  0  0  0  0  0  0  0  0  0
  152.7963  144.2703  157.3905 H   0  0  0  0  0  0  0  0  0  0  0  0
  152.3377  144.8168  159.0025 H   0  0  0  0  0  0  0  0  0  0  0  0
  150.1806  143.4670  158.8066 H   0  0  0  0  0  0  0  0  0  0  0  0
  150.6854  142.9284  157.2380 H   0  0  0  0  0  0  0  0  0  0  0  0
  152.9656  140.6353  157.9329 H   0  0  0  0  0  0  0  0  0  0  0  0
  151.4795  140.0139  158.5552 H   0  0  0  0  0  0  0  0  0  0  0  0
  151.6989  141.9047  156.1414 H   0  0  0  0  0  0  0  0  0  0  0  0
  152.7420  139.6939  155.6282 H   0  0  0  0  0  0  0  0  0  0  0  0
  151.3235  138.8643  156.2285 H   0  0  0  0  0  0  0  0  0  0  0  0
  151.2282  139.0579  153.8784 H   0  0  0  0  0  0  0  0  0  0  0  0
  149.1546  140.2365  153.5462 H   0  0  0  0  0  0  0  0  0  0  0  0
  149.1296  139.1842  154.9445 H   0  0  0  0  0  0  0  0  0  0  0  0
  149.6316  142.2160  154.9972 H   0  0  0  0  0  0  0  0  0  0  0  0
  148.2039  141.3823  155.5804 H   0  0  0  0  0  0  0  0  0  0  0  0
  154.0267  140.7427  159.7248 H   0  0  0  0  0  0  0  0  0  0  0  0
  155.0643  141.1366  161.9512 H   0  0  0  0  0  0  0  0  0  0  0  0
  154.0176  142.8641  163.4552 H   0  0  0  0  0  0  0  0  0  0  0  0
  1  2  1  0  0  0  0
  1 17  1  0  0  0  0
  1 18  1  0  0  0  0
  1 19  1  0  0  0  0
  2  3  1  0  0  0  0
  2 20  1  0  0  0  0
  2 21  1  0  0  0  0
  3  4  1  0  0  0  0
  3 11  1  0  0  0  0
  4  5  1  0  0  0  0
  4 22  1  0  0  0  0
  4 23  1  0  0  0  0
  5 10  1  0  0  0  0
  5  6  1  0  0  0  0
  5 24  1  0  0  0  0
  6  7  1  0  0  0  0
  6 25  1  0  0  0  0
  6 26  1  0  0  0  0
  7  8  1  0  0  0  0
  7 27  1  0  0  0  0
  8  9  1  0  0  0  0
  8 28  1  0  0  0  0
  8 29  1  0  0  0  0
  9 10  1  0  0  0  0
  9 30  1  0  0  0  0
  9 31  1  0  0  0  0
 11 16  1  0  0  0  0
 11 12  2  0  0  0  0
 12 13  1  0  0  0  0
 12 32  1  0  0  0  0
 13 14  2  0  0  0  0
 13 33  1  0  0  0  0
 14 15  1  0  0  0  0
 14 34  1  0  0  0  0
 15 16  2  0  0  0  0
M  END
> <s_m_source_file>
AV-unprocessed.smi

> <i_m_source_file_index>
2563

> <i_lp_mmshare_version>
43012

> <i_f3d_flags>
0

> <s_epik_input>
bjFuW2NIXVtjSF1bY0hdYzFOKFtDSDJdW0NIM10pW0NIMl1bQ0BASF0yW0NIMl1bTkhdW0NIMl1bQ0gyXU8y

> <s_epik_cmdline>
J2VwaWtfcHl0aG9uJywgJy1waCcsICc3LjAnLCAnLXRuJywgJzgnLCAnLW1hJywgJzIwMCcsICctbWV0YWxfYmluZGluZycsICctaW1hZScsICc8aW5maWxlLm1hZT4nLCAnLW9tYWUnLCAnPG91dGZpbGUubWFlPic=

> <r_lp_tautomer_probability>
1

> <r_epik_Ionization_Penalty>
2.34719

> <r_epik_Ionization_Penalty_Charging>
0

> <r_epik_Ionization_Penalty_Neutral>
2.34719

> <r_epik_State_Penalty>
2.60452

> <r_epik_Charging_Adjusted_Penalty>
2.60452

> <i_epik_Tot_Q>
0

> <i_epik_Tot_abs_Q>
0

> <r_epik_Metal_State_Penalty>
2.56937

> <b_epik_Metal_Only>
0

> <s_lp_Force_Field>
OPLS_2005

> <r_lp_Energy>
25.3459

> <b_lp_Chiralities_Consistent>
1

> <s_lp_Variant>
AV-unprocessed.smi:2563-6

> <Gold.Version>
5.8.1

> <Gold.Id.Protein>
6NUR|6NUR_protein|mol2

> <Gold.PLP.Fitness>
42.5776

> <Gold.PLP.PLP>
-40.3663

> <Gold.PLP.part.hbond>
-1.0189

> <Gold.PLP.part.metal>
0.0000

> <Gold.PLP.part.buried>
-4.8246

> <Gold.PLP.part.nonpolar>
-33.4547

> <Gold.PLP.part.repulsive>
0.3063

> <Gold.PLP.ligand.clash>
0.0000

> <Gold.PLP.ligand.torsion>
0.4062

> <Gold.PLP.Chemscore.Hbond>
1.0000

> <Gold.PLP.Chemscore.CHOScore>
0.0000

> <Gold.PLP.Chemscore.Metal>
0.0000

> <Gold.Chemscore.Hbonds>
donor molecule, donor type, donor heavy atom, donor atom, acceptor molecule, acceptor atom, score
      P1  H  7989  7998       L1     7  0.72

> <Gold.PLP.Chemscore.Internal.Correction>
0.0237

> <Gold.Rescore>
     Score         DG    S(hbond)    S(metal)    S(lipo)     H(rot)  DE(clash)    DE(int)     intcor
     12.33     -13.62       0.33        0.00      89.86       1.36       0.02       1.27       ----

> <Gold.Chemscore.Fitness>
12.3298

> <Gold.Chemscore.DG>
-13.6224

> <Gold.Chemscore.ZeroCoef>
-5.4800

> <Gold.Chemscore.Hbond>
0.3339

> <Gold.Chemscore.Metal>
0.0000

> <Gold.Chemscore.Lipo>
89.8570

> <Gold.Chemscore.Internal_Hbond>
0.0000

> <Gold.Chemscore.DEClash>
0.0222

> <Gold.Chemscore.DEInternal>
1.2704

> <Gold.Chemscore.Rot>
1.3618

> <Gold.Chemscore.Internal.Correction>
   9.000000E+99

> <Gold.Chemscore.Hbonds>
donor molecule, donor type, donor heavy atom, donor atom, acceptor molecule, acceptor atom, score
      P1  H  7989  7998       L1     7  0.09

> <Gold.Chemscore.Hbond.Weighted>
-1.1153

> <Gold.Chemscore.Metal.Weighted>
-0.0000

> <Gold.Chemscore.Lipo.Weighted>
-10.5133

> <Gold.Chemscore.Internal_Hbond.Weighted>
0.0000

> <Gold.Chemscore.DEClash.Weighted>
0.0222

> <Gold.Chemscore.DEInternal.Weighted>
1.2704

> <Gold.Chemscore.Rot.Weighted>
3.4861

> <Gold.Chemscore.Internal.Correction.Weighted>
   9.000000E+99

> <Gold.Protein.RotatedTorsions>
[ 6907 6896 6895 6894 ] final -103.22 input  -60.11 | X-H torsion
[ 7974 7965 7964 7962 ] final  -62.51 input  175.53 | X-H torsion
[ 8008 7997 7996 7995 ] final   59.28 input   59.86 | X-H torsion
[ 10167 10162 10161 10158 ] final  102.79 input  -65.29 | X-H torsion
[ 10718 10713 10712 10709 ] final  157.98 input   66.30 | X-H torsion
[ 10763 10752 10751 10750 ] final  178.53 input  -60.55 | X-H torsion
[ 11005 11000 10999 10996 ] final  111.77 input  -57.11 | X-H torsion

> <Gold.Protein.ActiveResidues>
 VAL166  LYS551  ARG553  GLY616  TRP617  ASP618  TYR619  PRO620  LYS621  CYS622 
 ASP623  PHE694  ASN695  SER759  ASP760  ASP761  ALA762  ILE779  LEU786  VAL792 
 PHE793  MET794  SER795  GLU796  ALA797  LYS798  CYS799  TRP800  GLU811  SER814 

> <Gold.Protein.RotatedAtoms>
  150.7230  134.0462  159.3782 H   0  0  0  0  0  0  0  0  0  0  0  0  # atno 6907 bound_to 6896
  151.8437  135.0579  160.0460 H   0  0  0  0  0  0  0  0  0  0  0  0  # atno 6908 bound_to 6896
  152.2843  133.5464  159.5554 H   0  0  0  0  0  0  0  0  0  0  0  0  # atno 6909 bound_to 6896
  145.7904  140.8713  143.0284 H   0  0  0  0  0  0  0  0  0  0  0  0  # atno 7974 bound_to 7965
  155.5637  140.3488  155.4497 H   0  0  0  0  0  0  0  0  0  0  0  0  # atno 8008 bound_to 7997
  156.0496  140.1314  157.0091 H   0  0  0  0  0  0  0  0  0  0  0  0  # atno 8009 bound_to 7997
  154.4428  140.1007  156.6341 H   0  0  0  0  0  0  0  0  0  0  0  0  # atno 8010 bound_to 7997
  139.7319  144.7034  151.0709 H   0  0  0  0  0  0  0  0  0  0  0  0  # atno 10167 bound_to 10162
  157.1841  131.0639  151.2116 H   0  0  0  0  0  0  0  0  0  0  0  0  # atno 10718 bound_to 10713
  154.5089  135.2787  155.1359 H   0  0  0  0  0  0  0  0  0  0  0  0  # atno 10763 bound_to 10752
  154.2963  135.6257  153.5409 H   0  0  0  0  0  0  0  0  0  0  0  0  # atno 10764 bound_to 10752
  152.9915  135.5686  154.5549 H   0  0  0  0  0  0  0  0  0  0  0  0  # atno 10765 bound_to 10752
  139.8911  134.9515  156.6483 H   0  0  0  0  0  0  0  0  0  0  0  0  # atno 11005 bound_to 11000
  144.6782  140.0115  143.7484 LP  0  0  0  0  0  0  0  0  0  0  0  0  # atno 17320 bound_to 7965
  145.9983  139.3070  143.0943 LP  0  0  0  0  0  0  0  0  0  0  0  0  # atno 17321 bound_to 7965
  140.7772  143.5033  150.9744 LP  0  0  0  0  0  0  0  0  0  0  0  0  # atno 17342 bound_to 10162
  139.8721  143.7179  152.3165 LP  0  0  0  0  0  0  0  0  0  0  0  0  # atno 17343 bound_to 10162
  157.3924  130.7289  149.6707 LP  0  0  0  0  0  0  0  0  0  0  0  0  # atno 17370 bound_to 10713
  155.9720  130.4143  150.4124 LP  0  0  0  0  0  0  0  0  0  0  0  0  # atno 17371 bound_to 10713
  140.7540  133.8873  155.8368 LP  0  0  0  0  0  0  0  0  0  0  0  0  # atno 17394 bound_to 11000
  140.9977  134.1192  157.4347 LP  0  0  0  0  0  0  0  0  0  0  0  0  # atno 17395 bound_to 11000

$$$$
