AV-unprocessed.smi:153|AV-procd|sdf|1262|dock8
  -GOLD-   2262018513D 1   1.00000     0.00000
 Structure written by MMmdl.
 59 62  0  0  0  0  0  0  0  0  1 V2000
  151.0698  142.2187  156.3018 C   0  0  0  0  0  0  0  0  0  0  0  0
  151.0389  142.5401  157.8041 C   0  0  2  0  0  0  0  0  0  0  0  0
  151.7017  143.7880  157.9921 O   0  0  0  0  0  0  0  0  0  0  0  0
  152.3116  143.7952  159.2707 C   0  0  0  0  0  0  0  0  0  0  0  0
  152.8602  142.3808  159.3782 C   0  0  0  0  0  0  0  0  0  0  0  0
  151.7542  141.5355  158.7521 C   0  0  1  0  0  0  0  0  0  0  0  0
  150.8395  141.1902  159.7795 O   0  0  0  0  0  0  0  0  0  0  0  0
  152.2661  140.2200  158.1085 C   0  0  0  0  0  0  0  0  0  0  0  0
  152.4775  139.1502  159.0723 N   0  0  0  0  0  0  0  0  0  0  0  0
  151.9097  137.8960  159.0517 C   0  0  0  0  0  0  0  0  0  0  0  0
  152.2607  137.1092  160.0317 N   0  0  0  0  0  0  0  0  0  0  0  0
  153.1409  137.8772  160.7838 C   0  0  0  0  0  0  0  0  0  0  0  0
  153.9062  137.6388  161.9594 C   0  0  0  0  0  0  0  0  0  0  0  0
  153.8750  136.4539  162.6196 N   0  0  0  0  0  0  0  0  0  0  0  0
  153.3963  136.5597  163.9928 C   0  0  0  0  0  0  0  0  0  0  0  0
  154.8854  135.4367  162.3190 C   0  0  0  0  0  0  0  0  0  0  0  0
  154.3813  133.9891  162.5115 C   0  0  1  0  0  0  0  0  0  0  0  0
  155.3285  133.1397  161.8987 O   0  0  0  0  0  0  0  0  0  0  0  0
  154.2634  133.5867  164.0017 C   0  0  0  0  0  0  0  0  0  0  0  0
  154.0385  132.1619  164.2506 N   0  0  0  0  0  0  0  0  0  0  0  0
  152.6761  131.7474  163.9180 C   0  0  0  0  0  0  0  0  0  0  0  0
  152.4281  130.2615  164.2269 C   0  0  0  0  0  0  0  0  0  0  0  0
  152.7162  130.0030  165.5968 O   0  0  0  0  0  0  0  0  0  0  0  0
  154.0532  130.3435  165.9478 C   0  0  0  0  0  0  0  0  0  0  0  0
  154.3002  131.8322  165.6480 C   0  0  0  0  0  0  0  0  0  0  0  0
  154.6913  138.6517  162.4127 N   0  0  0  0  0  0  0  0  0  0  0  0
  154.7357  139.8150  161.7571 C   0  0  0  0  0  0  0  0  0  0  0  0
  154.0877  140.1720  160.6465 N   0  0  0  0  0  0  0  0  0  0  0  0
  153.2932  139.1617  160.1905 C   0  0  0  0  0  0  0  0  0  0  0  0
  150.5711  141.2739  156.0854 H   0  0  0  0  0  0  0  0  0  0  0  0
  152.0913  142.1615  155.9251 H   0  0  0  0  0  0  0  0  0  0  0  0
  150.5570  142.9949  155.7332 H   0  0  0  0  0  0  0  0  0  0  0  0
  149.9977  142.6712  158.1050 H   0  0  0  0  0  0  0  0  0  0  0  0
  153.0880  144.5569  159.3434 H   0  0  0  0  0  0  0  0  0  0  0  0
  151.5611  143.9880  160.0387 H   0  0  0  0  0  0  0  0  0  0  0  0
  153.7686  142.3139  158.7786 H   0  0  0  0  0  0  0  0  0  0  0  0
  153.1141  142.0924  160.3992 H   0  0  0  0  0  0  0  0  0  0  0  0
  150.5690  141.9821  160.2184 H   0  0  0  0  0  0  0  0  0  0  0  0
  151.5628  139.8641  157.3545 H   0  0  0  0  0  0  0  0  0  0  0  0
  153.2113  140.3898  157.5924 H   0  0  0  0  0  0  0  0  0  0  0  0
  151.2191  137.5815  158.2828 H   0  0  0  0  0  0  0  0  0  0  0  0
  153.6473  137.5269  164.4313 H   0  0  0  0  0  0  0  0  0  0  0  0
  153.8333  135.7869  164.6256 H   0  0  0  0  0  0  0  0  0  0  0  0
  152.3131  136.4402  164.0223 H   0  0  0  0  0  0  0  0  0  0  0  0
  155.2378  135.5799  161.2965 H   0  0  0  0  0  0  0  0  0  0  0  0
  155.7515  135.5986  162.9619 H   0  0  0  0  0  0  0  0  0  0  0  0
  153.4424  133.8376  161.9813 H   0  0  0  0  0  0  0  0  0  0  0  0
  156.1822  133.3443  162.2487 H   0  0  0  0  0  0  0  0  0  0  0  0
  155.1656  133.9068  164.5257 H   0  0  0  0  0  0  0  0  0  0  0  0
  153.4580  134.1531  164.4716 H   0  0  0  0  0  0  0  0  0  0  0  0
  151.9593  132.3534  164.4742 H   0  0  0  0  0  0  0  0  0  0  0  0
  152.4745  131.9147  162.8615 H   0  0  0  0  0  0  0  0  0  0  0  0
  151.3884  130.0032  164.0249 H   0  0  0  0  0  0  0  0  0  0  0  0
  153.0467  129.6266  163.5911 H   0  0  0  0  0  0  0  0  0  0  0  0
  154.2063  130.1395  167.0076 H   0  0  0  0  0  0  0  0  0  0  0  0
  154.7539  129.7156  165.3952 H   0  0  0  0  0  0  0  0  0  0  0  0
  155.3314  132.0822  165.8999 H   0  0  0  0  0  0  0  0  0  0  0  0
  153.6656  132.4386  166.2964 H   0  0  0  0  0  0  0  0  0  0  0  0
  155.3850  140.5662  162.1816 H   0  0  0  0  0  0  0  0  0  0  0  0
  1  2  1  0  0  0  0
  1 30  1  0  0  0  0
  1 31  1  0  0  0  0
  1 32  1  0  0  0  0
  2  6  1  0  0  0  0
  2  3  1  0  0  0  0
  2 33  1  0  0  0  0
  3  4  1  0  0  0  0
  4  5  1  0  0  0  0
  4 34  1  0  0  0  0
  4 35  1  0  0  0  0
  5  6  1  0  0  0  0
  5 36  1  0  0  0  0
  5 37  1  0  0  0  0
  6  7  1  0  0  0  0
  6  8  1  0  0  0  0
  7 38  1  0  0  0  0
  8  9  1  0  0  0  0
  8 39  1  0  0  0  0
  8 40  1  0  0  0  0
  9 29  1  0  0  0  0
  9 10  1  0  0  0  0
 10 11  2  0  0  0  0
 10 41  1  0  0  0  0
 11 12  1  0  0  0  0
 12 29  2  0  0  0  0
 12 13  1  0  0  0  0
 13 14  1  0  0  0  0
 13 26  2  0  0  0  0
 14 15  1  0  0  0  0
 14 16  1  0  0  0  0
 15 42  1  0  0  0  0
 15 43  1  0  0  0  0
 15 44  1  0  0  0  0
 16 17  1  0  0  0  0
 16 45  1  0  0  0  0
 16 46  1  0  0  0  0
 17 18  1  0  0  0  0
 17 19  1  0  0  0  0
 17 47  1  0  0  0  0
 18 48  1  0  0  0  0
 19 20  1  0  0  0  0
 19 49  1  0  0  0  0
 19 50  1  0  0  0  0
 20 25  1  0  0  0  0
 20 21  1  0  0  0  0
 21 22  1  0  0  0  0
 21 51  1  0  0  0  0
 21 52  1  0  0  0  0
 22 23  1  0  0  0  0
 22 53  1  0  0  0  0
 22 54  1  0  0  0  0
 23 24  1  0  0  0  0
 24 25  1  0  0  0  0
 24 55  1  0  0  0  0
 24 56  1  0  0  0  0
 25 57  1  0  0  0  0
 25 58  1  0  0  0  0
 26 27  1  0  0  0  0
 27 28  2  0  0  0  0
 27 59  1  0  0  0  0
 28 29  1  0  0  0  0
M  END
> <s_m_source_file>
AV-unprocessed.smi

> <i_m_source_file_index>
153

> <i_lp_mmshare_version>
43012

> <i_f3d_flags>
0

> <s_epik_input>
W0NIMl0xW0NIMl1PW0NAQEhdKFtDSDNdKVtDQEBdMShbT0hdKVtDSDJdbihbY0hdbjIpYyhjMjMpbltjSF1uYzNOKFtDSDNdKVtDSDJdW0NASF0oW09IXSlbQ0gyXU40W0NIMl1bQ0gyXU9bQ0gyXVtDSDJdNA==

> <s_epik_cmdline>
J2VwaWtfcHl0aG9uJywgJy1waCcsICc3LjAnLCAnLXRuJywgJzgnLCAnLW1hJywgJzIwMCcsICctbWV0YWxfYmluZGluZycsICctaW1hZScsICc8aW5maWxlLm1hZT4nLCAnLW9tYWUnLCAnPG91dGZpbGUubWFlPic=

> <r_lp_tautomer_probability>
1

> <r_epik_Ionization_Penalty>
0.424123

> <r_epik_Ionization_Penalty_Charging>
0

> <r_epik_Ionization_Penalty_Neutral>
0.424123

> <r_epik_State_Penalty>
0.421495

> <r_epik_Charging_Adjusted_Penalty>
0.421495

> <i_epik_Tot_Q>
0

> <i_epik_Tot_abs_Q>
0

> <r_epik_Metal_State_Penalty>
0.421223

> <b_epik_Metal_Only>
0

> <s_lp_Force_Field>
OPLS_2005

> <r_lp_Energy>
51.9128

> <b_lp_Chiralities_Consistent>
1

> <s_lp_Variant>
AV-unprocessed.smi:153-13

> <Gold.Version>
5.8.1

> <Gold.Id.Protein>
6NUR|6NUR_protein|mol2

> <Gold.PLP.Fitness>
45.4992

> <Gold.PLP.PLP>
-46.1778

> <Gold.PLP.part.hbond>
-1.9536

> <Gold.PLP.part.metal>
0.0000

> <Gold.PLP.part.buried>
-5.3763

> <Gold.PLP.part.nonpolar>
-39.0562

> <Gold.PLP.part.repulsive>
0.1207

> <Gold.PLP.ligand.clash>
0.0000

> <Gold.PLP.ligand.torsion>
2.0955

> <Gold.PLP.Chemscore.Hbond>
0.9263

> <Gold.PLP.Chemscore.CHOScore>
0.0000

> <Gold.PLP.Chemscore.Metal>
0.0000

> <Gold.Chemscore.Hbonds>
donor molecule, donor type, donor heavy atom, donor atom, acceptor molecule, acceptor atom, score
      P1  H  6896  6908       L1    11  1.00

> <Gold.PLP.Chemscore.Internal.Correction>
0.7336

> <Gold.Rescore>
     Score         DG    S(hbond)    S(metal)    S(lipo)     H(rot)  DE(clash)    DE(int)     intcor
     10.19     -12.57       0.92        0.00     111.16       3.52       0.06       2.32       ----

> <Gold.Chemscore.Fitness>
10.1865

> <Gold.Chemscore.DG>
-12.5702

> <Gold.Chemscore.ZeroCoef>
-5.4800

> <Gold.Chemscore.Hbond>
0.9245

> <Gold.Chemscore.Metal>
0.0000

> <Gold.Chemscore.Lipo>
111.1615

> <Gold.Chemscore.Internal_Hbond>
0.0000

> <Gold.Chemscore.DEClash>
0.0588

> <Gold.Chemscore.DEInternal>
2.3249

> <Gold.Chemscore.Rot>
3.5170

> <Gold.Chemscore.Internal.Correction>
   9.000000E+99

> <Gold.Chemscore.Hbonds>
donor molecule, donor type, donor heavy atom, donor atom, acceptor molecule, acceptor atom, score
      P1  H  6896  6908       L1    11  0.93

> <Gold.Chemscore.Hbond.Weighted>
-3.0879

> <Gold.Chemscore.Metal.Weighted>
-0.0000

> <Gold.Chemscore.Lipo.Weighted>
-13.0059

> <Gold.Chemscore.Internal_Hbond.Weighted>
0.0000

> <Gold.Chemscore.DEClash.Weighted>
0.0588

> <Gold.Chemscore.DEInternal.Weighted>
2.3249

> <Gold.Chemscore.Rot.Weighted>
9.0036

> <Gold.Chemscore.Internal.Correction.Weighted>
   9.000000E+99

> <Gold.Protein.RotatedTorsions>
[ 6907 6896 6895 6894 ] final -103.71 input  -60.11 | X-H torsion
[ 7974 7965 7964 7962 ] final  101.93 input  175.53 | X-H torsion
[ 8008 7997 7996 7995 ] final  -24.19 input   59.86 | X-H torsion
[ 10167 10162 10161 10158 ] final   54.38 input  -65.29 | X-H torsion
[ 10718 10713 10712 10709 ] final  -73.60 input   66.30 | X-H torsion
[ 10763 10752 10751 10750 ] final   95.39 input  -60.55 | X-H torsion
[ 11005 11000 10999 10996 ] final  143.80 input  -57.11 | X-H torsion

> <Gold.Protein.ActiveResidues>
 VAL166  LYS551  ARG553  GLY616  TRP617  ASP618  TYR619  PRO620  LYS621  CYS622 
 ASP623  PHE694  ASN695  SER759  ASP760  ASP761  ALA762  ILE779  LEU786  VAL792 
 PHE793  MET794  SER795  GLU796  ALA797  LYS798  CYS799  TRP800  GLU811  SER814 

> <Gold.Protein.RotatedAtoms>
  150.7253  134.0387  159.3758 H   0  0  0  0  0  0  0  0  0  0  0  0  # atno 6907 bound_to 6896
  151.8360  135.0604  160.0452 H   0  0  0  0  0  0  0  0  0  0  0  0  # atno 6908 bound_to 6896
  152.2898  133.5514  159.5587 H   0  0  0  0  0  0  0  0  0  0  0  0  # atno 6909 bound_to 6896
  145.3658  139.2408  143.3482 H   0  0  0  0  0  0  0  0  0  0  0  0  # atno 7974 bound_to 7965
  154.4543  140.1960  156.0427 H   0  0  0  0  0  0  0  0  0  0  0  0  # atno 8008 bound_to 7997
  156.0713  140.3284  155.7551 H   0  0  0  0  0  0  0  0  0  0  0  0  # atno 8009 bound_to 7997
  155.5259  140.0574  157.2889 H   0  0  0  0  0  0  0  0  0  0  0  0  # atno 8010 bound_to 7997
  140.2308  144.3689  150.6415 H   0  0  0  0  0  0  0  0  0  0  0  0  # atno 10167 bound_to 10162
  156.0274  130.4398  150.2767 H   0  0  0  0  0  0  0  0  0  0  0  0  # atno 10718 bound_to 10713
  153.2526  135.4255  155.0813 H   0  0  0  0  0  0  0  0  0  0  0  0  # atno 10763 bound_to 10752
  154.8388  135.3429  154.6490 H   0  0  0  0  0  0  0  0  0  0  0  0  # atno 10764 bound_to 10752
  153.6911  135.7033  153.5146 H   0  0  0  0  0  0  0  0  0  0  0  0  # atno 10765 bound_to 10752
  140.0582  134.9219  157.1137 H   0  0  0  0  0  0  0  0  0  0  0  0  # atno 11005 bound_to 11000
  146.2907  140.4300  142.8740 LP  0  0  0  0  0  0  0  0  0  0  0  0  # atno 17320 bound_to 7965
  144.8613  140.7143  143.6106 LP  0  0  0  0  0  0  0  0  0  0  0  0  # atno 17321 bound_to 7965
  140.6187  143.2174  151.6739 LP  0  0  0  0  0  0  0  0  0  0  0  0  # atno 17342 bound_to 10162
  139.5111  144.3521  152.0642 LP  0  0  0  0  0  0  0  0  0  0  0  0  # atno 17343 bound_to 10162
  157.0870  131.0159  151.3136 LP  0  0  0  0  0  0  0  0  0  0  0  0  # atno 17370 bound_to 10713
  157.4883  130.7807  149.7482 LP  0  0  0  0  0  0  0  0  0  0  0  0  # atno 17371 bound_to 10713
  140.3811  134.2285  155.7171 LP  0  0  0  0  0  0  0  0  0  0  0  0  # atno 17394 bound_to 11000
  141.1961  133.8089  157.0685 LP  0  0  0  0  0  0  0  0  0  0  0  0  # atno 17395 bound_to 11000

$$$$
