AV-unprocessed.smi:1567|AV-procd|sdf|6308|dock7
  -GOLD-   22720 6513D 1   1.00000     0.00000
 Structure written by MMmdl.
 43 45  0  0  0  0  0  0  0  0  2 V2000
  149.5453  141.1057  153.4904 O   0  0  0  0  0  0  0  0  0  0  0  0
  148.6318  140.4159  154.3147 C   0  0  0  0  0  0  0  0  0  0  0  0
  149.1912  139.0252  154.6540 C   0  0  0  0  0  0  0  0  0  0  0  0
  148.2790  138.1989  155.5757 C   0  0  0  0  0  0  0  0  0  0  0  0
  148.6780  136.7578  155.6305 C   0  0  0  0  0  0  0  0  0  0  0  0
  149.0152  135.9862  154.5587 N   0  3  0  0  0  0  0  0  0  0  0  0
  149.3216  134.6932  154.9837 C   0  0  0  0  0  0  0  0  0  0  0  0
  149.7176  133.5689  154.2657 C   0  0  0  0  0  0  0  0  0  0  0  0
  149.9581  132.3952  155.0098 C   0  0  0  0  0  0  0  0  0  0  0  0
  149.8031  132.3699  156.4109 C   0  0  0  0  0  0  0  0  0  0  0  0
  149.3998  133.5159  157.1275 C   0  0  0  0  0  0  0  0  0  0  0  0
  149.1617  134.6725  156.3844 C   0  0  0  0  0  0  0  0  0  0  0  0
  148.7590  135.9663  156.7393 N   0  0  0  0  0  0  0  0  0  0  0  0
  148.4950  136.2818  158.1529 C   0  0  0  0  0  0  0  0  0  0  0  0
  147.1368  135.7419  158.6462 C   0  0  2  0  0  0  0  0  0  0  0  0
  146.0941  136.6326  158.3000 O   0  0  0  0  0  0  0  0  0  0  0  0
  147.1645  135.4382  160.1376 C   0  0  0  0  0  0  0  0  0  0  0  0
  147.3367  136.4933  161.0600 C   0  0  0  0  0  0  0  0  0  0  0  0
  147.3605  136.2335  162.4439 C   0  0  0  0  0  0  0  0  0  0  0  0
  147.5274  137.2518  163.3205 F   0  0  0  0  0  0  0  0  0  0  0  0
  147.2103  134.9160  162.9159 C   0  0  0  0  0  0  0  0  0  0  0  0
  147.0344  133.8590  162.0030 C   0  0  0  0  0  0  0  0  0  0  0  0
  147.0103  134.1162  160.6180 C   0  0  0  0  0  0  0  0  0  0  0  0
  146.8344  133.0861  159.7557 F   0  0  0  0  0  0  0  0  0  0  0  0
  150.4229  140.9140  153.7849 H   0  0  0  0  0  0  0  0  0  0  0  0
  148.4647  140.9958  155.2227 H   0  0  0  0  0  0  0  0  0  0  0  0
  147.6778  140.3407  153.7924 H   0  0  0  0  0  0  0  0  0  0  0  0
  149.3783  138.4695  153.7342 H   0  0  0  0  0  0  0  0  0  0  0  0
  150.1607  139.1432  155.1395 H   0  0  0  0  0  0  0  0  0  0  0  0
  148.3166  138.6056  156.5867 H   0  0  0  0  0  0  0  0  0  0  0  0
  147.2415  138.2828  155.2523 H   0  0  0  0  0  0  0  0  0  0  0  0
  149.8390  133.5866  153.1925 H   0  0  0  0  0  0  0  0  0  0  0  0
  150.2696  131.4971  154.4964 H   0  0  0  0  0  0  0  0  0  0  0  0
  149.9989  131.4534  156.9483 H   0  0  0  0  0  0  0  0  0  0  0  0
  149.2924  133.4857  158.2017 H   0  0  0  0  0  0  0  0  0  0  0  0
  149.3018  135.8412  158.7389 H   0  0  0  0  0  0  0  0  0  0  0  0
  148.5767  137.3584  158.3005 H   0  0  0  0  0  0  0  0  0  0  0  0
  146.9262  134.8129  158.1149 H   0  0  0  0  0  0  0  0  0  0  0  0
  146.4226  137.5167  158.3607 H   0  0  0  0  0  0  0  0  0  0  0  0
  147.4512  137.5090  160.7107 H   0  0  0  0  0  0  0  0  0  0  0  0
  147.2288  134.7164  163.9773 H   0  0  0  0  0  0  0  0  0  0  0  0
  146.9168  132.8484  162.3656 H   0  0  0  0  0  0  0  0  0  0  0  0
  149.0333  136.3230  153.6045 H   0  0  0  0  0  0  0  0  0  0  0  0
  1  2  1  0  0  0  0
  1 25  1  0  0  0  0
  2  3  1  0  0  0  0
  2 26  1  0  0  0  0
  2 27  1  0  0  0  0
  3  4  1  0  0  0  0
  3 28  1  0  0  0  0
  3 29  1  0  0  0  0
  4  5  1  0  0  0  0
  4 30  1  0  0  0  0
  4 31  1  0  0  0  0
  5 13  1  0  0  0  0
  5  6  2  0  0  0  0
  6  7  1  0  0  0  0
  6 43  1  0  0  0  0
  7 12  2  0  0  0  0
  7  8  1  0  0  0  0
  8  9  2  0  0  0  0
  8 32  1  0  0  0  0
  9 10  1  0  0  0  0
  9 33  1  0  0  0  0
 10 11  2  0  0  0  0
 10 34  1  0  0  0  0
 11 12  1  0  0  0  0
 11 35  1  0  0  0  0
 12 13  1  0  0  0  0
 13 14  1  0  0  0  0
 14 15  1  0  0  0  0
 14 36  1  0  0  0  0
 14 37  1  0  0  0  0
 15 16  1  0  0  0  0
 15 17  1  0  0  0  0
 15 38  1  0  0  0  0
 16 39  1  0  0  0  0
 17 23  1  0  0  0  0
 17 18  2  0  0  0  0
 18 19  1  0  0  0  0
 18 40  1  0  0  0  0
 19 20  1  0  0  0  0
 19 21  2  0  0  0  0
 21 22  1  0  0  0  0
 21 41  1  0  0  0  0
 22 23  2  0  0  0  0
 22 42  1  0  0  0  0
 23 24  1  0  0  0  0
M  CHG  1   6   1
M  END
> <s_m_source_file>
AV-unprocessed.smi

> <i_m_source_file_index>
1567

> <i_lp_mmshare_version>
43012

> <i_f3d_flags>
0

> <s_epik_input>
W09IXVtDSDJdW0NIMl1bQ0gyXWMobjEpbihjKGMxMilbY0hdW2NIXVtjSF1bY0hdMilbQ0gyXVtDQEhdKFtPSF0pYzNbY0hdYyhGKVtjSF1bY0hdYzNG

> <s_epik_cmdline>
J2VwaWtfcHl0aG9uJywgJy1waCcsICc3LjAnLCAnLXRuJywgJzgnLCAnLW1hJywgJzIwMCcsICctbWV0YWxfYmluZGluZycsICctaW1hZScsICc8aW5maWxlLm1hZT4nLCAnLW9tYWUnLCAnPG91dGZpbGUubWFlPic=

> <r_epik_Ionization_Penalty>
0.786443

> <r_epik_Ionization_Penalty_Charging>
0.786439

> <r_epik_Ionization_Penalty_Neutral>
3.69699e-06

> <r_epik_State_Penalty>
0.816472

> <r_epik_Charging_Adjusted_Penalty>
1.60291

> <i_epik_Tot_Q>
1

> <i_epik_Tot_abs_Q>
1

> <r_epik_Metal_State_Penalty>
4.73733

> <b_epik_Metal_Only>
0

> <s_lp_Force_Field>
OPLS_2005

> <r_lp_Energy>
17.4114

> <b_lp_Chiralities_Consistent>
1

> <s_lp_Variant>
AV-unprocessed.smi:1567-3

> <Gold.Version>
5.8.1

> <Gold.Id.Protein>
6NUR|6NUR_protein|mol2

> <Gold.PLP.Fitness>
47.9362

> <Gold.PLP.PLP>
-40.4666

> <Gold.PLP.part.hbond>
-4.0000

> <Gold.PLP.part.metal>
0.0000

> <Gold.PLP.part.buried>
-3.3201

> <Gold.PLP.part.nonpolar>
-33.2777

> <Gold.PLP.part.repulsive>
0.0059

> <Gold.PLP.ligand.clash>
0.0000

> <Gold.PLP.ligand.torsion>
0.7964

> <Gold.PLP.Chemscore.Hbond>
3.0000

> <Gold.PLP.Chemscore.CHOScore>
0.0000

> <Gold.PLP.Chemscore.Metal>
0.0000

> <Gold.Chemscore.Hbonds>
donor molecule, donor type, donor heavy atom, donor atom, acceptor molecule, acceptor atom, score
      L1  H     6    43       P1  7948  2.00
      P1  H  8011  8017       L1     1  1.00

> <Gold.PLP.Chemscore.Internal.Correction>
0.0624

> <Gold.Rescore>
     Score         DG    S(hbond)    S(metal)    S(lipo)     H(rot)  DE(clash)    DE(int)     intcor
     12.08     -13.97       1.84        0.00      92.54       3.31       1.27       0.61       ----

> <Gold.Chemscore.Fitness>
12.0801

> <Gold.Chemscore.DG>
-13.9666

> <Gold.Chemscore.ZeroCoef>
-5.4800

> <Gold.Chemscore.Hbond>
1.8382

> <Gold.Chemscore.Metal>
0.0000

> <Gold.Chemscore.Lipo>
92.5424

> <Gold.Chemscore.Internal_Hbond>
0.0000

> <Gold.Chemscore.DEClash>
1.2732

> <Gold.Chemscore.DEInternal>
0.6134

> <Gold.Chemscore.Rot>
3.3127

> <Gold.Chemscore.Internal.Correction>
   9.000000E+99

> <Gold.Chemscore.Hbonds>
donor molecule, donor type, donor heavy atom, donor atom, acceptor molecule, acceptor atom, score
      L1  H     6    43       P1  7948  0.98
      P1  H  8011  8017       L1     1  0.38

> <Gold.Chemscore.Hbond.Weighted>
-6.1396

> <Gold.Chemscore.Metal.Weighted>
-0.0000

> <Gold.Chemscore.Lipo.Weighted>
-10.8275

> <Gold.Chemscore.Internal_Hbond.Weighted>
0.0000

> <Gold.Chemscore.DEClash.Weighted>
1.2732

> <Gold.Chemscore.DEInternal.Weighted>
0.6134

> <Gold.Chemscore.Rot.Weighted>
8.4805

> <Gold.Chemscore.Internal.Correction.Weighted>
   9.000000E+99

> <Gold.Protein.RotatedTorsions>
[ 6907 6896 6895 6894 ] final   62.47 input  -60.11 | X-H torsion
[ 7974 7965 7964 7962 ] final   -6.02 input  175.53 | X-H torsion
[ 8008 7997 7996 7995 ] final  -83.93 input   59.86 | X-H torsion
[ 10167 10162 10161 10158 ] final -151.58 input  -65.29 | X-H torsion
[ 10718 10713 10712 10709 ] final   92.20 input   66.30 | X-H torsion
[ 10763 10752 10751 10750 ] final -150.77 input  -60.55 | X-H torsion
[ 11005 11000 10999 10996 ] final  147.25 input  -57.11 | X-H torsion

> <Gold.Protein.ActiveResidues>
 VAL166  LYS551  ARG553  GLY616  TRP617  ASP618  TYR619  PRO620  LYS621  CYS622 
 ASP623  PHE694  ASN695  SER759  ASP760  ASP761  ALA762  ILE779  LEU786  VAL792 
 PHE793  MET794  SER795  GLU796  ALA797  LYS798  CYS799  TRP800  GLU811  SER814 

> <Gold.Protein.RotatedAtoms>
  152.4175  134.6015  160.0001 H   0  0  0  0  0  0  0  0  0  0  0  0  # atno 6907 bound_to 6896
  151.6175  133.3336  159.3088 H   0  0  0  0  0  0  0  0  0  0  0  0  # atno 6908 bound_to 6896
  150.8063  134.7229  159.6713 H   0  0  0  0  0  0  0  0  0  0  0  0  # atno 6909 bound_to 6896
  146.2340  140.2108  142.8335 H   0  0  0  0  0  0  0  0  0  0  0  0  # atno 7974 bound_to 7965
  154.6244  140.0612  156.9655 H   0  0  0  0  0  0  0  0  0  0  0  0  # atno 8008 bound_to 7997
  155.1766  140.3295  155.4364 H   0  0  0  0  0  0  0  0  0  0  0  0  # atno 8009 bound_to 7997
  156.2449  140.1905  156.6865 H   0  0  0  0  0  0  0  0  0  0  0  0  # atno 8010 bound_to 7997
  139.7255  143.8890  152.2518 H   0  0  0  0  0  0  0  0  0  0  0  0  # atno 10167 bound_to 10162
  157.6959  131.0435  150.3846 H   0  0  0  0  0  0  0  0  0  0  0  0  # atno 10718 bound_to 10713
  154.8098  135.3276  154.7334 H   0  0  0  0  0  0  0  0  0  0  0  0  # atno 10763 bound_to 10752
  153.7985  135.6905  153.4864 H   0  0  0  0  0  0  0  0  0  0  0  0  # atno 10764 bound_to 10752
  153.1869  135.4565  155.0046 H   0  0  0  0  0  0  0  0  0  0  0  0  # atno 10765 bound_to 10752
  140.0860  134.9069  157.1576 H   0  0  0  0  0  0  0  0  0  0  0  0  # atno 11005 bound_to 11000
  144.9708  140.8367  143.5456 LP  0  0  0  0  0  0  0  0  0  0  0  0  # atno 17320 bound_to 7965
  145.2089  139.2214  143.5153 LP  0  0  0  0  0  0  0  0  0  0  0  0  # atno 17321 bound_to 7965
  139.8798  144.7023  150.8890 LP  0  0  0  0  0  0  0  0  0  0  0  0  # atno 17342 bound_to 10162
  140.7762  143.3670  151.1720 LP  0  0  0  0  0  0  0  0  0  0  0  0  # atno 17343 bound_to 10162
  156.4256  130.3961  149.6795 LP  0  0  0  0  0  0  0  0  0  0  0  0  # atno 17370 bound_to 10713
  156.4031  130.7684  151.2693 LP  0  0  0  0  0  0  0  0  0  0  0  0  # atno 17371 bound_to 10713
  140.3420  134.2694  155.7211 LP  0  0  0  0  0  0  0  0  0  0  0  0  # atno 17394 bound_to 11000
  141.2062  133.7838  157.0187 LP  0  0  0  0  0  0  0  0  0  0  0  0  # atno 17395 bound_to 11000

$$$$
