AV-unprocessed.smi:2279|AV-procd|sdf|9184|dock1
  -GOLD-   2272012403D 1   1.00000     0.00000
 Structure written by MMmdl.
 58 60  0  0  0  0  0  0  0  0  3 V2000
  154.6280  140.1097  160.6593 C   0  0  0  0  0  0  0  0  0  0  0  0
  153.5731  141.0735  160.1579 C   0  0  0  0  0  0  0  0  0  0  0  0
  153.2790  142.2547  160.8656 C   0  0  0  0  0  0  0  0  0  0  0  0
  152.2857  143.1092  160.3488 C   0  0  0  0  0  0  0  0  0  0  0  0
  151.9229  144.3986  161.0548 C   0  0  0  0  0  0  0  0  0  0  0  0
  151.6042  142.8450  159.2135 N   0  0  0  0  0  0  0  0  0  0  0  0
  151.8792  141.7105  158.5233 C   0  0  0  0  0  0  0  0  0  0  0  0
  151.2289  141.3498  157.3130 N   0  0  0  0  0  0  0  0  0  0  0  0
  149.9814  141.6615  156.9191 C   0  0  0  0  0  0  0  0  0  0  0  0
  149.1551  142.2772  157.5933 O   0  0  0  0  0  0  0  0  0  0  0  0
  149.7281  141.1993  155.6854 N   0  0  0  0  0  0  0  0  0  0  0  0
  148.4588  141.3511  154.9795 C   0  0  2  0  0  0  0  0  0  0  0  0
  147.2825  140.9289  155.8812 C   0  0  0  0  0  0  0  0  0  0  0  0
  145.9495  140.9375  155.1053 C   0  0  0  0  0  0  0  0  0  0  0  0
  146.0044  140.0877  153.8797 N   0  3  2  0  0  0  0  0  0  0  0  0
  145.9805  138.6058  154.1342 C   0  0  2  0  0  0  0  0  0  0  0  0
  147.2390  138.1017  154.8863 C   0  0  0  0  0  0  0  0  0  0  0  0
  147.2462  136.5741  155.0671 C   0  0  0  0  0  0  0  0  0  0  0  0
  147.1328  135.8797  153.7641 N   0  3  1  0  0  0  0  0  0  0  0  0
  147.2563  134.4116  153.8945 C   0  0  0  0  0  0  0  0  0  0  0  0
  145.9038  136.2830  153.0426 C   0  0  0  0  0  0  0  0  0  0  0  0
  145.8678  137.8038  152.8134 C   0  0  0  0  0  0  0  0  0  0  0  0
  147.0964  140.5790  152.9905 C   0  0  0  0  0  0  0  0  0  0  0  0
  148.4689  140.5171  153.6871 C   0  0  0  0  0  0  0  0  0  0  0  0
  152.8649  140.8018  158.9699 C   0  0  0  0  0  0  0  0  0  0  0  0
  155.1731  140.5256  161.5070 H   0  0  0  0  0  0  0  0  0  0  0  0
  155.3461  139.8876  159.8697 H   0  0  0  0  0  0  0  0  0  0  0  0
  154.1642  139.1753  160.9762 H   0  0  0  0  0  0  0  0  0  0  0  0
  153.8009  142.4996  161.7792 H   0  0  0  0  0  0  0  0  0  0  0  0
  152.6207  144.6155  161.8642 H   0  0  0  0  0  0  0  0  0  0  0  0
  150.9201  144.3288  161.4771 H   0  0  0  0  0  0  0  0  0  0  0  0
  151.9450  145.2351  160.3558 H   0  0  0  0  0  0  0  0  0  0  0  0
  151.7800  140.7970  156.6734 H   0  0  0  0  0  0  0  0  0  0  0  0
  150.4650  140.7065  155.2026 H   0  0  0  0  0  0  0  0  0  0  0  0
  148.3227  142.3971  154.6966 H   0  0  0  0  0  0  0  0  0  0  0  0
  147.4656  139.9393  156.3007 H   0  0  0  0  0  0  0  0  0  0  0  0
  147.2100  141.6060  156.7333 H   0  0  0  0  0  0  0  0  0  0  0  0
  145.1246  140.6650  155.7595 H   0  0  0  0  0  0  0  0  0  0  0  0
  145.7313  141.9608  154.7957 H   0  0  0  0  0  0  0  0  0  0  0  0
  145.1145  138.3708  154.7532 H   0  0  0  0  0  0  0  0  0  0  0  0
  148.1396  138.4099  154.3530 H   0  0  0  0  0  0  0  0  0  0  0  0
  147.2973  138.5370  155.8832 H   0  0  0  0  0  0  0  0  0  0  0  0
  148.1704  136.2717  155.5615 H   0  0  0  0  0  0  0  0  0  0  0  0
  146.4246  136.2691  155.7178 H   0  0  0  0  0  0  0  0  0  0  0  0
  146.4432  134.0014  154.4949 H   0  0  0  0  0  0  0  0  0  0  0  0
  148.2009  134.1453  154.3702 H   0  0  0  0  0  0  0  0  0  0  0  0
  147.2329  133.9340  152.9144 H   0  0  0  0  0  0  0  0  0  0  0  0
  145.8621  135.7699  152.0809 H   0  0  0  0  0  0  0  0  0  0  0  0
  145.0257  135.9670  153.6083 H   0  0  0  0  0  0  0  0  0  0  0  0
  144.9383  138.0265  152.2928 H   0  0  0  0  0  0  0  0  0  0  0  0
  146.6765  138.0888  152.1387 H   0  0  0  0  0  0  0  0  0  0  0  0
  147.1142  140.0619  152.0331 H   0  0  0  0  0  0  0  0  0  0  0  0
  146.8800  141.6167  152.7324 H   0  0  0  0  0  0  0  0  0  0  0  0
  149.2390  140.8930  153.0124 H   0  0  0  0  0  0  0  0  0  0  0  0
  148.7322  139.4813  153.9049 H   0  0  0  0  0  0  0  0  0  0  0  0
  153.0757  139.9018  158.4102 H   0  0  0  0  0  0  0  0  0  0  0  0
  145.1490  140.2783  153.3768 H   0  0  0  0  0  0  0  0  0  0  0  0
  147.9157  136.1820  153.2015 H   0  0  0  0  0  0  0  0  0  0  0  0
  1  2  1  0  0  0  0
  1 26  1  0  0  0  0
  1 27  1  0  0  0  0
  1 28  1  0  0  0  0
  2 25  1  0  0  0  0
  2  3  2  0  0  0  0
  3  4  1  0  0  0  0
  3 29  1  0  0  0  0
  4  5  1  0  0  0  0
  4  6  2  0  0  0  0
  5 30  1  0  0  0  0
  5 31  1  0  0  0  0
  5 32  1  0  0  0  0
  6  7  1  0  0  0  0
  7  8  1  0  0  0  0
  7 25  2  0  0  0  0
  8  9  1  0  0  0  0
  8 33  1  0  0  0  0
  9 10  2  0  0  0  0
  9 11  1  0  0  0  0
 11 12  1  0  0  0  0
 11 34  1  0  0  0  0
 12 24  1  0  0  0  0
 12 13  1  0  0  0  0
 12 35  1  0  0  0  0
 13 14  1  0  0  0  0
 13 36  1  0  0  0  0
 13 37  1  0  0  0  0
 14 15  1  0  0  0  0
 14 38  1  0  0  0  0
 14 39  1  0  0  0  0
 15 16  1  0  0  0  0
 15 23  1  0  0  0  0
 15 57  1  0  0  0  0
 16 22  1  0  0  0  0
 16 17  1  0  0  0  0
 16 40  1  0  0  0  0
 17 18  1  0  0  0  0
 17 41  1  0  0  0  0
 17 42  1  0  0  0  0
 18 19  1  0  0  0  0
 18 43  1  0  0  0  0
 18 44  1  0  0  0  0
 19 20  1  0  0  0  0
 19 21  1  0  0  0  0
 19 58  1  0  0  0  0
 20 45  1  0  0  0  0
 20 46  1  0  0  0  0
 20 47  1  0  0  0  0
 21 22  1  0  0  0  0
 21 48  1  0  0  0  0
 21 49  1  0  0  0  0
 22 50  1  0  0  0  0
 22 51  1  0  0  0  0
 23 24  1  0  0  0  0
 23 52  1  0  0  0  0
 23 53  1  0  0  0  0
 24 54  1  0  0  0  0
 24 55  1  0  0  0  0
 25 56  1  0  0  0  0
M  CHG  1  15   1
M  CHG  1  19   1
M  END
> <s_m_source_file>
AV-unprocessed.smi

> <i_m_source_file_index>
2279

> <i_lp_mmshare_version>
43012

> <i_f3d_flags>
0

> <s_epik_input>
W0NIM11jMVtjSF1jKFtDSDNdKW5jKFtjSF0xKVtOSF1DKD1PKVtOSF1bQ0hdMltDSDJdW0NIMl1OKFtDSDJdW0NIMl0yKVtDSF0zW0NIMl1bQ0gyXU4oW0NIM10pW0NIMl1bQ0gyXTM=

> <s_epik_cmdline>
J2VwaWtfcHl0aG9uJywgJy1waCcsICc3LjAnLCAnLXRuJywgJzgnLCAnLW1hJywgJzIwMCcsICctbWV0YWxfYmluZGluZycsICctaW1hZScsICc8aW5maWxlLm1hZT4nLCAnLW9tYWUnLCAnPG91dGZpbGUubWFlPic=

> <r_epik_Ionization_Penalty>
0.180973

> <r_epik_Ionization_Penalty_Charging>
0.180787

> <r_epik_Ionization_Penalty_Neutral>
0.000186186

> <r_epik_State_Penalty>
0.153592

> <r_epik_Charging_Adjusted_Penalty>
0.334379

> <i_epik_Tot_Q>
2

> <i_epik_Tot_abs_Q>
2

> <r_epik_Metal_State_Penalty>
0.153604

> <b_epik_Metal_Only>
0

> <s_lp_Force_Field>
OPLS_2005

> <r_lp_Energy>
44.6219

> <b_lp_Chiralities_Consistent>
1

> <s_lp_Variant>
AV-unprocessed.smi:2279-2

> <Gold.Version>
5.8.1

> <Gold.Id.Protein>
6NUR|6NUR_protein|mol2

> <Gold.PLP.Fitness>
47.8814

> <Gold.PLP.PLP>
-37.6697

> <Gold.PLP.part.hbond>
-2.0000

> <Gold.PLP.part.metal>
0.0000

> <Gold.PLP.part.buried>
-2.7048

> <Gold.PLP.part.nonpolar>
-33.7607

> <Gold.PLP.part.repulsive>
0.6210

> <Gold.PLP.ligand.clash>
1.2817

> <Gold.PLP.ligand.torsion>
0.2878

> <Gold.PLP.Chemscore.Hbond>
4.0000

> <Gold.PLP.Chemscore.CHOScore>
0.0000

> <Gold.PLP.Chemscore.Metal>
0.0000

> <Gold.Chemscore.Hbonds>
donor molecule, donor type, donor heavy atom, donor atom, acceptor molecule, acceptor atom, score
      L1  H    15    57       P1 10175  2.00
      L1  H    19    58       P1  7948  2.00

> <Gold.PLP.Chemscore.Internal.Correction>
0.0689

> <Gold.Rescore>
     Score         DG    S(hbond)    S(metal)    S(lipo)     H(rot)  DE(clash)    DE(int)     intcor
     15.34     -21.46       1.99        0.00     106.13       1.21       1.37       4.76       ----

> <Gold.Chemscore.Fitness>
15.3354

> <Gold.Chemscore.DG>
-21.4623

> <Gold.Chemscore.ZeroCoef>
-5.4800

> <Gold.Chemscore.Hbond>
1.9945

> <Gold.Chemscore.Metal>
0.0000

> <Gold.Chemscore.Lipo>
106.1293

> <Gold.Chemscore.Internal_Hbond>
0.0000

> <Gold.Chemscore.DEClash>
1.3666

> <Gold.Chemscore.DEInternal>
4.7603

> <Gold.Chemscore.Rot>
1.2095

> <Gold.Chemscore.Internal.Correction>
   9.000000E+99

> <Gold.Chemscore.Hbonds>
donor molecule, donor type, donor heavy atom, donor atom, acceptor molecule, acceptor atom, score
      L1  H    15    57       P1 10175  1.00
      L1  H    19    58       P1  7948  0.99

> <Gold.Chemscore.Hbond.Weighted>
-6.6615

> <Gold.Chemscore.Metal.Weighted>
-0.0000

> <Gold.Chemscore.Lipo.Weighted>
-12.4171

> <Gold.Chemscore.Internal_Hbond.Weighted>
0.0000

> <Gold.Chemscore.DEClash.Weighted>
1.3666

> <Gold.Chemscore.DEInternal.Weighted>
4.7603

> <Gold.Chemscore.Rot.Weighted>
3.0963

> <Gold.Chemscore.Internal.Correction.Weighted>
   9.000000E+99

> <Gold.Protein.RotatedTorsions>
[ 6907 6896 6895 6894 ] final   28.55 input  -60.11 | X-H torsion
[ 7974 7965 7964 7962 ] final   98.00 input  175.53 | X-H torsion
[ 8008 7997 7996 7995 ] final  153.66 input   59.86 | X-H torsion
[ 10167 10162 10161 10158 ] final -110.77 input  -65.29 | X-H torsion
[ 10718 10713 10712 10709 ] final  -59.96 input   66.30 | X-H torsion
[ 10763 10752 10751 10750 ] final  -99.31 input  -60.55 | X-H torsion
[ 11005 11000 10999 10996 ] final   12.90 input  -57.11 | X-H torsion

> <Gold.Protein.ActiveResidues>
 VAL166  LYS551  ARG553  GLY616  TRP617  ASP618  TYR619  PRO620  LYS621  CYS622 
 ASP623  PHE694  ASN695  SER759  ASP760  ASP761  ALA762  ILE779  LEU786  VAL792 
 PHE793  MET794  SER795  GLU796  ALA797  LYS798  CYS799  TRP800  GLU811  SER814 

> <Gold.Protein.RotatedAtoms>
  152.0186  134.9835  160.0569 H   0  0  0  0  0  0  0  0  0  0  0  0  # atno 6907 bound_to 6896
  152.1359  133.4430  159.4751 H   0  0  0  0  0  0  0  0  0  0  0  0  # atno 6908 bound_to 6896
  150.6860  134.2282  159.4467 H   0  0  0  0  0  0  0  0  0  0  0  0  # atno 6909 bound_to 6896
  145.4180  139.2325  143.3212 H   0  0  0  0  0  0  0  0  0  0  0  0  # atno 7974 bound_to 7965
  156.2570  140.1987  156.6525 H   0  0  0  0  0  0  0  0  0  0  0  0  # atno 8008 bound_to 7997
  154.6525  140.0570  156.9997 H   0  0  0  0  0  0  0  0  0  0  0  0  # atno 8009 bound_to 7997
  155.1396  140.3241  155.4458 H   0  0  0  0  0  0  0  0  0  0  0  0  # atno 8010 bound_to 7997
  140.1408  143.4281  152.1563 H   0  0  0  0  0  0  0  0  0  0  0  0  # atno 10167 bound_to 10162
  156.1024  130.4184  150.0788 H   0  0  0  0  0  0  0  0  0  0  0  0  # atno 10718 bound_to 10713
  154.7488  135.4977  153.9251 H   0  0  0  0  0  0  0  0  0  0  0  0  # atno 10763 bound_to 10752
  153.1120  135.6711  153.9491 H   0  0  0  0  0  0  0  0  0  0  0  0  # atno 10764 bound_to 10752
  153.9248  135.3084  155.3426 H   0  0  0  0  0  0  0  0  0  0  0  0  # atno 10765 bound_to 10752
  140.4868  134.0880  155.7762 H   0  0  0  0  0  0  0  0  0  0  0  0  # atno 11005 bound_to 11000
  146.2671  140.4900  142.8829 LP  0  0  0  0  0  0  0  0  0  0  0  0  # atno 17320 bound_to 7965
  144.8264  140.6636  143.6319 LP  0  0  0  0  0  0  0  0  0  0  0  0  # atno 17321 bound_to 7965
  139.5473  144.7309  151.4544 LP  0  0  0  0  0  0  0  0  0  0  0  0  # atno 17342 bound_to 10162
  140.6761  143.8186  150.7061 LP  0  0  0  0  0  0  0  0  0  0  0  0  # atno 17343 bound_to 10162
  156.8772  130.9544  151.3603 LP  0  0  0  0  0  0  0  0  0  0  0  0  # atno 17370 bound_to 10713
  157.6196  130.8645  149.9086 LP  0  0  0  0  0  0  0  0  0  0  0  0  # atno 17371 bound_to 10713
  141.1504  133.8979  157.2112 LP  0  0  0  0  0  0  0  0  0  0  0  0  # atno 17394 bound_to 11000
  139.9793  135.0103  156.9710 LP  0  0  0  0  0  0  0  0  0  0  0  0  # atno 17395 bound_to 11000

$$$$
