AV-unprocessed.smi:625|AV-procd|sdf|3105|dock4
  -GOLD-   22720 0 23D 1   1.00000     0.00000
 Structure written by MMmdl.
 49 51  0  0  0  0  0  0  0  0  1 V2000
  146.6102  133.9514  150.6271 C   0  0  0  0  0  0  0  0  0  0  0  0
  147.3544  133.7459  151.8598 N   0  0  0  0  0  0  0  0  0  0  0  0
  147.3290  132.6173  152.5905 C   0  0  0  0  0  0  0  0  0  0  0  0
  146.6410  131.6502  152.2618 O   0  0  0  0  0  0  0  0  0  0  0  0
  148.1919  132.6499  153.7747 C   0  0  0  0  0  0  0  0  0  0  0  0
  148.7435  131.4117  154.2890 C   0  0  0  0  0  0  0  0  0  0  0  0
  149.5762  131.4156  155.3488 C   0  0  0  0  0  0  0  0  0  0  0  0
  149.9585  132.6588  156.0259 C   0  0  0  0  0  0  0  0  0  0  0  0
  150.7399  132.6694  156.9769 O   0  0  0  0  0  0  0  0  0  0  0  0
  149.3935  133.8009  155.5303 N   0  0  0  0  0  0  0  0  0  0  0  0
  149.7153  135.1254  156.0848 C   0  0  0  0  0  0  0  0  0  0  0  0
  148.4607  135.7909  156.6595 C   0  0  0  0  0  0  0  0  0  0  0  0
  147.5446  136.1372  155.9136 O   0  0  0  0  0  0  0  0  0  0  0  0
  148.4310  135.9326  157.9935 N   0  0  0  0  0  0  0  0  0  0  0  0
  147.2778  136.3539  158.7861 C   0  0  2  0  0  0  0  0  0  0  0  0
  146.9480  137.8127  158.4300 C   0  0  0  0  0  0  0  0  0  0  0  0
  147.5968  136.1540  160.2903 C   0  0  2  0  0  0  0  0  0  0  0  0
  147.7470  134.6690  160.7146 C   0  0  0  0  0  0  0  0  0  0  0  0
  146.7828  134.5386  161.9049 C   0  0  1  0  0  0  0  0  0  0  0  0
  147.3304  135.3339  163.1034 C   0  0  0  0  0  0  0  0  0  0  0  0
  147.1014  136.7946  162.6715 C   0  0  0  0  0  0  0  0  0  0  0  0
  146.4944  136.6435  161.2628 C   0  0  2  0  0  0  0  0  0  0  0  0
  145.6194  135.4069  161.4455 C   0  0  0  0  0  0  0  0  0  0  0  0
  148.5253  133.7884  154.4197 C   0  0  0  0  0  0  0  0  0  0  0  0
  146.8198  134.9443  150.2293 H   0  0  0  0  0  0  0  0  0  0  0  0
  145.5367  133.8729  150.8038 H   0  0  0  0  0  0  0  0  0  0  0  0
  146.8953  133.2155  149.8741 H   0  0  0  0  0  0  0  0  0  0  0  0
  147.9408  134.5049  152.1752 H   0  0  0  0  0  0  0  0  0  0  0  0
  148.4938  130.4679  153.8256 H   0  0  0  0  0  0  0  0  0  0  0  0
  149.9746  130.4788  155.7098 H   0  0  0  0  0  0  0  0  0  0  0  0
  150.4739  135.0141  156.8618 H   0  0  0  0  0  0  0  0  0  0  0  0
  150.1570  135.7942  155.3446 H   0  0  0  0  0  0  0  0  0  0  0  0
  149.2455  135.6370  158.5118 H   0  0  0  0  0  0  0  0  0  0  0  0
  146.4085  135.7450  158.5333 H   0  0  0  0  0  0  0  0  0  0  0  0
  146.0486  138.1599  158.9373 H   0  0  0  0  0  0  0  0  0  0  0  0
  146.7724  137.9221  157.3592 H   0  0  0  0  0  0  0  0  0  0  0  0
  147.7642  138.4828  158.7019 H   0  0  0  0  0  0  0  0  0  0  0  0
  148.5276  136.6820  160.5042 H   0  0  0  0  0  0  0  0  0  0  0  0
  147.4346  133.9868  159.9229 H   0  0  0  0  0  0  0  0  0  0  0  0
  148.7736  134.4152  160.9801 H   0  0  0  0  0  0  0  0  0  0  0  0
  146.5225  133.5071  162.1444 H   0  0  0  0  0  0  0  0  0  0  0  0
  146.7677  135.1095  164.0106 H   0  0  0  0  0  0  0  0  0  0  0  0
  148.3814  135.1156  163.2971 H   0  0  0  0  0  0  0  0  0  0  0  0
  146.3963  137.2847  163.3443 H   0  0  0  0  0  0  0  0  0  0  0  0
  148.0219  137.3799  162.6721 H   0  0  0  0  0  0  0  0  0  0  0  0
  145.9597  137.5346  160.9362 H   0  0  0  0  0  0  0  0  0  0  0  0
  145.1564  135.0582  160.5209 H   0  0  0  0  0  0  0  0  0  0  0  0
  144.8465  135.5318  162.2060 H   0  0  0  0  0  0  0  0  0  0  0  0
  148.1819  134.7719  154.1312 H   0  0  0  0  0  0  0  0  0  0  0  0
  1  2  1  0  0  0  0
  1 25  1  0  0  0  0
  1 26  1  0  0  0  0
  1 27  1  0  0  0  0
  2  3  1  0  0  0  0
  2 28  1  0  0  0  0
  3  4  2  0  0  0  0
  3  5  1  0  0  0  0
  5 24  2  0  0  0  0
  5  6  1  0  0  0  0
  6  7  2  0  0  0  0
  6 29  1  0  0  0  0
  7  8  1  0  0  0  0
  7 30  1  0  0  0  0
  8  9  2  0  0  0  0
  8 10  1  0  0  0  0
 10 11  1  0  0  0  0
 10 24  1  0  0  0  0
 11 12  1  0  0  0  0
 11 31  1  0  0  0  0
 11 32  1  0  0  0  0
 12 13  2  0  0  0  0
 12 14  1  0  0  0  0
 14 15  1  0  0  0  0
 14 33  1  0  0  0  0
 15 16  1  0  0  0  0
 15 17  1  0  0  0  0
 15 34  1  0  0  0  0
 16 35  1  0  0  0  0
 16 36  1  0  0  0  0
 16 37  1  0  0  0  0
 17 22  1  0  0  0  0
 17 18  1  0  0  0  0
 17 38  1  0  0  0  0
 18 19  1  0  0  0  0
 18 39  1  0  0  0  0
 18 40  1  0  0  0  0
 19 23  1  0  0  0  0
 19 20  1  0  0  0  0
 19 41  1  0  0  0  0
 20 21  1  0  0  0  0
 20 42  1  0  0  0  0
 20 43  1  0  0  0  0
 21 22  1  0  0  0  0
 21 44  1  0  0  0  0
 21 45  1  0  0  0  0
 22 23  1  0  0  0  0
 22 46  1  0  0  0  0
 23 47  1  0  0  0  0
 23 48  1  0  0  0  0
 24 49  1  0  0  0  0
M  END
> <s_m_source_file>
AV-unprocessed.smi

> <i_m_source_file_index>
625

> <i_lp_mmshare_version>
43012

> <i_f3d_flags>
0

> <s_epik_input>
W0NIM11bTkhdQyg9TyljMVtjSF1bY0hdYyg9TyluKFtjSF0xKVtDSDJdQyg9TylbTkhdW0NASF0oW0NIM10pW0NASF0oW0NIMl1bQ0BIXTIzKVtDQEhdKFtDSDJdMylbQ0gyXVtDSDJdMg==

> <s_epik_cmdline>
J2VwaWtfcHl0aG9uJywgJy1waCcsICc3LjAnLCAnLXRuJywgJzgnLCAnLW1hJywgJzIwMCcsICctbWV0YWxfYmluZGluZycsICctaW1hZScsICc8aW5maWxlLm1hZT4nLCAnLW9tYWUnLCAnPG91dGZpbGUubWFlPic=

> <r_lp_tautomer_probability>
1

> <r_epik_Ionization_Penalty>
3.7129e-07

> <r_epik_Ionization_Penalty_Charging>
5.04114e-08

> <r_epik_Ionization_Penalty_Neutral>
3.20879e-07

> <r_epik_State_Penalty>
-0

> <r_epik_Charging_Adjusted_Penalty>
5.04114e-08

> <i_epik_Tot_Q>
0

> <i_epik_Tot_abs_Q>
0

> <r_epik_Metal_State_Penalty>
-0

> <b_epik_Metal_Only>
0

> <s_lp_Force_Field>
OPLS_2005

> <r_lp_Energy>
64.2087

> <b_lp_Chiralities_Consistent>
1

> <s_lp_Variant>
AV-unprocessed.smi:625-5

> <Gold.Version>
5.8.1

> <Gold.Id.Protein>
6NUR|6NUR_protein|mol2

> <Gold.PLP.Fitness>
42.1845

> <Gold.PLP.PLP>
-37.2476

> <Gold.PLP.part.hbond>
-2.0000

> <Gold.PLP.part.metal>
0.0000

> <Gold.PLP.part.buried>
-2.8594

> <Gold.PLP.part.nonpolar>
-31.3061

> <Gold.PLP.part.repulsive>
1.0053

> <Gold.PLP.ligand.clash>
0.0000

> <Gold.PLP.ligand.torsion>
0.4844

> <Gold.PLP.Chemscore.Hbond>
1.7238

> <Gold.PLP.Chemscore.CHOScore>
0.2155

> <Gold.PLP.Chemscore.Metal>
0.0000

> <Gold.Chemscore.Hbonds>
donor molecule, donor type, donor heavy atom, donor atom, acceptor molecule, acceptor atom, score
      L1  H     2    28       P1  7948  1.00
      P1  H  6896  6907       L1     9  0.10
      L1  C    24    49       P1  7948  0.34

> <Gold.PLP.Chemscore.Internal.Correction>
0.0876

> <Gold.Rescore>
     Score         DG    S(hbond)    S(metal)    S(lipo)     H(rot)  DE(clash)    DE(int)     intcor
     14.79     -16.57       1.50        0.00      88.60       1.67       0.04       1.74       ----

> <Gold.Chemscore.Fitness>
14.7920

> <Gold.Chemscore.DG>
-16.5720

> <Gold.Chemscore.ZeroCoef>
-5.4800

> <Gold.Chemscore.Hbond>
1.4979

> <Gold.Chemscore.Metal>
0.0000

> <Gold.Chemscore.Lipo>
88.6006

> <Gold.Chemscore.Internal_Hbond>
0.0000

> <Gold.Chemscore.DEClash>
0.0387

> <Gold.Chemscore.DEInternal>
1.7413

> <Gold.Chemscore.Rot>
1.6709

> <Gold.Chemscore.Internal.Correction>
   9.000000E+99

> <Gold.Chemscore.Hbonds>
donor molecule, donor type, donor heavy atom, donor atom, acceptor molecule, acceptor atom, score
      L1  H     2    28       P1  7948  0.28
      P1  H  6896  6907       L1     9  0.13

> <Gold.Chemscore.Hbond.Weighted>
-5.0031

> <Gold.Chemscore.Metal.Weighted>
-0.0000

> <Gold.Chemscore.Lipo.Weighted>
-10.3663

> <Gold.Chemscore.Internal_Hbond.Weighted>
0.0000

> <Gold.Chemscore.DEClash.Weighted>
0.0387

> <Gold.Chemscore.DEInternal.Weighted>
1.7413

> <Gold.Chemscore.Rot.Weighted>
4.2774

> <Gold.Chemscore.Internal.Correction.Weighted>
   9.000000E+99

> <Gold.Protein.RotatedTorsions>
[ 6907 6896 6895 6894 ] final -153.64 input  -60.11 | X-H torsion
[ 7974 7965 7964 7962 ] final  -44.98 input  175.53 | X-H torsion
[ 8008 7997 7996 7995 ] final  136.64 input   59.86 | X-H torsion
[ 10167 10162 10161 10158 ] final  -53.01 input  -65.29 | X-H torsion
[ 10718 10713 10712 10709 ] final  -89.39 input   66.30 | X-H torsion
[ 10763 10752 10751 10750 ] final   -4.26 input  -60.55 | X-H torsion
[ 11005 11000 10999 10996 ] final -149.28 input  -57.11 | X-H torsion

> <Gold.Protein.ActiveResidues>
 VAL166  LYS551  ARG553  GLY616  TRP617  ASP618  TYR619  PRO620  LYS621  CYS622 
 ASP623  PHE694  ASN695  SER759  ASP760  ASP761  ALA762  ILE779  LEU786  VAL792 
 PHE793  MET794  SER795  GLU796  ALA797  LYS798  CYS799  TRP800  GLU811  SER814 

> <Gold.Protein.RotatedAtoms>
  151.2455  133.4377  159.2608 H   0  0  0  0  0  0  0  0  0  0  0  0  # atno 6907 bound_to 6896
  151.0665  134.9771  159.8297 H   0  0  0  0  0  0  0  0  0  0  0  0  # atno 6908 bound_to 6896
  152.5406  134.2403  159.8912 H   0  0  0  0  0  0  0  0  0  0  0  0  # atno 6909 bound_to 6896
  145.9867  140.7226  142.9337 H   0  0  0  0  0  0  0  0  0  0  0  0  # atno 7974 bound_to 7965
  156.3004  140.2440  156.3779 H   0  0  0  0  0  0  0  0  0  0  0  0  # atno 8008 bound_to 7997
  154.8728  140.0415  157.1754 H   0  0  0  0  0  0  0  0  0  0  0  0  # atno 8009 bound_to 7997
  154.8777  140.2944  155.5447 H   0  0  0  0  0  0  0  0  0  0  0  0  # atno 8010 bound_to 7997
  140.6507  143.2564  151.4731 H   0  0  0  0  0  0  0  0  0  0  0  0  # atno 10167 bound_to 10162
  155.9984  130.4870  150.5164 H   0  0  0  0  0  0  0  0  0  0  0  0  # atno 10718 bound_to 10713
  153.3825  135.6999  153.6555 H   0  0  0  0  0  0  0  0  0  0  0  0  # atno 10763 bound_to 10752
  153.5161  135.3622  155.2610 H   0  0  0  0  0  0  0  0  0  0  0  0  # atno 10764 bound_to 10752
  154.8694  135.4146  154.3125 H   0  0  0  0  0  0  0  0  0  0  0  0  # atno 10765 bound_to 10752
  140.7524  134.3391  157.5122 H   0  0  0  0  0  0  0  0  0  0  0  0  # atno 11005 bound_to 11000
  144.6877  140.3000  143.7265 LP  0  0  0  0  0  0  0  0  0  0  0  0  # atno 17320 bound_to 7965
  145.7691  139.1851  143.2223 LP  0  0  0  0  0  0  0  0  0  0  0  0  # atno 17321 bound_to 7965
  139.5722  144.1902  152.1852 LP  0  0  0  0  0  0  0  0  0  0  0  0  # atno 17342 bound_to 10162
  140.1202  144.5380  150.6868 LP  0  0  0  0  0  0  0  0  0  0  0  0  # atno 17343 bound_to 10162
  157.3131  131.0667  151.1987 LP  0  0  0  0  0  0  0  0  0  0  0  0  # atno 17370 bound_to 10713
  157.2926  130.6803  149.6122 LP  0  0  0  0  0  0  0  0  0  0  0  0  # atno 17371 bound_to 10713
  139.8785  134.9150  156.3122 LP  0  0  0  0  0  0  0  0  0  0  0  0  # atno 17394 bound_to 11000
  140.9738  133.7310  156.0573 LP  0  0  0  0  0  0  0  0  0  0  0  0  # atno 17395 bound_to 11000

$$$$
