AV-unprocessed.smi:767|AV-procd|sdf|3660|dock10
  -GOLD-   22720 1 73D 1   1.00000     0.00000
 Structure written by MMmdl.
 47 49  0  0  0  0  0  0  0  0  1 V2000
  145.6274  136.1870  151.4547 C   0  0  0  0  0  0  0  0  0  0  0  0
  146.0275  137.1917  152.5147 C   0  0  0  0  0  0  0  0  0  0  0  0
  145.6480  137.0100  153.8612 C   0  0  0  0  0  0  0  0  0  0  0  0
  146.0437  137.9764  154.8055 C   0  0  0  0  0  0  0  0  0  0  0  0
  146.7984  139.0849  154.3691 C   0  0  0  0  0  0  0  0  0  0  0  0
  147.2211  140.1749  155.3388 C   0  0  0  0  0  0  0  0  0  0  0  0
  148.1074  141.2606  154.6981 C   0  0  0  0  0  0  0  0  0  0  0  0
  148.7410  142.1187  155.6965 N   0  0  0  0  0  0  0  0  0  0  0  0
  149.5011  141.6925  156.7156 C   0  0  0  0  0  0  0  0  0  0  0  0
  149.7364  140.5085  156.9568 O   0  0  0  0  0  0  0  0  0  0  0  0
  149.9884  142.7124  157.4336 N   0  0  0  0  0  0  0  0  0  0  0  0
  150.8919  142.5558  158.5683 C   0  0  1  0  0  0  0  0  0  0  0  0
  152.1237  141.7028  158.2282 C   0  0  2  0  0  0  0  0  0  0  0  0
  152.3169  140.3681  158.8946 C   0  0  0  0  0  0  0  0  0  0  0  0
  153.2248  140.7066  160.0805 C   0  0  0  0  0  0  0  0  0  0  0  0
  153.0396  142.1046  160.2920 O   0  0  0  0  0  0  0  0  0  0  0  0
  152.9356  142.7231  159.0118 C   0  0  2  0  0  0  0  0  0  0  0  0
  151.8154  143.7708  158.8381 C   0  0  0  0  0  0  0  0  0  0  0  0
  152.0480  144.7565  157.6839 C   0  0  0  0  0  0  0  0  0  0  0  0
  151.4834  144.6093  160.0734 C   0  0  0  0  0  0  0  0  0  0  0  0
  147.1298  139.1693  153.0003 C   0  0  0  0  0  0  0  0  0  0  0  0
  146.7578  138.2456  152.0883 N   0  0  0  0  0  0  0  0  0  0  0  0
  144.8222  135.5427  151.8089 H   0  0  0  0  0  0  0  0  0  0  0  0
  146.4782  135.5584  151.1912 H   0  0  0  0  0  0  0  0  0  0  0  0
  145.2812  136.6945  150.5536 H   0  0  0  0  0  0  0  0  0  0  0  0
  145.0648  136.1532  154.1650 H   0  0  0  0  0  0  0  0  0  0  0  0
  145.7613  137.8725  155.8427 H   0  0  0  0  0  0  0  0  0  0  0  0
  146.3300  140.6352  155.7678 H   0  0  0  0  0  0  0  0  0  0  0  0
  147.7535  139.7131  156.1711 H   0  0  0  0  0  0  0  0  0  0  0  0
  148.8942  140.7881  154.1100 H   0  0  0  0  0  0  0  0  0  0  0  0
  147.5223  141.8568  153.9956 H   0  0  0  0  0  0  0  0  0  0  0  0
  148.6111  143.1135  155.5865 H   0  0  0  0  0  0  0  0  0  0  0  0
  149.7442  143.6541  157.1642 H   0  0  0  0  0  0  0  0  0  0  0  0
  150.3964  142.2037  159.4764 H   0  0  0  0  0  0  0  0  0  0  0  0
  152.3711  141.7234  157.1651 H   0  0  0  0  0  0  0  0  0  0  0  0
  151.3644  139.9623  159.2370 H   0  0  0  0  0  0  0  0  0  0  0  0
  152.7774  139.6324  158.2347 H   0  0  0  0  0  0  0  0  0  0  0  0
  152.9820  140.1306  160.9736 H   0  0  0  0  0  0  0  0  0  0  0  0
  154.2700  140.5227  159.8277 H   0  0  0  0  0  0  0  0  0  0  0  0
  153.8997  142.9668  158.5625 H   0  0  0  0  0  0  0  0  0  0  0  0
  152.8736  145.4348  157.9009 H   0  0  0  0  0  0  0  0  0  0  0  0
  151.1660  145.3685  157.4915 H   0  0  0  0  0  0  0  0  0  0  0  0
  152.2949  144.2417  156.7550 H   0  0  0  0  0  0  0  0  0  0  0  0
  152.3111  145.2640  160.3466 H   0  0  0  0  0  0  0  0  0  0  0  0
  151.2679  143.9828  160.9391 H   0  0  0  0  0  0  0  0  0  0  0  0
  150.6058  145.2348  159.9073 H   0  0  0  0  0  0  0  0  0  0  0  0
  147.7007  140.0055  152.6244 H   0  0  0  0  0  0  0  0  0  0  0  0
  1  2  1  0  0  0  0
  1 23  1  0  0  0  0
  1 24  1  0  0  0  0
  1 25  1  0  0  0  0
  2 22  1  0  0  0  0
  2  3  2  0  0  0  0
  3  4  1  0  0  0  0
  3 26  1  0  0  0  0
  4  5  2  0  0  0  0
  4 27  1  0  0  0  0
  5  6  1  0  0  0  0
  5 21  1  0  0  0  0
  6  7  1  0  0  0  0
  6 28  1  0  0  0  0
  6 29  1  0  0  0  0
  7  8  1  0  0  0  0
  7 30  1  0  0  0  0
  7 31  1  0  0  0  0
  8  9  1  0  0  0  0
  8 32  1  0  0  0  0
  9 10  2  0  0  0  0
  9 11  1  0  0  0  0
 11 12  1  0  0  0  0
 11 33  1  0  0  0  0
 12 18  1  0  0  0  0
 12 13  1  0  0  0  0
 12 34  1  0  0  0  0
 13 17  1  0  0  0  0
 13 14  1  0  0  0  0
 13 35  1  0  0  0  0
 14 15  1  0  0  0  0
 14 36  1  0  0  0  0
 14 37  1  0  0  0  0
 15 16  1  0  0  0  0
 15 38  1  0  0  0  0
 15 39  1  0  0  0  0
 16 17  1  0  0  0  0
 17 18  1  0  0  0  0
 17 40  1  0  0  0  0
 18 19  1  0  0  0  0
 18 20  1  0  0  0  0
 19 41  1  0  0  0  0
 19 42  1  0  0  0  0
 19 43  1  0  0  0  0
 20 44  1  0  0  0  0
 20 45  1  0  0  0  0
 20 46  1  0  0  0  0
 21 22  2  0  0  0  0
 21 47  1  0  0  0  0
M  END
> <s_m_source_file>
AV-unprocessed.smi

> <i_m_source_file_index>
767

> <i_lp_mmshare_version>
43012

> <i_f3d_flags>
0

> <s_epik_input>
W0NIM11jMVtjSF1bY0hdYyhbY0hdbjEpW0NIMl1bQ0gyXVtOSF1DKD1PKVtOSF1bQ0BIXTJDKFtDSDNdKShbQ0gzXSlbQ0BIXShbQ0BASF0yMylPW0NIMl1bQ0gyXTM=

> <s_epik_cmdline>
J2VwaWtfcHl0aG9uJywgJy1waCcsICc3LjAnLCAnLXRuJywgJzgnLCAnLW1hJywgJzIwMCcsICctbWV0YWxfYmluZGluZycsICctaW1hZScsICc8aW5maWxlLm1hZT4nLCAnLW9tYWUnLCAnPG91dGZpbGUubWFlPic=

> <r_epik_Ionization_Penalty>
0.0567523

> <r_epik_Ionization_Penalty_Charging>
0

> <r_epik_Ionization_Penalty_Neutral>
0.0567523

> <r_epik_State_Penalty>
0.0489186

> <r_epik_Charging_Adjusted_Penalty>
0.0489186

> <i_epik_Tot_Q>
0

> <i_epik_Tot_abs_Q>
0

> <r_epik_Metal_State_Penalty>
0.044622

> <b_epik_Metal_Only>
0

> <s_lp_Force_Field>
OPLS_2005

> <r_lp_Energy>
33.1778

> <b_lp_Chiralities_Consistent>
1

> <s_lp_Variant>
AV-unprocessed.smi:767-4

> <Gold.Version>
5.8.1

> <Gold.Id.Protein>
6NUR|6NUR_protein|mol2

> <Gold.PLP.Fitness>
46.5505

> <Gold.PLP.PLP>
-38.3893

> <Gold.PLP.part.hbond>
-1.9716

> <Gold.PLP.part.metal>
0.0000

> <Gold.PLP.part.buried>
-5.9864

> <Gold.PLP.part.nonpolar>
-31.2392

> <Gold.PLP.part.repulsive>
0.7353

> <Gold.PLP.ligand.clash>
0.0000

> <Gold.PLP.ligand.torsion>
0.2799

> <Gold.PLP.Chemscore.Hbond>
1.8480

> <Gold.PLP.Chemscore.CHOScore>
1.0000

> <Gold.PLP.Chemscore.Metal>
0.0000

> <Gold.Chemscore.Hbonds>
donor molecule, donor type, donor heavy atom, donor atom, acceptor molecule, acceptor atom, score
      L1  H     8    32       P1  8028  1.00
      L1  H    11    33       P1  8028  0.86
      L1  C    21    47       P1  7957  1.00

> <Gold.PLP.Chemscore.Internal.Correction>
0.1771

> <Gold.Rescore>
     Score         DG    S(hbond)    S(metal)    S(lipo)     H(rot)  DE(clash)    DE(int)     intcor
     19.31     -20.83       1.80        0.00     111.60       1.45       0.35       1.17       ----

> <Gold.Chemscore.Fitness>
19.3073

> <Gold.Chemscore.DG>
-20.8257

> <Gold.Chemscore.ZeroCoef>
-5.4800

> <Gold.Chemscore.Hbond>
1.7964

> <Gold.Chemscore.Metal>
0.0000

> <Gold.Chemscore.Lipo>
111.5971

> <Gold.Chemscore.Internal_Hbond>
0.0000

> <Gold.Chemscore.DEClash>
0.3526

> <Gold.Chemscore.DEInternal>
1.1657

> <Gold.Chemscore.Rot>
1.4497

> <Gold.Chemscore.Internal.Correction>
   9.000000E+99

> <Gold.Chemscore.Hbonds>
donor molecule, donor type, donor heavy atom, donor atom, acceptor molecule, acceptor atom, score
      L1  H     8    32       P1  8028  0.99
      L1  H    11    33       P1  8028  0.73

> <Gold.Chemscore.Hbond.Weighted>
-6.0000

> <Gold.Chemscore.Metal.Weighted>
-0.0000

> <Gold.Chemscore.Lipo.Weighted>
-13.0569

> <Gold.Chemscore.Internal_Hbond.Weighted>
0.0000

> <Gold.Chemscore.DEClash.Weighted>
0.3526

> <Gold.Chemscore.DEInternal.Weighted>
1.1657

> <Gold.Chemscore.Rot.Weighted>
3.7112

> <Gold.Chemscore.Internal.Correction.Weighted>
   9.000000E+99

> <Gold.Protein.RotatedTorsions>
[ 6907 6896 6895 6894 ] final  -52.60 input  -60.11 | X-H torsion
[ 7974 7965 7964 7962 ] final  121.42 input  175.53 | X-H torsion
[ 8008 7997 7996 7995 ] final  175.48 input   59.86 | X-H torsion
[ 10167 10162 10161 10158 ] final -168.66 input  -65.29 | X-H torsion
[ 10718 10713 10712 10709 ] final    5.27 input   66.30 | X-H torsion
[ 10763 10752 10751 10750 ] final   85.42 input  -60.55 | X-H torsion
[ 11005 11000 10999 10996 ] final -146.72 input  -57.11 | X-H torsion

> <Gold.Protein.ActiveResidues>
 VAL166  LYS551  ARG553  GLY616  TRP617  ASP618  TYR619  PRO620  LYS621  CYS622 
 ASP623  PHE694  ASN695  SER759  ASP760  ASP761  ALA762  ILE779  LEU786  VAL792 
 PHE793  MET794  SER795  GLU796  ALA797  LYS798  CYS799  TRP800  GLU811  SER814 

> <Gold.Protein.RotatedAtoms>
  150.8503  134.7825  159.7002 H   0  0  0  0  0  0  0  0  0  0  0  0  # atno 6907 bound_to 6896
  152.4569  134.5268  159.9809 H   0  0  0  0  0  0  0  0  0  0  0  0  # atno 6908 bound_to 6896
  151.5391  133.3398  159.2968 H   0  0  0  0  0  0  0  0  0  0  0  0  # atno 6909 bound_to 6896
  145.1195  139.3399  143.4722 H   0  0  0  0  0  0  0  0  0  0  0  0  # atno 7974 bound_to 7965
  156.0866  140.1408  156.9645 H   0  0  0  0  0  0  0  0  0  0  0  0  # atno 8008 bound_to 7997
  154.4616  140.0941  156.6958 H   0  0  0  0  0  0  0  0  0  0  0  0  # atno 8009 bound_to 7997
  155.4988  140.3450  155.4370 H   0  0  0  0  0  0  0  0  0  0  0  0  # atno 8010 bound_to 7997
  139.5971  144.1088  152.1702 H   0  0  0  0  0  0  0  0  0  0  0  0  # atno 10167 bound_to 10162
  156.9050  130.5735  149.5647 H   0  0  0  0  0  0  0  0  0  0  0  0  # atno 10718 bound_to 10713
  153.1474  135.4618  154.9586 H   0  0  0  0  0  0  0  0  0  0  0  0  # atno 10763 bound_to 10752
  154.7797  135.3184  154.8019 H   0  0  0  0  0  0  0  0  0  0  0  0  # atno 10764 bound_to 10752
  153.8530  135.6919  153.4844 H   0  0  0  0  0  0  0  0  0  0  0  0  # atno 10765 bound_to 10752
  140.7791  134.3100  157.5051 H   0  0  0  0  0  0  0  0  0  0  0  0  # atno 11005 bound_to 11000
  146.3522  140.1148  142.8602 LP  0  0  0  0  0  0  0  0  0  0  0  0  # atno 17320 bound_to 7965
  145.0756  140.9186  143.4856 LP  0  0  0  0  0  0  0  0  0  0  0  0  # atno 17321 bound_to 7965
  140.0676  144.5806  150.7216 LP  0  0  0  0  0  0  0  0  0  0  0  0  # atno 17342 bound_to 10162
  140.7221  143.2599  151.4244 LP  0  0  0  0  0  0  0  0  0  0  0  0  # atno 17343 bound_to 10162
  156.0563  130.5624  150.9099 LP  0  0  0  0  0  0  0  0  0  0  0  0  # atno 17370 bound_to 10713
  157.6003  131.0941  150.8971 LP  0  0  0  0  0  0  0  0  0  0  0  0  # atno 17371 bound_to 10713
  139.8745  134.9307  156.3510 LP  0  0  0  0  0  0  0  0  0  0  0  0  # atno 17394 bound_to 11000
  140.9500  133.7457  156.0259 LP  0  0  0  0  0  0  0  0  0  0  0  0  # atno 17395 bound_to 11000

$$$$
