AV-unprocessed.smi:3323|AV-procd|sdf|12780|dock9
  -GOLD-   2272019123D 1   1.00000     0.00000
 Structure written by MMmdl.
 37 38  0  0  0  0  0  0  0  0  1 V2000
  146.2470  138.1019  151.9661 C   0  0  0  0  0  0  0  0  0  0  0  0
  146.8544  138.9810  153.0647 C   0  0  1  0  0  0  0  0  0  0  0  0
  146.9477  140.4591  152.6377 C   0  0  0  0  0  0  0  0  0  0  0  0
  147.4937  141.3455  153.7752 C   0  0  2  0  0  0  0  0  0  0  0  0
  149.0083  141.1795  154.0432 C   0  0  0  0  0  0  0  0  0  0  0  0
  149.4915  142.0852  155.0819 N   0  0  0  0  0  0  0  0  0  0  0  0
  150.4275  141.7942  155.9972 C   0  0  0  0  0  0  0  0  0  0  0  0
  151.0082  140.7106  156.0563 O   0  0  0  0  0  0  0  0  0  0  0  0
  150.6543  142.8424  156.8073 N   0  0  0  0  0  0  0  0  0  0  0  0
  151.5584  142.9388  157.8996 C   0  0  0  0  0  0  0  0  0  0  0  0
  152.2212  141.8340  158.4876 C   0  0  0  0  0  0  0  0  0  0  0  0
  153.0804  142.0600  159.5803 C   0  0  0  0  0  0  0  0  0  0  0  0
  153.2402  143.3783  160.0496 C   0  0  0  0  0  0  0  0  0  0  0  0
  152.6047  144.4384  159.5077 N   0  0  0  0  0  0  0  0  0  0  0  0
  151.7819  144.2141  158.4612 C   0  0  0  0  0  0  0  0  0  0  0  0
  146.6527  141.0829  155.0369 C   0  0  0  0  0  0  0  0  0  0  0  0
  146.5492  139.5788  155.3481 C   0  0  0  0  0  0  0  0  0  0  0  0
  146.0298  138.8796  154.2220 O   0  0  0  0  0  0  0  0  0  0  0  0
  146.8518  138.1353  151.0595 H   0  0  0  0  0  0  0  0  0  0  0  0
  145.2390  138.4286  151.7091 H   0  0  0  0  0  0  0  0  0  0  0  0
  146.1883  137.0619  152.2881 H   0  0  0  0  0  0  0  0  0  0  0  0
  147.8475  138.5949  153.2981 H   0  0  0  0  0  0  0  0  0  0  0  0
  147.5502  140.5597  151.7355 H   0  0  0  0  0  0  0  0  0  0  0  0
  145.9509  140.8101  152.3671 H   0  0  0  0  0  0  0  0  0  0  0  0
  147.3380  142.3864  153.4882 H   0  0  0  0  0  0  0  0  0  0  0  0
  149.2039  140.1641  154.3885 H   0  0  0  0  0  0  0  0  0  0  0  0
  149.5876  141.2951  153.1267 H   0  0  0  0  0  0  0  0  0  0  0  0
  149.0769  143.0055  155.1058 H   0  0  0  0  0  0  0  0  0  0  0  0
  150.1593  143.6926  156.5809 H   0  0  0  0  0  0  0  0  0  0  0  0
  152.0791  140.8240  158.1362 H   0  0  0  0  0  0  0  0  0  0  0  0
  153.6019  141.2397  160.0511 H   0  0  0  0  0  0  0  0  0  0  0  0
  153.8908  143.5856  160.8863 H   0  0  0  0  0  0  0  0  0  0  0  0
  151.2888  145.0855  158.0552 H   0  0  0  0  0  0  0  0  0  0  0  0
  147.0643  141.6193  155.8926 H   0  0  0  0  0  0  0  0  0  0  0  0
  145.6476  141.4784  154.8851 H   0  0  0  0  0  0  0  0  0  0  0  0
  147.5176  139.1650  155.6316 H   0  0  0  0  0  0  0  0  0  0  0  0
  145.8815  139.4203  156.1950 H   0  0  0  0  0  0  0  0  0  0  0  0
  1  2  1  0  0  0  0
  1 19  1  0  0  0  0
  1 20  1  0  0  0  0
  1 21  1  0  0  0  0
  2 18  1  0  0  0  0
  2  3  1  0  0  0  0
  2 22  1  0  0  0  0
  3  4  1  0  0  0  0
  3 23  1  0  0  0  0
  3 24  1  0  0  0  0
  4  5  1  0  0  0  0
  4 16  1  0  0  0  0
  4 25  1  0  0  0  0
  5  6  1  0  0  0  0
  5 26  1  0  0  0  0
  5 27  1  0  0  0  0
  6  7  1  0  0  0  0
  6 28  1  0  0  0  0
  7  8  2  0  0  0  0
  7  9  1  0  0  0  0
  9 10  1  0  0  0  0
  9 29  1  0  0  0  0
 10 15  1  0  0  0  0
 10 11  2  0  0  0  0
 11 12  1  0  0  0  0
 11 30  1  0  0  0  0
 12 13  2  0  0  0  0
 12 31  1  0  0  0  0
 13 14  1  0  0  0  0
 13 32  1  0  0  0  0
 14 15  2  0  0  0  0
 15 33  1  0  0  0  0
 16 17  1  0  0  0  0
 16 34  1  0  0  0  0
 16 35  1  0  0  0  0
 17 18  1  0  0  0  0
 17 36  1  0  0  0  0
 17 37  1  0  0  0  0
M  END
> <s_m_source_file>
AV-unprocessed.smi

> <i_m_source_file_index>
3323

> <i_lp_mmshare_version>
43012

> <i_f3d_flags>
0

> <s_epik_input>
W0NIM11bQ0BASF0xW0NIMl1bQ0BIXShbQ0gyXVtDSDJdTzEpW0NIMl1bTkhdQyg9TylbTkhdYzJbY0hdW2NIXVtjSF1uW2NIXTI=

> <s_epik_cmdline>
J2VwaWtfcHl0aG9uJywgJy1waCcsICc3LjAnLCAnLXRuJywgJzgnLCAnLW1hJywgJzIwMCcsICctbWV0YWxfYmluZGluZycsICctaW1hZScsICc8aW5maWxlLm1hZT4nLCAnLW9tYWUnLCAnPG91dGZpbGUubWFlPic=

> <r_epik_Ionization_Penalty>
0.00485293

> <r_epik_Ionization_Penalty_Charging>
0

> <r_epik_Ionization_Penalty_Neutral>
0.00485293

> <r_epik_State_Penalty>
0.00349083

> <r_epik_Charging_Adjusted_Penalty>
0.00349083

> <i_epik_Tot_Q>
0

> <i_epik_Tot_abs_Q>
0

> <r_epik_Metal_State_Penalty>
-0

> <b_epik_Metal_Only>
0

> <s_lp_Force_Field>
OPLS_2005

> <r_lp_Energy>
13.6237

> <b_lp_Chiralities_Consistent>
1

> <s_lp_Variant>
AV-unprocessed.smi:3323-4

> <Gold.Version>
5.8.1

> <Gold.Id.Protein>
6NUR|6NUR_protein|mol2

> <Gold.PLP.Fitness>
42.2818

> <Gold.PLP.PLP>
-36.6716

> <Gold.PLP.part.hbond>
-2.0000

> <Gold.PLP.part.metal>
0.0000

> <Gold.PLP.part.buried>
-2.3118

> <Gold.PLP.part.nonpolar>
-32.5314

> <Gold.PLP.part.repulsive>
0.3914

> <Gold.PLP.ligand.clash>
0.0000

> <Gold.PLP.ligand.torsion>
0.1973

> <Gold.PLP.Chemscore.Hbond>
2.0000

> <Gold.PLP.Chemscore.CHOScore>
0.0000

> <Gold.PLP.Chemscore.Metal>
0.0000

> <Gold.Chemscore.Hbonds>
donor molecule, donor type, donor heavy atom, donor atom, acceptor molecule, acceptor atom, score
      L1  H     6    28       P1  8028  1.00
      L1  H     9    29       P1  8028  1.00

> <Gold.PLP.Chemscore.Internal.Correction>
0.0048

> <Gold.Rescore>
     Score         DG    S(hbond)    S(metal)    S(lipo)     H(rot)  DE(clash)    DE(int)     intcor
     19.13     -20.69       1.95        0.00     101.34       1.23       0.17       1.39       ----

> <Gold.Chemscore.Fitness>
19.1276

> <Gold.Chemscore.DG>
-20.6919

> <Gold.Chemscore.ZeroCoef>
-5.4800

> <Gold.Chemscore.Hbond>
1.9452

> <Gold.Chemscore.Metal>
0.0000

> <Gold.Chemscore.Lipo>
101.3409

> <Gold.Chemscore.Internal_Hbond>
0.0000

> <Gold.Chemscore.DEClash>
0.1694

> <Gold.Chemscore.DEInternal>
1.3949

> <Gold.Chemscore.Rot>
1.2273

> <Gold.Chemscore.Internal.Correction>
   9.000000E+99

> <Gold.Chemscore.Hbonds>
donor molecule, donor type, donor heavy atom, donor atom, acceptor molecule, acceptor atom, score
      L1  H     6    28       P1  8028  0.99
      L1  H     9    29       P1  8028  0.98

> <Gold.Chemscore.Hbond.Weighted>
-6.4969

> <Gold.Chemscore.Metal.Weighted>
-0.0000

> <Gold.Chemscore.Lipo.Weighted>
-11.8569

> <Gold.Chemscore.Internal_Hbond.Weighted>
0.0000

> <Gold.Chemscore.DEClash.Weighted>
0.1694

> <Gold.Chemscore.DEInternal.Weighted>
1.3949

> <Gold.Chemscore.Rot.Weighted>
3.1418

> <Gold.Chemscore.Internal.Correction.Weighted>
   9.000000E+99

> <Gold.Protein.RotatedTorsions>
[ 6907 6896 6895 6894 ] final  -58.70 input  -60.11 | X-H torsion
[ 7974 7965 7964 7962 ] final  148.18 input  175.53 | X-H torsion
[ 8008 7997 7996 7995 ] final   97.14 input   59.86 | X-H torsion
[ 10167 10162 10161 10158 ] final  128.53 input  -65.29 | X-H torsion
[ 10718 10713 10712 10709 ] final  -26.66 input   66.30 | X-H torsion
[ 10763 10752 10751 10750 ] final  -19.82 input  -60.55 | X-H torsion
[ 11005 11000 10999 10996 ] final  138.42 input  -57.11 | X-H torsion

> <Gold.Protein.ActiveResidues>
 VAL166  LYS551  ARG553  GLY616  TRP617  ASP618  TYR619  PRO620  LYS621  CYS622 
 ASP623  PHE694  ASN695  SER759  ASP760  ASP761  ALA762  ILE779  LEU786  VAL792 
 PHE793  MET794  SER795  GLU796  ALA797  LYS798  CYS799  TRP800  GLU811  SER814 

> <Gold.Protein.RotatedAtoms>
  150.7987  134.7065  159.6579 H   0  0  0  0  0  0  0  0  0  0  0  0  # atno 6907 bound_to 6896
  152.4102  134.6134  160.0041 H   0  0  0  0  0  0  0  0  0  0  0  0  # atno 6908 bound_to 6896
  151.6380  133.3291  159.3160 H   0  0  0  0  0  0  0  0  0  0  0  0  # atno 6909 bound_to 6896
  144.8534  139.6121  143.5963 H   0  0  0  0  0  0  0  0  0  0  0  0  # atno 7974 bound_to 7965
  156.0870  140.3262  155.7767 H   0  0  0  0  0  0  0  0  0  0  0  0  # atno 8008 bound_to 7997
  155.5059  140.0573  157.2949 H   0  0  0  0  0  0  0  0  0  0  0  0  # atno 8009 bound_to 7997
  154.4615  140.1969  156.0248 H   0  0  0  0  0  0  0  0  0  0  0  0  # atno 8010 bound_to 7997
  139.5523  144.6822  151.4287 H   0  0  0  0  0  0  0  0  0  0  0  0  # atno 10167 bound_to 10162
  156.4482  130.4478  149.7007 H   0  0  0  0  0  0  0  0  0  0  0  0  # atno 10718 bound_to 10713
  153.6108  135.6996  153.5347 H   0  0  0  0  0  0  0  0  0  0  0  0  # atno 10763 bound_to 10752
  153.3018  135.4126  155.1259 H   0  0  0  0  0  0  0  0  0  0  0  0  # atno 10764 bound_to 10752
  154.8564  135.3650  154.5646 H   0  0  0  0  0  0  0  0  0  0  0  0  # atno 10765 bound_to 10752
  140.0182  134.9408  157.0420 H   0  0  0  0  0  0  0  0  0  0  0  0  # atno 11005 bound_to 11000
  146.2803  139.6860  142.9233 LP  0  0  0  0  0  0  0  0  0  0  0  0  # atno 17320 bound_to 7965
  145.4454  141.0425  143.2834 LP  0  0  0  0  0  0  0  0  0  0  0  0  # atno 17321 bound_to 7965
  140.6788  143.8129  150.7093 LP  0  0  0  0  0  0  0  0  0  0  0  0  # atno 17342 bound_to 10162
  140.1576  143.4303  152.2089 LP  0  0  0  0  0  0  0  0  0  0  0  0  # atno 17343 bound_to 10162
  156.3844  130.7595  151.2591 LP  0  0  0  0  0  0  0  0  0  0  0  0  # atno 17370 bound_to 10713
  157.7504  131.0286  150.4057 LP  0  0  0  0  0  0  0  0  0  0  0  0  # atno 17371 bound_to 10713
  140.4433  134.1658  155.7175 LP  0  0  0  0  0  0  0  0  0  0  0  0  # atno 17394 bound_to 11000
  141.1757  133.8519  157.1429 LP  0  0  0  0  0  0  0  0  0  0  0  0  # atno 17395 bound_to 11000

$$$$
