AV-unprocessed.smi:1295|AV-procd|sdf|5406|dock4
  -GOLD-   22720 4563D 1   1.00000     0.00000
 Structure written by MMmdl.
 43 44  0  0  0  0  0  0  0  0  1 V2000
  151.3796  134.4932  156.1070 C   0  0  0  0  0  0  0  0  0  0  0  0
  151.0225  135.8586  156.6531 C   0  0  0  0  0  0  0  0  0  0  0  0
  150.9676  136.8480  155.6854 N   0  0  0  0  0  0  0  0  0  0  0  0
  150.6467  138.1319  156.0897 C   0  0  0  0  0  0  0  0  0  0  0  0
  150.6061  139.1558  154.9680 C   0  0  0  0  0  0  0  0  0  0  0  0
  150.3983  138.4163  157.3934 C   0  0  0  0  0  0  0  0  0  0  0  0
  150.0471  139.8217  157.8784 C   0  0  0  0  0  0  0  0  0  0  0  0
  151.1540  140.8671  157.7236 C   0  0  0  0  0  0  0  0  0  0  0  0
  151.6196  141.1144  156.6113 O   0  0  0  0  0  0  0  0  0  0  0  0
  151.5589  141.4739  158.8498 N   0  0  0  0  0  0  0  0  0  0  0  0
  152.5681  142.5303  158.9489 C   0  0  1  0  0  0  0  0  0  0  0  0
  151.8787  143.8781  159.2413 C   0  0  0  0  0  0  0  0  0  0  0  0
  151.2960  143.9363  160.6641 C   0  0  0  0  0  0  0  0  0  0  0  0
  152.3688  143.6239  161.7180 C   0  0  0  0  0  0  0  0  0  0  0  0
  153.0462  142.2713  161.4451 C   0  0  0  0  0  0  0  0  0  0  0  0
  153.6401  142.2100  160.0225 C   0  0  1  0  0  0  0  0  0  0  0  0
  154.3702  140.8793  159.7721 C   0  0  0  0  0  0  0  0  0  0  0  0
  150.4790  137.3168  158.3841 C   0  0  0  0  0  0  0  0  0  0  0  0
  150.2766  137.5122  159.5817 O   0  0  0  0  0  0  0  0  0  0  0  0
  150.8013  136.0308  157.9208 N   0  0  0  0  0  0  0  0  0  0  0  0
  151.1494  136.6804  154.7063 H   0  0  0  0  0  0  0  0  0  0  0  0
  151.2635  133.7245  156.8722 H   0  0  0  0  0  0  0  0  0  0  0  0
  152.4147  134.4820  155.7650 H   0  0  0  0  0  0  0  0  0  0  0  0
  150.7336  134.2360  155.2669 H   0  0  0  0  0  0  0  0  0  0  0  0
  149.6105  139.5916  154.8851 H   0  0  0  0  0  0  0  0  0  0  0  0
  150.8555  138.7073  154.0056 H   0  0  0  0  0  0  0  0  0  0  0  0
  151.3199  139.9581  155.1570 H   0  0  0  0  0  0  0  0  0  0  0  0
  149.7383  139.8066  158.9239 H   0  0  0  0  0  0  0  0  0  0  0  0
  149.1632  140.1578  157.3350 H   0  0  0  0  0  0  0  0  0  0  0  0
  151.1183  141.1951  159.7146 H   0  0  0  0  0  0  0  0  0  0  0  0
  153.0742  142.6328  157.9874 H   0  0  0  0  0  0  0  0  0  0  0  0
  152.6038  144.6841  159.1210 H   0  0  0  0  0  0  0  0  0  0  0  0
  151.0936  144.0669  158.5079 H   0  0  0  0  0  0  0  0  0  0  0  0
  150.8706  144.9229  160.8497 H   0  0  0  0  0  0  0  0  0  0  0  0
  150.4736  143.2259  160.7571 H   0  0  0  0  0  0  0  0  0  0  0  0
  153.1202  144.4146  161.7191 H   0  0  0  0  0  0  0  0  0  0  0  0
  151.9223  143.6216  162.7126 H   0  0  0  0  0  0  0  0  0  0  0  0
  153.8319  142.1053  162.1828 H   0  0  0  0  0  0  0  0  0  0  0  0
  152.3234  141.4660  161.5824 H   0  0  0  0  0  0  0  0  0  0  0  0
  154.3961  142.9940  159.9576 H   0  0  0  0  0  0  0  0  0  0  0  0
  153.7014  140.0248  159.8774 H   0  0  0  0  0  0  0  0  0  0  0  0
  155.1882  140.7437  160.4800 H   0  0  0  0  0  0  0  0  0  0  0  0
  154.7957  140.8487  158.7687 H   0  0  0  0  0  0  0  0  0  0  0  0
  1 22  1  0  0  0  0
  1 23  1  0  0  0  0
  1 24  1  0  0  0  0
  1  2  1  0  0  0  0
  2  3  1  0  0  0  0
  2 20  2  0  0  0  0
  3  4  1  0  0  0  0
  3 21  1  0  0  0  0
  4  6  2  0  0  0  0
  4  5  1  0  0  0  0
  5 25  1  0  0  0  0
  5 26  1  0  0  0  0
  5 27  1  0  0  0  0
  6 18  1  0  0  0  0
  6  7  1  0  0  0  0
  7  8  1  0  0  0  0
  7 28  1  0  0  0  0
  7 29  1  0  0  0  0
  8  9  2  0  0  0  0
  8 10  1  0  0  0  0
 10 11  1  0  0  0  0
 10 30  1  0  0  0  0
 11 16  1  0  0  0  0
 11 12  1  0  0  0  0
 11 31  1  0  0  0  0
 12 13  1  0  0  0  0
 12 32  1  0  0  0  0
 12 33  1  0  0  0  0
 13 14  1  0  0  0  0
 13 34  1  0  0  0  0
 13 35  1  0  0  0  0
 14 15  1  0  0  0  0
 14 36  1  0  0  0  0
 14 37  1  0  0  0  0
 15 16  1  0  0  0  0
 15 38  1  0  0  0  0
 15 39  1  0  0  0  0
 16 17  1  0  0  0  0
 16 40  1  0  0  0  0
 17 41  1  0  0  0  0
 17 42  1  0  0  0  0
 17 43  1  0  0  0  0
 18 19  2  0  0  0  0
 18 20  1  0  0  0  0
M  END
> <s_m_source_file>
AV-unprocessed.smi

> <i_m_source_file_index>
1295

> <i_lp_mmshare_version>
43012

> <i_f3d_flags>
0

> <s_epik_input>
W0NIM11jMW5jKFtDSDNdKWMoYyg9TylbbkhdMSlbQ0gyXUMoPU8pW05IXVtDQEBIXTJbQ0gyXVtDSDJdW0NIMl1bQ0gyXVtDQEhdMltDSDNd

> <s_epik_cmdline>
J2VwaWtfcHl0aG9uJywgJy1waCcsICc3LjAnLCAnLXRuJywgJzgnLCAnLW1hJywgJzIwMCcsICctbWV0YWxfYmluZGluZycsICctaW1hZScsICc8aW5maWxlLm1hZT4nLCAnLW9tYWUnLCAnPG91dGZpbGUubWFlPic=

> <r_lp_tautomer_probability>
0.156392

> <r_epik_Ionization_Penalty>
0.0136057

> <r_epik_Ionization_Penalty_Charging>
0.0134742

> <r_epik_Ionization_Penalty_Neutral>
0.000131572

> <r_epik_State_Penalty>
1.15342

> <r_epik_Charging_Adjusted_Penalty>
1.16689

> <i_epik_Tot_Q>
0

> <i_epik_Tot_abs_Q>
0

> <r_epik_Metal_State_Penalty>
1.31351

> <b_epik_Metal_Only>
0

> <s_lp_Force_Field>
OPLS_2005

> <r_lp_Energy>
15.3468

> <b_lp_Chiralities_Consistent>
1

> <s_lp_Variant>
AV-unprocessed.smi:1295-6

> <Gold.Version>
5.8.1

> <Gold.Id.Protein>
6NUR|6NUR_protein|mol2

> <Gold.PLP.Fitness>
39.2034

> <Gold.PLP.PLP>
-37.1469

> <Gold.PLP.part.hbond>
-2.0000

> <Gold.PLP.part.metal>
0.0000

> <Gold.PLP.part.buried>
-4.9195

> <Gold.PLP.part.nonpolar>
-31.2338

> <Gold.PLP.part.repulsive>
0.2092

> <Gold.PLP.ligand.clash>
0.0000

> <Gold.PLP.ligand.torsion>
0.1471

> <Gold.PLP.Chemscore.Hbond>
0.7805

> <Gold.PLP.Chemscore.CHOScore>
0.0000

> <Gold.PLP.Chemscore.Metal>
0.0000

> <Gold.Chemscore.Hbonds>
donor molecule, donor type, donor heavy atom, donor atom, acceptor molecule, acceptor atom, score
      P1  H  6896  6907       L1    20  0.47

> <Gold.PLP.Chemscore.Internal.Correction>
0.0093

> <Gold.Rescore>
     Score         DG    S(hbond)    S(metal)    S(lipo)     H(rot)  DE(clash)    DE(int)     intcor
     14.14     -15.62       0.77        0.00      97.10       1.48       0.02       1.46       ----

> <Gold.Chemscore.Fitness>
14.1437

> <Gold.Chemscore.DG>
-15.6245

> <Gold.Chemscore.ZeroCoef>
-5.4800

> <Gold.Chemscore.Hbond>
0.7704

> <Gold.Chemscore.Metal>
0.0000

> <Gold.Chemscore.Lipo>
97.0987

> <Gold.Chemscore.Internal_Hbond>
0.0000

> <Gold.Chemscore.DEClash>
0.0181

> <Gold.Chemscore.DEInternal>
1.4627

> <Gold.Chemscore.Rot>
1.4801

> <Gold.Chemscore.Internal.Correction>
   9.000000E+99

> <Gold.Chemscore.Hbonds>
donor molecule, donor type, donor heavy atom, donor atom, acceptor molecule, acceptor atom, score
      P1  H  6896  6907       L1    20  0.23

> <Gold.Chemscore.Hbond.Weighted>
-2.5730

> <Gold.Chemscore.Metal.Weighted>
-0.0000

> <Gold.Chemscore.Lipo.Weighted>
-11.3605

> <Gold.Chemscore.Internal_Hbond.Weighted>
0.0000

> <Gold.Chemscore.DEClash.Weighted>
0.0181

> <Gold.Chemscore.DEInternal.Weighted>
1.4627

> <Gold.Chemscore.Rot.Weighted>
3.7891

> <Gold.Chemscore.Internal.Correction.Weighted>
   9.000000E+99

> <Gold.Protein.RotatedTorsions>
[ 6907 6896 6895 6894 ] final  -50.55 input  -60.11 | X-H torsion
[ 7974 7965 7964 7962 ] final  -65.95 input  175.53 | X-H torsion
[ 8008 7997 7996 7995 ] final  139.60 input   59.86 | X-H torsion
[ 10167 10162 10161 10158 ] final  133.17 input  -65.29 | X-H torsion
[ 10718 10713 10712 10709 ] final  134.32 input   66.30 | X-H torsion
[ 10763 10752 10751 10750 ] final  -89.86 input  -60.55 | X-H torsion
[ 11005 11000 10999 10996 ] final  105.13 input  -57.11 | X-H torsion

> <Gold.Protein.ActiveResidues>
 VAL166  LYS551  ARG553  GLY616  TRP617  ASP618  TYR619  PRO620  LYS621  CYS622 
 ASP623  PHE694  ASN695  SER759  ASP760  ASP761  ALA762  ILE779  LEU786  VAL792 
 PHE793  MET794  SER795  GLU796  ALA797  LYS798  CYS799  TRP800  GLU811  SER814 

> <Gold.Protein.RotatedAtoms>
  150.8697  134.8068  159.7144 H   0  0  0  0  0  0  0  0  0  0  0  0  # atno 6907 bound_to 6896
  152.4706  134.4967  159.9722 H   0  0  0  0  0  0  0  0  0  0  0  0  # atno 6908 bound_to 6896
  151.5058  133.3456  159.2912 H   0  0  0  0  0  0  0  0  0  0  0  0  # atno 6909 bound_to 6896
  145.7479  140.8923  143.0495 H   0  0  0  0  0  0  0  0  0  0  0  0  # atno 7974 bound_to 7965
  156.2988  140.2363  156.4263 H   0  0  0  0  0  0  0  0  0  0  0  0  # atno 8008 bound_to 7997
  154.8310  140.0433  157.1497 H   0  0  0  0  0  0  0  0  0  0  0  0  # atno 8009 bound_to 7997
  154.9208  140.3003  155.5221 H   0  0  0  0  0  0  0  0  0  0  0  0  # atno 8010 bound_to 7997
  139.5308  144.6628  151.4957 H   0  0  0  0  0  0  0  0  0  0  0  0  # atno 10167 bound_to 10162
  157.4684  131.1078  150.9833 H   0  0  0  0  0  0  0  0  0  0  0  0  # atno 10718 bound_to 10713
  154.6597  135.5325  153.8003 H   0  0  0  0  0  0  0  0  0  0  0  0  # atno 10763 bound_to 10752
  153.0435  135.6503  154.0890 H   0  0  0  0  0  0  0  0  0  0  0  0  # atno 10764 bound_to 10752
  154.0800  135.2948  155.3272 H   0  0  0  0  0  0  0  0  0  0  0  0  # atno 10765 bound_to 10752
  139.8799  134.9325  156.5468 H   0  0  0  0  0  0  0  0  0  0  0  0  # atno 11005 bound_to 11000
  144.6856  139.9550  143.7479 LP  0  0  0  0  0  0  0  0  0  0  0  0  # atno 17320 bound_to 7965
  146.0385  139.3400  143.0711 LP  0  0  0  0  0  0  0  0  0  0  0  0  # atno 17321 bound_to 7965
  140.6485  143.8745  150.6761 LP  0  0  0  0  0  0  0  0  0  0  0  0  # atno 17342 bound_to 10162
  140.2102  143.3889  152.1724 LP  0  0  0  0  0  0  0  0  0  0  0  0  # atno 17343 bound_to 10162
  157.0606  130.5824  149.5385 LP  0  0  0  0  0  0  0  0  0  0  0  0  # atno 17370 bound_to 10713
  156.0061  130.5148  150.7836 LP  0  0  0  0  0  0  0  0  0  0  0  0  # atno 17371 bound_to 10713
  140.8270  133.8309  155.8948 LP  0  0  0  0  0  0  0  0  0  0  0  0  # atno 17394 bound_to 11000
  140.9365  134.1956  157.4828 LP  0  0  0  0  0  0  0  0  0  0  0  0  # atno 17395 bound_to 11000

$$$$
