AV-unprocessed.smi:667|AV-procd|sdf|3257|dock6
  -GOLD-   22720 0213D 1   1.00000     0.00000
 Structure written by MMmdl.
 48 49  0  0  0  0  0  0  0  0  1 V2000
  151.4274  144.9683  160.0042 C   0  0  0  0  0  0  0  0  0  0  0  0
  152.0099  143.5879  159.8980 C   0  0  0  0  0  0  0  0  0  0  0  0
  152.7830  143.1332  160.8701 N   0  0  0  0  0  0  0  0  0  0  0  0
  153.1264  141.8880  160.4836 N   0  0  0  0  0  0  0  0  0  0  0  0
  153.9841  141.0907  161.3389 C   0  0  0  0  0  0  0  0  0  0  0  0
  152.5741  141.5579  159.2612 C   0  0  0  0  0  0  0  0  0  0  0  0
  152.8034  140.2299  158.6139 C   0  0  0  0  0  0  0  0  0  0  0  0
  151.8369  142.6363  158.8501 C   0  0  0  0  0  0  0  0  0  0  0  0
  151.0213  142.7948  157.5923 C   0  0  0  0  0  0  0  0  0  0  0  0
  149.7892  141.8936  157.6655 C   0  0  0  0  0  0  0  0  0  0  0  0
  149.7835  140.9185  158.4168 O   0  0  0  0  0  0  0  0  0  0  0  0
  148.7512  142.2340  156.8858 N   0  0  0  0  0  0  0  0  0  0  0  0
  147.4796  141.5216  156.8260 C   0  0  0  0  0  0  0  0  0  0  0  0
  147.2045  140.9203  155.4247 C   0  0  2  0  0  0  0  0  0  0  0  0
  147.5685  141.8778  154.2981 C   0  0  0  0  0  0  0  0  0  0  0  0
  146.2946  142.7045  154.1047 C   0  0  0  0  0  0  0  0  0  0  0  0
  145.2582  141.9981  154.7809 O   0  0  0  0  0  0  0  0  0  0  0  0
  145.7166  140.6927  155.1080 C   0  0  2  0  0  0  0  0  0  0  0  0
  144.8449  140.0417  156.2060 C   0  0  0  0  0  0  0  0  0  0  0  0
  145.4103  138.6823  156.6525 C   0  0  0  0  0  0  0  0  0  0  0  0
  143.3932  139.8737  155.7290 C   0  0  0  0  0  0  0  0  0  0  0  0
  150.3484  144.9239  160.1535 H   0  0  0  0  0  0  0  0  0  0  0  0
  151.6145  145.5423  159.0965 H   0  0  0  0  0  0  0  0  0  0  0  0
  151.8549  145.5253  160.8390 H   0  0  0  0  0  0  0  0  0  0  0  0
  154.9900  141.0596  160.9200 H   0  0  0  0  0  0  0  0  0  0  0  0
  153.5947  140.0746  161.4093 H   0  0  0  0  0  0  0  0  0  0  0  0
  154.0296  141.5173  162.3420 H   0  0  0  0  0  0  0  0  0  0  0  0
  152.4737  140.2342  157.5753 H   0  0  0  0  0  0  0  0  0  0  0  0
  152.2525  139.4476  159.1358 H   0  0  0  0  0  0  0  0  0  0  0  0
  153.8610  139.9665  158.6246 H   0  0  0  0  0  0  0  0  0  0  0  0
  150.7043  143.8281  157.4470 H   0  0  0  0  0  0  0  0  0  0  0  0
  151.6002  142.5335  156.7060 H   0  0  0  0  0  0  0  0  0  0  0  0
  148.8441  143.0530  156.3025 H   0  0  0  0  0  0  0  0  0  0  0  0
  147.4831  140.7459  157.5921 H   0  0  0  0  0  0  0  0  0  0  0  0
  146.6878  142.2182  157.1028 H   0  0  0  0  0  0  0  0  0  0  0  0
  147.7561  139.9849  155.3217 H   0  0  0  0  0  0  0  0  0  0  0  0
  148.4451  142.4938  154.5003 H   0  0  0  0  0  0  0  0  0  0  0  0
  147.7736  141.3089  153.3902 H   0  0  0  0  0  0  0  0  0  0  0  0
  146.3928  143.6972  154.5446 H   0  0  0  0  0  0  0  0  0  0  0  0
  146.0548  142.8233  153.0477 H   0  0  0  0  0  0  0  0  0  0  0  0
  145.6451  140.0871  154.2018 H   0  0  0  0  0  0  0  0  0  0  0  0
  144.8201  140.7010  157.0735 H   0  0  0  0  0  0  0  0  0  0  0  0
  145.4532  137.9798  155.8196 H   0  0  0  0  0  0  0  0  0  0  0  0
  144.7901  138.2366  157.4305 H   0  0  0  0  0  0  0  0  0  0  0  0
  146.4179  138.7755  157.0575 H   0  0  0  0  0  0  0  0  0  0  0  0
  143.3361  139.2299  154.8506 H   0  0  0  0  0  0  0  0  0  0  0  0
  142.9478  140.8338  155.4669 H   0  0  0  0  0  0  0  0  0  0  0  0
  142.7721  139.4298  156.5076 H   0  0  0  0  0  0  0  0  0  0  0  0
  1  2  1  0  0  0  0
  1 22  1  0  0  0  0
  1 23  1  0  0  0  0
  1 24  1  0  0  0  0
  2  8  1  0  0  0  0
  2  3  2  0  0  0  0
  3  4  1  0  0  0  0
  4  5  1  0  0  0  0
  4  6  1  0  0  0  0
  5 25  1  0  0  0  0
  5 26  1  0  0  0  0
  5 27  1  0  0  0  0
  6  7  1  0  0  0  0
  6  8  2  0  0  0  0
  7 28  1  0  0  0  0
  7 29  1  0  0  0  0
  7 30  1  0  0  0  0
  8  9  1  0  0  0  0
  9 10  1  0  0  0  0
  9 31  1  0  0  0  0
  9 32  1  0  0  0  0
 10 11  2  0  0  0  0
 10 12  1  0  0  0  0
 12 13  1  0  0  0  0
 12 33  1  0  0  0  0
 13 14  1  0  0  0  0
 13 34  1  0  0  0  0
 13 35  1  0  0  0  0
 14 18  1  0  0  0  0
 14 15  1  0  0  0  0
 14 36  1  0  0  0  0
 15 16  1  0  0  0  0
 15 37  1  0  0  0  0
 15 38  1  0  0  0  0
 16 17  1  0  0  0  0
 16 39  1  0  0  0  0
 16 40  1  0  0  0  0
 17 18  1  0  0  0  0
 18 19  1  0  0  0  0
 18 41  1  0  0  0  0
 19 20  1  0  0  0  0
 19 21  1  0  0  0  0
 19 42  1  0  0  0  0
 20 43  1  0  0  0  0
 20 44  1  0  0  0  0
 20 45  1  0  0  0  0
 21 46  1  0  0  0  0
 21 47  1  0  0  0  0
 21 48  1  0  0  0  0
M  END
> <s_m_source_file>
AV-unprocessed.smi

> <i_m_source_file_index>
667

> <i_lp_mmshare_version>
43012

> <i_f3d_flags>
0

> <s_epik_input>
W0NIM11jMW5uKFtDSDNdKWMoW0NIM10pYzFbQ0gyXUMoPU8pW05IXVtDSDJdW0NAQEhdMltDSDJdW0NIMl1PW0NASF0yW0NIXShbQ0gzXSlbQ0gzXQ==

> <s_epik_cmdline>
J2VwaWtfcHl0aG9uJywgJy1waCcsICc3LjAnLCAnLXRuJywgJzgnLCAnLW1hJywgJzIwMCcsICctbWV0YWxfYmluZGluZycsICctaW1hZScsICc8aW5maWxlLm1hZT4nLCAnLW9tYWUnLCAnPG91dGZpbGUubWFlPic=

> <r_lp_tautomer_probability>
1

> <r_epik_Ionization_Penalty>
0.00315488

> <r_epik_Ionization_Penalty_Charging>
0

> <r_epik_Ionization_Penalty_Neutral>
0.00315488

> <r_epik_State_Penalty>
0.00222269

> <r_epik_Charging_Adjusted_Penalty>
0.00222269

> <i_epik_Tot_Q>
0

> <i_epik_Tot_abs_Q>
0

> <r_epik_Metal_State_Penalty>
-0

> <b_epik_Metal_Only>
0

> <s_lp_Force_Field>
OPLS_2005

> <r_lp_Energy>
17.3848

> <b_lp_Chiralities_Consistent>
1

> <s_lp_Variant>
AV-unprocessed.smi:667-3

> <Gold.Version>
5.8.1

> <Gold.Id.Protein>
6NUR|6NUR_protein|mol2

> <Gold.PLP.Fitness>
40.9929

> <Gold.PLP.PLP>
-39.1981

> <Gold.PLP.part.hbond>
-1.3855

> <Gold.PLP.part.metal>
0.0000

> <Gold.PLP.part.buried>
-4.7513

> <Gold.PLP.part.nonpolar>
-34.2448

> <Gold.PLP.part.repulsive>
0.2634

> <Gold.PLP.ligand.clash>
0.0000

> <Gold.PLP.ligand.torsion>
0.6324

> <Gold.PLP.Chemscore.Hbond>
1.0000

> <Gold.PLP.Chemscore.CHOScore>
0.0000

> <Gold.PLP.Chemscore.Metal>
0.0000

> <Gold.Chemscore.Hbonds>
donor molecule, donor type, donor heavy atom, donor atom, acceptor molecule, acceptor atom, score
      L1  H    12    33       P1  8028  1.00

> <Gold.PLP.Chemscore.Internal.Correction>
0.0595

> <Gold.Rescore>
     Score         DG    S(hbond)    S(metal)    S(lipo)     H(rot)  DE(clash)    DE(int)     intcor
     14.41     -15.32       0.92        0.00      91.21       1.52       0.08       0.83       ----

> <Gold.Chemscore.Fitness>
14.4143

> <Gold.Chemscore.DG>
-15.3197

> <Gold.Chemscore.ZeroCoef>
-5.4800

> <Gold.Chemscore.Hbond>
0.9171

> <Gold.Chemscore.Metal>
0.0000

> <Gold.Chemscore.Lipo>
91.2056

> <Gold.Chemscore.Internal_Hbond>
0.0000

> <Gold.Chemscore.DEClash>
0.0786

> <Gold.Chemscore.DEInternal>
0.8268

> <Gold.Chemscore.Rot>
1.5213

> <Gold.Chemscore.Internal.Correction>
   9.000000E+99

> <Gold.Chemscore.Hbonds>
donor molecule, donor type, donor heavy atom, donor atom, acceptor molecule, acceptor atom, score
      L1  H    12    33       P1  8028  0.99

> <Gold.Chemscore.Hbond.Weighted>
-3.0631

> <Gold.Chemscore.Metal.Weighted>
-0.0000

> <Gold.Chemscore.Lipo.Weighted>
-10.6711

> <Gold.Chemscore.Internal_Hbond.Weighted>
0.0000

> <Gold.Chemscore.DEClash.Weighted>
0.0786

> <Gold.Chemscore.DEInternal.Weighted>
0.8268

> <Gold.Chemscore.Rot.Weighted>
3.8945

> <Gold.Chemscore.Internal.Correction.Weighted>
   9.000000E+99

> <Gold.Protein.RotatedTorsions>
[ 6907 6896 6895 6894 ] final -112.31 input  -60.11 | X-H torsion
[ 7974 7965 7964 7962 ] final -136.88 input  175.53 | X-H torsion
[ 8008 7997 7996 7995 ] final  137.15 input   59.86 | X-H torsion
[ 10167 10162 10161 10158 ] final -160.64 input  -65.29 | X-H torsion
[ 10718 10713 10712 10709 ] final  145.39 input   66.30 | X-H torsion
[ 10763 10752 10751 10750 ] final -118.82 input  -60.55 | X-H torsion
[ 11005 11000 10999 10996 ] final  -48.01 input  -57.11 | X-H torsion

> <Gold.Protein.ActiveResidues>
 VAL166  LYS551  ARG553  GLY616  TRP617  ASP618  TYR619  PRO620  LYS621  CYS622 
 ASP623  PHE694  ASN695  SER759  ASP760  ASP761  ALA762  ILE779  LEU786  VAL792 
 PHE793  MET794  SER795  GLU796  ALA797  LYS798  CYS799  TRP800  GLU811  SER814 

> <Gold.Protein.RotatedAtoms>
  150.7750  133.9108  159.3368 H   0  0  0  0  0  0  0  0  0  0  0  0  # atno 6907 bound_to 6896
  151.6985  135.0932  160.0256 H   0  0  0  0  0  0  0  0  0  0  0  0  # atno 6908 bound_to 6896
  152.3782  133.6471  159.6176 H   0  0  0  0  0  0  0  0  0  0  0  0  # atno 6909 bound_to 6896
  144.8889  140.6614  143.5158 H   0  0  0  0  0  0  0  0  0  0  0  0  # atno 7974 bound_to 7965
  156.3003  140.2427  156.3863 H   0  0  0  0  0  0  0  0  0  0  0  0  # atno 8008 bound_to 7997
  154.8655  140.0418  157.1711 H   0  0  0  0  0  0  0  0  0  0  0  0  # atno 8009 bound_to 7997
  154.8851  140.2955  155.5406 H   0  0  0  0  0  0  0  0  0  0  0  0  # atno 8010 bound_to 7997
  139.6524  144.0060  152.2171 H   0  0  0  0  0  0  0  0  0  0  0  0  # atno 10167 bound_to 10162
  157.3458  131.0943  151.1043 H   0  0  0  0  0  0  0  0  0  0  0  0  # atno 10718 bound_to 10713
  154.8599  135.4260  154.2199 H   0  0  0  0  0  0  0  0  0  0  0  0  # atno 10763 bound_to 10752
  153.3207  135.6982  153.7039 H   0  0  0  0  0  0  0  0  0  0  0  0  # atno 10764 bound_to 10752
  153.6095  135.3522  155.2947 H   0  0  0  0  0  0  0  0  0  0  0  0  # atno 10765 bound_to 10752
  141.0675  133.6689  156.3380 H   0  0  0  0  0  0  0  0  0  0  0  0  # atno 11005 bound_to 11000
  145.3818  139.1635  143.4276 LP  0  0  0  0  0  0  0  0  0  0  0  0  # atno 17320 bound_to 7965
  146.3042  140.3900  142.8693 LP  0  0  0  0  0  0  0  0  0  0  0  0  # atno 17321 bound_to 7965
  139.9777  144.6450  150.7929 LP  0  0  0  0  0  0  0  0  0  0  0  0  # atno 17342 bound_to 10162
  140.7544  143.3026  151.3042 LP  0  0  0  0  0  0  0  0  0  0  0  0  # atno 17343 bound_to 10162
  157.2237  130.6493  149.5821 LP  0  0  0  0  0  0  0  0  0  0  0  0  # atno 17370 bound_to 10713
  155.9714  130.4621  150.6133 LP  0  0  0  0  0  0  0  0  0  0  0  0  # atno 17371 bound_to 10713
  140.5742  134.5810  157.5465 LP  0  0  0  0  0  0  0  0  0  0  0  0  # atno 17394 bound_to 11000
  139.9491  134.7649  156.0491 LP  0  0  0  0  0  0  0  0  0  0  0  0  # atno 17395 bound_to 11000

$$$$
