AV-unprocessed.smi:203|AV-procd|sdf|1591|dock1
  -GOLD-   2262019493D 1   1.00000     0.00000
 Structure written by MMmdl.
 57 61  0  0  0  0  0  0  0  0  1 V2000
  149.5007  141.3581  153.4451 O   0  0  0  0  0  0  0  0  0  0  0  0
  150.0752  140.8858  154.4231 C   0  0  0  0  0  0  0  0  0  0  0  0
  149.4238  140.7385  155.7873 C   0  0  0  0  0  0  0  0  0  0  0  0
  150.5883  140.3159  156.7040 C   0  0  2  0  0  0  0  0  0  0  0  0
  150.9743  141.3835  157.7781 C   0  0  2  0  0  0  0  0  0  0  0  0
  151.1888  142.7969  157.1760 C   0  0  0  0  0  0  0  0  0  0  0  0
  151.5470  143.8245  158.2587 C   0  0  0  0  0  0  0  0  0  0  0  0
  152.7755  143.3521  159.0445 C   0  0  0  0  0  0  0  0  0  0  0  0
  152.5345  141.9523  159.6260 C   0  0  0  0  0  0  0  0  0  0  0  0
  152.1520  141.0048  158.5806 N   0  0  0  0  0  0  0  0  0  0  0  0
  152.1710  139.7381  159.0496 C   0  0  0  0  0  0  0  0  0  0  0  0
  150.9836  139.0888  159.1258 N   0  0  0  0  0  0  0  0  0  0  0  0
  150.9296  137.8584  159.6444 C   0  0  0  0  0  0  0  0  0  0  0  0
  151.9225  137.1181  160.1422 N   0  0  0  0  0  0  0  0  0  0  0  0
  153.1193  137.7667  160.0509 C   0  0  0  0  0  0  0  0  0  0  0  0
  153.3361  139.0631  159.5087 C   0  0  0  0  0  0  0  0  0  0  0  0
  154.6845  139.3917  159.5837 N   0  0  0  0  0  0  0  0  0  0  0  0
  155.2300  138.3600  160.1677 C   0  0  0  0  0  0  0  0  0  0  0  0
  154.3581  137.3499  160.5034 N   0  0  0  0  0  0  0  0  0  0  0  0
  154.6777  136.1312  161.2219 C   0  0  0  0  0  0  0  0  0  0  0  0
  153.8205  135.9544  162.4951 C   0  0  2  0  0  0  0  0  0  0  0  0
  154.0028  137.1090  163.2898 O   0  0  0  0  0  0  0  0  0  0  0  0
  154.1634  134.6982  163.3307 C   0  0  1  0  0  0  0  0  0  0  0  0
  153.3073  134.5056  164.5852 C   0  0  0  0  0  0  0  0  0  0  0  0
  153.3647  133.0061  164.8408 C   0  0  0  0  0  0  0  0  0  0  0  0
  153.9224  132.4280  163.5388 C   0  0  0  0  0  0  0  0  0  0  0  0
  153.8633  133.5055  162.6183 O   0  0  0  0  0  0  0  0  0  0  0  0
  151.7404  139.9412  155.7452 C   0  0  0  0  0  0  0  0  0  0  0  0
  151.3264  140.4324  154.4456 N   0  0  0  0  0  0  0  0  0  0  0  0
  148.9354  141.6606  156.1019 H   0  0  0  0  0  0  0  0  0  0  0  0
  148.6633  139.9589  155.7347 H   0  0  0  0  0  0  0  0  0  0  0  0
  150.2592  139.4075  157.2094 H   0  0  0  0  0  0  0  0  0  0  0  0
  150.1342  141.4599  158.4695 H   0  0  0  0  0  0  0  0  0  0  0  0
  151.9872  142.7758  156.4342 H   0  0  0  0  0  0  0  0  0  0  0  0
  150.2964  143.1373  156.6524 H   0  0  0  0  0  0  0  0  0  0  0  0
  151.7404  144.7971  157.8052 H   0  0  0  0  0  0  0  0  0  0  0  0
  150.7023  143.9566  158.9359 H   0  0  0  0  0  0  0  0  0  0  0  0
  153.6466  143.3321  158.3886 H   0  0  0  0  0  0  0  0  0  0  0  0
  153.0036  144.0561  159.8451 H   0  0  0  0  0  0  0  0  0  0  0  0
  153.4381  141.6064  160.1304 H   0  0  0  0  0  0  0  0  0  0  0  0
  151.7467  141.9966  160.3795 H   0  0  0  0  0  0  0  0  0  0  0  0
  149.9489  137.4073  159.6764 H   0  0  0  0  0  0  0  0  0  0  0  0
  156.2848  138.3189  160.3963 H   0  0  0  0  0  0  0  0  0  0  0  0
  154.5327  135.2864  160.5468 H   0  0  0  0  0  0  0  0  0  0  0  0
  155.7385  136.1491  161.4753 H   0  0  0  0  0  0  0  0  0  0  0  0
  152.7671  135.9141  162.2155 H   0  0  0  0  0  0  0  0  0  0  0  0
  154.8727  137.0865  163.6579 H   0  0  0  0  0  0  0  0  0  0  0  0
  155.2210  134.6994  163.6028 H   0  0  0  0  0  0  0  0  0  0  0  0
  153.6668  135.0912  165.4318 H   0  0  0  0  0  0  0  0  0  0  0  0
  152.2764  134.8019  164.3862 H   0  0  0  0  0  0  0  0  0  0  0  0
  154.0173  132.7653  165.6804 H   0  0  0  0  0  0  0  0  0  0  0  0
  152.3718  132.6133  165.0622 H   0  0  0  0  0  0  0  0  0  0  0  0
  154.9617  132.1204  163.6642 H   0  0  0  0  0  0  0  0  0  0  0  0
  153.3543  131.5697  163.1803 H   0  0  0  0  0  0  0  0  0  0  0  0
  152.7001  140.3689  156.0356 H   0  0  0  0  0  0  0  0  0  0  0  0
  151.8645  138.8587  155.6936 H   0  0  0  0  0  0  0  0  0  0  0  0
  151.9421  140.4346  153.6452 H   0  0  0  0  0  0  0  0  0  0  0  0
  1  2  2  0  0  0  0
  2 29  1  0  0  0  0
  2  3  1  0  0  0  0
  3  4  1  0  0  0  0
  3 30  1  0  0  0  0
  3 31  1  0  0  0  0
  4  5  1  0  0  0  0
  4 28  1  0  0  0  0
  4 32  1  0  0  0  0
  5 10  1  0  0  0  0
  5  6  1  0  0  0  0
  5 33  1  0  0  0  0
  6  7  1  0  0  0  0
  6 34  1  0  0  0  0
  6 35  1  0  0  0  0
  7  8  1  0  0  0  0
  7 36  1  0  0  0  0
  7 37  1  0  0  0  0
  8  9  1  0  0  0  0
  8 38  1  0  0  0  0
  8 39  1  0  0  0  0
  9 10  1  0  0  0  0
  9 40  1  0  0  0  0
  9 41  1  0  0  0  0
 10 11  1  0  0  0  0
 11 16  1  0  0  0  0
 11 12  2  0  0  0  0
 12 13  1  0  0  0  0
 13 14  2  0  0  0  0
 13 42  1  0  0  0  0
 14 15  1  0  0  0  0
 15 19  1  0  0  0  0
 15 16  2  0  0  0  0
 16 17  1  0  0  0  0
 17 18  2  0  0  0  0
 18 19  1  0  0  0  0
 18 43  1  0  0  0  0
 19 20  1  0  0  0  0
 20 21  1  0  0  0  0
 20 44  1  0  0  0  0
 20 45  1  0  0  0  0
 21 22  1  0  0  0  0
 21 23  1  0  0  0  0
 21 46  1  0  0  0  0
 22 47  1  0  0  0  0
 23 27  1  0  0  0  0
 23 24  1  0  0  0  0
 23 48  1  0  0  0  0
 24 25  1  0  0  0  0
 24 49  1  0  0  0  0
 24 50  1  0  0  0  0
 25 26  1  0  0  0  0
 25 51  1  0  0  0  0
 25 52  1  0  0  0  0
 26 27  1  0  0  0  0
 26 53  1  0  0  0  0
 26 54  1  0  0  0  0
 28 29  1  0  0  0  0
 28 55  1  0  0  0  0
 28 56  1  0  0  0  0
 29 57  1  0  0  0  0
M  END
> <s_m_source_file>
AV-unprocessed.smi

> <i_m_source_file_index>
203

> <i_lp_mmshare_version>
43012

> <i_f3d_flags>
0

> <s_epik_input>
Tz1DMVtDSDJdW0NASF0oW0NIMl1bTkhdMSlbQ0BASF0yW0NIMl1bQ0gyXVtDSDJdW0NIMl1OMmMobltjSF1uMyljKGMzNCluW2NIXW40W0NIMl1bQ0BIXShbT0hdKVtDQEBIXTVbQ0gyXVtDSDJdW0NIMl1PNQ==

> <s_epik_cmdline>
J2VwaWtfcHl0aG9uJywgJy1waCcsICc3LjAnLCAnLXRuJywgJzgnLCAnLW1hJywgJzIwMCcsICctbWV0YWxfYmluZGluZycsICctaW1hZScsICc8aW5maWxlLm1hZT4nLCAnLW9tYWUnLCAnPG91dGZpbGUubWFlPic=

> <r_lp_tautomer_probability>
1

> <r_epik_Ionization_Penalty>
0.00175146

> <r_epik_Ionization_Penalty_Charging>
0

> <r_epik_Ionization_Penalty_Neutral>
0.00175146

> <r_epik_State_Penalty>
0.00109045

> <r_epik_Charging_Adjusted_Penalty>
0.00109045

> <i_epik_Tot_Q>
0

> <i_epik_Tot_abs_Q>
0

> <r_epik_Metal_State_Penalty>
-0

> <b_epik_Metal_Only>
0

> <s_lp_Force_Field>
OPLS_2005

> <r_lp_Energy>
54.7877

> <b_lp_Chiralities_Consistent>
1

> <s_lp_Variant>
AV-unprocessed.smi:203-10

> <Gold.Version>
5.8.1

> <Gold.Id.Protein>
6NUR|6NUR_protein|mol2

> <Gold.PLP.Fitness>
46.6675

> <Gold.PLP.PLP>
-39.0280

> <Gold.PLP.part.hbond>
-3.4256

> <Gold.PLP.part.metal>
0.0000

> <Gold.PLP.part.buried>
-4.3072

> <Gold.PLP.part.nonpolar>
-36.7492

> <Gold.PLP.part.repulsive>
5.9427

> <Gold.PLP.ligand.clash>
0.2363

> <Gold.PLP.ligand.torsion>
0.4044

> <Gold.PLP.Chemscore.Hbond>
2.7930

> <Gold.PLP.Chemscore.CHOScore>
0.0000

> <Gold.PLP.Chemscore.Metal>
0.0000

> <Gold.Chemscore.Hbonds>
donor molecule, donor type, donor heavy atom, donor atom, acceptor molecule, acceptor atom, score
      P1  H  6896  6909       L1    14  1.00
      P1  H  7997  8009       L1    17  0.16
      P1  H  8011  8017       L1     1  0.96

> <Gold.PLP.Chemscore.Internal.Correction>
0.3057

> <Gold.Rescore>
     Score         DG    S(hbond)    S(metal)    S(lipo)     H(rot)  DE(clash)    DE(int)     intcor
     14.62     -18.63       2.62        0.00      96.91       2.72       1.86       2.15       ----

> <Gold.Chemscore.Fitness>
14.6209

> <Gold.Chemscore.DG>
-18.6251

> <Gold.Chemscore.ZeroCoef>
-5.4800

> <Gold.Chemscore.Hbond>
2.6236

> <Gold.Chemscore.Metal>
0.0000

> <Gold.Chemscore.Lipo>
96.9066

> <Gold.Chemscore.Internal_Hbond>
0.0000

> <Gold.Chemscore.DEClash>
1.8577

> <Gold.Chemscore.DEInternal>
2.1464

> <Gold.Chemscore.Rot>
2.7171

> <Gold.Chemscore.Internal.Correction>
   9.000000E+99

> <Gold.Chemscore.Hbonds>
donor molecule, donor type, donor heavy atom, donor atom, acceptor molecule, acceptor atom, score
      P1  H  6896  6909       L1    14  0.92
      P1  H  7997  8009       L1    17  0.05
      P1  H  8011  8017       L1     1  0.89

> <Gold.Chemscore.Hbond.Weighted>
-8.7627

> <Gold.Chemscore.Metal.Weighted>
-0.0000

> <Gold.Chemscore.Lipo.Weighted>
-11.3381

> <Gold.Chemscore.Internal_Hbond.Weighted>
0.0000

> <Gold.Chemscore.DEClash.Weighted>
1.8577

> <Gold.Chemscore.DEInternal.Weighted>
2.1464

> <Gold.Chemscore.Rot.Weighted>
6.9557

> <Gold.Chemscore.Internal.Correction.Weighted>
   9.000000E+99

> <Gold.Protein.RotatedTorsions>
[ 6907 6896 6895 6894 ] final  129.75 input  -60.11 | X-H torsion
[ 7974 7965 7964 7962 ] final   57.41 input  175.53 | X-H torsion
[ 8008 7997 7996 7995 ] final  120.23 input   59.86 | X-H torsion
[ 10167 10162 10161 10158 ] final   97.85 input  -65.29 | X-H torsion
[ 10718 10713 10712 10709 ] final  -70.35 input   66.30 | X-H torsion
[ 10763 10752 10751 10750 ] final  101.25 input  -60.55 | X-H torsion
[ 11005 11000 10999 10996 ] final  116.16 input  -57.11 | X-H torsion

> <Gold.Protein.ActiveResidues>
 VAL166  LYS551  ARG553  GLY616  TRP617  ASP618  TYR619  PRO620  LYS621  CYS622 
 ASP623  PHE694  ASN695  SER759  ASP760  ASP761  ALA762  ILE779  LEU786  VAL792 
 PHE793  MET794  SER795  GLU796  ALA797  LYS798  CYS799  TRP800  GLU811  SER814 

> <Gold.Protein.RotatedAtoms>
  152.3593  133.6277  159.6003 H   0  0  0  0  0  0  0  0  0  0  0  0  # atno 6907 bound_to 6896
  150.7590  133.9449  159.3476 H   0  0  0  0  0  0  0  0  0  0  0  0  # atno 6908 bound_to 6896
  151.7289  135.0880  160.0348 H   0  0  0  0  0  0  0  0  0  0  0  0  # atno 6909 bound_to 6896
  145.9293  139.3794  143.0431 H   0  0  0  0  0  0  0  0  0  0  0  0  # atno 7974 bound_to 7965
  156.2633  140.2835  156.1117 H   0  0  0  0  0  0  0  0  0  0  0  0  # atno 8008 bound_to 7997
  155.1251  140.0393  157.2777 H   0  0  0  0  0  0  0  0  0  0  0  0  # atno 8009 bound_to 7997
  154.6641  140.2573  155.7083 H   0  0  0  0  0  0  0  0  0  0  0  0  # atno 8010 bound_to 7997
  139.7763  144.6904  151.0085 H   0  0  0  0  0  0  0  0  0  0  0  0  # atno 10167 bound_to 10162
  156.0412  130.4330  150.2283 H   0  0  0  0  0  0  0  0  0  0  0  0  # atno 10718 bound_to 10713
  153.3243  135.4051  155.1443 H   0  0  0  0  0  0  0  0  0  0  0  0  # atno 10763 bound_to 10752
  154.8608  135.3595  154.5554 H   0  0  0  0  0  0  0  0  0  0  0  0  # atno 10764 bound_to 10752
  153.5989  135.7071  153.5451 H   0  0  0  0  0  0  0  0  0  0  0  0  # atno 10765 bound_to 10752
  139.9032  134.9594  156.7156 H   0  0  0  0  0  0  0  0  0  0  0  0  # atno 11005 bound_to 11000
  145.8447  140.9561  143.0781 LP  0  0  0  0  0  0  0  0  0  0  0  0  # atno 17320 bound_to 7965
  144.6762  140.0330  143.7482 LP  0  0  0  0  0  0  0  0  0  0  0  0  # atno 17321 bound_to 7965
  140.7816  143.4532  151.0383 LP  0  0  0  0  0  0  0  0  0  0  0  0  # atno 17342 bound_to 10162
  139.8214  143.7815  152.3177 LP  0  0  0  0  0  0  0  0  0  0  0  0  # atno 17343 bound_to 10162
  157.0378  131.0026  151.3293 LP  0  0  0  0  0  0  0  0  0  0  0  0  # atno 17370 bound_to 10713
  157.5231  130.8011  149.7832 LP  0  0  0  0  0  0  0  0  0  0  0  0  # atno 17371 bound_to 10713
  140.7041  133.9280  155.8043 LP  0  0  0  0  0  0  0  0  0  0  0  0  # atno 17394 bound_to 11000
  141.0349  134.0703  157.3970 LP  0  0  0  0  0  0  0  0  0  0  0  0  # atno 17395 bound_to 11000

$$$$
