AV-unprocessed.smi:1970|AV-procd|sdf|7960|dock4
  -GOLD-   2272010133D 1   1.00000     0.00000
 Structure written by MMmdl.
 33 34  0  0  0  0  0  0  0  0  1 V2000
  150.1163  136.5986  158.7911 O   0  0  0  0  0  0  0  0  0  0  0  0
  149.3298  137.5335  158.9423 C   0  0  0  0  0  0  0  0  0  0  0  0
  147.9270  137.2693  159.4953 C   0  0  0  0  0  0  0  0  0  0  0  0
  147.8964  136.0389  160.2883 N   0  0  0  0  0  0  0  0  0  0  0  0
  148.0453  134.7553  159.6108 C   0  0  0  0  0  0  0  0  0  0  0  0
  147.5285  133.4845  160.7929 S   0  0  0  0  0  0  0  0  0  0  0  0
  147.6895  134.6014  162.1958 C   0  0  0  0  0  0  0  0  0  0  0  0
  147.7307  136.0071  161.6223 C   0  0  0  0  0  0  0  0  0  0  0  0
  147.6131  136.9974  162.3432 O   0  0  0  0  0  0  0  0  0  0  0  0
  149.6294  138.8087  158.6494 N   0  0  0  0  0  0  0  0  0  0  0  0
  150.8856  139.2730  158.0651 C   0  0  0  0  0  0  0  0  0  0  0  0
  151.7304  140.1004  159.0562 C   0  0  0  0  0  0  0  0  0  0  0  0
  151.6137  141.6028  158.8587 C   0  0  0  0  0  0  0  0  0  0  0  0
  152.4483  142.4930  159.5684 C   0  0  0  0  0  0  0  0  0  0  0  0
  152.2682  143.8768  159.3802 C   0  0  0  0  0  0  0  0  0  0  0  0
  151.2714  144.3155  158.4881 C   0  0  0  0  0  0  0  0  0  0  0  0
  150.4978  143.3465  157.8187 C   0  0  0  0  0  0  0  0  0  0  0  0
  150.6611  142.0173  157.9932 N   0  0  0  0  0  0  0  0  0  0  0  0
  147.6341  138.1147  160.1193 H   0  0  0  0  0  0  0  0  0  0  0  0
  147.1957  137.2204  158.6863 H   0  0  0  0  0  0  0  0  0  0  0  0
  147.4369  134.7001  158.7076 H   0  0  0  0  0  0  0  0  0  0  0  0
  149.0895  134.6028  159.3365 H   0  0  0  0  0  0  0  0  0  0  0  0
  146.8520  134.4782  162.8826 H   0  0  0  0  0  0  0  0  0  0  0  0
  148.6159  134.3959  162.7325 H   0  0  0  0  0  0  0  0  0  0  0  0
  148.9206  139.5087  158.8152 H   0  0  0  0  0  0  0  0  0  0  0  0
  151.4521  138.3940  157.7570 H   0  0  0  0  0  0  0  0  0  0  0  0
  150.6984  139.8463  157.1556 H   0  0  0  0  0  0  0  0  0  0  0  0
  151.4441  139.8508  160.0787 H   0  0  0  0  0  0  0  0  0  0  0  0
  152.7797  139.8190  158.9614 H   0  0  0  0  0  0  0  0  0  0  0  0
  153.1979  142.1262  160.2537 H   0  0  0  0  0  0  0  0  0  0  0  0
  152.8807  144.5885  159.9137 H   0  0  0  0  0  0  0  0  0  0  0  0
  151.1036  145.3690  158.3201 H   0  0  0  0  0  0  0  0  0  0  0  0
  149.7260  143.6467  157.1256 H   0  0  0  0  0  0  0  0  0  0  0  0
  1  2  2  0  0  0  0
  2  3  1  0  0  0  0
  2 10  1  0  0  0  0
  3  4  1  0  0  0  0
  3 19  1  0  0  0  0
  3 20  1  0  0  0  0
  4  8  1  0  0  0  0
  4  5  1  0  0  0  0
  5  6  1  0  0  0  0
  5 21  1  0  0  0  0
  5 22  1  0  0  0  0
  6  7  1  0  0  0  0
  7  8  1  0  0  0  0
  7 23  1  0  0  0  0
  7 24  1  0  0  0  0
  8  9  2  0  0  0  0
 10 11  1  0  0  0  0
 10 25  1  0  0  0  0
 11 12  1  0  0  0  0
 11 26  1  0  0  0  0
 11 27  1  0  0  0  0
 12 13  1  0  0  0  0
 12 28  1  0  0  0  0
 12 29  1  0  0  0  0
 13 18  1  0  0  0  0
 13 14  2  0  0  0  0
 14 15  1  0  0  0  0
 14 30  1  0  0  0  0
 15 16  2  0  0  0  0
 15 31  1  0  0  0  0
 16 17  1  0  0  0  0
 16 32  1  0  0  0  0
 17 18  2  0  0  0  0
 17 33  1  0  0  0  0
M  END
> <s_m_source_file>
AV-unprocessed.smi

> <i_m_source_file_index>
1970

> <i_lp_mmshare_version>
43012

> <i_f3d_flags>
0

> <s_epik_input>
Tz1DMVtDSDJdU1tDSDJdTjFbQ0gyXUMoPU8pW05IXVtDSDJdW0NIMl1jMltjSF1bY0hdW2NIXVtjSF1uMg==

> <s_epik_cmdline>
J2VwaWtfcHl0aG9uJywgJy1waCcsICc3LjAnLCAnLXRuJywgJzgnLCAnLW1hJywgJzIwMCcsICctbWV0YWxfYmluZGluZycsICctaW1hZScsICc8aW5maWxlLm1hZT4nLCAnLW9tYWUnLCAnPG91dGZpbGUubWFlPic=

> <r_epik_Ionization_Penalty>
0.0255556

> <r_epik_Ionization_Penalty_Charging>
0

> <r_epik_Ionization_Penalty_Neutral>
0.0255556

> <r_epik_State_Penalty>
0.0208108

> <r_epik_Charging_Adjusted_Penalty>
0.0208108

> <i_epik_Tot_Q>
0

> <i_epik_Tot_abs_Q>
0

> <r_epik_Metal_State_Penalty>
0.0199448

> <b_epik_Metal_Only>
0

> <s_epik_Chemistry_Notes>
This compound contains an acetal/aminal-like group ( X-CH(R)-Y where X, Y are N, S, or O) that may be acid/base labile, releasing an aldehyde.

> <s_lp_Force_Field>
OPLS_2005

> <r_lp_Energy>
5.35786

> <b_lp_Chiralities_Consistent>
1

> <s_lp_Variant>
AV-unprocessed.smi:1970-1

> <Gold.Version>
5.8.1

> <Gold.Id.Protein>
6NUR|6NUR_protein|mol2

> <Gold.PLP.Fitness>
48.1871

> <Gold.PLP.PLP>
-39.0479

> <Gold.PLP.part.hbond>
-3.0000

> <Gold.PLP.part.metal>
0.0000

> <Gold.PLP.part.buried>
-4.3526

> <Gold.PLP.part.nonpolar>
-31.5304

> <Gold.PLP.part.repulsive>
0.1974

> <Gold.PLP.ligand.clash>
0.0000

> <Gold.PLP.ligand.torsion>
0.8155

> <Gold.PLP.Chemscore.Hbond>
2.5840

> <Gold.PLP.Chemscore.CHOScore>
1.0000

> <Gold.PLP.Chemscore.Metal>
0.0000

> <Gold.Chemscore.Hbonds>
donor molecule, donor type, donor heavy atom, donor atom, acceptor molecule, acceptor atom, score
      P1  H  6896  6908       L1     1  0.91
      P1  H  6931  6943       L1     9  0.98
      L1  C    17    33       P1  8028  0.90

> <Gold.PLP.Chemscore.Internal.Correction>
0.0182

> <Gold.Rescore>
     Score         DG    S(hbond)    S(metal)    S(lipo)     H(rot)  DE(clash)    DE(int)     intcor
     18.04     -19.00       2.71        0.00      80.18       1.92       0.00       0.95       ----

> <Gold.Chemscore.Fitness>
18.0426

> <Gold.Chemscore.DG>
-18.9956

> <Gold.Chemscore.ZeroCoef>
-5.4800

> <Gold.Chemscore.Hbond>
2.7107

> <Gold.Chemscore.Metal>
0.0000

> <Gold.Chemscore.Lipo>
80.1795

> <Gold.Chemscore.Internal_Hbond>
0.0000

> <Gold.Chemscore.DEClash>
0.0000

> <Gold.Chemscore.DEInternal>
0.9530

> <Gold.Chemscore.Rot>
1.9215

> <Gold.Chemscore.Internal.Correction>
   9.000000E+99

> <Gold.Chemscore.Hbonds>
donor molecule, donor type, donor heavy atom, donor atom, acceptor molecule, acceptor atom, score
      P1  H  6896  6908       L1     1  0.87
      P1  H  6931  6943       L1     9  0.65
      P1  H  6934  6947       L1     9  0.01

> <Gold.Chemscore.Hbond.Weighted>
-9.0536

> <Gold.Chemscore.Metal.Weighted>
-0.0000

> <Gold.Chemscore.Lipo.Weighted>
-9.3810

> <Gold.Chemscore.Internal_Hbond.Weighted>
0.0000

> <Gold.Chemscore.DEClash.Weighted>
0.0000

> <Gold.Chemscore.DEInternal.Weighted>
0.9530

> <Gold.Chemscore.Rot.Weighted>
4.9190

> <Gold.Chemscore.Internal.Correction.Weighted>
   9.000000E+99

> <Gold.Protein.RotatedTorsions>
[ 6907 6896 6895 6894 ] final -164.21 input  -60.11 | X-H torsion
[ 7974 7965 7964 7962 ] final  -34.96 input  175.53 | X-H torsion
[ 8008 7997 7996 7995 ] final  114.46 input   59.86 | X-H torsion
[ 10167 10162 10161 10158 ] final   98.08 input  -65.29 | X-H torsion
[ 10718 10713 10712 10709 ] final  110.27 input   66.30 | X-H torsion
[ 10763 10752 10751 10750 ] final -108.76 input  -60.55 | X-H torsion
[ 11005 11000 10999 10996 ] final   19.10 input  -57.11 | X-H torsion

> <Gold.Protein.ActiveResidues>
 VAL166  LYS551  ARG553  GLY616  TRP617  ASP618  TYR619  PRO620  LYS621  CYS622 
 ASP623  PHE694  ASN695  SER759  ASP760  ASP761  ALA762  ILE779  LEU786  VAL792 
 PHE793  MET794  SER795  GLU796  ALA797  LYS798  CYS799  TRP800  GLU811  SER814 

> <Gold.Protein.RotatedAtoms>
  151.4083  133.3735  159.2740 H   0  0  0  0  0  0  0  0  0  0  0  0  # atno 6907 bound_to 6896
  150.9382  134.8794  159.7606 H   0  0  0  0  0  0  0  0  0  0  0  0  # atno 6908 bound_to 6896
  152.5059  134.4032  159.9475 H   0  0  0  0  0  0  0  0  0  0  0  0  # atno 6909 bound_to 6896
  146.0786  140.6101  142.8919 H   0  0  0  0  0  0  0  0  0  0  0  0  # atno 7974 bound_to 7965
  156.2323  140.2958  156.0219 H   0  0  0  0  0  0  0  0  0  0  0  0  # atno 8008 bound_to 7997
  155.2191  140.0415  157.2963 H   0  0  0  0  0  0  0  0  0  0  0  0  # atno 8009 bound_to 7997
  154.6016  140.2428  155.7792 H   0  0  0  0  0  0  0  0  0  0  0  0  # atno 8010 bound_to 7997
  139.7741  144.6912  151.0114 H   0  0  0  0  0  0  0  0  0  0  0  0  # atno 10167 bound_to 10162
  157.6502  131.0929  150.6577 H   0  0  0  0  0  0  0  0  0  0  0  0  # atno 10718 bound_to 10713
  154.8154  135.4626  154.0629 H   0  0  0  0  0  0  0  0  0  0  0  0  # atno 10763 bound_to 10752
  153.2026  135.6871  153.8219 H   0  0  0  0  0  0  0  0  0  0  0  0  # atno 10764 bound_to 10752
  153.7698  135.3272  155.3327 H   0  0  0  0  0  0  0  0  0  0  0  0  # atno 10765 bound_to 10752
  140.4174  134.1554  155.7670 H   0  0  0  0  0  0  0  0  0  0  0  0  # atno 11005 bound_to 11000
  144.7278  140.4579  143.6960 LP  0  0  0  0  0  0  0  0  0  0  0  0  # atno 17320 bound_to 7965
  145.6259  139.1530  143.2996 LP  0  0  0  0  0  0  0  0  0  0  0  0  # atno 17321 bound_to 7965
  140.7815  143.4555  151.0351 LP  0  0  0  0  0  0  0  0  0  0  0  0  # atno 17342 bound_to 10162
  139.8238  143.7784  152.3178 LP  0  0  0  0  0  0  0  0  0  0  0  0  # atno 17343 bound_to 10162
  156.6889  130.4589  149.5605 LP  0  0  0  0  0  0  0  0  0  0  0  0  # atno 17370 bound_to 10713
  156.1876  130.6539  151.1024 LP  0  0  0  0  0  0  0  0  0  0  0  0  # atno 17371 bound_to 10713
  141.1797  133.8439  157.1299 LP  0  0  0  0  0  0  0  0  0  0  0  0  # atno 17394 bound_to 11000
  140.0224  134.9939  157.0618 LP  0  0  0  0  0  0  0  0  0  0  0  0  # atno 17395 bound_to 11000

$$$$
