AV-unprocessed.smi:2135|AV-procd|sdf|8701|dock4
  -GOLD-   2272011463D 1   1.00000     0.00000
 Structure written by MMmdl.
 43 44  0  0  0  0  0  0  0  0  2 V2000
  151.9588  137.8160  153.2054 C   0  0  0  0  0  0  0  0  0  0  0  0
  152.3141  137.8774  155.0091 S   0  0  0  0  0  0  0  0  0  0  0  0
  152.3171  136.4989  155.5226 O   0  0  0  0  0  0  0  0  0  0  0  0
  153.4916  138.7346  155.2145 O   0  0  0  0  0  0  0  0  0  0  0  0
  150.9368  138.6962  155.6885 N   0  0  0  0  0  0  0  0  0  0  0  0
  151.1120  139.9928  156.3739 C   0  0  0  0  0  0  0  0  0  0  0  0
  150.6875  141.1705  155.4788 C   0  0  0  0  0  0  0  0  0  0  0  0
  149.2628  140.9782  154.9464 C   0  0  0  0  0  0  0  0  0  0  0  0
  149.1650  139.6382  154.1952 C   0  0  2  0  0  0  0  0  0  0  0  0
  147.7478  139.4049  153.6551 C   0  0  0  0  0  0  0  0  0  0  0  0
  146.8201  140.1352  154.0056 O   0  0  0  0  0  0  0  0  0  0  0  0
  147.5917  138.3783  152.8048 N   0  0  0  0  0  0  0  0  0  0  0  0
  146.3278  137.9844  152.1944 C   0  0  0  0  0  0  0  0  0  0  0  0
  145.4431  137.2025  153.1795 C   0  0  0  0  0  0  0  0  0  0  0  0
  144.8455  135.9615  152.5467 C   0  0  0  0  0  0  0  0  0  0  0  0
  144.8871  135.7737  151.1475 C   0  0  0  0  0  0  0  0  0  0  0  0
  144.3176  134.6102  150.5892 C   0  0  0  0  0  0  0  0  0  0  0  0
  143.7184  133.6614  151.4429 C   0  0  0  0  0  0  0  0  0  0  0  0
  143.6975  133.8755  152.7768 N   0  3  0  0  0  0  0  0  0  0  0  0
  144.2324  134.9759  153.3502 C   0  0  0  0  0  0  0  0  0  0  0  0
  149.5912  138.4766  155.1199 C   0  0  0  0  0  0  0  0  0  0  0  0
  152.7910  137.3303  152.6963 H   0  0  0  0  0  0  0  0  0  0  0  0
  151.8475  138.8260  152.8150 H   0  0  0  0  0  0  0  0  0  0  0  0
  151.0520  137.2421  153.0241 H   0  0  0  0  0  0  0  0  0  0  0  0
  150.5043  139.9869  157.2795 H   0  0  0  0  0  0  0  0  0  0  0  0
  152.1450  140.1154  156.6981 H   0  0  0  0  0  0  0  0  0  0  0  0
  150.7478  142.1008  156.0442 H   0  0  0  0  0  0  0  0  0  0  0  0
  151.3790  141.2778  154.6442 H   0  0  0  0  0  0  0  0  0  0  0  0
  148.5577  141.0040  155.7790 H   0  0  0  0  0  0  0  0  0  0  0  0
  149.0002  141.8061  154.2867 H   0  0  0  0  0  0  0  0  0  0  0  0
  149.8459  139.6789  153.3452 H   0  0  0  0  0  0  0  0  0  0  0  0
  148.4056  137.8295  152.5679 H   0  0  0  0  0  0  0  0  0  0  0  0
  145.8032  138.8672  151.8248 H   0  0  0  0  0  0  0  0  0  0  0  0
  146.5494  137.3676  151.3230 H   0  0  0  0  0  0  0  0  0  0  0  0
  146.0230  136.9159  154.0581 H   0  0  0  0  0  0  0  0  0  0  0  0
  144.6295  137.8324  153.5420 H   0  0  0  0  0  0  0  0  0  0  0  0
  145.3488  136.5117  150.5077 H   0  0  0  0  0  0  0  0  0  0  0  0
  144.3396  134.4483  149.5213 H   0  0  0  0  0  0  0  0  0  0  0  0
  143.2588  132.7449  151.1018 H   0  0  0  0  0  0  0  0  0  0  0  0
  144.1524  135.0350  154.4262 H   0  0  0  0  0  0  0  0  0  0  0  0
  149.5624  137.5289  154.5821 H   0  0  0  0  0  0  0  0  0  0  0  0
  148.8870  138.3782  155.9474 H   0  0  0  0  0  0  0  0  0  0  0  0
  143.2589  133.1767  153.3772 H   0  0  0  0  0  0  0  0  0  0  0  0
  1  2  1  0  0  0  0
  1 22  1  0  0  0  0
  1 23  1  0  0  0  0
  1 24  1  0  0  0  0
  2  3  2  0  0  0  0
  2  4  2  0  0  0  0
  2  5  1  0  0  0  0
  5 21  1  0  0  0  0
  5  6  1  0  0  0  0
  6  7  1  0  0  0  0
  6 25  1  0  0  0  0
  6 26  1  0  0  0  0
  7  8  1  0  0  0  0
  7 27  1  0  0  0  0
  7 28  1  0  0  0  0
  8  9  1  0  0  0  0
  8 29  1  0  0  0  0
  8 30  1  0  0  0  0
  9 10  1  0  0  0  0
  9 21  1  0  0  0  0
  9 31  1  0  0  0  0
 10 11  2  0  0  0  0
 10 12  1  0  0  0  0
 12 13  1  0  0  0  0
 12 32  1  0  0  0  0
 13 14  1  0  0  0  0
 13 33  1  0  0  0  0
 13 34  1  0  0  0  0
 14 15  1  0  0  0  0
 14 35  1  0  0  0  0
 14 36  1  0  0  0  0
 15 20  1  0  0  0  0
 15 16  2  0  0  0  0
 16 17  1  0  0  0  0
 16 37  1  0  0  0  0
 17 18  2  0  0  0  0
 17 38  1  0  0  0  0
 18 19  1  0  0  0  0
 18 39  1  0  0  0  0
 19 20  2  0  0  0  0
 19 43  1  0  0  0  0
 20 40  1  0  0  0  0
 21 41  1  0  0  0  0
 21 42  1  0  0  0  0
M  CHG  1  19   1
M  END
> <s_m_source_file>
AV-unprocessed.smi

> <i_m_source_file_index>
2135

> <i_lp_mmshare_version>
43012

> <i_f3d_flags>
0

> <s_epik_input>
W0NIM11TKD1PKSg9TylOMVtDSDJdW0NIMl1bQ0gyXVtDQEhdKFtDSDJdMSlDKD1PKVtOSF1bQ0gyXVtDSDJdYzJbY0hdW2NIXVtjSF1uW2NIXTI=

> <s_epik_cmdline>
J2VwaWtfcHl0aG9uJywgJy1waCcsICc3LjAnLCAnLXRuJywgJzgnLCAnLW1hJywgJzIwMCcsICctbWV0YWxfYmluZGluZycsICctaW1hZScsICc8aW5maWxlLm1hZT4nLCAnLW9tYWUnLCAnPG91dGZpbGUubWFlPic=

> <r_epik_Ionization_Penalty>
2.24912

> <r_epik_Ionization_Penalty_Charging>
2.24912

> <r_epik_Ionization_Penalty_Neutral>
2.62834e-08

> <r_epik_State_Penalty>
2.39611

> <r_epik_Charging_Adjusted_Penalty>
4.64523

> <i_epik_Tot_Q>
1

> <i_epik_Tot_abs_Q>
1

> <r_epik_Metal_State_Penalty>
2.40934

> <b_epik_Metal_Only>
0

> <s_lp_Force_Field>
OPLS_2005

> <r_lp_Energy>
6.9467

> <b_lp_Chiralities_Consistent>
1

> <s_lp_Variant>
AV-unprocessed.smi:2135-4

> <Gold.Version>
5.8.1

> <Gold.Id.Protein>
6NUR|6NUR_protein|mol2

> <Gold.PLP.Fitness>
43.8870

> <Gold.PLP.PLP>
-31.1445

> <Gold.PLP.part.hbond>
-4.6420

> <Gold.PLP.part.metal>
0.0000

> <Gold.PLP.part.buried>
-3.3373

> <Gold.PLP.part.nonpolar>
-24.3164

> <Gold.PLP.part.repulsive>
0.2058

> <Gold.PLP.ligand.clash>
0.0000

> <Gold.PLP.ligand.torsion>
1.8624

> <Gold.PLP.Chemscore.Hbond>
4.7985

> <Gold.PLP.Chemscore.CHOScore>
0.0000

> <Gold.PLP.Chemscore.Metal>
0.0000

> <Gold.Chemscore.Hbonds>
donor molecule, donor type, donor heavy atom, donor atom, acceptor molecule, acceptor atom, score
      L1  H    12    32       P1  7948  0.90
      L1  H    19    43       P1 10957  1.79
      P1  H  7997  8009       L1     4  0.94
      P1  H 10752 10765       L1     3  0.64

> <Gold.PLP.Chemscore.Internal.Correction>
2.0719

> <Gold.Rescore>
     Score         DG    S(hbond)    S(metal)    S(lipo)     H(rot)  DE(clash)    DE(int)     intcor
     18.69     -21.88       3.64        0.00      72.52       1.65       1.37       1.82       ----

> <Gold.Chemscore.Fitness>
18.6928

> <Gold.Chemscore.DG>
-21.8821

> <Gold.Chemscore.ZeroCoef>
-5.4800

> <Gold.Chemscore.Hbond>
3.6380

> <Gold.Chemscore.Metal>
0.0000

> <Gold.Chemscore.Lipo>
72.5197

> <Gold.Chemscore.Internal_Hbond>
0.0000

> <Gold.Chemscore.DEClash>
1.3726

> <Gold.Chemscore.DEInternal>
1.8166

> <Gold.Chemscore.Rot>
1.6538

> <Gold.Chemscore.Internal.Correction>
   9.000000E+99

> <Gold.Chemscore.Hbonds>
donor molecule, donor type, donor heavy atom, donor atom, acceptor molecule, acceptor atom, score
      L1  H    12    32       P1  7948  0.88
      L1  H    19    43       P1 10957  0.79
      P1  H  7997  8009       L1     4  0.91
      P1  H 10752 10765       L1     3  0.60

> <Gold.Chemscore.Hbond.Weighted>
-12.1510

> <Gold.Chemscore.Metal.Weighted>
-0.0000

> <Gold.Chemscore.Lipo.Weighted>
-8.4848

> <Gold.Chemscore.Internal_Hbond.Weighted>
0.0000

> <Gold.Chemscore.DEClash.Weighted>
1.3726

> <Gold.Chemscore.DEInternal.Weighted>
1.8166

> <Gold.Chemscore.Rot.Weighted>
4.2337

> <Gold.Chemscore.Internal.Correction.Weighted>
   9.000000E+99

> <Gold.Protein.RotatedTorsions>
[ 6907 6896 6895 6894 ] final -177.57 input  -60.11 | X-H torsion
[ 7974 7965 7964 7962 ] final -104.14 input  175.53 | X-H torsion
[ 8008 7997 7996 7995 ] final -140.92 input   59.86 | X-H torsion
[ 10167 10162 10161 10158 ] final  114.92 input  -65.29 | X-H torsion
[ 10718 10713 10712 10709 ] final   81.28 input   66.30 | X-H torsion
[ 10763 10752 10751 10750 ] final -146.09 input  -60.55 | X-H torsion
[ 11005 11000 10999 10996 ] final   10.10 input  -57.11 | X-H torsion

> <Gold.Protein.ActiveResidues>
 VAL166  LYS551  ARG553  GLY616  TRP617  ASP618  TYR619  PRO620  LYS621  CYS622 
 ASP623  PHE694  ASN695  SER759  ASP760  ASP761  ALA762  ILE779  LEU786  VAL792 
 PHE793  MET794  SER795  GLU796  ALA797  LYS798  CYS799  TRP800  GLU811  SER814 

> <Gold.Protein.RotatedAtoms>
  151.6232  133.3337  159.3092 H   0  0  0  0  0  0  0  0  0  0  0  0  # atno 6907 bound_to 6896
  150.8095  134.7245  159.6686 H   0  0  0  0  0  0  0  0  0  0  0  0  # atno 6908 bound_to 6896
  152.4191  134.5992  160.0047 H   0  0  0  0  0  0  0  0  0  0  0  0  # atno 6909 bound_to 6896
  145.2469  140.9225  143.3117 H   0  0  0  0  0  0  0  0  0  0  0  0  # atno 7974 bound_to 7965
  155.4693  140.0551  157.2981 H   0  0  0  0  0  0  0  0  0  0  0  0  # atno 8008 bound_to 7997
  154.4705  140.2038  155.9961 H   0  0  0  0  0  0  0  0  0  0  0  0  # atno 8009 bound_to 7997
  156.1047  140.3213  155.7995 H   0  0  0  0  0  0  0  0  0  0  0  0  # atno 8010 bound_to 7997
  139.6354  144.7119  151.2346 H   0  0  0  0  0  0  0  0  0  0  0  0  # atno 10167 bound_to 10162
  157.6829  130.9997  150.2203 H   0  0  0  0  0  0  0  0  0  0  0  0  # atno 10718 bound_to 10713
  154.8353  135.3396  154.6606 H   0  0  0  0  0  0  0  0  0  0  0  0  # atno 10763 bound_to 10752
  153.7222  135.6957  153.5014 H   0  0  0  0  0  0  0  0  0  0  0  0  # atno 10764 bound_to 10752
  153.2373  135.4396  155.0613 H   0  0  0  0  0  0  0  0  0  0  0  0  # atno 10765 bound_to 10752
  140.5183  134.0584  155.7837 H   0  0  0  0  0  0  0  0  0  0  0  0  # atno 11005 bound_to 11000
  144.9538  139.4054  143.6389 LP  0  0  0  0  0  0  0  0  0  0  0  0  # atno 17320 bound_to 7965
  146.3313  139.8558  142.8865 LP  0  0  0  0  0  0  0  0  0  0  0  0  # atno 17321 bound_to 7965
  140.7462  143.6406  150.8338 LP  0  0  0  0  0  0  0  0  0  0  0  0  # atno 17342 bound_to 10162
  140.0036  143.5717  152.2866 LP  0  0  0  0  0  0  0  0  0  0  0  0  # atno 17343 bound_to 10162
  156.2856  130.3739  149.7892 LP  0  0  0  0  0  0  0  0  0  0  0  0  # atno 17370 bound_to 10713
  156.5567  130.8365  151.3316 LP  0  0  0  0  0  0  0  0  0  0  0  0  # atno 17371 bound_to 10713
  141.1348  133.9240  157.2457 LP  0  0  0  0  0  0  0  0  0  0  0  0  # atno 17394 bound_to 11000
  139.9620  135.0152  156.9286 LP  0  0  0  0  0  0  0  0  0  0  0  0  # atno 17395 bound_to 11000

$$$$
