AV-unprocessed.smi:168|AV-procd|sdf|1396|dock7
  -GOLD-   2262019143D 1   1.00000     0.00000
 Structure written by MMmdl.
 62 66  0  0  0  0  0  0  0  0  1 V2000
  154.3934  139.2590  160.1583 C   0  0  0  0  0  0  0  0  0  0  0  0
  154.1028  140.7633  160.3012 C   0  0  0  0  0  0  0  0  0  0  0  0
  154.3744  141.1878  161.7543 C   0  0  0  0  0  0  0  0  0  0  0  0
  152.6683  141.1174  159.8749 C   0  0  2  0  0  0  0  0  0  0  0  0
  152.3454  140.7177  158.5078 N   0  0  0  0  0  0  0  0  0  0  0  0
  151.7409  139.4414  158.3465 C   0  0  0  0  0  0  0  0  0  0  0  0
  151.5889  138.7025  159.4743 N   0  0  0  0  0  0  0  0  0  0  0  0
  151.0229  137.4935  159.4388 C   0  0  0  0  0  0  0  0  0  0  0  0
  150.5454  136.8284  158.3872 N   0  0  0  0  0  0  0  0  0  0  0  0
  150.6998  137.5494  157.2411 C   0  0  0  0  0  0  0  0  0  0  0  0
  151.2746  138.8492  157.1330 C   0  0  0  0  0  0  0  0  0  0  0  0
  151.2426  139.2617  155.8052 N   0  0  0  0  0  0  0  0  0  0  0  0
  150.6765  138.2722  155.1713 C   0  0  0  0  0  0  0  0  0  0  0  0
  150.3469  137.1886  155.9520 N   0  0  0  0  0  0  0  0  0  0  0  0
  149.6857  135.9909  155.5211 C   0  0  0  0  0  0  0  0  0  0  0  0
  149.2887  134.9014  156.5242 C   0  0  0  0  0  0  0  0  0  0  0  0
  149.6492  133.8074  155.4935 C   0  0  0  0  0  0  0  0  0  0  0  0
  150.4645  132.6130  156.0238 C   0  0  0  0  0  0  0  0  0  0  0  0
  151.2287  132.9344  157.1693 O   0  0  0  0  0  0  0  0  0  0  0  0
  148.4670  133.1780  154.7268 C   0  0  0  0  0  0  0  0  0  0  0  0
  148.8677  132.3945  153.6209 O   0  0  0  0  0  0  0  0  0  0  0  0
  150.4426  134.9045  154.7471 C   0  0  0  0  0  0  0  0  0  0  0  0
  151.4233  141.8337  158.3710 C   0  0  0  0  0  0  0  0  0  0  0  0
  152.2549  142.5479  159.4490 C   0  0  0  0  0  0  0  0  0  0  0  0
  153.3529  143.4909  158.9049 C   0  0  0  0  0  0  0  0  0  0  0  0
  152.7823  144.7876  158.3051 C   0  0  0  0  0  0  0  0  0  0  0  0
  151.9254  145.5422  159.3297 C   0  0  0  0  0  0  0  0  0  0  0  0
  150.8454  144.6319  159.9287 C   0  0  0  0  0  0  0  0  0  0  0  0
  151.4573  143.3405  160.4968 C   0  0  0  0  0  0  0  0  0  0  0  0
  153.6816  138.6617  160.7290 H   0  0  0  0  0  0  0  0  0  0  0  0
  155.3942  139.0159  160.5161 H   0  0  0  0  0  0  0  0  0  0  0  0
  154.3408  138.9364  159.1193 H   0  0  0  0  0  0  0  0  0  0  0  0
  154.8112  141.2979  159.6673 H   0  0  0  0  0  0  0  0  0  0  0  0
  153.7163  140.6614  162.4462 H   0  0  0  0  0  0  0  0  0  0  0  0
  154.2209  142.2540  161.9081 H   0  0  0  0  0  0  0  0  0  0  0  0
  155.4024  140.9664  162.0422 H   0  0  0  0  0  0  0  0  0  0  0  0
  151.9381  140.7288  160.5848 H   0  0  0  0  0  0  0  0  0  0  0  0
  150.9431  136.9864  160.3889 H   0  0  0  0  0  0  0  0  0  0  0  0
  150.4900  138.3050  154.1078 H   0  0  0  0  0  0  0  0  0  0  0  0
  148.8138  136.3245  154.9571 H   0  0  0  0  0  0  0  0  0  0  0  0
  149.9308  134.9004  157.4060 H   0  0  0  0  0  0  0  0  0  0  0  0
  148.2382  134.9270  156.8154 H   0  0  0  0  0  0  0  0  0  0  0  0
  149.8084  131.7822  156.2859 H   0  0  0  0  0  0  0  0  0  0  0  0
  151.1504  132.2429  155.2610 H   0  0  0  0  0  0  0  0  0  0  0  0
  152.1045  132.5993  157.0507 H   0  0  0  0  0  0  0  0  0  0  0  0
  147.8756  132.5404  155.3847 H   0  0  0  0  0  0  0  0  0  0  0  0
  147.7939  133.9515  154.3554 H   0  0  0  0  0  0  0  0  0  0  0  0
  148.6624  132.8662  152.8282 H   0  0  0  0  0  0  0  0  0  0  0  0
  150.2812  134.9322  153.6690 H   0  0  0  0  0  0  0  0  0  0  0  0
  151.5094  134.9007  154.9749 H   0  0  0  0  0  0  0  0  0  0  0  0
  151.4512  142.3004  157.3863 H   0  0  0  0  0  0  0  0  0  0  0  0
  150.4025  141.6136  158.6860 H   0  0  0  0  0  0  0  0  0  0  0  0
  154.0547  143.7586  159.6931 H   0  0  0  0  0  0  0  0  0  0  0  0
  153.9481  142.9860  158.1432 H   0  0  0  0  0  0  0  0  0  0  0  0
  153.5949  145.4268  157.9593 H   0  0  0  0  0  0  0  0  0  0  0  0
  152.1806  144.5545  157.4263 H   0  0  0  0  0  0  0  0  0  0  0  0
  152.5654  145.9182  160.1288 H   0  0  0  0  0  0  0  0  0  0  0  0
  151.4655  146.4146  158.8645 H   0  0  0  0  0  0  0  0  0  0  0  0
  150.3048  145.1636  160.7123 H   0  0  0  0  0  0  0  0  0  0  0  0
  150.1111  144.3820  159.1621 H   0  0  0  0  0  0  0  0  0  0  0  0
  150.6572  142.7237  160.9074 H   0  0  0  0  0  0  0  0  0  0  0  0
  152.0979  143.5896  161.3436 H   0  0  0  0  0  0  0  0  0  0  0  0
  1  2  1  0  0  0  0
  1 30  1  0  0  0  0
  1 31  1  0  0  0  0
  1 32  1  0  0  0  0
  2  3  1  0  0  0  0
  2  4  1  0  0  0  0
  2 33  1  0  0  0  0
  3 34  1  0  0  0  0
  3 35  1  0  0  0  0
  3 36  1  0  0  0  0
  4 24  1  0  0  0  0
  4  5  1  0  0  0  0
  4 37  1  0  0  0  0
  5  6  1  0  0  0  0
  5 23  1  0  0  0  0
  6 11  1  0  0  0  0
  6  7  2  0  0  0  0
  7  8  1  0  0  0  0
  8  9  2  0  0  0  0
  8 38  1  0  0  0  0
  9 10  1  0  0  0  0
 10 14  1  0  0  0  0
 10 11  2  0  0  0  0
 11 12  1  0  0  0  0
 12 13  2  0  0  0  0
 13 14  1  0  0  0  0
 13 39  1  0  0  0  0
 14 15  1  0  0  0  0
 15 22  1  0  0  0  0
 15 16  1  0  0  0  0
 15 40  1  0  0  0  0
 16 17  1  0  0  0  0
 16 41  1  0  0  0  0
 16 42  1  0  0  0  0
 17 18  1  0  0  0  0
 17 20  1  0  0  0  0
 17 22  1  0  0  0  0
 18 19  1  0  0  0  0
 18 43  1  0  0  0  0
 18 44  1  0  0  0  0
 19 45  1  0  0  0  0
 20 21  1  0  0  0  0
 20 46  1  0  0  0  0
 20 47  1  0  0  0  0
 21 48  1  0  0  0  0
 22 49  1  0  0  0  0
 22 50  1  0  0  0  0
 23 24  1  0  0  0  0
 23 51  1  0  0  0  0
 23 52  1  0  0  0  0
 24 29  1  0  0  0  0
 24 25  1  0  0  0  0
 25 26  1  0  0  0  0
 25 53  1  0  0  0  0
 25 54  1  0  0  0  0
 26 27  1  0  0  0  0
 26 55  1  0  0  0  0
 26 56  1  0  0  0  0
 27 28  1  0  0  0  0
 27 57  1  0  0  0  0
 27 58  1  0  0  0  0
 28 29  1  0  0  0  0
 28 59  1  0  0  0  0
 28 60  1  0  0  0  0
 29 61  1  0  0  0  0
 29 62  1  0  0  0  0
M  END
> <s_m_source_file>
AV-unprocessed.smi

> <i_m_source_file_index>
168

> <i_lp_mmshare_version>
43012

> <i_f3d_flags>
0

> <s_epik_input>
W0NIMl0xW0NIMl1bQ0gyXVtDSDJdW0NIMl1DMTJbQ0BIXShbQ0hdKFtDSDNdKVtDSDNdKU4oW0NIMl0yKWMobltjSF1uMyljKGMzNCluW2NIXW40W0NIXShbQ0gyXTUpW0NIMl1DNShbQ0gyXVtPSF0pW0NIMl1bT0hd

> <s_epik_cmdline>
J2VwaWtfcHl0aG9uJywgJy1waCcsICc3LjAnLCAnLXRuJywgJzgnLCAnLW1hJywgJzIwMCcsICctbWV0YWxfYmluZGluZycsICctaW1hZScsICc8aW5maWxlLm1hZT4nLCAnLW9tYWUnLCAnPG91dGZpbGUubWFlPic=

> <r_lp_tautomer_probability>
1

> <r_epik_Ionization_Penalty>
0.00324652

> <r_epik_Ionization_Penalty_Charging>
0

> <r_epik_Ionization_Penalty_Neutral>
0.00324652

> <r_epik_State_Penalty>
0.00223464

> <r_epik_Charging_Adjusted_Penalty>
0.00223464

> <i_epik_Tot_Q>
0

> <i_epik_Tot_abs_Q>
0

> <r_epik_Metal_State_Penalty>
-0

> <b_epik_Metal_Only>
0

> <s_lp_Force_Field>
OPLS_2005

> <r_lp_Energy>
66.0346

> <b_lp_Chiralities_Consistent>
1

> <s_lp_Variant>
AV-unprocessed.smi:168-1

> <Gold.Version>
5.8.1

> <Gold.Id.Protein>
6NUR|6NUR_protein|mol2

> <Gold.PLP.Fitness>
49.3470

> <Gold.PLP.PLP>
-47.6505

> <Gold.PLP.part.hbond>
-1.4724

> <Gold.PLP.part.metal>
0.0000

> <Gold.PLP.part.buried>
-5.2787

> <Gold.PLP.part.nonpolar>
-40.9498

> <Gold.PLP.part.repulsive>
0.0000

> <Gold.PLP.ligand.clash>
0.0000

> <Gold.PLP.ligand.torsion>
1.0139

> <Gold.PLP.Chemscore.Hbond>
0.9551

> <Gold.PLP.Chemscore.CHOScore>
0.0000

> <Gold.PLP.Chemscore.Metal>
0.0000

> <Gold.Chemscore.Hbonds>
donor molecule, donor type, donor heavy atom, donor atom, acceptor molecule, acceptor atom, score
      P1  H  6896  6908       L1    19  0.81
      P1  H  6896  6909       L1     9  0.01

> <Gold.PLP.Chemscore.Internal.Correction>
0.8590

> <Gold.Rescore>
     Score         DG    S(hbond)    S(metal)    S(lipo)     H(rot)  DE(clash)    DE(int)     intcor
     12.43     -17.04       0.79        0.00     144.47       3.12       1.41       3.20       ----

> <Gold.Chemscore.Fitness>
12.4277

> <Gold.Chemscore.DG>
-17.0384

> <Gold.Chemscore.ZeroCoef>
-5.4800

> <Gold.Chemscore.Hbond>
0.7898

> <Gold.Chemscore.Metal>
0.0000

> <Gold.Chemscore.Lipo>
144.4680

> <Gold.Chemscore.Internal_Hbond>
0.0000

> <Gold.Chemscore.DEClash>
1.4123

> <Gold.Chemscore.DEInternal>
3.1984

> <Gold.Chemscore.Rot>
3.1181

> <Gold.Chemscore.Internal.Correction>
   9.000000E+99

> <Gold.Chemscore.Hbonds>
donor molecule, donor type, donor heavy atom, donor atom, acceptor molecule, acceptor atom, score
      P1  H  6896  6908       L1    19  0.23

> <Gold.Chemscore.Hbond.Weighted>
-2.6379

> <Gold.Chemscore.Metal.Weighted>
-0.0000

> <Gold.Chemscore.Lipo.Weighted>
-16.9028

> <Gold.Chemscore.Internal_Hbond.Weighted>
0.0000

> <Gold.Chemscore.DEClash.Weighted>
1.4123

> <Gold.Chemscore.DEInternal.Weighted>
3.1984

> <Gold.Chemscore.Rot.Weighted>
7.9823

> <Gold.Chemscore.Internal.Correction.Weighted>
   9.000000E+99

> <Gold.Protein.RotatedTorsions>
[ 6907 6896 6895 6894 ] final   85.86 input  -60.11 | X-H torsion
[ 7974 7965 7964 7962 ] final  -52.57 input  175.53 | X-H torsion
[ 8008 7997 7996 7995 ] final  140.25 input   59.86 | X-H torsion
[ 10167 10162 10161 10158 ] final -170.68 input  -65.29 | X-H torsion
[ 10718 10713 10712 10709 ] final   62.05 input   66.30 | X-H torsion
[ 10763 10752 10751 10750 ] final  159.51 input  -60.55 | X-H torsion
[ 11005 11000 10999 10996 ] final   99.93 input  -57.11 | X-H torsion

> <Gold.Protein.ActiveResidues>
 VAL166  LYS551  ARG553  GLY616  TRP617  ASP618  TYR619  PRO620  LYS621  CYS622 
 ASP623  PHE694  ASN695  SER759  ASP760  ASP761  ALA762  ILE779  LEU786  VAL792 
 PHE793  MET794  SER795  GLU796  ALA797  LYS798  CYS799  TRP800  GLU811  SER814 

> <Gold.Protein.RotatedAtoms>
  152.5383  134.2521  159.8902 H   0  0  0  0  0  0  0  0  0  0  0  0  # atno 6907 bound_to 6896
  151.2484  133.4356  159.2618 H   0  0  0  0  0  0  0  0  0  0  0  0  # atno 6908 bound_to 6896
  151.0561  134.9720  159.8293 H   0  0  0  0  0  0  0  0  0  0  0  0  # atno 6909 bound_to 6896
  145.9065  140.7951  142.9717 H   0  0  0  0  0  0  0  0  0  0  0  0  # atno 7974 bound_to 7965
  156.2981  140.2346  156.4370 H   0  0  0  0  0  0  0  0  0  0  0  0  # atno 8008 bound_to 7997
  154.8219  140.0437  157.1437 H   0  0  0  0  0  0  0  0  0  0  0  0  # atno 8009 bound_to 7997
  154.9305  140.3016  155.5174 H   0  0  0  0  0  0  0  0  0  0  0  0  # atno 8010 bound_to 7997
  139.5847  144.1345  152.1560 H   0  0  0  0  0  0  0  0  0  0  0  0  # atno 10167 bound_to 10162
  157.5873  130.9029  149.9538 H   0  0  0  0  0  0  0  0  0  0  0  0  # atno 10718 bound_to 10713
  154.2328  135.2777  155.2883 H   0  0  0  0  0  0  0  0  0  0  0  0  # atno 10763 bound_to 10752
  154.5609  135.5647  153.7010 H   0  0  0  0  0  0  0  0  0  0  0  0  # atno 10764 bound_to 10752
  153.0016  135.6297  154.2471 H   0  0  0  0  0  0  0  0  0  0  0  0  # atno 10765 bound_to 10752
  139.8770  134.9117  156.4680 H   0  0  0  0  0  0  0  0  0  0  0  0  # atno 11005 bound_to 11000
  144.6740  140.1759  143.7410 LP  0  0  0  0  0  0  0  0  0  0  0  0  # atno 17320 bound_to 7965
  145.8725  139.2279  143.1652 LP  0  0  0  0  0  0  0  0  0  0  0  0  # atno 17321 bound_to 7965
  140.0906  144.5624  150.7058 LP  0  0  0  0  0  0  0  0  0  0  0  0  # atno 17342 bound_to 10162
  140.7121  143.2513  151.4550 LP  0  0  0  0  0  0  0  0  0  0  0  0  # atno 17343 bound_to 10162
  156.0923  130.3662  150.0372 LP  0  0  0  0  0  0  0  0  0  0  0  0  # atno 17370 bound_to 10713
  156.8501  130.9456  151.3626 LP  0  0  0  0  0  0  0  0  0  0  0  0  # atno 17371 bound_to 10713
  140.8816  133.7913  155.9473 LP  0  0  0  0  0  0  0  0  0  0  0  0  # atno 17394 bound_to 11000
  140.8847  134.2568  157.5126 LP  0  0  0  0  0  0  0  0  0  0  0  0  # atno 17395 bound_to 11000

$$$$
