AV-unprocessed.smi:290|AV-procd|sdf|2221|dock4
  -GOLD-   2262022 63D 1   1.00000     0.00000
 Structure written by MMmdl.
 59 62  0  0  0  0  0  0  0  0  2 V2000
  150.4026  138.0356  154.3522 C   0  0  0  0  0  0  0  0  0  0  0  0
  149.9927  139.2685  155.1755 C   0  0  2  0  0  0  0  0  0  0  0  0
  150.8448  140.3716  154.8687 O   0  0  0  0  0  0  0  0  0  0  0  0
  151.5052  140.8181  156.0433 C   0  0  0  0  0  0  0  0  0  0  0  0
  150.5417  140.4610  157.1670 C   0  0  0  0  0  0  0  0  0  0  0  0
  149.9955  139.1140  156.7177 C   0  0  2  0  0  0  0  0  0  0  0  0
  150.9105  138.1100  157.1292 O   0  0  0  0  0  0  0  0  0  0  0  0
  148.6120  138.8014  157.3367 C   0  0  0  0  0  0  0  0  0  0  0  0
  147.8313  137.8469  156.5651 N   0  0  0  0  0  0  0  0  0  0  0  0
  148.0531  136.4912  156.4625 C   0  0  0  0  0  0  0  0  0  0  0  0
  147.2080  135.8422  155.7080 N   0  0  0  0  0  0  0  0  0  0  0  0
  146.3365  136.8258  155.2605 C   0  0  0  0  0  0  0  0  0  0  0  0
  145.1914  136.8195  154.4232 C   0  0  0  0  0  0  0  0  0  0  0  0
  144.7235  135.6780  153.8692 N   0  0  0  0  0  0  0  0  0  0  0  0
  145.7412  134.6716  153.6355 C   0  0  0  0  0  0  0  0  0  0  0  0
  145.1328  133.6929  152.6298 C   0  0  0  0  0  0  0  0  0  0  0  0
  143.8599  134.3722  152.0813 C   0  0  2  0  0  0  0  0  0  0  0  0
  143.7683  134.2294  150.5932 N   0  3  1  0  0  0  0  0  0  0  0  0
  144.4611  135.3511  149.9071 C   0  0  0  0  0  0  0  0  0  0  0  0
  144.1700  132.8992  150.0525 C   0  0  0  0  0  0  0  0  0  0  0  0
  143.7779  132.6734  148.5797 C   0  0  0  0  0  0  0  0  0  0  0  0
  142.5483  131.9835  148.4991 O   0  0  0  0  0  0  0  0  0  0  0  0
  143.9552  135.8136  152.6372 C   0  0  1  0  0  0  0  0  0  0  0  0
  142.5911  136.4723  152.9423 C   0  0  0  0  0  0  0  0  0  0  0  0
  144.5609  138.0022  154.1958 N   0  0  0  0  0  0  0  0  0  0  0  0
  145.0246  139.1227  154.7584 C   0  0  0  0  0  0  0  0  0  0  0  0
  146.0761  139.2781  155.5662 N   0  0  0  0  0  0  0  0  0  0  0  0
  146.7099  138.0914  155.7915 C   0  0  0  0  0  0  0  0  0  0  0  0
  142.9897  133.8926  152.5342 H   0  0  0  0  0  0  0  0  0  0  0  0
  144.5213  136.4322  151.9392 H   0  0  0  0  0  0  0  0  0  0  0  0
  149.7732  137.1761  154.5822 H   0  0  0  0  0  0  0  0  0  0  0  0
  151.4393  137.7548  154.5391 H   0  0  0  0  0  0  0  0  0  0  0  0
  150.3066  138.2380  153.2855 H   0  0  0  0  0  0  0  0  0  0  0  0
  148.9988  139.5795  154.8541 H   0  0  0  0  0  0  0  0  0  0  0  0
  152.4458  140.2767  156.1539 H   0  0  0  0  0  0  0  0  0  0  0  0
  151.7267  141.8846  155.9990 H   0  0  0  0  0  0  0  0  0  0  0  0
  151.0165  140.4390  158.1489 H   0  0  0  0  0  0  0  0  0  0  0  0
  149.7425  141.2030  157.1999 H   0  0  0  0  0  0  0  0  0  0  0  0
  150.9024  138.0648  158.0728 H   0  0  0  0  0  0  0  0  0  0  0  0
  148.7291  138.4091  158.3479 H   0  0  0  0  0  0  0  0  0  0  0  0
  148.0279  139.7175  157.4342 H   0  0  0  0  0  0  0  0  0  0  0  0
  148.8702  135.9958  156.9665 H   0  0  0  0  0  0  0  0  0  0  0  0
  146.6474  135.1211  153.2261 H   0  0  0  0  0  0  0  0  0  0  0  0
  146.0065  134.1705  154.5672 H   0  0  0  0  0  0  0  0  0  0  0  0
  145.8612  133.4761  151.8471 H   0  0  0  0  0  0  0  0  0  0  0  0
  144.8807  132.7469  153.1107 H   0  0  0  0  0  0  0  0  0  0  0  0
  145.5439  135.2355  149.9693 H   0  0  0  0  0  0  0  0  0  0  0  0
  144.2049  136.3155  150.3451 H   0  0  0  0  0  0  0  0  0  0  0  0
  144.1802  135.4139  148.8568 H   0  0  0  0  0  0  0  0  0  0  0  0
  145.2475  132.7761  150.1695 H   0  0  0  0  0  0  0  0  0  0  0  0
  143.6922  132.1032  150.6209 H   0  0  0  0  0  0  0  0  0  0  0  0
  143.7251  133.6022  148.0133 H   0  0  0  0  0  0  0  0  0  0  0  0
  144.5379  132.0645  148.0894 H   0  0  0  0  0  0  0  0  0  0  0  0
  141.8507  132.5769  148.7347 H   0  0  0  0  0  0  0  0  0  0  0  0
  141.9487  136.5511  152.0684 H   0  0  0  0  0  0  0  0  0  0  0  0
  142.7212  137.4834  153.3294 H   0  0  0  0  0  0  0  0  0  0  0  0
  142.0424  135.9042  153.6944 H   0  0  0  0  0  0  0  0  0  0  0  0
  144.4742  140.0236  154.5299 H   0  0  0  0  0  0  0  0  0  0  0  0
  142.7867  134.3213  150.3723 H   0  0  0  0  0  0  0  0  0  0  0  0
  1  2  1  0  0  0  0
  1 31  1  0  0  0  0
  1 32  1  0  0  0  0
  1 33  1  0  0  0  0
  2  6  1  0  0  0  0
  2  3  1  0  0  0  0
  2 34  1  0  0  0  0
  3  4  1  0  0  0  0
  4  5  1  0  0  0  0
  4 35  1  0  0  0  0
  4 36  1  0  0  0  0
  5  6  1  0  0  0  0
  5 37  1  0  0  0  0
  5 38  1  0  0  0  0
  6  7  1  0  0  0  0
  6  8  1  0  0  0  0
  7 39  1  0  0  0  0
  8  9  1  0  0  0  0
  8 40  1  0  0  0  0
  8 41  1  0  0  0  0
  9 28  1  0  0  0  0
  9 10  1  0  0  0  0
 10 11  2  0  0  0  0
 10 42  1  0  0  0  0
 11 12  1  0  0  0  0
 12 28  2  0  0  0  0
 12 13  1  0  0  0  0
 13 14  1  0  0  0  0
 13 25  2  0  0  0  0
 14 23  1  0  0  0  0
 14 15  1  0  0  0  0
 15 16  1  0  0  0  0
 15 43  1  0  0  0  0
 15 44  1  0  0  0  0
 16 17  1  0  0  0  0
 16 45  1  0  0  0  0
 16 46  1  0  0  0  0
 17 29  1  0  0  0  0
 17 18  1  0  0  0  0
 17 23  1  0  0  0  0
 18 19  1  0  0  0  0
 18 20  1  0  0  0  0
 18 59  1  0  0  0  0
 19 47  1  0  0  0  0
 19 48  1  0  0  0  0
 19 49  1  0  0  0  0
 20 21  1  0  0  0  0
 20 50  1  0  0  0  0
 20 51  1  0  0  0  0
 21 22  1  0  0  0  0
 21 52  1  0  0  0  0
 21 53  1  0  0  0  0
 22 54  1  0  0  0  0
 23 30  1  0  0  0  0
 23 24  1  0  0  0  0
 24 55  1  0  0  0  0
 24 56  1  0  0  0  0
 24 57  1  0  0  0  0
 25 26  1  0  0  0  0
 26 27  2  0  0  0  0
 26 58  1  0  0  0  0
 27 28  1  0  0  0  0
M  CHG  1  18   1
M  END
> <s_m_source_file>
AV-unprocessed.smi

> <i_m_source_file_index>
290

> <i_lp_mmshare_version>
43012

> <i_f3d_flags>
0

> <s_epik_input>
W0NIMl0xW0NIMl1PW0NAQEhdKFtDSDNdKVtDQEBdMShbT0hdKVtDSDJdbihbY0hdbjIpYyhjMjMpbltjSF1uYzNONFtDSDJdW0NIMl1bQ0BIXShbQ0BIXTRbQ0gzXSlOKFtDSDNdKVtDSDJdW0NIMl1bT0hd

> <s_epik_cmdline>
J2VwaWtfcHl0aG9uJywgJy1waCcsICc3LjAnLCAnLXRuJywgJzgnLCAnLW1hJywgJzIwMCcsICctbWV0YWxfYmluZGluZycsICctaW1hZScsICc8aW5maWxlLm1hZT4nLCAnLW9tYWUnLCAnPG91dGZpbGUubWFlPic=

> <r_lp_tautomer_probability>
1

> <r_epik_Ionization_Penalty>
0.0036983

> <r_epik_Ionization_Penalty_Charging>
0.0032725

> <r_epik_Ionization_Penalty_Neutral>
0.000425798

> <r_epik_State_Penalty>
-0

> <r_epik_Charging_Adjusted_Penalty>
0.0032725

> <i_epik_Tot_Q>
1

> <i_epik_Tot_abs_Q>
1

> <r_epik_Metal_State_Penalty>
-0

> <b_epik_Metal_Only>
0

> <s_lp_Force_Field>
OPLS_2005

> <r_lp_Energy>
65.2566

> <b_lp_Chiralities_Consistent>
1

> <s_lp_Variant>
AV-unprocessed.smi:290-7

> <Gold.Version>
5.8.1

> <Gold.Id.Protein>
6NUR|6NUR_protein|mol2

> <Gold.PLP.Fitness>
45.7967

> <Gold.PLP.PLP>
-32.5074

> <Gold.PLP.part.hbond>
-5.2691

> <Gold.PLP.part.metal>
0.0000

> <Gold.PLP.part.buried>
-4.7901

> <Gold.PLP.part.nonpolar>
-22.6197

> <Gold.PLP.part.repulsive>
0.2608

> <Gold.PLP.ligand.clash>
0.0000

> <Gold.PLP.ligand.torsion>
2.0589

> <Gold.PLP.Chemscore.Hbond>
4.8473

> <Gold.PLP.Chemscore.CHOScore>
0.8651

> <Gold.PLP.Chemscore.Metal>
0.0000

> <Gold.Chemscore.Hbonds>
donor molecule, donor type, donor heavy atom, donor atom, acceptor molecule, acceptor atom, score
      L1  H    18    59       P1 10186  2.00
      L1  H    22    54       P1 10186  0.68
      P1  H  7989  7998       L1     3  1.00
      P1  H 10785 10796       L1    22  0.94
      L1  C    26    58       P1 10175  0.87

> <Gold.PLP.Chemscore.Internal.Correction>
0.2698

> <Gold.Rescore>
     Score         DG    S(hbond)    S(metal)    S(lipo)     H(rot)  DE(clash)    DE(int)     intcor
      9.17     -14.20       2.78        0.00      75.39       3.67       0.14       4.88       ----

> <Gold.Chemscore.Fitness>
9.1733

> <Gold.Chemscore.DG>
-14.1963

> <Gold.Chemscore.ZeroCoef>
-5.4800

> <Gold.Chemscore.Hbond>
2.7785

> <Gold.Chemscore.Metal>
0.0000

> <Gold.Chemscore.Lipo>
75.3897

> <Gold.Chemscore.Internal_Hbond>
0.0000

> <Gold.Chemscore.DEClash>
0.1411

> <Gold.Chemscore.DEInternal>
4.8820

> <Gold.Chemscore.Rot>
3.6658

> <Gold.Chemscore.Internal.Correction>
   9.000000E+99

> <Gold.Chemscore.Hbonds>
donor molecule, donor type, donor heavy atom, donor atom, acceptor molecule, acceptor atom, score
      L1  H    18    59       P1 10186  0.73
      L1  H    22    54       P1 10186  0.66
      P1  H  7989  7998       L1     3  0.77
      P1  H 10785 10796       L1    22  0.23

> <Gold.Chemscore.Hbond.Weighted>
-9.2801

> <Gold.Chemscore.Metal.Weighted>
-0.0000

> <Gold.Chemscore.Lipo.Weighted>
-8.8206

> <Gold.Chemscore.Internal_Hbond.Weighted>
0.0000

> <Gold.Chemscore.DEClash.Weighted>
0.1411

> <Gold.Chemscore.DEInternal.Weighted>
4.8820

> <Gold.Chemscore.Rot.Weighted>
9.3844

> <Gold.Chemscore.Internal.Correction.Weighted>
   9.000000E+99

> <Gold.Protein.RotatedTorsions>
[ 6907 6896 6895 6894 ] final -101.30 input  -60.11 | X-H torsion
[ 7974 7965 7964 7962 ] final -171.15 input  175.53 | X-H torsion
[ 8008 7997 7996 7995 ] final   81.95 input   59.86 | X-H torsion
[ 10167 10162 10161 10158 ] final  -90.06 input  -65.29 | X-H torsion
[ 10718 10713 10712 10709 ] final  177.53 input   66.30 | X-H torsion
[ 10763 10752 10751 10750 ] final   47.61 input  -60.55 | X-H torsion
[ 11005 11000 10999 10996 ] final   51.20 input  -57.11 | X-H torsion

> <Gold.Protein.ActiveResidues>
 VAL166  LYS551  ARG553  GLY616  TRP617  ASP618  TYR619  PRO620  LYS621  CYS622 
 ASP623  PHE694  ASN695  SER759  ASP760  ASP761  ALA762  ILE779  LEU786  VAL792 
 PHE793  MET794  SER795  GLU796  ALA797  LYS798  CYS799  TRP800  GLU811  SER814 

> <Gold.Protein.RotatedAtoms>
  150.7149  134.0755  159.3879 H   0  0  0  0  0  0  0  0  0  0  0  0  # atno 6907 bound_to 6896
  151.8738  135.0477  160.0491 H   0  0  0  0  0  0  0  0  0  0  0  0  # atno 6908 bound_to 6896
  152.2622  133.5272  159.5425 H   0  0  0  0  0  0  0  0  0  0  0  0  # atno 6909 bound_to 6896
  144.7160  140.1965  143.6343 H   0  0  0  0  0  0  0  0  0  0  0  0  # atno 7974 bound_to 7965
  155.9040  140.3431  155.6048 H   0  0  0  0  0  0  0  0  0  0  0  0  # atno 8008 bound_to 7997
  155.7466  140.0814  157.2239 H   0  0  0  0  0  0  0  0  0  0  0  0  # atno 8009 bound_to 7997
  154.4047  140.1561  156.2664 H   0  0  0  0  0  0  0  0  0  0  0  0  # atno 8010 bound_to 7997
  140.3587  143.2853  151.9641 H   0  0  0  0  0  0  0  0  0  0  0  0  # atno 10167 bound_to 10162
  156.9040  130.9888  151.3031 H   0  0  0  0  0  0  0  0  0  0  0  0  # atno 10718 bound_to 10713
  152.9798  135.5970  154.3791 H   0  0  0  0  0  0  0  0  0  0  0  0  # atno 10763 bound_to 10752
  154.3458  135.2767  155.2400 H   0  0  0  0  0  0  0  0  0  0  0  0  # atno 10764 bound_to 10752
  154.4462  135.6001  153.6216 H   0  0  0  0  0  0  0  0  0  0  0  0  # atno 10765 bound_to 10752
  140.0952  134.5155  155.8814 H   0  0  0  0  0  0  0  0  0  0  0  0  # atno 11005 bound_to 11000
  145.8720  139.2277  143.1655 LP  0  0  0  0  0  0  0  0  0  0  0  0  # atno 17320 bound_to 7965
  146.0076  140.8465  142.9987 LP  0  0  0  0  0  0  0  0  0  0  0  0  # atno 17321 bound_to 7965
  139.4817  144.6012  151.7602 LP  0  0  0  0  0  0  0  0  0  0  0  0  # atno 17342 bound_to 10162
  140.5149  144.0969  150.6005 LP  0  0  0  0  0  0  0  0  0  0  0  0  # atno 17343 bound_to 10162
  157.6008  130.8511  149.8800 LP  0  0  0  0  0  0  0  0  0  0  0  0  # atno 17370 bound_to 10713
  156.0568  130.3707  150.1073 LP  0  0  0  0  0  0  0  0  0  0  0  0  # atno 17371 bound_to 10713
  141.2090  133.6679  156.6409 LP  0  0  0  0  0  0  0  0  0  0  0  0  # atno 17394 bound_to 11000
  140.3296  134.7940  157.4316 LP  0  0  0  0  0  0  0  0  0  0  0  0  # atno 17395 bound_to 11000

$$$$
