AV-unprocessed.smi:101|AV-procd|sdf|921|dock2
  -GOLD-   2262017423D 1   1.00000     0.00000
 Structure written by MMmdl.
 44 46  0  0  0  0  0  0  0  0  1 V2000
  140.7779  137.8370  153.2345 C   0  0  0  0  0  0  0  0  0  0  0  0
  141.9380  136.8751  153.4331 C   0  0  0  0  0  0  0  0  0  0  0  0
  143.2338  137.2699  153.3404 C   0  0  0  0  0  0  0  0  0  0  0  0
  144.3155  136.4145  153.5172 N   0  0  0  0  0  0  0  0  0  0  0  0
  145.7570  136.8852  153.4232 C   0  0  2  0  0  0  0  0  0  0  0  0
  145.9080  138.0799  154.1312 O   0  0  0  0  0  0  0  0  0  0  0  0
  146.0376  139.1660  153.2211 C   0  0  1  0  0  0  0  0  0  0  0  0
  146.6706  140.3848  153.9036 C   0  0  0  0  0  0  0  0  0  0  0  0
  147.8742  139.9644  154.5235 O   0  0  0  0  0  0  0  0  0  0  0  0
  148.9177  140.8071  154.6272 C   0  0  0  0  0  0  0  0  0  0  0  0
  149.1541  141.7051  153.8167 O   0  0  0  0  0  0  0  0  0  0  0  0
  149.7600  140.5347  155.8277 C   0  0  0  0  0  0  0  0  0  0  0  0
  149.4958  139.3896  156.6150 C   0  0  0  0  0  0  0  0  0  0  0  0
  150.2722  139.1092  157.7563 C   0  0  0  0  0  0  0  0  0  0  0  0
  151.3232  139.9698  158.1235 C   0  0  0  0  0  0  0  0  0  0  0  0
  151.5974  141.1112  157.3477 C   0  0  0  0  0  0  0  0  0  0  0  0
  150.8216  141.3940  156.2066 C   0  0  0  0  0  0  0  0  0  0  0  0
  146.8258  138.5509  152.0628 C   0  0  1  0  0  0  0  0  0  0  0  0
  148.2071  138.4846  152.3675 O   0  0  0  0  0  0  0  0  0  0  0  0
  146.2262  137.1527  151.9685 C   0  0  2  0  0  0  0  0  0  0  0  0
  145.1750  137.1555  151.0172 O   0  0  0  0  0  0  0  0  0  0  0  0
  144.0771  135.0570  153.8147 C   0  0  0  0  0  0  0  0  0  0  0  0
  144.9860  134.2438  153.9794 O   0  0  0  0  0  0  0  0  0  0  0  0
  142.7476  134.6510  153.9091 N   0  0  0  0  0  0  0  0  0  0  0  0
  141.6326  135.4742  153.7364 C   0  0  0  0  0  0  0  0  0  0  0  0
  140.5037  134.9981  153.8442 O   0  0  0  0  0  0  0  0  0  0  0  0
  142.5748  133.6791  154.1199 H   0  0  0  0  0  0  0  0  0  0  0  0
  141.1221  138.8517  153.0314 H   0  0  0  0  0  0  0  0  0  0  0  0
  140.1520  137.8697  154.1269 H   0  0  0  0  0  0  0  0  0  0  0  0
  140.1599  137.5189  152.3941 H   0  0  0  0  0  0  0  0  0  0  0  0
  143.4141  138.3104  153.1185 H   0  0  0  0  0  0  0  0  0  0  0  0
  146.3495  136.1247  153.9356 H   0  0  0  0  0  0  0  0  0  0  0  0
  145.0485  139.4360  152.8475 H   0  0  0  0  0  0  0  0  0  0  0  0
  146.8612  141.1785  153.1797 H   0  0  0  0  0  0  0  0  0  0  0  0
  145.9986  140.7807  154.6660 H   0  0  0  0  0  0  0  0  0  0  0  0
  148.6932  138.7148  156.3537 H   0  0  0  0  0  0  0  0  0  0  0  0
  150.0597  138.2329  158.3510 H   0  0  0  0  0  0  0  0  0  0  0  0
  151.9176  139.7550  158.9993 H   0  0  0  0  0  0  0  0  0  0  0  0
  152.4042  141.7722  157.6279 H   0  0  0  0  0  0  0  0  0  0  0  0
  151.0590  142.2793  155.6347 H   0  0  0  0  0  0  0  0  0  0  0  0
  146.7103  139.1231  151.1410 H   0  0  0  0  0  0  0  0  0  0  0  0
  148.6215  139.2787  152.0662 H   0  0  0  0  0  0  0  0  0  0  0  0
  146.9597  136.4020  151.6710 H   0  0  0  0  0  0  0  0  0  0  0  0
  145.0379  138.0454  150.7293 H   0  0  0  0  0  0  0  0  0  0  0  0
  1  2  1  0  0  0  0
  1 28  1  0  0  0  0
  1 29  1  0  0  0  0
  1 30  1  0  0  0  0
  2 25  1  0  0  0  0
  2  3  2  0  0  0  0
  3  4  1  0  0  0  0
  3 31  1  0  0  0  0
  4  5  1  0  0  0  0
  4 22  1  0  0  0  0
  5 20  1  0  0  0  0
  5  6  1  0  0  0  0
  5 32  1  0  0  0  0
  6  7  1  0  0  0  0
  7  8  1  0  0  0  0
  7 18  1  0  0  0  0
  7 33  1  0  0  0  0
  8  9  1  0  0  0  0
  8 34  1  0  0  0  0
  8 35  1  0  0  0  0
  9 10  1  0  0  0  0
 10 11  2  0  0  0  0
 10 12  1  0  0  0  0
 12 17  1  0  0  0  0
 12 13  2  0  0  0  0
 13 14  1  0  0  0  0
 13 36  1  0  0  0  0
 14 15  2  0  0  0  0
 14 37  1  0  0  0  0
 15 16  1  0  0  0  0
 15 38  1  0  0  0  0
 16 17  2  0  0  0  0
 16 39  1  0  0  0  0
 17 40  1  0  0  0  0
 18 19  1  0  0  0  0
 18 20  1  0  0  0  0
 18 41  1  0  0  0  0
 19 42  1  0  0  0  0
 20 21  1  0  0  0  0
 20 43  1  0  0  0  0
 21 44  1  0  0  0  0
 22 23  2  0  0  0  0
 22 24  1  0  0  0  0
 24 27  1  0  0  0  0
 24 25  1  0  0  0  0
 25 26  2  0  0  0  0
M  END
> <s_m_source_file>
AV-unprocessed.smi

> <i_m_source_file_index>
101

> <i_lp_mmshare_version>
43012

> <i_f3d_flags>
0

> <s_epik_input>
Tz1jMVtuSF1jKD1PKW4oW2NIXWMxW0NIM10pW0NAQEhdMk9bQ0BIXShbQ0BASF0oW09IXSlbQ0BIXTJbT0hdKVtDSDJdT0MoPU8pYzNbY0hdW2NIXVtjSF1bY0hdW2NIXTM=

> <s_epik_cmdline>
J2VwaWtfcHl0aG9uJywgJy1waCcsICc3LjAnLCAnLXRuJywgJzgnLCAnLW1hJywgJzIwMCcsICctbWV0YWxfYmluZGluZycsICctaW1hZScsICc8aW5maWxlLm1hZT4nLCAnLW9tYWUnLCAnPG91dGZpbGUubWFlPic=

> <r_lp_tautomer_probability>
0.999537

> <r_epik_Ionization_Penalty>
0.00263537

> <r_epik_Ionization_Penalty_Charging>
0.00263428

> <r_epik_Ionization_Penalty_Neutral>
1.09111e-06

> <r_epik_State_Penalty>
0.00183335

> <r_epik_Charging_Adjusted_Penalty>
0.00446763

> <i_epik_Tot_Q>
0

> <i_epik_Tot_abs_Q>
0

> <r_epik_Metal_State_Penalty>
1.00528

> <b_epik_Metal_Only>
0

> <s_epik_Chemistry_Notes>
This compound has an ester and may undergo hydrolysis at high or low pH. This compound contains an acetal/aminal-like group ( X-CH(R)-Y where X, Y are N, S, or O) that may be acid/base labile, releasing an aldehyde.

> <s_lp_Force_Field>
OPLS_2005

> <r_lp_Energy>
37.3052

> <b_lp_Chiralities_Consistent>
1

> <s_lp_Variant>
AV-unprocessed.smi:101-9

> <Gold.Version>
5.8.1

> <Gold.Id.Protein>
6NUR|6NUR_protein|mol2

> <Gold.PLP.Fitness>
47.7485

> <Gold.PLP.PLP>
-33.8375

> <Gold.PLP.part.hbond>
-6.2368

> <Gold.PLP.part.metal>
0.0000

> <Gold.PLP.part.buried>
-0.5320

> <Gold.PLP.part.nonpolar>
-28.2493

> <Gold.PLP.part.repulsive>
0.7237

> <Gold.PLP.ligand.clash>
0.0000

> <Gold.PLP.ligand.torsion>
0.9684

> <Gold.PLP.Chemscore.Hbond>
4.1913

> <Gold.PLP.Chemscore.CHOScore>
1.0000

> <Gold.PLP.Chemscore.Metal>
0.0000

> <Gold.Chemscore.Hbonds>
donor molecule, donor type, donor heavy atom, donor atom, acceptor molecule, acceptor atom, score
      L1  H    19    42       P1  7957  0.98
      L1  H    21    44       P1 10171  0.56
      L1  H    24    27       P1 10957  1.00
      P1  H  8011  8017       L1    11  0.62
      P1  H 11000 11005       L1    26  1.00
      L1  C     3    31       P1 10175  1.00

> <Gold.PLP.Chemscore.Internal.Correction>
0.2741

> <Gold.Rescore>
     Score         DG    S(hbond)    S(metal)    S(lipo)     H(rot)  DE(clash)    DE(int)     intcor
     13.09     -19.57       4.28        0.00      70.95       3.32       2.94       3.54       ----

> <Gold.Chemscore.Fitness>
13.0906

> <Gold.Chemscore.DG>
-19.5703

> <Gold.Chemscore.ZeroCoef>
-5.4800

> <Gold.Chemscore.Hbond>
4.2759

> <Gold.Chemscore.Metal>
0.0000

> <Gold.Chemscore.Lipo>
70.9468

> <Gold.Chemscore.Internal_Hbond>
0.0000

> <Gold.Chemscore.DEClash>
2.9444

> <Gold.Chemscore.DEInternal>
3.5353

> <Gold.Chemscore.Rot>
3.3172

> <Gold.Chemscore.Internal.Correction>
   9.000000E+99

> <Gold.Chemscore.Hbonds>
donor molecule, donor type, donor heavy atom, donor atom, acceptor molecule, acceptor atom, score
      L1  H    19    42       P1  7957  0.88
      L1  H    21    44       P1 10171  0.55
      L1  H    24    27       P1 10957  0.94
      P1  H  8011  8017       L1    11  0.62
      P1  H 11000 11005       L1    26  0.63

> <Gold.Chemscore.Hbond.Weighted>
-14.2815

> <Gold.Chemscore.Metal.Weighted>
-0.0000

> <Gold.Chemscore.Lipo.Weighted>
-8.3008

> <Gold.Chemscore.Internal_Hbond.Weighted>
0.0000

> <Gold.Chemscore.DEClash.Weighted>
2.9444

> <Gold.Chemscore.DEInternal.Weighted>
3.5353

> <Gold.Chemscore.Rot.Weighted>
8.4920

> <Gold.Chemscore.Internal.Correction.Weighted>
   9.000000E+99

> <Gold.Protein.RotatedTorsions>
[ 6907 6896 6895 6894 ] final  172.22 input  -60.11 | X-H torsion
[ 7974 7965 7964 7962 ] final   26.99 input  175.53 | X-H torsion
[ 8008 7997 7996 7995 ] final  119.24 input   59.86 | X-H torsion
[ 10167 10162 10161 10158 ] final  -31.39 input  -65.29 | X-H torsion
[ 10718 10713 10712 10709 ] final  -56.14 input   66.30 | X-H torsion
[ 10763 10752 10751 10750 ] final   59.73 input  -60.55 | X-H torsion
[ 11005 11000 10999 10996 ] final   33.27 input  -57.11 | X-H torsion

> <Gold.Protein.ActiveResidues>
 VAL166  LYS551  ARG553  GLY616  TRP617  ASP618  TYR619  PRO620  LYS621  CYS622 
 ASP623  PHE694  ASN695  SER759  ASP760  ASP761  ALA762  ILE779  LEU786  VAL792 
 PHE793  MET794  SER795  GLU796  ALA797  LYS798  CYS799  TRP800  GLU811  SER814 

> <Gold.Protein.RotatedAtoms>
  151.7877  133.3356  159.3489 H   0  0  0  0  0  0  0  0  0  0  0  0  # atno 6907 bound_to 6896
  150.7403  134.5871  159.5978 H   0  0  0  0  0  0  0  0  0  0  0  0  # atno 6908 bound_to 6896
  152.3232  134.7356  160.0360 H   0  0  0  0  0  0  0  0  0  0  0  0  # atno 6909 bound_to 6896
  146.1808  139.7253  142.8901 H   0  0  0  0  0  0  0  0  0  0  0  0  # atno 7974 bound_to 7965
  156.2586  140.2857  156.0960 H   0  0  0  0  0  0  0  0  0  0  0  0  # atno 8008 bound_to 7997
  155.1411  140.0395  157.2816 H   0  0  0  0  0  0  0  0  0  0  0  0  # atno 8009 bound_to 7997
  154.6529  140.2549  155.7200 H   0  0  0  0  0  0  0  0  0  0  0  0  # atno 8010 bound_to 7997
  140.7237  143.3774  151.1663 H   0  0  0  0  0  0  0  0  0  0  0  0  # atno 10167 bound_to 10162
  156.1312  130.4159  150.0264 H   0  0  0  0  0  0  0  0  0  0  0  0  # atno 10718 bound_to 10713
  152.9902  135.5561  154.5760 H   0  0  0  0  0  0  0  0  0  0  0  0  # atno 10763 bound_to 10752
  154.5151  135.2804  155.1312 H   0  0  0  0  0  0  0  0  0  0  0  0  # atno 10764 bound_to 10752
  154.2688  135.6367  153.5355 H   0  0  0  0  0  0  0  0  0  0  0  0  # atno 10765 bound_to 10752
  140.2648  134.3150  155.7846 H   0  0  0  0  0  0  0  0  0  0  0  0  # atno 11005 bound_to 11000
  145.4080  141.0393  143.3033 LP  0  0  0  0  0  0  0  0  0  0  0  0  # atno 17320 bound_to 7965
  144.8312  139.5625  143.6943 LP  0  0  0  0  0  0  0  0  0  0  0  0  # atno 17321 bound_to 7965
  139.7357  143.9002  152.3034 LP  0  0  0  0  0  0  0  0  0  0  0  0  # atno 17342 bound_to 10162
  139.8807  144.7019  150.8881 LP  0  0  0  0  0  0  0  0  0  0  0  0  # atno 17343 bound_to 10162
  156.8176  130.9347  151.3642 LP  0  0  0  0  0  0  0  0  0  0  0  0  # atno 17370 bound_to 10713
  157.6490  130.8868  149.9595 LP  0  0  0  0  0  0  0  0  0  0  0  0  # atno 17371 bound_to 10713
  141.2185  133.7431  156.9244 LP  0  0  0  0  0  0  0  0  0  0  0  0  # atno 17394 bound_to 11000
  140.1429  134.9281  157.2491 LP  0  0  0  0  0  0  0  0  0  0  0  0  # atno 17395 bound_to 11000

$$$$
