AV-unprocessed.smi:3275|AV-procd|sdf|12533|dock8
  -GOLD-   2272018443D 1   1.00000     0.00000
 Structure written by MMmdl.
 34 35  0  0  0  0  0  0  0  0  1 V2000
  144.9172  142.3476  154.3912 O   0  0  0  0  0  0  0  0  0  0  0  0
  146.2406  142.4717  153.9171 C   0  0  0  0  0  0  0  0  0  0  0  0
  147.2222  141.9281  154.9606 C   0  0  0  0  0  0  0  0  0  0  0  0
  148.1195  141.0347  154.3174 O   0  0  0  0  0  0  0  0  0  0  0  0
  149.0888  140.4516  155.1788 C   0  0  1  0  0  0  0  0  0  0  0  0
  150.0390  139.5187  154.3983 C   0  0  0  0  0  0  0  0  0  0  0  0
  151.1758  139.0271  155.3096 C   0  0  0  0  0  0  0  0  0  0  0  0
  151.9095  140.2080  155.9663 C   0  0  0  0  0  0  0  0  0  0  0  0
  150.9638  141.0792  156.6589 N   0  0  0  0  0  0  0  0  0  0  0  0
  151.5718  141.9799  157.5524 C   0  0  0  0  0  0  0  0  0  0  0  0
  151.4138  143.3799  157.4189 C   0  0  0  0  0  0  0  0  0  0  0  0
  152.0601  144.2298  158.3378 C   0  0  0  0  0  0  0  0  0  0  0  0
  152.8294  143.7804  159.3506 N   0  0  0  0  0  0  0  0  0  0  0  0
  152.9782  142.4456  159.4807 C   0  0  0  0  0  0  0  0  0  0  0  0
  152.3775  141.5065  158.6176 C   0  0  0  0  0  0  0  0  0  0  0  0
  152.6187  139.8173  158.9025 Cl  0  0  0  0  0  0  0  0  0  0  0  0
  149.8854  141.6011  155.8222 C   0  0  0  0  0  0  0  0  0  0  0  0
  144.5489  141.5479  154.0476 H   0  0  0  0  0  0  0  0  0  0  0  0
  146.3369  141.9244  152.9790 H   0  0  0  0  0  0  0  0  0  0  0  0
  146.4473  143.5217  153.7072 H   0  0  0  0  0  0  0  0  0  0  0  0
  147.7764  142.7512  155.4148 H   0  0  0  0  0  0  0  0  0  0  0  0
  146.6741  141.4205  155.7545 H   0  0  0  0  0  0  0  0  0  0  0  0
  148.5923  139.8927  155.9744 H   0  0  0  0  0  0  0  0  0  0  0  0
  149.5017  138.6608  153.9953 H   0  0  0  0  0  0  0  0  0  0  0  0
  150.4600  140.0533  153.5459 H   0  0  0  0  0  0  0  0  0  0  0  0
  150.7662  138.3780  156.0848 H   0  0  0  0  0  0  0  0  0  0  0  0
  151.8795  138.4217  154.7378 H   0  0  0  0  0  0  0  0  0  0  0  0
  152.6677  139.8337  156.6546 H   0  0  0  0  0  0  0  0  0  0  0  0
  152.4340  140.7896  155.2069 H   0  0  0  0  0  0  0  0  0  0  0  0
  150.8212  143.8101  156.6255 H   0  0  0  0  0  0  0  0  0  0  0  0
  151.9584  145.3016  158.2541 H   0  0  0  0  0  0  0  0  0  0  0  0
  153.5938  142.1148  160.3043 H   0  0  0  0  0  0  0  0  0  0  0  0
  150.3067  142.2339  155.0401 H   0  0  0  0  0  0  0  0  0  0  0  0
  149.2199  142.2245  156.4209 H   0  0  0  0  0  0  0  0  0  0  0  0
  1  2  1  0  0  0  0
  1 18  1  0  0  0  0
  2  3  1  0  0  0  0
  2 19  1  0  0  0  0
  2 20  1  0  0  0  0
  3  4  1  0  0  0  0
  3 21  1  0  0  0  0
  3 22  1  0  0  0  0
  4  5  1  0  0  0  0
  5 17  1  0  0  0  0
  5  6  1  0  0  0  0
  5 23  1  0  0  0  0
  6  7  1  0  0  0  0
  6 24  1  0  0  0  0
  6 25  1  0  0  0  0
  7  8  1  0  0  0  0
  7 26  1  0  0  0  0
  7 27  1  0  0  0  0
  8  9  1  0  0  0  0
  8 28  1  0  0  0  0
  8 29  1  0  0  0  0
  9 10  1  0  0  0  0
  9 17  1  0  0  0  0
 10 15  1  0  0  0  0
 10 11  2  0  0  0  0
 11 12  1  0  0  0  0
 11 30  1  0  0  0  0
 12 13  2  0  0  0  0
 12 31  1  0  0  0  0
 13 14  1  0  0  0  0
 14 15  2  0  0  0  0
 14 32  1  0  0  0  0
 15 16  1  0  0  0  0
 17 33  1  0  0  0  0
 17 34  1  0  0  0  0
M  END
> <s_m_source_file>
AV-unprocessed.smi

> <i_m_source_file_index>
3275

> <i_lp_mmshare_version>
43012

> <i_f3d_flags>
0

> <s_epik_input>
W09IXVtDSDJdW0NIMl1PW0NAQEhdMVtDSDJdW0NIMl1bQ0gyXU4oW0NIMl0xKWMyW2NIXVtjSF1uW2NIXWMyQ2w=

> <s_epik_cmdline>
J2VwaWtfcHl0aG9uJywgJy1waCcsICc3LjAnLCAnLXRuJywgJzgnLCAnLW1hJywgJzIwMCcsICctbWV0YWxfYmluZGluZycsICctaW1hZScsICc8aW5maWxlLm1hZT4nLCAnLW9tYWUnLCAnPG91dGZpbGUubWFlPic=

> <r_lp_tautomer_probability>
1

> <r_epik_Ionization_Penalty>
1.24095

> <r_epik_Ionization_Penalty_Charging>
0

> <r_epik_Ionization_Penalty_Neutral>
1.24095

> <r_epik_State_Penalty>
1.30987

> <r_epik_Charging_Adjusted_Penalty>
1.30987

> <i_epik_Tot_Q>
0

> <i_epik_Tot_abs_Q>
0

> <r_epik_Metal_State_Penalty>
0.00479332

> <b_epik_Metal_Only>
0

> <s_lp_Force_Field>
OPLS_2005

> <r_lp_Energy>
20.7809

> <b_lp_Chiralities_Consistent>
1

> <s_lp_Variant>
AV-unprocessed.smi:3275-4

> <Gold.Version>
5.8.1

> <Gold.Id.Protein>
6NUR|6NUR_protein|mol2

> <Gold.PLP.Fitness>
38.3955

> <Gold.PLP.PLP>
-36.3569

> <Gold.PLP.part.hbond>
-1.5941

> <Gold.PLP.part.metal>
0.0000

> <Gold.PLP.part.buried>
-4.2368

> <Gold.PLP.part.nonpolar>
-31.4999

> <Gold.PLP.part.repulsive>
0.1670

> <Gold.PLP.ligand.clash>
0.0000

> <Gold.PLP.ligand.torsion>
0.5568

> <Gold.PLP.Chemscore.Hbond>
0.9500

> <Gold.PLP.Chemscore.CHOScore>
0.0000

> <Gold.PLP.Chemscore.Metal>
0.0000

> <Gold.Chemscore.Hbonds>
donor molecule, donor type, donor heavy atom, donor atom, acceptor molecule, acceptor atom, score
      L1  H     1    18       P1 10175  0.87

> <Gold.PLP.Chemscore.Internal.Correction>
0.3020

> <Gold.Rescore>
     Score         DG    S(hbond)    S(metal)    S(lipo)     H(rot)  DE(clash)    DE(int)     intcor
     14.34     -15.05       0.76        0.00     105.22       2.06       0.08       0.63       ----

> <Gold.Chemscore.Fitness>
14.3435

> <Gold.Chemscore.DG>
-15.0535

> <Gold.Chemscore.ZeroCoef>
-5.4800

> <Gold.Chemscore.Hbond>
0.7571

> <Gold.Chemscore.Metal>
0.0000

> <Gold.Chemscore.Lipo>
105.2193

> <Gold.Chemscore.Internal_Hbond>
0.0000

> <Gold.Chemscore.DEClash>
0.0828

> <Gold.Chemscore.DEInternal>
0.6273

> <Gold.Chemscore.Rot>
2.0570

> <Gold.Chemscore.Internal.Correction>
   9.000000E+99

> <Gold.Chemscore.Hbonds>
donor molecule, donor type, donor heavy atom, donor atom, acceptor molecule, acceptor atom, score
      L1  H     1    18       P1 10175  0.18

> <Gold.Chemscore.Hbond.Weighted>
-2.5289

> <Gold.Chemscore.Metal.Weighted>
-0.0000

> <Gold.Chemscore.Lipo.Weighted>
-12.3107

> <Gold.Chemscore.Internal_Hbond.Weighted>
0.0000

> <Gold.Chemscore.DEClash.Weighted>
0.0828

> <Gold.Chemscore.DEInternal.Weighted>
0.6273

> <Gold.Chemscore.Rot.Weighted>
5.2660

> <Gold.Chemscore.Internal.Correction.Weighted>
   9.000000E+99

> <Gold.Protein.RotatedTorsions>
[ 6907 6896 6895 6894 ] final   52.30 input  -60.11 | X-H torsion
[ 7974 7965 7964 7962 ] final   42.48 input  175.53 | X-H torsion
[ 8008 7997 7996 7995 ] final -157.09 input   59.86 | X-H torsion
[ 10167 10162 10161 10158 ] final  134.98 input  -65.29 | X-H torsion
[ 10718 10713 10712 10709 ] final -129.34 input   66.30 | X-H torsion
[ 10763 10752 10751 10750 ] final -101.23 input  -60.55 | X-H torsion
[ 11005 11000 10999 10996 ] final -152.05 input  -57.11 | X-H torsion

> <Gold.Protein.ActiveResidues>
 VAL166  LYS551  ARG553  GLY616  TRP617  ASP618  TYR619  PRO620  LYS621  CYS622 
 ASP623  PHE694  ASN695  SER759  ASP760  ASP761  ALA762  ILE779  LEU786  VAL792 
 PHE793  MET794  SER795  GLU796  ALA797  LYS798  CYS799  TRP800  GLU811  SER814 

> <Gold.Protein.RotatedAtoms>
  152.3218  134.7370  160.0311 H   0  0  0  0  0  0  0  0  0  0  0  0  # atno 6907 bound_to 6896
  151.7816  133.3345  159.3481 H   0  0  0  0  0  0  0  0  0  0  0  0  # atno 6908 bound_to 6896
  150.7374  134.5856  159.6006 H   0  0  0  0  0  0  0  0  0  0  0  0  # atno 6909 bound_to 6896
  146.0737  139.5296  142.9581 H   0  0  0  0  0  0  0  0  0  0  0  0  # atno 7974 bound_to 7965
  155.7272  140.0797  157.2305 H   0  0  0  0  0  0  0  0  0  0  0  0  # atno 8008 bound_to 7997
  154.4037  140.1602  156.2522 H   0  0  0  0  0  0  0  0  0  0  0  0  # atno 8009 bound_to 7997
  155.9143  140.3402  155.6125 H   0  0  0  0  0  0  0  0  0  0  0  0  # atno 8010 bound_to 7997
  139.5235  144.6540  151.5217 H   0  0  0  0  0  0  0  0  0  0  0  0  # atno 10167 bound_to 10162
  156.2037  130.6874  151.0569 H   0  0  0  0  0  0  0  0  0  0  0  0  # atno 10718 bound_to 10713
  154.7642  135.4905  153.9522 H   0  0  0  0  0  0  0  0  0  0  0  0  # atno 10763 bound_to 10752
  153.1287  135.6748  153.9221 H   0  0  0  0  0  0  0  0  0  0  0  0  # atno 10764 bound_to 10752
  153.8931  135.3118  155.3426 H   0  0  0  0  0  0  0  0  0  0  0  0  # atno 10765 bound_to 10752
  140.7230  134.3706  157.5180 H   0  0  0  0  0  0  0  0  0  0  0  0  # atno 11005 bound_to 11000
  145.6345  141.0297  143.1845 LP  0  0  0  0  0  0  0  0  0  0  0  0  # atno 17320 bound_to 7965
  144.7248  139.7912  143.7369 LP  0  0  0  0  0  0  0  0  0  0  0  0  # atno 17321 bound_to 7965
  140.6358  143.8987  150.6646 LP  0  0  0  0  0  0  0  0  0  0  0  0  # atno 17342 bound_to 10162
  140.2306  143.3739  152.1569 LP  0  0  0  0  0  0  0  0  0  0  0  0  # atno 17343 bound_to 10162
  157.7000  131.0779  150.6850 LP  0  0  0  0  0  0  0  0  0  0  0  0  # atno 17370 bound_to 10713
  156.6908  130.4594  149.5600 LP  0  0  0  0  0  0  0  0  0  0  0  0  # atno 17371 bound_to 10713
  139.8843  134.8968  156.2709 LP  0  0  0  0  0  0  0  0  0  0  0  0  # atno 17394 bound_to 11000
  140.9987  133.7165  156.0926 LP  0  0  0  0  0  0  0  0  0  0  0  0  # atno 17395 bound_to 11000

$$$$
