AV-unprocessed.smi:1598|AV-procd|sdf|6422|dock5
  -GOLD-   22720 7 63D 1   1.00000     0.00000
 Structure written by MMmdl.
 39 39  0  0  0  0  0  0  0  0  1 V2000
  151.7416  139.4072  155.8757 C   0  0  0  0  0  0  0  0  0  0  0  0
  150.9844  139.5096  154.6826 O   0  0  0  0  0  0  0  0  0  0  0  0
  150.3757  138.2818  154.3183 C   0  0  0  0  0  0  0  0  0  0  0  0
  148.9443  138.2328  154.8750 C   0  0  1  0  0  0  0  0  0  0  0  0
  147.9977  139.1809  154.1198 C   0  0  0  0  0  0  0  0  0  0  0  0
  148.4499  136.8627  154.7915 N   0  0  0  0  0  0  0  0  0  0  0  0
  148.0487  136.1056  155.8273 C   0  0  0  0  0  0  0  0  0  0  0  0
  148.0497  136.5104  156.9891 O   0  0  0  0  0  0  0  0  0  0  0  0
  147.5635  134.6724  155.5356 C   0  0  0  0  0  0  0  0  0  0  0  0
  147.1617  134.4104  154.1281 N   0  0  0  0  0  0  0  0  0  0  0  0
  147.7487  133.3238  153.4061 C   0  0  0  0  0  0  0  0  0  0  0  0
  148.7475  132.3976  154.1154 C   0  0  0  0  0  0  0  0  0  0  0  0
  149.1333  131.4026  153.3153 F   0  0  0  0  0  0  0  0  0  0  0  0
  149.8489  133.0646  154.4615 F   0  0  0  0  0  0  0  0  0  0  0  0
  148.2194  131.8286  155.1986 F   0  0  0  0  0  0  0  0  0  0  0  0
  147.3939  133.1013  152.1272 C   0  0  0  0  0  0  0  0  0  0  0  0
  146.4349  133.9557  151.4832 C   0  0  0  0  0  0  0  0  0  0  0  0
  145.8663  134.9838  152.1527 C   0  0  0  0  0  0  0  0  0  0  0  0
  144.8708  135.8889  151.5336 C   0  0  0  0  0  0  0  0  0  0  0  0
  144.9505  135.9648  150.1990 N   0  0  0  0  0  0  0  0  0  0  0  0
  144.0088  136.5494  152.1128 O   0  0  0  0  0  0  0  0  0  0  0  0
  146.2280  135.2546  153.5680 C   0  0  0  0  0  0  0  0  0  0  0  0
  145.7381  136.1670  154.2404 O   0  0  0  0  0  0  0  0  0  0  0  0
  152.1839  140.3746  156.1124 H   0  0  0  0  0  0  0  0  0  0  0  0
  152.5513  138.6843  155.7677 H   0  0  0  0  0  0  0  0  0  0  0  0
  151.1145  139.1092  156.7170 H   0  0  0  0  0  0  0  0  0  0  0  0
  150.3653  138.1712  153.2324 H   0  0  0  0  0  0  0  0  0  0  0  0
  150.9613  137.4550  154.7247 H   0  0  0  0  0  0  0  0  0  0  0  0
  148.9815  138.5313  155.9243 H   0  0  0  0  0  0  0  0  0  0  0  0
  148.3441  140.2128  154.1797 H   0  0  0  0  0  0  0  0  0  0  0  0
  146.9912  139.1505  154.5383 H   0  0  0  0  0  0  0  0  0  0  0  0
  147.9278  138.9145  153.0647 H   0  0  0  0  0  0  0  0  0  0  0  0
  148.4168  136.4525  153.8698 H   0  0  0  0  0  0  0  0  0  0  0  0
  148.3595  133.9875  155.8341 H   0  0  0  0  0  0  0  0  0  0  0  0
  146.7771  134.4350  156.2457 H   0  0  0  0  0  0  0  0  0  0  0  0
  147.8161  132.2805  151.5664 H   0  0  0  0  0  0  0  0  0  0  0  0
  146.1942  133.7376  150.4533 H   0  0  0  0  0  0  0  0  0  0  0  0
  144.3136  136.5564  149.6861 H   0  0  0  0  0  0  0  0  0  0  0  0
  145.6513  135.4269  149.7101 H   0  0  0  0  0  0  0  0  0  0  0  0
  1  2  1  0  0  0  0
  1 24  1  0  0  0  0
  1 25  1  0  0  0  0
  1 26  1  0  0  0  0
  2  3  1  0  0  0  0
  3  4  1  0  0  0  0
  3 27  1  0  0  0  0
  3 28  1  0  0  0  0
  4  5  1  0  0  0  0
  4  6  1  0  0  0  0
  4 29  1  0  0  0  0
  5 30  1  0  0  0  0
  5 31  1  0  0  0  0
  5 32  1  0  0  0  0
  6  7  1  0  0  0  0
  6 33  1  0  0  0  0
  7  8  2  0  0  0  0
  7  9  1  0  0  0  0
  9 10  1  0  0  0  0
  9 34  1  0  0  0  0
  9 35  1  0  0  0  0
 10 22  1  0  0  0  0
 10 11  1  0  0  0  0
 11 12  1  0  0  0  0
 11 16  2  0  0  0  0
 12 13  1  0  0  0  0
 12 14  1  0  0  0  0
 12 15  1  0  0  0  0
 16 17  1  0  0  0  0
 16 36  1  0  0  0  0
 17 18  2  0  0  0  0
 17 37  1  0  0  0  0
 18 19  1  0  0  0  0
 18 22  1  0  0  0  0
 19 20  1  0  0  0  0
 19 21  2  0  0  0  0
 20 38  1  0  0  0  0
 20 39  1  0  0  0  0
 22 23  2  0  0  0  0
M  END
> <s_m_source_file>
AV-unprocessed.smi

> <i_m_source_file_index>
1598

> <i_lp_mmshare_version>
43012

> <i_f3d_flags>
0

> <s_epik_input>
W0NIM11PW0NIMl1bQ0BIXShbQ0gzXSlbTkhdQyg9TylbQ0gyXW4xYyhDKEYpKEYpRilbY0hdW2NIXWMoYzE9TylDKD1PKVtOSDJd

> <s_epik_cmdline>
J2VwaWtfcHl0aG9uJywgJy1waCcsICc3LjAnLCAnLXRuJywgJzgnLCAnLW1hJywgJzIwMCcsICctbWV0YWxfYmluZGluZycsICctaW1hZScsICc8aW5maWxlLm1hZT4nLCAnLW9tYWUnLCAnPG91dGZpbGUubWFlPic=

> <r_lp_tautomer_probability>
1

> <r_epik_Ionization_Penalty>
2.07884e-06

> <r_epik_Ionization_Penalty_Charging>
8.00383e-10

> <r_epik_Ionization_Penalty_Neutral>
2.07804e-06

> <r_epik_State_Penalty>
-0

> <r_epik_Charging_Adjusted_Penalty>
8.00383e-10

> <i_epik_Tot_Q>
0

> <i_epik_Tot_abs_Q>
0

> <r_epik_Metal_State_Penalty>
-0

> <b_epik_Metal_Only>
0

> <s_lp_Force_Field>
OPLS_2005

> <r_lp_Energy>
25.2492

> <b_lp_Chiralities_Consistent>
1

> <s_lp_Variant>
AV-unprocessed.smi:1598-2

> <Gold.Version>
5.8.1

> <Gold.Id.Protein>
6NUR|6NUR_protein|mol2

> <Gold.PLP.Fitness>
40.5975

> <Gold.PLP.PLP>
-32.9652

> <Gold.PLP.part.hbond>
-4.0000

> <Gold.PLP.part.metal>
0.0000

> <Gold.PLP.part.buried>
-2.2644

> <Gold.PLP.part.nonpolar>
-26.7154

> <Gold.PLP.part.repulsive>
2.2695

> <Gold.PLP.ligand.clash>
3.8495

> <Gold.PLP.ligand.torsion>
0.9178

> <Gold.PLP.Chemscore.Hbond>
3.0969

> <Gold.PLP.Chemscore.CHOScore>
0.0000

> <Gold.PLP.Chemscore.Metal>
0.0000

> <Gold.Chemscore.Hbonds>
donor molecule, donor type, donor heavy atom, donor atom, acceptor molecule, acceptor atom, score
      L1  H     6    33       P1  7948  0.86
      L1  H    20    38       P1 10171  0.63
      L1  H    20    39       P1  7921  0.43
      P1  H  7989  7998       L1     2  1.00

> <Gold.PLP.Chemscore.Internal.Correction>
4.0265

> <Gold.Rescore>
     Score         DG    S(hbond)    S(metal)    S(lipo)     H(rot)  DE(clash)    DE(int)     intcor
      7.20     -14.07       2.59        0.00      52.63       2.43       0.04       6.83       ----

> <Gold.Chemscore.Fitness>
7.1993

> <Gold.Chemscore.DG>
-14.0733

> <Gold.Chemscore.ZeroCoef>
-5.4800

> <Gold.Chemscore.Hbond>
2.5908

> <Gold.Chemscore.Metal>
0.0000

> <Gold.Chemscore.Lipo>
52.6328

> <Gold.Chemscore.Internal_Hbond>
0.0000

> <Gold.Chemscore.DEClash>
0.0431

> <Gold.Chemscore.DEInternal>
6.8309

> <Gold.Chemscore.Rot>
2.4289

> <Gold.Chemscore.Internal.Correction>
   9.000000E+99

> <Gold.Chemscore.Hbonds>
donor molecule, donor type, donor heavy atom, donor atom, acceptor molecule, acceptor atom, score
      L1  H     6    33       P1  7948  0.82
      L1  H    20    38       P1 10171  0.61
      L1  H    20    39       P1  7921  0.43
      P1  H  7989  7998       L1     2  0.85

> <Gold.Chemscore.Hbond.Weighted>
-8.6533

> <Gold.Chemscore.Metal.Weighted>
-0.0000

> <Gold.Chemscore.Lipo.Weighted>
-6.1580

> <Gold.Chemscore.Internal_Hbond.Weighted>
0.0000

> <Gold.Chemscore.DEClash.Weighted>
0.0431

> <Gold.Chemscore.DEInternal.Weighted>
6.8309

> <Gold.Chemscore.Rot.Weighted>
6.2180

> <Gold.Chemscore.Internal.Correction.Weighted>
   9.000000E+99

> <Gold.Protein.RotatedTorsions>
[ 6907 6896 6895 6894 ] final  -18.69 input  -60.11 | X-H torsion
[ 7974 7965 7964 7962 ] final  -80.72 input  175.53 | X-H torsion
[ 8008 7997 7996 7995 ] final   82.27 input   59.86 | X-H torsion
[ 10167 10162 10161 10158 ] final   28.73 input  -65.29 | X-H torsion
[ 10718 10713 10712 10709 ] final -159.43 input   66.30 | X-H torsion
[ 10763 10752 10751 10750 ] final  151.15 input  -60.55 | X-H torsion
[ 11005 11000 10999 10996 ] final  108.74 input  -57.11 | X-H torsion

> <Gold.Protein.ActiveResidues>
 VAL166  LYS551  ARG553  GLY616  TRP617  ASP618  TYR619  PRO620  LYS621  CYS622 
 ASP623  PHE694  ASN695  SER759  ASP760  ASP761  ALA762  ILE779  LEU786  VAL792 
 PHE793  MET794  SER795  GLU796  ALA797  LYS798  CYS799  TRP800  GLU811  SER814 

> <Gold.Protein.RotatedAtoms>
  151.2744  135.0694  159.9145 H   0  0  0  0  0  0  0  0  0  0  0  0  # atno 6907 bound_to 6896
  152.5345  134.0096  159.7943 H   0  0  0  0  0  0  0  0  0  0  0  0  # atno 6908 bound_to 6896
  151.0340  133.5715  159.2688 H   0  0  0  0  0  0  0  0  0  0  0  0  # atno 6909 bound_to 6896
  145.5562  140.9489  143.1472 H   0  0  0  0  0  0  0  0  0  0  0  0  # atno 7974 bound_to 7965
  155.9084  140.3429  155.6079 H   0  0  0  0  0  0  0  0  0  0  0  0  # atno 8008 bound_to 7997
  155.7417  140.0808  157.2261 H   0  0  0  0  0  0  0  0  0  0  0  0  # atno 8009 bound_to 7997
  154.4052  140.1569  156.2611 H   0  0  0  0  0  0  0  0  0  0  0  0  # atno 8010 bound_to 7997
  140.4827  144.0591  150.6270 H   0  0  0  0  0  0  0  0  0  0  0  0  # atno 10167 bound_to 10162
  156.5680  130.8676  151.2829 H   0  0  0  0  0  0  0  0  0  0  0  0  # atno 10718 bound_to 10713
  154.0991  135.2847  155.3255 H   0  0  0  0  0  0  0  0  0  0  0  0  # atno 10763 bound_to 10752
  154.6567  135.5349  153.7971 H   0  0  0  0  0  0  0  0  0  0  0  0  # atno 10764 bound_to 10752
  153.0385  135.6523  154.1156 H   0  0  0  0  0  0  0  0  0  0  0  0  # atno 10765 bound_to 10752
  139.8849  134.9439  156.6019 H   0  0  0  0  0  0  0  0  0  0  0  0  # atno 11005 bound_to 11000
  144.7505  139.7206  143.7275 LP  0  0  0  0  0  0  0  0  0  0  0  0  # atno 17320 bound_to 7965
  146.1883  139.5109  142.9822 LP  0  0  0  0  0  0  0  0  0  0  0  0  # atno 17321 bound_to 7965
  140.3837  143.2789  152.0140 LP  0  0  0  0  0  0  0  0  0  0  0  0  # atno 17342 bound_to 10162
  139.4836  144.6134  151.7392 LP  0  0  0  0  0  0  0  0  0  0  0  0  # atno 17343 bound_to 10162
  157.7354  130.9762  150.2081 LP  0  0  0  0  0  0  0  0  0  0  0  0  # atno 17370 bound_to 10713
  156.2740  130.3725  149.8003 LP  0  0  0  0  0  0  0  0  0  0  0  0  # atno 17371 bound_to 10713
  140.7877  133.8608  155.8620 LP  0  0  0  0  0  0  0  0  0  0  0  0  # atno 17394 bound_to 11000
  140.9705  134.1537  157.4580 LP  0  0  0  0  0  0  0  0  0  0  0  0  # atno 17395 bound_to 11000

$$$$
