AV-unprocessed.smi:1247|AV-procd|sdf|5243|dock6
  -GOLD-   22720 4353D 1   1.00000     0.00000
 Structure written by MMmdl.
 46 47  0  0  0  0  0  0  0  0  1 V2000
  143.1728  132.3626  150.7743 C   0  0  0  0  0  0  0  0  0  0  0  0
  144.3677  133.1740  151.1804 C   0  0  0  0  0  0  0  0  0  0  0  0
  144.5002  134.5928  151.1984 C   0  0  0  0  0  0  0  0  0  0  0  0
  145.7804  134.7702  151.6473 C   0  0  0  0  0  0  0  0  0  0  0  0
  146.4570  135.9290  151.8669 N   0  0  0  0  0  0  0  0  0  0  0  0
  145.9702  137.1323  152.2179 C   0  0  0  0  0  0  0  0  0  0  0  0
  144.7811  137.3976  152.3954 O   0  0  0  0  0  0  0  0  0  0  0  0
  146.9547  138.0322  152.3543 N   0  0  0  0  0  0  0  0  0  0  0  0
  146.7650  139.4301  152.7234 C   0  0  0  0  0  0  0  0  0  0  0  0
  147.2460  139.7015  154.1614 C   0  0  0  0  0  0  0  0  0  0  0  0
  148.6526  140.0815  154.2796 N   0  0  0  0  0  0  0  0  0  0  0  0
  149.5469  138.9269  154.3152 C   0  0  0  0  0  0  0  0  0  0  0  0
  151.0229  139.3441  154.4640 C   0  0  2  0  0  0  0  0  0  0  0  0
  151.9566  138.1356  154.5897 C   0  0  0  0  0  0  0  0  0  0  0  0
  151.1675  140.1449  155.6337 O   0  0  0  0  0  0  0  0  0  0  0  0
  150.3487  141.3108  155.6223 C   0  0  2  0  0  0  0  0  0  0  0  0
  150.5996  142.0891  156.9182 C   0  0  0  0  0  0  0  0  0  0  0  0
  148.8752  140.8870  155.4749 C   0  0  0  0  0  0  0  0  0  0  0  0
  146.3470  133.5357  151.8746 N   0  0  0  0  0  0  0  0  0  0  0  0
  147.6749  133.2056  152.3542 C   0  0  0  0  0  0  0  0  0  0  0  0
  145.4693  132.5511  151.5838 N   0  0  0  0  0  0  0  0  0  0  0  0
  142.3428  133.0044  150.4779 H   0  0  0  0  0  0  0  0  0  0  0  0
  142.8282  131.7331  151.5951 H   0  0  0  0  0  0  0  0  0  0  0  0
  143.4077  131.7136  149.9303 H   0  0  0  0  0  0  0  0  0  0  0  0
  143.7660  135.3356  150.9253 H   0  0  0  0  0  0  0  0  0  0  0  0
  147.4575  135.8715  151.7471 H   0  0  0  0  0  0  0  0  0  0  0  0
  147.9040  137.7308  152.1896 H   0  0  0  0  0  0  0  0  0  0  0  0
  147.3245  140.0311  152.0077 H   0  0  0  0  0  0  0  0  0  0  0  0
  145.7152  139.7071  152.6126 H   0  0  0  0  0  0  0  0  0  0  0  0
  146.6348  140.5069  154.5714 H   0  0  0  0  0  0  0  0  0  0  0  0
  147.0466  138.8288  154.7853 H   0  0  0  0  0  0  0  0  0  0  0  0
  149.2690  138.2714  155.1423 H   0  0  0  0  0  0  0  0  0  0  0  0
  149.4426  138.3408  153.4027 H   0  0  0  0  0  0  0  0  0  0  0  0
  151.3249  139.9311  153.5948 H   0  0  0  0  0  0  0  0  0  0  0  0
  151.8892  137.4944  153.7104 H   0  0  0  0  0  0  0  0  0  0  0  0
  151.7075  137.5336  155.4638 H   0  0  0  0  0  0  0  0  0  0  0  0
  152.9943  138.4544  154.6895 H   0  0  0  0  0  0  0  0  0  0  0  0
  150.6358  141.9370  154.7756 H   0  0  0  0  0  0  0  0  0  0  0  0
  150.0001  142.9991  156.9516 H   0  0  0  0  0  0  0  0  0  0  0  0
  151.6475  142.3782  157.0026 H   0  0  0  0  0  0  0  0  0  0  0  0
  150.3477  141.4897  157.7935 H   0  0  0  0  0  0  0  0  0  0  0  0
  148.2471  141.7780  155.4401 H   0  0  0  0  0  0  0  0  0  0  0  0
  148.5694  140.3251  156.3591 H   0  0  0  0  0  0  0  0  0  0  0  0
  147.8111  133.6077  153.3586 H   0  0  0  0  0  0  0  0  0  0  0  0
  148.4228  133.6405  151.6907 H   0  0  0  0  0  0  0  0  0  0  0  0
  147.8153  132.1240  152.3841 H   0  0  0  0  0  0  0  0  0  0  0  0
  1  2  1  0  0  0  0
  1 22  1  0  0  0  0
  1 23  1  0  0  0  0
  1 24  1  0  0  0  0
  2 21  2  0  0  0  0
  2  3  1  0  0  0  0
  3  4  2  0  0  0  0
  3 25  1  0  0  0  0
  4  5  1  0  0  0  0
  4 19  1  0  0  0  0
  5  6  1  0  0  0  0
  5 26  1  0  0  0  0
  6  7  2  0  0  0  0
  6  8  1  0  0  0  0
  8  9  1  0  0  0  0
  8 27  1  0  0  0  0
  9 10  1  0  0  0  0
  9 28  1  0  0  0  0
  9 29  1  0  0  0  0
 10 11  1  0  0  0  0
 10 30  1  0  0  0  0
 10 31  1  0  0  0  0
 11 18  1  0  0  0  0
 11 12  1  0  0  0  0
 12 13  1  0  0  0  0
 12 32  1  0  0  0  0
 12 33  1  0  0  0  0
 13 14  1  0  0  0  0
 13 15  1  0  0  0  0
 13 34  1  0  0  0  0
 14 35  1  0  0  0  0
 14 36  1  0  0  0  0
 14 37  1  0  0  0  0
 15 16  1  0  0  0  0
 16 17  1  0  0  0  0
 16 18  1  0  0  0  0
 16 38  1  0  0  0  0
 17 39  1  0  0  0  0
 17 40  1  0  0  0  0
 17 41  1  0  0  0  0
 18 42  1  0  0  0  0
 18 43  1  0  0  0  0
 19 20  1  0  0  0  0
 19 21  1  0  0  0  0
 20 44  1  0  0  0  0
 20 45  1  0  0  0  0
 20 46  1  0  0  0  0
M  END
> <s_m_source_file>
AV-unprocessed.smi

> <i_m_source_file_index>
1247

> <i_lp_mmshare_version>
43012

> <i_f3d_flags>
0

> <s_epik_input>
W0NIM11jMVtjSF1jKG4objEpW0NIM10pW05IXUMoPU8pW05IXVtDSDJdW0NIMl1OMltDSDJdW0NAQEhdKFtDSDNdKU9bQ0BASF0oW0NIM10pW0NIMl0y

> <s_epik_cmdline>
J2VwaWtfcHl0aG9uJywgJy1waCcsICc3LjAnLCAnLXRuJywgJzgnLCAnLW1hJywgJzIwMCcsICctbWV0YWxfYmluZGluZycsICctaW1hZScsICc8aW5maWxlLm1hZT4nLCAnLW9tYWUnLCAnPG91dGZpbGUubWFlPic=

> <r_lp_tautomer_probability>
1

> <r_epik_Ionization_Penalty>
0.233972

> <r_epik_Ionization_Penalty_Charging>
0

> <r_epik_Ionization_Penalty_Neutral>
0.233972

> <r_epik_State_Penalty>
0.224627

> <r_epik_Charging_Adjusted_Penalty>
0.224627

> <i_epik_Tot_Q>
0

> <i_epik_Tot_abs_Q>
0

> <r_epik_Metal_State_Penalty>
0.224624

> <b_epik_Metal_Only>
0

> <s_lp_Force_Field>
OPLS_2005

> <r_lp_Energy>
19.816

> <b_lp_Chiralities_Consistent>
1

> <s_lp_Variant>
AV-unprocessed.smi:1247-1

> <Gold.Version>
5.8.1

> <Gold.Id.Protein>
6NUR|6NUR_protein|mol2

> <Gold.PLP.Fitness>
40.5418

> <Gold.PLP.PLP>
-36.3309

> <Gold.PLP.part.hbond>
-2.2202

> <Gold.PLP.part.metal>
0.0000

> <Gold.PLP.part.buried>
-3.3576

> <Gold.PLP.part.nonpolar>
-32.6107

> <Gold.PLP.part.repulsive>
1.4676

> <Gold.PLP.ligand.clash>
0.0000

> <Gold.PLP.ligand.torsion>
0.7074

> <Gold.PLP.Chemscore.Hbond>
1.8710

> <Gold.PLP.Chemscore.CHOScore>
0.0000

> <Gold.PLP.Chemscore.Metal>
0.0000

> <Gold.Chemscore.Hbonds>
donor molecule, donor type, donor heavy atom, donor atom, acceptor molecule, acceptor atom, score
      L1  H     5    26       P1  7948  0.94
      L1  H     8    27       P1  7948  0.88

> <Gold.PLP.Chemscore.Internal.Correction>
0.0127

> <Gold.Rescore>
     Score         DG    S(hbond)    S(metal)    S(lipo)     H(rot)  DE(clash)    DE(int)     intcor
     17.03     -17.85       1.93        0.00      83.19       1.48       0.08       0.74       ----

> <Gold.Chemscore.Fitness>
17.0324

> <Gold.Chemscore.DG>
-17.8537

> <Gold.Chemscore.ZeroCoef>
-5.4800

> <Gold.Chemscore.Hbond>
1.9279

> <Gold.Chemscore.Metal>
0.0000

> <Gold.Chemscore.Lipo>
83.1883

> <Gold.Chemscore.Internal_Hbond>
0.0000

> <Gold.Chemscore.DEClash>
0.0780

> <Gold.Chemscore.DEInternal>
0.7434

> <Gold.Chemscore.Rot>
1.4838

> <Gold.Chemscore.Internal.Correction>
   9.000000E+99

> <Gold.Chemscore.Hbonds>
donor molecule, donor type, donor heavy atom, donor atom, acceptor molecule, acceptor atom, score
      L1  H     5    26       P1  7948  0.90
      L1  H     8    27       P1  7948  0.87

> <Gold.Chemscore.Hbond.Weighted>
-6.4392

> <Gold.Chemscore.Metal.Weighted>
-0.0000

> <Gold.Chemscore.Lipo.Weighted>
-9.7330

> <Gold.Chemscore.Internal_Hbond.Weighted>
0.0000

> <Gold.Chemscore.DEClash.Weighted>
0.0780

> <Gold.Chemscore.DEInternal.Weighted>
0.7434

> <Gold.Chemscore.Rot.Weighted>
3.7985

> <Gold.Chemscore.Internal.Correction.Weighted>
   9.000000E+99

> <Gold.Protein.RotatedTorsions>
[ 6907 6896 6895 6894 ] final -143.12 input  -60.11 | X-H torsion
[ 7974 7965 7964 7962 ] final  102.05 input  175.53 | X-H torsion
[ 8008 7997 7996 7995 ] final  137.49 input   59.86 | X-H torsion
[ 10167 10162 10161 10158 ] final   32.76 input  -65.29 | X-H torsion
[ 10718 10713 10712 10709 ] final  175.11 input   66.30 | X-H torsion
[ 10763 10752 10751 10750 ] final  -24.89 input  -60.55 | X-H torsion
[ 11005 11000 10999 10996 ] final  165.36 input  -57.11 | X-H torsion

> <Gold.Protein.ActiveResidues>
 VAL166  LYS551  ARG553  GLY616  TRP617  ASP618  TYR619  PRO620  LYS621  CYS622 
 ASP623  PHE694  ASN695  SER759  ASP760  ASP761  ALA762  ILE779  LEU786  VAL792 
 PHE793  MET794  SER795  GLU796  ALA797  LYS798  CYS799  TRP800  GLU811  SER814 

> <Gold.Protein.RotatedAtoms>
  151.0961  133.5278  159.2612 H   0  0  0  0  0  0  0  0  0  0  0  0  # atno 6907 bound_to 6896
  151.2127  135.0487  159.8927 H   0  0  0  0  0  0  0  0  0  0  0  0  # atno 6908 bound_to 6896
  152.5439  134.0775  159.8274 H   0  0  0  0  0  0  0  0  0  0  0  0  # atno 6909 bound_to 6896
  145.3642  139.2411  143.3490 H   0  0  0  0  0  0  0  0  0  0  0  0  # atno 7974 bound_to 7965
  156.3002  140.2418  156.3919 H   0  0  0  0  0  0  0  0  0  0  0  0  # atno 8008 bound_to 7997
  154.8606  140.0420  157.1682 H   0  0  0  0  0  0  0  0  0  0  0  0  # atno 8009 bound_to 7997
  154.8900  140.2962  155.5380 H   0  0  0  0  0  0  0  0  0  0  0  0  # atno 8010 bound_to 7997
  140.4469  144.1105  150.6184 H   0  0  0  0  0  0  0  0  0  0  0  0  # atno 10167 bound_to 10162
  156.9397  130.9997  151.2971 H   0  0  0  0  0  0  0  0  0  0  0  0  # atno 10718 bound_to 10713
  153.6910  135.6961  153.5090 H   0  0  0  0  0  0  0  0  0  0  0  0  # atno 10763 bound_to 10752
  153.2413  135.4305  155.0700 H   0  0  0  0  0  0  0  0  0  0  0  0  # atno 10764 bound_to 10752
  154.8372  135.3508  154.6452 H   0  0  0  0  0  0  0  0  0  0  0  0  # atno 10765 bound_to 10752
  140.2554  134.7944  157.3540 H   0  0  0  0  0  0  0  0  0  0  0  0  # atno 11005 bound_to 11000
  146.2914  140.4282  142.8738 LP  0  0  0  0  0  0  0  0  0  0  0  0  # atno 17320 bound_to 7965
  144.8624  140.7158  143.6099 LP  0  0  0  0  0  0  0  0  0  0  0  0  # atno 17321 bound_to 7965
  140.4253  143.2593  151.9664 LP  0  0  0  0  0  0  0  0  0  0  0  0  # atno 17342 bound_to 10162
  139.4793  144.5794  151.7958 LP  0  0  0  0  0  0  0  0  0  0  0  0  # atno 17343 bound_to 10162
  157.5793  130.8365  149.8500 LP  0  0  0  0  0  0  0  0  0  0  0  0  # atno 17370 bound_to 10713
  156.0410  130.3739  150.1436 LP  0  0  0  0  0  0  0  0  0  0  0  0  # atno 17371 bound_to 10713
  140.1517  134.4841  155.7956 LP  0  0  0  0  0  0  0  0  0  0  0  0  # atno 17394 bound_to 11000
  141.2197  133.6865  156.7390 LP  0  0  0  0  0  0  0  0  0  0  0  0  # atno 17395 bound_to 11000

$$$$
