AV-unprocessed.smi:148|AV-procd|sdf|1213|dock4
  -GOLD-   2262018393D 1   1.00000     0.00000
 Structure written by MMmdl.
 63 67  0  0  0  0  0  0  0  0  1 V2000
  145.7086  133.7993  157.6587 O   0  0  0  0  0  0  0  0  0  0  0  0
  146.3189  134.4946  158.7256 C   0  0  0  0  0  0  0  0  0  0  0  0
  147.4221  133.6380  159.3909 C   0  0  1  0  0  0  0  0  0  0  0  0
  148.5813  133.3029  158.4117 C   0  0  0  0  0  0  0  0  0  0  0  0
  148.1728  132.5619  157.2268 N   0  0  0  0  0  0  0  0  0  0  0  0
  147.4539  131.3870  157.1918 C   0  0  0  0  0  0  0  0  0  0  0  0
  147.2153  130.9128  155.9999 N   0  0  0  0  0  0  0  0  0  0  0  0
  147.7969  131.8405  155.1456 C   0  0  0  0  0  0  0  0  0  0  0  0
  147.9101  131.9559  153.7312 C   0  0  0  0  0  0  0  0  0  0  0  0
  147.4229  131.0593  152.8460 N   0  0  0  0  0  0  0  0  0  0  0  0
  147.9601  129.7362  153.1740 C   0  0  0  0  0  0  0  0  0  0  0  0
  147.6658  128.7175  152.0699 C   0  0  0  0  0  0  0  0  0  0  0  0
  146.1606  128.6628  151.8101 C   0  0  0  0  0  0  0  0  0  0  0  0
  145.6470  130.0636  151.4571 C   0  0  0  0  0  0  0  0  0  0  0  0
  145.9749  131.1190  152.5496 C   0  0  2  0  0  0  0  0  0  0  0  0
  145.4774  132.5355  152.0944 C   0  0  2  0  0  0  0  0  0  0  0  0
  144.1586  132.5982  151.2927 C   0  0  0  0  0  0  0  0  0  0  0  0
  144.1889  133.8972  150.4747 C   0  0  0  0  0  0  0  0  0  0  0  0
  145.5943  134.4787  150.6481 C   0  0  0  0  0  0  0  0  0  0  0  0
  146.4433  133.3262  151.1857 C   0  0  2  0  0  0  0  0  0  0  0  0
  146.8830  132.5417  150.0906 O   0  0  0  0  0  0  0  0  0  0  0  0
  148.5755  133.0252  153.2292 N   0  0  0  0  0  0  0  0  0  0  0  0
  149.0803  133.9444  154.0579 C   0  0  0  0  0  0  0  0  0  0  0  0
  149.0420  133.9769  155.3921 N   0  0  0  0  0  0  0  0  0  0  0  0
  148.3922  132.8901  155.8994 C   0  0  0  0  0  0  0  0  0  0  0  0
  147.9238  134.2956  160.7037 C   0  0  2  0  0  0  0  0  0  0  0  0
  146.8754  134.4063  161.7983 C   0  0  0  0  0  0  0  0  0  0  0  0
  147.4796  135.4582  162.7217 C   0  0  0  0  0  0  0  0  0  0  0  0
  148.2113  136.3356  161.8741 O   0  0  0  0  0  0  0  0  0  0  0  0
  148.3304  135.7682  160.5735 C   0  0  0  0  0  0  0  0  0  0  0  0
  145.7337  132.8739  157.8514 H   0  0  0  0  0  0  0  0  0  0  0  0
  146.7130  135.4453  158.3664 H   0  0  0  0  0  0  0  0  0  0  0  0
  145.5291  134.7323  159.4371 H   0  0  0  0  0  0  0  0  0  0  0  0
  146.9618  132.6882  159.6680 H   0  0  0  0  0  0  0  0  0  0  0  0
  149.0809  134.2153  158.0861 H   0  0  0  0  0  0  0  0  0  0  0  0
  149.3492  132.7239  158.9255 H   0  0  0  0  0  0  0  0  0  0  0  0
  147.1130  130.8815  158.0826 H   0  0  0  0  0  0  0  0  0  0  0  0
  149.0390  129.7972  153.3280 H   0  0  0  0  0  0  0  0  0  0  0  0
  147.5257  129.3872  154.1118 H   0  0  0  0  0  0  0  0  0  0  0  0
  148.1925  128.9964  151.1562 H   0  0  0  0  0  0  0  0  0  0  0  0
  148.0357  127.7331  152.3579 H   0  0  0  0  0  0  0  0  0  0  0  0
  145.9432  127.9647  151.0012 H   0  0  0  0  0  0  0  0  0  0  0  0
  145.6427  128.2911  152.6955 H   0  0  0  0  0  0  0  0  0  0  0  0
  146.0830  130.3753  150.5067 H   0  0  0  0  0  0  0  0  0  0  0  0
  144.5732  129.9891  151.2916 H   0  0  0  0  0  0  0  0  0  0  0  0
  145.4358  130.8359  153.4543 H   0  0  0  0  0  0  0  0  0  0  0  0
  145.3376  133.1375  152.9943 H   0  0  0  0  0  0  0  0  0  0  0  0
  144.0925  131.7488  150.6119 H   0  0  0  0  0  0  0  0  0  0  0  0
  143.2779  132.5765  151.9329 H   0  0  0  0  0  0  0  0  0  0  0  0
  143.9868  133.6821  149.4246 H   0  0  0  0  0  0  0  0  0  0  0  0
  143.4317  134.6045  150.8147 H   0  0  0  0  0  0  0  0  0  0  0  0
  145.9899  134.9123  149.7285 H   0  0  0  0  0  0  0  0  0  0  0  0
  145.5617  135.2754  151.3927 H   0  0  0  0  0  0  0  0  0  0  0  0
  147.3114  133.7017  151.7283 H   0  0  0  0  0  0  0  0  0  0  0  0
  147.6816  132.1013  150.3382 H   0  0  0  0  0  0  0  0  0  0  0  0
  149.5873  134.7722  153.5847 H   0  0  0  0  0  0  0  0  0  0  0  0
  148.7808  133.7430  161.0916 H   0  0  0  0  0  0  0  0  0  0  0  0
  145.9324  134.7697  161.3873 H   0  0  0  0  0  0  0  0  0  0  0  0
  146.6787  133.4674  162.3143 H   0  0  0  0  0  0  0  0  0  0  0  0
  146.7232  135.9946  163.2951 H   0  0  0  0  0  0  0  0  0  0  0  0
  148.1738  134.9949  163.4241 H   0  0  0  0  0  0  0  0  0  0  0  0
  149.3440  135.8894  160.1907 H   0  0  0  0  0  0  0  0  0  0  0  0
  147.6515  136.3006  159.9057 H   0  0  0  0  0  0  0  0  0  0  0  0
  1  2  1  0  0  0  0
  1 31  1  0  0  0  0
  2  3  1  0  0  0  0
  2 32  1  0  0  0  0
  2 33  1  0  0  0  0
  3  4  1  0  0  0  0
  3 26  1  0  0  0  0
  3 34  1  0  0  0  0
  4  5  1  0  0  0  0
  4 35  1  0  0  0  0
  4 36  1  0  0  0  0
  5 25  1  0  0  0  0
  5  6  1  0  0  0  0
  6  7  2  0  0  0  0
  6 37  1  0  0  0  0
  7  8  1  0  0  0  0
  8 25  2  0  0  0  0
  8  9  1  0  0  0  0
  9 10  1  0  0  0  0
  9 22  2  0  0  0  0
 10 15  1  0  0  0  0
 10 11  1  0  0  0  0
 11 12  1  0  0  0  0
 11 38  1  0  0  0  0
 11 39  1  0  0  0  0
 12 13  1  0  0  0  0
 12 40  1  0  0  0  0
 12 41  1  0  0  0  0
 13 14  1  0  0  0  0
 13 42  1  0  0  0  0
 13 43  1  0  0  0  0
 14 15  1  0  0  0  0
 14 44  1  0  0  0  0
 14 45  1  0  0  0  0
 15 16  1  0  0  0  0
 15 46  1  0  0  0  0
 16 20  1  0  0  0  0
 16 17  1  0  0  0  0
 16 47  1  0  0  0  0
 17 18  1  0  0  0  0
 17 48  1  0  0  0  0
 17 49  1  0  0  0  0
 18 19  1  0  0  0  0
 18 50  1  0  0  0  0
 18 51  1  0  0  0  0
 19 20  1  0  0  0  0
 19 52  1  0  0  0  0
 19 53  1  0  0  0  0
 20 21  1  0  0  0  0
 20 54  1  0  0  0  0
 21 55  1  0  0  0  0
 22 23  1  0  0  0  0
 23 24  2  0  0  0  0
 23 56  1  0  0  0  0
 24 25  1  0  0  0  0
 26 30  1  0  0  0  0
 26 27  1  0  0  0  0
 26 57  1  0  0  0  0
 27 28  1  0  0  0  0
 27 58  1  0  0  0  0
 27 59  1  0  0  0  0
 28 29  1  0  0  0  0
 28 60  1  0  0  0  0
 28 61  1  0  0  0  0
 29 30  1  0  0  0  0
 30 62  1  0  0  0  0
 30 63  1  0  0  0  0
M  END
> <s_m_source_file>
AV-unprocessed.smi

> <i_m_source_file_index>
148

> <i_lp_mmshare_version>
43012

> <i_f3d_flags>
0

> <s_epik_input>
W0NIMl0xT1tDSDJdW0NIMl1bQ0BIXTFbQ0BIXShbQ0gyXVtPSF0pW0NIMl1uKFtjSF1uMiljKGMyMyluW2NIXW5jM040W0NIMl1bQ0gyXVtDSDJdW0NIMl1bQ0BIXTRbQ0BASF01W0NIMl1bQ0gyXVtDSDJdW0NASF01W09IXQ==

> <s_epik_cmdline>
J2VwaWtfcHl0aG9uJywgJy1waCcsICc3LjAnLCAnLXRuJywgJzgnLCAnLW1hJywgJzIwMCcsICctbWV0YWxfYmluZGluZycsICctaW1hZScsICc8aW5maWxlLm1hZT4nLCAnLW9tYWUnLCAnPG91dGZpbGUubWFlPic=

> <r_lp_tautomer_probability>
1

> <r_epik_Ionization_Penalty>
0.00556303

> <r_epik_Ionization_Penalty_Charging>
0

> <r_epik_Ionization_Penalty_Neutral>
0.00556303

> <r_epik_State_Penalty>
0.00401767

> <r_epik_Charging_Adjusted_Penalty>
0.00401767

> <i_epik_Tot_Q>
0

> <i_epik_Tot_abs_Q>
0

> <r_epik_Metal_State_Penalty>
-0

> <b_epik_Metal_Only>
0

> <s_lp_Force_Field>
OPLS_2005

> <r_lp_Energy>
69.1671

> <b_lp_Chiralities_Consistent>
1

> <s_lp_Variant>
AV-unprocessed.smi:148-12

> <Gold.Version>
5.8.1

> <Gold.Id.Protein>
6NUR|6NUR_protein|mol2

> <Gold.PLP.Fitness>
51.4721

> <Gold.PLP.PLP>
-44.8137

> <Gold.PLP.part.hbond>
-2.0000

> <Gold.PLP.part.metal>
0.0000

> <Gold.PLP.part.buried>
-6.6580

> <Gold.PLP.part.nonpolar>
-36.8116

> <Gold.PLP.part.repulsive>
0.3545

> <Gold.PLP.ligand.clash>
0.0000

> <Gold.PLP.ligand.torsion>
0.9445

> <Gold.PLP.Chemscore.Hbond>
2.0000

> <Gold.PLP.Chemscore.CHOScore>
0.6190

> <Gold.PLP.Chemscore.Metal>
0.0000

> <Gold.Chemscore.Hbonds>
donor molecule, donor type, donor heavy atom, donor atom, acceptor molecule, acceptor atom, score
      L1  H    21    55       P1 10747  1.00
      P1  H  6931  6943       L1    29  0.88
      L1  C    23    56       P1  7948  0.42

> <Gold.PLP.Chemscore.Internal.Correction>
0.6904

> <Gold.Rescore>
     Score         DG    S(hbond)    S(metal)    S(lipo)     H(rot)  DE(clash)    DE(int)     intcor
     12.79     -16.02       1.90        0.00     108.33       3.32       0.12       3.11       ----

> <Gold.Chemscore.Fitness>
12.7872

> <Gold.Chemscore.DG>
-16.0158

> <Gold.Chemscore.ZeroCoef>
-5.4800

> <Gold.Chemscore.Hbond>
1.9047

> <Gold.Chemscore.Metal>
0.0000

> <Gold.Chemscore.Lipo>
108.3261

> <Gold.Chemscore.Internal_Hbond>
0.0000

> <Gold.Chemscore.DEClash>
0.1176

> <Gold.Chemscore.DEInternal>
3.1110

> <Gold.Chemscore.Rot>
3.3203

> <Gold.Chemscore.Internal.Correction>
   9.000000E+99

> <Gold.Chemscore.Hbonds>
donor molecule, donor type, donor heavy atom, donor atom, acceptor molecule, acceptor atom, score
      L1  H    21    55       P1 10747  0.99
      P1  H  6931  6943       L1    29  0.67

> <Gold.Chemscore.Hbond.Weighted>
-6.3617

> <Gold.Chemscore.Metal.Weighted>
-0.0000

> <Gold.Chemscore.Lipo.Weighted>
-12.6742

> <Gold.Chemscore.Internal_Hbond.Weighted>
0.0000

> <Gold.Chemscore.DEClash.Weighted>
0.1176

> <Gold.Chemscore.DEInternal.Weighted>
3.1110

> <Gold.Chemscore.Rot.Weighted>
8.5000

> <Gold.Chemscore.Internal.Correction.Weighted>
   9.000000E+99

> <Gold.Protein.RotatedTorsions>
[ 6907 6896 6895 6894 ] final   96.26 input  -60.11 | X-H torsion
[ 7974 7965 7964 7962 ] final -149.11 input  175.53 | X-H torsion
[ 8008 7997 7996 7995 ] final -159.47 input   59.86 | X-H torsion
[ 10167 10162 10161 10158 ] final   92.02 input  -65.29 | X-H torsion
[ 10718 10713 10712 10709 ] final  -69.70 input   66.30 | X-H torsion
[ 10763 10752 10751 10750 ] final -167.43 input  -60.55 | X-H torsion
[ 11005 11000 10999 10996 ] final -168.71 input  -57.11 | X-H torsion

> <Gold.Protein.ActiveResidues>
 VAL166  LYS551  ARG553  GLY616  TRP617  ASP618  TYR619  PRO620  LYS621  CYS622 
 ASP623  PHE694  ASN695  SER759  ASP760  ASP761  ALA762  ILE779  LEU786  VAL792 
 PHE793  MET794  SER795  GLU796  ALA797  LYS798  CYS799  TRP800  GLU811  SER814 

> <Gold.Protein.RotatedAtoms>
  152.5436  134.0913  159.8277 H   0  0  0  0  0  0  0  0  0  0  0  0  # atno 6907 bound_to 6896
  151.1002  133.5241  159.2617 H   0  0  0  0  0  0  0  0  0  0  0  0  # atno 6908 bound_to 6896
  151.1999  135.0447  159.8922 H   0  0  0  0  0  0  0  0  0  0  0  0  # atno 6909 bound_to 6896
  144.7987  140.5107  143.5722 H   0  0  0  0  0  0  0  0  0  0  0  0  # atno 7974 bound_to 7965
  155.7630  140.0841  157.2146 H   0  0  0  0  0  0  0  0  0  0  0  0  # atno 8008 bound_to 7997
  154.4002  140.1539  156.2911 H   0  0  0  0  0  0  0  0  0  0  0  0  # atno 8009 bound_to 7997
  155.8821  140.3420  155.5898 H   0  0  0  0  0  0  0  0  0  0  0  0  # atno 8010 bound_to 7997
  139.8318  144.6683  150.9391 H   0  0  0  0  0  0  0  0  0  0  0  0  # atno 10167 bound_to 10162
  156.0442  130.4317  150.2187 H   0  0  0  0  0  0  0  0  0  0  0  0  # atno 10718 bound_to 10713
  154.6733  135.2943  154.9713 H   0  0  0  0  0  0  0  0  0  0  0  0  # atno 10763 bound_to 10752
  154.0732  135.6615  153.4831 H   0  0  0  0  0  0  0  0  0  0  0  0  # atno 10764 bound_to 10752
  153.0500  135.5180  154.7740 H   0  0  0  0  0  0  0  0  0  0  0  0  # atno 10765 bound_to 10752
  140.5389  134.5542  157.5094 H   0  0  0  0  0  0  0  0  0  0  0  0  # atno 11005 bound_to 11000
  145.5607  139.1479  143.3343 LP  0  0  0  0  0  0  0  0  0  0  0  0  # atno 17320 bound_to 7965
  146.2263  140.5743  142.8995 LP  0  0  0  0  0  0  0  0  0  0  0  0  # atno 17321 bound_to 7965
  140.7806  143.3994  151.1175 LP  0  0  0  0  0  0  0  0  0  0  0  0  # atno 17342 bound_to 10162
  139.7647  143.8583  152.3108 LP  0  0  0  0  0  0  0  0  0  0  0  0  # atno 17343 bound_to 10162
  157.0278  130.9998  151.3321 LP  0  0  0  0  0  0  0  0  0  0  0  0  # atno 17370 bound_to 10713
  157.5299  130.8051  149.7904 LP  0  0  0  0  0  0  0  0  0  0  0  0  # atno 17371 bound_to 10713
  139.9514  134.7610  156.0439 LP  0  0  0  0  0  0  0  0  0  0  0  0  # atno 17394 bound_to 11000
  141.1238  133.6605  156.3284 LP  0  0  0  0  0  0  0  0  0  0  0  0  # atno 17395 bound_to 11000

$$$$
