AV-unprocessed.smi:3155|AV-procd|sdf|12028|dock8
  -GOLD-   2272017443D 1   1.00000     0.00000
 Structure written by MMmdl.
 37 38  0  0  0  0  0  0  0  0  1 V2000
  152.8909  138.3755  154.5281 C   0  0  0  0  0  0  0  0  0  0  0  0
  151.7007  139.2046  155.0315 C   0  0  1  0  0  0  0  0  0  0  0  0
  150.4118  138.8245  154.2652 C   0  0  0  0  0  0  0  0  0  0  0  0
  149.3355  139.7880  154.4179 N   0  0  0  0  0  0  0  0  0  0  0  0
  148.0558  139.5771  154.8880 C   0  0  0  0  0  0  0  0  0  0  0  0
  147.4091  140.7793  154.8615 C   0  0  0  0  0  0  0  0  0  0  0  0
  148.3927  141.6811  154.3684 C   0  0  0  0  0  0  0  0  0  0  0  0
  149.5467  141.0866  154.1133 N   0  0  0  0  0  0  0  0  0  0  0  0
  151.5725  138.9338  156.4614 N   0  0  0  0  0  0  0  0  0  0  0  0
  151.0213  140.0713  157.2093 C   0  0  0  0  0  0  0  0  0  0  0  0
  152.1042  140.7884  158.0226 C   0  0  0  0  0  0  0  0  0  0  0  0
  153.0948  140.1490  158.3775 O   0  0  0  0  0  0  0  0  0  0  0  0
  151.9439  142.0947  158.3237 N   0  0  0  0  0  0  0  0  0  0  0  0
  150.7934  142.9239  157.9674 C   0  0  0  0  0  0  0  0  0  0  0  0
  150.9646  144.2279  158.7457 C   0  0  0  0  0  0  0  0  0  0  0  0
  152.4657  144.3289  158.9763 C   0  0  0  0  0  0  0  0  0  0  0  0
  152.9268  142.8744  159.0738 C   0  0  0  0  0  0  0  0  0  0  0  0
  153.0670  138.5499  153.4662 H   0  0  0  0  0  0  0  0  0  0  0  0
  152.7201  137.3066  154.6632 H   0  0  0  0  0  0  0  0  0  0  0  0
  153.8084  138.6369  155.0566 H   0  0  0  0  0  0  0  0  0  0  0  0
  151.9467  140.2542  154.8618 H   0  0  0  0  0  0  0  0  0  0  0  0
  150.6261  138.7571  153.1979 H   0  0  0  0  0  0  0  0  0  0  0  0
  150.0631  137.8356  154.5689 H   0  0  0  0  0  0  0  0  0  0  0  0
  147.7143  138.5987  155.1926 H   0  0  0  0  0  0  0  0  0  0  0  0
  146.3897  140.9843  155.1530 H   0  0  0  0  0  0  0  0  0  0  0  0
  148.3043  142.7430  154.1918 H   0  0  0  0  0  0  0  0  0  0  0  0
  152.4831  138.6861  156.8218 H   0  0  0  0  0  0  0  0  0  0  0  0
  150.5829  140.7847  156.5099 H   0  0  0  0  0  0  0  0  0  0  0  0
  150.2176  139.7539  157.8706 H   0  0  0  0  0  0  0  0  0  0  0  0
  150.8116  143.1171  156.8939 H   0  0  0  0  0  0  0  0  0  0  0  0
  149.8450  142.4458  158.2148 H   0  0  0  0  0  0  0  0  0  0  0  0
  150.5563  145.0911  158.2192 H   0  0  0  0  0  0  0  0  0  0  0  0
  150.4528  144.1495  159.7060 H   0  0  0  0  0  0  0  0  0  0  0  0
  152.9349  144.8047  158.1142 H   0  0  0  0  0  0  0  0  0  0  0  0
  152.7199  144.9139  159.8607 H   0  0  0  0  0  0  0  0  0  0  0  0
  152.9265  142.5409  160.1124 H   0  0  0  0  0  0  0  0  0  0  0  0
  153.9363  142.7518  158.6781 H   0  0  0  0  0  0  0  0  0  0  0  0
  1  2  1  0  0  0  0
  1 18  1  0  0  0  0
  1 19  1  0  0  0  0
  1 20  1  0  0  0  0
  2  3  1  0  0  0  0
  2  9  1  0  0  0  0
  2 21  1  0  0  0  0
  3  4  1  0  0  0  0
  3 22  1  0  0  0  0
  3 23  1  0  0  0  0
  4  8  1  0  0  0  0
  4  5  1  0  0  0  0
  5  6  2  0  0  0  0
  5 24  1  0  0  0  0
  6  7  1  0  0  0  0
  6 25  1  0  0  0  0
  7  8  2  0  0  0  0
  7 26  1  0  0  0  0
  9 10  1  0  0  0  0
  9 27  1  0  0  0  0
 10 11  1  0  0  0  0
 10 28  1  0  0  0  0
 10 29  1  0  0  0  0
 11 12  2  0  0  0  0
 11 13  1  0  0  0  0
 13 17  1  0  0  0  0
 13 14  1  0  0  0  0
 14 15  1  0  0  0  0
 14 30  1  0  0  0  0
 14 31  1  0  0  0  0
 15 16  1  0  0  0  0
 15 32  1  0  0  0  0
 15 33  1  0  0  0  0
 16 17  1  0  0  0  0
 16 34  1  0  0  0  0
 16 35  1  0  0  0  0
 17 36  1  0  0  0  0
 17 37  1  0  0  0  0
M  END
> <s_m_source_file>
AV-unprocessed.smi

> <i_m_source_file_index>
3155

> <i_lp_mmshare_version>
43012

> <i_f3d_flags>
0

> <s_epik_input>
bjFbY0hdW2NIXVtjSF1uMVtDSDJdW0NAQEhdKFtDSDNdKVtOSF1bQ0gyXUMoPU8pTjJbQ0gyXVtDSDJdW0NIMl1bQ0gyXTI=

> <s_epik_cmdline>
J2VwaWtfcHl0aG9uJywgJy1waCcsICc3LjAnLCAnLXRuJywgJzgnLCAnLW1hJywgJzIwMCcsICctbWV0YWxfYmluZGluZycsICctaW1hZScsICc8aW5maWxlLm1hZT4nLCAnLW9tYWUnLCAnPG91dGZpbGUubWFlPic=

> <r_lp_tautomer_probability>
1

> <r_epik_Ionization_Penalty>
1.00455

> <r_epik_Ionization_Penalty_Charging>
0

> <r_epik_Ionization_Penalty_Neutral>
1.00455

> <r_epik_State_Penalty>
1.05336

> <r_epik_Charging_Adjusted_Penalty>
1.05336

> <i_epik_Tot_Q>
0

> <i_epik_Tot_abs_Q>
0

> <r_epik_Metal_State_Penalty>
1.05331

> <b_epik_Metal_Only>
0

> <s_lp_Force_Field>
OPLS_2005

> <r_lp_Energy>
30.9369

> <b_lp_Chiralities_Consistent>
1

> <s_lp_Variant>
AV-unprocessed.smi:3155-4

> <Gold.Version>
5.8.1

> <Gold.Id.Protein>
6NUR|6NUR_protein|mol2

> <Gold.PLP.Fitness>
43.1176

> <Gold.PLP.PLP>
-38.1233

> <Gold.PLP.part.hbond>
-2.9271

> <Gold.PLP.part.metal>
0.0000

> <Gold.PLP.part.buried>
-2.9893

> <Gold.PLP.part.nonpolar>
-32.1165

> <Gold.PLP.part.repulsive>
0.2123

> <Gold.PLP.ligand.clash>
0.0000

> <Gold.PLP.ligand.torsion>
1.1948

> <Gold.PLP.Chemscore.Hbond>
1.4551

> <Gold.PLP.Chemscore.CHOScore>
1.0000

> <Gold.PLP.Chemscore.Metal>
0.0000

> <Gold.Chemscore.Hbonds>
donor molecule, donor type, donor heavy atom, donor atom, acceptor molecule, acceptor atom, score
      P1  H  7989  7998       L1     8  0.27
      P1  H  7997  8009       L1    12  0.98
      P1  H  8011  8017       L1     8  0.18
      L1  C     7    26       P1  8028  1.00

> <Gold.PLP.Chemscore.Internal.Correction>
0.0186

> <Gold.Rescore>
     Score         DG    S(hbond)    S(metal)    S(lipo)     H(rot)  DE(clash)    DE(int)     intcor
     13.62     -14.84       0.97        0.00      91.00       1.77       0.06       1.17       ----

> <Gold.Chemscore.Fitness>
13.6156

> <Gold.Chemscore.DG>
-14.8396

> <Gold.Chemscore.ZeroCoef>
-5.4800

> <Gold.Chemscore.Hbond>
0.9706

> <Gold.Chemscore.Metal>
0.0000

> <Gold.Chemscore.Lipo>
91.0007

> <Gold.Chemscore.Internal_Hbond>
0.0000

> <Gold.Chemscore.DEClash>
0.0563

> <Gold.Chemscore.DEInternal>
1.1677

> <Gold.Chemscore.Rot>
1.7693

> <Gold.Chemscore.Internal.Correction>
   9.000000E+99

> <Gold.Chemscore.Hbonds>
donor molecule, donor type, donor heavy atom, donor atom, acceptor molecule, acceptor atom, score
      P1  H  7989  7998       L1     8  0.05
      P1  H  7997  8009       L1    12  0.83
      P1  H  8011  8017       L1     8  0.01

> <Gold.Chemscore.Hbond.Weighted>
-3.2418

> <Gold.Chemscore.Metal.Weighted>
-0.0000

> <Gold.Chemscore.Lipo.Weighted>
-10.6471

> <Gold.Chemscore.Internal_Hbond.Weighted>
0.0000

> <Gold.Chemscore.DEClash.Weighted>
0.0563

> <Gold.Chemscore.DEInternal.Weighted>
1.1677

> <Gold.Chemscore.Rot.Weighted>
4.5294

> <Gold.Chemscore.Internal.Correction.Weighted>
   9.000000E+99

> <Gold.Protein.RotatedTorsions>
[ 6907 6896 6895 6894 ] final   32.94 input  -60.11 | X-H torsion
[ 7974 7965 7964 7962 ] final -148.10 input  175.53 | X-H torsion
[ 8008 7997 7996 7995 ] final  149.48 input   59.86 | X-H torsion
[ 10167 10162 10161 10158 ] final  -44.75 input  -65.29 | X-H torsion
[ 10718 10713 10712 10709 ] final -118.74 input   66.30 | X-H torsion
[ 10763 10752 10751 10750 ] final  125.03 input  -60.55 | X-H torsion
[ 11005 11000 10999 10996 ] final   12.10 input  -57.11 | X-H torsion

> <Gold.Protein.ActiveResidues>
 VAL166  LYS551  ARG553  GLY616  TRP617  ASP618  TYR619  PRO620  LYS621  CYS622 
 ASP623  PHE694  ASN695  SER759  ASP760  ASP761  ALA762  ILE779  LEU786  VAL792 
 PHE793  MET794  SER795  GLU796  ALA797  LYS798  CYS799  TRP800  GLU811  SER814 

> <Gold.Protein.RotatedAtoms>
  152.0815  134.9468  160.0573 H   0  0  0  0  0  0  0  0  0  0  0  0  # atno 6907 bound_to 6896
  152.0755  133.4122  159.4486 H   0  0  0  0  0  0  0  0  0  0  0  0  # atno 6908 bound_to 6896
  150.6836  134.2963  159.4731 H   0  0  0  0  0  0  0  0  0  0  0  0  # atno 6909 bound_to 6896
  144.8050  140.5240  143.5681 H   0  0  0  0  0  0  0  0  0  0  0  0  # atno 7974 bound_to 7965
  156.2753  140.2100  156.5865 H   0  0  0  0  0  0  0  0  0  0  0  0  # atno 8008 bound_to 7997
  154.7017  140.0520  157.0487 H   0  0  0  0  0  0  0  0  0  0  0  0  # atno 8009 bound_to 7997
  155.0726  140.3178  155.4628 H   0  0  0  0  0  0  0  0  0  0  0  0  # atno 8010 bound_to 7997
  140.6885  143.2914  151.3541 H   0  0  0  0  0  0  0  0  0  0  0  0  # atno 10167 bound_to 10162
  156.1129  130.6262  150.9329 H   0  0  0  0  0  0  0  0  0  0  0  0  # atno 10718 bound_to 10713
  153.6709  135.3330  155.3153 H   0  0  0  0  0  0  0  0  0  0  0  0  # atno 10763 bound_to 10752
  154.8491  135.4386  154.1706 H   0  0  0  0  0  0  0  0  0  0  0  0  # atno 10764 bound_to 10752
  153.2697  135.6999  153.7569 H   0  0  0  0  0  0  0  0  0  0  0  0  # atno 10765 bound_to 10752
  140.4958  134.0795  155.7782 H   0  0  0  0  0  0  0  0  0  0  0  0  # atno 11005 bound_to 11000
  145.5459  139.1476  143.3421 LP  0  0  0  0  0  0  0  0  0  0  0  0  # atno 17320 bound_to 7965
  146.2340  140.5598  142.8963 LP  0  0  0  0  0  0  0  0  0  0  0  0  # atno 17321 bound_to 7965
  139.6264  144.0805  152.2438 LP  0  0  0  0  0  0  0  0  0  0  0  0  # atno 17342 bound_to 10162
  140.0266  144.6112  150.7522 LP  0  0  0  0  0  0  0  0  0  0  0  0  # atno 17343 bound_to 10162
  157.6311  131.0921  150.8440 LP  0  0  0  0  0  0  0  0  0  0  0  0  # atno 17370 bound_to 10713
  156.8548  130.5093  149.5308 LP  0  0  0  0  0  0  0  0  0  0  0  0  # atno 17371 bound_to 10713
  141.1461  133.9052  157.2212 LP  0  0  0  0  0  0  0  0  0  0  0  0  # atno 17394 bound_to 11000
  139.9742  135.0119  156.9590 LP  0  0  0  0  0  0  0  0  0  0  0  0  # atno 17395 bound_to 11000

$$$$
