AV-unprocessed.smi:3354|AV-procd|sdf|12956|dock6
  -GOLD-   2272019393D 1   1.00000     0.00000
 Structure written by MMmdl.
 38 40  0  0  0  0  0  0  0  0  1 V2000
  152.8328  138.6825  154.6988 C   0  0  0  0  0  0  0  0  0  0  0  0
  151.9128  139.3309  155.7149 C   0  0  1  0  0  0  0  0  0  0  0  0
  150.5723  139.8886  155.2958 C   0  0  0  0  0  0  0  0  0  0  0  0
  150.6354  138.6669  156.1914 C   0  0  1  0  0  0  0  0  0  0  0  0
  150.2742  137.3738  155.6883 N   0  0  0  0  0  0  0  0  0  0  0  0
  148.9543  137.0972  155.1378 C   0  0  0  0  0  0  0  0  0  0  0  0
  148.8323  135.5631  155.1144 C   0  0  1  0  0  0  0  0  0  0  0  0
  148.2870  135.0963  153.8410 N   0  0  0  0  0  0  0  0  0  0  0  0
  147.0930  134.5111  153.6689 C   0  0  0  0  0  0  0  0  0  0  0  0
  146.2984  134.2994  154.5846 O   0  0  0  0  0  0  0  0  0  0  0  0
  146.8832  134.2131  152.3749 N   0  0  0  0  0  0  0  0  0  0  0  0
  145.7628  133.5675  151.7847 C   0  0  0  0  0  0  0  0  0  0  0  0
  145.8417  132.6815  150.6828 C   0  0  0  0  0  0  0  0  0  0  0  0
  144.6539  132.1208  150.1749 C   0  0  0  0  0  0  0  0  0  0  0  0
  143.4318  132.4709  150.7808 C   0  0  0  0  0  0  0  0  0  0  0  0
  143.3401  133.3242  151.8225 N   0  0  0  0  0  0  0  0  0  0  0  0
  144.4830  133.8582  152.3035 C   0  0  0  0  0  0  0  0  0  0  0  0
  150.2545  135.0375  155.3519 C   0  0  0  0  0  0  0  0  0  0  0  0
  151.0046  136.2638  155.8426 C   0  0  0  0  0  0  0  0  0  0  0  0
  152.1328  136.2022  156.3291 O   0  0  0  0  0  0  0  0  0  0  0  0
  152.2654  138.1979  153.9041 H   0  0  0  0  0  0  0  0  0  0  0  0
  153.4578  137.9341  155.1862 H   0  0  0  0  0  0  0  0  0  0  0  0
  153.4793  139.4354  154.2481 H   0  0  0  0  0  0  0  0  0  0  0  0
  152.4489  139.8978  156.4737 H   0  0  0  0  0  0  0  0  0  0  0  0
  150.2591  140.8260  155.7508 H   0  0  0  0  0  0  0  0  0  0  0  0
  150.2873  139.7673  154.2529 H   0  0  0  0  0  0  0  0  0  0  0  0
  150.3713  138.8452  157.2327 H   0  0  0  0  0  0  0  0  0  0  0  0
  148.1678  137.5477  155.7448 H   0  0  0  0  0  0  0  0  0  0  0  0
  148.8919  137.5221  154.1348 H   0  0  0  0  0  0  0  0  0  0  0  0
  148.2081  135.2498  155.9534 H   0  0  0  0  0  0  0  0  0  0  0  0
  148.8665  135.2327  153.0256 H   0  0  0  0  0  0  0  0  0  0  0  0
  147.5901  134.5286  151.7269 H   0  0  0  0  0  0  0  0  0  0  0  0
  146.7791  132.4336  150.2096 H   0  0  0  0  0  0  0  0  0  0  0  0
  144.6791  131.4413  149.3357 H   0  0  0  0  0  0  0  0  0  0  0  0
  142.5026  132.0598  150.4149 H   0  0  0  0  0  0  0  0  0  0  0  0
  144.3709  134.5391  153.1347 H   0  0  0  0  0  0  0  0  0  0  0  0
  150.2774  134.2355  156.0905 H   0  0  0  0  0  0  0  0  0  0  0  0
  150.7234  134.6790  154.4344 H   0  0  0  0  0  0  0  0  0  0  0  0
  1  2  1  0  0  0  0
  1 21  1  0  0  0  0
  1 22  1  0  0  0  0
  1 23  1  0  0  0  0
  2  4  1  0  0  0  0
  2  3  1  0  0  0  0
  2 24  1  0  0  0  0
  3  4  1  0  0  0  0
  3 25  1  0  0  0  0
  3 26  1  0  0  0  0
  4  5  1  0  0  0  0
  4 27  1  0  0  0  0
  5 19  1  0  0  0  0
  5  6  1  0  0  0  0
  6  7  1  0  0  0  0
  6 28  1  0  0  0  0
  6 29  1  0  0  0  0
  7  8  1  0  0  0  0
  7 18  1  0  0  0  0
  7 30  1  0  0  0  0
  8  9  1  0  0  0  0
  8 31  1  0  0  0  0
  9 10  2  0  0  0  0
  9 11  1  0  0  0  0
 11 12  1  0  0  0  0
 11 32  1  0  0  0  0
 12 17  1  0  0  0  0
 12 13  2  0  0  0  0
 13 14  1  0  0  0  0
 13 33  1  0  0  0  0
 14 15  2  0  0  0  0
 14 34  1  0  0  0  0
 15 16  1  0  0  0  0
 15 35  1  0  0  0  0
 16 17  2  0  0  0  0
 17 36  1  0  0  0  0
 18 19  1  0  0  0  0
 18 37  1  0  0  0  0
 18 38  1  0  0  0  0
 19 20  2  0  0  0  0
M  END
> <s_m_source_file>
AV-unprocessed.smi

> <i_m_source_file_index>
3354

> <i_lp_mmshare_version>
43012

> <i_f3d_flags>
0

> <s_epik_input>
W0NIM11bQ0BASF0xW0NIMl1bQ0BIXTFOMltDSDJdW0NASF0oW0NIMl1DMj1PKVtOSF1DKD1PKVtOSF1jM1tjSF1bY0hdW2NIXW5bY0hdMw==

> <s_epik_cmdline>
J2VwaWtfcHl0aG9uJywgJy1waCcsICc3LjAnLCAnLXRuJywgJzgnLCAnLW1hJywgJzIwMCcsICctbWV0YWxfYmluZGluZycsICctaW1hZScsICc8aW5maWxlLm1hZT4nLCAnLW9tYWUnLCAnPG91dGZpbGUubWFlPic=

> <r_epik_Ionization_Penalty>
0.00456191

> <r_epik_Ionization_Penalty_Charging>
0

> <r_epik_Ionization_Penalty_Neutral>
0.00456191

> <r_epik_State_Penalty>
0.00327094

> <r_epik_Charging_Adjusted_Penalty>
0.00327094

> <i_epik_Tot_Q>
0

> <i_epik_Tot_abs_Q>
0

> <r_epik_Metal_State_Penalty>
-0

> <b_epik_Metal_Only>
0

> <s_lp_Force_Field>
OPLS_2005

> <r_lp_Energy>
43.9825

> <b_lp_Chiralities_Consistent>
1

> <s_lp_Variant>
AV-unprocessed.smi:3354-2

> <Gold.Version>
5.8.1

> <Gold.Id.Protein>
6NUR|6NUR_protein|mol2

> <Gold.PLP.Fitness>
40.5718

> <Gold.PLP.PLP>
-31.5330

> <Gold.PLP.part.hbond>
-2.4488

> <Gold.PLP.part.metal>
0.0000

> <Gold.PLP.part.buried>
-3.9097

> <Gold.PLP.part.nonpolar>
-25.0177

> <Gold.PLP.part.repulsive>
0.3014

> <Gold.PLP.ligand.clash>
0.0000

> <Gold.PLP.ligand.torsion>
0.4272

> <Gold.PLP.Chemscore.Hbond>
2.2301

> <Gold.PLP.Chemscore.CHOScore>
1.0000

> <Gold.PLP.Chemscore.Metal>
0.0000

> <Gold.Chemscore.Hbonds>
donor molecule, donor type, donor heavy atom, donor atom, acceptor molecule, acceptor atom, score
      L1  H     8    31       P1  7948  0.73
      L1  H    11    32       P1  7948  0.47
      P1  H 10752 10765       L1    20  1.00
      L1  C    15    35       P1 10186  0.02
      L1  C    15    35       P1 10952  0.98

> <Gold.PLP.Chemscore.Internal.Correction>
0.2030

> <Gold.Rescore>
     Score         DG    S(hbond)    S(metal)    S(lipo)     H(rot)  DE(clash)    DE(int)     intcor
     16.46     -18.26       2.33        0.00      69.77       1.24       0.23       1.58       ----

> <Gold.Chemscore.Fitness>
16.4572

> <Gold.Chemscore.DG>
-18.2628

> <Gold.Chemscore.ZeroCoef>
-5.4800

> <Gold.Chemscore.Hbond>
2.3305

> <Gold.Chemscore.Metal>
0.0000

> <Gold.Chemscore.Lipo>
69.7705

> <Gold.Chemscore.Internal_Hbond>
0.0000

> <Gold.Chemscore.DEClash>
0.2269

> <Gold.Chemscore.DEInternal>
1.5786

> <Gold.Chemscore.Rot>
1.2361

> <Gold.Chemscore.Internal.Correction>
   9.000000E+99

> <Gold.Chemscore.Hbonds>
donor molecule, donor type, donor heavy atom, donor atom, acceptor molecule, acceptor atom, score
      L1  H     8    31       P1  7948  0.31
      L1  H    11    32       P1  7948  0.14
      P1  H 10752 10765       L1    20  0.50

> <Gold.Chemscore.Hbond.Weighted>
-7.7839

> <Gold.Chemscore.Metal.Weighted>
-0.0000

> <Gold.Chemscore.Lipo.Weighted>
-8.1631

> <Gold.Chemscore.Internal_Hbond.Weighted>
0.0000

> <Gold.Chemscore.DEClash.Weighted>
0.2269

> <Gold.Chemscore.DEInternal.Weighted>
1.5786

> <Gold.Chemscore.Rot.Weighted>
3.1643

> <Gold.Chemscore.Internal.Correction.Weighted>
   9.000000E+99

> <Gold.Protein.RotatedTorsions>
[ 6907 6896 6895 6894 ] final   -4.85 input  -60.11 | X-H torsion
[ 7974 7965 7964 7962 ] final  174.96 input  175.53 | X-H torsion
[ 8008 7997 7996 7995 ] final   42.24 input   59.86 | X-H torsion
[ 10167 10162 10161 10158 ] final  129.94 input  -65.29 | X-H torsion
[ 10718 10713 10712 10709 ] final  -98.37 input   66.30 | X-H torsion
[ 10763 10752 10751 10750 ] final -150.70 input  -60.55 | X-H torsion
[ 11005 11000 10999 10996 ] final   59.68 input  -57.11 | X-H torsion

> <Gold.Protein.ActiveResidues>
 VAL166  LYS551  ARG553  GLY616  TRP617  ASP618  TYR619  PRO620  LYS621  CYS622 
 ASP623  PHE694  ASN695  SER759  ASP760  ASP761  ALA762  ILE779  LEU786  VAL792 
 PHE793  MET794  SER795  GLU796  ALA797  LYS798  CYS799  TRP800  GLU811  SER814 

> <Gold.Protein.RotatedAtoms>
  151.4910  135.1057  159.9803 H   0  0  0  0  0  0  0  0  0  0  0  0  # atno 6907 bound_to 6896
  152.4741  133.8093  159.7005 H   0  0  0  0  0  0  0  0  0  0  0  0  # atno 6908 bound_to 6896
  150.8768  133.7365  159.2970 H   0  0  0  0  0  0  0  0  0  0  0  0  # atno 6909 bound_to 6896
  144.7211  139.9875  143.6439 H   0  0  0  0  0  0  0  0  0  0  0  0  # atno 7974 bound_to 7965
  155.2830  140.3373  155.4257 H   0  0  0  0  0  0  0  0  0  0  0  0  # atno 8008 bound_to 7997
  156.2081  140.1759  156.7796 H   0  0  0  0  0  0  0  0  0  0  0  0  # atno 8009 bound_to 7997
  154.5648  140.0680  156.8860 H   0  0  0  0  0  0  0  0  0  0  0  0  # atno 8010 bound_to 7997
  139.5454  144.6768  151.4491 H   0  0  0  0  0  0  0  0  0  0  0  0  # atno 10167 bound_to 10162
  156.0106  130.5235  150.6512 H   0  0  0  0  0  0  0  0  0  0  0  0  # atno 10718 bound_to 10713
  154.8103  135.3278  154.7323 H   0  0  0  0  0  0  0  0  0  0  0  0  # atno 10763 bound_to 10752
  153.7973  135.6906  153.4866 H   0  0  0  0  0  0  0  0  0  0  0  0  # atno 10764 bound_to 10752
  153.1877  135.4562  155.0055 H   0  0  0  0  0  0  0  0  0  0  0  0  # atno 10765 bound_to 10752
  140.0286  134.6045  155.9538 H   0  0  0  0  0  0  0  0  0  0  0  0  # atno 11005 bound_to 11000
  146.0438  139.3446  143.0681 LP  0  0  0  0  0  0  0  0  0  0  0  0  # atno 17320 bound_to 7965
  145.8301  140.9635  143.0853 LP  0  0  0  0  0  0  0  0  0  0  0  0  # atno 17321 bound_to 7965
  140.6700  143.8315  150.6987 LP  0  0  0  0  0  0  0  0  0  0  0  0  # atno 17342 bound_to 10162
  140.1736  143.4173  152.1983 LP  0  0  0  0  0  0  0  0  0  0  0  0  # atno 17343 bound_to 10162
  157.4273  131.0844  151.1073 LP  0  0  0  0  0  0  0  0  0  0  0  0  # atno 17370 bound_to 10713
  157.1657  130.6245  149.5624 LP  0  0  0  0  0  0  0  0  0  0  0  0  # atno 17371 bound_to 10713
  141.1818  133.6548  156.5050 LP  0  0  0  0  0  0  0  0  0  0  0  0  # atno 17394 bound_to 11000
  140.4264  134.7141  157.4918 LP  0  0  0  0  0  0  0  0  0  0  0  0  # atno 17395 bound_to 11000

$$$$
