AV-unprocessed.smi:155|AV-procd|sdf|1281|dock10
  -GOLD-   2262018553D 1   1.00000     0.00000
 Structure written by MMmdl.
 64 67  0  0  0  0  0  0  0  0  3 V2000
  143.5870  132.6420  149.3512 C   0  0  0  0  0  0  0  0  0  0  0  0
  144.9848  132.8852  149.7784 N   0  3  0  0  0  0  0  0  0  0  0  0
  145.8381  131.7035  149.5198 C   0  0  0  0  0  0  0  0  0  0  0  0
  145.0979  133.3621  151.1812 C   0  0  0  0  0  0  0  0  0  0  0  0
  146.2601  134.3600  151.3801 C   0  0  0  0  0  0  0  0  0  0  0  0
  146.9488  134.1980  152.6897 N   0  3  2  0  0  0  0  0  0  0  0  0
  147.7296  132.9338  152.7782 C   0  0  0  0  0  0  0  0  0  0  0  0
  149.0984  133.1838  153.4357 C   0  0  0  0  0  0  0  0  0  0  0  0
  149.0259  133.4324  154.9518 C   0  0  0  0  0  0  0  0  0  0  0  0
  148.1231  134.5271  155.3007 N   0  0  0  0  0  0  0  0  0  0  0  0
  148.5175  135.8362  155.2451 C   0  0  0  0  0  0  0  0  0  0  0  0
  147.6904  136.7195  154.6220 N   0  0  0  0  0  0  0  0  0  0  0  0
  148.0065  138.0124  154.5208 C   0  0  0  0  0  0  0  0  0  0  0  0
  149.0953  138.6381  154.9633 N   0  0  0  0  0  0  0  0  0  0  0  0
  149.9363  137.7720  155.5939 C   0  0  0  0  0  0  0  0  0  0  0  0
  149.7332  136.3714  155.7801 C   0  0  0  0  0  0  0  0  0  0  0  0
  150.8259  135.8445  156.4635 N   0  0  0  0  0  0  0  0  0  0  0  0
  151.6141  136.8621  156.6722 C   0  0  0  0  0  0  0  0  0  0  0  0
  151.1539  138.0602  156.1827 N   0  0  0  0  0  0  0  0  0  0  0  0
  151.8174  139.3490  156.2713 C   0  0  0  0  0  0  0  0  0  0  0  0
  152.2042  139.7096  157.7212 C   0  0  1  0  0  0  0  0  0  0  0  0
  153.3916  139.0414  158.1001 O   0  0  0  0  0  0  0  0  0  0  0  0
  152.3790  141.2209  157.9768 C   0  0  2  0  0  0  0  0  0  0  0  0
  152.8784  141.5665  159.3799 C   0  0  0  0  0  0  0  0  0  0  0  0
  152.4451  143.0091  159.5066 C   0  0  0  0  0  0  0  0  0  0  0  0
  151.0934  142.9977  158.7975 C   0  0  0  0  0  0  0  0  0  0  0  0
  151.1454  141.9264  157.8581 O   0  0  0  0  0  0  0  0  0  0  0  0
  146.6950  134.2011  155.2430 C   0  0  0  0  0  0  0  0  0  0  0  0
  146.0490  134.4296  153.8569 C   0  0  0  0  0  0  0  0  0  0  0  0
  143.1223  131.8640  149.9584 H   0  0  0  0  0  0  0  0  0  0  0  0
  143.5559  132.3196  148.3099 H   0  0  0  0  0  0  0  0  0  0  0  0
  142.9782  133.5420  149.4265 H   0  0  0  0  0  0  0  0  0  0  0  0
  145.5252  130.8543  150.1291 H   0  0  0  0  0  0  0  0  0  0  0  0
  146.8832  131.9202  149.7443 H   0  0  0  0  0  0  0  0  0  0  0  0
  145.7837  131.4093  148.4709 H   0  0  0  0  0  0  0  0  0  0  0  0
  144.1496  133.8024  151.4947 H   0  0  0  0  0  0  0  0  0  0  0  0
  145.2652  132.4979  151.8244 H   0  0  0  0  0  0  0  0  0  0  0  0
  146.9832  134.2764  150.5673 H   0  0  0  0  0  0  0  0  0  0  0  0
  145.8577  135.3711  151.3335 H   0  0  0  0  0  0  0  0  0  0  0  0
  147.1672  132.1581  153.3002 H   0  0  0  0  0  0  0  0  0  0  0  0
  147.9209  132.5348  151.7816 H   0  0  0  0  0  0  0  0  0  0  0  0
  149.7349  132.3148  153.2655 H   0  0  0  0  0  0  0  0  0  0  0  0
  149.5949  134.0170  152.9376 H   0  0  0  0  0  0  0  0  0  0  0  0
  148.6646  132.5251  155.4368 H   0  0  0  0  0  0  0  0  0  0  0  0
  150.0153  133.5863  155.3779 H   0  0  0  0  0  0  0  0  0  0  0  0
  147.2847  138.6337  154.0112 H   0  0  0  0  0  0  0  0  0  0  0  0
  152.5557  136.7668  157.1939 H   0  0  0  0  0  0  0  0  0  0  0  0
  152.7012  139.3252  155.6326 H   0  0  0  0  0  0  0  0  0  0  0  0
  151.1506  140.1025  155.8518 H   0  0  0  0  0  0  0  0  0  0  0  0
  151.4295  139.3420  158.3953 H   0  0  0  0  0  0  0  0  0  0  0  0
  153.1579  138.2103  158.4841 H   0  0  0  0  0  0  0  0  0  0  0  0
  153.0829  141.6454  157.2584 H   0  0  0  0  0  0  0  0  0  0  0  0
  152.3793  140.9613  160.1372 H   0  0  0  0  0  0  0  0  0  0  0  0
  153.9548  141.4332  159.4916 H   0  0  0  0  0  0  0  0  0  0  0  0
  152.3832  143.3520  160.5398 H   0  0  0  0  0  0  0  0  0  0  0  0
  153.1431  143.6557  158.9730 H   0  0  0  0  0  0  0  0  0  0  0  0
  150.2896  142.7960  159.5061 H   0  0  0  0  0  0  0  0  0  0  0  0
  150.8798  143.9463  158.3046 H   0  0  0  0  0  0  0  0  0  0  0  0
  146.5788  133.1492  155.5064 H   0  0  0  0  0  0  0  0  0  0  0  0
  146.1434  134.7389  156.0150 H   0  0  0  0  0  0  0  0  0  0  0  0
  145.7093  135.4638  153.8255 H   0  0  0  0  0  0  0  0  0  0  0  0
  145.1552  133.8102  153.7694 H   0  0  0  0  0  0  0  0  0  0  0  0
  145.3490  133.6212  149.1899 H   0  0  0  0  0  0  0  0  0  0  0  0
  147.6436  134.9307  152.7211 H   0  0  0  0  0  0  0  0  0  0  0  0
  1  2  1  0  0  0  0
  1 30  1  0  0  0  0
  1 31  1  0  0  0  0
  1 32  1  0  0  0  0
  2  3  1  0  0  0  0
  2  4  1  0  0  0  0
  2 63  1  0  0  0  0
  3 33  1  0  0  0  0
  3 34  1  0  0  0  0
  3 35  1  0  0  0  0
  4  5  1  0  0  0  0
  4 36  1  0  0  0  0
  4 37  1  0  0  0  0
  5  6  1  0  0  0  0
  5 38  1  0  0  0  0
  5 39  1  0  0  0  0
  6 29  1  0  0  0  0
  6  7  1  0  0  0  0
  6 64  1  0  0  0  0
  7  8  1  0  0  0  0
  7 40  1  0  0  0  0
  7 41  1  0  0  0  0
  8  9  1  0  0  0  0
  8 42  1  0  0  0  0
  8 43  1  0  0  0  0
  9 10  1  0  0  0  0
  9 44  1  0  0  0  0
  9 45  1  0  0  0  0
 10 11  1  0  0  0  0
 10 28  1  0  0  0  0
 11 16  1  0  0  0  0
 11 12  2  0  0  0  0
 12 13  1  0  0  0  0
 13 14  2  0  0  0  0
 13 46  1  0  0  0  0
 14 15  1  0  0  0  0
 15 19  1  0  0  0  0
 15 16  2  0  0  0  0
 16 17  1  0  0  0  0
 17 18  2  0  0  0  0
 18 19  1  0  0  0  0
 18 47  1  0  0  0  0
 19 20  1  0  0  0  0
 20 21  1  0  0  0  0
 20 48  1  0  0  0  0
 20 49  1  0  0  0  0
 21 22  1  0  0  0  0
 21 23  1  0  0  0  0
 21 50  1  0  0  0  0
 22 51  1  0  0  0  0
 23 27  1  0  0  0  0
 23 24  1  0  0  0  0
 23 52  1  0  0  0  0
 24 25  1  0  0  0  0
 24 53  1  0  0  0  0
 24 54  1  0  0  0  0
 25 26  1  0  0  0  0
 25 55  1  0  0  0  0
 25 56  1  0  0  0  0
 26 27  1  0  0  0  0
 26 57  1  0  0  0  0
 26 58  1  0  0  0  0
 28 29  1  0  0  0  0
 28 59  1  0  0  0  0
 28 60  1  0  0  0  0
 29 61  1  0  0  0  0
 29 62  1  0  0  0  0
M  CHG  1   2   1
M  CHG  1   6   1
M  END
> <s_m_source_file>
AV-unprocessed.smi

> <i_m_source_file_index>
155

> <i_lp_mmshare_version>
43012

> <i_f3d_flags>
0

> <s_epik_input>
W0NIM11OKFtDSDNdKVtDSDJdW0NIMl1OMVtDSDJdW0NIMl1bQ0gyXU4oW0NIMl1bQ0gyXTEpYyhuW2NIXW4yKWMoYzIzKW5bY0hdbjNbQ0gyXVtDQEhdKFtPSF0pW0NAQEhdNFtDSDJdW0NIMl1bQ0gyXU80

> <s_epik_cmdline>
J2VwaWtfcHl0aG9uJywgJy1waCcsICc3LjAnLCAnLXRuJywgJzgnLCAnLW1hJywgJzIwMCcsICctbWV0YWxfYmluZGluZycsICctaW1hZScsICc8aW5maWxlLm1hZT4nLCAnLW9tYWUnLCAnPG91dGZpbGUubWFlPic=

> <r_lp_tautomer_probability>
1

> <r_epik_Ionization_Penalty>
3.0333

> <r_epik_Ionization_Penalty_Charging>
3.03317

> <r_epik_Ionization_Penalty_Neutral>
0.000131872

> <r_epik_State_Penalty>
1.99939

> <r_epik_Charging_Adjusted_Penalty>
5.03256

> <i_epik_Tot_Q>
2

> <i_epik_Tot_abs_Q>
2

> <r_epik_Metal_State_Penalty>
2.00021

> <b_epik_Metal_Only>
0

> <s_lp_Force_Field>
OPLS_2005

> <r_lp_Energy>
62.4537

> <b_lp_Chiralities_Consistent>
1

> <s_lp_Variant>
AV-unprocessed.smi:155-15

> <Gold.Version>
5.8.1

> <Gold.Id.Protein>
6NUR|6NUR_protein|mol2

> <Gold.PLP.Fitness>
50.0996

> <Gold.PLP.PLP>
-40.7766

> <Gold.PLP.part.hbond>
-3.0000

> <Gold.PLP.part.metal>
0.0000

> <Gold.PLP.part.buried>
-5.4762

> <Gold.PLP.part.nonpolar>
-32.6916

> <Gold.PLP.part.repulsive>
1.4022

> <Gold.PLP.ligand.clash>
0.0000

> <Gold.PLP.ligand.torsion>
1.5408

> <Gold.PLP.Chemscore.Hbond>
4.0000

> <Gold.PLP.Chemscore.CHOScore>
0.0000

> <Gold.PLP.Chemscore.Metal>
0.0000

> <Gold.Chemscore.Hbonds>
donor molecule, donor type, donor heavy atom, donor atom, acceptor molecule, acceptor atom, score
      L1  H     2    63       P1  7921  0.81
      L1  H     6    64       P1  7948  2.00
      P1  H  7997  8009       L1    22  0.95

> <Gold.PLP.Chemscore.Internal.Correction>
0.4047

> <Gold.Rescore>
     Score         DG    S(hbond)    S(metal)    S(lipo)     H(rot)  DE(clash)    DE(int)     intcor
     16.46     -20.45       2.77        0.00     109.16       2.75       1.21       2.79       ----

> <Gold.Chemscore.Fitness>
16.4551

> <Gold.Chemscore.DG>
-20.4497

> <Gold.Chemscore.ZeroCoef>
-5.4800

> <Gold.Chemscore.Hbond>
2.7653

> <Gold.Chemscore.Metal>
0.0000

> <Gold.Chemscore.Lipo>
109.1615

> <Gold.Chemscore.Internal_Hbond>
0.0000

> <Gold.Chemscore.DEClash>
1.2089

> <Gold.Chemscore.DEInternal>
2.7858

> <Gold.Chemscore.Rot>
2.7493

> <Gold.Chemscore.Internal.Correction>
   9.000000E+99

> <Gold.Chemscore.Hbonds>
donor molecule, donor type, donor heavy atom, donor atom, acceptor molecule, acceptor atom, score
      L1  H     2    63       P1  7921  0.49
      L1  H     6    64       P1  7948  0.90
      P1  H  7997  8009       L1    22  0.22

> <Gold.Chemscore.Hbond.Weighted>
-9.2361

> <Gold.Chemscore.Metal.Weighted>
-0.0000

> <Gold.Chemscore.Lipo.Weighted>
-12.7719

> <Gold.Chemscore.Internal_Hbond.Weighted>
0.0000

> <Gold.Chemscore.DEClash.Weighted>
1.2089

> <Gold.Chemscore.DEInternal.Weighted>
2.7858

> <Gold.Chemscore.Rot.Weighted>
7.0383

> <Gold.Chemscore.Internal.Correction.Weighted>
   9.000000E+99

> <Gold.Protein.RotatedTorsions>
[ 6907 6896 6895 6894 ] final -140.24 input  -60.11 | X-H torsion
[ 7974 7965 7964 7962 ] final  116.11 input  175.53 | X-H torsion
[ 8008 7997 7996 7995 ] final  151.08 input   59.86 | X-H torsion
[ 10167 10162 10161 10158 ] final  -77.97 input  -65.29 | X-H torsion
[ 10718 10713 10712 10709 ] final   11.08 input   66.30 | X-H torsion
[ 10763 10752 10751 10750 ] final -158.34 input  -60.55 | X-H torsion
[ 11005 11000 10999 10996 ] final  -79.44 input  -57.11 | X-H torsion

> <Gold.Protein.ActiveResidues>
 VAL166  LYS551  ARG553  GLY616  TRP617  ASP618  TYR619  PRO620  LYS621  CYS622 
 ASP623  PHE694  ASN695  SER759  ASP760  ASP761  ALA762  ILE779  LEU786  VAL792 
 PHE793  MET794  SER795  GLU796  ALA797  LYS798  CYS799  TRP800  GLU811  SER814 

> <Gold.Protein.RotatedAtoms>
  151.0581  133.5567  159.2636 H   0  0  0  0  0  0  0  0  0  0  0  0  # atno 6907 bound_to 6896
  151.2552  135.0635  159.9087 H   0  0  0  0  0  0  0  0  0  0  0  0  # atno 6908 bound_to 6896
  152.5393  134.0335  159.8089 H   0  0  0  0  0  0  0  0  0  0  0  0  # atno 6909 bound_to 6896
  145.1837  139.3036  143.4404 H   0  0  0  0  0  0  0  0  0  0  0  0  # atno 7974 bound_to 7965
  156.2689  140.2057  156.6119 H   0  0  0  0  0  0  0  0  0  0  0  0  # atno 8008 bound_to 7997
  154.6825  140.0538  157.0304 H   0  0  0  0  0  0  0  0  0  0  0  0  # atno 8009 bound_to 7997
  155.0980  140.3203  155.4558 H   0  0  0  0  0  0  0  0  0  0  0  0  # atno 8010 bound_to 7997
  140.4723  143.2423  151.8186 H   0  0  0  0  0  0  0  0  0  0  0  0  # atno 10167 bound_to 10162
  156.9904  130.6040  149.5685 H   0  0  0  0  0  0  0  0  0  0  0  0  # atno 10718 bound_to 10713
  154.7564  135.3106  154.8461 H   0  0  0  0  0  0  0  0  0  0  0  0  # atno 10763 bound_to 10752
  153.9234  135.6793  153.4751 H   0  0  0  0  0  0  0  0  0  0  0  0  # atno 10764 bound_to 10752
  153.1162  135.4843  154.9049 H   0  0  0  0  0  0  0  0  0  0  0  0  # atno 10765 bound_to 10752
  141.1667  133.7106  156.8123 H   0  0  0  0  0  0  0  0  0  0  0  0  # atno 11005 bound_to 11000
  146.3448  140.2026  142.8589 LP  0  0  0  0  0  0  0  0  0  0  0  0  # atno 17320 bound_to 7965
  145.0110  140.8714  143.5224 LP  0  0  0  0  0  0  0  0  0  0  0  0  # atno 17321 bound_to 7965
  139.4820  144.4876  151.9226 LP  0  0  0  0  0  0  0  0  0  0  0  0  # atno 17342 bound_to 10162
  140.3961  144.2553  150.5896 LP  0  0  0  0  0  0  0  0  0  0  0  0  # atno 17343 bound_to 10162
  156.0209  130.5304  150.8273 LP  0  0  0  0  0  0  0  0  0  0  0  0  # atno 17370 bound_to 10713
  157.5463  131.0942  150.9758 LP  0  0  0  0  0  0  0  0  0  0  0  0  # atno 17371 bound_to 10713
  140.2178  134.8779  157.3345 LP  0  0  0  0  0  0  0  0  0  0  0  0  # atno 17394 bound_to 11000
  140.2019  134.4244  155.7658 LP  0  0  0  0  0  0  0  0  0  0  0  0  # atno 17395 bound_to 11000

$$$$
