AV-unprocessed.smi:1572|AV-procd|sdf|6331|dock2
  -GOLD-   22720 6543D 1   1.00000     0.00000
 Structure written by MMmdl.
 42 43  0  0  0  0  0  0  0  0  3 V2000
  144.2894  133.4309  151.4762 C   0  0  0  0  0  0  0  0  0  0  0  0
  145.4910  134.1253  151.0263 N   0  0  0  0  0  0  0  0  0  0  0  0
  145.6438  135.4541  151.6179 C   0  0  0  0  0  0  0  0  0  0  0  0
  146.0169  135.3910  153.1140 C   0  0  0  0  0  0  0  0  0  0  0  0
  147.2738  134.6133  153.3118 N   0  3  0  0  0  0  0  0  0  0  0  0
  147.8656  134.6604  154.6972 C   0  0  0  0  0  0  0  0  0  0  0  0
  149.2231  133.9133  154.7143 C   0  0  0  0  0  0  0  0  0  0  0  0
  148.1835  136.1304  155.0719 C   0  0  0  0  0  0  0  0  0  0  0  0
  146.9037  134.0224  155.7445 C   0  0  0  0  0  0  0  0  0  0  0  0
  147.4594  133.9900  157.0966 N   0  0  0  0  0  0  0  0  0  0  0  0
  146.9344  134.5648  158.1882 C   0  0  0  0  0  0  0  0  0  0  0  0
  145.8772  135.1943  158.1068 O   0  0  0  0  0  0  0  0  0  0  0  0
  147.6745  134.3821  159.3043 N   0  5  0  0  0  0  0  0  0  0  0  0
  147.6048  135.2719  160.3081 C   0  0  0  0  0  0  0  0  0  0  0  0
  147.7094  136.5947  160.1037 N   0  0  0  0  0  0  0  0  0  0  0  0
  147.6103  137.3371  161.2726 N   0  0  0  0  0  0  0  0  0  0  0  0
  147.4215  136.5515  162.3325 C   0  0  0  0  0  0  0  0  0  0  0  0
  147.3479  134.8342  161.9993 S   0  0  0  0  0  0  0  0  0  0  0  0
  147.1039  133.2549  152.7217 C   0  0  0  0  0  0  0  0  0  0  0  0
  146.7151  133.3521  151.2319 C   0  0  0  0  0  0  0  0  0  0  0  0
  143.4035  134.0216  151.2416 H   0  0  0  0  0  0  0  0  0  0  0  0
  144.2907  133.2384  152.5485 H   0  0  0  0  0  0  0  0  0  0  0  0
  144.1929  132.4739  150.9626 H   0  0  0  0  0  0  0  0  0  0  0  0
  146.4214  135.9896  151.0715 H   0  0  0  0  0  0  0  0  0  0  0  0
  144.7235  136.0231  151.4796 H   0  0  0  0  0  0  0  0  0  0  0  0
  146.1306  136.4170  153.4573 H   0  0  0  0  0  0  0  0  0  0  0  0
  145.2003  134.9597  153.6920 H   0  0  0  0  0  0  0  0  0  0  0  0
  149.7722  134.0968  155.6387 H   0  0  0  0  0  0  0  0  0  0  0  0
  149.8652  134.2342  153.8933 H   0  0  0  0  0  0  0  0  0  0  0  0
  149.1038  132.8322  154.6472 H   0  0  0  0  0  0  0  0  0  0  0  0
  148.8048  136.1955  155.9656 H   0  0  0  0  0  0  0  0  0  0  0  0
  147.2848  136.7072  155.2885 H   0  0  0  0  0  0  0  0  0  0  0  0
  148.7253  136.6370  154.2724 H   0  0  0  0  0  0  0  0  0  0  0  0
  145.9388  134.5295  155.7554 H   0  0  0  0  0  0  0  0  0  0  0  0
  146.6893  132.9871  155.4822 H   0  0  0  0  0  0  0  0  0  0  0  0
  148.3256  133.4862  157.2188 H   0  0  0  0  0  0  0  0  0  0  0  0
  147.3244  136.9855  163.3163 H   0  0  0  0  0  0  0  0  0  0  0  0
  148.0297  132.6861  152.7714 H   0  0  0  0  0  0  0  0  0  0  0  0
  146.3581  132.6836  153.2740 H   0  0  0  0  0  0  0  0  0  0  0  0
  146.5938  132.3558  150.8049 H   0  0  0  0  0  0  0  0  0  0  0  0
  147.5238  133.8286  150.6761 H   0  0  0  0  0  0  0  0  0  0  0  0
  147.9592  135.0699  152.7276 H   0  0  0  0  0  0  0  0  0  0  0  0
  1  2  1  0  0  0  0
  1 21  1  0  0  0  0
  1 22  1  0  0  0  0
  1 23  1  0  0  0  0
  2 20  1  0  0  0  0
  2  3  1  0  0  0  0
  3  4  1  0  0  0  0
  3 24  1  0  0  0  0
  3 25  1  0  0  0  0
  4  5  1  0  0  0  0
  4 26  1  0  0  0  0
  4 27  1  0  0  0  0
  5  6  1  0  0  0  0
  5 19  1  0  0  0  0
  5 42  1  0  0  0  0
  6  7  1  0  0  0  0
  6  8  1  0  0  0  0
  6  9  1  0  0  0  0
  7 28  1  0  0  0  0
  7 29  1  0  0  0  0
  7 30  1  0  0  0  0
  8 31  1  0  0  0  0
  8 32  1  0  0  0  0
  8 33  1  0  0  0  0
  9 10  1  0  0  0  0
  9 34  1  0  0  0  0
  9 35  1  0  0  0  0
 10 11  1  0  0  0  0
 10 36  1  0  0  0  0
 11 12  2  0  0  0  0
 11 13  1  0  0  0  0
 13 14  1  0  0  0  0
 14 18  1  0  0  0  0
 14 15  2  0  0  0  0
 15 16  1  0  0  0  0
 16 17  2  0  0  0  0
 17 18  1  0  0  0  0
 17 37  1  0  0  0  0
 19 20  1  0  0  0  0
 19 38  1  0  0  0  0
 19 39  1  0  0  0  0
 20 40  1  0  0  0  0
 20 41  1  0  0  0  0
M  CHG  1   5   1
M  CHG  1  13  -1
M  END
> <s_m_source_file>
AV-unprocessed.smi

> <i_m_source_file_index>
1572

> <i_lp_mmshare_version>
43012

> <i_f3d_flags>
0

> <s_epik_input>
W0NIM11OMVtDSDJdW0NIMl1OKFtDSDJdW0NIMl0xKUMoW0NIM10pKFtDSDNdKVtDSDJdW05IXUMoPU8pW05IXWMybm5bY0hdczI=

> <s_epik_cmdline>
J2VwaWtfcHl0aG9uJywgJy1waCcsICc3LjAnLCAnLXRuJywgJzgnLCAnLW1hJywgJzIwMCcsICctbWV0YWxfYmluZGluZycsICctaW1hZScsICc8aW5maWxlLm1hZT4nLCAnLW9tYWUnLCAnPG91dGZpbGUubWFlPic=

> <r_epik_Ionization_Penalty>
3.12043

> <r_epik_Ionization_Penalty_Charging>
3.08547

> <r_epik_Ionization_Penalty_Neutral>
0.0349584

> <r_epik_State_Penalty>
4.04075

> <r_epik_Charging_Adjusted_Penalty>
7.12622

> <i_epik_Tot_Q>
0

> <i_epik_Tot_abs_Q>
2

> <r_epik_Metal_State_Penalty>
1.47091

> <b_epik_Metal_Only>
1

> <s_lp_Force_Field>
OPLS_2005

> <r_lp_Energy>
19.1563

> <b_lp_Chiralities_Consistent>
1

> <s_lp_Variant>
AV-unprocessed.smi:1572-5

> <Gold.Version>
5.8.1

> <Gold.Id.Protein>
6NUR|6NUR_protein|mol2

> <Gold.PLP.Fitness>
37.4957

> <Gold.PLP.PLP>
-27.0756

> <Gold.PLP.part.hbond>
-3.0000

> <Gold.PLP.part.metal>
0.0000

> <Gold.PLP.part.buried>
-4.4736

> <Gold.PLP.part.nonpolar>
-19.6238

> <Gold.PLP.part.repulsive>
0.1474

> <Gold.PLP.ligand.clash>
0.0000

> <Gold.PLP.ligand.torsion>
0.6251

> <Gold.PLP.Chemscore.Hbond>
3.8400

> <Gold.PLP.Chemscore.CHOScore>
0.0000

> <Gold.PLP.Chemscore.Metal>
0.0000

> <Gold.Chemscore.Hbonds>
donor molecule, donor type, donor heavy atom, donor atom, acceptor molecule, acceptor atom, score
      L1  H     5    42       P1  7948  2.00
      P1  H  6931  6943       L1    16  0.78
      P1  H  6934  6947       L1    16  0.85

> <Gold.PLP.Chemscore.Internal.Correction>
0.1502

> <Gold.Rescore>
     Score         DG    S(hbond)    S(metal)    S(lipo)     H(rot)  DE(clash)    DE(int)     intcor
     14.47     -15.15       2.29        0.00      53.76       1.67       0.00       0.68       ----

> <Gold.Chemscore.Fitness>
14.4671

> <Gold.Chemscore.DG>
-15.1488

> <Gold.Chemscore.ZeroCoef>
-5.4800

> <Gold.Chemscore.Hbond>
2.2912

> <Gold.Chemscore.Metal>
0.0000

> <Gold.Chemscore.Lipo>
53.7603

> <Gold.Chemscore.Internal_Hbond>
0.0000

> <Gold.Chemscore.DEClash>
0.0000

> <Gold.Chemscore.DEInternal>
0.6817

> <Gold.Chemscore.Rot>
1.6694

> <Gold.Chemscore.Internal.Correction>
   9.000000E+99

> <Gold.Chemscore.Hbonds>
donor molecule, donor type, donor heavy atom, donor atom, acceptor molecule, acceptor atom, score
      L1  H     5    42       P1  7948  0.97
      P1  H  6931  6943       L1    16  0.15
      P1  H  6934  6947       L1    16  0.70

> <Gold.Chemscore.Hbond.Weighted>
-7.6526

> <Gold.Chemscore.Metal.Weighted>
-0.0000

> <Gold.Chemscore.Lipo.Weighted>
-6.2899

> <Gold.Chemscore.Internal_Hbond.Weighted>
0.0000

> <Gold.Chemscore.DEClash.Weighted>
0.0000

> <Gold.Chemscore.DEInternal.Weighted>
0.6817

> <Gold.Chemscore.Rot.Weighted>
4.2738

> <Gold.Chemscore.Internal.Correction.Weighted>
   9.000000E+99

> <Gold.Protein.RotatedTorsions>
[ 6907 6896 6895 6894 ] final   14.10 input  -60.11 | X-H torsion
[ 7974 7965 7964 7962 ] final   77.61 input  175.53 | X-H torsion
[ 8008 7997 7996 7995 ] final   74.35 input   59.86 | X-H torsion
[ 10167 10162 10161 10158 ] final  142.07 input  -65.29 | X-H torsion
[ 10718 10713 10712 10709 ] final  129.24 input   66.30 | X-H torsion
[ 10763 10752 10751 10750 ] final  104.85 input  -60.55 | X-H torsion
[ 11005 11000 10999 10996 ] final -109.18 input  -57.11 | X-H torsion

> <Gold.Protein.ActiveResidues>
 VAL166  LYS551  ARG553  GLY616  TRP617  ASP618  TYR619  PRO620  LYS621  CYS622 
 ASP623  PHE694  ASN695  SER759  ASP760  ASP761  ALA762  ILE779  LEU786  VAL792 
 PHE793  MET794  SER795  GLU796  ALA797  LYS798  CYS799  TRP800  GLU811  SER814 

> <Gold.Protein.RotatedAtoms>
  151.7968  135.0720  160.0394 H   0  0  0  0  0  0  0  0  0  0  0  0  # atno 6907 bound_to 6896
  152.3117  133.5755  159.5694 H   0  0  0  0  0  0  0  0  0  0  0  0  # atno 6908 bound_to 6896
  150.7323  134.0058  159.3695 H   0  0  0  0  0  0  0  0  0  0  0  0  # atno 6909 bound_to 6896
  145.6879  139.2543  143.1777 H   0  0  0  0  0  0  0  0  0  0  0  0  # atno 7974 bound_to 7965
  155.7971  140.3477  155.5382 H   0  0  0  0  0  0  0  0  0  0  0  0  # atno 8008 bound_to 7997
  155.8575  140.0966  157.1655 H   0  0  0  0  0  0  0  0  0  0  0  0  # atno 8009 bound_to 7997
  154.4010  140.1364  156.3908 H   0  0  0  0  0  0  0  0  0  0  0  0  # atno 8010 bound_to 7997
  139.5003  144.6130  151.6227 H   0  0  0  0  0  0  0  0  0  0  0  0  # atno 10167 bound_to 10162
  157.5172  131.1097  150.9206 H   0  0  0  0  0  0  0  0  0  0  0  0  # atno 10718 bound_to 10713
  153.3714  135.3929  155.1791 H   0  0  0  0  0  0  0  0  0  0  0  0  # atno 10763 bound_to 10752
  154.8695  135.3703  154.4973 H   0  0  0  0  0  0  0  0  0  0  0  0  # atno 10764 bound_to 10752
  153.5441  135.7084  153.5683 H   0  0  0  0  0  0  0  0  0  0  0  0  # atno 10765 bound_to 10752
  141.0861  133.9136  157.2181 H   0  0  0  0  0  0  0  0  0  0  0  0  # atno 11005 bound_to 11000
  146.0908  140.7658  142.9596 LP  0  0  0  0  0  0  0  0  0  0  0  0  # atno 17320 bound_to 7965
  144.7006  140.3634  143.7159 LP  0  0  0  0  0  0  0  0  0  0  0  0  # atno 17321 bound_to 7965
  140.5811  143.9945  150.6268 LP  0  0  0  0  0  0  0  0  0  0  0  0  # atno 17342 bound_to 10162
  140.3094  143.3208  152.0894 LP  0  0  0  0  0  0  0  0  0  0  0  0  # atno 17343 bound_to 10162
  156.9828  130.5533  149.5297 LP  0  0  0  0  0  0  0  0  0  0  0  0  # atno 17370 bound_to 10713
  156.0329  130.5419  150.8579 LP  0  0  0  0  0  0  0  0  0  0  0  0  # atno 17371 bound_to 10713
  139.9680  135.0136  156.9437 LP  0  0  0  0  0  0  0  0  0  0  0  0  # atno 17394 bound_to 11000
  140.5359  134.0768  155.7328 LP  0  0  0  0  0  0  0  0  0  0  0  0  # atno 17395 bound_to 11000

$$$$
