AV-unprocessed.smi:1174|AV-procd|sdf|4946|dock2
  -GOLD-   22720 3533D 1   1.00000     0.00000
 Structure written by MMmdl.
 41 42  0  0  0  0  0  0  0  0  1 V2000
  154.5401  141.0980  161.3953 C   0  0  0  0  0  0  0  0  0  0  0  0
  153.6719  141.8289  160.3611 C   0  0  2  0  0  0  0  0  0  0  0  0
  152.7510  142.8755  161.0188 C   0  0  0  0  0  0  0  0  0  0  0  0
  151.8360  143.4780  160.0634 N   0  0  0  0  0  0  0  0  0  0  0  0
  152.1073  143.9481  158.7958 C   0  0  0  0  0  0  0  0  0  0  0  0
  150.9307  144.3986  158.2687 C   0  0  0  0  0  0  0  0  0  0  0  0
  149.9827  144.1573  159.3022 C   0  0  0  0  0  0  0  0  0  0  0  0
  150.5280  143.6103  160.3764 N   0  0  0  0  0  0  0  0  0  0  0  0
  152.8671  140.8660  159.6144 N   0  0  0  0  0  0  0  0  0  0  0  0
  153.3357  139.7881  158.9695 C   0  0  0  0  0  0  0  0  0  0  0  0
  154.5057  139.4107  159.0386 O   0  0  0  0  0  0  0  0  0  0  0  0
  152.3295  139.0448  158.0833 C   0  0  2  0  0  0  0  0  0  0  0  0
  152.9275  137.7467  157.4947 C   0  0  0  0  0  0  0  0  0  0  0  0
  151.9566  137.0782  156.5020 C   0  0  0  0  0  0  0  0  0  0  0  0
  151.4581  138.0867  155.4501 C   0  0  0  0  0  0  0  0  0  0  0  0
  150.8443  139.2334  156.1421 N   0  0  0  0  0  0  0  0  0  0  0  0
  149.5172  139.5019  156.2313 C   0  0  0  0  0  0  0  0  0  0  0  0
  148.7126  138.5895  155.6776 N   0  0  0  0  0  0  0  0  0  0  0  0
  149.0580  140.5211  156.7451 O   0  0  0  0  0  0  0  0  0  0  0  0
  151.8344  139.9621  156.9436 C   0  0  0  0  0  0  0  0  0  0  0  0
  155.1590  141.8015  161.9528 H   0  0  0  0  0  0  0  0  0  0  0  0
  155.2091  140.3840  160.9136 H   0  0  0  0  0  0  0  0  0  0  0  0
  153.9281  140.5504  162.1127 H   0  0  0  0  0  0  0  0  0  0  0  0
  154.3364  142.3565  159.6740 H   0  0  0  0  0  0  0  0  0  0  0  0
  152.1758  142.4268  161.8307 H   0  0  0  0  0  0  0  0  0  0  0  0
  153.3472  143.6732  161.4635 H   0  0  0  0  0  0  0  0  0  0  0  0
  153.1026  143.9178  158.3776 H   0  0  0  0  0  0  0  0  0  0  0  0
  150.7704  144.8311  157.2923 H   0  0  0  0  0  0  0  0  0  0  0  0
  148.9223  144.3622  159.3039 H   0  0  0  0  0  0  0  0  0  0  0  0
  151.8901  141.0927  159.4963 H   0  0  0  0  0  0  0  0  0  0  0  0
  151.4686  138.7722  158.6975 H   0  0  0  0  0  0  0  0  0  0  0  0
  153.8607  137.9686  156.9749 H   0  0  0  0  0  0  0  0  0  0  0  0
  153.1781  137.0482  158.2942 H   0  0  0  0  0  0  0  0  0  0  0  0
  152.4457  136.2354  156.0128 H   0  0  0  0  0  0  0  0  0  0  0  0
  151.1039  136.6688  157.0452 H   0  0  0  0  0  0  0  0  0  0  0  0
  152.2970  138.4403  154.8492 H   0  0  0  0  0  0  0  0  0  0  0  0
  150.7917  137.5861  154.7482 H   0  0  0  0  0  0  0  0  0  0  0  0
  147.7118  138.7174  155.7054 H   0  0  0  0  0  0  0  0  0  0  0  0
  149.1119  137.7744  155.2356 H   0  0  0  0  0  0  0  0  0  0  0  0
  151.4344  140.8929  157.3506 H   0  0  0  0  0  0  0  0  0  0  0  0
  152.6651  140.2582  156.3007 H   0  0  0  0  0  0  0  0  0  0  0  0
  1  2  1  0  0  0  0
  1 21  1  0  0  0  0
  1 22  1  0  0  0  0
  1 23  1  0  0  0  0
  2  3  1  0  0  0  0
  2  9  1  0  0  0  0
  2 24  1  0  0  0  0
  3  4  1  0  0  0  0
  3 25  1  0  0  0  0
  3 26  1  0  0  0  0
  4  8  1  0  0  0  0
  4  5  1  0  0  0  0
  5  6  2  0  0  0  0
  5 27  1  0  0  0  0
  6  7  1  0  0  0  0
  6 28  1  0  0  0  0
  7  8  2  0  0  0  0
  7 29  1  0  0  0  0
  9 10  1  0  0  0  0
  9 30  1  0  0  0  0
 10 11  2  0  0  0  0
 10 12  1  0  0  0  0
 12 20  1  0  0  0  0
 12 13  1  0  0  0  0
 12 31  1  0  0  0  0
 13 14  1  0  0  0  0
 13 32  1  0  0  0  0
 13 33  1  0  0  0  0
 14 15  1  0  0  0  0
 14 34  1  0  0  0  0
 14 35  1  0  0  0  0
 15 16  1  0  0  0  0
 15 36  1  0  0  0  0
 15 37  1  0  0  0  0
 16 17  1  0  0  0  0
 16 20  1  0  0  0  0
 17 18  1  0  0  0  0
 17 19  2  0  0  0  0
 18 38  1  0  0  0  0
 18 39  1  0  0  0  0
 20 40  1  0  0  0  0
 20 41  1  0  0  0  0
M  END
> <s_m_source_file>
AV-unprocessed.smi

> <i_m_source_file_index>
1174

> <i_lp_mmshare_version>
43012

> <i_f3d_flags>
0

> <s_epik_input>
bjFbY0hdW2NIXVtjSF1uMVtDSDJdW0NAQEhdKFtDSDNdKVtOSF1DKD1PKVtDQEBIXTJbQ0gyXVtDSDJdW0NIMl1OKFtDSDJdMilDKD1PKVtOSDJd

> <s_epik_cmdline>
J2VwaWtfcHl0aG9uJywgJy1waCcsICc3LjAnLCAnLXRuJywgJzgnLCAnLW1hJywgJzIwMCcsICctbWV0YWxfYmluZGluZycsICctaW1hZScsICc8aW5maWxlLm1hZT4nLCAnLW9tYWUnLCAnPG91dGZpbGUubWFlPic=

> <r_lp_tautomer_probability>
1

> <r_epik_Ionization_Penalty>
0.000372452

> <r_epik_Ionization_Penalty_Charging>
0

> <r_epik_Ionization_Penalty_Neutral>
0.000372452

> <r_epik_State_Penalty>
-0

> <r_epik_Charging_Adjusted_Penalty>
0

> <i_epik_Tot_Q>
0

> <i_epik_Tot_abs_Q>
0

> <r_epik_Metal_State_Penalty>
-0

> <b_epik_Metal_Only>
0

> <s_lp_Force_Field>
OPLS_2005

> <r_lp_Energy>
26.8287

> <b_lp_Chiralities_Consistent>
1

> <s_lp_Variant>
AV-unprocessed.smi:1174-1

> <Gold.Version>
5.8.1

> <Gold.Id.Protein>
6NUR|6NUR_protein|mol2

> <Gold.PLP.Fitness>
47.1702

> <Gold.PLP.PLP>
-41.7067

> <Gold.PLP.part.hbond>
-1.3481

> <Gold.PLP.part.metal>
0.0000

> <Gold.PLP.part.buried>
-5.2194

> <Gold.PLP.part.nonpolar>
-34.7753

> <Gold.PLP.part.repulsive>
0.4271

> <Gold.PLP.ligand.clash>
0.0000

> <Gold.PLP.ligand.torsion>
0.3311

> <Gold.PLP.Chemscore.Hbond>
1.0000

> <Gold.PLP.Chemscore.CHOScore>
1.0000

> <Gold.PLP.Chemscore.Metal>
0.0000

> <Gold.Chemscore.Hbonds>
donor molecule, donor type, donor heavy atom, donor atom, acceptor molecule, acceptor atom, score
      P1  H  7997  8008       L1    11  0.90
      L1  C     7    29       P1  8029  0.30

> <Gold.PLP.Chemscore.Internal.Correction>
0.1258

> <Gold.Rescore>
     Score         DG    S(hbond)    S(metal)    S(lipo)     H(rot)  DE(clash)    DE(int)     intcor
     13.94     -15.12       0.89        0.00      96.86       1.82       0.15       1.03       ----

> <Gold.Chemscore.Fitness>
13.9422

> <Gold.Chemscore.DG>
-15.1222

> <Gold.Chemscore.ZeroCoef>
-5.4800

> <Gold.Chemscore.Hbond>
0.8894

> <Gold.Chemscore.Metal>
0.0000

> <Gold.Chemscore.Lipo>
96.8564

> <Gold.Chemscore.Internal_Hbond>
0.0000

> <Gold.Chemscore.DEClash>
0.1528

> <Gold.Chemscore.DEInternal>
1.0272

> <Gold.Chemscore.Rot>
1.8206

> <Gold.Chemscore.Internal.Correction>
   9.000000E+99

> <Gold.Chemscore.Hbonds>
donor molecule, donor type, donor heavy atom, donor atom, acceptor molecule, acceptor atom, score
      P1  H  7997  8008       L1    11  0.18

> <Gold.Chemscore.Hbond.Weighted>
-2.9707

> <Gold.Chemscore.Metal.Weighted>
-0.0000

> <Gold.Chemscore.Lipo.Weighted>
-11.3322

> <Gold.Chemscore.Internal_Hbond.Weighted>
0.0000

> <Gold.Chemscore.DEClash.Weighted>
0.1528

> <Gold.Chemscore.DEInternal.Weighted>
1.0272

> <Gold.Chemscore.Rot.Weighted>
4.6607

> <Gold.Chemscore.Internal.Correction.Weighted>
   9.000000E+99

> <Gold.Protein.RotatedTorsions>
[ 6907 6896 6895 6894 ] final  -91.55 input  -60.11 | X-H torsion
[ 7974 7965 7964 7962 ] final  128.86 input  175.53 | X-H torsion
[ 8008 7997 7996 7995 ] final -118.47 input   59.86 | X-H torsion
[ 10167 10162 10161 10158 ] final -167.50 input  -65.29 | X-H torsion
[ 10718 10713 10712 10709 ] final -146.25 input   66.30 | X-H torsion
[ 10763 10752 10751 10750 ] final   -3.56 input  -60.55 | X-H torsion
[ 11005 11000 10999 10996 ] final  111.73 input  -57.11 | X-H torsion

> <Gold.Protein.ActiveResidues>
 VAL166  LYS551  ARG553  GLY616  TRP617  ASP618  TYR619  PRO620  LYS621  CYS622 
 ASP623  PHE694  ASN695  SER759  ASP760  ASP761  ALA762  ILE779  LEU786  VAL792 
 PHE793  MET794  SER795  GLU796  ALA797  LYS798  CYS799  TRP800  GLU811  SER814 

> <Gold.Protein.RotatedAtoms>
  150.6894  134.2259  159.4414 H   0  0  0  0  0  0  0  0  0  0  0  0  # atno 6907 bound_to 6896
  152.0213  134.9819  160.0580 H   0  0  0  0  0  0  0  0  0  0  0  0  # atno 6908 bound_to 6896
  152.1395  133.4420  159.4796 H   0  0  0  0  0  0  0  0  0  0  0  0  # atno 6909 bound_to 6896
  145.0350  139.4013  143.5131 H   0  0  0  0  0  0  0  0  0  0  0  0  # atno 7974 bound_to 7965
  155.1002  140.0396  157.2694 H   0  0  0  0  0  0  0  0  0  0  0  0  # atno 8008 bound_to 7997
  154.6764  140.2623  155.6928 H   0  0  0  0  0  0  0  0  0  0  0  0  # atno 8009 bound_to 7997
  156.2678  140.2787  156.1292 H   0  0  0  0  0  0  0  0  0  0  0  0  # atno 8010 bound_to 7997
  139.6045  144.0941  152.1779 H   0  0  0  0  0  0  0  0  0  0  0  0  # atno 10167 bound_to 10162
  156.3925  130.7893  151.2096 H   0  0  0  0  0  0  0  0  0  0  0  0  # atno 10718 bound_to 10713
  153.3730  135.6995  153.6623 H   0  0  0  0  0  0  0  0  0  0  0  0  # atno 10763 bound_to 10752
  153.5265  135.3601  155.2657 H   0  0  0  0  0  0  0  0  0  0  0  0  # atno 10764 bound_to 10752
  154.8683  135.4170  154.3012 H   0  0  0  0  0  0  0  0  0  0  0  0  # atno 10765 bound_to 10752
  139.8910  134.9514  156.6476 H   0  0  0  0  0  0  0  0  0  0  0  0  # atno 11005 bound_to 11000
  146.3503  139.9920  142.8684 LP  0  0  0  0  0  0  0  0  0  0  0  0  # atno 17320 bound_to 7965
  145.1721  140.9726  143.4315 LP  0  0  0  0  0  0  0  0  0  0  0  0  # atno 17321 bound_to 7965
  140.0545  144.5906  150.7310 LP  0  0  0  0  0  0  0  0  0  0  0  0  # atno 17342 bound_to 10162
  140.7275  143.2652  151.4070 LP  0  0  0  0  0  0  0  0  0  0  0  0  # atno 17343 bound_to 10162
  157.7500  131.0311  150.4167 LP  0  0  0  0  0  0  0  0  0  0  0  0  # atno 17370 bound_to 10713
  156.4431  130.3996  149.6684 LP  0  0  0  0  0  0  0  0  0  0  0  0  # atno 17371 bound_to 10713
  140.7545  133.8869  155.8371 LP  0  0  0  0  0  0  0  0  0  0  0  0  # atno 17394 bound_to 11000
  140.9973  134.1198  157.4351 LP  0  0  0  0  0  0  0  0  0  0  0  0  # atno 17395 bound_to 11000

$$$$
