AV-unprocessed.smi:2576|AV-procd|sdf|10118|dock1
  -GOLD-   2272014133D 1   1.00000     0.00000
 Structure written by MMmdl.
 27 28  0  0  0  0  0  0  0  0  1 V2000
  149.6295  142.3522  155.4204 O   0  0  0  0  0  0  0  0  0  0  0  0
  150.0790  141.7236  156.6060 C   0  0  2  0  0  0  0  0  0  0  0  0
  151.3651  140.9305  156.2995 C   0  0  0  0  0  0  0  0  0  0  0  0
  152.1706  140.6894  157.4844 N   0  0  0  0  0  0  0  0  0  0  0  0
  152.9810  139.5944  157.5301 N   0  0  0  0  0  0  0  0  0  0  0  0
  153.6000  139.5820  158.6728 N   0  0  0  0  0  0  0  0  0  0  0  0
  153.1880  140.6896  159.3952 C   0  0  0  0  0  0  0  0  0  0  0  0
  153.5362  141.1585  160.6816 C   0  0  0  0  0  0  0  0  0  0  0  0
  152.9551  142.3400  161.1925 C   0  0  0  0  0  0  0  0  0  0  0  0
  153.4058  142.8815  162.7704 Cl  0  0  0  0  0  0  0  0  0  0  0  0
  152.0173  143.0669  160.4198 C   0  0  0  0  0  0  0  0  0  0  0  0
  151.2951  144.5127  161.0303 Cl  0  0  0  0  0  0  0  0  0  0  0  0
  151.6623  142.6118  159.1344 C   0  0  0  0  0  0  0  0  0  0  0  0
  152.2525  141.4344  158.6447 C   0  0  0  0  0  0  0  0  0  0  0  0
  148.9668  140.8139  157.1659 C   0  0  0  0  0  0  0  0  0  0  0  0
  147.5710  141.4613  157.2168 C   0  0  0  0  0  0  0  0  0  0  0  0
  146.6958  140.5702  157.6808 F   0  0  0  0  0  0  0  0  0  0  0  0
  147.5778  142.5144  158.0337 F   0  0  0  0  0  0  0  0  0  0  0  0
  147.1759  141.8486  156.0042 F   0  0  0  0  0  0  0  0  0  0  0  0
  149.4835  143.2686  155.6014 H   0  0  0  0  0  0  0  0  0  0  0  0
  150.3098  142.5008  157.3353 H   0  0  0  0  0  0  0  0  0  0  0  0
  151.1175  139.9665  155.8526 H   0  0  0  0  0  0  0  0  0  0  0  0
  151.9748  141.4621  155.5677 H   0  0  0  0  0  0  0  0  0  0  0  0
  154.2507  140.6082  161.2760 H   0  0  0  0  0  0  0  0  0  0  0  0
  150.9475  143.1564  158.5352 H   0  0  0  0  0  0  0  0  0  0  0  0
  148.9225  139.8886  156.5898 H   0  0  0  0  0  0  0  0  0  0  0  0
  149.2355  140.5198  158.1814 H   0  0  0  0  0  0  0  0  0  0  0  0
  1  2  1  0  0  0  0
  1 20  1  0  0  0  0
  2  3  1  0  0  0  0
  2 15  1  0  0  0  0
  2 21  1  0  0  0  0
  3  4  1  0  0  0  0
  3 22  1  0  0  0  0
  3 23  1  0  0  0  0
  4 14  1  0  0  0  0
  4  5  1  0  0  0  0
  5  6  2  0  0  0  0
  6  7  1  0  0  0  0
  7 14  2  0  0  0  0
  7  8  1  0  0  0  0
  8  9  2  0  0  0  0
  8 24  1  0  0  0  0
  9 10  1  0  0  0  0
  9 11  1  0  0  0  0
 11 12  1  0  0  0  0
 11 13  2  0  0  0  0
 13 14  1  0  0  0  0
 13 25  1  0  0  0  0
 15 16  1  0  0  0  0
 15 26  1  0  0  0  0
 15 27  1  0  0  0  0
 16 17  1  0  0  0  0
 16 18  1  0  0  0  0
 16 19  1  0  0  0  0
M  END
> <s_m_source_file>
AV-unprocessed.smi

> <i_m_source_file_index>
2576

> <i_lp_mmshare_version>
43012

> <i_f3d_flags>
0

> <s_epik_input>
RkMoRikoRilbQ0gyXVtDQEhdKFtPSF0pW0NIMl1uKG5uMSljKGMxMilbY0hdYyhDbCljKENsKVtjSF0y

> <s_epik_cmdline>
J2VwaWtfcHl0aG9uJywgJy1waCcsICc3LjAnLCAnLXRuJywgJzgnLCAnLW1hJywgJzIwMCcsICctbWV0YWxfYmluZGluZycsICctaW1hZScsICc8aW5maWxlLm1hZT4nLCAnLW9tYWUnLCAnPG91dGZpbGUubWFlPic=

> <r_lp_tautomer_probability>
1

> <r_epik_Ionization_Penalty>
1.57739e-05

> <r_epik_Ionization_Penalty_Charging>
0

> <r_epik_Ionization_Penalty_Neutral>
1.57739e-05

> <r_epik_State_Penalty>
-0

> <r_epik_Charging_Adjusted_Penalty>
0

> <i_epik_Tot_Q>
0

> <i_epik_Tot_abs_Q>
0

> <r_epik_Metal_State_Penalty>
-0

> <b_epik_Metal_Only>
0

> <s_lp_Force_Field>
OPLS_2005

> <r_lp_Energy>
8.87224

> <b_lp_Chiralities_Consistent>
1

> <s_lp_Variant>
AV-unprocessed.smi:2576-1

> <Gold.Version>
5.8.1

> <Gold.Id.Protein>
6NUR|6NUR_protein|mol2

> <Gold.PLP.Fitness>
41.4903

> <Gold.PLP.PLP>
-36.7899

> <Gold.PLP.part.hbond>
-3.0000

> <Gold.PLP.part.metal>
0.0000

> <Gold.PLP.part.buried>
-4.4056

> <Gold.PLP.part.nonpolar>
-29.2860

> <Gold.PLP.part.repulsive>
0.0000

> <Gold.PLP.ligand.clash>
0.0000

> <Gold.PLP.ligand.torsion>
0.6652

> <Gold.PLP.Chemscore.Hbond>
2.0000

> <Gold.PLP.Chemscore.CHOScore>
0.0000

> <Gold.PLP.Chemscore.Metal>
0.0000

> <Gold.Chemscore.Hbonds>
donor molecule, donor type, donor heavy atom, donor atom, acceptor molecule, acceptor atom, score
      L1  H     1    20       P1  8028  1.00
      P1  H  7997  8008       L1     5  0.80

> <Gold.PLP.Chemscore.Internal.Correction>
0.0308

> <Gold.Rescore>
     Score         DG    S(hbond)    S(metal)    S(lipo)     H(rot)  DE(clash)    DE(int)     intcor
     13.02     -15.45       1.24        0.00      97.58       2.18       0.07       2.35       ----

> <Gold.Chemscore.Fitness>
13.0228

> <Gold.Chemscore.DG>
-15.4467

> <Gold.Chemscore.ZeroCoef>
-5.4800

> <Gold.Chemscore.Hbond>
1.2373

> <Gold.Chemscore.Metal>
0.0000

> <Gold.Chemscore.Lipo>
97.5779

> <Gold.Chemscore.Internal_Hbond>
0.0000

> <Gold.Chemscore.DEClash>
0.0735

> <Gold.Chemscore.DEInternal>
2.3504

> <Gold.Chemscore.Rot>
2.1807

> <Gold.Chemscore.Internal.Correction>
   9.000000E+99

> <Gold.Chemscore.Hbonds>
donor molecule, donor type, donor heavy atom, donor atom, acceptor molecule, acceptor atom, score
      L1  H     1    20       P1  8028  0.97
      P1  H  7997  8008       L1     5  0.05

> <Gold.Chemscore.Hbond.Weighted>
-4.1326

> <Gold.Chemscore.Metal.Weighted>
-0.0000

> <Gold.Chemscore.Lipo.Weighted>
-11.4166

> <Gold.Chemscore.Internal_Hbond.Weighted>
0.0000

> <Gold.Chemscore.DEClash.Weighted>
0.0735

> <Gold.Chemscore.DEInternal.Weighted>
2.3504

> <Gold.Chemscore.Rot.Weighted>
5.5826

> <Gold.Chemscore.Internal.Correction.Weighted>
   9.000000E+99

> <Gold.Protein.RotatedTorsions>
[ 6907 6896 6895 6894 ] final  169.68 input  -60.11 | X-H torsion
[ 7974 7965 7964 7962 ] final -174.15 input  175.53 | X-H torsion
[ 8008 7997 7996 7995 ] final  -54.27 input   59.86 | X-H torsion
[ 10167 10162 10161 10158 ] final   66.41 input  -65.29 | X-H torsion
[ 10718 10713 10712 10709 ] final  -46.16 input   66.30 | X-H torsion
[ 10763 10752 10751 10750 ] final   53.16 input  -60.55 | X-H torsion
[ 11005 11000 10999 10996 ] final  108.66 input  -57.11 | X-H torsion

> <Gold.Protein.ActiveResidues>
 VAL166  LYS551  ARG553  GLY616  TRP617  ASP618  TYR619  PRO620  LYS621  CYS622 
 ASP623  PHE694  ASN695  SER759  ASP760  ASP761  ALA762  ILE779  LEU786  VAL792 
 PHE793  MET794  SER795  GLU796  ALA797  LYS798  CYS799  TRP800  GLU811  SER814 

> <Gold.Protein.RotatedAtoms>
  151.8280  133.3404  159.3604 H   0  0  0  0  0  0  0  0  0  0  0  0  # atno 6907 bound_to 6896
  150.7273  134.5510  159.5804 H   0  0  0  0  0  0  0  0  0  0  0  0  # atno 6908 bound_to 6896
  152.2957  134.7671  160.0419 H   0  0  0  0  0  0  0  0  0  0  0  0  # atno 6909 bound_to 6896
  144.7133  140.1514  143.6384 H   0  0  0  0  0  0  0  0  0  0  0  0  # atno 7974 bound_to 7965
  154.4158  140.1180  156.5289 H   0  0  0  0  0  0  0  0  0  0  0  0  # atno 8008 bound_to 7997
  155.6626  140.3496  155.4769 H   0  0  0  0  0  0  0  0  0  0  0  0  # atno 8009 bound_to 7997
  155.9700  140.1139  157.0810 H   0  0  0  0  0  0  0  0  0  0  0  0  # atno 8010 bound_to 7997
  140.1007  144.4906  150.7039 H   0  0  0  0  0  0  0  0  0  0  0  0  # atno 10167 bound_to 10162
  156.2210  130.4166  149.8993 H   0  0  0  0  0  0  0  0  0  0  0  0  # atno 10718 bound_to 10713
  152.9793  135.5788  154.4697 H   0  0  0  0  0  0  0  0  0  0  0  0  # atno 10763 bound_to 10752
  154.4261  135.2772  155.1945 H   0  0  0  0  0  0  0  0  0  0  0  0  # atno 10764 bound_to 10752
  154.3674  135.6175  153.5776 H   0  0  0  0  0  0  0  0  0  0  0  0  # atno 10765 bound_to 10752
  139.8848  134.9437  156.6007 H   0  0  0  0  0  0  0  0  0  0  0  0  # atno 11005 bound_to 11000
  145.9113  139.2488  143.1436 LP  0  0  0  0  0  0  0  0  0  0  0  0  # atno 17320 bound_to 7965
  145.9714  140.8757  143.0161 LP  0  0  0  0  0  0  0  0  0  0  0  0  # atno 17321 bound_to 7965
  140.6979  143.2416  151.4947 LP  0  0  0  0  0  0  0  0  0  0  0  0  # atno 17342 bound_to 10162
  139.5673  144.2012  152.1784 LP  0  0  0  0  0  0  0  0  0  0  0  0  # atno 17343 bound_to 10162
  156.6639  130.8793  151.3551 LP  0  0  0  0  0  0  0  0  0  0  0  0  # atno 17370 bound_to 10713
  157.7087  130.9415  150.1017 LP  0  0  0  0  0  0  0  0  0  0  0  0  # atno 17371 bound_to 10713
  140.7886  133.8601  155.8627 LP  0  0  0  0  0  0  0  0  0  0  0  0  # atno 17394 bound_to 11000
  140.9697  134.1547  157.4586 LP  0  0  0  0  0  0  0  0  0  0  0  0  # atno 17395 bound_to 11000

$$$$
