AV-unprocessed.smi:793|AV-procd|sdf|3755|dock3
  -GOLD-   22720 1183D 1   1.00000     0.00000
 Structure written by MMmdl.
 38 39  0  0  0  0  0  0  0  0  2 V2000
  150.1433  141.4373  155.5964 C   0  0  0  0  0  0  0  0  0  0  0  0
  150.0867  141.8160  157.0818 C   0  0  0  0  0  0  0  0  0  0  0  0
  151.4463  141.6566  157.7883 C   0  0  1  0  0  0  0  0  0  0  0  0
  151.3738  142.3550  159.0305 O   0  0  0  0  0  0  0  0  0  0  0  0
  152.5898  142.9288  159.5055 C   0  0  0  0  0  0  0  0  0  0  0  0
  152.3403  143.6584  160.8298 C   0  0  0  0  0  0  0  0  0  0  0  0
  151.7629  145.0277  160.4479 C   0  0  0  0  0  0  0  0  0  0  0  0
  152.1010  145.2443  158.9651 C   0  0  0  0  0  0  0  0  0  0  0  0
  152.9782  144.0586  158.5524 C   0  0  0  0  0  0  0  0  0  0  0  0
  151.7909  140.1763  158.0260 C   0  0  0  0  0  0  0  0  0  0  0  0
  150.9642  139.3064  157.7506 O   0  0  0  0  0  0  0  0  0  0  0  0
  153.0146  139.9389  158.5324 N   0  0  0  0  0  0  0  0  0  0  0  0
  153.6272  138.6967  158.8589 C   0  0  0  0  0  0  0  0  0  0  0  0
  152.9230  137.4690  158.9410 C   0  0  0  0  0  0  0  0  0  0  0  0
  153.5049  136.2942  159.2656 N   0  0  0  0  0  0  0  0  0  0  0  0
  154.8278  136.2964  159.5317 C   0  0  0  0  0  0  0  0  0  0  0  0
  155.6213  137.4589  159.4984 C   0  0  0  0  0  0  0  0  0  0  0  0
  155.0097  138.6817  159.1610 C   0  0  0  0  0  0  0  0  0  0  0  0
  155.7608  139.8243  159.1293 O   0  5  0  0  0  0  0  0  0  0  0  0
  149.1662  141.5565  155.1278 H   0  0  0  0  0  0  0  0  0  0  0  0
  150.4501  140.3993  155.4669 H   0  0  0  0  0  0  0  0  0  0  0  0
  150.8504  142.0661  155.0548 H   0  0  0  0  0  0  0  0  0  0  0  0
  149.7347  142.8442  157.1770 H   0  0  0  0  0  0  0  0  0  0  0  0
  149.3403  141.1894  157.5724 H   0  0  0  0  0  0  0  0  0  0  0  0
  152.2148  142.1124  157.1603 H   0  0  0  0  0  0  0  0  0  0  0  0
  153.3914  142.1920  159.5822 H   0  0  0  0  0  0  0  0  0  0  0  0
  151.6893  143.1066  161.5079 H   0  0  0  0  0  0  0  0  0  0  0  0
  153.2923  143.8018  161.3424 H   0  0  0  0  0  0  0  0  0  0  0  0
  150.6812  145.0375  160.5876 H   0  0  0  0  0  0  0  0  0  0  0  0
  152.1796  145.8156  161.0762 H   0  0  0  0  0  0  0  0  0  0  0  0
  151.1817  145.2432  158.3782 H   0  0  0  0  0  0  0  0  0  0  0  0
  152.5997  146.1979  158.7892 H   0  0  0  0  0  0  0  0  0  0  0  0
  154.0277  144.3143  158.7042 H   0  0  0  0  0  0  0  0  0  0  0  0
  152.8548  143.7870  157.5034 H   0  0  0  0  0  0  0  0  0  0  0  0
  153.6157  140.7440  158.6345 H   0  0  0  0  0  0  0  0  0  0  0  0
  151.8604  137.4067  158.7669 H   0  0  0  0  0  0  0  0  0  0  0  0
  155.2666  135.3430  159.7859 H   0  0  0  0  0  0  0  0  0  0  0  0
  156.6757  137.4105  159.7277 H   0  0  0  0  0  0  0  0  0  0  0  0
  1  2  1  0  0  0  0
  1 20  1  0  0  0  0
  1 21  1  0  0  0  0
  1 22  1  0  0  0  0
  2  3  1  0  0  0  0
  2 23  1  0  0  0  0
  2 24  1  0  0  0  0
  3  4  1  0  0  0  0
  3 10  1  0  0  0  0
  3 25  1  0  0  0  0
  4  5  1  0  0  0  0
  5  9  1  0  0  0  0
  5  6  1  0  0  0  0
  5 26  1  0  0  0  0
  6  7  1  0  0  0  0
  6 27  1  0  0  0  0
  6 28  1  0  0  0  0
  7  8  1  0  0  0  0
  7 29  1  0  0  0  0
  7 30  1  0  0  0  0
  8  9  1  0  0  0  0
  8 31  1  0  0  0  0
  8 32  1  0  0  0  0
  9 33  1  0  0  0  0
  9 34  1  0  0  0  0
 10 11  2  0  0  0  0
 10 12  1  0  0  0  0
 12 35  1  0  0  0  0
 12 13  1  0  0  0  0
 13 18  1  0  0  0  0
 13 14  2  0  0  0  0
 14 36  1  0  0  0  0
 14 15  1  0  0  0  0
 15 16  2  0  0  0  0
 16 37  1  0  0  0  0
 16 17  1  0  0  0  0
 17 18  2  0  0  0  0
 17 38  1  0  0  0  0
 18 19  1  0  0  0  0
M  CHG  1  19  -1
M  END
> <s_m_source_file>
AV-unprocessed.smi

> <i_m_source_file_index>
793

> <i_lp_mmshare_version>
43012

> <i_f3d_flags>
0

> <s_epik_input>
W0NIMl0xW0NIMl1bQ0gyXVtDSDJdW0NIXTFPW0NAQEhdKFtDSDJdW0NIM10pQyg9TylbTkhdYzJbY0hdbltjSF1bY0hdYzJbT0hd

> <s_epik_cmdline>
J2VwaWtfcHl0aG9uJywgJy1waCcsICc3LjAnLCAnLXRuJywgJzgnLCAnLW1hJywgJzIwMCcsICctbWV0YWxfYmluZGluZycsICctaW1hZScsICc8aW5maWxlLm1hZT4nLCAnLW9tYWUnLCAnPG91dGZpbGUubWFlPic=

> <r_lp_tautomer_probability>
1

> <r_epik_Ionization_Penalty>
5.91611

> <r_epik_Ionization_Penalty_Charging>
1.01889

> <r_epik_Ionization_Penalty_Neutral>
4.89722

> <r_epik_State_Penalty>
4.89706

> <r_epik_Charging_Adjusted_Penalty>
5.91595

> <i_epik_Tot_Q>
-1

> <i_epik_Tot_abs_Q>
1

> <r_epik_Metal_State_Penalty>
1.05012

> <b_epik_Metal_Only>
1

> <s_lp_Force_Field>
OPLS_2005

> <r_lp_Energy>
29.623

> <b_lp_Chiralities_Consistent>
1

> <s_lp_Variant>
AV-unprocessed.smi:793-4

> <Gold.Version>
5.8.1

> <Gold.Id.Protein>
6NUR|6NUR_protein|mol2

> <Gold.PLP.Fitness>
44.5168

> <Gold.PLP.PLP>
-36.6205

> <Gold.PLP.part.hbond>
-2.0000

> <Gold.PLP.part.metal>
0.0000

> <Gold.PLP.part.buried>
-5.4503

> <Gold.PLP.part.nonpolar>
-29.1725

> <Gold.PLP.part.repulsive>
0.1099

> <Gold.PLP.ligand.clash>
0.0000

> <Gold.PLP.ligand.torsion>
0.5938

> <Gold.PLP.Chemscore.Hbond>
3.0000

> <Gold.PLP.Chemscore.CHOScore>
0.0000

> <Gold.PLP.Chemscore.Metal>
0.0000

> <Gold.Chemscore.Hbonds>
donor molecule, donor type, donor heavy atom, donor atom, acceptor molecule, acceptor atom, score
      P1  H  6896  6909       L1    15  0.99
      P1  H  7997  8010       L1    19  1.69

> <Gold.PLP.Chemscore.Internal.Correction>
0.0839

> <Gold.Rescore>
     Score         DG    S(hbond)    S(metal)    S(lipo)     H(rot)  DE(clash)    DE(int)     intcor
     18.24     -20.20       1.91        0.00     103.92       1.49       0.06       1.90       ----

> <Gold.Chemscore.Fitness>
18.2382

> <Gold.Chemscore.DG>
-20.2038

> <Gold.Chemscore.ZeroCoef>
-5.4800

> <Gold.Chemscore.Hbond>
1.9127

> <Gold.Chemscore.Metal>
0.0000

> <Gold.Chemscore.Lipo>
103.9152

> <Gold.Chemscore.Internal_Hbond>
0.0000

> <Gold.Chemscore.DEClash>
0.0647

> <Gold.Chemscore.DEInternal>
1.9009

> <Gold.Chemscore.Rot>
1.4932

> <Gold.Chemscore.Internal.Correction>
   9.000000E+99

> <Gold.Chemscore.Hbonds>
donor molecule, donor type, donor heavy atom, donor atom, acceptor molecule, acceptor atom, score
      P1  H  6896  6909       L1    15  0.72
      P1  H  7997  8010       L1    19  0.14

> <Gold.Chemscore.Hbond.Weighted>
-6.3883

> <Gold.Chemscore.Metal.Weighted>
-0.0000

> <Gold.Chemscore.Lipo.Weighted>
-12.1581

> <Gold.Chemscore.Internal_Hbond.Weighted>
0.0000

> <Gold.Chemscore.DEClash.Weighted>
0.0647

> <Gold.Chemscore.DEInternal.Weighted>
1.9009

> <Gold.Chemscore.Rot.Weighted>
3.8226

> <Gold.Chemscore.Internal.Correction.Weighted>
   9.000000E+99

> <Gold.Protein.RotatedTorsions>
[ 6907 6896 6895 6894 ] final  156.67 input  -60.11 | X-H torsion
[ 7974 7965 7964 7962 ] final  113.22 input  175.53 | X-H torsion
[ 8008 7997 7996 7995 ] final  -36.80 input   59.86 | X-H torsion
[ 10167 10162 10161 10158 ] final    2.11 input  -65.29 | X-H torsion
[ 10718 10713 10712 10709 ] final   88.53 input   66.30 | X-H torsion
[ 10763 10752 10751 10750 ] final -135.20 input  -60.55 | X-H torsion
[ 11005 11000 10999 10996 ] final  -20.63 input  -57.11 | X-H torsion

> <Gold.Protein.ActiveResidues>
 VAL166  LYS551  ARG553  GLY616  TRP617  ASP618  TYR619  PRO620  LYS621  CYS622 
 ASP623  PHE694  ASN695  SER759  ASP760  ASP761  ALA762  ILE779  LEU786  VAL792 
 PHE793  MET794  SER795  GLU796  ALA797  LYS798  CYS799  TRP800  GLU811  SER814 

> <Gold.Protein.RotatedAtoms>
  152.0262  133.3919  159.4278 H   0  0  0  0  0  0  0  0  0  0  0  0  # atno 6907 bound_to 6896
  150.6886  134.3571  159.4943 H   0  0  0  0  0  0  0  0  0  0  0  0  # atno 6908 bound_to 6896
  152.1351  134.9105  160.0607 H   0  0  0  0  0  0  0  0  0  0  0  0  # atno 6909 bound_to 6896
  145.2196  139.2868  143.4225 H   0  0  0  0  0  0  0  0  0  0  0  0  # atno 7974 bound_to 7965
  154.4066  140.1621  156.2433 H   0  0  0  0  0  0  0  0  0  0  0  0  # atno 8008 bound_to 7997
  155.9182  140.3423  155.6129 H   0  0  0  0  0  0  0  0  0  0  0  0  # atno 8009 bound_to 7997
  155.7254  140.0773  157.2303 H   0  0  0  0  0  0  0  0  0  0  0  0  # atno 8010 bound_to 7997
  140.6651  143.7201  150.7811 H   0  0  0  0  0  0  0  0  0  0  0  0  # atno 10167 bound_to 10162
  157.6949  131.0298  150.3288 H   0  0  0  0  0  0  0  0  0  0  0  0  # atno 10718 bound_to 10713
  154.8707  135.3711  154.4860 H   0  0  0  0  0  0  0  0  0  0  0  0  # atno 10763 bound_to 10752
  153.5510  135.7025  153.5596 H   0  0  0  0  0  0  0  0  0  0  0  0  # atno 10764 bound_to 10752
  153.3715  135.4020  155.1756 H   0  0  0  0  0  0  0  0  0  0  0  0  # atno 10765 bound_to 10752
  140.8483  133.7875  155.9937 H   0  0  0  0  0  0  0  0  0  0  0  0  # atno 11005 bound_to 11000
  146.3379  140.2498  142.8598 LP  0  0  0  0  0  0  0  0  0  0  0  0  # atno 17320 bound_to 7965
  144.9778  140.8430  143.5416 LP  0  0  0  0  0  0  0  0  0  0  0  0  # atno 17321 bound_to 7965
  140.0877  143.4907  152.2496 LP  0  0  0  0  0  0  0  0  0  0  0  0  # atno 17342 bound_to 10162
  139.5897  144.7545  151.3432 LP  0  0  0  0  0  0  0  0  0  0  0  0  # atno 17343 bound_to 10162
  156.3765  130.3873  149.7135 LP  0  0  0  0  0  0  0  0  0  0  0  0  # atno 17370 bound_to 10713
  156.4532  130.7916  151.2937 LP  0  0  0  0  0  0  0  0  0  0  0  0  # atno 17371 bound_to 10713
  140.8819  134.2601  157.5140 LP  0  0  0  0  0  0  0  0  0  0  0  0  # atno 17394 bound_to 11000
  139.8704  134.9619  156.4411 LP  0  0  0  0  0  0  0  0  0  0  0  0  # atno 17395 bound_to 11000

$$$$
