AV-unprocessed.smi:2005|AV-procd|sdf|8126|dock1
  -GOLD-   2272010363D 1   1.00000     0.00000
 Structure written by MMmdl.
 39 40  0  0  0  0  0  0  0  0  1 V2000
  152.0057  140.6988  158.3431 C   0  0  0  0  0  0  0  0  0  0  0  0
  151.2117  141.1857  157.1221 C   0  0  0  0  0  0  0  0  0  0  0  0
  149.9070  141.9033  157.4981 C   0  0  0  0  0  0  0  0  0  0  0  0
  150.9868  140.0942  156.1226 C   0  0  0  0  0  0  0  0  0  0  0  0
  151.5324  140.1006  154.8988 N   0  0  0  0  0  0  0  0  0  0  0  0
  151.1824  138.9807  154.1580 N   0  0  0  0  0  0  0  0  0  0  0  0
  150.3787  138.1585  154.8457 C   0  0  0  0  0  0  0  0  0  0  0  0
  149.8706  136.9370  154.3306 N   0  0  0  0  0  0  0  0  0  0  0  0
  149.6739  135.7753  154.9785 C   0  0  0  0  0  0  0  0  0  0  0  0
  149.9198  135.5718  156.1679 O   0  0  0  0  0  0  0  0  0  0  0  0
  149.1611  134.8462  154.1587 N   0  0  0  0  0  0  0  0  0  0  0  0
  148.8062  133.4829  154.5415 C   0  0  2  0  0  0  0  0  0  0  0  0
  149.6268  132.4845  153.7045 C   0  0  0  0  0  0  0  0  0  0  0  0
  149.2452  131.0281  154.0222 C   0  0  0  0  0  0  0  0  0  0  0  0
  147.7345  130.7729  153.8656 C   0  0  2  0  0  0  0  0  0  0  0  0
  147.3745  130.8205  152.4988 O   0  0  0  0  0  0  0  0  0  0  0  0
  146.9035  131.7916  154.6679 C   0  0  0  0  0  0  0  0  0  0  0  0
  147.2946  133.2454  154.3491 C   0  0  0  0  0  0  0  0  0  0  0  0
  149.9772  138.6939  156.4680 S   0  0  0  0  0  0  0  0  0  0  0  0
  152.9645  140.2746  158.0434 H   0  0  0  0  0  0  0  0  0  0  0  0
  151.4584  139.9316  158.8918 H   0  0  0  0  0  0  0  0  0  0  0  0
  152.2087  141.5188  159.0325 H   0  0  0  0  0  0  0  0  0  0  0  0
  151.8374  141.9299  156.6278 H   0  0  0  0  0  0  0  0  0  0  0  0
  149.4116  142.3055  156.6137 H   0  0  0  0  0  0  0  0  0  0  0  0
  150.0982  142.7352  158.1765 H   0  0  0  0  0  0  0  0  0  0  0  0
  149.2092  141.2262  157.9920 H   0  0  0  0  0  0  0  0  0  0  0  0
  149.6144  136.9533  153.3546 H   0  0  0  0  0  0  0  0  0  0  0  0
  148.9912  135.1035  153.1974 H   0  0  0  0  0  0  0  0  0  0  0  0
  149.0571  133.3296  155.5931 H   0  0  0  0  0  0  0  0  0  0  0  0
  149.4707  132.6764  152.6418 H   0  0  0  0  0  0  0  0  0  0  0  0
  150.6917  132.6303  153.8891 H   0  0  0  0  0  0  0  0  0  0  0  0
  149.8119  130.3452  153.3881 H   0  0  0  0  0  0  0  0  0  0  0  0
  149.5386  130.8025  155.0482 H   0  0  0  0  0  0  0  0  0  0  0  0
  147.5046  129.7674  154.2193 H   0  0  0  0  0  0  0  0  0  0  0  0
  148.1444  130.6465  151.9790 H   0  0  0  0  0  0  0  0  0  0  0  0
  145.8390  131.6412  154.4845 H   0  0  0  0  0  0  0  0  0  0  0  0
  147.0552  131.6126  155.7330 H   0  0  0  0  0  0  0  0  0  0  0  0
  146.7238  133.9214  154.9865 H   0  0  0  0  0  0  0  0  0  0  0  0
  147.0114  133.4810  153.3223 H   0  0  0  0  0  0  0  0  0  0  0  0
  1  2  1  0  0  0  0
  1 20  1  0  0  0  0
  1 21  1  0  0  0  0
  1 22  1  0  0  0  0
  2  3  1  0  0  0  0
  2  4  1  0  0  0  0
  2 23  1  0  0  0  0
  3 24  1  0  0  0  0
  3 25  1  0  0  0  0
  3 26  1  0  0  0  0
  4 19  1  0  0  0  0
  4  5  2  0  0  0  0
  5  6  1  0  0  0  0
  6  7  2  0  0  0  0
  7  8  1  0  0  0  0
  7 19  1  0  0  0  0
  8  9  1  0  0  0  0
  8 27  1  0  0  0  0
  9 10  2  0  0  0  0
  9 11  1  0  0  0  0
 11 12  1  0  0  0  0
 11 28  1  0  0  0  0
 12 18  1  0  0  0  0
 12 13  1  0  0  0  0
 12 29  1  0  0  0  0
 13 14  1  0  0  0  0
 13 30  1  0  0  0  0
 13 31  1  0  0  0  0
 14 15  1  0  0  0  0
 14 32  1  0  0  0  0
 14 33  1  0  0  0  0
 15 16  1  0  0  0  0
 15 17  1  0  0  0  0
 15 34  1  0  0  0  0
 16 35  1  0  0  0  0
 17 18  1  0  0  0  0
 17 36  1  0  0  0  0
 17 37  1  0  0  0  0
 18 38  1  0  0  0  0
 18 39  1  0  0  0  0
M  END
> <s_m_source_file>
AV-unprocessed.smi

> <i_m_source_file_index>
2005

> <i_lp_mmshare_version>
43012

> <i_f3d_flags>
0

> <s_epik_input>
W0NIM11bQ0hdKFtDSDNdKWMxbm5jKHMxKVtOSF1DKD1PKVtOSF1bQ0BASF0yW0NIMl1bQ0gyXVtDQEBIXShbT0hdKVtDSDJdW0NIMl0y

> <s_epik_cmdline>
J2VwaWtfcHl0aG9uJywgJy1waCcsICc3LjAnLCAnLXRuJywgJzgnLCAnLW1hJywgJzIwMCcsICctbWV0YWxfYmluZGluZycsICctaW1hZScsICc8aW5maWxlLm1hZT4nLCAnLW9tYWUnLCAnPG91dGZpbGUubWFlPic=

> <r_lp_tautomer_probability>
1

> <r_epik_Ionization_Penalty>
0.000372581

> <r_epik_Ionization_Penalty_Charging>
0

> <r_epik_Ionization_Penalty_Neutral>
0.000372581

> <r_epik_State_Penalty>
-0

> <r_epik_Charging_Adjusted_Penalty>
0

> <i_epik_Tot_Q>
0

> <i_epik_Tot_abs_Q>
0

> <r_epik_Metal_State_Penalty>
0.186152

> <b_epik_Metal_Only>
0

> <s_lp_Force_Field>
OPLS_2005

> <r_lp_Energy>
3.3573

> <b_lp_Chiralities_Consistent>
1

> <s_lp_Variant>
AV-unprocessed.smi:2005-2

> <Gold.Version>
5.8.1

> <Gold.Id.Protein>
6NUR|6NUR_protein|mol2

> <Gold.PLP.Fitness>
34.9791

> <Gold.PLP.PLP>
-25.4587

> <Gold.PLP.part.hbond>
-5.1411

> <Gold.PLP.part.metal>
0.0000

> <Gold.PLP.part.buried>
-2.5054

> <Gold.PLP.part.nonpolar>
-17.2384

> <Gold.PLP.part.repulsive>
0.3114

> <Gold.PLP.ligand.clash>
0.0000

> <Gold.PLP.ligand.torsion>
0.3194

> <Gold.PLP.Chemscore.Hbond>
3.3600

> <Gold.PLP.Chemscore.CHOScore>
0.0000

> <Gold.PLP.Chemscore.Metal>
0.0000

> <Gold.Chemscore.Hbonds>
donor molecule, donor type, donor heavy atom, donor atom, acceptor molecule, acceptor atom, score
      L1  H     8    27       P1  7948  1.00
      L1  H    11    28       P1  7948  1.00
      L1  H    16    35       P1 10747  0.94
      P1  H  7989  7998       L1     5  0.35

> <Gold.PLP.Chemscore.Internal.Correction>
0.0792

> <Gold.Rescore>
     Score         DG    S(hbond)    S(metal)    S(lipo)     H(rot)  DE(clash)    DE(int)     intcor
     15.61     -15.95       2.68        0.00      50.50       1.72       0.02       0.31       ----

> <Gold.Chemscore.Fitness>
15.6143

> <Gold.Chemscore.DG>
-15.9474

> <Gold.Chemscore.ZeroCoef>
-5.4800

> <Gold.Chemscore.Hbond>
2.6838

> <Gold.Chemscore.Metal>
0.0000

> <Gold.Chemscore.Lipo>
50.5026

> <Gold.Chemscore.Internal_Hbond>
0.0000

> <Gold.Chemscore.DEClash>
0.0203

> <Gold.Chemscore.DEInternal>
0.3128

> <Gold.Chemscore.Rot>
1.7207

> <Gold.Chemscore.Internal.Correction>
   9.000000E+99

> <Gold.Chemscore.Hbonds>
donor molecule, donor type, donor heavy atom, donor atom, acceptor molecule, acceptor atom, score
      L1  H     8    27       P1  7948  0.68
      L1  H    11    28       P1  7948  0.25
      L1  H    16    35       P1 10747  0.90
      P1  H  7989  7998       L1     5  0.01

> <Gold.Chemscore.Hbond.Weighted>
-8.9637

> <Gold.Chemscore.Metal.Weighted>
-0.0000

> <Gold.Chemscore.Lipo.Weighted>
-5.9088

> <Gold.Chemscore.Internal_Hbond.Weighted>
0.0000

> <Gold.Chemscore.DEClash.Weighted>
0.0203

> <Gold.Chemscore.DEInternal.Weighted>
0.3128

> <Gold.Chemscore.Rot.Weighted>
4.4051

> <Gold.Chemscore.Internal.Correction.Weighted>
   9.000000E+99

> <Gold.Protein.RotatedTorsions>
[ 6907 6896 6895 6894 ] final  131.26 input  -60.11 | X-H torsion
[ 7974 7965 7964 7962 ] final   68.62 input  175.53 | X-H torsion
[ 8008 7997 7996 7995 ] final  144.64 input   59.86 | X-H torsion
[ 10167 10162 10161 10158 ] final -127.00 input  -65.29 | X-H torsion
[ 10718 10713 10712 10709 ] final -109.18 input   66.30 | X-H torsion
[ 10763 10752 10751 10750 ] final  167.43 input  -60.55 | X-H torsion
[ 11005 11000 10999 10996 ] final   50.76 input  -57.11 | X-H torsion

> <Gold.Protein.ActiveResidues>
 VAL166  LYS551  ARG553  GLY616  TRP617  ASP618  TYR619  PRO620  LYS621  CYS622 
 ASP623  PHE694  ASN695  SER759  ASP760  ASP761  ALA762  ILE779  LEU786  VAL792 
 PHE793  MET794  SER795  GLU796  ALA797  LYS798  CYS799  TRP800  GLU811  SER814 

> <Gold.Protein.RotatedAtoms>
  152.3444  133.6105  159.5899 H   0  0  0  0  0  0  0  0  0  0  0  0  # atno 6907 bound_to 6896
  150.7498  133.9672  159.3543 H   0  0  0  0  0  0  0  0  0  0  0  0  # atno 6908 bound_to 6896
  151.7532  135.0828  160.0385 H   0  0  0  0  0  0  0  0  0  0  0  0  # atno 6909 bound_to 6896
  145.8004  139.2979  143.1158 H   0  0  0  0  0  0  0  0  0  0  0  0  # atno 7974 bound_to 7965
  156.2903  140.2230  156.5085 H   0  0  0  0  0  0  0  0  0  0  0  0  # atno 8008 bound_to 7997
  154.7629  140.0472  157.1010 H   0  0  0  0  0  0  0  0  0  0  0  0  # atno 8009 bound_to 7997
  154.9969  140.3097  155.4886 H   0  0  0  0  0  0  0  0  0  0  0  0  # atno 8010 bound_to 7997
  139.9655  143.5903  152.2431 H   0  0  0  0  0  0  0  0  0  0  0  0  # atno 10167 bound_to 10162
  156.0524  130.5751  150.8064 H   0  0  0  0  0  0  0  0  0  0  0  0  # atno 10718 bound_to 10713
  154.3537  135.2753  155.2358 H   0  0  0  0  0  0  0  0  0  0  0  0  # atno 10763 bound_to 10752
  154.4576  135.5915  153.6237 H   0  0  0  0  0  0  0  0  0  0  0  0  # atno 10764 bound_to 10752
  152.9848  135.6057  154.3750 H   0  0  0  0  0  0  0  0  0  0  0  0  # atno 10765 bound_to 10752
  140.0989  134.5107  155.8780 H   0  0  0  0  0  0  0  0  0  0  0  0  # atno 11005 bound_to 11000
  145.9884  140.8624  143.0079 LP  0  0  0  0  0  0  0  0  0  0  0  0  # atno 17320 bound_to 7965
  144.6769  140.2180  143.7369 LP  0  0  0  0  0  0  0  0  0  0  0  0  # atno 17321 bound_to 7965
  139.6521  144.7661  151.2127 LP  0  0  0  0  0  0  0  0  0  0  0  0  # atno 17342 bound_to 10162
  140.7539  143.6144  150.8574 LP  0  0  0  0  0  0  0  0  0  0  0  0  # atno 17343 bound_to 10162
  157.5462  131.0942  150.9759 LP  0  0  0  0  0  0  0  0  0  0  0  0  # atno 17370 bound_to 10713
  157.0030  130.5607  149.5313 LP  0  0  0  0  0  0  0  0  0  0  0  0  # atno 17371 bound_to 10713
  141.2100  133.6690  156.6479 LP  0  0  0  0  0  0  0  0  0  0  0  0  # atno 17394 bound_to 11000
  140.3247  134.7979  157.4280 LP  0  0  0  0  0  0  0  0  0  0  0  0  # atno 17395 bound_to 11000

$$$$
