AV-unprocessed.smi:637|AV-procd|sdf|3142|dock6
  -GOLD-   22720 0 73D 1   1.00000     0.00000
 Structure written by MMmdl.
 38 40  0  0  0  0  0  0  0  0  1 V2000
  143.4044  145.2606  155.2151 C   0  0  0  0  0  0  0  0  0  0  0  0
  144.4750  144.3984  154.6376 C   0  0  0  0  0  0  0  0  0  0  0  0
  144.9820  144.4310  153.3612 C   0  0  0  0  0  0  0  0  0  0  0  0
  146.0080  143.4662  153.1338 C   0  0  0  0  0  0  0  0  0  0  0  0
  146.2579  142.7114  154.2552 C   0  0  0  0  0  0  0  0  0  0  0  0
  147.2794  141.6772  154.2596 C   0  0  0  0  0  0  0  0  0  0  0  0
  147.0876  140.4163  153.5640 C   0  0  0  0  0  0  0  0  0  0  0  0
  148.0489  139.4705  153.6368 C   0  0  0  0  0  0  0  0  0  0  0  0
  149.2785  139.6784  154.3990 C   0  0  0  0  0  0  0  0  0  0  0  0
  150.1558  138.8230  154.5127 O   0  0  0  0  0  0  0  0  0  0  0  0
  149.3578  140.9066  154.9882 N   0  0  0  0  0  0  0  0  0  0  0  0
  150.4985  141.2663  155.8417 C   0  0  0  0  0  0  0  0  0  0  0  0
  150.0711  142.0621  157.0975 C   0  0  1  0  0  0  0  0  0  0  0  0
  149.2036  141.2541  157.8665 O   0  0  0  0  0  0  0  0  0  0  0  0
  151.2597  142.5643  157.9077 C   0  0  0  0  0  0  0  0  0  0  0  0
  151.5399  143.9465  157.9870 C   0  0  0  0  0  0  0  0  0  0  0  0
  152.6082  144.4102  158.7788 C   0  0  0  0  0  0  0  0  0  0  0  0
  153.4025  143.4948  159.4955 C   0  0  0  0  0  0  0  0  0  0  0  0
  153.1292  142.1157  159.4190 C   0  0  0  0  0  0  0  0  0  0  0  0
  153.8896  141.2356  160.1121 F   0  0  0  0  0  0  0  0  0  0  0  0
  152.0617  141.6515  158.6265 C   0  0  0  0  0  0  0  0  0  0  0  0
  148.3809  141.8837  154.9069 N   0  0  0  0  0  0  0  0  0  0  0  0
  145.2528  143.1677  155.6031 S   0  0  0  0  0  0  0  0  0  0  0  0
  143.0927  146.0287  154.5070 H   0  0  0  0  0  0  0  0  0  0  0  0
  143.7552  145.7593  156.1188 H   0  0  0  0  0  0  0  0  0  0  0  0
  142.5283  144.6664  155.4753 H   0  0  0  0  0  0  0  0  0  0  0  0
  144.6560  145.1114  152.5884 H   0  0  0  0  0  0  0  0  0  0  0  0
  146.5038  143.3795  152.1774 H   0  0  0  0  0  0  0  0  0  0  0  0
  146.1875  140.2352  152.9960 H   0  0  0  0  0  0  0  0  0  0  0  0
  147.9060  138.5327  153.1204 H   0  0  0  0  0  0  0  0  0  0  0  0
  151.0518  140.3715  156.1329 H   0  0  0  0  0  0  0  0  0  0  0  0
  151.2051  141.8610  155.2590 H   0  0  0  0  0  0  0  0  0  0  0  0
  149.4858  142.9260  156.7800 H   0  0  0  0  0  0  0  0  0  0  0  0
  149.4060  140.3478  157.6910 H   0  0  0  0  0  0  0  0  0  0  0  0
  150.9263  144.6563  157.4515 H   0  0  0  0  0  0  0  0  0  0  0  0
  152.8148  145.4683  158.8404 H   0  0  0  0  0  0  0  0  0  0  0  0
  154.2196  143.8509  160.1053 H   0  0  0  0  0  0  0  0  0  0  0  0
  151.8508  140.5928  158.5852 H   0  0  0  0  0  0  0  0  0  0  0  0
  1  2  1  0  0  0  0
  1 24  1  0  0  0  0
  1 25  1  0  0  0  0
  1 26  1  0  0  0  0
  2 23  1  0  0  0  0
  2  3  2  0  0  0  0
  3  4  1  0  0  0  0
  3 27  1  0  0  0  0
  4  5  2  0  0  0  0
  4 28  1  0  0  0  0
  5  6  1  0  0  0  0
  5 23  1  0  0  0  0
  6 22  2  0  0  0  0
  6  7  1  0  0  0  0
  7  8  2  0  0  0  0
  7 29  1  0  0  0  0
  8  9  1  0  0  0  0
  8 30  1  0  0  0  0
  9 10  2  0  0  0  0
  9 11  1  0  0  0  0
 11 12  1  0  0  0  0
 11 22  1  0  0  0  0
 12 13  1  0  0  0  0
 12 31  1  0  0  0  0
 12 32  1  0  0  0  0
 13 14  1  0  0  0  0
 13 15  1  0  0  0  0
 13 33  1  0  0  0  0
 14 34  1  0  0  0  0
 15 21  1  0  0  0  0
 15 16  2  0  0  0  0
 16 17  1  0  0  0  0
 16 35  1  0  0  0  0
 17 18  2  0  0  0  0
 17 36  1  0  0  0  0
 18 19  1  0  0  0  0
 18 37  1  0  0  0  0
 19 20  1  0  0  0  0
 19 21  2  0  0  0  0
 21 38  1  0  0  0  0
M  END
> <s_m_source_file>
AV-unprocessed.smi

> <i_m_source_file_index>
637

> <i_lp_mmshare_version>
43012

> <i_f3d_flags>
0

> <s_epik_input>
W0NIM11jMVtjSF1bY0hdYyhzMSktYzJbY0hdW2NIXWMoPU8pbihuMilbQ0gyXVtDQEhdKFtPSF0pYzNbY0hdW2NIXVtjSF1jKEYpW2NIXTM=

> <s_epik_cmdline>
J2VwaWtfcHl0aG9uJywgJy1waCcsICc3LjAnLCAnLXRuJywgJzgnLCAnLW1hJywgJzIwMCcsICctbWV0YWxfYmluZGluZycsICctaW1hZScsICc8aW5maWxlLm1hZT4nLCAnLW9tYWUnLCAnPG91dGZpbGUubWFlPic=

> <r_lp_tautomer_probability>
1

> <r_epik_Ionization_Penalty>
2.26963e-07

> <r_epik_Ionization_Penalty_Charging>
5.89185e-08

> <r_epik_Ionization_Penalty_Neutral>
1.68044e-07

> <r_epik_State_Penalty>
-0

> <r_epik_Charging_Adjusted_Penalty>
5.89185e-08

> <i_epik_Tot_Q>
0

> <i_epik_Tot_abs_Q>
0

> <r_epik_Metal_State_Penalty>
-0

> <b_epik_Metal_Only>
0

> <s_lp_Force_Field>
OPLS_2005

> <r_lp_Energy>
25.403

> <b_lp_Chiralities_Consistent>
1

> <s_lp_Variant>
AV-unprocessed.smi:637-2

> <Gold.Version>
5.8.1

> <Gold.Id.Protein>
6NUR|6NUR_protein|mol2

> <Gold.PLP.Fitness>
48.3459

> <Gold.PLP.PLP>
-51.8814

> <Gold.PLP.part.hbond>
0.0000

> <Gold.PLP.part.metal>
0.0000

> <Gold.PLP.part.buried>
-5.3328

> <Gold.PLP.part.nonpolar>
-47.8549

> <Gold.PLP.part.repulsive>
1.3579

> <Gold.PLP.ligand.clash>
0.0000

> <Gold.PLP.ligand.torsion>
1.7866

> <Gold.PLP.Chemscore.Hbond>
0.0000

> <Gold.PLP.Chemscore.CHOScore>
0.0000

> <Gold.PLP.Chemscore.Metal>
0.0000

> <Gold.PLP.Chemscore.Internal.Correction>
0.0378

> <Gold.Rescore>
     Score         DG    S(hbond)    S(metal)    S(lipo)     H(rot)  DE(clash)    DE(int)     intcor
     14.48     -16.73       0.00        0.00     136.03       1.82       0.65       1.60       ----

> <Gold.Chemscore.Fitness>
14.4794

> <Gold.Chemscore.DG>
-16.7304

> <Gold.Chemscore.ZeroCoef>
-5.4800

> <Gold.Chemscore.Hbond>
0.0000

> <Gold.Chemscore.Metal>
0.0000

> <Gold.Chemscore.Lipo>
136.0281

> <Gold.Chemscore.Internal_Hbond>
0.0000

> <Gold.Chemscore.DEClash>
0.6506

> <Gold.Chemscore.DEInternal>
1.6004

> <Gold.Chemscore.Rot>
1.8222

> <Gold.Chemscore.Internal.Correction>
   9.000000E+99

> <Gold.Chemscore.Hbond.Weighted>
-0.0000

> <Gold.Chemscore.Metal.Weighted>
-0.0000

> <Gold.Chemscore.Lipo.Weighted>
-15.9153

> <Gold.Chemscore.Internal_Hbond.Weighted>
0.0000

> <Gold.Chemscore.DEClash.Weighted>
0.6506

> <Gold.Chemscore.DEInternal.Weighted>
1.6004

> <Gold.Chemscore.Rot.Weighted>
4.6649

> <Gold.Chemscore.Internal.Correction.Weighted>
   9.000000E+99

> <Gold.Protein.RotatedTorsions>
[ 6907 6896 6895 6894 ] final  133.44 input  -60.11 | X-H torsion
[ 7974 7965 7964 7962 ] final  -64.04 input  175.53 | X-H torsion
[ 8008 7997 7996 7995 ] final  -86.72 input   59.86 | X-H torsion
[ 10167 10162 10161 10158 ] final   91.74 input  -65.29 | X-H torsion
[ 10718 10713 10712 10709 ] final -131.17 input   66.30 | X-H torsion
[ 10763 10752 10751 10750 ] final   31.71 input  -60.55 | X-H torsion
[ 11005 11000 10999 10996 ] final -161.85 input  -57.11 | X-H torsion

> <Gold.Protein.ActiveResidues>
 VAL166  LYS551  ARG553  GLY616  TRP617  ASP618  TYR619  PRO620  LYS621  CYS622 
 ASP623  PHE694  ASN695  SER759  ASP760  ASP761  ALA762  ILE779  LEU786  VAL792 
 PHE793  MET794  SER795  GLU796  ALA797  LYS798  CYS799  TRP800  GLU811  SER814 

> <Gold.Protein.RotatedAtoms>
  152.3219  133.5863  159.5749 H   0  0  0  0  0  0  0  0  0  0  0  0  # atno 6907 bound_to 6896
  150.7376  133.9999  159.3643 H   0  0  0  0  0  0  0  0  0  0  0  0  # atno 6908 bound_to 6896
  151.7882  135.0743  160.0434 H   0  0  0  0  0  0  0  0  0  0  0  0  # atno 6909 bound_to 6896
  145.7716  140.8809  143.0377 H   0  0  0  0  0  0  0  0  0  0  0  0  # atno 7974 bound_to 7965
  154.6551  140.0575  157.0000 H   0  0  0  0  0  0  0  0  0  0  0  0  # atno 8008 bound_to 7997
  155.1312  140.3256  155.4455 H   0  0  0  0  0  0  0  0  0  0  0  0  # atno 8009 bound_to 7997
  156.2593  140.1980  156.6431 H   0  0  0  0  0  0  0  0  0  0  0  0  # atno 8010 bound_to 7997
  139.8345  144.6671  150.9359 H   0  0  0  0  0  0  0  0  0  0  0  0  # atno 10167 bound_to 10162
  156.2218  130.6983  151.0764 H   0  0  0  0  0  0  0  0  0  0  0  0  # atno 10718 bound_to 10713
  153.0301  135.6432  154.1242 H   0  0  0  0  0  0  0  0  0  0  0  0  # atno 10763 bound_to 10752
  154.0965  135.2862  155.3262 H   0  0  0  0  0  0  0  0  0  0  0  0  # atno 10764 bound_to 10752
  154.6428  135.5453  153.7873 H   0  0  0  0  0  0  0  0  0  0  0  0  # atno 10765 bound_to 10752
  140.6158  134.4802  157.5219 H   0  0  0  0  0  0  0  0  0  0  0  0  # atno 11005 bound_to 11000
  144.6811  139.9863  143.7484 LP  0  0  0  0  0  0  0  0  0  0  0  0  # atno 17320 bound_to 7965
  146.0164  139.3213  143.0839 LP  0  0  0  0  0  0  0  0  0  0  0  0  # atno 17321 bound_to 7965
  140.7804  143.3970  151.1213 LP  0  0  0  0  0  0  0  0  0  0  0  0  # atno 17342 bound_to 10162
  139.7621  143.8619  152.3102 LP  0  0  0  0  0  0  0  0  0  0  0  0  # atno 17343 bound_to 10162
  157.7091  131.0743  150.6564 LP  0  0  0  0  0  0  0  0  0  0  0  0  # atno 17370 bound_to 10713
  156.6628  130.4517  149.5682 LP  0  0  0  0  0  0  0  0  0  0  0  0  # atno 17371 bound_to 10713
  139.9173  134.8220  156.1324 LP  0  0  0  0  0  0  0  0  0  0  0  0  # atno 17394 bound_to 11000
  141.0776  133.6768  156.2269 LP  0  0  0  0  0  0  0  0  0  0  0  0  # atno 17395 bound_to 11000

$$$$
