AV-unprocessed.smi:2850|AV-procd|sdf|10970|dock4
  -GOLD-   2272015423D 1   1.00000     0.00000
 Structure written by MMmdl.
 44 45  0  0  0  0  0  0  0  0  1 V2000
  149.5696  142.4451  158.3788 C   0  0  0  0  0  0  0  0  0  0  0  0
  151.1549  143.2479  158.7478 S   0  0  0  0  0  0  0  0  0  0  0  0
  152.2688  141.9838  159.2822 C   0  0  0  0  0  0  0  0  0  0  0  0
  152.9161  142.0775  160.5274 C   0  0  0  0  0  0  0  0  0  0  0  0
  153.7855  141.0291  160.8755 C   0  0  0  0  0  0  0  0  0  0  0  0
  153.9403  139.9729  159.9546 C   0  0  0  0  0  0  0  0  0  0  0  0
  154.7973  138.9119  160.2756 N   0  0  0  0  0  0  0  0  0  0  0  0
  155.3617  138.8000  161.6135 C   0  0  0  0  0  0  0  0  0  0  0  0
  154.7285  137.6477  162.4046 C   0  0  1  0  0  0  0  0  0  0  0  0
  155.3774  136.2965  162.0463 C   0  0  0  0  0  0  0  0  0  0  0  0
  154.8420  135.1964  162.8411 N   0  0  0  0  0  0  0  0  0  0  0  0
  155.4747  133.9305  162.4661 C   0  0  0  0  0  0  0  0  0  0  0  0
  154.8727  132.6599  163.1037 C   0  0  0  0  0  0  0  0  0  0  0  0
  155.3109  132.5389  164.5706 C   0  0  0  0  0  0  0  0  0  0  0  0
  155.2565  131.3930  162.3219 C   0  0  0  0  0  0  0  0  0  0  0  0
  155.0072  135.5131  164.2579 C   0  0  0  0  0  0  0  0  0  0  0  0
  154.3747  136.8675  164.6201 C   0  0  0  0  0  0  0  0  0  0  0  0
  154.9273  137.8882  163.7958 O   0  0  0  0  0  0  0  0  0  0  0  0
  153.2792  139.9521  158.7689 N   0  0  0  0  0  0  0  0  0  0  0  0
  152.4509  140.9472  158.4333 N   0  0  0  0  0  0  0  0  0  0  0  0
  148.8453  143.1853  158.0395 H   0  0  0  0  0  0  0  0  0  0  0  0
  149.1719  141.9572  159.2688 H   0  0  0  0  0  0  0  0  0  0  0  0
  149.6920  141.6980  157.5943 H   0  0  0  0  0  0  0  0  0  0  0  0
  152.7534  142.9162  161.1882 H   0  0  0  0  0  0  0  0  0  0  0  0
  154.3141  141.0374  161.8176 H   0  0  0  0  0  0  0  0  0  0  0  0
  154.8891  138.1301  159.6432 H   0  0  0  0  0  0  0  0  0  0  0  0
  156.4350  138.6281  161.5220 H   0  0  0  0  0  0  0  0  0  0  0  0
  155.2302  139.7413  162.1489 H   0  0  0  0  0  0  0  0  0  0  0  0
  153.6589  137.6033  162.1902 H   0  0  0  0  0  0  0  0  0  0  0  0
  155.2188  136.0936  160.9865 H   0  0  0  0  0  0  0  0  0  0  0  0
  156.4570  136.3637  162.1911 H   0  0  0  0  0  0  0  0  0  0  0  0
  155.4183  133.8144  161.3827 H   0  0  0  0  0  0  0  0  0  0  0  0
  156.5393  133.9810  162.7004 H   0  0  0  0  0  0  0  0  0  0  0  0
  153.7860  132.7380  163.1089 H   0  0  0  0  0  0  0  0  0  0  0  0
  156.3944  132.4479  164.6545 H   0  0  0  0  0  0  0  0  0  0  0  0
  154.8657  131.6632  165.0441 H   0  0  0  0  0  0  0  0  0  0  0  0
  155.0052  133.4133  165.1457 H   0  0  0  0  0  0  0  0  0  0  0  0
  156.3383  131.2615  162.2868 H   0  0  0  0  0  0  0  0  0  0  0  0
  154.8931  131.4358  161.2948 H   0  0  0  0  0  0  0  0  0  0  0  0
  154.8275  130.5023  162.7815 H   0  0  0  0  0  0  0  0  0  0  0  0
  154.5495  134.7421  164.8764 H   0  0  0  0  0  0  0  0  0  0  0  0
  156.0682  135.5316  164.5121 H   0  0  0  0  0  0  0  0  0  0  0  0
  153.2914  136.8347  164.4940 H   0  0  0  0  0  0  0  0  0  0  0  0
  154.5685  137.1088  165.6652 H   0  0  0  0  0  0  0  0  0  0  0  0
  1  2  1  0  0  0  0
  1 21  1  0  0  0  0
  1 22  1  0  0  0  0
  1 23  1  0  0  0  0
  2  3  1  0  0  0  0
  3 20  1  0  0  0  0
  3  4  2  0  0  0  0
  4  5  1  0  0  0  0
  4 24  1  0  0  0  0
  5  6  2  0  0  0  0
  5 25  1  0  0  0  0
  6  7  1  0  0  0  0
  6 19  1  0  0  0  0
  7  8  1  0  0  0  0
  7 26  1  0  0  0  0
  8  9  1  0  0  0  0
  8 27  1  0  0  0  0
  8 28  1  0  0  0  0
  9 18  1  0  0  0  0
  9 10  1  0  0  0  0
  9 29  1  0  0  0  0
 10 11  1  0  0  0  0
 10 30  1  0  0  0  0
 10 31  1  0  0  0  0
 11 12  1  0  0  0  0
 11 16  1  0  0  0  0
 12 13  1  0  0  0  0
 12 32  1  0  0  0  0
 12 33  1  0  0  0  0
 13 14  1  0  0  0  0
 13 15  1  0  0  0  0
 13 34  1  0  0  0  0
 14 35  1  0  0  0  0
 14 36  1  0  0  0  0
 14 37  1  0  0  0  0
 15 38  1  0  0  0  0
 15 39  1  0  0  0  0
 15 40  1  0  0  0  0
 16 17  1  0  0  0  0
 16 41  1  0  0  0  0
 16 42  1  0  0  0  0
 17 18  1  0  0  0  0
 17 43  1  0  0  0  0
 17 44  1  0  0  0  0
 19 20  2  0  0  0  0
M  END
> <s_m_source_file>
AV-unprocessed.smi

> <i_m_source_file_index>
2850

> <i_lp_mmshare_version>
43012

> <i_f3d_flags>
0

> <s_epik_input>
W0NIM11TYzFbY0hdW2NIXWMobm4xKVtOSF1bQ0gyXVtDQEBIXTJbQ0gyXU4oW0NIMl1bQ0gyXU8yKVtDSDJdW0NIXShbQ0gzXSlbQ0gzXQ==

> <s_epik_cmdline>
J2VwaWtfcHl0aG9uJywgJy1waCcsICc3LjAnLCAnLXRuJywgJzgnLCAnLW1hJywgJzIwMCcsICctbWV0YWxfYmluZGluZycsICctaW1hZScsICc8aW5maWxlLm1hZT4nLCAnLW9tYWUnLCAnPG91dGZpbGUubWFlPic=

> <r_lp_tautomer_probability>
0.999978

> <r_epik_Ionization_Penalty>
1.20939

> <r_epik_Ionization_Penalty_Charging>
0

> <r_epik_Ionization_Penalty_Neutral>
1.20939

> <r_epik_State_Penalty>
1.27042

> <r_epik_Charging_Adjusted_Penalty>
1.27042

> <i_epik_Tot_Q>
0

> <i_epik_Tot_abs_Q>
0

> <r_epik_Metal_State_Penalty>
1.26998

> <b_epik_Metal_Only>
0

> <s_lp_Force_Field>
OPLS_2005

> <r_lp_Energy>
30.7386

> <b_lp_Chiralities_Consistent>
1

> <s_lp_Variant>
AV-unprocessed.smi:2850-6

> <Gold.Version>
5.8.1

> <Gold.Id.Protein>
6NUR|6NUR_protein|mol2

> <Gold.PLP.Fitness>
37.5289

> <Gold.PLP.PLP>
-35.5025

> <Gold.PLP.part.hbond>
-1.2450

> <Gold.PLP.part.metal>
0.0000

> <Gold.PLP.part.buried>
-1.2824

> <Gold.PLP.part.nonpolar>
-32.4041

> <Gold.PLP.part.repulsive>
0.0722

> <Gold.PLP.ligand.clash>
0.0000

> <Gold.PLP.ligand.torsion>
0.4915

> <Gold.PLP.Chemscore.Hbond>
0.9760

> <Gold.PLP.Chemscore.CHOScore>
0.0000

> <Gold.PLP.Chemscore.Metal>
0.0000

> <Gold.Chemscore.Hbonds>
donor molecule, donor type, donor heavy atom, donor atom, acceptor molecule, acceptor atom, score
      P1  H  7997  8008       L1    19  0.65

> <Gold.PLP.Chemscore.Internal.Correction>
0.0814

> <Gold.Rescore>
     Score         DG    S(hbond)    S(metal)    S(lipo)     H(rot)  DE(clash)    DE(int)     intcor
     13.98     -14.92       0.50        0.00     100.22       1.55       0.05       0.88       ----

> <Gold.Chemscore.Fitness>
13.9822

> <Gold.Chemscore.DG>
-14.9180

> <Gold.Chemscore.ZeroCoef>
-5.4800

> <Gold.Chemscore.Hbond>
0.5008

> <Gold.Chemscore.Metal>
0.0000

> <Gold.Chemscore.Lipo>
100.2238

> <Gold.Chemscore.Internal_Hbond>
0.0000

> <Gold.Chemscore.DEClash>
0.0543

> <Gold.Chemscore.DEInternal>
0.8815

> <Gold.Chemscore.Rot>
1.5473

> <Gold.Chemscore.Internal.Correction>
   9.000000E+99

> <Gold.Chemscore.Hbonds>
donor molecule, donor type, donor heavy atom, donor atom, acceptor molecule, acceptor atom, score
      P1  H  7997  8008       L1    19  0.13

> <Gold.Chemscore.Hbond.Weighted>
-1.6728

> <Gold.Chemscore.Metal.Weighted>
-0.0000

> <Gold.Chemscore.Lipo.Weighted>
-11.7262

> <Gold.Chemscore.Internal_Hbond.Weighted>
0.0000

> <Gold.Chemscore.DEClash.Weighted>
0.0543

> <Gold.Chemscore.DEInternal.Weighted>
0.8815

> <Gold.Chemscore.Rot.Weighted>
3.9610

> <Gold.Chemscore.Internal.Correction.Weighted>
   9.000000E+99

> <Gold.Protein.RotatedTorsions>
[ 6907 6896 6895 6894 ] final  -23.66 input  -60.11 | X-H torsion
[ 7974 7965 7964 7962 ] final  -80.14 input  175.53 | X-H torsion
[ 8008 7997 7996 7995 ] final  -96.94 input   59.86 | X-H torsion
[ 10167 10162 10161 10158 ] final  122.45 input  -65.29 | X-H torsion
[ 10718 10713 10712 10709 ] final   82.77 input   66.30 | X-H torsion
[ 10763 10752 10751 10750 ] final  104.84 input  -60.55 | X-H torsion
[ 11005 11000 10999 10996 ] final  -80.76 input  -57.11 | X-H torsion

> <Gold.Protein.ActiveResidues>
 VAL166  LYS551  ARG553  GLY616  TRP617  ASP618  TYR619  PRO620  LYS621  CYS622 
 ASP623  PHE694  ASN695  SER759  ASP760  ASP761  ALA762  ILE779  LEU786  VAL792 
 PHE793  MET794  SER795  GLU796  ALA797  LYS798  CYS799  TRP800  GLU811  SER814 

> <Gold.Protein.RotatedAtoms>
  151.2008  135.0442  159.8871 H   0  0  0  0  0  0  0  0  0  0  0  0  # atno 6907 bound_to 6896
  152.5433  134.0852  159.8263 H   0  0  0  0  0  0  0  0  0  0  0  0  # atno 6908 bound_to 6896
  151.0992  133.5209  159.2643 H   0  0  0  0  0  0  0  0  0  0  0  0  # atno 6909 bound_to 6896
  145.5638  140.9477  143.1432 H   0  0  0  0  0  0  0  0  0  0  0  0  # atno 7974 bound_to 7965
  154.7811  140.0467  157.1128 H   0  0  0  0  0  0  0  0  0  0  0  0  # atno 8008 bound_to 7997
  154.9704  140.3089  155.4971 H   0  0  0  0  0  0  0  0  0  0  0  0  # atno 8009 bound_to 7997
  156.2936  140.2254  156.4796 H   0  0  0  0  0  0  0  0  0  0  0  0  # atno 8010 bound_to 7997
  139.5858  144.7005  151.3414 H   0  0  0  0  0  0  0  0  0  0  0  0  # atno 10167 bound_to 10162
  157.6864  131.0062  150.2424 H   0  0  0  0  0  0  0  0  0  0  0  0  # atno 10718 bound_to 10713
  153.3714  135.3929  155.1791 H   0  0  0  0  0  0  0  0  0  0  0  0  # atno 10763 bound_to 10752
  154.8695  135.3703  154.4973 H   0  0  0  0  0  0  0  0  0  0  0  0  # atno 10764 bound_to 10752
  153.5441  135.7084  153.5683 H   0  0  0  0  0  0  0  0  0  0  0  0  # atno 10765 bound_to 10752
  141.1667  133.7165  156.8321 H   0  0  0  0  0  0  0  0  0  0  0  0  # atno 11005 bound_to 11000
  144.7470  139.7294  143.7288 LP  0  0  0  0  0  0  0  0  0  0  0  0  # atno 17320 bound_to 7965
  146.1832  139.5035  142.9853 LP  0  0  0  0  0  0  0  0  0  0  0  0  # atno 17321 bound_to 7965
  140.7130  143.7342  150.7601 LP  0  0  0  0  0  0  0  0  0  0  0  0  # atno 17342 bound_to 10162
  140.0886  143.4900  152.2491 LP  0  0  0  0  0  0  0  0  0  0  0  0  # atno 17343 bound_to 10162
  156.3036  130.3762  149.7727 LP  0  0  0  0  0  0  0  0  0  0  0  0  # atno 17370 bound_to 10713
  156.5349  130.8274  151.3250 LP  0  0  0  0  0  0  0  0  0  0  0  0  # atno 17371 bound_to 10713
  140.2044  134.8874  157.3205 LP  0  0  0  0  0  0  0  0  0  0  0  0  # atno 17394 bound_to 11000
  140.2153  134.4089  155.7592 LP  0  0  0  0  0  0  0  0  0  0  0  0  # atno 17395 bound_to 11000

$$$$
