AV-unprocessed.smi:896|AV-procd|sdf|4078|dock5
  -GOLD-   22720 1563D 1   1.00000     0.00000
 Structure written by MMmdl.
 49 50  0  0  0  0  0  0  0  0  2 V2000
  150.8270  142.8668  157.5853 C   0  0  0  0  0  0  0  0  0  0  0  0
  151.5002  141.8599  156.8372 O   0  0  0  0  0  0  0  0  0  0  0  0
  150.7584  141.0806  155.9731 C   0  0  0  0  0  0  0  0  0  0  0  0
  149.4666  141.5115  155.6152 C   0  0  0  0  0  0  0  0  0  0  0  0
  148.7066  140.7214  154.7328 C   0  0  0  0  0  0  0  0  0  0  0  0
  149.2656  139.5248  154.2243 C   0  0  0  0  0  0  0  0  0  0  0  0
  148.5623  138.6537  153.3473 N   0  0  0  0  0  0  0  0  0  0  0  0
  147.2454  138.6358  153.0817 C   0  0  0  0  0  0  0  0  0  0  0  0
  146.4115  139.3989  153.5703 O   0  0  0  0  0  0  0  0  0  0  0  0
  146.9430  137.6888  152.1820 N   0  0  0  0  0  0  0  0  0  0  0  0
  145.6065  137.4382  151.6557 C   0  0  0  0  0  0  0  0  0  0  0  0
  145.4591  135.9828  151.1733 C   0  0  0  0  0  0  0  0  0  0  0  0
  144.1980  135.2627  151.7028 C   0  0  2  0  0  0  0  0  0  0  0  0
  144.1112  135.3094  153.2410 C   0  0  0  0  0  0  0  0  0  0  0  0
  145.1360  134.3749  153.9108 C   0  0  0  0  0  0  0  0  0  0  0  0
  144.9873  132.9800  153.4262 N   0  3  2  0  0  0  0  0  0  0  0  0
  145.8932  132.0435  154.1253 C   0  0  0  0  0  0  0  0  0  0  0  0
  145.1037  132.8815  151.9500 C   0  0  0  0  0  0  0  0  0  0  0  0
  144.0770  133.7913  151.2518 C   0  0  0  0  0  0  0  0  0  0  0  0
  150.5663  139.1702  154.6564 C   0  0  0  0  0  0  0  0  0  0  0  0
  151.2397  137.8961  154.1774 C   0  0  0  0  0  0  0  0  0  0  0  0
  151.2964  139.9282  155.5037 N   0  0  0  0  0  0  0  0  0  0  0  0
  151.5455  143.3870  158.2188 H   0  0  0  0  0  0  0  0  0  0  0  0
  150.0633  142.4377  158.2355 H   0  0  0  0  0  0  0  0  0  0  0  0
  150.3656  143.6082  156.9313 H   0  0  0  0  0  0  0  0  0  0  0  0
  149.0628  142.4304  156.0147 H   0  0  0  0  0  0  0  0  0  0  0  0
  147.7075  141.0374  154.4740 H   0  0  0  0  0  0  0  0  0  0  0  0
  149.1374  138.0322  152.7978 H   0  0  0  0  0  0  0  0  0  0  0  0
  147.6893  137.1057  151.8321 H   0  0  0  0  0  0  0  0  0  0  0  0
  144.8845  137.6445  152.4461 H   0  0  0  0  0  0  0  0  0  0  0  0
  145.3995  138.1463  150.8531 H   0  0  0  0  0  0  0  0  0  0  0  0
  145.4785  135.9541  150.0842 H   0  0  0  0  0  0  0  0  0  0  0  0
  146.3412  135.4288  151.4975 H   0  0  0  0  0  0  0  0  0  0  0  0
  143.3357  135.8046  151.3119 H   0  0  0  0  0  0  0  0  0  0  0  0
  144.2473  136.3306  153.5986 H   0  0  0  0  0  0  0  0  0  0  0  0
  143.1081  135.0145  153.5518 H   0  0  0  0  0  0  0  0  0  0  0  0
  146.1522  134.7235  153.7231 H   0  0  0  0  0  0  0  0  0  0  0  0
  144.9928  134.3985  154.9918 H   0  0  0  0  0  0  0  0  0  0  0  0
  146.9375  132.2859  153.9234 H   0  0  0  0  0  0  0  0  0  0  0  0
  145.7113  131.0180  153.8022 H   0  0  0  0  0  0  0  0  0  0  0  0
  145.7341  132.0855  155.2032 H   0  0  0  0  0  0  0  0  0  0  0  0
  146.1177  133.1377  151.6403 H   0  0  0  0  0  0  0  0  0  0  0  0
  144.9362  131.8484  151.6430 H   0  0  0  0  0  0  0  0  0  0  0  0
  143.0741  133.4319  151.4867 H   0  0  0  0  0  0  0  0  0  0  0  0
  144.1717  133.7011  150.1706 H   0  0  0  0  0  0  0  0  0  0  0  0
  151.3098  137.8893  153.0893 H   0  0  0  0  0  0  0  0  0  0  0  0
  150.6669  137.0234  154.4923 H   0  0  0  0  0  0  0  0  0  0  0  0
  152.2491  137.7995  154.5795 H   0  0  0  0  0  0  0  0  0  0  0  0
  144.0464  132.6954  153.6587 H   0  0  0  0  0  0  0  0  0  0  0  0
  1  2  1  0  0  0  0
  1 23  1  0  0  0  0
  1 24  1  0  0  0  0
  1 25  1  0  0  0  0
  2  3  1  0  0  0  0
  3 22  1  0  0  0  0
  3  4  2  0  0  0  0
  4  5  1  0  0  0  0
  4 26  1  0  0  0  0
  5  6  2  0  0  0  0
  5 27  1  0  0  0  0
  6  7  1  0  0  0  0
  6 20  1  0  0  0  0
  7  8  1  0  0  0  0
  7 28  1  0  0  0  0
  8  9  2  0  0  0  0
  8 10  1  0  0  0  0
 10 11  1  0  0  0  0
 10 29  1  0  0  0  0
 11 12  1  0  0  0  0
 11 30  1  0  0  0  0
 11 31  1  0  0  0  0
 12 13  1  0  0  0  0
 12 32  1  0  0  0  0
 12 33  1  0  0  0  0
 13 19  1  0  0  0  0
 13 14  1  0  0  0  0
 13 34  1  0  0  0  0
 14 15  1  0  0  0  0
 14 35  1  0  0  0  0
 14 36  1  0  0  0  0
 15 16  1  0  0  0  0
 15 37  1  0  0  0  0
 15 38  1  0  0  0  0
 16 17  1  0  0  0  0
 16 18  1  0  0  0  0
 16 49  1  0  0  0  0
 17 39  1  0  0  0  0
 17 40  1  0  0  0  0
 17 41  1  0  0  0  0
 18 19  1  0  0  0  0
 18 42  1  0  0  0  0
 18 43  1  0  0  0  0
 19 44  1  0  0  0  0
 19 45  1  0  0  0  0
 20 21  1  0  0  0  0
 20 22  2  0  0  0  0
 21 46  1  0  0  0  0
 21 47  1  0  0  0  0
 21 48  1  0  0  0  0
M  CHG  1  16   1
M  END
> <s_m_source_file>
AV-unprocessed.smi

> <i_m_source_file_index>
896

> <i_lp_mmshare_version>
43012

> <i_f3d_flags>
0

> <s_epik_input>
W0NIM11PYzFbY0hdW2NIXWMoYyhuMSlbQ0gzXSlbTkhdQyg9TylbTkhdW0NIMl1bQ0gyXVtDSF0yW0NIMl1bQ0gyXU4oW0NIM10pW0NIMl1bQ0gyXTI=

> <s_epik_cmdline>
J2VwaWtfcHl0aG9uJywgJy1waCcsICc3LjAnLCAnLXRuJywgJzgnLCAnLW1hJywgJzIwMCcsICctbWV0YWxfYmluZGluZycsICctaW1hZScsICc8aW5maWxlLm1hZT4nLCAnLW9tYWUnLCAnPG91dGZpbGUubWFlPic=

> <r_lp_tautomer_probability>
1

> <r_epik_Ionization_Penalty>
0.000968128

> <r_epik_Ionization_Penalty_Charging>
0.000718523

> <r_epik_Ionization_Penalty_Neutral>
0.000249604

> <r_epik_State_Penalty>
0.00045807

> <r_epik_Charging_Adjusted_Penalty>
0.00117659

> <i_epik_Tot_Q>
1

> <i_epik_Tot_abs_Q>
1

> <r_epik_Metal_State_Penalty>
-0

> <b_epik_Metal_Only>
0

> <s_lp_Force_Field>
OPLS_2005

> <r_lp_Energy>
21.0963

> <b_lp_Chiralities_Consistent>
1

> <s_lp_Variant>
AV-unprocessed.smi:896-2

> <Gold.Version>
5.8.1

> <Gold.Id.Protein>
6NUR|6NUR_protein|mol2

> <Gold.PLP.Fitness>
43.8089

> <Gold.PLP.PLP>
-33.9784

> <Gold.PLP.part.hbond>
-4.6259

> <Gold.PLP.part.metal>
0.0000

> <Gold.PLP.part.buried>
0.4106

> <Gold.PLP.part.nonpolar>
-32.4268

> <Gold.PLP.part.repulsive>
0.3949

> <Gold.PLP.ligand.clash>
0.0000

> <Gold.PLP.ligand.torsion>
0.7903

> <Gold.PLP.Chemscore.Hbond>
3.7840

> <Gold.PLP.Chemscore.CHOScore>
0.0000

> <Gold.PLP.Chemscore.Metal>
0.0000

> <Gold.Chemscore.Hbonds>
donor molecule, donor type, donor heavy atom, donor atom, acceptor molecule, acceptor atom, score
      L1  H     7    28       P1  7948  0.78
      L1  H    10    29       P1  7948  0.96
      L1  H    16    49       P1 10957  2.00

> <Gold.PLP.Chemscore.Internal.Correction>
0.0591

> <Gold.Rescore>
     Score         DG    S(hbond)    S(metal)    S(lipo)     H(rot)  DE(clash)    DE(int)     intcor
     15.91     -19.32       2.69        0.00      77.52       1.65       1.36       2.05       ----

> <Gold.Chemscore.Fitness>
15.9110

> <Gold.Chemscore.DG>
-19.3182

> <Gold.Chemscore.ZeroCoef>
-5.4800

> <Gold.Chemscore.Hbond>
2.6939

> <Gold.Chemscore.Metal>
0.0000

> <Gold.Chemscore.Lipo>
77.5207

> <Gold.Chemscore.Internal_Hbond>
0.0000

> <Gold.Chemscore.DEClash>
1.3572

> <Gold.Chemscore.DEInternal>
2.0500

> <Gold.Chemscore.Rot>
1.6521

> <Gold.Chemscore.Internal.Correction>
   9.000000E+99

> <Gold.Chemscore.Hbonds>
donor molecule, donor type, donor heavy atom, donor atom, acceptor molecule, acceptor atom, score
      L1  H     7    28       P1  7948  0.73
      L1  H    10    29       P1  7948  0.90
      L1  H    16    49       P1 10957  0.57

> <Gold.Chemscore.Hbond.Weighted>
-8.9976

> <Gold.Chemscore.Metal.Weighted>
-0.0000

> <Gold.Chemscore.Lipo.Weighted>
-9.0699

> <Gold.Chemscore.Internal_Hbond.Weighted>
0.0000

> <Gold.Chemscore.DEClash.Weighted>
1.3572

> <Gold.Chemscore.DEInternal.Weighted>
2.0500

> <Gold.Chemscore.Rot.Weighted>
4.2294

> <Gold.Chemscore.Internal.Correction.Weighted>
   9.000000E+99

> <Gold.Protein.RotatedTorsions>
[ 6907 6896 6895 6894 ] final   42.39 input  -60.11 | X-H torsion
[ 7974 7965 7964 7962 ] final -175.79 input  175.53 | X-H torsion
[ 8008 7997 7996 7995 ] final   61.47 input   59.86 | X-H torsion
[ 10167 10162 10161 10158 ] final  160.25 input  -65.29 | X-H torsion
[ 10718 10713 10712 10709 ] final -168.80 input   66.30 | X-H torsion
[ 10763 10752 10751 10750 ] final  -56.27 input  -60.55 | X-H torsion
[ 11005 11000 10999 10996 ] final -110.85 input  -57.11 | X-H torsion

> <Gold.Protein.ActiveResidues>
 VAL166  LYS551  ARG553  GLY616  TRP617  ASP618  TYR619  PRO620  LYS621  CYS622 
 ASP623  PHE694  ASN695  SER759  ASP760  ASP761  ALA762  ILE779  LEU786  VAL792 
 PHE793  MET794  SER795  GLU796  ALA797  LYS798  CYS799  TRP800  GLU811  SER814 

> <Gold.Protein.RotatedAtoms>
  152.2072  134.8534  160.0501 H   0  0  0  0  0  0  0  0  0  0  0  0  # atno 6907 bound_to 6896
  151.9366  133.3621  159.3958 H   0  0  0  0  0  0  0  0  0  0  0  0  # atno 6908 bound_to 6896
  150.6968  134.4407  159.5335 H   0  0  0  0  0  0  0  0  0  0  0  0  # atno 6909 bound_to 6896
  144.7127  140.1268  143.6401 H   0  0  0  0  0  0  0  0  0  0  0  0  # atno 7974 bound_to 7965
  155.5988  140.3493  155.4588 H   0  0  0  0  0  0  0  0  0  0  0  0  # atno 8008 bound_to 7997
  156.0244  140.1261  157.0348 H   0  0  0  0  0  0  0  0  0  0  0  0  # atno 8009 bound_to 7997
  154.4327  140.1056  156.5996 H   0  0  0  0  0  0  0  0  0  0  0  0  # atno 8010 bound_to 7997
  139.4838  144.4652  151.8652 H   0  0  0  0  0  0  0  0  0  0  0  0  # atno 10167 bound_to 10162
  156.7022  130.9201  151.3081 H   0  0  0  0  0  0  0  0  0  0  0  0  # atno 10718 bound_to 10713
  154.2040  135.6406  153.5095 H   0  0  0  0  0  0  0  0  0  0  0  0  # atno 10763 bound_to 10752
  153.0005  135.5458  154.6285 H   0  0  0  0  0  0  0  0  0  0  0  0  # atno 10764 bound_to 10752
  154.5706  135.2916  155.0805 H   0  0  0  0  0  0  0  0  0  0  0  0  # atno 10765 bound_to 10752
  141.0768  133.9287  157.2372 H   0  0  0  0  0  0  0  0  0  0  0  0  # atno 11005 bound_to 11000
  145.9322  139.2613  143.1318 LP  0  0  0  0  0  0  0  0  0  0  0  0  # atno 17320 bound_to 7965
  145.9511  140.8908  143.0259 LP  0  0  0  0  0  0  0  0  0  0  0  0  # atno 17321 bound_to 7965
  140.4116  144.2361  150.5889 LP  0  0  0  0  0  0  0  0  0  0  0  0  # atno 17342 bound_to 10162
  140.4960  143.2332  151.8748 LP  0  0  0  0  0  0  0  0  0  0  0  0  # atno 17343 bound_to 10162
  157.6969  130.9291  150.0669 LP  0  0  0  0  0  0  0  0  0  0  0  0  # atno 17370 bound_to 10713
  156.1721  130.3647  149.9151 LP  0  0  0  0  0  0  0  0  0  0  0  0  # atno 17371 bound_to 10713
  139.9581  135.0161  156.9184 LP  0  0  0  0  0  0  0  0  0  0  0  0  # atno 17394 bound_to 11000
  140.5555  134.0585  155.7382 LP  0  0  0  0  0  0  0  0  0  0  0  0  # atno 17395 bound_to 11000

$$$$
