AV-unprocessed.smi:2309|AV-procd|sdf|9253|dock9
  -GOLD-   2272012473D 1   1.00000     0.00000
 Structure written by MMmdl.
 34 35  0  0  0  0  0  0  0  0  1 V2000
  149.6606  141.5365  154.5646 C   0  0  0  0  0  0  0  0  0  0  0  0
  150.4919  140.9493  155.6916 C   0  0  0  0  0  0  0  0  0  0  0  0
  150.4142  141.6235  156.9135 N   0  0  0  0  0  0  0  0  0  0  0  0
  151.0893  141.1956  157.9294 C   0  0  0  0  0  0  0  0  0  0  0  0
  151.9095  140.0576  157.8457 N   0  0  0  0  0  0  0  0  0  0  0  0
  152.6296  139.6794  159.0741 C   0  0  0  0  0  0  0  0  0  0  0  0
  153.8001  140.6384  159.3886 C   0  0  2  0  0  0  0  0  0  0  0  0
  154.8966  139.8797  159.8620 O   0  0  0  0  0  0  0  0  0  0  0  0
  153.3689  141.7048  160.3943 C   0  0  0  0  0  0  0  0  0  0  0  0
  152.6058  142.8147  159.9621 C   0  0  0  0  0  0  0  0  0  0  0  0
  152.2075  143.8116  160.8728 C   0  0  0  0  0  0  0  0  0  0  0  0
  151.2746  145.1561  160.3267 Cl  0  0  0  0  0  0  0  0  0  0  0  0
  152.5730  143.7124  162.2275 C   0  0  0  0  0  0  0  0  0  0  0  0
  153.3427  142.6198  162.6666 C   0  0  0  0  0  0  0  0  0  0  0  0
  153.7460  141.6199  161.7589 C   0  0  0  0  0  0  0  0  0  0  0  0
  154.7141  140.3153  162.3521 Cl  0  0  0  0  0  0  0  0  0  0  0  0
  152.0425  139.3419  156.6917 C   0  0  0  0  0  0  0  0  0  0  0  0
  152.7645  138.3454  156.6259 O   0  0  0  0  0  0  0  0  0  0  0  0
  151.2685  139.8414  155.5435 C   0  0  0  0  0  0  0  0  0  0  0  0
  151.3930  139.0676  154.2367 C   0  0  0  0  0  0  0  0  0  0  0  0
  150.2965  141.8106  153.7224 H   0  0  0  0  0  0  0  0  0  0  0  0
  149.1304  142.4335  154.8876 H   0  0  0  0  0  0  0  0  0  0  0  0
  148.9181  140.8149  154.2225 H   0  0  0  0  0  0  0  0  0  0  0  0
  151.0678  141.6879  158.9033 H   0  0  0  0  0  0  0  0  0  0  0  0
  151.9196  139.6988  159.9039 H   0  0  0  0  0  0  0  0  0  0  0  0
  152.9765  138.6447  159.0482 H   0  0  0  0  0  0  0  0  0  0  0  0
  154.1439  141.1276  158.4779 H   0  0  0  0  0  0  0  0  0  0  0  0
  154.5650  139.1643  160.3827 H   0  0  0  0  0  0  0  0  0  0  0  0
  152.3236  142.9119  158.9239 H   0  0  0  0  0  0  0  0  0  0  0  0
  152.2696  144.4756  162.9290 H   0  0  0  0  0  0  0  0  0  0  0  0
  153.6292  142.5519  163.7060 H   0  0  0  0  0  0  0  0  0  0  0  0
  151.0816  138.0325  154.3811 H   0  0  0  0  0  0  0  0  0  0  0  0
  152.4301  139.0651  153.8993 H   0  0  0  0  0  0  0  0  0  0  0  0
  150.7874  139.4819  153.4323 H   0  0  0  0  0  0  0  0  0  0  0  0
  1  2  1  0  0  0  0
  1 21  1  0  0  0  0
  1 22  1  0  0  0  0
  1 23  1  0  0  0  0
  2 19  2  0  0  0  0
  2  3  1  0  0  0  0
  3  4  2  0  0  0  0
  4  5  1  0  0  0  0
  4 24  1  0  0  0  0
  5  6  1  0  0  0  0
  5 17  1  0  0  0  0
  6  7  1  0  0  0  0
  6 25  1  0  0  0  0
  6 26  1  0  0  0  0
  7  8  1  0  0  0  0
  7  9  1  0  0  0  0
  7 27  1  0  0  0  0
  8 28  1  0  0  0  0
  9 15  1  0  0  0  0
  9 10  2  0  0  0  0
 10 11  1  0  0  0  0
 10 29  1  0  0  0  0
 11 12  1  0  0  0  0
 11 13  2  0  0  0  0
 13 14  1  0  0  0  0
 13 30  1  0  0  0  0
 14 15  2  0  0  0  0
 14 31  1  0  0  0  0
 15 16  1  0  0  0  0
 17 18  2  0  0  0  0
 17 19  1  0  0  0  0
 19 20  1  0  0  0  0
 20 32  1  0  0  0  0
 20 33  1  0  0  0  0
 20 34  1  0  0  0  0
M  END
> <s_m_source_file>
AV-unprocessed.smi

> <i_m_source_file_index>
2309

> <i_lp_mmshare_version>
43012

> <i_f3d_flags>
0

> <s_epik_input>
W0NIM11jMW5bY0hdbihjKD1PKWMxW0NIM10pW0NIMl1bQ0BIXShbT0hdKWMyW2NIXWMoQ2wpW2NIXVtjSF1jMkNs

> <s_epik_cmdline>
J2VwaWtfcHl0aG9uJywgJy1waCcsICc3LjAnLCAnLXRuJywgJzgnLCAnLW1hJywgJzIwMCcsICctbWV0YWxfYmluZGluZycsICctaW1hZScsICc8aW5maWxlLm1hZT4nLCAnLW9tYWUnLCAnPG91dGZpbGUubWFlPic=

> <r_lp_tautomer_probability>
1

> <r_epik_Ionization_Penalty>
5.09224e-05

> <r_epik_Ionization_Penalty_Charging>
7.56727e-08

> <r_epik_Ionization_Penalty_Neutral>
5.08468e-05

> <r_epik_State_Penalty>
-0

> <r_epik_Charging_Adjusted_Penalty>
7.56727e-08

> <i_epik_Tot_Q>
0

> <i_epik_Tot_abs_Q>
0

> <r_epik_Metal_State_Penalty>
-0

> <b_epik_Metal_Only>
0

> <s_lp_Force_Field>
OPLS_2005

> <r_lp_Energy>
19.5674

> <b_lp_Chiralities_Consistent>
1

> <s_lp_Variant>
AV-unprocessed.smi:2309-1

> <Gold.Version>
5.8.1

> <Gold.Id.Protein>
6NUR|6NUR_protein|mol2

> <Gold.PLP.Fitness>
46.9800

> <Gold.PLP.PLP>
-49.3673

> <Gold.PLP.part.hbond>
0.0000

> <Gold.PLP.part.metal>
0.0000

> <Gold.PLP.part.buried>
-5.2398

> <Gold.PLP.part.nonpolar>
-43.9020

> <Gold.PLP.part.repulsive>
0.0636

> <Gold.PLP.ligand.clash>
0.0000

> <Gold.PLP.ligand.torsion>
1.1976

> <Gold.PLP.Chemscore.Hbond>
0.0000

> <Gold.PLP.Chemscore.CHOScore>
0.0000

> <Gold.PLP.Chemscore.Metal>
0.0000

> <Gold.PLP.Chemscore.Internal.Correction>
0.0079

> <Gold.Rescore>
     Score         DG    S(hbond)    S(metal)    S(lipo)     H(rot)  DE(clash)    DE(int)     intcor
     13.21     -16.34       0.12        0.00     131.39       1.93       0.07       3.05       ----

> <Gold.Chemscore.Fitness>
13.2142

> <Gold.Chemscore.DG>
-16.3375

> <Gold.Chemscore.ZeroCoef>
-5.4800

> <Gold.Chemscore.Hbond>
0.1248

> <Gold.Chemscore.Metal>
0.0000

> <Gold.Chemscore.Lipo>
131.3893

> <Gold.Chemscore.Internal_Hbond>
0.0000

> <Gold.Chemscore.DEClash>
0.0731

> <Gold.Chemscore.DEInternal>
3.0502

> <Gold.Chemscore.Rot>
1.9265

> <Gold.Chemscore.Internal.Correction>
   9.000000E+99

> <Gold.Chemscore.Hbond.Weighted>
-0.4167

> <Gold.Chemscore.Metal.Weighted>
-0.0000

> <Gold.Chemscore.Lipo.Weighted>
-15.3725

> <Gold.Chemscore.Internal_Hbond.Weighted>
0.0000

> <Gold.Chemscore.DEClash.Weighted>
0.0731

> <Gold.Chemscore.DEInternal.Weighted>
3.0502

> <Gold.Chemscore.Rot.Weighted>
4.9317

> <Gold.Chemscore.Internal.Correction.Weighted>
   9.000000E+99

> <Gold.Protein.RotatedTorsions>
[ 6907 6896 6895 6894 ] final  149.87 input  -60.11 | X-H torsion
[ 7974 7965 7964 7962 ] final    8.08 input  175.53 | X-H torsion
[ 8008 7997 7996 7995 ] final -130.07 input   59.86 | X-H torsion
[ 10167 10162 10161 10158 ] final -166.89 input  -65.29 | X-H torsion
[ 10718 10713 10712 10709 ] final -127.11 input   66.30 | X-H torsion
[ 10763 10752 10751 10750 ] final -129.96 input  -60.55 | X-H torsion
[ 11005 11000 10999 10996 ] final   55.72 input  -57.11 | X-H torsion

> <Gold.Protein.ActiveResidues>
 VAL166  LYS551  ARG553  GLY616  TRP617  ASP618  TYR619  PRO620  LYS621  CYS622 
 ASP623  PHE694  ASN695  SER759  ASP760  ASP761  ALA762  ILE779  LEU786  VAL792 
 PHE793  MET794  SER795  GLU796  ALA797  LYS798  CYS799  TRP800  GLU811  SER814 

> <Gold.Protein.RotatedAtoms>
  152.1222  133.4360  159.4680 H   0  0  0  0  0  0  0  0  0  0  0  0  # atno 6907 bound_to 6896
  150.6872  134.2521  159.4524 H   0  0  0  0  0  0  0  0  0  0  0  0  # atno 6908 bound_to 6896
  152.0399  134.9717  160.0624 H   0  0  0  0  0  0  0  0  0  0  0  0  # atno 6909 bound_to 6896
  146.2420  139.9987  142.8418 H   0  0  0  0  0  0  0  0  0  0  0  0  # atno 7974 bound_to 7965
  155.2896  140.0448  157.3022 H   0  0  0  0  0  0  0  0  0  0  0  0  # atno 8008 bound_to 7997
  154.5549  140.2328  155.8394 H   0  0  0  0  0  0  0  0  0  0  0  0  # atno 8009 bound_to 7997
  156.1998  140.3028  155.9511 H   0  0  0  0  0  0  0  0  0  0  0  0  # atno 8010 bound_to 7997
  139.6085  144.0863  152.1818 H   0  0  0  0  0  0  0  0  0  0  0  0  # atno 10167 bound_to 10162
  156.1827  130.6743  151.0325 H   0  0  0  0  0  0  0  0  0  0  0  0  # atno 10718 bound_to 10713
  154.8756  135.3878  154.4006 H   0  0  0  0  0  0  0  0  0  0  0  0  # atno 10763 bound_to 10752
  153.4731  135.7030  153.5987 H   0  0  0  0  0  0  0  0  0  0  0  0  # atno 10764 bound_to 10752
  153.4435  135.3850  155.2210 H   0  0  0  0  0  0  0  0  0  0  0  0  # atno 10765 bound_to 10752
  140.0585  134.5636  155.9180 H   0  0  0  0  0  0  0  0  0  0  0  0  # atno 11005 bound_to 11000
  145.1436  140.9585  143.4474 LP  0  0  0  0  0  0  0  0  0  0  0  0  # atno 17320 bound_to 7965
  145.0272  139.3372  143.6042 LP  0  0  0  0  0  0  0  0  0  0  0  0  # atno 17321 bound_to 7965
  140.0476  144.5958  150.7361 LP  0  0  0  0  0  0  0  0  0  0  0  0  # atno 17342 bound_to 10162
  140.7302  143.2681  151.3978 LP  0  0  0  0  0  0  0  0  0  0  0  0  # atno 17343 bound_to 10162
  157.6878  131.0819  150.7192 LP  0  0  0  0  0  0  0  0  0  0  0  0  # atno 17370 bound_to 10713
  156.7249  130.4692  149.5513 LP  0  0  0  0  0  0  0  0  0  0  0  0  # atno 17371 bound_to 10713
  141.1962  133.6591  156.5683 LP  0  0  0  0  0  0  0  0  0  0  0  0  # atno 17394 bound_to 11000
  140.3807  134.7526  157.4659 LP  0  0  0  0  0  0  0  0  0  0  0  0  # atno 17395 bound_to 11000

$$$$
