AV-unprocessed.smi:1814|AV-procd|sdf|7349|dock4
  -GOLD-   22720 9 13D 1   1.00000     0.00000
 Structure written by MMmdl.
 31 32  0  0  0  0  0  0  0  0  1 V2000
  150.7926  140.6447  156.5354 O   0  0  0  0  0  0  0  0  0  0  0  0
  150.2875  141.7562  156.3749 C   0  0  0  0  0  0  0  0  0  0  0  0
  150.5391  142.8404  157.1294 N   0  0  0  0  0  0  0  0  0  0  0  0
  151.4164  142.9525  158.2399 C   0  0  0  0  0  0  0  0  0  0  0  0
  152.0248  141.9167  158.8297 N   0  0  0  0  0  0  0  0  0  0  0  0
  152.8307  142.3199  159.8971 C   0  0  0  0  0  0  0  0  0  0  0  0
  152.8247  143.6764  160.1077 C   0  0  0  0  0  0  0  0  0  0  0  0
  151.7979  144.5058  158.9686 S   0  0  0  0  0  0  0  0  0  0  0  0
  149.4054  142.0347  155.4037 N   0  0  0  0  0  0  0  0  0  0  0  0
  148.9213  141.0838  154.4072 C   0  0  2  0  0  0  0  0  0  0  0  0
  147.6654  141.6304  153.6984 C   0  0  0  0  0  0  0  0  0  0  0  0
  147.1007  140.6171  152.6870 C   0  0  0  0  0  0  0  0  0  0  0  0
  146.8292  139.2414  153.3250 C   0  0  2  0  0  0  0  0  0  0  0  0
  145.7258  139.3229  154.2059 O   0  0  0  0  0  0  0  0  0  0  0  0
  148.0650  138.7109  154.0760 C   0  0  0  0  0  0  0  0  0  0  0  0
  148.6189  139.7342  155.0831 C   0  0  0  0  0  0  0  0  0  0  0  0
  150.0519  143.6869  156.8754 H   0  0  0  0  0  0  0  0  0  0  0  0
  153.3762  141.5725  160.4541 H   0  0  0  0  0  0  0  0  0  0  0  0
  153.3599  144.2351  160.8609 H   0  0  0  0  0  0  0  0  0  0  0  0
  149.0421  142.9747  155.3464 H   0  0  0  0  0  0  0  0  0  0  0  0
  149.7037  140.9209  153.6634 H   0  0  0  0  0  0  0  0  0  0  0  0
  146.9000  141.8724  154.4371 H   0  0  0  0  0  0  0  0  0  0  0  0
  147.8994  142.5630  153.1833 H   0  0  0  0  0  0  0  0  0  0  0  0
  146.1910  141.0098  152.2311 H   0  0  0  0  0  0  0  0  0  0  0  0
  147.8181  140.4951  151.8744 H   0  0  0  0  0  0  0  0  0  0  0  0
  146.5575  138.5331  152.5418 H   0  0  0  0  0  0  0  0  0  0  0  0
  145.0580  139.8566  153.8028 H   0  0  0  0  0  0  0  0  0  0  0  0
  147.8267  137.7757  154.5839 H   0  0  0  0  0  0  0  0  0  0  0  0
  148.8450  138.4724  153.3518 H   0  0  0  0  0  0  0  0  0  0  0  0
  149.5234  139.3374  155.5457 H   0  0  0  0  0  0  0  0  0  0  0  0
  147.8986  139.8765  155.8901 H   0  0  0  0  0  0  0  0  0  0  0  0
  1  2  2  0  0  0  0
  2  3  1  0  0  0  0
  2  9  1  0  0  0  0
  3  4  1  0  0  0  0
  3 17  1  0  0  0  0
  4  8  1  0  0  0  0
  4  5  2  0  0  0  0
  5  6  1  0  0  0  0
  6  7  2  0  0  0  0
  6 18  1  0  0  0  0
  7  8  1  0  0  0  0
  7 19  1  0  0  0  0
  9 10  1  0  0  0  0
  9 20  1  0  0  0  0
 10 16  1  0  0  0  0
 10 11  1  0  0  0  0
 10 21  1  0  0  0  0
 11 12  1  0  0  0  0
 11 22  1  0  0  0  0
 11 23  1  0  0  0  0
 12 13  1  0  0  0  0
 12 24  1  0  0  0  0
 12 25  1  0  0  0  0
 13 14  1  0  0  0  0
 13 15  1  0  0  0  0
 13 26  1  0  0  0  0
 14 27  1  0  0  0  0
 15 16  1  0  0  0  0
 15 28  1  0  0  0  0
 15 29  1  0  0  0  0
 16 30  1  0  0  0  0
 16 31  1  0  0  0  0
M  END
> <s_m_source_file>
AV-unprocessed.smi

> <i_m_source_file_index>
1814

> <i_lp_mmshare_version>
43012

> <i_f3d_flags>
0

> <s_epik_input>
czFbY0hdW2NIXW5jMVtOSF1DKD1PKVtOSF1bQ0BASF0yW0NIMl1bQ0gyXVtDQEBIXShbT0hdKVtDSDJdW0NIMl0y

> <s_epik_cmdline>
J2VwaWtfcHl0aG9uJywgJy1waCcsICc3LjAnLCAnLXRuJywgJzgnLCAnLW1hJywgJzIwMCcsICctbWV0YWxfYmluZGluZycsICctaW1hZScsICc8aW5maWxlLm1hZT4nLCAnLW9tYWUnLCAnPG91dGZpbGUubWFlPic=

> <r_lp_tautomer_probability>
0.999

> <r_epik_Ionization_Penalty>
0.000428518

> <r_epik_Ionization_Penalty_Charging>
0

> <r_epik_Ionization_Penalty_Neutral>
0.000428518

> <r_epik_State_Penalty>
0.000177984

> <r_epik_Charging_Adjusted_Penalty>
0.000177984

> <i_epik_Tot_Q>
0

> <i_epik_Tot_abs_Q>
0

> <r_epik_Metal_State_Penalty>
-0

> <b_epik_Metal_Only>
0

> <s_lp_Force_Field>
OPLS_2005

> <r_lp_Energy>
9.0844

> <b_lp_Chiralities_Consistent>
1

> <s_lp_Variant>
AV-unprocessed.smi:1814-2

> <Gold.Version>
5.8.1

> <Gold.Id.Protein>
6NUR|6NUR_protein|mol2

> <Gold.PLP.Fitness>
40.9934

> <Gold.PLP.PLP>
-32.4433

> <Gold.PLP.part.hbond>
-3.0000

> <Gold.PLP.part.metal>
0.0000

> <Gold.PLP.part.buried>
-4.5257

> <Gold.PLP.part.nonpolar>
-25.6752

> <Gold.PLP.part.repulsive>
0.2095

> <Gold.PLP.ligand.clash>
0.0000

> <Gold.PLP.ligand.torsion>
0.2264

> <Gold.PLP.Chemscore.Hbond>
3.0000

> <Gold.PLP.Chemscore.CHOScore>
0.0000

> <Gold.PLP.Chemscore.Metal>
0.0000

> <Gold.Chemscore.Hbonds>
donor molecule, donor type, donor heavy atom, donor atom, acceptor molecule, acceptor atom, score
      L1  H     3    17       P1  8028  1.00
      L1  H     9    20       P1  8028  1.00
      L1  H    14    27       P1 10175  1.00

> <Gold.PLP.Chemscore.Internal.Correction>
0.0028

> <Gold.Rescore>
     Score         DG    S(hbond)    S(metal)    S(lipo)     H(rot)  DE(clash)    DE(int)     intcor
     17.40     -20.33       2.95        0.00      75.65       1.50       0.09       2.83       ----

> <Gold.Chemscore.Fitness>
17.4046

> <Gold.Chemscore.DG>
-20.3282

> <Gold.Chemscore.ZeroCoef>
-5.4800

> <Gold.Chemscore.Hbond>
2.9458

> <Gold.Chemscore.Metal>
0.0000

> <Gold.Chemscore.Lipo>
75.6466

> <Gold.Chemscore.Internal_Hbond>
0.0000

> <Gold.Chemscore.DEClash>
0.0893

> <Gold.Chemscore.DEInternal>
2.8343

> <Gold.Chemscore.Rot>
1.5006

> <Gold.Chemscore.Internal.Correction>
   9.000000E+99

> <Gold.Chemscore.Hbonds>
donor molecule, donor type, donor heavy atom, donor atom, acceptor molecule, acceptor atom, score
      L1  H     3    17       P1  8028  0.95
      L1  H     9    20       P1  8028  1.00
      L1  H    14    27       P1 10175  0.95

> <Gold.Chemscore.Hbond.Weighted>
-9.8391

> <Gold.Chemscore.Metal.Weighted>
-0.0000

> <Gold.Chemscore.Lipo.Weighted>
-8.8507

> <Gold.Chemscore.Internal_Hbond.Weighted>
0.0000

> <Gold.Chemscore.DEClash.Weighted>
0.0893

> <Gold.Chemscore.DEInternal.Weighted>
2.8343

> <Gold.Chemscore.Rot.Weighted>
3.8415

> <Gold.Chemscore.Internal.Correction.Weighted>
   9.000000E+99

> <Gold.Protein.RotatedTorsions>
[ 6907 6896 6895 6894 ] final  -75.15 input  -60.11 | X-H torsion
[ 7974 7965 7964 7962 ] final  109.72 input  175.53 | X-H torsion
[ 8008 7997 7996 7995 ] final   75.56 input   59.86 | X-H torsion
[ 10167 10162 10161 10158 ] final   22.62 input  -65.29 | X-H torsion
[ 10718 10713 10712 10709 ] final  122.81 input   66.30 | X-H torsion
[ 10763 10752 10751 10750 ] final   17.23 input  -60.55 | X-H torsion
[ 11005 11000 10999 10996 ] final -179.12 input  -57.11 | X-H torsion

> <Gold.Protein.ActiveResidues>
 VAL166  LYS551  ARG553  GLY616  TRP617  ASP618  TYR619  PRO620  LYS621  CYS622 
 ASP623  PHE694  ASN695  SER759  ASP760  ASP761  ALA762  ILE779  LEU786  VAL792 
 PHE793  MET794  SER795  GLU796  ALA797  LYS798  CYS799  TRP800  GLU811  SER814 

> <Gold.Protein.RotatedAtoms>
  150.7068  134.4763  159.5449 H   0  0  0  0  0  0  0  0  0  0  0  0  # atno 6907 bound_to 6896
  152.2409  134.8226  160.0469 H   0  0  0  0  0  0  0  0  0  0  0  0  # atno 6908 bound_to 6896
  151.9008  133.3502  159.3867 H   0  0  0  0  0  0  0  0  0  0  0  0  # atno 6909 bound_to 6896
  145.2641  139.2691  143.4001 H   0  0  0  0  0  0  0  0  0  0  0  0  # atno 7974 bound_to 7965
  155.8146  140.3472  155.5478 H   0  0  0  0  0  0  0  0  0  0  0  0  # atno 8008 bound_to 7997
  155.8405  140.0941  157.1757 H   0  0  0  0  0  0  0  0  0  0  0  0  # atno 8009 bound_to 7997
  154.4005  140.1395  156.3710 H   0  0  0  0  0  0  0  0  0  0  0  0  # atno 8010 bound_to 7997
  140.5334  143.9803  150.6478 H   0  0  0  0  0  0  0  0  0  0  0  0  # atno 10167 bound_to 10162
  157.5713  131.1083  150.8361 H   0  0  0  0  0  0  0  0  0  0  0  0  # atno 10718 bound_to 10713
  153.1358  135.6750  153.9105 H   0  0  0  0  0  0  0  0  0  0  0  0  # atno 10763 bound_to 10752
  153.8578  135.3085  155.3437 H   0  0  0  0  0  0  0  0  0  0  0  0  # atno 10764 bound_to 10752
  154.7746  135.4921  153.9801 H   0  0  0  0  0  0  0  0  0  0  0  0  # atno 10765 bound_to 10752
  140.4222  134.6595  157.4669 H   0  0  0  0  0  0  0  0  0  0  0  0  # atno 11005 bound_to 11000
  146.3266  140.3066  142.8624 LP  0  0  0  0  0  0  0  0  0  0  0  0  # atno 17320 bound_to 7965
  144.9392  140.8060  143.5641 LP  0  0  0  0  0  0  0  0  0  0  0  0  # atno 17321 bound_to 7965
  140.3184  143.3153  152.0809 LP  0  0  0  0  0  0  0  0  0  0  0  0  # atno 17342 bound_to 10162
  139.4962  144.6590  151.6507 LP  0  0  0  0  0  0  0  0  0  0  0  0  # atno 17343 bound_to 10162
  156.8832  130.5186  149.5290 LP  0  0  0  0  0  0  0  0  0  0  0  0  # atno 17370 bound_to 10713
  156.0759  130.5781  150.9472 LP  0  0  0  0  0  0  0  0  0  0  0  0  # atno 17371 bound_to 10713
  140.0192  134.6572  155.9264 LP  0  0  0  0  0  0  0  0  0  0  0  0  # atno 17394 bound_to 11000
  141.1779  133.6542  156.4903 LP  0  0  0  0  0  0  0  0  0  0  0  0  # atno 17395 bound_to 11000

$$$$
