AV-unprocessed.smi:2358|AV-procd|sdf|9403|dock4
  -GOLD-   2272013 33D 1   1.00000     0.00000
 Structure written by MMmdl.
 45 47  0  0  0  0  0  0  0  0  1 V2000
  151.1470  145.4017  158.7285 C   0  0  0  0  0  0  0  0  0  0  0  0
  151.6323  144.0485  159.2062 C   0  0  0  0  0  0  0  0  0  0  0  0
  151.9899  143.8559  160.5556 C   0  0  0  0  0  0  0  0  0  0  0  0
  152.4380  142.5948  160.9941 C   0  0  0  0  0  0  0  0  0  0  0  0
  152.8211  142.3950  162.4459 C   0  0  0  0  0  0  0  0  0  0  0  0
  152.5278  141.5270  160.0777 C   0  0  0  0  0  0  0  0  0  0  0  0
  152.1756  141.7030  158.7239 C   0  0  0  0  0  0  0  0  0  0  0  0
  152.2964  140.6047  157.8992 O   0  0  0  0  0  0  0  0  0  0  0  0
  152.1915  139.3112  158.4794 C   0  0  0  0  0  0  0  0  0  0  0  0
  152.8267  138.2833  157.5281 C   0  0  2  0  0  0  0  0  0  0  0  0
  154.2097  138.2358  157.8220 O   0  0  0  0  0  0  0  0  0  0  0  0
  152.6709  138.7003  156.0485 C   0  0  0  0  0  0  0  0  0  0  0  0
  151.4029  138.2356  155.4736 N   0  0  0  0  0  0  0  0  0  0  0  0
  150.6165  139.2489  154.9565 N   0  0  0  0  0  0  0  0  0  0  0  0
  149.4759  138.9924  154.4046 C   0  0  0  0  0  0  0  0  0  0  0  0
  148.6678  140.0673  153.8576 N   0  0  0  0  0  0  0  0  0  0  0  0
  148.9017  141.4108  154.1540 C   0  0  0  0  0  0  0  0  0  0  0  0
  147.9424  142.1209  153.4659 C   0  0  0  0  0  0  0  0  0  0  0  0
  147.1202  141.2493  152.7540 N   0  0  0  0  0  0  0  0  0  0  0  0
  147.6088  140.0490  153.0361 C   0  0  0  0  0  0  0  0  0  0  0  0
  149.0000  137.6149  154.3369 C   0  0  0  0  0  0  0  0  0  0  0  0
  149.7756  136.6334  154.8462 C   0  0  0  0  0  0  0  0  0  0  0  0
  151.0725  136.9109  155.4605 C   0  0  0  0  0  0  0  0  0  0  0  0
  151.8017  136.0335  155.9220 O   0  0  0  0  0  0  0  0  0  0  0  0
  151.7237  142.9766  158.2950 C   0  0  0  0  0  0  0  0  0  0  0  0
  151.2771  146.1651  159.4963 H   0  0  0  0  0  0  0  0  0  0  0  0
  150.0888  145.3527  158.4708 H   0  0  0  0  0  0  0  0  0  0  0  0
  151.7024  145.7133  157.8433 H   0  0  0  0  0  0  0  0  0  0  0  0
  151.9204  144.6747  161.2574 H   0  0  0  0  0  0  0  0  0  0  0  0
  153.0841  141.3567  162.6505 H   0  0  0  0  0  0  0  0  0  0  0  0
  151.9909  142.6697  163.0972 H   0  0  0  0  0  0  0  0  0  0  0  0
  153.6779  143.0198  162.6993 H   0  0  0  0  0  0  0  0  0  0  0  0
  152.8720  140.5591  160.4120 H   0  0  0  0  0  0  0  0  0  0  0  0
  152.7408  139.3179  159.4221 H   0  0  0  0  0  0  0  0  0  0  0  0
  151.1544  139.0501  158.6991 H   0  0  0  0  0  0  0  0  0  0  0  0
  152.3761  137.3046  157.6984 H   0  0  0  0  0  0  0  0  0  0  0  0
  154.6260  137.6418  157.2166 H   0  0  0  0  0  0  0  0  0  0  0  0
  152.7095  139.7876  155.9622 H   0  0  0  0  0  0  0  0  0  0  0  0
  153.5195  138.3455  155.4599 H   0  0  0  0  0  0  0  0  0  0  0  0
  149.6819  141.7800  154.7996 H   0  0  0  0  0  0  0  0  0  0  0  0
  147.7800  143.1881  153.4313 H   0  0  0  0  0  0  0  0  0  0  0  0
  147.1863  139.1390  152.6353 H   0  0  0  0  0  0  0  0  0  0  0  0
  148.0512  137.3495  153.9022 H   0  0  0  0  0  0  0  0  0  0  0  0
  149.4279  135.6117  154.8011 H   0  0  0  0  0  0  0  0  0  0  0  0
  151.4397  143.1555  157.2690 H   0  0  0  0  0  0  0  0  0  0  0  0
  1  2  1  0  0  0  0
  1 26  1  0  0  0  0
  1 27  1  0  0  0  0
  1 28  1  0  0  0  0
  2 25  1  0  0  0  0
  2  3  2  0  0  0  0
  3  4  1  0  0  0  0
  3 29  1  0  0  0  0
  4  5  1  0  0  0  0
  4  6  2  0  0  0  0
  5 30  1  0  0  0  0
  5 31  1  0  0  0  0
  5 32  1  0  0  0  0
  6  7  1  0  0  0  0
  6 33  1  0  0  0  0
  7  8  1  0  0  0  0
  7 25  2  0  0  0  0
  8  9  1  0  0  0  0
  9 10  1  0  0  0  0
  9 34  1  0  0  0  0
  9 35  1  0  0  0  0
 10 11  1  0  0  0  0
 10 12  1  0  0  0  0
 10 36  1  0  0  0  0
 11 37  1  0  0  0  0
 12 13  1  0  0  0  0
 12 38  1  0  0  0  0
 12 39  1  0  0  0  0
 13 23  1  0  0  0  0
 13 14  1  0  0  0  0
 14 15  2  0  0  0  0
 15 16  1  0  0  0  0
 15 21  1  0  0  0  0
 16 20  1  0  0  0  0
 16 17  1  0  0  0  0
 17 18  2  0  0  0  0
 17 40  1  0  0  0  0
 18 19  1  0  0  0  0
 18 41  1  0  0  0  0
 19 20  2  0  0  0  0
 20 42  1  0  0  0  0
 21 22  2  0  0  0  0
 21 43  1  0  0  0  0
 22 23  1  0  0  0  0
 22 44  1  0  0  0  0
 23 24  2  0  0  0  0
 25 45  1  0  0  0  0
M  END
> <s_m_source_file>
AV-unprocessed.smi

> <i_m_source_file_index>
2358

> <i_lp_mmshare_version>
43012

> <i_f3d_flags>
0

> <s_epik_input>
W0NIM11jMVtjSF1jKFtDSDNdKVtjSF1jKFtjSF0xKU9bQ0gyXVtDQEhdKFtPSF0pW0NIMl1uMm5jKFtjSF1bY0hdYzI9TyktbjNbY0hdW2NIXW5bY0hdMw==

> <s_epik_cmdline>
J2VwaWtfcHl0aG9uJywgJy1waCcsICc3LjAnLCAnLXRuJywgJzgnLCAnLW1hJywgJzIwMCcsICctbWV0YWxfYmluZGluZycsICctaW1hZScsICc8aW5maWxlLm1hZT4nLCAnLW9tYWUnLCAnPG91dGZpbGUubWFlPic=

> <r_lp_tautomer_probability>
1

> <r_epik_Ionization_Penalty>
0.03707

> <r_epik_Ionization_Penalty_Charging>
0.0370699

> <r_epik_Ionization_Penalty_Neutral>
1.17174e-07

> <r_epik_State_Penalty>
0.0310055

> <r_epik_Charging_Adjusted_Penalty>
0.0680754

> <i_epik_Tot_Q>
0

> <i_epik_Tot_abs_Q>
0

> <r_epik_Metal_State_Penalty>
0.0291724

> <b_epik_Metal_Only>
0

> <s_lp_Force_Field>
OPLS_2005

> <r_lp_Energy>
37.1438

> <b_lp_Chiralities_Consistent>
1

> <s_lp_Variant>
AV-unprocessed.smi:2358-1

> <Gold.Version>
5.8.1

> <Gold.Id.Protein>
6NUR|6NUR_protein|mol2

> <Gold.PLP.Fitness>
55.2419

> <Gold.PLP.PLP>
-49.9203

> <Gold.PLP.part.hbond>
-2.7393

> <Gold.PLP.part.metal>
0.0000

> <Gold.PLP.part.buried>
-3.1191

> <Gold.PLP.part.nonpolar>
-44.3469

> <Gold.PLP.part.repulsive>
0.2704

> <Gold.PLP.ligand.clash>
0.0000

> <Gold.PLP.ligand.torsion>
1.1870

> <Gold.PLP.Chemscore.Hbond>
1.7200

> <Gold.PLP.Chemscore.CHOScore>
0.8280

> <Gold.PLP.Chemscore.Metal>
0.0000

> <Gold.Chemscore.Hbonds>
donor molecule, donor type, donor heavy atom, donor atom, acceptor molecule, acceptor atom, score
      P1  H  7989  7998       L1    14  0.06
      P1  H  7997  8008       L1    11  0.88
      P1  H 10752 10765       L1    24  1.00
      L1  C    18    41       P1  8028  0.12

> <Gold.PLP.Chemscore.Internal.Correction>
0.0515

> <Gold.Rescore>
     Score         DG    S(hbond)    S(metal)    S(lipo)     H(rot)  DE(clash)    DE(int)     intcor
     15.37     -17.73       1.14        0.00     129.11       2.60       0.08       2.28       ----

> <Gold.Chemscore.Fitness>
15.3743

> <Gold.Chemscore.DG>
-17.7286

> <Gold.Chemscore.ZeroCoef>
-5.4800

> <Gold.Chemscore.Hbond>
1.1363

> <Gold.Chemscore.Metal>
0.0000

> <Gold.Chemscore.Lipo>
129.1087

> <Gold.Chemscore.Internal_Hbond>
0.0000

> <Gold.Chemscore.DEClash>
0.0759

> <Gold.Chemscore.DEInternal>
2.2784

> <Gold.Chemscore.Rot>
2.5986

> <Gold.Chemscore.Internal.Correction>
   9.000000E+99

> <Gold.Chemscore.Hbonds>
donor molecule, donor type, donor heavy atom, donor atom, acceptor molecule, acceptor atom, score
      P1  H  7989  7998       L1    14  0.05
      P1  H  7997  8008       L1    11  0.13
      P1  H 10752 10765       L1    24  0.97

> <Gold.Chemscore.Hbond.Weighted>
-3.7952

> <Gold.Chemscore.Metal.Weighted>
-0.0000

> <Gold.Chemscore.Lipo.Weighted>
-15.1057

> <Gold.Chemscore.Internal_Hbond.Weighted>
0.0000

> <Gold.Chemscore.DEClash.Weighted>
0.0759

> <Gold.Chemscore.DEInternal.Weighted>
2.2784

> <Gold.Chemscore.Rot.Weighted>
6.6524

> <Gold.Chemscore.Internal.Correction.Weighted>
   9.000000E+99

> <Gold.Protein.RotatedTorsions>
[ 6907 6896 6895 6894 ] final -106.34 input  -60.11 | X-H torsion
[ 7974 7965 7964 7962 ] final  108.54 input  175.53 | X-H torsion
[ 8008 7997 7996 7995 ] final -105.06 input   59.86 | X-H torsion
[ 10167 10162 10161 10158 ] final -105.62 input  -65.29 | X-H torsion
[ 10718 10713 10712 10709 ] final  120.94 input   66.30 | X-H torsion
[ 10763 10752 10751 10750 ] final -153.06 input  -60.55 | X-H torsion
[ 11005 11000 10999 10996 ] final   90.04 input  -57.11 | X-H torsion

> <Gold.Protein.ActiveResidues>
 VAL166  LYS551  ARG553  GLY616  TRP617  ASP618  TYR619  PRO620  LYS621  CYS622 
 ASP623  PHE694  ASN695  SER759  ASP760  ASP761  ALA762  ILE779  LEU786  VAL792 
 PHE793  MET794  SER795  GLU796  ALA797  LYS798  CYS799  TRP800  GLU811  SER814 

> <Gold.Protein.RotatedAtoms>
  150.7384  133.9991  159.3631 H   0  0  0  0  0  0  0  0  0  0  0  0  # atno 6907 bound_to 6896
  151.7944  135.0724  160.0401 H   0  0  0  0  0  0  0  0  0  0  0  0  # atno 6908 bound_to 6896
  152.3185  133.5792  159.5765 H   0  0  0  0  0  0  0  0  0  0  0  0  # atno 6909 bound_to 6896
  145.2793  139.2638  143.3924 H   0  0  0  0  0  0  0  0  0  0  0  0  # atno 7974 bound_to 7965
  154.8944  140.0415  157.1857 H   0  0  0  0  0  0  0  0  0  0  0  0  # atno 8008 bound_to 7997
  154.8508  140.2929  155.5578 H   0  0  0  0  0  0  0  0  0  0  0  0  # atno 8009 bound_to 7997
  156.2996  140.2465  156.3466 H   0  0  0  0  0  0  0  0  0  0  0  0  # atno 8010 bound_to 7997
  140.1966  143.3851  152.1164 H   0  0  0  0  0  0  0  0  0  0  0  0  # atno 10167 bound_to 10162
  157.5854  131.1070  150.8105 H   0  0  0  0  0  0  0  0  0  0  0  0  # atno 10718 bound_to 10713
  154.7953  135.3221  154.7682 H   0  0  0  0  0  0  0  0  0  0  0  0  # atno 10763 bound_to 10752
  153.8362  135.6875  153.4813 H   0  0  0  0  0  0  0  0  0  0  0  0  # atno 10764 bound_to 10752
  153.1641  135.4649  154.9755 H   0  0  0  0  0  0  0  0  0  0  0  0  # atno 10765 bound_to 10752
  139.8863  134.8589  156.3228 H   0  0  0  0  0  0  0  0  0  0  0  0  # atno 11005 bound_to 11000
  146.3221  140.3256  142.8636 LP  0  0  0  0  0  0  0  0  0  0  0  0  # atno 17320 bound_to 7965
  144.9267  140.7929  143.5715 LP  0  0  0  0  0  0  0  0  0  0  0  0  # atno 17321 bound_to 7965
  139.5234  144.7071  151.5321 LP  0  0  0  0  0  0  0  0  0  0  0  0  # atno 17342 bound_to 10162
  140.6419  143.8871  150.6700 LP  0  0  0  0  0  0  0  0  0  0  0  0  # atno 17343 bound_to 10162
  156.8540  130.5090  149.5309 LP  0  0  0  0  0  0  0  0  0  0  0  0  # atno 17370 bound_to 10713
  156.0903  130.5890  150.9721 LP  0  0  0  0  0  0  0  0  0  0  0  0  # atno 17371 bound_to 10713
  140.9775  133.7288  156.0624 LP  0  0  0  0  0  0  0  0  0  0  0  0  # atno 17394 bound_to 11000
  140.7792  134.3745  157.5491 LP  0  0  0  0  0  0  0  0  0  0  0  0  # atno 17395 bound_to 11000

$$$$
