AV-unprocessed.smi:763|AV-procd|sdf|3636|dock8
  -GOLD-   22720 1 33D 1   1.00000     0.00000
 Structure written by MMmdl.
 44 45  0  0  0  0  0  0  0  0  1 V2000
  144.9918  132.5139  149.1579 C   0  0  0  0  0  0  0  0  0  0  0  0
  145.0706  133.0864  150.4514 O   0  0  0  0  0  0  0  0  0  0  0  0
  146.3931  133.4605  150.7989 C   0  0  0  0  0  0  0  0  0  0  0  0
  146.4840  133.6218  152.3246 C   0  0  0  0  0  0  0  0  0  0  0  0
  147.7433  134.1650  152.7221 O   0  0  0  0  0  0  0  0  0  0  0  0
  148.6230  133.4014  153.4677 C   0  0  0  0  0  0  0  0  0  0  0  0
  148.6139  132.0539  153.3086 N   0  0  0  0  0  0  0  0  0  0  0  0
  149.4783  131.3142  154.0331 C   0  0  0  0  0  0  0  0  0  0  0  0
  150.3948  131.8725  154.9430 C   0  0  0  0  0  0  0  0  0  0  0  0
  150.4077  133.2697  155.1061 C   0  0  0  0  0  0  0  0  0  0  0  0
  149.5055  134.0573  154.3567 C   0  0  0  0  0  0  0  0  0  0  0  0
  149.4636  135.4527  154.4649 N   0  0  0  0  0  0  0  0  0  0  0  0
  150.4127  136.5139  155.4585 S   0  0  0  0  0  0  0  0  0  0  0  0
  149.4674  137.0307  156.4592 O   0  0  0  0  0  0  0  0  0  0  0  0
  151.5847  135.7300  155.8793 O   0  0  0  0  0  0  0  0  0  0  0  0
  150.9185  137.8523  154.2523 C   0  0  2  0  0  0  0  0  0  0  0  0
  152.2242  138.5372  154.7067 C   0  0  0  0  0  0  0  0  0  0  0  0
  152.0057  139.4358  155.9369 C   0  0  0  0  0  0  0  0  0  0  0  0
  150.9301  140.4990  155.6610 C   0  0  0  0  0  0  0  0  0  0  0  0
  149.6081  139.8598  155.2055 C   0  0  0  0  0  0  0  0  0  0  0  0
  149.8298  138.9251  153.9989 C   0  0  2  0  0  0  0  0  0  0  0  0
  148.6109  138.3377  153.5911 O   0  0  0  0  0  0  0  0  0  0  0  0
  143.9593  132.2407  148.9405 H   0  0  0  0  0  0  0  0  0  0  0  0
  145.6005  131.6116  149.0879 H   0  0  0  0  0  0  0  0  0  0  0  0
  145.3213  133.2191  148.3937 H   0  0  0  0  0  0  0  0  0  0  0  0
  147.1112  132.7268  150.4314 H   0  0  0  0  0  0  0  0  0  0  0  0
  146.6316  134.4128  150.3228 H   0  0  0  0  0  0  0  0  0  0  0  0
  145.6570  134.2236  152.7043 H   0  0  0  0  0  0  0  0  0  0  0  0
  146.3727  132.6459  152.7976 H   0  0  0  0  0  0  0  0  0  0  0  0
  149.4397  130.2457  153.8809 H   0  0  0  0  0  0  0  0  0  0  0  0
  151.0720  131.2442  155.5023 H   0  0  0  0  0  0  0  0  0  0  0  0
  151.1073  133.7144  155.7967 H   0  0  0  0  0  0  0  0  0  0  0  0
  148.8064  135.9065  153.8464 H   0  0  0  0  0  0  0  0  0  0  0  0
  151.1281  137.3487  153.3090 H   0  0  0  0  0  0  0  0  0  0  0  0
  152.9951  137.7953  154.9147 H   0  0  0  0  0  0  0  0  0  0  0  0
  152.6120  139.1454  153.8885 H   0  0  0  0  0  0  0  0  0  0  0  0
  151.7135  138.8314  156.7963 H   0  0  0  0  0  0  0  0  0  0  0  0
  152.9427  139.9221  156.2093 H   0  0  0  0  0  0  0  0  0  0  0  0
  150.7631  141.1010  156.5547 H   0  0  0  0  0  0  0  0  0  0  0  0
  151.2867  141.1839  154.8907 H   0  0  0  0  0  0  0  0  0  0  0  0
  149.1608  139.3241  156.0412 H   0  0  0  0  0  0  0  0  0  0  0  0
  148.8984  140.6441  154.9397 H   0  0  0  0  0  0  0  0  0  0  0  0
  150.1611  139.5421  153.1625 H   0  0  0  0  0  0  0  0  0  0  0  0
  148.8027  137.5805  153.0594 H   0  0  0  0  0  0  0  0  0  0  0  0
  1  2  1  0  0  0  0
  1 23  1  0  0  0  0
  1 24  1  0  0  0  0
  1 25  1  0  0  0  0
  2  3  1  0  0  0  0
  3  4  1  0  0  0  0
  3 26  1  0  0  0  0
  3 27  1  0  0  0  0
  4  5  1  0  0  0  0
  4 28  1  0  0  0  0
  4 29  1  0  0  0  0
  5  6  1  0  0  0  0
  6 11  1  0  0  0  0
  6  7  2  0  0  0  0
  7  8  1  0  0  0  0
  8  9  2  0  0  0  0
  8 30  1  0  0  0  0
  9 10  1  0  0  0  0
  9 31  1  0  0  0  0
 10 11  2  0  0  0  0
 10 32  1  0  0  0  0
 11 12  1  0  0  0  0
 12 13  1  0  0  0  0
 12 33  1  0  0  0  0
 13 14  2  0  0  0  0
 13 15  2  0  0  0  0
 13 16  1  0  0  0  0
 16 21  1  0  0  0  0
 16 17  1  0  0  0  0
 16 34  1  0  0  0  0
 17 18  1  0  0  0  0
 17 35  1  0  0  0  0
 17 36  1  0  0  0  0
 18 19  1  0  0  0  0
 18 37  1  0  0  0  0
 18 38  1  0  0  0  0
 19 20  1  0  0  0  0
 19 39  1  0  0  0  0
 19 40  1  0  0  0  0
 20 21  1  0  0  0  0
 20 41  1  0  0  0  0
 20 42  1  0  0  0  0
 21 22  1  0  0  0  0
 21 43  1  0  0  0  0
 22 44  1  0  0  0  0
M  END
> <s_m_source_file>
AV-unprocessed.smi

> <i_m_source_file_index>
763

> <i_lp_mmshare_version>
43012

> <i_f3d_flags>
0

> <s_epik_input>
W0NIM11PW0NIMl1bQ0gyXU9jMW5bY0hdW2NIXVtjSF1jMVtOSF1TKD1PKSg9TylbQ0BASF0yW0NIMl1bQ0gyXVtDSDJdW0NIMl1bQ0BIXTJbT0hd

> <s_epik_cmdline>
J2VwaWtfcHl0aG9uJywgJy1waCcsICc3LjAnLCAnLXRuJywgJzgnLCAnLW1hJywgJzIwMCcsICctbWV0YWxfYmluZGluZycsICctaW1hZScsICc8aW5maWxlLm1hZT4nLCAnLW9tYWUnLCAnPG91dGZpbGUubWFlPic=

> <r_epik_Ionization_Penalty>
0.124685

> <r_epik_Ionization_Penalty_Charging>
0

> <r_epik_Ionization_Penalty_Neutral>
0.124685

> <r_epik_State_Penalty>
0.114154

> <r_epik_Charging_Adjusted_Penalty>
0.114154

> <i_epik_Tot_Q>
0

> <i_epik_Tot_abs_Q>
0

> <r_epik_Metal_State_Penalty>
0.443785

> <b_epik_Metal_Only>
0

> <s_lp_Force_Field>
OPLS_2005

> <r_lp_Energy>
4.78457

> <b_lp_Chiralities_Consistent>
1

> <s_lp_Variant>
AV-unprocessed.smi:763-3

> <Gold.Version>
5.8.1

> <Gold.Id.Protein>
6NUR|6NUR_protein|mol2

> <Gold.PLP.Fitness>
43.4729

> <Gold.PLP.PLP>
-39.2537

> <Gold.PLP.part.hbond>
-3.5970

> <Gold.PLP.part.metal>
0.0000

> <Gold.PLP.part.buried>
-3.5030

> <Gold.PLP.part.nonpolar>
-34.7236

> <Gold.PLP.part.repulsive>
3.5572

> <Gold.PLP.ligand.clash>
0.0000

> <Gold.PLP.ligand.torsion>
2.2831

> <Gold.PLP.Chemscore.Hbond>
2.4841

> <Gold.PLP.Chemscore.CHOScore>
0.0000

> <Gold.PLP.Chemscore.Metal>
0.0000

> <Gold.Chemscore.Hbonds>
donor molecule, donor type, donor heavy atom, donor atom, acceptor molecule, acceptor atom, score
      L1  H    12    33       P1  7948  0.56
      L1  H    22    44       P1  7948  1.00
      P1  H 10752 10764       L1    15  1.00

> <Gold.PLP.Chemscore.Internal.Correction>
1.3331

> <Gold.Rescore>
     Score         DG    S(hbond)    S(metal)    S(lipo)     H(rot)  DE(clash)    DE(int)     intcor
     12.04     -17.65       2.45        0.00      86.75       2.41       1.53       4.08       ----

> <Gold.Chemscore.Fitness>
12.0390

> <Gold.Chemscore.DG>
-17.6509

> <Gold.Chemscore.ZeroCoef>
-5.4800

> <Gold.Chemscore.Hbond>
2.4487

> <Gold.Chemscore.Metal>
0.0000

> <Gold.Chemscore.Lipo>
86.7496

> <Gold.Chemscore.Internal_Hbond>
0.0000

> <Gold.Chemscore.DEClash>
1.5303

> <Gold.Chemscore.DEInternal>
4.0816

> <Gold.Chemscore.Rot>
2.4052

> <Gold.Chemscore.Internal.Correction>
   9.000000E+99

> <Gold.Chemscore.Hbonds>
donor molecule, donor type, donor heavy atom, donor atom, acceptor molecule, acceptor atom, score
      L1  H    12    33       P1  7948  0.53
      L1  H    22    44       P1  7948  1.00
      P1  H 10752 10764       L1    15  1.00

> <Gold.Chemscore.Hbond.Weighted>
-8.1787

> <Gold.Chemscore.Metal.Weighted>
-0.0000

> <Gold.Chemscore.Lipo.Weighted>
-10.1497

> <Gold.Chemscore.Internal_Hbond.Weighted>
0.0000

> <Gold.Chemscore.DEClash.Weighted>
1.5303

> <Gold.Chemscore.DEInternal.Weighted>
4.0816

> <Gold.Chemscore.Rot.Weighted>
6.1574

> <Gold.Chemscore.Internal.Correction.Weighted>
   9.000000E+99

> <Gold.Protein.RotatedTorsions>
[ 6907 6896 6895 6894 ] final -101.79 input  -60.11 | X-H torsion
[ 7974 7965 7964 7962 ] final  152.93 input  175.53 | X-H torsion
[ 8008 7997 7996 7995 ] final   58.51 input   59.86 | X-H torsion
[ 10167 10162 10161 10158 ] final  132.09 input  -65.29 | X-H torsion
[ 10718 10713 10712 10709 ] final -153.80 input   66.30 | X-H torsion
[ 10763 10752 10751 10750 ] final  -30.26 input  -60.55 | X-H torsion
[ 11005 11000 10999 10996 ] final -173.70 input  -57.11 | X-H torsion

> <Gold.Protein.ActiveResidues>
 VAL166  LYS551  ARG553  GLY616  TRP617  ASP618  TYR619  PRO620  LYS621  CYS622 
 ASP623  PHE694  ASN695  SER759  ASP760  ASP761  ALA762  ILE779  LEU786  VAL792 
 PHE793  MET794  SER795  GLU796  ALA797  LYS798  CYS799  TRP800  GLU811  SER814 

> <Gold.Protein.RotatedAtoms>
  150.7169  134.0681  159.3854 H   0  0  0  0  0  0  0  0  0  0  0  0  # atno 6907 bound_to 6896
  151.8662  135.0504  160.0484 H   0  0  0  0  0  0  0  0  0  0  0  0  # atno 6908 bound_to 6896
  152.2678  133.5320  159.5457 H   0  0  0  0  0  0  0  0  0  0  0  0  # atno 6909 bound_to 6896
  144.8189  139.6733  143.6109 H   0  0  0  0  0  0  0  0  0  0  0  0  # atno 7974 bound_to 7965
  155.5512  140.3486  155.4469 H   0  0  0  0  0  0  0  0  0  0  0  0  # atno 8008 bound_to 7997
  156.0582  140.1334  156.9998 H   0  0  0  0  0  0  0  0  0  0  0  0  # atno 8009 bound_to 7997
  154.4466  140.0991  156.6462 H   0  0  0  0  0  0  0  0  0  0  0  0  # atno 8010 bound_to 7997
  139.5355  144.6677  151.4802 H   0  0  0  0  0  0  0  0  0  0  0  0  # atno 10167 bound_to 10162
  156.4907  130.8346  151.2569 H   0  0  0  0  0  0  0  0  0  0  0  0  # atno 10718 bound_to 10713
  153.7780  135.6907  153.4893 H   0  0  0  0  0  0  0  0  0  0  0  0  # atno 10763 bound_to 10752
  153.1830  135.4499  155.0051 H   0  0  0  0  0  0  0  0  0  0  0  0  # atno 10764 bound_to 10752
  154.8092  135.3370  154.7285 H   0  0  0  0  0  0  0  0  0  0  0  0  # atno 10765 bound_to 10752
  140.4827  134.6059  157.4925 H   0  0  0  0  0  0  0  0  0  0  0  0  # atno 11005 bound_to 11000
  146.2493  139.6166  142.9438 LP  0  0  0  0  0  0  0  0  0  0  0  0  # atno 17320 bound_to 7965
  145.5151  141.0434  143.2466 LP  0  0  0  0  0  0  0  0  0  0  0  0  # atno 17321 bound_to 7965
  140.6558  143.8602  150.6834 LP  0  0  0  0  0  0  0  0  0  0  0  0  # atno 17342 bound_to 10162
  140.1981  143.3982  152.1813 LP  0  0  0  0  0  0  0  0  0  0  0  0  # atno 17343 bound_to 10162
  157.7474  131.0014  150.2963 LP  0  0  0  0  0  0  0  0  0  0  0  0  # atno 17370 bound_to 10713
  156.3429  130.3818  149.7393 LP  0  0  0  0  0  0  0  0  0  0  0  0  # atno 17371 bound_to 10713
  139.9816  134.7127  155.9848 LP  0  0  0  0  0  0  0  0  0  0  0  0  # atno 17394 bound_to 11000
  141.1523  133.6547  156.4052 LP  0  0  0  0  0  0  0  0  0  0  0  0  # atno 17395 bound_to 11000

$$$$
