AV-unprocessed.smi:37|AV-procd|sdf|316|dock3
  -GOLD-   2262016133D 1   1.00000     0.00000
 Structure written by MMmdl.
 44 45  0  0  0  0  0  0  0  0  1 V2000
  146.9580  133.4745  161.7789 C   0  0  0  0  0  0  0  0  0  0  0  0
  147.4779  134.7815  162.3940 C   0  0  0  0  0  0  0  0  0  0  0  0
  147.4098  135.9780  161.4433 C   0  0  0  0  0  0  0  0  0  0  0  0
  147.4138  137.1429  161.8451 O   0  0  0  0  0  0  0  0  0  0  0  0
  147.3524  135.5947  160.1603 O   0  0  0  0  0  0  0  0  0  0  0  0
  147.3136  136.5731  159.1334 C   0  0  0  0  0  0  0  0  0  0  0  0
  148.6530  137.3184  159.0438 C   0  0  1  0  0  0  0  0  0  0  0  0
  149.7416  136.4100  158.8780 O   0  0  0  0  0  0  0  0  0  0  0  0
  150.4486  136.6980  157.7070 C   0  0  1  0  0  0  0  0  0  0  0  0
  149.9433  135.7660  156.6117 N   0  0  0  0  0  0  0  0  0  0  0  0
  148.6584  135.8075  156.0734 C   0  0  0  0  0  0  0  0  0  0  0  0
  148.2258  134.9454  155.1228 C   0  0  0  0  0  0  0  0  0  0  0  0
  146.9704  135.0502  154.6555 F   0  0  0  0  0  0  0  0  0  0  0  0
  149.1031  133.9009  154.6060 C   0  0  0  0  0  0  0  0  0  0  0  0
  148.7990  133.0723  153.7506 O   0  0  0  0  0  0  0  0  0  0  0  0
  150.3782  133.8893  155.1745 N   0  0  0  0  0  0  0  0  0  0  0  0
  150.8377  134.7711  156.1533 C   0  0  0  0  0  0  0  0  0  0  0  0
  151.9855  134.6616  156.5825 O   0  0  0  0  0  0  0  0  0  0  0  0
  150.2040  138.1899  157.4560 C   0  0  2  0  0  0  0  0  0  0  0  0
  151.4252  139.2288  158.6460 Br  0  0  0  0  0  0  0  0  0  0  0  0
  148.7551  138.3479  157.9111 C   0  0  2  0  0  0  0  0  0  0  0  0
  148.4525  139.6637  158.3564 O   0  0  0  0  0  0  0  0  0  0  0  0
  148.6099  140.7097  157.5268 C   0  0  0  0  0  0  0  0  0  0  0  0
  148.6406  140.6512  156.2962 O   0  0  0  0  0  0  0  0  0  0  0  0
  148.7643  142.0263  158.2909 C   0  0  0  0  0  0  0  0  0  0  0  0
  150.1531  142.6649  158.1406 C   0  0  0  0  0  0  0  0  0  0  0  0
  151.0215  133.1816  154.8510 H   0  0  0  0  0  0  0  0  0  0  0  0
  147.0357  132.6569  162.4957 H   0  0  0  0  0  0  0  0  0  0  0  0
  147.5334  133.1945  160.8959 H   0  0  0  0  0  0  0  0  0  0  0  0
  145.9103  133.5593  161.4885 H   0  0  0  0  0  0  0  0  0  0  0  0
  146.8979  135.0199  163.2853 H   0  0  0  0  0  0  0  0  0  0  0  0
  148.5118  134.6505  162.7142 H   0  0  0  0  0  0  0  0  0  0  0  0
  147.0998  136.0891  158.1793 H   0  0  0  0  0  0  0  0  0  0  0  0
  146.5059  137.2799  159.3285 H   0  0  0  0  0  0  0  0  0  0  0  0
  148.8315  137.8191  159.9964 H   0  0  0  0  0  0  0  0  0  0  0  0
  151.5101  136.4598  157.7993 H   0  0  0  0  0  0  0  0  0  0  0  0
  147.9409  136.5431  156.3960 H   0  0  0  0  0  0  0  0  0  0  0  0
  150.4137  138.4968  156.4320 H   0  0  0  0  0  0  0  0  0  0  0  0
  148.0765  138.0558  157.1102 H   0  0  0  0  0  0  0  0  0  0  0  0
  148.0013  142.7216  157.9400 H   0  0  0  0  0  0  0  0  0  0  0  0
  148.5589  141.8386  159.3448 H   0  0  0  0  0  0  0  0  0  0  0  0
  150.2062  143.6014  158.6959 H   0  0  0  0  0  0  0  0  0  0  0  0
  150.3773  142.8883  157.0969 H   0  0  0  0  0  0  0  0  0  0  0  0
  150.9371  142.0104  158.5232 H   0  0  0  0  0  0  0  0  0  0  0  0
  1  2  1  0  0  0  0
  1 28  1  0  0  0  0
  1 29  1  0  0  0  0
  1 30  1  0  0  0  0
  2  3  1  0  0  0  0
  2 31  1  0  0  0  0
  2 32  1  0  0  0  0
  3  4  2  0  0  0  0
  3  5  1  0  0  0  0
  5  6  1  0  0  0  0
  6  7  1  0  0  0  0
  6 33  1  0  0  0  0
  6 34  1  0  0  0  0
  7 21  1  0  0  0  0
  7  8  1  0  0  0  0
  7 35  1  0  0  0  0
  8  9  1  0  0  0  0
  9 10  1  0  0  0  0
  9 19  1  0  0  0  0
  9 36  1  0  0  0  0
 10 17  1  0  0  0  0
 10 11  1  0  0  0  0
 11 12  2  0  0  0  0
 11 37  1  0  0  0  0
 12 13  1  0  0  0  0
 12 14  1  0  0  0  0
 14 15  2  0  0  0  0
 14 16  1  0  0  0  0
 16 27  1  0  0  0  0
 16 17  1  0  0  0  0
 17 18  2  0  0  0  0
 19 20  1  0  0  0  0
 19 21  1  0  0  0  0
 19 38  1  0  0  0  0
 21 22  1  0  0  0  0
 21 39  1  0  0  0  0
 22 23  1  0  0  0  0
 23 24  2  0  0  0  0
 23 25  1  0  0  0  0
 25 26  1  0  0  0  0
 25 40  1  0  0  0  0
 25 41  1  0  0  0  0
 26 42  1  0  0  0  0
 26 43  1  0  0  0  0
 26 44  1  0  0  0  0
M  END
> <s_m_source_file>
AV-unprocessed.smi

> <i_m_source_file_index>
37

> <i_lp_mmshare_version>
43012

> <i_f3d_flags>
0

> <s_epik_input>
W0NIM11bQ0gyXUMoPU8pT1tDSDJdW0NAQEhdMU9bQ0BASF0objJbY0hdYyhGKWMoPU8pW25IXWMyPU8pW0NAQEhdKEJyKVtDQEhdMU9DKD1PKVtDSDJdW0NIM10=

> <s_epik_cmdline>
J2VwaWtfcHl0aG9uJywgJy1waCcsICc3LjAnLCAnLXRuJywgJzgnLCAnLW1hJywgJzIwMCcsICctbWV0YWxfYmluZGluZycsICctaW1hZScsICc8aW5maWxlLm1hZT4nLCAnLW9tYWUnLCAnPG91dGZpbGUubWFlPic=

> <r_lp_tautomer_probability>
0.999537

> <r_epik_Ionization_Penalty>
0.104106

> <r_epik_Ionization_Penalty_Charging>
0.104106

> <r_epik_Ionization_Penalty_Neutral>
3.94675e-16

> <r_epik_State_Penalty>
0.0940182

> <r_epik_Charging_Adjusted_Penalty>
0.198124

> <i_epik_Tot_Q>
0

> <i_epik_Tot_abs_Q>
0

> <r_epik_Metal_State_Penalty>
3.05314

> <b_epik_Metal_Only>
0

> <s_epik_Chemistry_Notes>
This compound has an ester and may undergo hydrolysis at high or low pH. This compound contains an acetal/aminal-like group ( X-CH(R)-Y where X, Y are N, S, or O) that may be acid/base labile, releasing an aldehyde.

> <s_lp_Force_Field>
OPLS_2005

> <r_lp_Energy>
20.7256

> <b_lp_Chiralities_Consistent>
1

> <s_lp_Variant>
AV-unprocessed.smi:37-14

> <Gold.Version>
5.8.1

> <Gold.Id.Protein>
6NUR|6NUR_protein|mol2

> <Gold.PLP.Fitness>
41.6476

> <Gold.PLP.PLP>
-32.2828

> <Gold.PLP.part.hbond>
-5.3610

> <Gold.PLP.part.metal>
0.0000

> <Gold.PLP.part.buried>
-4.9190

> <Gold.PLP.part.nonpolar>
-21.3161

> <Gold.PLP.part.repulsive>
0.2807

> <Gold.PLP.ligand.clash>
0.0000

> <Gold.PLP.ligand.torsion>
0.8545

> <Gold.PLP.Chemscore.Hbond>
3.6317

> <Gold.PLP.Chemscore.CHOScore>
0.0000

> <Gold.PLP.Chemscore.Metal>
0.0000

> <Gold.Chemscore.Hbonds>
donor molecule, donor type, donor heavy atom, donor atom, acceptor molecule, acceptor atom, score
      P1  H  6896  6909       L1     8  0.93
      P1  H  6931  6943       L1     4  0.94
      P1  H  6934  6947       L1     4  0.65
      P1  H 10752 10764       L1    18  0.87

> <Gold.PLP.Chemscore.Internal.Correction>
0.1787

> <Gold.Rescore>
     Score         DG    S(hbond)    S(metal)    S(lipo)     H(rot)  DE(clash)    DE(int)     intcor
     10.32     -12.18       3.00        0.00      44.35       3.33       0.98       0.87       ----

> <Gold.Chemscore.Fitness>
10.3184

> <Gold.Chemscore.DG>
-12.1757

> <Gold.Chemscore.ZeroCoef>
-5.4800

> <Gold.Chemscore.Hbond>
3.0036

> <Gold.Chemscore.Metal>
0.0000

> <Gold.Chemscore.Lipo>
44.3525

> <Gold.Chemscore.Internal_Hbond>
0.0000

> <Gold.Chemscore.DEClash>
0.9842

> <Gold.Chemscore.DEInternal>
0.8730

> <Gold.Chemscore.Rot>
3.3303

> <Gold.Chemscore.Internal.Correction>
   9.000000E+99

> <Gold.Chemscore.Hbonds>
donor molecule, donor type, donor heavy atom, donor atom, acceptor molecule, acceptor atom, score
      P1  H  6896  6909       L1     8  0.35
      P1  H  6931  6943       L1     4  0.89
      P1  H  6934  6947       L1     4  0.64
      P1  H 10752 10764       L1    18  0.63

> <Gold.Chemscore.Hbond.Weighted>
-10.0320

> <Gold.Chemscore.Metal.Weighted>
-0.0000

> <Gold.Chemscore.Lipo.Weighted>
-5.1892

> <Gold.Chemscore.Internal_Hbond.Weighted>
0.0000

> <Gold.Chemscore.DEClash.Weighted>
0.9842

> <Gold.Chemscore.DEInternal.Weighted>
0.8730

> <Gold.Chemscore.Rot.Weighted>
8.5256

> <Gold.Chemscore.Internal.Correction.Weighted>
   9.000000E+99

> <Gold.Protein.RotatedTorsions>
[ 6907 6896 6895 6894 ] final   71.47 input  -60.11 | X-H torsion
[ 7974 7965 7964 7962 ] final   94.11 input  175.53 | X-H torsion
[ 8008 7997 7996 7995 ] final  130.15 input   59.86 | X-H torsion
[ 10167 10162 10161 10158 ] final   40.16 input  -65.29 | X-H torsion
[ 10718 10713 10712 10709 ] final   56.11 input   66.30 | X-H torsion
[ 10763 10752 10751 10750 ] final  -13.51 input  -60.55 | X-H torsion
[ 11005 11000 10999 10996 ] final  -16.23 input  -57.11 | X-H torsion

> <Gold.Protein.ActiveResidues>
 VAL166  LYS551  ARG553  GLY616  TRP617  ASP618  TYR619  PRO620  LYS621  CYS622 
 ASP623  PHE694  ASN695  SER759  ASP760  ASP761  ALA762  ILE779  LEU786  VAL792 
 PHE793  MET794  SER795  GLU796  ALA797  LYS798  CYS799  TRP800  GLU811  SER814 

> <Gold.Protein.RotatedAtoms>
  152.4812  134.4715  159.9636 H   0  0  0  0  0  0  0  0  0  0  0  0  # atno 6907 bound_to 6896
  151.4721  133.3560  159.2833 H   0  0  0  0  0  0  0  0  0  0  0  0  # atno 6908 bound_to 6896
  150.8885  134.8312  159.7337 H   0  0  0  0  0  0  0  0  0  0  0  0  # atno 6909 bound_to 6896
  145.4700  139.2282  143.2940 H   0  0  0  0  0  0  0  0  0  0  0  0  # atno 7974 bound_to 7965
  156.2949  140.2603  156.2715 H   0  0  0  0  0  0  0  0  0  0  0  0  # atno 8008 bound_to 7997
  154.9690  140.0391  157.2244 H   0  0  0  0  0  0  0  0  0  0  0  0  # atno 8009 bound_to 7997
  154.7876  140.2806  155.6020 H   0  0  0  0  0  0  0  0  0  0  0  0  # atno 8010 bound_to 7997
  140.3769  144.2032  150.6131 H   0  0  0  0  0  0  0  0  0  0  0  0  # atno 10167 bound_to 10162
  157.5403  130.8692  149.8812 H   0  0  0  0  0  0  0  0  0  0  0  0  # atno 10718 bound_to 10713
  153.5144  135.7016  153.5764 H   0  0  0  0  0  0  0  0  0  0  0  0  # atno 10763 bound_to 10752
  153.3840  135.3913  155.1877 H   0  0  0  0  0  0  0  0  0  0  0  0  # atno 10764 bound_to 10752
  154.8700  135.3842  154.4627 H   0  0  0  0  0  0  0  0  0  0  0  0  # atno 10765 bound_to 10752
  140.8047  133.8187  155.9504 H   0  0  0  0  0  0  0  0  0  0  0  0  # atno 11005 bound_to 11000
  146.2402  140.5477  142.8937 LP  0  0  0  0  0  0  0  0  0  0  0  0  # atno 17320 bound_to 7965
  144.7951  140.6107  143.6515 LP  0  0  0  0  0  0  0  0  0  0  0  0  # atno 17321 bound_to 7965
  140.4977  143.2327  151.8725 LP  0  0  0  0  0  0  0  0  0  0  0  0  # atno 17342 bound_to 10162
  139.4798  144.5094  151.8953 LP  0  0  0  0  0  0  0  0  0  0  0  0  # atno 17343 bound_to 10162
  156.0491  130.3721  150.1244 LP  0  0  0  0  0  0  0  0  0  0  0  0  # atno 17370 bound_to 10713
  156.9424  130.9749  151.3513 LP  0  0  0  0  0  0  0  0  0  0  0  0  # atno 17371 bound_to 10713
  140.9259  134.2083  157.4896 LP  0  0  0  0  0  0  0  0  0  0  0  0  # atno 17394 bound_to 11000
  139.8719  134.9812  156.5107 LP  0  0  0  0  0  0  0  0  0  0  0  0  # atno 17395 bound_to 11000

$$$$
