AV-unprocessed.smi:649|AV-procd|sdf|3178|dock6
  -GOLD-   22720 0103D 1   1.00000     0.00000
 Structure written by MMmdl.
 35 36  0  0  0  0  0  0  0  0  1 V2000
  151.9299  145.2958  159.1968 C   0  0  0  0  0  0  0  0  0  0  0  0
  152.1625  143.7992  159.2230 C   0  0  0  0  0  0  0  0  0  0  0  0
  152.8519  143.2024  160.2951 C   0  0  0  0  0  0  0  0  0  0  0  0
  153.0542  141.8106  160.3125 C   0  0  0  0  0  0  0  0  0  0  0  0
  152.5770  141.0008  159.2598 C   0  0  0  0  0  0  0  0  0  0  0  0
  152.8066  139.5010  159.3371 C   0  0  0  0  0  0  0  0  0  0  0  0
  151.8932  141.5972  158.1673 C   0  0  0  0  0  0  0  0  0  0  0  0
  151.3580  140.7624  157.0037 C   0  0  2  0  0  0  0  0  0  0  0  0
  152.3823  140.0142  156.3747 O   0  0  0  0  0  0  0  0  0  0  0  0
  150.6815  141.6611  155.9450 C   0  0  0  0  0  0  0  0  0  0  0  0
  149.5339  141.0500  155.3162 N   0  0  0  0  0  0  0  0  0  0  0  0
  148.2598  141.5868  155.4196 C   0  0  0  0  0  0  0  0  0  0  0  0
  147.1749  141.0475  154.8130 C   0  0  0  0  0  0  0  0  0  0  0  0
  145.6190  141.7772  154.9878 Cl  0  0  0  0  0  0  0  0  0  0  0  0
  147.3161  139.8410  153.9986 C   0  0  0  0  0  0  0  0  0  0  0  0
  146.4025  139.2714  153.4048 O   0  0  0  0  0  0  0  0  0  0  0  0
  148.6179  139.3371  153.9199 N   0  0  0  0  0  0  0  0  0  0  0  0
  149.7403  139.8862  154.5401 C   0  0  0  0  0  0  0  0  0  0  0  0
  150.8422  139.3581  154.3924 O   0  0  0  0  0  0  0  0  0  0  0  0
  151.6847  142.9964  158.1689 C   0  0  0  0  0  0  0  0  0  0  0  0
  148.7580  138.5067  153.3630 H   0  0  0  0  0  0  0  0  0  0  0  0
  152.3828  145.7851  160.0597 H   0  0  0  0  0  0  0  0  0  0  0  0
  150.8611  145.5108  159.2051 H   0  0  0  0  0  0  0  0  0  0  0  0
  152.3608  145.7302  158.2943 H   0  0  0  0  0  0  0  0  0  0  0  0
  153.2233  143.8066  161.1099 H   0  0  0  0  0  0  0  0  0  0  0  0
  153.5783  141.3654  161.1455 H   0  0  0  0  0  0  0  0  0  0  0  0
  151.8619  138.9647  159.2515 H   0  0  0  0  0  0  0  0  0  0  0  0
  153.2617  139.2166  160.2863 H   0  0  0  0  0  0  0  0  0  0  0  0
  153.4710  139.1719  158.5380 H   0  0  0  0  0  0  0  0  0  0  0  0
  150.6472  140.0300  157.3826 H   0  0  0  0  0  0  0  0  0  0  0  0
  152.3102  139.1150  156.6567 H   0  0  0  0  0  0  0  0  0  0  0  0
  150.3380  142.6069  156.3701 H   0  0  0  0  0  0  0  0  0  0  0  0
  151.3742  141.9289  155.1452 H   0  0  0  0  0  0  0  0  0  0  0  0
  148.1210  142.4825  156.0083 H   0  0  0  0  0  0  0  0  0  0  0  0
  151.1501  143.4647  157.3551 H   0  0  0  0  0  0  0  0  0  0  0  0
  1  2  1  0  0  0  0
  1 22  1  0  0  0  0
  1 23  1  0  0  0  0
  1 24  1  0  0  0  0
  2 20  1  0  0  0  0
  2  3  2  0  0  0  0
  3  4  1  0  0  0  0
  3 25  1  0  0  0  0
  4  5  2  0  0  0  0
  4 26  1  0  0  0  0
  5  6  1  0  0  0  0
  5  7  1  0  0  0  0
  6 27  1  0  0  0  0
  6 28  1  0  0  0  0
  6 29  1  0  0  0  0
  7  8  1  0  0  0  0
  7 20  2  0  0  0  0
  8  9  1  0  0  0  0
  8 10  1  0  0  0  0
  8 30  1  0  0  0  0
  9 31  1  0  0  0  0
 10 11  1  0  0  0  0
 10 32  1  0  0  0  0
 10 33  1  0  0  0  0
 11 18  1  0  0  0  0
 11 12  1  0  0  0  0
 12 13  2  0  0  0  0
 12 34  1  0  0  0  0
 13 14  1  0  0  0  0
 13 15  1  0  0  0  0
 15 16  2  0  0  0  0
 15 17  1  0  0  0  0
 17 21  1  0  0  0  0
 17 18  1  0  0  0  0
 18 19  2  0  0  0  0
 20 35  1  0  0  0  0
M  END
> <s_m_source_file>
AV-unprocessed.smi

> <i_m_source_file_index>
649

> <i_lp_mmshare_version>
43012

> <i_f3d_flags>
0

> <s_epik_input>
W0NIM11jMVtjSF1bY0hdYyhbQ0gzXSljKFtjSF0xKVtDQEhdKFtPSF0pW0NIMl1uMltjSF1jKENsKWMoPU8pW25IXWMyPU8=

> <s_epik_cmdline>
J2VwaWtfcHl0aG9uJywgJy1waCcsICc3LjAnLCAnLXRuJywgJzgnLCAnLW1hJywgJzIwMCcsICctbWV0YWxfYmluZGluZycsICctaW1hZScsICc8aW5maWxlLm1hZT4nLCAnLW9tYWUnLCAnPG91dGZpbGUubWFlPic=

> <r_lp_tautomer_probability>
0.999537

> <r_epik_Ionization_Penalty>
0.0292058

> <r_epik_Ionization_Penalty_Charging>
0.0292057

> <r_epik_Ionization_Penalty_Neutral>
4.85868e-08

> <r_epik_State_Penalty>
0.0240115

> <r_epik_Charging_Adjusted_Penalty>
0.0532172

> <i_epik_Tot_Q>
0

> <i_epik_Tot_abs_Q>
0

> <r_epik_Metal_State_Penalty>
2.21956

> <b_epik_Metal_Only>
0

> <s_lp_Force_Field>
OPLS_2005

> <r_lp_Energy>
13.7265

> <b_lp_Chiralities_Consistent>
1

> <s_lp_Variant>
AV-unprocessed.smi:649-1

> <Gold.Version>
5.8.1

> <Gold.Id.Protein>
6NUR|6NUR_protein|mol2

> <Gold.PLP.Fitness>
51.3106

> <Gold.PLP.PLP>
-44.5906

> <Gold.PLP.part.hbond>
-3.0000

> <Gold.PLP.part.metal>
0.0000

> <Gold.PLP.part.buried>
-4.1705

> <Gold.PLP.part.nonpolar>
-38.6335

> <Gold.PLP.part.repulsive>
0.5535

> <Gold.PLP.ligand.clash>
0.0000

> <Gold.PLP.ligand.torsion>
0.4697

> <Gold.PLP.Chemscore.Hbond>
1.5500

> <Gold.PLP.Chemscore.CHOScore>
1.0000

> <Gold.PLP.Chemscore.Metal>
0.0000

> <Gold.Chemscore.Hbonds>
donor molecule, donor type, donor heavy atom, donor atom, acceptor molecule, acceptor atom, score
      P1  H  7989  7998       L1    19  0.75
      P1  H  7997  8008       L1     9  0.95
      L1  C    12    34       P1  8028  1.00

> <Gold.PLP.Chemscore.Internal.Correction>
0.0094

> <Gold.Rescore>
     Score         DG    S(hbond)    S(metal)    S(lipo)     H(rot)  DE(clash)    DE(int)     intcor
     15.56     -18.61       1.89        0.00     104.93       2.14       0.06       3.00       ----

> <Gold.Chemscore.Fitness>
15.5553

> <Gold.Chemscore.DG>
-18.6099

> <Gold.Chemscore.ZeroCoef>
-5.4800

> <Gold.Chemscore.Hbond>
1.8919

> <Gold.Chemscore.Metal>
0.0000

> <Gold.Chemscore.Lipo>
104.9306

> <Gold.Chemscore.Internal_Hbond>
0.0000

> <Gold.Chemscore.DEClash>
0.0574

> <Gold.Chemscore.DEInternal>
2.9972

> <Gold.Chemscore.Rot>
2.1351

> <Gold.Chemscore.Internal.Correction>
   9.000000E+99

> <Gold.Chemscore.Hbonds>
donor molecule, donor type, donor heavy atom, donor atom, acceptor molecule, acceptor atom, score
      P1  H  7989  7998       L1    19  0.09
      P1  H  7997  8008       L1     9  0.21

> <Gold.Chemscore.Hbond.Weighted>
-6.3190

> <Gold.Chemscore.Metal.Weighted>
-0.0000

> <Gold.Chemscore.Lipo.Weighted>
-12.2769

> <Gold.Chemscore.Internal_Hbond.Weighted>
0.0000

> <Gold.Chemscore.DEClash.Weighted>
0.0574

> <Gold.Chemscore.DEInternal.Weighted>
2.9972

> <Gold.Chemscore.Rot.Weighted>
5.4660

> <Gold.Chemscore.Internal.Correction.Weighted>
   9.000000E+99

> <Gold.Protein.RotatedTorsions>
[ 6907 6896 6895 6894 ] final -153.96 input  -60.11 | X-H torsion
[ 7974 7965 7964 7962 ] final -157.09 input  175.53 | X-H torsion
[ 8008 7997 7996 7995 ] final  -41.02 input   59.86 | X-H torsion
[ 10167 10162 10161 10158 ] final  153.00 input  -65.29 | X-H torsion
[ 10718 10713 10712 10709 ] final  107.61 input   66.30 | X-H torsion
[ 10763 10752 10751 10750 ] final  -74.99 input  -60.55 | X-H torsion
[ 11005 11000 10999 10996 ] final   92.80 input  -57.11 | X-H torsion

> <Gold.Protein.ActiveResidues>
 VAL166  LYS551  ARG553  GLY616  TRP617  ASP618  TYR619  PRO620  LYS621  CYS622 
 ASP623  PHE694  ASN695  SER759  ASP760  ASP761  ALA762  ILE779  LEU786  VAL792 
 PHE793  MET794  SER795  GLU796  ALA797  LYS798  CYS799  TRP800  GLU811  SER814 

> <Gold.Protein.RotatedAtoms>
  151.2504  133.4353  159.2610 H   0  0  0  0  0  0  0  0  0  0  0  0  # atno 6907 bound_to 6896
  151.0623  134.9745  159.8277 H   0  0  0  0  0  0  0  0  0  0  0  0  # atno 6908 bound_to 6896
  152.5400  134.2453  159.8930 H   0  0  0  0  0  0  0  0  0  0  0  0  # atno 6909 bound_to 6896
  144.7564  140.4018  143.6009 H   0  0  0  0  0  0  0  0  0  0  0  0  # atno 7974 bound_to 7965
  154.4007  140.1510  156.3122 H   0  0  0  0  0  0  0  0  0  0  0  0  # atno 8008 bound_to 7997
  155.8605  140.3453  155.5732 H   0  0  0  0  0  0  0  0  0  0  0  0  # atno 8009 bound_to 7997
  155.7885  140.0853  157.2012 H   0  0  0  0  0  0  0  0  0  0  0  0  # atno 8010 bound_to 7997
  139.4829  144.5310  151.7723 H   0  0  0  0  0  0  0  0  0  0  0  0  # atno 10167 bound_to 10162
  157.6621  131.0876  150.6182 H   0  0  0  0  0  0  0  0  0  0  0  0  # atno 10718 bound_to 10713
  154.4805  135.5846  153.6386 H   0  0  0  0  0  0  0  0  0  0  0  0  # atno 10763 bound_to 10752
  152.9847  135.6088  154.3252 H   0  0  0  0  0  0  0  0  0  0  0  0  # atno 10764 bound_to 10752
  154.3143  135.2844  155.2530 H   0  0  0  0  0  0  0  0  0  0  0  0  # atno 10765 bound_to 10752
  139.8818  134.8753  156.3625 H   0  0  0  0  0  0  0  0  0  0  0  0  # atno 11005 bound_to 11000
  145.6766  139.1610  143.2724 LP  0  0  0  0  0  0  0  0  0  0  0  0  # atno 17320 bound_to 7965
  146.1578  140.6832  142.9292 LP  0  0  0  0  0  0  0  0  0  0  0  0  # atno 17321 bound_to 7965
  140.4836  144.1413  150.5937 LP  0  0  0  0  0  0  0  0  0  0  0  0  # atno 17342 bound_to 10162
  140.4250  143.2594  151.9668 LP  0  0  0  0  0  0  0  0  0  0  0  0  # atno 17343 bound_to 10162
  156.6484  130.4478  149.5728 LP  0  0  0  0  0  0  0  0  0  0  0  0  # atno 17370 bound_to 10713
  156.2156  130.6706  151.1315 LP  0  0  0  0  0  0  0  0  0  0  0  0  # atno 17371 bound_to 10713
  140.9520  133.7445  156.0284 LP  0  0  0  0  0  0  0  0  0  0  0  0  # atno 17394 bound_to 11000
  140.8094  134.3416  157.5416 LP  0  0  0  0  0  0  0  0  0  0  0  0  # atno 17395 bound_to 11000

$$$$
