AV-unprocessed.smi:2510|AV-procd|sdf|9881|dock9
  -GOLD-   2272013513D 1   1.00000     0.00000
 Structure written by MMmdl.
 48 49  0  0  0  0  0  0  0  0  1 V2000
  152.3728  146.0326  159.8268 C   0  0  0  0  0  0  0  0  0  0  0  0
  152.4742  144.9093  158.7814 C   0  0  0  0  0  0  0  0  0  0  0  0
  151.6165  143.6555  159.0823 C   0  0  0  0  0  0  0  0  0  0  0  0
  150.1174  144.0421  159.0357 C   0  0  0  0  0  0  0  0  0  0  0  0
  149.6210  144.8693  160.2316 C   0  0  0  0  0  0  0  0  0  0  0  0
  152.0748  142.3947  158.2869 C   0  0  2  0  0  0  0  0  0  0  0  0
  150.9973  141.4441  158.0132 N   0  0  0  0  0  0  0  0  0  0  0  0
  151.1571  140.2652  157.3934 C   0  0  0  0  0  0  0  0  0  0  0  0
  152.2533  139.8161  157.0598 O   0  0  0  0  0  0  0  0  0  0  0  0
  149.8797  139.4879  157.0752 C   0  0  0  0  0  0  0  0  0  0  0  0
  149.0294  140.2490  156.1083 C   0  0  0  0  0  0  0  0  0  0  0  0
  147.8258  140.8776  156.2661 C   0  0  0  0  0  0  0  0  0  0  0  0
  147.5552  141.4470  154.9876 C   0  0  0  0  0  0  0  0  0  0  0  0
  146.3683  142.2641  154.5708 C   0  0  0  0  0  0  0  0  0  0  0  0
  148.5086  141.1868  154.1057 N   0  0  0  0  0  0  0  0  0  0  0  0
  149.4001  140.4548  154.7985 N   0  0  0  0  0  0  0  0  0  0  0  0
  152.9317  141.9611  159.4904 C   0  0  2  0  0  0  0  0  0  0  0  0
  153.0903  140.4832  159.8391 C   0  0  0  0  0  0  0  0  0  0  0  0
  152.0272  142.8593  160.3460 C   0  0  1  0  0  0  0  0  0  0  0  0
  152.7032  143.6588  161.3055 O   0  0  0  0  0  0  0  0  0  0  0  0
  153.3337  142.8971  162.3199 C   0  0  0  0  0  0  0  0  0  0  0  0
  150.2509  140.1148  154.3732 H   0  0  0  0  0  0  0  0  0  0  0  0
  152.9062  146.9198  159.4855 H   0  0  0  0  0  0  0  0  0  0  0  0
  152.8139  145.7410  160.7793 H   0  0  0  0  0  0  0  0  0  0  0  0
  151.3382  146.3222  160.0093 H   0  0  0  0  0  0  0  0  0  0  0  0
  152.1782  145.3349  157.8225 H   0  0  0  0  0  0  0  0  0  0  0  0
  153.5215  144.6420  158.6447 H   0  0  0  0  0  0  0  0  0  0  0  0
  149.8754  144.5582  158.1070 H   0  0  0  0  0  0  0  0  0  0  0  0
  149.5036  143.1418  159.0194 H   0  0  0  0  0  0  0  0  0  0  0  0
  148.5378  144.9847  160.1909 H   0  0  0  0  0  0  0  0  0  0  0  0
  150.0490  145.8711  160.2409 H   0  0  0  0  0  0  0  0  0  0  0  0
  149.8652  144.3860  161.1776 H   0  0  0  0  0  0  0  0  0  0  0  0
  152.6892  142.6172  157.4131 H   0  0  0  0  0  0  0  0  0  0  0  0
  150.0600  141.7328  158.2526 H   0  0  0  0  0  0  0  0  0  0  0  0
  150.1358  138.5108  156.6634 H   0  0  0  0  0  0  0  0  0  0  0  0
  149.3304  139.3060  157.9995 H   0  0  0  0  0  0  0  0  0  0  0  0
  147.2307  140.9323  157.1656 H   0  0  0  0  0  0  0  0  0  0  0  0
  145.7914  142.5896  155.4365 H   0  0  0  0  0  0  0  0  0  0  0  0
  145.7041  141.6880  153.9262 H   0  0  0  0  0  0  0  0  0  0  0  0
  146.6748  143.1562  154.0240 H   0  0  0  0  0  0  0  0  0  0  0  0
  153.9137  142.4276  159.3952 H   0  0  0  0  0  0  0  0  0  0  0  0
  152.1395  140.0294  160.1193 H   0  0  0  0  0  0  0  0  0  0  0  0
  153.7757  140.3449  160.6748 H   0  0  0  0  0  0  0  0  0  0  0  0
  153.4894  139.9214  158.9946 H   0  0  0  0  0  0  0  0  0  0  0  0
  151.1821  142.3140  160.7725 H   0  0  0  0  0  0  0  0  0  0  0  0
  153.7942  143.5677  163.0452 H   0  0  0  0  0  0  0  0  0  0  0  0
  154.1175  142.2605  161.9102 H   0  0  0  0  0  0  0  0  0  0  0  0
  152.6140  142.2721  162.8500 H   0  0  0  0  0  0  0  0  0  0  0  0
  1  2  1  0  0  0  0
  1 23  1  0  0  0  0
  1 24  1  0  0  0  0
  1 25  1  0  0  0  0
  2  3  1  0  0  0  0
  2 26  1  0  0  0  0
  2 27  1  0  0  0  0
  3 19  1  0  0  0  0
  3  4  1  0  0  0  0
  3  6  1  0  0  0  0
  4  5  1  0  0  0  0
  4 28  1  0  0  0  0
  4 29  1  0  0  0  0
  5 30  1  0  0  0  0
  5 31  1  0  0  0  0
  5 32  1  0  0  0  0
  6  7  1  0  0  0  0
  6 17  1  0  0  0  0
  6 33  1  0  0  0  0
  7  8  1  0  0  0  0
  7 34  1  0  0  0  0
  8  9  2  0  0  0  0
  8 10  1  0  0  0  0
 10 35  1  0  0  0  0
 10 36  1  0  0  0  0
 10 11  1  0  0  0  0
 11 16  1  0  0  0  0
 11 12  2  0  0  0  0
 12 13  1  0  0  0  0
 12 37  1  0  0  0  0
 13 14  1  0  0  0  0
 13 15  2  0  0  0  0
 14 38  1  0  0  0  0
 14 39  1  0  0  0  0
 14 40  1  0  0  0  0
 15 16  1  0  0  0  0
 16 22  1  0  0  0  0
 17 18  1  0  0  0  0
 17 19  1  0  0  0  0
 17 41  1  0  0  0  0
 18 42  1  0  0  0  0
 18 43  1  0  0  0  0
 18 44  1  0  0  0  0
 19 20  1  0  0  0  0
 19 45  1  0  0  0  0
 20 21  1  0  0  0  0
 21 46  1  0  0  0  0
 21 47  1  0  0  0  0
 21 48  1  0  0  0  0
M  END
> <s_m_source_file>
AV-unprocessed.smi

> <i_m_source_file_index>
2510

> <i_lp_mmshare_version>
43012

> <i_f3d_flags>
0

> <s_epik_input>
W0NIM11PW0NAQEhdMVtDQEhdKFtDSDNdKVtDQEBIXShDMShbQ0gyXVtDSDNdKVtDSDJdW0NIM10pW05IXUMoPU8pW0NIMl1jMltjSF1jKFtDSDNdKVtuSF1uMg==

> <s_epik_cmdline>
J2VwaWtfcHl0aG9uJywgJy1waCcsICc3LjAnLCAnLXRuJywgJzgnLCAnLW1hJywgJzIwMCcsICctbWV0YWxfYmluZGluZycsICctaW1hZScsICc8aW5maWxlLm1hZT4nLCAnLW9tYWUnLCAnPG91dGZpbGUubWFlPic=

> <r_lp_tautomer_probability>
0.5

> <r_epik_Ionization_Penalty>
0.000134763

> <r_epik_Ionization_Penalty_Charging>
0

> <r_epik_Ionization_Penalty_Neutral>
0.000134763

> <r_epik_State_Penalty>
0.41068

> <r_epik_Charging_Adjusted_Penalty>
0.41068

> <i_epik_Tot_Q>
0

> <i_epik_Tot_abs_Q>
0

> <r_epik_Metal_State_Penalty>
0.410661

> <b_epik_Metal_Only>
0

> <s_lp_Force_Field>
OPLS_2005

> <r_lp_Energy>
24.0531

> <b_lp_Chiralities_Consistent>
1

> <s_lp_Variant>
AV-unprocessed.smi:2510-12

> <Gold.Version>
5.8.1

> <Gold.Id.Protein>
6NUR|6NUR_protein|mol2

> <Gold.PLP.Fitness>
47.2678

> <Gold.PLP.PLP>
-42.3767

> <Gold.PLP.part.hbond>
-2.6179

> <Gold.PLP.part.metal>
0.0000

> <Gold.PLP.part.buried>
-8.3064

> <Gold.PLP.part.nonpolar>
-32.4995

> <Gold.PLP.part.repulsive>
2.8948

> <Gold.PLP.ligand.clash>
0.0000

> <Gold.PLP.ligand.torsion>
0.5406

> <Gold.PLP.Chemscore.Hbond>
1.8000

> <Gold.PLP.Chemscore.CHOScore>
0.0000

> <Gold.PLP.Chemscore.Metal>
0.0000

> <Gold.Chemscore.Hbonds>
donor molecule, donor type, donor heavy atom, donor atom, acceptor molecule, acceptor atom, score
      P1  H  7997  8010       L1     9  0.63

> <Gold.PLP.Chemscore.Internal.Correction>
0.5723

> <Gold.Rescore>
     Score         DG    S(hbond)    S(metal)    S(lipo)     H(rot)  DE(clash)    DE(int)     intcor
     17.06     -21.15       1.66        0.00     126.00       1.81       1.98       2.11       ----

> <Gold.Chemscore.Fitness>
17.0589

> <Gold.Chemscore.DG>
-21.1480

> <Gold.Chemscore.ZeroCoef>
-5.4800

> <Gold.Chemscore.Hbond>
1.6648

> <Gold.Chemscore.Metal>
0.0000

> <Gold.Chemscore.Lipo>
125.9962

> <Gold.Chemscore.Internal_Hbond>
0.0000

> <Gold.Chemscore.DEClash>
1.9802

> <Gold.Chemscore.DEInternal>
2.1089

> <Gold.Chemscore.Rot>
1.8102

> <Gold.Chemscore.Internal.Correction>
   9.000000E+99

> <Gold.Chemscore.Hbonds>
donor molecule, donor type, donor heavy atom, donor atom, acceptor molecule, acceptor atom, score
      P1  H  7997  8010       L1     9  0.62

> <Gold.Chemscore.Hbond.Weighted>
-5.5605

> <Gold.Chemscore.Metal.Weighted>
-0.0000

> <Gold.Chemscore.Lipo.Weighted>
-14.7416

> <Gold.Chemscore.Internal_Hbond.Weighted>
0.0000

> <Gold.Chemscore.DEClash.Weighted>
1.9802

> <Gold.Chemscore.DEInternal.Weighted>
2.1089

> <Gold.Chemscore.Rot.Weighted>
4.6341

> <Gold.Chemscore.Internal.Correction.Weighted>
   9.000000E+99

> <Gold.Protein.RotatedTorsions>
[ 6907 6896 6895 6894 ] final  -35.21 input  -60.11 | X-H torsion
[ 7974 7965 7964 7962 ] final   17.97 input  175.53 | X-H torsion
[ 8008 7997 7996 7995 ] final   63.21 input   59.86 | X-H torsion
[ 10167 10162 10161 10158 ] final   27.78 input  -65.29 | X-H torsion
[ 10718 10713 10712 10709 ] final  -70.04 input   66.30 | X-H torsion
[ 10763 10752 10751 10750 ] final  148.72 input  -60.55 | X-H torsion
[ 11005 11000 10999 10996 ] final  153.92 input  -57.11 | X-H torsion

> <Gold.Protein.ActiveResidues>
 VAL166  LYS551  ARG553  GLY616  TRP617  ASP618  TYR619  PRO620  LYS621  CYS622 
 ASP623  PHE694  ASN695  SER759  ASP760  ASP761  ALA762  ILE779  LEU786  VAL792 
 PHE793  MET794  SER795  GLU796  ALA797  LYS798  CYS799  TRP800  GLU811  SER814 

> <Gold.Protein.RotatedAtoms>
  151.0427  134.9618  159.8170 H   0  0  0  0  0  0  0  0  0  0  0  0  # atno 6907 bound_to 6896
  152.5367  134.2637  159.8955 H   0  0  0  0  0  0  0  0  0  0  0  0  # atno 6908 bound_to 6896
  151.2650  133.4240  159.2652 H   0  0  0  0  0  0  0  0  0  0  0  0  # atno 6909 bound_to 6896
  146.2201  139.8525  142.8620 H   0  0  0  0  0  0  0  0  0  0  0  0  # atno 7974 bound_to 7965
  155.6266  140.3496  155.4669 H   0  0  0  0  0  0  0  0  0  0  0  0  # atno 8008 bound_to 7997
  156.0036  140.1218  157.0547 H   0  0  0  0  0  0  0  0  0  0  0  0  # atno 8009 bound_to 7997
  154.4257  140.1095  156.5718 H   0  0  0  0  0  0  0  0  0  0  0  0  # atno 8010 bound_to 7997
  140.4909  144.0468  150.6297 H   0  0  0  0  0  0  0  0  0  0  0  0  # atno 10167 bound_to 10162
  156.0426  130.4324  150.2237 H   0  0  0  0  0  0  0  0  0  0  0  0  # atno 10718 bound_to 10713
  154.0595  135.2875  155.3327 H   0  0  0  0  0  0  0  0  0  0  0  0  # atno 10763 bound_to 10752
  154.6818  135.5260  153.8276 H   0  0  0  0  0  0  0  0  0  0  0  0  # atno 10764 bound_to 10752
  153.0528  135.6583  154.0784 H   0  0  0  0  0  0  0  0  0  0  0  0  # atno 10765 bound_to 10752
  140.1442  134.8719  157.2370 H   0  0  0  0  0  0  0  0  0  0  0  0  # atno 11005 bound_to 11000
  145.2787  141.0132  143.3730 LP  0  0  0  0  0  0  0  0  0  0  0  0  # atno 17320 bound_to 7965
  144.9167  139.4462  143.6561 LP  0  0  0  0  0  0  0  0  0  0  0  0  # atno 17321 bound_to 7965
  140.3737  143.2840  152.0249 LP  0  0  0  0  0  0  0  0  0  0  0  0  # atno 17342 bound_to 10162
  139.4851  144.6210  151.7255 LP  0  0  0  0  0  0  0  0  0  0  0  0  # atno 17343 bound_to 10162
  157.0330  131.0013  151.3306 LP  0  0  0  0  0  0  0  0  0  0  0  0  # atno 17370 bound_to 10713
  157.5264  130.8030  149.7867 LP  0  0  0  0  0  0  0  0  0  0  0  0  # atno 17371 bound_to 10713
  140.2685  134.3488  155.7382 LP  0  0  0  0  0  0  0  0  0  0  0  0  # atno 17394 bound_to 11000
  141.2190  133.7409  156.9187 LP  0  0  0  0  0  0  0  0  0  0  0  0  # atno 17395 bound_to 11000

$$$$
