AV-unprocessed.smi:619|AV-procd|sdf|3086|dock1
  -GOLD-   22720 0 13D 1   1.00000     0.00000
 Structure written by MMmdl.
 37 38  0  0  0  0  0  0  0  0  1 V2000
  145.8248  143.2955  153.4792 C   0  0  0  0  0  0  0  0  0  0  0  0
  147.0539  142.9133  154.0872 O   0  0  0  0  0  0  0  0  0  0  0  0
  147.5140  141.6247  153.8925 C   0  0  0  0  0  0  0  0  0  0  0  0
  146.8486  140.8268  153.0198 N   0  0  0  0  0  0  0  0  0  0  0  0
  147.2929  139.5671  152.8326 C   0  0  0  0  0  0  0  0  0  0  0  0
  148.4097  139.0367  153.5038 C   0  0  0  0  0  0  0  0  0  0  0  0
  149.1018  139.8622  154.4092 C   0  0  0  0  0  0  0  0  0  0  0  0
  148.6570  141.1923  154.6048 C   0  0  0  0  0  0  0  0  0  0  0  0
  149.2696  142.1022  155.5103 N   0  0  0  0  0  0  0  0  0  0  0  0
  150.3347  141.9036  156.3051 C   0  0  0  0  0  0  0  0  0  0  0  0
  150.9980  140.8681  156.3582 O   0  0  0  0  0  0  0  0  0  0  0  0
  150.6025  142.9983  157.0317 N   0  0  0  0  0  0  0  0  0  0  0  0
  151.6902  143.1436  157.9956 C   0  0  0  0  0  0  0  0  0  0  0  0
  151.8331  141.8458  158.8133 C   0  0  0  0  0  0  0  0  0  0  0  0
  152.9108  141.9832  159.9007 C   0  0  0  0  0  0  0  0  0  0  0  0
  152.6243  143.1812  160.8192 C   0  0  0  0  0  0  0  0  0  0  0  0
  152.4884  144.4801  160.0092 C   0  0  0  0  0  0  0  0  0  0  0  0
  151.4151  144.3484  158.9161 C   0  0  0  0  0  0  0  0  0  0  0  0
  145.6093  144.3349  153.7256 H   0  0  0  0  0  0  0  0  0  0  0  0
  144.9939  142.6900  153.8441 H   0  0  0  0  0  0  0  0  0  0  0  0
  145.8753  143.2176  152.3922 H   0  0  0  0  0  0  0  0  0  0  0  0
  146.7371  138.9616  152.1320 H   0  0  0  0  0  0  0  0  0  0  0  0
  148.7251  138.0182  153.3324 H   0  0  0  0  0  0  0  0  0  0  0  0
  149.9458  139.4556  154.9445 H   0  0  0  0  0  0  0  0  0  0  0  0
  148.8855  143.0358  155.5070 H   0  0  0  0  0  0  0  0  0  0  0  0
  150.0034  143.8013  156.9088 H   0  0  0  0  0  0  0  0  0  0  0  0
  152.6351  143.3198  157.4785 H   0  0  0  0  0  0  0  0  0  0  0  0
  150.8797  141.5949  159.2808 H   0  0  0  0  0  0  0  0  0  0  0  0
  152.0817  141.0137  158.1534 H   0  0  0  0  0  0  0  0  0  0  0  0
  152.9639  141.0670  160.4892 H   0  0  0  0  0  0  0  0  0  0  0  0
  153.8881  142.1070  159.4325 H   0  0  0  0  0  0  0  0  0  0  0  0
  151.7054  143.0013  161.3789 H   0  0  0  0  0  0  0  0  0  0  0  0
  153.4204  143.2837  161.5571 H   0  0  0  0  0  0  0  0  0  0  0  0
  152.2416  145.3084  160.6738 H   0  0  0  0  0  0  0  0  0  0  0  0
  153.4470  144.7264  159.5509 H   0  0  0  0  0  0  0  0  0  0  0  0
  151.3758  145.2663  158.3281 H   0  0  0  0  0  0  0  0  0  0  0  0
  150.4360  144.2399  159.3851 H   0  0  0  0  0  0  0  0  0  0  0  0
  1  2  1  0  0  0  0
  1 19  1  0  0  0  0
  1 20  1  0  0  0  0
  1 21  1  0  0  0  0
  2  3  1  0  0  0  0
  3  8  1  0  0  0  0
  3  4  2  0  0  0  0
  4  5  1  0  0  0  0
  5  6  2  0  0  0  0
  5 22  1  0  0  0  0
  6  7  1  0  0  0  0
  6 23  1  0  0  0  0
  7  8  2  0  0  0  0
  7 24  1  0  0  0  0
  8  9  1  0  0  0  0
  9 10  1  0  0  0  0
  9 25  1  0  0  0  0
 10 11  2  0  0  0  0
 10 12  1  0  0  0  0
 12 13  1  0  0  0  0
 12 26  1  0  0  0  0
 13 18  1  0  0  0  0
 13 14  1  0  0  0  0
 13 27  1  0  0  0  0
 14 15  1  0  0  0  0
 14 28  1  0  0  0  0
 14 29  1  0  0  0  0
 15 16  1  0  0  0  0
 15 30  1  0  0  0  0
 15 31  1  0  0  0  0
 16 17  1  0  0  0  0
 16 32  1  0  0  0  0
 16 33  1  0  0  0  0
 17 18  1  0  0  0  0
 17 34  1  0  0  0  0
 17 35  1  0  0  0  0
 18 36  1  0  0  0  0
 18 37  1  0  0  0  0
M  END
> <s_m_source_file>
AV-unprocessed.smi

> <i_m_source_file_index>
619

> <i_lp_mmshare_version>
43012

> <i_f3d_flags>
0

> <s_epik_input>
W0NIM11PYzFuW2NIXVtjSF1bY0hdYzFbTkhdQyg9TylbTkhdW0NIXTJbQ0gyXVtDSDJdW0NIMl1bQ0gyXVtDSDJdMg==

> <s_epik_cmdline>
J2VwaWtfcHl0aG9uJywgJy1waCcsICc3LjAnLCAnLXRuJywgJzgnLCAnLW1hJywgJzIwMCcsICctbWV0YWxfYmluZGluZycsICctaW1hZScsICc8aW5maWxlLm1hZT4nLCAnLW9tYWUnLCAnPG91dGZpbGUubWFlPic=

> <r_lp_tautomer_probability>
1

> <r_epik_Ionization_Penalty>
9.99348e-05

> <r_epik_Ionization_Penalty_Charging>
0

> <r_epik_Ionization_Penalty_Neutral>
9.99348e-05

> <r_epik_State_Penalty>
-0

> <r_epik_Charging_Adjusted_Penalty>
0

> <i_epik_Tot_Q>
0

> <i_epik_Tot_abs_Q>
0

> <r_epik_Metal_State_Penalty>
-0

> <b_epik_Metal_Only>
0

> <s_lp_Force_Field>
OPLS_2005

> <r_lp_Energy>
11.7457

> <b_lp_Chiralities_Consistent>
1

> <s_lp_Variant>
AV-unprocessed.smi:619-1

> <Gold.Version>
5.8.1

> <Gold.Id.Protein>
6NUR|6NUR_protein|mol2

> <Gold.PLP.Fitness>
43.7011

> <Gold.PLP.PLP>
-38.5500

> <Gold.PLP.part.hbond>
-2.4986

> <Gold.PLP.part.metal>
0.0000

> <Gold.PLP.part.buried>
-3.0887

> <Gold.PLP.part.nonpolar>
-34.0484

> <Gold.PLP.part.repulsive>
1.5408

> <Gold.PLP.ligand.clash>
0.0000

> <Gold.PLP.ligand.torsion>
0.2939

> <Gold.PLP.Chemscore.Hbond>
1.9120

> <Gold.PLP.Chemscore.CHOScore>
0.0000

> <Gold.PLP.Chemscore.Metal>
0.0000

> <Gold.Chemscore.Hbonds>
donor molecule, donor type, donor heavy atom, donor atom, acceptor molecule, acceptor atom, score
      L1  H     9    25       P1  8028  1.00
      L1  H    12    26       P1  8028  0.90

> <Gold.PLP.Chemscore.Internal.Correction>
0.0030

> <Gold.Rescore>
     Score         DG    S(hbond)    S(metal)    S(lipo)     H(rot)  DE(clash)    DE(int)     intcor
     17.67     -20.79       1.93        0.00     102.53       1.23       0.09       3.02       ----

> <Gold.Chemscore.Fitness>
17.6700

> <Gold.Chemscore.DG>
-20.7858

> <Gold.Chemscore.ZeroCoef>
-5.4800

> <Gold.Chemscore.Hbond>
1.9298

> <Gold.Chemscore.Metal>
0.0000

> <Gold.Chemscore.Lipo>
102.5317

> <Gold.Chemscore.Internal_Hbond>
0.0000

> <Gold.Chemscore.DEClash>
0.0925

> <Gold.Chemscore.DEInternal>
3.0233

> <Gold.Chemscore.Rot>
1.2250

> <Gold.Chemscore.Internal.Correction>
   9.000000E+99

> <Gold.Chemscore.Hbonds>
donor molecule, donor type, donor heavy atom, donor atom, acceptor molecule, acceptor atom, score
      L1  H     9    25       P1  8028  0.99
      L1  H    12    26       P1  8028  0.87
      P1  H  8022  8030       L1     2  0.02

> <Gold.Chemscore.Hbond.Weighted>
-6.4456

> <Gold.Chemscore.Metal.Weighted>
-0.0000

> <Gold.Chemscore.Lipo.Weighted>
-11.9962

> <Gold.Chemscore.Internal_Hbond.Weighted>
0.0000

> <Gold.Chemscore.DEClash.Weighted>
0.0925

> <Gold.Chemscore.DEInternal.Weighted>
3.0233

> <Gold.Chemscore.Rot.Weighted>
3.1360

> <Gold.Chemscore.Internal.Correction.Weighted>
   9.000000E+99

> <Gold.Protein.RotatedTorsions>
[ 6907 6896 6895 6894 ] final  130.09 input  -60.11 | X-H torsion
[ 7974 7965 7964 7962 ] final  -39.02 input  175.53 | X-H torsion
[ 8008 7997 7996 7995 ] final  112.04 input   59.86 | X-H torsion
[ 10167 10162 10161 10158 ] final  -73.32 input  -65.29 | X-H torsion
[ 10718 10713 10712 10709 ] final   10.02 input   66.30 | X-H torsion
[ 10763 10752 10751 10750 ] final   55.89 input  -60.55 | X-H torsion
[ 11005 11000 10999 10996 ] final  -36.50 input  -57.11 | X-H torsion

> <Gold.Protein.ActiveResidues>
 VAL166  LYS551  ARG553  GLY616  TRP617  ASP618  TYR619  PRO620  LYS621  CYS622 
 ASP623  PHE694  ASN695  SER759  ASP760  ASP761  ALA762  ILE779  LEU786  VAL792 
 PHE793  MET794  SER795  GLU796  ALA797  LYS798  CYS799  TRP800  GLU811  SER814 

> <Gold.Protein.RotatedAtoms>
  152.3560  133.6238  159.5979 H   0  0  0  0  0  0  0  0  0  0  0  0  # atno 6907 bound_to 6896
  150.7569  133.9499  159.3491 H   0  0  0  0  0  0  0  0  0  0  0  0  # atno 6908 bound_to 6896
  151.7344  135.0869  160.0356 H   0  0  0  0  0  0  0  0  0  0  0  0  # atno 6909 bound_to 6896
  146.0434  140.6578  142.9076 H   0  0  0  0  0  0  0  0  0  0  0  0  # atno 7974 bound_to 7965
  156.2165  140.3007  155.9852 H   0  0  0  0  0  0  0  0  0  0  0  0  # atno 8008 bound_to 7997
  155.2592  140.0429  157.3012 H   0  0  0  0  0  0  0  0  0  0  0  0  # atno 8009 bound_to 7997
  154.5776  140.2366  155.8109 H   0  0  0  0  0  0  0  0  0  0  0  0  # atno 8010 bound_to 7997
  140.5120  143.2343  151.7577 H   0  0  0  0  0  0  0  0  0  0  0  0  # atno 10167 bound_to 10162
  156.9749  130.5983  149.5672 H   0  0  0  0  0  0  0  0  0  0  0  0  # atno 10718 bound_to 10713
  152.9823  135.5695  154.5140 H   0  0  0  0  0  0  0  0  0  0  0  0  # atno 10763 bound_to 10752
  154.4640  135.2782  155.1694 H   0  0  0  0  0  0  0  0  0  0  0  0  # atno 10764 bound_to 10752
  154.3270  135.6257  153.5587 H   0  0  0  0  0  0  0  0  0  0  0  0  # atno 10765 bound_to 10752
  140.9879  133.7020  156.1798 H   0  0  0  0  0  0  0  0  0  0  0  0  # atno 11005 bound_to 11000
  144.7086  140.3949  143.7099 LP  0  0  0  0  0  0  0  0  0  0  0  0  # atno 17320 bound_to 7965
  145.6846  139.1626  143.2681 LP  0  0  0  0  0  0  0  0  0  0  0  0  # atno 17321 bound_to 7965
  139.4899  144.4377  151.9800 LP  0  0  0  0  0  0  0  0  0  0  0  0  # atno 17342 bound_to 10162
  140.3470  144.3135  150.5956 LP  0  0  0  0  0  0  0  0  0  0  0  0  # atno 17343 bound_to 10162
  156.0268  130.5361  150.8427 LP  0  0  0  0  0  0  0  0  0  0  0  0  # atno 17370 bound_to 10713
  157.5567  131.0945  150.9618 LP  0  0  0  0  0  0  0  0  0  0  0  0  # atno 17371 bound_to 10713
  140.7085  134.4487  157.5583 LP  0  0  0  0  0  0  0  0  0  0  0  0  # atno 17394 bound_to 11000
  139.8979  134.8626  156.2025 LP  0  0  0  0  0  0  0  0  0  0  0  0  # atno 17395 bound_to 11000

$$$$
