AV-unprocessed.smi:796|AV-procd|sdf|3765|dock1
  -GOLD-   22720 1203D 1   1.00000     0.00000
 Structure written by MMmdl.
 46 47  0  0  0  0  0  0  0  0  1 V2000
  146.4850  133.8196  151.3618 C   0  0  0  0  0  0  0  0  0  0  0  0
  145.4736  134.9793  151.4033 C   0  0  0  0  0  0  0  0  0  0  0  0
  145.3886  135.7613  152.7453 C   0  0  1  0  0  0  0  0  0  0  0  0
  144.3776  136.9198  152.6016 C   0  0  0  0  0  0  0  0  0  0  0  0
  144.9050  134.7949  153.8606 C   0  0  0  0  0  0  0  0  0  0  0  0
  143.6380  134.2341  153.5743 O   0  0  0  0  0  0  0  0  0  0  0  0
  146.6889  136.3522  153.0972 N   0  0  0  0  0  0  0  0  0  0  0  0
  146.9856  137.1703  154.1208 C   0  0  0  0  0  0  0  0  0  0  0  0
  146.1742  137.5285  154.9736 O   0  0  0  0  0  0  0  0  0  0  0  0
  148.2828  137.5196  154.0918 N   0  0  0  0  0  0  0  0  0  0  0  0
  148.9825  138.4145  154.9459 C   0  0  0  0  0  0  0  0  0  0  0  0
  148.7166  138.5785  156.3250 C   0  0  0  0  0  0  0  0  0  0  0  0
  149.4665  139.5185  157.0575 C   0  0  0  0  0  0  0  0  0  0  0  0
  150.4580  140.2819  156.3971 C   0  0  0  0  0  0  0  0  0  0  0  0
  151.2144  141.2363  157.1122 N   0  0  0  0  0  0  0  0  0  0  0  0
  151.7822  140.7734  158.3764 C   0  0  0  0  0  0  0  0  0  0  0  0
  152.8184  141.7823  158.9009 C   0  0  0  0  0  0  0  0  0  0  0  0
  152.2283  143.0740  159.0008 O   0  0  0  0  0  0  0  0  0  0  0  0
  151.7839  143.5519  157.7355 C   0  0  0  0  0  0  0  0  0  0  0  0
  150.7082  142.6065  157.1740 C   0  0  0  0  0  0  0  0  0  0  0  0
  150.7078  140.1230  155.0741 N   0  0  0  0  0  0  0  0  0  0  0  0
  149.9864  139.2219  154.3756 C   0  0  0  0  0  0  0  0  0  0  0  0
  146.4525  133.3223  150.3923 H   0  0  0  0  0  0  0  0  0  0  0  0
  146.2701  133.0655  152.1186 H   0  0  0  0  0  0  0  0  0  0  0  0
  147.5071  134.1660  151.5116 H   0  0  0  0  0  0  0  0  0  0  0  0
  145.7128  135.6752  150.5984 H   0  0  0  0  0  0  0  0  0  0  0  0
  144.4921  134.5792  151.1475 H   0  0  0  0  0  0  0  0  0  0  0  0
  143.3908  136.5518  152.3185 H   0  0  0  0  0  0  0  0  0  0  0  0
  144.6893  137.6413  151.8466 H   0  0  0  0  0  0  0  0  0  0  0  0
  144.2632  137.4738  153.5338 H   0  0  0  0  0  0  0  0  0  0  0  0
  145.6157  133.9768  153.9823 H   0  0  0  0  0  0  0  0  0  0  0  0
  144.8505  135.2942  154.8279 H   0  0  0  0  0  0  0  0  0  0  0  0
  143.5159  133.4735  154.1217 H   0  0  0  0  0  0  0  0  0  0  0  0
  147.4452  136.1274  152.4679 H   0  0  0  0  0  0  0  0  0  0  0  0
  148.8456  137.0712  153.3838 H   0  0  0  0  0  0  0  0  0  0  0  0
  147.9491  138.0171  156.8343 H   0  0  0  0  0  0  0  0  0  0  0  0
  149.2775  139.6350  158.1140 H   0  0  0  0  0  0  0  0  0  0  0  0
  150.9758  140.6566  159.1014 H   0  0  0  0  0  0  0  0  0  0  0  0
  152.2588  139.7998  158.2741 H   0  0  0  0  0  0  0  0  0  0  0  0
  153.1721  141.4779  159.8860 H   0  0  0  0  0  0  0  0  0  0  0  0
  153.6909  141.8184  158.2465 H   0  0  0  0  0  0  0  0  0  0  0  0
  151.3746  144.5547  157.8586 H   0  0  0  0  0  0  0  0  0  0  0  0
  152.6273  143.6339  157.0478 H   0  0  0  0  0  0  0  0  0  0  0  0
  150.4129  142.9456  156.1802 H   0  0  0  0  0  0  0  0  0  0  0  0
  149.8198  142.6350  157.8063 H   0  0  0  0  0  0  0  0  0  0  0  0
  150.2220  139.1429  153.3243 H   0  0  0  0  0  0  0  0  0  0  0  0
  1  2  1  0  0  0  0
  1 23  1  0  0  0  0
  1 24  1  0  0  0  0
  1 25  1  0  0  0  0
  2  3  1  0  0  0  0
  2 26  1  0  0  0  0
  2 27  1  0  0  0  0
  3  4  1  0  0  0  0
  3  5  1  0  0  0  0
  3  7  1  0  0  0  0
  4 28  1  0  0  0  0
  4 29  1  0  0  0  0
  4 30  1  0  0  0  0
  5  6  1  0  0  0  0
  5 31  1  0  0  0  0
  5 32  1  0  0  0  0
  6 33  1  0  0  0  0
  7  8  1  0  0  0  0
  7 34  1  0  0  0  0
  8  9  2  0  0  0  0
  8 10  1  0  0  0  0
 10 11  1  0  0  0  0
 10 35  1  0  0  0  0
 11 22  1  0  0  0  0
 11 12  2  0  0  0  0
 12 13  1  0  0  0  0
 12 36  1  0  0  0  0
 13 14  2  0  0  0  0
 13 37  1  0  0  0  0
 14 15  1  0  0  0  0
 14 21  1  0  0  0  0
 15 20  1  0  0  0  0
 15 16  1  0  0  0  0
 16 17  1  0  0  0  0
 16 38  1  0  0  0  0
 16 39  1  0  0  0  0
 17 18  1  0  0  0  0
 17 40  1  0  0  0  0
 17 41  1  0  0  0  0
 18 19  1  0  0  0  0
 19 20  1  0  0  0  0
 19 42  1  0  0  0  0
 19 43  1  0  0  0  0
 20 44  1  0  0  0  0
 20 45  1  0  0  0  0
 21 22  2  0  0  0  0
 22 46  1  0  0  0  0
M  END
> <s_m_source_file>
AV-unprocessed.smi

> <i_m_source_file_index>
796

> <i_lp_mmshare_version>
43012

> <i_f3d_flags>
0

> <s_epik_input>
W0NIM11bQ0gyXVtDQEBdKFtDSDNdKShbQ0gyXVtPSF0pW05IXUMoPU8pW05IXWMxW2NIXVtjSF1jKG5bY0hdMSlOMltDSDJdW0NIMl1PW0NIMl1bQ0gyXTI=

> <s_epik_cmdline>
J2VwaWtfcHl0aG9uJywgJy1waCcsICc3LjAnLCAnLXRuJywgJzgnLCAnLW1hJywgJzIwMCcsICctbWV0YWxfYmluZGluZycsICctaW1hZScsICc8aW5maWxlLm1hZT4nLCAnLW9tYWUnLCAnPG91dGZpbGUubWFlPic=

> <r_lp_tautomer_probability>
1

> <r_epik_Ionization_Penalty>
0.00214298

> <r_epik_Ionization_Penalty_Charging>
0

> <r_epik_Ionization_Penalty_Neutral>
0.00214298

> <r_epik_State_Penalty>
0.00144388

> <r_epik_Charging_Adjusted_Penalty>
0.00144388

> <i_epik_Tot_Q>
0

> <i_epik_Tot_abs_Q>
0

> <r_epik_Metal_State_Penalty>
-0

> <b_epik_Metal_Only>
0

> <s_lp_Force_Field>
OPLS_2005

> <r_lp_Energy>
27.2445

> <b_lp_Chiralities_Consistent>
1

> <s_lp_Variant>
AV-unprocessed.smi:796-1

> <Gold.Version>
5.8.1

> <Gold.Id.Protein>
6NUR|6NUR_protein|mol2

> <Gold.PLP.Fitness>
41.7667

> <Gold.PLP.PLP>
-28.7625

> <Gold.PLP.part.hbond>
-4.0000

> <Gold.PLP.part.metal>
0.0000

> <Gold.PLP.part.buried>
-4.8276

> <Gold.PLP.part.nonpolar>
-20.3418

> <Gold.PLP.part.repulsive>
0.1336

> <Gold.PLP.ligand.clash>
0.0000

> <Gold.PLP.ligand.torsion>
0.7979

> <Gold.PLP.Chemscore.Hbond>
3.7500

> <Gold.PLP.Chemscore.CHOScore>
1.0000

> <Gold.PLP.Chemscore.Metal>
0.0000

> <Gold.Chemscore.Hbonds>
donor molecule, donor type, donor heavy atom, donor atom, acceptor molecule, acceptor atom, score
      L1  H     6    33       P1 10957  1.00
      L1  H     7    34       P1  7948  1.00
      L1  H    10    35       P1  7948  1.00
      P1  H  7989  7998       L1    21  0.75
      L1  C    22    46       P1  7957  1.00

> <Gold.PLP.Chemscore.Internal.Correction>
0.3500

> <Gold.Rescore>
     Score         DG    S(hbond)    S(metal)    S(lipo)     H(rot)  DE(clash)    DE(int)     intcor
     16.57     -18.06       3.07        0.00      68.79       2.24       0.09       1.39       ----

> <Gold.Chemscore.Fitness>
16.5729

> <Gold.Chemscore.DG>
-18.0591

> <Gold.Chemscore.ZeroCoef>
-5.4800

> <Gold.Chemscore.Hbond>
3.0725

> <Gold.Chemscore.Metal>
0.0000

> <Gold.Chemscore.Lipo>
68.7853

> <Gold.Chemscore.Internal_Hbond>
0.0000

> <Gold.Chemscore.DEClash>
0.0923

> <Gold.Chemscore.DEInternal>
1.3940

> <Gold.Chemscore.Rot>
2.2387

> <Gold.Chemscore.Internal.Correction>
   9.000000E+99

> <Gold.Chemscore.Hbonds>
donor molecule, donor type, donor heavy atom, donor atom, acceptor molecule, acceptor atom, score
      L1  H     6    33       P1 10957  0.94
      L1  H     7    34       P1  7948  0.98
      L1  H    10    35       P1  7948  0.95
      P1  H  7989  7998       L1    21  0.09

> <Gold.Chemscore.Hbond.Weighted>
-10.2623

> <Gold.Chemscore.Metal.Weighted>
-0.0000

> <Gold.Chemscore.Lipo.Weighted>
-8.0479

> <Gold.Chemscore.Internal_Hbond.Weighted>
0.0000

> <Gold.Chemscore.DEClash.Weighted>
0.0923

> <Gold.Chemscore.DEInternal.Weighted>
1.3940

> <Gold.Chemscore.Rot.Weighted>
5.7310

> <Gold.Chemscore.Internal.Correction.Weighted>
   9.000000E+99

> <Gold.Protein.RotatedTorsions>
[ 6907 6896 6895 6894 ] final   74.29 input  -60.11 | X-H torsion
[ 7974 7965 7964 7962 ] final  134.34 input  175.53 | X-H torsion
[ 8008 7997 7996 7995 ] final    3.37 input   59.86 | X-H torsion
[ 10167 10162 10161 10158 ] final -154.90 input  -65.29 | X-H torsion
[ 10718 10713 10712 10709 ] final  125.56 input   66.30 | X-H torsion
[ 10763 10752 10751 10750 ] final   55.77 input  -60.55 | X-H torsion
[ 11005 11000 10999 10996 ] final  -67.62 input  -57.11 | X-H torsion

> <Gold.Protein.ActiveResidues>
 VAL166  LYS551  ARG553  GLY616  TRP617  ASP618  TYR619  PRO620  LYS621  CYS622 
 ASP623  PHE694  ASN695  SER759  ASP760  ASP761  ALA762  ILE779  LEU786  VAL792 
 PHE793  MET794  SER795  GLU796  ALA797  LYS798  CYS799  TRP800  GLU811  SER814 

> <Gold.Protein.RotatedAtoms>
  152.4968  134.4293  159.9506 H   0  0  0  0  0  0  0  0  0  0  0  0  # atno 6907 bound_to 6896
  151.4271  133.3675  159.2771 H   0  0  0  0  0  0  0  0  0  0  0  0  # atno 6908 bound_to 6896
  150.9181  134.8622  159.7530 H   0  0  0  0  0  0  0  0  0  0  0  0  # atno 6909 bound_to 6896
  144.9773  139.4541  143.5403 H   0  0  0  0  0  0  0  0  0  0  0  0  # atno 7974 bound_to 7965
  154.7029  140.2676  155.6702 H   0  0  0  0  0  0  0  0  0  0  0  0  # atno 8008 bound_to 7997
  156.2770  140.2768  156.1569 H   0  0  0  0  0  0  0  0  0  0  0  0  # atno 8009 bound_to 7997
  155.0740  140.0372  157.2608 H   0  0  0  0  0  0  0  0  0  0  0  0  # atno 8010 bound_to 7997
  139.6975  143.9318  152.2414 H   0  0  0  0  0  0  0  0  0  0  0  0  # atno 10167 bound_to 10162
  157.5493  131.1094  150.8729 H   0  0  0  0  0  0  0  0  0  0  0  0  # atno 10718 bound_to 10713
  152.9822  135.5699  154.5121 H   0  0  0  0  0  0  0  0  0  0  0  0  # atno 10763 bound_to 10752
  154.4623  135.2782  155.1705 H   0  0  0  0  0  0  0  0  0  0  0  0  # atno 10764 bound_to 10752
  154.3288  135.6253  153.5595 H   0  0  0  0  0  0  0  0  0  0  0  0  # atno 10765 bound_to 10752
  141.1512  133.6723  156.6321 H   0  0  0  0  0  0  0  0  0  0  0  0  # atno 11005 bound_to 11000
  146.3399  139.9023  142.8792 LP  0  0  0  0  0  0  0  0  0  0  0  0  # atno 17320 bound_to 7965
  145.2472  141.0031  143.3902 LP  0  0  0  0  0  0  0  0  0  0  0  0  # atno 17321 bound_to 7965
  139.9151  144.6833  150.8520 LP  0  0  0  0  0  0  0  0  0  0  0  0  # atno 17342 bound_to 10162
  140.7700  143.3415  151.2198 LP  0  0  0  0  0  0  0  0  0  0  0  0  # atno 17343 bound_to 10162
  156.9258  130.5332  149.5279 LP  0  0  0  0  0  0  0  0  0  0  0  0  # atno 17370 bound_to 10713
  156.0563  130.5624  150.9098 LP  0  0  0  0  0  0  0  0  0  0  0  0  # atno 17371 bound_to 10713
  140.3459  134.7810  157.4432 LP  0  0  0  0  0  0  0  0  0  0  0  0  # atno 17394 bound_to 11000
  140.0900  134.5614  155.8454 LP  0  0  0  0  0  0  0  0  0  0  0  0  # atno 17395 bound_to 11000

$$$$
