AV-unprocessed.smi:480|AV-procd|sdf|2678|dock6
  -GOLD-   2262023103D 1   1.00000     0.00000
 Structure written by MMmdl.
 47 49  0  0  0  0  0  0  0  0  2 V2000
  147.7104  141.9883  154.2261 C   0  0  0  0  0  0  0  0  0  0  0  0
  148.9011  141.0223  154.1545 C   0  0  0  0  0  0  0  0  0  0  0  0
  149.8073  141.1309  155.3429 C   0  0  0  0  0  0  0  0  0  0  0  0
  149.7953  142.1305  156.2712 N   0  3  0  0  0  0  0  0  0  0  0  0
  150.7893  141.9077  157.2238 C   0  0  0  0  0  0  0  0  0  0  0  0
  151.1472  142.6344  158.3550 C   0  0  0  0  0  0  0  0  0  0  0  0
  152.2197  142.1284  159.1184 C   0  0  0  0  0  0  0  0  0  0  0  0
  152.8923  140.9462  158.7465 C   0  0  0  0  0  0  0  0  0  0  0  0
  152.5206  140.2191  157.5965 C   0  0  0  0  0  0  0  0  0  0  0  0
  151.4568  140.7244  156.8498 C   0  0  0  0  0  0  0  0  0  0  0  0
  150.8202  140.2799  155.6859 N   0  0  0  0  0  0  0  0  0  0  0  0
  151.2896  139.0370  155.0517 C   0  0  0  0  0  0  0  0  0  0  0  0
  151.1860  137.7961  155.9684 C   0  0  2  0  0  0  0  0  0  0  0  0
  152.4868  137.4641  156.4050 O   0  0  0  0  0  0  0  0  0  0  0  0
  150.5557  136.5586  155.3029 C   0  0  0  0  0  0  0  0  0  0  0  0
  151.2048  135.3922  155.7936 O   0  0  0  0  0  0  0  0  0  0  0  0
  150.6930  134.1628  155.4458 C   0  0  0  0  0  0  0  0  0  0  0  0
  151.2425  133.0366  156.0915 C   0  0  0  0  0  0  0  0  0  0  0  0
  150.7669  131.7422  155.8093 C   0  0  0  0  0  0  0  0  0  0  0  0
  149.7362  131.5588  154.8669 C   0  0  0  0  0  0  0  0  0  0  0  0
  149.2264  130.1655  154.5614 C   0  0  0  0  0  0  0  0  0  0  0  0
  148.0289  130.1905  153.7076 C   0  0  0  0  0  0  0  0  0  0  0  0
  147.0869  130.2109  153.0362 N   0  0  0  0  0  0  0  0  0  0  0  0
  149.1877  132.6768  154.2079 C   0  0  0  0  0  0  0  0  0  0  0  0
  149.6622  133.9719  154.4926 C   0  0  0  0  0  0  0  0  0  0  0  0
  147.0629  141.8659  153.3579 H   0  0  0  0  0  0  0  0  0  0  0  0
  148.0380  143.0280  154.2472 H   0  0  0  0  0  0  0  0  0  0  0  0
  147.1070  141.8067  155.1157 H   0  0  0  0  0  0  0  0  0  0  0  0
  148.5257  140.0028  154.0749 H   0  0  0  0  0  0  0  0  0  0  0  0
  149.4836  141.2146  153.2534 H   0  0  0  0  0  0  0  0  0  0  0  0
  150.6340  143.5409  158.6411 H   0  0  0  0  0  0  0  0  0  0  0  0
  152.5335  142.6583  160.0062 H   0  0  0  0  0  0  0  0  0  0  0  0
  153.7100  140.5889  159.3556 H   0  0  0  0  0  0  0  0  0  0  0  0
  153.0414  139.3144  157.3198 H   0  0  0  0  0  0  0  0  0  0  0  0
  150.6985  138.8867  154.1480 H   0  0  0  0  0  0  0  0  0  0  0  0
  152.3168  139.1881  154.7167 H   0  0  0  0  0  0  0  0  0  0  0  0
  150.6086  138.0448  156.8592 H   0  0  0  0  0  0  0  0  0  0  0  0
  153.0335  138.2317  156.3344 H   0  0  0  0  0  0  0  0  0  0  0  0
  149.4829  136.5439  155.5007 H   0  0  0  0  0  0  0  0  0  0  0  0
  150.6953  136.5980  154.2213 H   0  0  0  0  0  0  0  0  0  0  0  0
  152.0312  133.1682  156.8179 H   0  0  0  0  0  0  0  0  0  0  0  0
  151.1958  130.8898  156.3156 H   0  0  0  0  0  0  0  0  0  0  0  0
  150.0011  129.5910  154.0526 H   0  0  0  0  0  0  0  0  0  0  0  0
  148.9807  129.6399  155.4847 H   0  0  0  0  0  0  0  0  0  0  0  0
  148.4013  132.5445  153.4790 H   0  0  0  0  0  0  0  0  0  0  0  0
  149.2234  134.8042  153.9635 H   0  0  0  0  0  0  0  0  0  0  0  0
  149.1454  142.9058  156.2537 H   0  0  0  0  0  0  0  0  0  0  0  0
  1  2  1  0  0  0  0
  1 26  1  0  0  0  0
  1 27  1  0  0  0  0
  1 28  1  0  0  0  0
  2  3  1  0  0  0  0
  2 29  1  0  0  0  0
  2 30  1  0  0  0  0
  3 11  1  0  0  0  0
  3  4  2  0  0  0  0
  4  5  1  0  0  0  0
  4 47  1  0  0  0  0
  5 10  2  0  0  0  0
  5  6  1  0  0  0  0
  6  7  2  0  0  0  0
  6 31  1  0  0  0  0
  7  8  1  0  0  0  0
  7 32  1  0  0  0  0
  8  9  2  0  0  0  0
  8 33  1  0  0  0  0
  9 10  1  0  0  0  0
  9 34  1  0  0  0  0
 10 11  1  0  0  0  0
 11 12  1  0  0  0  0
 12 13  1  0  0  0  0
 12 35  1  0  0  0  0
 12 36  1  0  0  0  0
 13 14  1  0  0  0  0
 13 15  1  0  0  0  0
 13 37  1  0  0  0  0
 14 38  1  0  0  0  0
 15 16  1  0  0  0  0
 15 39  1  0  0  0  0
 15 40  1  0  0  0  0
 16 17  1  0  0  0  0
 17 25  1  0  0  0  0
 17 18  2  0  0  0  0
 18 19  1  0  0  0  0
 18 41  1  0  0  0  0
 19 20  2  0  0  0  0
 19 42  1  0  0  0  0
 20 21  1  0  0  0  0
 20 24  1  0  0  0  0
 21 22  1  0  0  0  0
 21 43  1  0  0  0  0
 21 44  1  0  0  0  0
 22 23  3  0  0  0  0
 24 25  2  0  0  0  0
 24 45  1  0  0  0  0
 25 46  1  0  0  0  0
M  CHG  1   4   1
M  END
> <s_m_source_file>
AV-unprocessed.smi

> <i_m_source_file_index>
480

> <i_lp_mmshare_version>
43012

> <i_f3d_flags>
0

> <s_epik_input>
W2NIXTFbY0hdW2NIXVtjSF1jKGMxMiluKGMobjIpW0NIMl1bQ0gzXSlbQ0gyXVtDQEhdKFtPSF0pW0NIMl1PYzNbY0hdW2NIXWMoW0NIMl1DI04pW2NIXVtjSF0z

> <s_epik_cmdline>
J2VwaWtfcHl0aG9uJywgJy1waCcsICc3LjAnLCAnLXRuJywgJzgnLCAnLW1hJywgJzIwMCcsICctbWV0YWxfYmluZGluZycsICctaW1hZScsICc8aW5maWxlLm1hZT4nLCAnLW9tYWUnLCAnPG91dGZpbGUubWFlPic=

> <r_lp_tautomer_probability>
1

> <r_epik_Ionization_Penalty>
1.03158

> <r_epik_Ionization_Penalty_Charging>
1.03158

> <r_epik_Ionization_Penalty_Neutral>
2.3994e-06

> <r_epik_State_Penalty>
1.08278

> <r_epik_Charging_Adjusted_Penalty>
2.11436

> <i_epik_Tot_Q>
1

> <i_epik_Tot_abs_Q>
1

> <r_epik_Metal_State_Penalty>
5.07177

> <b_epik_Metal_Only>
0

> <s_lp_Force_Field>
OPLS_2005

> <r_lp_Energy>
18.4444

> <b_lp_Chiralities_Consistent>
1

> <s_lp_Variant>
AV-unprocessed.smi:480-3

> <Gold.Version>
5.8.1

> <Gold.Id.Protein>
6NUR|6NUR_protein|mol2

> <Gold.PLP.Fitness>
52.1896

> <Gold.PLP.PLP>
-46.4816

> <Gold.PLP.part.hbond>
-2.0000

> <Gold.PLP.part.metal>
0.0000

> <Gold.PLP.part.buried>
-3.7419

> <Gold.PLP.part.nonpolar>
-39.7480

> <Gold.PLP.part.repulsive>
0.2650

> <Gold.PLP.ligand.clash>
0.0000

> <Gold.PLP.ligand.torsion>
1.4387

> <Gold.PLP.Chemscore.Hbond>
2.8240

> <Gold.PLP.Chemscore.CHOScore>
0.0000

> <Gold.PLP.Chemscore.Metal>
0.0000

> <Gold.Chemscore.Hbonds>
donor molecule, donor type, donor heavy atom, donor atom, acceptor molecule, acceptor atom, score
      L1  H     4    47       P1  8028  1.79
      P1  H 10752 10764       L1    16  0.99

> <Gold.PLP.Chemscore.Internal.Correction>
0.1134

> <Gold.Rescore>
     Score         DG    S(hbond)    S(metal)    S(lipo)     H(rot)  DE(clash)    DE(int)     intcor
     15.09     -17.03       1.44        0.00     115.90       2.67       0.50       1.44       ----

> <Gold.Chemscore.Fitness>
15.0891

> <Gold.Chemscore.DG>
-17.0267

> <Gold.Chemscore.ZeroCoef>
-5.4800

> <Gold.Chemscore.Hbond>
1.4442

> <Gold.Chemscore.Metal>
0.0000

> <Gold.Chemscore.Lipo>
115.9034

> <Gold.Chemscore.Internal_Hbond>
0.0000

> <Gold.Chemscore.DEClash>
0.4973

> <Gold.Chemscore.DEInternal>
1.4403

> <Gold.Chemscore.Rot>
2.6710

> <Gold.Chemscore.Internal.Correction>
   9.000000E+99

> <Gold.Chemscore.Hbonds>
donor molecule, donor type, donor heavy atom, donor atom, acceptor molecule, acceptor atom, score
      L1  H     4    47       P1  8028  0.88
      P1  H 10752 10764       L1    16  0.14

> <Gold.Chemscore.Hbond.Weighted>
-4.8237

> <Gold.Chemscore.Metal.Weighted>
-0.0000

> <Gold.Chemscore.Lipo.Weighted>
-13.5607

> <Gold.Chemscore.Internal_Hbond.Weighted>
0.0000

> <Gold.Chemscore.DEClash.Weighted>
0.4973

> <Gold.Chemscore.DEInternal.Weighted>
1.4403

> <Gold.Chemscore.Rot.Weighted>
6.8377

> <Gold.Chemscore.Internal.Correction.Weighted>
   9.000000E+99

> <Gold.Protein.RotatedTorsions>
[ 6907 6896 6895 6894 ] final -165.77 input  -60.11 | X-H torsion
[ 7974 7965 7964 7962 ] final -101.00 input  175.53 | X-H torsion
[ 8008 7997 7996 7995 ] final   38.96 input   59.86 | X-H torsion
[ 10167 10162 10161 10158 ] final -107.80 input  -65.29 | X-H torsion
[ 10718 10713 10712 10709 ] final    4.43 input   66.30 | X-H torsion
[ 10763 10752 10751 10750 ] final  -45.39 input  -60.55 | X-H torsion
[ 11005 11000 10999 10996 ] final  -75.45 input  -57.11 | X-H torsion

> <Gold.Protein.ActiveResidues>
 VAL166  LYS551  ARG553  GLY616  TRP617  ASP618  TYR619  PRO620  LYS621  CYS622 
 ASP623  PHE694  ASN695  SER759  ASP760  ASP761  ALA762  ILE779  LEU786  VAL792 
 PHE793  MET794  SER795  GLU796  ALA797  LYS798  CYS799  TRP800  GLU811  SER814 

> <Gold.Protein.RotatedAtoms>
  151.4329  133.3665  159.2770 H   0  0  0  0  0  0  0  0  0  0  0  0  # atno 6907 bound_to 6896
  150.9212  134.8631  159.7501 H   0  0  0  0  0  0  0  0  0  0  0  0  # atno 6908 bound_to 6896
  152.4983  134.4267  159.9550 H   0  0  0  0  0  0  0  0  0  0  0  0  # atno 6909 bound_to 6896
  145.2872  140.9343  143.2898 H   0  0  0  0  0  0  0  0  0  0  0  0  # atno 7974 bound_to 7965
  155.2288  140.3336  155.4306 H   0  0  0  0  0  0  0  0  0  0  0  0  # atno 8008 bound_to 7997
  156.2303  140.1847  156.7305 H   0  0  0  0  0  0  0  0  0  0  0  0  # atno 8009 bound_to 7997
  154.5967  140.0629  156.9298 H   0  0  0  0  0  0  0  0  0  0  0  0  # atno 8010 bound_to 7997
  140.1731  143.4027  152.1339 H   0  0  0  0  0  0  0  0  0  0  0  0  # atno 10167 bound_to 10162
  156.8925  130.5692  149.5649 H   0  0  0  0  0  0  0  0  0  0  0  0  # atno 10718 bound_to 10713
  154.0278  135.6661  153.4778 H   0  0  0  0  0  0  0  0  0  0  0  0  # atno 10763 bound_to 10752
  153.0553  135.5060  154.7962 H   0  0  0  0  0  0  0  0  0  0  0  0  # atno 10764 bound_to 10752
  154.6897  135.3059  154.9462 H   0  0  0  0  0  0  0  0  0  0  0  0  # atno 10765 bound_to 10752
  141.1645  133.6947  156.7519 H   0  0  0  0  0  0  0  0  0  0  0  0  # atno 11005 bound_to 11000
  144.9203  139.4420  143.6544 LP  0  0  0  0  0  0  0  0  0  0  0  0  # atno 17320 bound_to 7965
  146.3197  139.8059  142.8956 LP  0  0  0  0  0  0  0  0  0  0  0  0  # atno 17321 bound_to 7965
  139.5329  144.7179  151.4993 LP  0  0  0  0  0  0  0  0  0  0  0  0  # atno 17342 bound_to 10162
  140.6569  143.8580  150.6845 LP  0  0  0  0  0  0  0  0  0  0  0  0  # atno 17343 bound_to 10162
  156.0622  130.5672  150.9216 LP  0  0  0  0  0  0  0  0  0  0  0  0  # atno 17370 bound_to 10713
  157.6075  131.0938  150.8853 LP  0  0  0  0  0  0  0  0  0  0  0  0  # atno 17371 bound_to 10713
  140.2598  134.8476  157.3747 LP  0  0  0  0  0  0  0  0  0  0  0  0  # atno 17394 bound_to 11000
  140.1622  134.4714  155.7887 LP  0  0  0  0  0  0  0  0  0  0  0  0  # atno 17395 bound_to 11000

$$$$
