AV-unprocessed.smi:1830|AV-procd|sdf|7450|dock1
  -GOLD-   22720 9143D 1   1.00000     0.00000
 Structure written by MMmdl.
 54 57  0  0  0  0  0  0  0  0  3 V2000
  153.8707  139.6884  157.9812 O   0  0  0  0  0  0  0  0  0  0  0  0
  153.4709  140.4897  158.8253 C   0  0  0  0  0  0  0  0  0  0  0  0
  154.0795  140.6879  160.0028 N   0  0  0  0  0  0  0  0  0  0  0  0
  155.2813  139.9898  160.4478 C   0  0  0  0  0  0  0  0  0  0  0  0
  155.2315  138.4818  160.1138 C   0  0  2  0  0  0  0  0  0  0  0  0
  154.1689  137.7156  160.9389 C   0  0  0  0  0  0  0  0  0  0  0  0
  154.6642  137.5339  162.3159 N   0  3  1  0  0  0  0  0  0  0  0  0
  153.8013  136.8251  163.2765 C   0  0  0  0  0  0  0  0  0  0  0  0
  154.7674  136.2726  164.3433 C   0  0  0  0  0  0  0  0  0  0  0  0
  156.1838  136.5646  163.8160 C   0  0  0  0  0  0  0  0  0  0  0  0
  155.9519  136.8367  162.3330 C   0  0  2  0  0  0  0  0  0  0  0  0
  156.9897  137.6814  161.5850 C   0  0  0  0  0  0  0  0  0  0  0  0
  156.5239  137.8685  160.2455 O   0  0  0  0  0  0  0  0  0  0  0  0
  152.3756  141.2582  158.7043 N   0  0  0  0  0  0  0  0  0  0  0  0
  151.4497  141.2962  157.6231 C   0  0  0  0  0  0  0  0  0  0  0  0
  151.2713  140.1774  156.7689 C   0  0  0  0  0  0  0  0  0  0  0  0
  150.3319  140.2342  155.7226 C   0  0  0  0  0  0  0  0  0  0  0  0
  149.5863  141.4116  155.5418 C   0  0  0  0  0  0  0  0  0  0  0  0
  149.7936  142.4661  156.3570 N   0  3  0  0  0  0  0  0  0  0  0  0
  150.6939  142.4784  157.3717 C   0  0  0  0  0  0  0  0  0  0  0  0
  150.8120  143.6624  158.1347 N   0  0  0  0  0  0  0  0  0  0  0  0
  152.0282  144.4645  158.0701 C   0  0  0  0  0  0  0  0  0  0  0  0
  151.9280  145.4279  159.2490 C   0  0  0  0  0  0  0  0  0  0  0  0
  151.2327  144.5782  160.3088 C   0  0  0  0  0  0  0  0  0  0  0  0
  150.2915  143.6803  159.4981 C   0  0  0  0  0  0  0  0  0  0  0  0
  153.6835  141.3649  160.6385 H   0  0  0  0  0  0  0  0  0  0  0  0
  156.1445  140.4668  159.9846 H   0  0  0  0  0  0  0  0  0  0  0  0
  155.4058  140.1306  161.5229 H   0  0  0  0  0  0  0  0  0  0  0  0
  154.9518  138.3862  159.0643 H   0  0  0  0  0  0  0  0  0  0  0  0
  153.2193  138.2517  160.9476 H   0  0  0  0  0  0  0  0  0  0  0  0
  153.9806  136.7389  160.4902 H   0  0  0  0  0  0  0  0  0  0  0  0
  153.0508  137.4954  163.6962 H   0  0  0  0  0  0  0  0  0  0  0  0
  153.2836  136.0040  162.7780 H   0  0  0  0  0  0  0  0  0  0  0  0
  154.6088  136.7436  165.3138 H   0  0  0  0  0  0  0  0  0  0  0  0
  154.6134  135.2003  164.4699 H   0  0  0  0  0  0  0  0  0  0  0  0
  156.5845  137.4540  164.3047 H   0  0  0  0  0  0  0  0  0  0  0  0
  156.8791  135.7429  163.9903 H   0  0  0  0  0  0  0  0  0  0  0  0
  155.8378  135.8782  161.8217 H   0  0  0  0  0  0  0  0  0  0  0  0
  157.1573  138.6397  162.0772 H   0  0  0  0  0  0  0  0  0  0  0  0
  157.9496  137.1660  161.5564 H   0  0  0  0  0  0  0  0  0  0  0  0
  152.1158  141.7936  159.5196 H   0  0  0  0  0  0  0  0  0  0  0  0
  151.8471  139.2735  156.8976 H   0  0  0  0  0  0  0  0  0  0  0  0
  150.1852  139.3855  155.0705 H   0  0  0  0  0  0  0  0  0  0  0  0
  148.8420  141.5451  154.7700 H   0  0  0  0  0  0  0  0  0  0  0  0
  152.9097  143.8329  158.1883 H   0  0  0  0  0  0  0  0  0  0  0  0
  152.1071  144.9942  157.1202 H   0  0  0  0  0  0  0  0  0  0  0  0
  152.8978  145.8083  159.5717 H   0  0  0  0  0  0  0  0  0  0  0  0
  151.2998  146.2794  158.9834 H   0  0  0  0  0  0  0  0  0  0  0  0
  151.9708  143.9641  160.8266 H   0  0  0  0  0  0  0  0  0  0  0  0
  150.7093  145.1744  161.0569 H   0  0  0  0  0  0  0  0  0  0  0  0
  149.2888  144.1086  159.4863 H   0  0  0  0  0  0  0  0  0  0  0  0
  150.2308  142.6794  159.9282 H   0  0  0  0  0  0  0  0  0  0  0  0
  154.8289  138.4518  162.7035 H   0  0  0  0  0  0  0  0  0  0  0  0
  149.2440  143.3099  156.1934 H   0  0  0  0  0  0  0  0  0  0  0  0
  1  2  2  0  0  0  0
  2  3  1  0  0  0  0
  2 14  1  0  0  0  0
  3  4  1  0  0  0  0
  3 26  1  0  0  0  0
  4  5  1  0  0  0  0
  4 27  1  0  0  0  0
  4 28  1  0  0  0  0
  5 13  1  0  0  0  0
  5  6  1  0  0  0  0
  5 29  1  0  0  0  0
  6  7  1  0  0  0  0
  6 30  1  0  0  0  0
  6 31  1  0  0  0  0
  7 11  1  0  0  0  0
  7  8  1  0  0  0  0
  7 53  1  0  0  0  0
  8  9  1  0  0  0  0
  8 32  1  0  0  0  0
  8 33  1  0  0  0  0
  9 10  1  0  0  0  0
  9 34  1  0  0  0  0
  9 35  1  0  0  0  0
 10 11  1  0  0  0  0
 10 36  1  0  0  0  0
 10 37  1  0  0  0  0
 11 12  1  0  0  0  0
 11 38  1  0  0  0  0
 12 13  1  0  0  0  0
 12 39  1  0  0  0  0
 12 40  1  0  0  0  0
 14 15  1  0  0  0  0
 14 41  1  0  0  0  0
 15 20  1  0  0  0  0
 15 16  2  0  0  0  0
 16 17  1  0  0  0  0
 16 42  1  0  0  0  0
 17 18  2  0  0  0  0
 17 43  1  0  0  0  0
 18 19  1  0  0  0  0
 18 44  1  0  0  0  0
 19 20  2  0  0  0  0
 19 54  1  0  0  0  0
 20 21  1  0  0  0  0
 21 25  1  0  0  0  0
 21 22  1  0  0  0  0
 22 23  1  0  0  0  0
 22 45  1  0  0  0  0
 22 46  1  0  0  0  0
 23 24  1  0  0  0  0
 23 47  1  0  0  0  0
 23 48  1  0  0  0  0
 24 25  1  0  0  0  0
 24 49  1  0  0  0  0
 24 50  1  0  0  0  0
 25 51  1  0  0  0  0
 25 52  1  0  0  0  0
M  CHG  1   7   1
M  CHG  1  19   1
M  END
> <s_m_source_file>
AV-unprocessed.smi

> <i_m_source_file_index>
1830

> <i_lp_mmshare_version>
43012

> <i_f3d_flags>
0

> <s_epik_input>
W0NIMl0xW0NIMl1bQ0gyXVtDQEhdKE4xMilbQ0gyXU9bQ0BASF0oW0NIMl0yKVtDSDJdW05IXUMoPU8pW05IXWMzW2NIXVtjSF1bY0hdbmMzTjRbQ0gyXVtDSDJdW0NIMl1bQ0gyXTQ=

> <s_epik_cmdline>
J2VwaWtfcHl0aG9uJywgJy1waCcsICc3LjAnLCAnLXRuJywgJzgnLCAnLW1hJywgJzIwMCcsICctbWV0YWxfYmluZGluZycsICctaW1hZScsICc8aW5maWxlLm1hZT4nLCAnLW9tYWUnLCAnPG91dGZpbGUubWFlPic=

> <r_lp_tautomer_probability>
0.999994

> <r_epik_Ionization_Penalty>
1.29113

> <r_epik_Ionization_Penalty_Charging>
1.29111

> <r_epik_Ionization_Penalty_Neutral>
1.88144e-05

> <r_epik_State_Penalty>
1.32676

> <r_epik_Charging_Adjusted_Penalty>
2.61787

> <i_epik_Tot_Q>
2

> <i_epik_Tot_abs_Q>
2

> <r_epik_Metal_State_Penalty>
1.40425

> <b_epik_Metal_Only>
0

> <s_lp_Force_Field>
OPLS_2005

> <r_lp_Energy>
76.6475

> <b_lp_Chiralities_Consistent>
1

> <s_lp_Variant>
AV-unprocessed.smi:1830-19

> <Gold.Version>
5.8.1

> <Gold.Id.Protein>
6NUR|6NUR_protein|mol2

> <Gold.PLP.Fitness>
49.7060

> <Gold.PLP.PLP>
-41.3275

> <Gold.PLP.part.hbond>
-1.8832

> <Gold.PLP.part.metal>
0.0000

> <Gold.PLP.part.buried>
-4.7102

> <Gold.PLP.part.nonpolar>
-35.3562

> <Gold.PLP.part.repulsive>
0.3995

> <Gold.PLP.ligand.clash>
0.0000

> <Gold.PLP.ligand.torsion>
0.5172

> <Gold.PLP.Chemscore.Hbond>
3.0000

> <Gold.PLP.Chemscore.CHOScore>
0.0000

> <Gold.PLP.Chemscore.Metal>
0.0000

> <Gold.Chemscore.Hbonds>
donor molecule, donor type, donor heavy atom, donor atom, acceptor molecule, acceptor atom, score
      L1  H    19    54       P1  8028  2.00
      P1  H  7997  8010       L1     1  0.37

> <Gold.PLP.Chemscore.Internal.Correction>
0.4130

> <Gold.Rescore>
     Score         DG    S(hbond)    S(metal)    S(lipo)     H(rot)  DE(clash)    DE(int)     intcor
     19.15     -22.34       1.79        0.00     124.26       1.43       0.18       3.01       ----

> <Gold.Chemscore.Fitness>
19.1505

> <Gold.Chemscore.DG>
-22.3445

> <Gold.Chemscore.ZeroCoef>
-5.4800

> <Gold.Chemscore.Hbond>
1.7908

> <Gold.Chemscore.Metal>
0.0000

> <Gold.Chemscore.Lipo>
124.2584

> <Gold.Chemscore.Internal_Hbond>
0.0000

> <Gold.Chemscore.DEClash>
0.1813

> <Gold.Chemscore.DEInternal>
3.0127

> <Gold.Chemscore.Rot>
1.4278

> <Gold.Chemscore.Internal.Correction>
   9.000000E+99

> <Gold.Chemscore.Hbonds>
donor molecule, donor type, donor heavy atom, donor atom, acceptor molecule, acceptor atom, score
      L1  H    19    54       P1  8028  0.95
      P1  H  7997  8010       L1     1  0.36

> <Gold.Chemscore.Hbond.Weighted>
-5.9813

> <Gold.Chemscore.Metal.Weighted>
-0.0000

> <Gold.Chemscore.Lipo.Weighted>
-14.5382

> <Gold.Chemscore.Internal_Hbond.Weighted>
0.0000

> <Gold.Chemscore.DEClash.Weighted>
0.1813

> <Gold.Chemscore.DEInternal.Weighted>
3.0127

> <Gold.Chemscore.Rot.Weighted>
3.6551

> <Gold.Chemscore.Internal.Correction.Weighted>
   9.000000E+99

> <Gold.Protein.RotatedTorsions>
[ 6907 6896 6895 6894 ] final  -54.04 input  -60.11 | X-H torsion
[ 7974 7965 7964 7962 ] final   87.30 input  175.53 | X-H torsion
[ 8008 7997 7996 7995 ] final   41.90 input   59.86 | X-H torsion
[ 10167 10162 10161 10158 ] final -103.88 input  -65.29 | X-H torsion
[ 10718 10713 10712 10709 ] final  -90.93 input   66.30 | X-H torsion
[ 10763 10752 10751 10750 ] final  -25.82 input  -60.55 | X-H torsion
[ 11005 11000 10999 10996 ] final  -35.60 input  -57.11 | X-H torsion

> <Gold.Protein.ActiveResidues>
 VAL166  LYS551  ARG553  GLY616  TRP617  ASP618  TYR619  PRO620  LYS621  CYS622 
 ASP623  PHE694  ASN695  SER759  ASP760  ASP761  ALA762  ILE779  LEU786  VAL792 
 PHE793  MET794  SER795  GLU796  ALA797  LYS798  CYS799  TRP800  GLU811  SER814 

> <Gold.Protein.RotatedAtoms>
  150.8373  134.7651  159.6903 H   0  0  0  0  0  0  0  0  0  0  0  0  # atno 6907 bound_to 6896
  152.4467  134.5476  159.9867 H   0  0  0  0  0  0  0  0  0  0  0  0  # atno 6908 bound_to 6896
  151.5623  133.3363  159.3009 H   0  0  0  0  0  0  0  0  0  0  0  0  # atno 6909 bound_to 6896
  145.5609  139.2304  143.2460 H   0  0  0  0  0  0  0  0  0  0  0  0  # atno 7974 bound_to 7965
  155.2772  140.3370  155.4261 H   0  0  0  0  0  0  0  0  0  0  0  0  # atno 8008 bound_to 7997
  156.2106  140.1768  156.7745 H   0  0  0  0  0  0  0  0  0  0  0  0  # atno 8009 bound_to 7997
  154.5681  140.0675  156.8907 H   0  0  0  0  0  0  0  0  0  0  0  0  # atno 8010 bound_to 7997
  140.2153  143.3716  152.1016 H   0  0  0  0  0  0  0  0  0  0  0  0  # atno 10167 bound_to 10162
  155.9990  130.4928  150.5397 H   0  0  0  0  0  0  0  0  0  0  0  0  # atno 10718 bound_to 10713
  153.7059  135.6953  153.5050 H   0  0  0  0  0  0  0  0  0  0  0  0  # atno 10763 bound_to 10752
  153.2308  135.4338  155.0592 H   0  0  0  0  0  0  0  0  0  0  0  0  # atno 10764 bound_to 10752
  154.8330  135.3483  154.6598 H   0  0  0  0  0  0  0  0  0  0  0  0  # atno 10765 bound_to 10752
  140.9809  133.7057  156.1682 H   0  0  0  0  0  0  0  0  0  0  0  0  # atno 11005 bound_to 11000
  146.1852  140.6433  142.9171 LP  0  0  0  0  0  0  0  0  0  0  0  0  # atno 17320 bound_to 7965
  144.7483  140.5127  143.6819 LP  0  0  0  0  0  0  0  0  0  0  0  0  # atno 17321 bound_to 7965
  139.5164  144.6977  151.5582 LP  0  0  0  0  0  0  0  0  0  0  0  0  # atno 17342 bound_to 10162
  140.6294  143.9105  150.6593 LP  0  0  0  0  0  0  0  0  0  0  0  0  # atno 17343 bound_to 10162
  157.3335  131.0704  151.1842 LP  0  0  0  0  0  0  0  0  0  0  0  0  # atno 17370 bound_to 10713
  157.2715  130.6706  149.6022 LP  0  0  0  0  0  0  0  0  0  0  0  0  # atno 17371 bound_to 10713
  140.7188  134.4381  157.5576 LP  0  0  0  0  0  0  0  0  0  0  0  0  # atno 17394 bound_to 11000
  139.8950  134.8694  156.2153 LP  0  0  0  0  0  0  0  0  0  0  0  0  # atno 17395 bound_to 11000

$$$$
