AV-unprocessed.smi:3179|AV-procd|sdf|12133|dock4
  -GOLD-   2272017573D 1   1.00000     0.00000
 Structure written by MMmdl.
 34 34  0  0  0  0  0  0  0  0  2 V2000
  145.0190  134.0041  150.6884 C   0  0  0  0  0  0  0  0  0  0  0  0
  146.0678  134.4215  151.7225 C   0  0  0  0  0  0  0  0  0  0  0  0
  146.1551  135.8838  151.8309 N   0  3  0  0  0  0  0  0  0  0  0  0
  145.1484  136.7068  152.1842 C   0  0  0  0  0  0  0  0  0  0  0  0
  145.3554  138.0368  152.2463 N   0  0  0  0  0  0  0  0  0  0  0  0
  146.6220  138.7210  151.9553 C   0  0  0  0  0  0  0  0  0  0  0  0
  147.1049  139.5292  153.1629 C   0  0  0  0  0  0  0  0  0  0  0  0
  143.9346  136.1999  152.4757 N   0  0  0  0  0  0  0  0  0  0  0  0
  142.7543  136.9784  152.8741 C   0  0  0  0  0  0  0  0  0  0  0  0
  141.8854  136.2005  153.8693 C   0  0  0  0  0  0  0  0  0  0  0  0
  140.4899  136.7238  153.9337 C   0  0  0  0  0  0  0  0  0  0  0  0
  139.5654  136.2545  154.7761 N   0  0  0  0  0  0  0  0  0  0  0  0
  138.3469  136.9286  154.6616 C   0  0  0  0  0  0  0  0  0  0  0  0
  138.3629  137.9329  153.7274 C   0  0  0  0  0  0  0  0  0  0  0  0
  139.9178  138.0694  152.9532 S   0  0  0  0  0  0  0  0  0  0  0  0
  144.9987  132.9201  150.5737 H   0  0  0  0  0  0  0  0  0  0  0  0
  145.2339  134.4372  149.7111 H   0  0  0  0  0  0  0  0  0  0  0  0
  144.0209  134.3253  150.9875 H   0  0  0  0  0  0  0  0  0  0  0  0
  145.8231  134.0028  152.6987 H   0  0  0  0  0  0  0  0  0  0  0  0
  147.0446  134.0304  151.4372 H   0  0  0  0  0  0  0  0  0  0  0  0
  144.5796  138.6259  152.5133 H   0  0  0  0  0  0  0  0  0  0  0  0
  147.3710  137.9777  151.6816 H   0  0  0  0  0  0  0  0  0  0  0  0
  146.4854  139.3763  151.0949 H   0  0  0  0  0  0  0  0  0  0  0  0
  148.0609  140.0080  152.9502 H   0  0  0  0  0  0  0  0  0  0  0  0
  147.2404  138.8906  154.0364 H   0  0  0  0  0  0  0  0  0  0  0  0
  146.3923  140.3119  153.4246 H   0  0  0  0  0  0  0  0  0  0  0  0
  143.8124  135.1990  152.4177 H   0  0  0  0  0  0  0  0  0  0  0  0
  143.0840  137.9181  153.3186 H   0  0  0  0  0  0  0  0  0  0  0  0
  142.1767  137.2255  151.9830 H   0  0  0  0  0  0  0  0  0  0  0  0
  141.8478  135.1465  153.5919 H   0  0  0  0  0  0  0  0  0  0  0  0
  142.3234  136.2460  154.8673 H   0  0  0  0  0  0  0  0  0  0  0  0
  137.5194  136.6289  155.2875 H   0  0  0  0  0  0  0  0  0  0  0  0
  137.5588  138.5987  153.4508 H   0  0  0  0  0  0  0  0  0  0  0  0
  147.0499  136.2964  151.6093 H   0  0  0  0  0  0  0  0  0  0  0  0
  1  2  1  0  0  0  0
  1 16  1  0  0  0  0
  1 17  1  0  0  0  0
  1 18  1  0  0  0  0
  2  3  1  0  0  0  0
  2 19  1  0  0  0  0
  2 20  1  0  0  0  0
  3  4  2  0  0  0  0
  3 34  1  0  0  0  0
  4  5  1  0  0  0  0
  4  8  1  0  0  0  0
  5  6  1  0  0  0  0
  5 21  1  0  0  0  0
  6  7  1  0  0  0  0
  6 22  1  0  0  0  0
  6 23  1  0  0  0  0
  7 24  1  0  0  0  0
  7 25  1  0  0  0  0
  7 26  1  0  0  0  0
  8  9  1  0  0  0  0
  8 27  1  0  0  0  0
  9 10  1  0  0  0  0
  9 28  1  0  0  0  0
  9 29  1  0  0  0  0
 10 11  1  0  0  0  0
 10 30  1  0  0  0  0
 10 31  1  0  0  0  0
 11 15  1  0  0  0  0
 11 12  2  0  0  0  0
 12 13  1  0  0  0  0
 13 14  2  0  0  0  0
 13 32  1  0  0  0  0
 14 15  1  0  0  0  0
 14 33  1  0  0  0  0
M  CHG  1   3   1
M  END
> <s_m_source_file>
AV-unprocessed.smi

> <i_m_source_file_index>
3179

> <i_lp_mmshare_version>
43012

> <i_f3d_flags>
0

> <s_epik_input>
W0NIM11bQ0gyXS9OPUMoXFtOSF1bQ0gyXVtDSDNdKVtOSF1bQ0gyXVtDSDJdYzFuW2NIXVtjSF1zMQ==

> <s_epik_cmdline>
J2VwaWtfcHl0aG9uJywgJy1waCcsICc3LjAnLCAnLXRuJywgJzgnLCAnLW1hJywgJzIwMCcsICctbWV0YWxfYmluZGluZycsICctaW1hZScsICc8aW5maWxlLm1hZT4nLCAnLW9tYWUnLCAnPG91dGZpbGUubWFlPic=

> <r_lp_tautomer_probability>
1

> <r_epik_Ionization_Penalty>
3.28801e-05

> <r_epik_Ionization_Penalty_Charging>
8.99277e-08

> <r_epik_Ionization_Penalty_Neutral>
3.27902e-05

> <r_epik_State_Penalty>
-0

> <r_epik_Charging_Adjusted_Penalty>
8.99277e-08

> <i_epik_Tot_Q>
1

> <i_epik_Tot_abs_Q>
1

> <r_epik_Metal_State_Penalty>
-0

> <b_epik_Metal_Only>
0

> <s_epik_Chemistry_Notes>
This compound has an imine and may undergo hydrolysis.

> <s_lp_Force_Field>
OPLS_2005

> <r_lp_Energy>
0.365327

> <b_lp_Chiralities_Consistent>
1

> <s_lp_Variant>
AV-unprocessed.smi:3179-2

> <Gold.Version>
5.8.1

> <Gold.Id.Protein>
6NUR|6NUR_protein|mol2

> <Gold.PLP.Fitness>
46.3344

> <Gold.PLP.PLP>
-32.1675

> <Gold.PLP.part.hbond>
-4.0000

> <Gold.PLP.part.metal>
0.0000

> <Gold.PLP.part.buried>
-5.3450

> <Gold.PLP.part.nonpolar>
-23.7694

> <Gold.PLP.part.repulsive>
0.1511

> <Gold.PLP.ligand.clash>
0.0000

> <Gold.PLP.ligand.torsion>
0.2795

> <Gold.PLP.Chemscore.Hbond>
4.9040

> <Gold.PLP.Chemscore.CHOScore>
0.0000

> <Gold.PLP.Chemscore.Metal>
0.0000

> <Gold.Chemscore.Hbonds>
donor molecule, donor type, donor heavy atom, donor atom, acceptor molecule, acceptor atom, score
      L1  H     3    34       P1  7948  1.89
      L1  H     5    21       P1 10175  1.93
      P1  H 11000 11005       L1    12  1.00

> <Gold.PLP.Chemscore.Internal.Correction>
0.0139

> <Gold.Rescore>
     Score         DG    S(hbond)    S(metal)    S(lipo)     H(rot)  DE(clash)    DE(int)     intcor
     17.88     -18.26       2.77        0.00      67.94       1.72       0.06       0.33       ----

> <Gold.Chemscore.Fitness>
17.8802

> <Gold.Chemscore.DG>
-18.2650

> <Gold.Chemscore.ZeroCoef>
-5.4800

> <Gold.Chemscore.Hbond>
2.7651

> <Gold.Chemscore.Metal>
0.0000

> <Gold.Chemscore.Lipo>
67.9436

> <Gold.Chemscore.Internal_Hbond>
0.0000

> <Gold.Chemscore.DEClash>
0.0553

> <Gold.Chemscore.DEInternal>
0.3295

> <Gold.Chemscore.Rot>
1.7187

> <Gold.Chemscore.Internal.Correction>
   9.000000E+99

> <Gold.Chemscore.Hbonds>
donor molecule, donor type, donor heavy atom, donor atom, acceptor molecule, acceptor atom, score
      L1  H     3    34       P1  7948  0.91
      L1  H     5    21       P1 10175  0.86
      P1  H 11000 11005       L1    12  0.96

> <Gold.Chemscore.Hbond.Weighted>
-9.2353

> <Gold.Chemscore.Metal.Weighted>
-0.0000

> <Gold.Chemscore.Lipo.Weighted>
-7.9494

> <Gold.Chemscore.Internal_Hbond.Weighted>
0.0000

> <Gold.Chemscore.DEClash.Weighted>
0.0553

> <Gold.Chemscore.DEInternal.Weighted>
0.3295

> <Gold.Chemscore.Rot.Weighted>
4.3998

> <Gold.Chemscore.Internal.Correction.Weighted>
   9.000000E+99

> <Gold.Protein.RotatedTorsions>
[ 6907 6896 6895 6894 ] final  -19.13 input  -60.11 | X-H torsion
[ 7974 7965 7964 7962 ] final   74.98 input  175.53 | X-H torsion
[ 8008 7997 7996 7995 ] final   12.35 input   59.86 | X-H torsion
[ 10167 10162 10161 10158 ] final   80.55 input  -65.29 | X-H torsion
[ 10718 10713 10712 10709 ] final -179.66 input   66.30 | X-H torsion
[ 10763 10752 10751 10750 ] final   60.94 input  -60.55 | X-H torsion
[ 11005 11000 10999 10996 ] final   72.59 input  -57.11 | X-H torsion

> <Gold.Protein.ActiveResidues>
 VAL166  LYS551  ARG553  GLY616  TRP617  ASP618  TYR619  PRO620  LYS621  CYS622 
 ASP623  PHE694  ASN695  SER759  ASP760  ASP761  ALA762  ILE779  LEU786  VAL792 
 PHE793  MET794  SER795  GLU796  ALA797  LYS798  CYS799  TRP800  GLU811  SER814 

> <Gold.Protein.RotatedAtoms>
  151.2678  135.0675  159.9122 H   0  0  0  0  0  0  0  0  0  0  0  0  # atno 6907 bound_to 6896
  152.5355  134.0162  159.7971 H   0  0  0  0  0  0  0  0  0  0  0  0  # atno 6908 bound_to 6896
  151.0396  133.5668  159.2683 H   0  0  0  0  0  0  0  0  0  0  0  0  # atno 6909 bound_to 6896
  145.7214  139.2650  143.1594 H   0  0  0  0  0  0  0  0  0  0  0  0  # atno 7974 bound_to 7965
  154.8195  140.2881  155.5797 H   0  0  0  0  0  0  0  0  0  0  0  0  # atno 8008 bound_to 7997
  156.2996  140.2553  156.3029 H   0  0  0  0  0  0  0  0  0  0  0  0  # atno 8009 bound_to 7997
  154.9355  140.0382  157.2059 H   0  0  0  0  0  0  0  0  0  0  0  0  # atno 8010 bound_to 7997
  139.9485  144.6042  150.8183 H   0  0  0  0  0  0  0  0  0  0  0  0  # atno 10167 bound_to 10162
  156.8625  130.9756  151.3082 H   0  0  0  0  0  0  0  0  0  0  0  0  # atno 10718 bound_to 10713
  152.9935  135.5518  154.5954 H   0  0  0  0  0  0  0  0  0  0  0  0  # atno 10763 bound_to 10752
  154.5307  135.2813  155.1185 H   0  0  0  0  0  0  0  0  0  0  0  0  # atno 10764 bound_to 10752
  154.2501  135.6400  153.5290 H   0  0  0  0  0  0  0  0  0  0  0  0  # atno 10765 bound_to 10752
  139.9483  134.7273  156.0925 H   0  0  0  0  0  0  0  0  0  0  0  0  # atno 11005 bound_to 11000
  146.0622  140.7959  142.9729 LP  0  0  0  0  0  0  0  0  0  0  0  0  # atno 17320 bound_to 7965
  144.6916  140.3214  143.7231 LP  0  0  0  0  0  0  0  0  0  0  0  0  # atno 17321 bound_to 7965
  140.7590  143.3119  151.2825 LP  0  0  0  0  0  0  0  0  0  0  0  0  # atno 17342 bound_to 10162
  139.6647  144.0126  152.2715 LP  0  0  0  0  0  0  0  0  0  0  0  0  # atno 17343 bound_to 10162
  157.6242  130.8679  149.9161 LP  0  0  0  0  0  0  0  0  0  0  0  0  # atno 17370 bound_to 10713
  156.0769  130.3678  150.0659 LP  0  0  0  0  0  0  0  0  0  0  0  0  # atno 17371 bound_to 10713
  141.1139  133.6634  156.3046 LP  0  0  0  0  0  0  0  0  0  0  0  0  # atno 17394 bound_to 11000
  140.5781  134.5773  157.5473 LP  0  0  0  0  0  0  0  0  0  0  0  0  # atno 17395 bound_to 11000

$$$$
