AV-unprocessed.smi:3237|AV-procd|sdf|12372|dock4
  -GOLD-   2272018233D 1   1.00000     0.00000
 Structure written by MMmdl.
 36 38  0  0  0  0  0  0  0  0  3 V2000
  143.6979  143.4472  163.1051 C   0  0  0  0  0  0  0  0  0  0  0  0
  144.2961  143.2220  161.7590 C   0  0  0  0  0  0  0  0  0  0  0  0
  145.5545  142.8878  161.3442 C   0  0  0  0  0  0  0  0  0  0  0  0
  145.4252  142.8427  159.9303 C   0  0  0  0  0  0  0  0  0  0  0  0
  146.5407  142.5245  159.1114 N   0  0  0  0  0  0  0  0  0  0  0  0
  146.7336  142.7964  157.8078 C   0  0  0  0  0  0  0  0  0  0  0  0
  145.8677  143.3946  157.1585 O   0  0  0  0  0  0  0  0  0  0  0  0
  147.9346  142.3384  157.3576 N   0  5  0  0  0  0  0  0  0  0  0  0
  149.0730  141.9884  158.2161 C   0  0  1  0  0  0  0  0  0  0  0  0
  150.1370  141.2527  157.3933 C   0  0  0  0  0  0  0  0  0  0  0  0
  151.0620  142.3486  156.8391 C   0  0  0  0  0  0  0  0  0  0  0  0
  150.6756  143.6096  157.5106 N   0  3  2  0  0  0  0  0  0  0  0  0
  151.8076  144.4988  157.8469 C   0  0  0  0  0  0  0  0  0  0  0  0
  152.5048  144.1265  159.1333 C   0  0  0  0  0  0  0  0  0  0  0  0
  151.5778  145.3224  159.0912 C   0  0  0  0  0  0  0  0  0  0  0  0
  149.8216  143.2498  158.6583 C   0  0  0  0  0  0  0  0  0  0  0  0
  144.1960  143.1196  159.5204 N   0  0  0  0  0  0  0  0  0  0  0  0
  143.4665  143.3643  160.6899 O   0  0  0  0  0  0  0  0  0  0  0  0
  144.4659  143.4410  163.8787 H   0  0  0  0  0  0  0  0  0  0  0  0
  142.9736  142.6676  163.3407 H   0  0  0  0  0  0  0  0  0  0  0  0
  143.1867  144.4091  163.1450 H   0  0  0  0  0  0  0  0  0  0  0  0
  146.4268  142.7079  161.9551 H   0  0  0  0  0  0  0  0  0  0  0  0
  147.2959  142.0406  159.5741 H   0  0  0  0  0  0  0  0  0  0  0  0
  148.7714  141.3904  159.0769 H   0  0  0  0  0  0  0  0  0  0  0  0
  150.7115  140.6009  158.0527 H   0  0  0  0  0  0  0  0  0  0  0  0
  149.7171  140.6210  156.6089 H   0  0  0  0  0  0  0  0  0  0  0  0
  152.1060  142.0960  157.0324 H   0  0  0  0  0  0  0  0  0  0  0  0
  150.9452  142.4668  155.7608 H   0  0  0  0  0  0  0  0  0  0  0  0
  152.3720  144.9052  157.0093 H   0  0  0  0  0  0  0  0  0  0  0  0
  152.1616  143.2420  159.6671 H   0  0  0  0  0  0  0  0  0  0  0  0
  153.5725  144.3254  159.2013 H   0  0  0  0  0  0  0  0  0  0  0  0
  152.0353  146.3089  159.1317 H   0  0  0  0  0  0  0  0  0  0  0  0
  150.6188  145.2329  159.5981 H   0  0  0  0  0  0  0  0  0  0  0  0
  149.1640  144.0708  158.9476 H   0  0  0  0  0  0  0  0  0  0  0  0
  150.4519  143.0138  159.5175 H   0  0  0  0  0  0  0  0  0  0  0  0
  150.0715  144.0979  156.8649 H   0  0  0  0  0  0  0  0  0  0  0  0
  1  2  1  0  0  0  0
  1 19  1  0  0  0  0
  1 20  1  0  0  0  0
  1 21  1  0  0  0  0
  2 18  1  0  0  0  0
  2  3  2  0  0  0  0
  3  4  1  0  0  0  0
  3 22  1  0  0  0  0
  4  5  1  0  0  0  0
  4 17  2  0  0  0  0
  5  6  1  0  0  0  0
  5 23  1  0  0  0  0
  6  7  2  0  0  0  0
  6  8  1  0  0  0  0
  8  9  1  0  0  0  0
  9 16  1  0  0  0  0
  9 10  1  0  0  0  0
  9 24  1  0  0  0  0
 10 11  1  0  0  0  0
 10 25  1  0  0  0  0
 10 26  1  0  0  0  0
 11 12  1  0  0  0  0
 11 27  1  0  0  0  0
 11 28  1  0  0  0  0
 12 13  1  0  0  0  0
 12 16  1  0  0  0  0
 12 36  1  0  0  0  0
 13 15  1  0  0  0  0
 13 14  1  0  0  0  0
 13 29  1  0  0  0  0
 14 15  1  0  0  0  0
 14 30  1  0  0  0  0
 14 31  1  0  0  0  0
 15 32  1  0  0  0  0
 15 33  1  0  0  0  0
 16 34  1  0  0  0  0
 16 35  1  0  0  0  0
 17 18  1  0  0  0  0
M  CHG  1   8  -1
M  CHG  1  12   1
M  END
> <s_m_source_file>
AV-unprocessed.smi

> <i_m_source_file_index>
3237

> <i_lp_mmshare_version>
43012

> <i_f3d_flags>
0

> <s_epik_input>
W0NIM11jMVtjSF1jKG5vMSlbTkhdQyg9TylbTkhdW0NAQEhdMltDSDJdW0NIMl1OKFtDSDJdMilbQ0hdM1tDSDJdW0NIMl0z

> <s_epik_cmdline>
J2VwaWtfcHl0aG9uJywgJy1waCcsICc3LjAnLCAnLXRuJywgJzgnLCAnLW1hJywgJzIwMCcsICctbWV0YWxfYmluZGluZycsICctaW1hZScsICc8aW5maWxlLm1hZT4nLCAnLW9tYWUnLCAnPG91dGZpbGUubWFlPic=

> <r_epik_Ionization_Penalty>
6.76456

> <r_epik_Ionization_Penalty_Charging>
6.76456

> <r_epik_Ionization_Penalty_Neutral>
5.76722e-06

> <r_epik_State_Penalty>
6.78919

> <r_epik_Charging_Adjusted_Penalty>
13.5538

> <i_epik_Tot_Q>
0

> <i_epik_Tot_abs_Q>
2

> <r_epik_Metal_State_Penalty>
2.728

> <b_epik_Metal_Only>
1

> <s_lp_Force_Field>
OPLS_2005

> <r_lp_Energy>
30.7434

> <b_lp_Chiralities_Consistent>
1

> <s_lp_Variant>
AV-unprocessed.smi:3237-10

> <Gold.Version>
5.8.1

> <Gold.Id.Protein>
6NUR|6NUR_protein|mol2

> <Gold.PLP.Fitness>
38.7587

> <Gold.PLP.PLP>
-33.8543

> <Gold.PLP.part.hbond>
-1.0000

> <Gold.PLP.part.metal>
0.0000

> <Gold.PLP.part.buried>
-5.1217

> <Gold.PLP.part.nonpolar>
-27.9270

> <Gold.PLP.part.repulsive>
1.0007

> <Gold.PLP.ligand.clash>
0.4054

> <Gold.PLP.ligand.torsion>
1.0050

> <Gold.PLP.Chemscore.Hbond>
2.0000

> <Gold.PLP.Chemscore.CHOScore>
0.0000

> <Gold.PLP.Chemscore.Metal>
0.0000

> <Gold.Chemscore.Hbonds>
donor molecule, donor type, donor heavy atom, donor atom, acceptor molecule, acceptor atom, score
      L1  H    12    36       P1  8028  2.00

> <Gold.PLP.Chemscore.Internal.Correction>
1.3197

> <Gold.Rescore>
     Score         DG    S(hbond)    S(metal)    S(lipo)     H(rot)  DE(clash)    DE(int)     intcor
     13.50     -15.74       0.98        0.00      86.87       1.25       0.02       2.22       ----

> <Gold.Chemscore.Fitness>
13.5008

> <Gold.Chemscore.DG>
-15.7391

> <Gold.Chemscore.ZeroCoef>
-5.4800

> <Gold.Chemscore.Hbond>
0.9838

> <Gold.Chemscore.Metal>
0.0000

> <Gold.Chemscore.Lipo>
86.8715

> <Gold.Chemscore.Internal_Hbond>
0.0000

> <Gold.Chemscore.DEClash>
0.0202

> <Gold.Chemscore.DEInternal>
2.2180

> <Gold.Chemscore.Rot>
1.2464

> <Gold.Chemscore.Internal.Correction>
   9.000000E+99

> <Gold.Chemscore.Hbonds>
donor molecule, donor type, donor heavy atom, donor atom, acceptor molecule, acceptor atom, score
      L1  H    12    36       P1  8028  0.96

> <Gold.Chemscore.Hbond.Weighted>
-3.2860

> <Gold.Chemscore.Metal.Weighted>
-0.0000

> <Gold.Chemscore.Lipo.Weighted>
-10.1640

> <Gold.Chemscore.Internal_Hbond.Weighted>
0.0000

> <Gold.Chemscore.DEClash.Weighted>
0.0202

> <Gold.Chemscore.DEInternal.Weighted>
2.2180

> <Gold.Chemscore.Rot.Weighted>
3.1909

> <Gold.Chemscore.Internal.Correction.Weighted>
   9.000000E+99

> <Gold.Protein.RotatedTorsions>
[ 6907 6896 6895 6894 ] final  102.05 input  -60.11 | X-H torsion
[ 7974 7965 7964 7962 ] final   81.39 input  175.53 | X-H torsion
[ 8008 7997 7996 7995 ] final -130.83 input   59.86 | X-H torsion
[ 10167 10162 10161 10158 ] final  107.35 input  -65.29 | X-H torsion
[ 10718 10713 10712 10709 ] final  128.78 input   66.30 | X-H torsion
[ 10763 10752 10751 10750 ] final  172.93 input  -60.55 | X-H torsion
[ 11005 11000 10999 10996 ] final   75.15 input  -57.11 | X-H torsion

> <Gold.Protein.ActiveResidues>
 VAL166  LYS551  ARG553  GLY616  TRP617  ASP618  TYR619  PRO620  LYS621  CYS622 
 ASP623  PHE694  ASN695  SER759  ASP760  ASP761  ALA762  ILE779  LEU786  VAL792 
 PHE793  MET794  SER795  GLU796  ALA797  LYS798  CYS799  TRP800  GLU811  SER814 

> <Gold.Protein.RotatedAtoms>
  152.5334  134.0033  159.7904 H   0  0  0  0  0  0  0  0  0  0  0  0  # atno 6907 bound_to 6896
  151.0248  133.5836  159.2674 H   0  0  0  0  0  0  0  0  0  0  0  0  # atno 6908 bound_to 6896
  151.2862  135.0735  159.9241 H   0  0  0  0  0  0  0  0  0  0  0  0  # atno 6909 bound_to 6896
  145.6388  139.2421  143.2042 H   0  0  0  0  0  0  0  0  0  0  0  0  # atno 7974 bound_to 7965
  155.3022  140.0453  157.3030 H   0  0  0  0  0  0  0  0  0  0  0  0  # atno 8008 bound_to 7997
  154.5480  140.2308  155.8498 H   0  0  0  0  0  0  0  0  0  0  0  0  # atno 8009 bound_to 7997
  156.1941  140.3043  155.9399 H   0  0  0  0  0  0  0  0  0  0  0  0  # atno 8010 bound_to 7997
  139.6934  144.7105  151.1308 H   0  0  0  0  0  0  0  0  0  0  0  0  # atno 10167 bound_to 10162
  157.5213  131.1098  150.9149 H   0  0  0  0  0  0  0  0  0  0  0  0  # atno 10718 bound_to 10713
  154.4330  135.2760  155.1900 H   0  0  0  0  0  0  0  0  0  0  0  0  # atno 10763 bound_to 10752
  154.3798  135.6090  153.5788 H   0  0  0  0  0  0  0  0  0  0  0  0  # atno 10764 bound_to 10752
  152.9837  135.5877  154.4644 H   0  0  0  0  0  0  0  0  0  0  0  0  # atno 10765 bound_to 10752
  139.9357  134.7493  156.1235 H   0  0  0  0  0  0  0  0  0  0  0  0  # atno 11005 bound_to 11000
  146.1297  140.7201  142.9418 LP  0  0  0  0  0  0  0  0  0  0  0  0  # atno 17320 bound_to 7965
  144.7165  140.4228  143.7040 LP  0  0  0  0  0  0  0  0  0  0  0  0  # atno 17321 bound_to 7965
  140.7689  143.5526  150.9187 LP  0  0  0  0  0  0  0  0  0  0  0  0  # atno 17342 bound_to 10162
  139.9205  143.6612  152.3098 LP  0  0  0  0  0  0  0  0  0  0  0  0  # atno 17343 bound_to 10162
  156.9758  130.5508  149.5293 LP  0  0  0  0  0  0  0  0  0  0  0  0  # atno 17370 bound_to 10713
  156.0355  130.5443  150.8644 LP  0  0  0  0  0  0  0  0  0  0  0  0  # atno 17371 bound_to 10713
  141.0969  133.6692  156.2666 LP  0  0  0  0  0  0  0  0  0  0  0  0  # atno 17394 bound_to 11000
  140.6082  134.5485  157.5529 LP  0  0  0  0  0  0  0  0  0  0  0  0  # atno 17395 bound_to 11000

$$$$
