AV-unprocessed.smi:157|AV-procd|sdf|1322|dock7
  -GOLD-   2262019 13D 1   1.00000     0.00000
 Structure written by MMmdl.
 36 38  0  0  0  0  0  0  0  0  2 V2000
  149.4377  135.7277  154.8396 O   0  0  0  0  0  0  0  0  0  0  0  0
  149.2054  136.9289  155.5436 C   0  0  0  0  0  0  0  0  0  0  0  0
  150.4548  137.3265  156.3443 C   0  0  2  0  0  0  0  0  0  0  0  0
  150.2284  138.6107  156.9230 O   0  0  0  0  0  0  0  0  0  0  0  0
  151.4340  139.2975  156.9261 C   0  0  2  0  0  0  0  0  0  0  0  0
  151.1654  140.7642  157.0096 N   0  0  0  0  0  0  0  0  0  0  0  0
  150.2842  141.4683  156.2679 C   0  0  0  0  0  0  0  0  0  0  0  0
  150.2505  142.7609  156.5450 N   0  3  0  0  0  0  0  0  0  0  0  0
  151.1786  142.9718  157.5427 C   0  0  0  0  0  0  0  0  0  0  0  0
  151.7301  141.7190  157.8226 C   0  0  0  0  0  0  0  0  0  0  0  0
  152.7190  141.3571  158.7502 N   0  0  0  0  0  0  0  0  0  0  0  0
  153.0989  142.1308  159.7146 C   0  0  0  0  0  0  0  0  0  0  0  0
  152.7202  143.4337  159.9923 N   0  0  0  0  0  0  0  0  0  0  0  0
  152.6389  144.4737  158.9820 C   0  0  0  0  0  0  0  0  0  0  0  0
  151.4105  144.3529  158.0707 C   0  0  2  0  0  0  0  0  0  0  0  0
  150.2870  144.8695  158.7540 O   0  0  0  0  0  0  0  0  0  0  0  0
  152.0942  138.9414  155.6043 C   0  0  0  0  0  0  0  0  0  0  0  0
  151.7318  137.4705  155.4849 C   0  0  1  0  0  0  0  0  0  0  0  0
  152.7714  136.6722  156.0154 O   0  0  0  0  0  0  0  0  0  0  0  0
  150.6119  136.6192  157.1612 H   0  0  0  0  0  0  0  0  0  0  0  0
  152.0313  139.0460  157.8042 H   0  0  0  0  0  0  0  0  0  0  0  0
  151.5697  145.0105  157.2152 H   0  0  0  0  0  0  0  0  0  0  0  0
  151.5732  137.1895  154.4430 H   0  0  0  0  0  0  0  0  0  0  0  0
  149.4397  135.9168  153.9135 H   0  0  0  0  0  0  0  0  0  0  0  0
  148.9216  137.7166  154.8449 H   0  0  0  0  0  0  0  0  0  0  0  0
  148.3616  136.7730  156.2161 H   0  0  0  0  0  0  0  0  0  0  0  0
  149.6645  141.0141  155.5154 H   0  0  0  0  0  0  0  0  0  0  0  0
  153.8248  141.7544  160.4368 H   0  0  0  0  0  0  0  0  0  0  0  0
  152.9423  143.8175  160.9000 H   0  0  0  0  0  0  0  0  0  0  0  0
  152.6699  145.4527  159.4614 H   0  0  0  0  0  0  0  0  0  0  0  0
  153.5407  144.4071  158.3714 H   0  0  0  0  0  0  0  0  0  0  0  0
  149.5781  144.9764  158.1388 H   0  0  0  0  0  0  0  0  0  0  0  0
  151.6250  139.5132  154.8021 H   0  0  0  0  0  0  0  0  0  0  0  0
  153.1645  139.1520  155.6180 H   0  0  0  0  0  0  0  0  0  0  0  0
  153.2368  137.1780  156.6644 H   0  0  0  0  0  0  0  0  0  0  0  0
  149.6631  143.4557  156.1014 H   0  0  0  0  0  0  0  0  0  0  0  0
  1  2  1  0  0  0  0
  1 24  1  0  0  0  0
  2  3  1  0  0  0  0
  2 25  1  0  0  0  0
  2 26  1  0  0  0  0
  3 20  1  0  0  0  0
  3 18  1  0  0  0  0
  3  4  1  0  0  0  0
  4  5  1  0  0  0  0
  5 21  1  0  0  0  0
  5  6  1  0  0  0  0
  5 17  1  0  0  0  0
  6 10  1  0  0  0  0
  6  7  1  0  0  0  0
  7  8  2  0  0  0  0
  7 27  1  0  0  0  0
  8  9  1  0  0  0  0
  8 36  1  0  0  0  0
  9 15  1  0  0  0  0
  9 10  2  0  0  0  0
 10 11  1  0  0  0  0
 11 12  2  0  0  0  0
 12 13  1  0  0  0  0
 12 28  1  0  0  0  0
 13 14  1  0  0  0  0
 13 29  1  0  0  0  0
 14 15  1  0  0  0  0
 14 30  1  0  0  0  0
 14 31  1  0  0  0  0
 15 22  1  0  0  0  0
 15 16  1  0  0  0  0
 16 32  1  0  0  0  0
 17 18  1  0  0  0  0
 17 33  1  0  0  0  0
 17 34  1  0  0  0  0
 18 23  1  0  0  0  0
 18 19  1  0  0  0  0
 19 35  1  0  0  0  0
M  CHG  1   8   1
M  END
> <s_m_source_file>
AV-unprocessed.smi

> <i_m_source_file_index>
157

> <i_lp_mmshare_version>
43012

> <i_f3d_flags>
0

> <s_epik_input>
W09IXVtDSDJdW0NASF0xT1tDQEhdKFtDSDJdW0NAQEhdMVtPSF0pbihbY0hdbjIpYyhjMjMpTj1bQ0hdW05IXVtDSDJdW0NASF0zW09IXQ==

> <s_epik_cmdline>
J2VwaWtfcHl0aG9uJywgJy1waCcsICc3LjAnLCAnLXRuJywgJzgnLCAnLW1hJywgJzIwMCcsICctbWV0YWxfYmluZGluZycsICctaW1hZScsICc8aW5maWxlLm1hZT4nLCAnLW9tYWUnLCAnPG91dGZpbGUubWFlPic=

> <r_epik_Ionization_Penalty>
1.68594

> <r_epik_Ionization_Penalty_Charging>
0

> <r_epik_Ionization_Penalty_Neutral>
1.68594

> <r_epik_State_Penalty>
1.79006

> <r_epik_Charging_Adjusted_Penalty>
1.79006

> <i_epik_Tot_Q>
1

> <i_epik_Tot_abs_Q>
1

> <r_epik_Metal_State_Penalty>
5.85324

> <b_epik_Metal_Only>
0

> <s_epik_Chemistry_Notes>
This compound has an imine and may undergo hydrolysis. This compound contains an acetal/aminal-like group ( X-CH(R)-Y where X, Y are N, S, or O) that may be acid/base labile, releasing an aldehyde.

> <s_lp_Force_Field>
OPLS_2005

> <r_lp_Energy>
53.7485

> <b_lp_Chiralities_Consistent>
1

> <s_lp_Variant>
AV-unprocessed.smi:157-32

> <Gold.Version>
5.8.1

> <Gold.Id.Protein>
6NUR|6NUR_protein|mol2

> <Gold.PLP.Fitness>
47.7554

> <Gold.PLP.PLP>
-33.3581

> <Gold.PLP.part.hbond>
-3.9963

> <Gold.PLP.part.metal>
0.0000

> <Gold.PLP.part.buried>
-6.6008

> <Gold.PLP.part.nonpolar>
-25.1379

> <Gold.PLP.part.repulsive>
0.1169

> <Gold.PLP.ligand.clash>
0.0000

> <Gold.PLP.ligand.torsion>
0.2054

> <Gold.PLP.Chemscore.Hbond>
4.9280

> <Gold.PLP.Chemscore.CHOScore>
0.0000

> <Gold.PLP.Chemscore.Metal>
0.0000

> <Gold.Chemscore.Hbonds>
donor molecule, donor type, donor heavy atom, donor atom, acceptor molecule, acceptor atom, score
      L1  H     1    24       P1  7948  0.83
      L1  H     8    36       P1  8028  2.00
      L1  H    16    32       P1  8029  0.76
      P1  H 10752 10765       L1    19  0.88

> <Gold.PLP.Chemscore.Internal.Correction>
0.0240

> <Gold.Rescore>
     Score         DG    S(hbond)    S(metal)    S(lipo)     H(rot)  DE(clash)    DE(int)     intcor
     13.45     -13.46       3.46        0.00      49.62       3.67       0.00       0.01       ----

> <Gold.Chemscore.Fitness>
13.4523

> <Gold.Chemscore.DG>
-13.4645

> <Gold.Chemscore.ZeroCoef>
-5.4800

> <Gold.Chemscore.Hbond>
3.4621

> <Gold.Chemscore.Metal>
0.0000

> <Gold.Chemscore.Lipo>
49.6218

> <Gold.Chemscore.Internal_Hbond>
0.0000

> <Gold.Chemscore.DEClash>
0.0000

> <Gold.Chemscore.DEInternal>
0.0121

> <Gold.Chemscore.Rot>
3.6659

> <Gold.Chemscore.Internal.Correction>
   9.000000E+99

> <Gold.Chemscore.Hbonds>
donor molecule, donor type, donor heavy atom, donor atom, acceptor molecule, acceptor atom, score
      L1  H     1    24       P1  7948  0.49
      L1  H     8    36       P1  8028  0.95
      L1  H    16    32       P1  8029  0.17
      P1  H 10752 10765       L1    19  0.73

> <Gold.Chemscore.Hbond.Weighted>
-11.5635

> <Gold.Chemscore.Metal.Weighted>
-0.0000

> <Gold.Chemscore.Lipo.Weighted>
-5.8057

> <Gold.Chemscore.Internal_Hbond.Weighted>
0.0000

> <Gold.Chemscore.DEClash.Weighted>
0.0000

> <Gold.Chemscore.DEInternal.Weighted>
0.0121

> <Gold.Chemscore.Rot.Weighted>
9.3848

> <Gold.Chemscore.Internal.Correction.Weighted>
   9.000000E+99

> <Gold.Protein.RotatedTorsions>
[ 6907 6896 6895 6894 ] final   57.77 input  -60.11 | X-H torsion
[ 7974 7965 7964 7962 ] final -177.11 input  175.53 | X-H torsion
[ 8008 7997 7996 7995 ] final  -71.71 input   59.86 | X-H torsion
[ 10167 10162 10161 10158 ] final -133.42 input  -65.29 | X-H torsion
[ 10718 10713 10712 10709 ] final -144.52 input   66.30 | X-H torsion
[ 10763 10752 10751 10750 ] final -147.67 input  -60.55 | X-H torsion
[ 11005 11000 10999 10996 ] final   32.34 input  -57.11 | X-H torsion

> <Gold.Protein.ActiveResidues>
 VAL166  LYS551  ARG553  GLY616  TRP617  ASP618  TYR619  PRO620  LYS621  CYS622 
 ASP623  PHE694  ASN695  SER759  ASP760  ASP761  ALA762  ILE779  LEU786  VAL792 
 PHE793  MET794  SER795  GLU796  ALA797  LYS798  CYS799  TRP800  GLU811  SER814 

> <Gold.Protein.RotatedAtoms>
  152.3762  134.6659  160.0158 H   0  0  0  0  0  0  0  0  0  0  0  0  # atno 6907 bound_to 6896
  151.6936  133.3305  159.3257 H   0  0  0  0  0  0  0  0  0  0  0  0  # atno 6908 bound_to 6896
  150.7712  134.6612  159.6385 H   0  0  0  0  0  0  0  0  0  0  0  0  # atno 6909 bound_to 6896
  144.7127  140.1069  143.6413 H   0  0  0  0  0  0  0  0  0  0  0  0  # atno 7974 bound_to 7965
  154.5109  140.0810  156.7988 H   0  0  0  0  0  0  0  0  0  0  0  0  # atno 8008 bound_to 7997
  155.3787  140.3426  155.4228 H   0  0  0  0  0  0  0  0  0  0  0  0  # atno 8009 bound_to 7997
  156.1572  140.1577  156.8660 H   0  0  0  0  0  0  0  0  0  0  0  0  # atno 8010 bound_to 7997
  139.8985  143.6636  152.2599 H   0  0  0  0  0  0  0  0  0  0  0  0  # atno 10167 bound_to 10162
  156.3712  130.7789  151.1969 H   0  0  0  0  0  0  0  0  0  0  0  0  # atno 10718 bound_to 10713
  154.8273  135.3354  154.6854 H   0  0  0  0  0  0  0  0  0  0  0  0  # atno 10763 bound_to 10752
  153.7479  135.6941  153.4957 H   0  0  0  0  0  0  0  0  0  0  0  0  # atno 10764 bound_to 10752
  153.2197  135.4453  155.0426 H   0  0  0  0  0  0  0  0  0  0  0  0  # atno 10765 bound_to 10752
  140.2745  134.3044  155.7818 H   0  0  0  0  0  0  0  0  0  0  0  0  # atno 11005 bound_to 11000
  145.9489  139.2720  143.1224 LP  0  0  0  0  0  0  0  0  0  0  0  0  # atno 17320 bound_to 7965
  145.9345  140.9025  143.0339 LP  0  0  0  0  0  0  0  0  0  0  0  0  # atno 17321 bound_to 7965
  139.7046  144.7630  151.1214 LP  0  0  0  0  0  0  0  0  0  0  0  0  # atno 17342 bound_to 10162
  140.7712  143.5411  150.9311 LP  0  0  0  0  0  0  0  0  0  0  0  0  # atno 17343 bound_to 10162
  157.7484  131.0372  150.4443 LP  0  0  0  0  0  0  0  0  0  0  0  0  # atno 17370 bound_to 10713
  156.4670  130.4044  149.6541 LP  0  0  0  0  0  0  0  0  0  0  0  0  # atno 17371 bound_to 10713
  141.2172  133.7487  156.9385 LP  0  0  0  0  0  0  0  0  0  0  0  0  # atno 17394 bound_to 11000
  140.1342  134.9336  157.2378 LP  0  0  0  0  0  0  0  0  0  0  0  0  # atno 17395 bound_to 11000

$$$$
