AV-unprocessed.smi:2060|AV-procd|sdf|8357|dock6
  -GOLD-   2272011 23D 1   1.00000     0.00000
 Structure written by MMmdl.
 46 47  0  0  0  0  0  0  0  0  2 V2000
  144.6054  143.1143  154.7830 C   0  0  0  0  0  0  0  0  0  0  0  0
  145.8747  142.9760  155.6432 C   0  0  0  0  0  0  0  0  0  0  0  0
  146.7980  141.7679  155.2948 C   0  0  2  0  0  0  0  0  0  0  0  0
  146.9129  141.7068  153.7487 C   0  0  0  0  0  0  0  0  0  0  0  0
  146.1412  140.4543  155.8243 C   0  0  0  0  0  0  0  0  0  0  0  0
  144.9323  140.0644  155.0986 N   0  0  0  0  0  0  0  0  0  0  0  0
  144.0611  139.1199  155.4835 C   0  0  0  0  0  0  0  0  0  0  0  0
  144.1941  138.4486  156.5070 O   0  0  0  0  0  0  0  0  0  0  0  0
  143.0453  139.0088  154.6109 N   0  0  0  0  0  0  0  0  0  0  0  0
  141.9468  138.1143  154.6731 C   0  0  0  0  0  0  0  0  0  0  0  0
  140.7784  138.3412  153.8983 C   0  0  0  0  0  0  0  0  0  0  0  0
  139.9784  137.2846  154.2315 C   0  0  0  0  0  0  0  0  0  0  0  0
  138.6101  136.8755  153.8051 C   0  0  0  0  0  0  0  0  0  0  0  0
  140.6069  136.4794  155.1305 O   0  0  0  0  0  0  0  0  0  0  0  0
  141.8690  137.0167  155.4100 N   0  0  0  0  0  0  0  0  0  0  0  0
  148.1652  141.9613  155.9037 N   0  3  0  0  0  0  0  0  0  0  0  0
  148.2353  141.8743  157.3903 C   0  0  0  0  0  0  0  0  0  0  0  0
  149.6278  142.2927  157.8895 C   0  0  0  0  0  0  0  0  0  0  0  0
  150.6153  141.4621  157.2956 O   0  0  0  0  0  0  0  0  0  0  0  0
  150.6268  141.5893  155.8808 C   0  0  0  0  0  0  0  0  0  0  0  0
  149.2677  141.1542  155.3070 C   0  0  0  0  0  0  0  0  0  0  0  0
  144.0260  143.9818  155.0994 H   0  0  0  0  0  0  0  0  0  0  0  0
  143.9566  142.2437  154.8740 H   0  0  0  0  0  0  0  0  0  0  0  0
  144.8408  143.2510  153.7278 H   0  0  0  0  0  0  0  0  0  0  0  0
  146.4348  143.9098  155.5996 H   0  0  0  0  0  0  0  0  0  0  0  0
  145.5564  142.9028  156.6837 H   0  0  0  0  0  0  0  0  0  0  0  0
  145.9402  141.8062  153.2661 H   0  0  0  0  0  0  0  0  0  0  0  0
  147.3274  140.7586  153.4060 H   0  0  0  0  0  0  0  0  0  0  0  0
  147.5469  142.5025  153.3572 H   0  0  0  0  0  0  0  0  0  0  0  0
  146.8541  139.6296  155.8176 H   0  0  0  0  0  0  0  0  0  0  0  0
  145.8373  140.5727  156.8636 H   0  0  0  0  0  0  0  0  0  0  0  0
  144.7398  140.5622  154.2417 H   0  0  0  0  0  0  0  0  0  0  0  0
  143.0573  139.6307  153.8160 H   0  0  0  0  0  0  0  0  0  0  0  0
  140.5596  139.1452  153.2114 H   0  0  0  0  0  0  0  0  0  0  0  0
  138.0432  137.7334  153.4432 H   0  0  0  0  0  0  0  0  0  0  0  0
  138.0588  136.4334  154.6354 H   0  0  0  0  0  0  0  0  0  0  0  0
  138.6606  136.1401  153.0020 H   0  0  0  0  0  0  0  0  0  0  0  0
  147.5012  142.5214  157.8657 H   0  0  0  0  0  0  0  0  0  0  0  0
  148.0292  140.8561  157.7211 H   0  0  0  0  0  0  0  0  0  0  0  0
  149.8262  143.3412  157.6610 H   0  0  0  0  0  0  0  0  0  0  0  0
  149.6849  142.1867  158.9730 H   0  0  0  0  0  0  0  0  0  0  0  0
  150.8581  142.6172  155.5967 H   0  0  0  0  0  0  0  0  0  0  0  0
  151.4219  140.9618  155.4776 H   0  0  0  0  0  0  0  0  0  0  0  0
  149.1123  140.0940  155.5083 H   0  0  0  0  0  0  0  0  0  0  0  0
  149.3162  141.2727  154.2264 H   0  0  0  0  0  0  0  0  0  0  0  0
  148.4001  142.9192  155.6856 H   0  0  0  0  0  0  0  0  0  0  0  0
  1  2  1  0  0  0  0
  1 22  1  0  0  0  0
  1 23  1  0  0  0  0
  1 24  1  0  0  0  0
  2  3  1  0  0  0  0
  2 25  1  0  0  0  0
  2 26  1  0  0  0  0
  3  4  1  0  0  0  0
  3  5  1  0  0  0  0
  3 16  1  0  0  0  0
  4 27  1  0  0  0  0
  4 28  1  0  0  0  0
  4 29  1  0  0  0  0
  5  6  1  0  0  0  0
  5 30  1  0  0  0  0
  5 31  1  0  0  0  0
  6  7  1  0  0  0  0
  6 32  1  0  0  0  0
  7  8  2  0  0  0  0
  7  9  1  0  0  0  0
  9 10  1  0  0  0  0
  9 33  1  0  0  0  0
 10 15  2  0  0  0  0
 10 11  1  0  0  0  0
 11 12  2  0  0  0  0
 11 34  1  0  0  0  0
 12 13  1  0  0  0  0
 12 14  1  0  0  0  0
 13 35  1  0  0  0  0
 13 36  1  0  0  0  0
 13 37  1  0  0  0  0
 14 15  1  0  0  0  0
 16 21  1  0  0  0  0
 16 17  1  0  0  0  0
 16 46  1  0  0  0  0
 17 18  1  0  0  0  0
 17 38  1  0  0  0  0
 17 39  1  0  0  0  0
 18 19  1  0  0  0  0
 18 40  1  0  0  0  0
 18 41  1  0  0  0  0
 19 20  1  0  0  0  0
 20 21  1  0  0  0  0
 20 42  1  0  0  0  0
 20 43  1  0  0  0  0
 21 44  1  0  0  0  0
 21 45  1  0  0  0  0
M  CHG  1  16   1
M  END
> <s_m_source_file>
AV-unprocessed.smi

> <i_m_source_file_index>
2060

> <i_lp_mmshare_version>
43012

> <i_f3d_flags>
0

> <s_epik_input>
W0NIMl0xW0NIMl1PW0NIMl1bQ0gyXU4xW0NAQF0oW0NIM10pKFtDSDJdW0NIM10pW0NIMl1bTkhdQyg9TylbTkhdYzJbY0hdYyhbQ0gzXSlvbjI=

> <s_epik_cmdline>
J2VwaWtfcHl0aG9uJywgJy1waCcsICc3LjAnLCAnLXRuJywgJzgnLCAnLW1hJywgJzIwMCcsICctbWV0YWxfYmluZGluZycsICctaW1hZScsICc8aW5maWxlLm1hZT4nLCAnLW9tYWUnLCAnPG91dGZpbGUubWFlPic=

> <r_epik_Ionization_Penalty>
0.563843

> <r_epik_Ionization_Penalty_Charging>
0.563819

> <r_epik_Ionization_Penalty_Neutral>
2.4442e-05

> <r_epik_State_Penalty>
0.575199

> <r_epik_Charging_Adjusted_Penalty>
1.13902

> <i_epik_Tot_Q>
1

> <i_epik_Tot_abs_Q>
1

> <r_epik_Metal_State_Penalty>
0.577669

> <b_epik_Metal_Only>
0

> <s_lp_Force_Field>
OPLS_2005

> <r_lp_Energy>
25.7644

> <b_lp_Chiralities_Consistent>
1

> <s_lp_Variant>
AV-unprocessed.smi:2060-4

> <Gold.Version>
5.8.1

> <Gold.Id.Protein>
6NUR|6NUR_protein|mol2

> <Gold.PLP.Fitness>
42.0313

> <Gold.PLP.PLP>
-29.5268

> <Gold.PLP.part.hbond>
-4.0000

> <Gold.PLP.part.metal>
0.0000

> <Gold.PLP.part.buried>
-6.2200

> <Gold.PLP.part.nonpolar>
-20.5125

> <Gold.PLP.part.repulsive>
0.1346

> <Gold.PLP.ligand.clash>
0.0000

> <Gold.PLP.ligand.torsion>
0.6944

> <Gold.PLP.Chemscore.Hbond>
4.5617

> <Gold.PLP.Chemscore.CHOScore>
0.0000

> <Gold.PLP.Chemscore.Metal>
0.0000

> <Gold.Chemscore.Hbonds>
donor molecule, donor type, donor heavy atom, donor atom, acceptor molecule, acceptor atom, score
      L1  H     6    32       P1 10175  0.84
      L1  H     9    33       P1 10175  1.00
      L1  H    16    46       P1  8028  2.00
      P1  H 11000 11005       L1    14  0.71

> <Gold.PLP.Chemscore.Internal.Correction>
0.2081

> <Gold.Rescore>
     Score         DG    S(hbond)    S(metal)    S(lipo)     H(rot)  DE(clash)    DE(int)     intcor
     18.43     -20.33       3.57        0.00      63.62       1.77       0.04       1.86       ----

> <Gold.Chemscore.Fitness>
18.4285

> <Gold.Chemscore.DG>
-20.3317

> <Gold.Chemscore.ZeroCoef>
-5.4800

> <Gold.Chemscore.Hbond>
3.5724

> <Gold.Chemscore.Metal>
0.0000

> <Gold.Chemscore.Lipo>
63.6191

> <Gold.Chemscore.Internal_Hbond>
0.0000

> <Gold.Chemscore.DEClash>
0.0391

> <Gold.Chemscore.DEInternal>
1.8641

> <Gold.Chemscore.Rot>
1.7670

> <Gold.Chemscore.Internal.Correction>
   9.000000E+99

> <Gold.Chemscore.Hbonds>
donor molecule, donor type, donor heavy atom, donor atom, acceptor molecule, acceptor atom, score
      L1  H     6    32       P1 10175  0.78
      L1  H     9    33       P1 10175  0.99
      L1  H    16    46       P1  8028  0.98
      P1  H 11000 11005       L1    14  0.65

> <Gold.Chemscore.Hbond.Weighted>
-11.9318

> <Gold.Chemscore.Metal.Weighted>
-0.0000

> <Gold.Chemscore.Lipo.Weighted>
-7.4434

> <Gold.Chemscore.Internal_Hbond.Weighted>
0.0000

> <Gold.Chemscore.DEClash.Weighted>
0.0391

> <Gold.Chemscore.DEInternal.Weighted>
1.8641

> <Gold.Chemscore.Rot.Weighted>
4.5235

> <Gold.Chemscore.Internal.Correction.Weighted>
   9.000000E+99

> <Gold.Protein.RotatedTorsions>
[ 6907 6896 6895 6894 ] final   85.88 input  -60.11 | X-H torsion
[ 7974 7965 7964 7962 ] final  144.66 input  175.53 | X-H torsion
[ 8008 7997 7996 7995 ] final   68.43 input   59.86 | X-H torsion
[ 10167 10162 10161 10158 ] final  162.25 input  -65.29 | X-H torsion
[ 10718 10713 10712 10709 ] final  -13.79 input   66.30 | X-H torsion
[ 10763 10752 10751 10750 ] final -166.16 input  -60.55 | X-H torsion
[ 11005 11000 10999 10996 ] final   70.07 input  -57.11 | X-H torsion

> <Gold.Protein.ActiveResidues>
 VAL166  LYS551  ARG553  GLY616  TRP617  ASP618  TYR619  PRO620  LYS621  CYS622 
 ASP623  PHE694  ASN695  SER759  ASP760  ASP761  ALA762  ILE779  LEU786  VAL792 
 PHE793  MET794  SER795  GLU796  ALA797  LYS798  CYS799  TRP800  GLU811  SER814 

> <Gold.Protein.RotatedAtoms>
  152.5384  134.2517  159.8901 H   0  0  0  0  0  0  0  0  0  0  0  0  # atno 6907 bound_to 6896
  151.2480  133.4358  159.2618 H   0  0  0  0  0  0  0  0  0  0  0  0  # atno 6908 bound_to 6896
  151.0565  134.9722  159.8295 H   0  0  0  0  0  0  0  0  0  0  0  0  # atno 6909 bound_to 6896
  144.8817  139.5690  143.5840 H   0  0  0  0  0  0  0  0  0  0  0  0  # atno 7974 bound_to 7965
  155.7081  140.3494  155.4962 H   0  0  0  0  0  0  0  0  0  0  0  0  # atno 8008 bound_to 7997
  155.9380  140.1096  157.1101 H   0  0  0  0  0  0  0  0  0  0  0  0  # atno 8009 bound_to 7997
  154.4097  140.1218  156.4876 H   0  0  0  0  0  0  0  0  0  0  0  0  # atno 8010 bound_to 7997
  139.4858  144.4456  151.8896 H   0  0  0  0  0  0  0  0  0  0  0  0  # atno 10167 bound_to 10162
  156.6252  130.4886  149.6149 H   0  0  0  0  0  0  0  0  0  0  0  0  # atno 10718 bound_to 10713
  154.6861  135.2962  154.9545 H   0  0  0  0  0  0  0  0  0  0  0  0  # atno 10763 bound_to 10752
  154.0524  135.6642  153.4806 H   0  0  0  0  0  0  0  0  0  0  0  0  # atno 10764 bound_to 10752
  153.0580  135.5133  154.7929 H   0  0  0  0  0  0  0  0  0  0  0  0  # atno 10765 bound_to 10752
  139.9618  134.7048  156.0630 H   0  0  0  0  0  0  0  0  0  0  0  0  # atno 11005 bound_to 11000
  146.2998  139.7392  142.9099 LP  0  0  0  0  0  0  0  0  0  0  0  0  # atno 17320 bound_to 7965
  145.3943  141.0376  143.3106 LP  0  0  0  0  0  0  0  0  0  0  0  0  # atno 17321 bound_to 7965
  140.3910  144.2615  150.5900 LP  0  0  0  0  0  0  0  0  0  0  0  0  # atno 17342 bound_to 10162
  140.5146  143.2281  151.8483 LP  0  0  0  0  0  0  0  0  0  0  0  0  # atno 17343 bound_to 10162
  156.2279  130.6777  151.1434 LP  0  0  0  0  0  0  0  0  0  0  0  0  # atno 17370 bound_to 10713
  157.7216  131.0678  150.6111 LP  0  0  0  0  0  0  0  0  0  0  0  0  # atno 17371 bound_to 10713
  141.1295  133.6590  156.3427 LP  0  0  0  0  0  0  0  0  0  0  0  0  # atno 17394 bound_to 11000
  140.5484  134.6052  157.5400 LP  0  0  0  0  0  0  0  0  0  0  0  0  # atno 17395 bound_to 11000

$$$$
