AV-unprocessed.smi:83|AV-procd|sdf|803|dock4
  -GOLD-   2262017193D 1   1.00000     0.00000
 Structure written by MMmdl.
 56 59  0  0  0  0  0  0  0  0  1 V2000
  152.1130  144.6259  160.5968 C   0  0  0  0  0  0  0  0  0  0  0  0
  151.4006  144.2959  159.2846 C   0  0  0  0  0  0  0  0  0  0  0  0
  150.8050  145.1923  158.6868 O   0  0  0  0  0  0  0  0  0  0  0  0
  151.4444  143.0263  158.8325 N   0  0  0  0  0  0  0  0  0  0  0  0
  152.1777  141.9216  159.4461 C   0  0  0  0  0  0  0  0  0  0  0  0
  152.1537  140.7949  158.4114 C   0  0  0  0  0  0  0  0  0  0  0  0
  150.8824  141.0491  157.6073 C   0  0  2  0  0  0  0  0  0  0  0  0
  150.8942  140.3983  156.2046 C   0  0  0  0  0  0  0  0  0  0  0  0
  149.5700  140.3204  155.5838 N   0  0  0  0  0  0  0  0  0  0  0  0
  149.2028  141.3582  154.6292 C   0  0  0  0  0  0  0  0  0  0  0  0
  149.0450  139.0774  155.4313 C   0  0  0  0  0  0  0  0  0  0  0  0
  149.7685  138.0282  155.9033 N   0  0  0  0  0  0  0  0  0  0  0  0
  149.3554  136.7741  155.7018 C   0  0  0  0  0  0  0  0  0  0  0  0
  148.2736  136.3483  155.0490 N   0  0  0  0  0  0  0  0  0  0  0  0
  147.5358  137.3953  154.5825 C   0  0  0  0  0  0  0  0  0  0  0  0
  147.8296  138.7795  154.7451 C   0  0  0  0  0  0  0  0  0  0  0  0
  146.8431  139.5400  154.1245 N   0  0  0  0  0  0  0  0  0  0  0  0
  146.0264  138.6601  153.6150 C   0  0  0  0  0  0  0  0  0  0  0  0
  146.3870  137.3482  153.8154 N   0  0  0  0  0  0  0  0  0  0  0  0
  145.7194  136.1710  153.2948 C   0  0  0  0  0  0  0  0  0  0  0  0
  145.1603  136.3951  151.8723 C   0  0  1  0  0  0  0  0  0  0  0  0
  146.1797  137.0119  151.1121 O   0  0  0  0  0  0  0  0  0  0  0  0
  144.7108  135.1029  151.1521 C   0  0  2  0  0  0  0  0  0  0  0  0
  143.6123  134.3182  151.8754 C   0  0  0  0  0  0  0  0  0  0  0  0
  143.8009  132.8870  151.3911 C   0  0  0  0  0  0  0  0  0  0  0  0
  145.1608  132.9096  150.6918 C   0  0  0  0  0  0  0  0  0  0  0  0
  145.7474  134.1330  151.1052 O   0  0  0  0  0  0  0  0  0  0  0  0
  150.7764  142.5816  157.6143 C   0  0  0  0  0  0  0  0  0  0  0  0
  151.7734  143.9689  161.3977 H   0  0  0  0  0  0  0  0  0  0  0  0
  151.9083  145.6538  160.8972 H   0  0  0  0  0  0  0  0  0  0  0  0
  153.1920  144.5157  160.4861 H   0  0  0  0  0  0  0  0  0  0  0  0
  153.2018  142.1940  159.7049 H   0  0  0  0  0  0  0  0  0  0  0  0
  151.6630  141.6152  160.3579 H   0  0  0  0  0  0  0  0  0  0  0  0
  153.0267  140.8792  157.7625 H   0  0  0  0  0  0  0  0  0  0  0  0
  152.1730  139.8052  158.8684 H   0  0  0  0  0  0  0  0  0  0  0  0
  150.0493  140.6462  158.1855 H   0  0  0  0  0  0  0  0  0  0  0  0
  151.5982  140.9141  155.5507 H   0  0  0  0  0  0  0  0  0  0  0  0
  151.2746  139.3801  156.2928 H   0  0  0  0  0  0  0  0  0  0  0  0
  148.1396  141.3130  154.3905 H   0  0  0  0  0  0  0  0  0  0  0  0
  149.7745  141.2605  153.7060 H   0  0  0  0  0  0  0  0  0  0  0  0
  149.4055  142.3440  155.0482 H   0  0  0  0  0  0  0  0  0  0  0  0
  149.9924  136.0015  156.1060 H   0  0  0  0  0  0  0  0  0  0  0  0
  145.1567  138.9457  153.0411 H   0  0  0  0  0  0  0  0  0  0  0  0
  146.4352  135.3479  153.2976 H   0  0  0  0  0  0  0  0  0  0  0  0
  144.9179  135.8930  153.9807 H   0  0  0  0  0  0  0  0  0  0  0  0
  144.3206  137.0899  151.9180 H   0  0  0  0  0  0  0  0  0  0  0  0
  147.0159  136.7614  151.4743 H   0  0  0  0  0  0  0  0  0  0  0  0
  144.3930  135.3315  150.1327 H   0  0  0  0  0  0  0  0  0  0  0  0
  143.7688  134.3592  152.9543 H   0  0  0  0  0  0  0  0  0  0  0  0
  142.6150  134.7067  151.6664 H   0  0  0  0  0  0  0  0  0  0  0  0
  143.7954  132.1928  152.2318 H   0  0  0  0  0  0  0  0  0  0  0  0
  143.0142  132.5850  150.6994 H   0  0  0  0  0  0  0  0  0  0  0  0
  145.7876  132.0573  150.9531 H   0  0  0  0  0  0  0  0  0  0  0  0
  145.0368  132.9200  149.6080 H   0  0  0  0  0  0  0  0  0  0  0  0
  149.7363  142.9099  157.5899 H   0  0  0  0  0  0  0  0  0  0  0  0
  151.2919  143.0166  156.7571 H   0  0  0  0  0  0  0  0  0  0  0  0
  1  2  1  0  0  0  0
  1 29  1  0  0  0  0
  1 30  1  0  0  0  0
  1 31  1  0  0  0  0
  2  3  2  0  0  0  0
  2  4  1  0  0  0  0
  4 28  1  0  0  0  0
  4  5  1  0  0  0  0
  5  6  1  0  0  0  0
  5 32  1  0  0  0  0
  5 33  1  0  0  0  0
  6  7  1  0  0  0  0
  6 34  1  0  0  0  0
  6 35  1  0  0  0  0
  7  8  1  0  0  0  0
  7 28  1  0  0  0  0
  7 36  1  0  0  0  0
  8  9  1  0  0  0  0
  8 37  1  0  0  0  0
  8 38  1  0  0  0  0
  9 10  1  0  0  0  0
  9 11  1  0  0  0  0
 10 39  1  0  0  0  0
 10 40  1  0  0  0  0
 10 41  1  0  0  0  0
 11 16  1  0  0  0  0
 11 12  2  0  0  0  0
 12 13  1  0  0  0  0
 13 14  2  0  0  0  0
 13 42  1  0  0  0  0
 14 15  1  0  0  0  0
 15 19  1  0  0  0  0
 15 16  2  0  0  0  0
 16 17  1  0  0  0  0
 17 18  2  0  0  0  0
 18 19  1  0  0  0  0
 18 43  1  0  0  0  0
 19 20  1  0  0  0  0
 20 21  1  0  0  0  0
 20 44  1  0  0  0  0
 20 45  1  0  0  0  0
 21 22  1  0  0  0  0
 21 23  1  0  0  0  0
 21 46  1  0  0  0  0
 22 47  1  0  0  0  0
 23 27  1  0  0  0  0
 23 24  1  0  0  0  0
 23 48  1  0  0  0  0
 24 25  1  0  0  0  0
 24 49  1  0  0  0  0
 24 50  1  0  0  0  0
 25 26  1  0  0  0  0
 25 51  1  0  0  0  0
 25 52  1  0  0  0  0
 26 27  1  0  0  0  0
 26 53  1  0  0  0  0
 26 54  1  0  0  0  0
 28 55  1  0  0  0  0
 28 56  1  0  0  0  0
M  END
> <s_m_source_file>
AV-unprocessed.smi

> <i_m_source_file_index>
83

> <i_lp_mmshare_version>
43012

> <i_f3d_flags>
0

> <s_epik_input>
W0NIM11DKD1PKU4xW0NIMl1bQ0gyXVtDQEhdKFtDSDJdMSlbQ0gyXU4oW0NIM10pYyhuW2NIXW4yKWMoYzIzKW5bY0hdbjNbQ0gyXVtDQEhdKFtPSF0pW0NAQEhdNFtDSDJdW0NIMl1bQ0gyXU80

> <s_epik_cmdline>
J2VwaWtfcHl0aG9uJywgJy1waCcsICc3LjAnLCAnLXRuJywgJzgnLCAnLW1hJywgJzIwMCcsICctbWV0YWxfYmluZGluZycsICctaW1hZScsICc8aW5maWxlLm1hZT4nLCAnLW9tYWUnLCAnPG91dGZpbGUubWFlPic=

> <r_lp_tautomer_probability>
1

> <r_epik_Ionization_Penalty>
0.00109752

> <r_epik_Ionization_Penalty_Charging>
0

> <r_epik_Ionization_Penalty_Neutral>
0.00109752

> <r_epik_State_Penalty>
0.000634803

> <r_epik_Charging_Adjusted_Penalty>
0.000634803

> <i_epik_Tot_Q>
0

> <i_epik_Tot_abs_Q>
0

> <r_epik_Metal_State_Penalty>
-0

> <b_epik_Metal_Only>
0

> <s_lp_Force_Field>
OPLS_2005

> <r_lp_Energy>
52.1505

> <b_lp_Chiralities_Consistent>
1

> <s_lp_Variant>
AV-unprocessed.smi:83-4

> <Gold.Version>
5.8.1

> <Gold.Id.Protein>
6NUR|6NUR_protein|mol2

> <Gold.PLP.Fitness>
48.6041

> <Gold.PLP.PLP>
-43.7308

> <Gold.PLP.part.hbond>
-2.1310

> <Gold.PLP.part.metal>
0.0000

> <Gold.PLP.part.buried>
-6.9032

> <Gold.PLP.part.nonpolar>
-36.6948

> <Gold.PLP.part.repulsive>
1.0077

> <Gold.PLP.ligand.clash>
0.0000

> <Gold.PLP.ligand.torsion>
0.8942

> <Gold.PLP.Chemscore.Hbond>
1.0000

> <Gold.PLP.Chemscore.CHOScore>
1.0000

> <Gold.PLP.Chemscore.Metal>
0.0000

> <Gold.Chemscore.Hbonds>
donor molecule, donor type, donor heavy atom, donor atom, acceptor molecule, acceptor atom, score
      L1  H    22    47       P1  7948  1.00
      L1  C    18    43       P1 10175  1.00

> <Gold.PLP.Chemscore.Internal.Correction>
0.6617

> <Gold.Rescore>
     Score         DG    S(hbond)    S(metal)    S(lipo)     H(rot)  DE(clash)    DE(int)     intcor
     11.36     -13.28       1.00        0.00      95.34       2.62       0.07       1.85       ----

> <Gold.Chemscore.Fitness>
11.3557

> <Gold.Chemscore.DG>
-13.2803

> <Gold.Chemscore.ZeroCoef>
-5.4800

> <Gold.Chemscore.Hbond>
1.0000

> <Gold.Chemscore.Metal>
0.0000

> <Gold.Chemscore.Lipo>
95.3439

> <Gold.Chemscore.Internal_Hbond>
0.0000

> <Gold.Chemscore.DEClash>
0.0719

> <Gold.Chemscore.DEInternal>
1.8528

> <Gold.Chemscore.Rot>
2.6152

> <Gold.Chemscore.Internal.Correction>
   9.000000E+99

> <Gold.Chemscore.Hbonds>
donor molecule, donor type, donor heavy atom, donor atom, acceptor molecule, acceptor atom, score
      L1  H    22    47       P1  7948  0.95

> <Gold.Chemscore.Hbond.Weighted>
-3.3400

> <Gold.Chemscore.Metal.Weighted>
-0.0000

> <Gold.Chemscore.Lipo.Weighted>
-11.1552

> <Gold.Chemscore.Internal_Hbond.Weighted>
0.0000

> <Gold.Chemscore.DEClash.Weighted>
0.0719

> <Gold.Chemscore.DEInternal.Weighted>
1.8528

> <Gold.Chemscore.Rot.Weighted>
6.6949

> <Gold.Chemscore.Internal.Correction.Weighted>
   9.000000E+99

> <Gold.Protein.RotatedTorsions>
[ 6907 6896 6895 6894 ] final  -55.17 input  -60.11 | X-H torsion
[ 7974 7965 7964 7962 ] final  -91.77 input  175.53 | X-H torsion
[ 8008 7997 7996 7995 ] final  -58.77 input   59.86 | X-H torsion
[ 10167 10162 10161 10158 ] final  161.13 input  -65.29 | X-H torsion
[ 10718 10713 10712 10709 ] final  -33.68 input   66.30 | X-H torsion
[ 10763 10752 10751 10750 ] final  -61.95 input  -60.55 | X-H torsion
[ 11005 11000 10999 10996 ] final  -66.77 input  -57.11 | X-H torsion

> <Gold.Protein.ActiveResidues>
 VAL166  LYS551  ARG553  GLY616  TRP617  ASP618  TYR619  PRO620  LYS621  CYS622 
 ASP623  PHE694  ASN695  SER759  ASP760  ASP761  ALA762  ILE779  LEU786  VAL792 
 PHE793  MET794  SER795  GLU796  ALA797  LYS798  CYS799  TRP800  GLU811  SER814 

> <Gold.Protein.RotatedAtoms>
  150.8274  134.7512  159.6824 H   0  0  0  0  0  0  0  0  0  0  0  0  # atno 6907 bound_to 6896
  152.4383  134.5638  159.9911 H   0  0  0  0  0  0  0  0  0  0  0  0  # atno 6908 bound_to 6896
  151.5807  133.3340  159.3044 H   0  0  0  0  0  0  0  0  0  0  0  0  # atno 6909 bound_to 6896
  145.4087  140.9543  143.2246 H   0  0  0  0  0  0  0  0  0  0  0  0  # atno 7974 bound_to 7965
  154.4323  140.1076  156.6009 H   0  0  0  0  0  0  0  0  0  0  0  0  # atno 8008 bound_to 7997
  155.5912  140.3492  155.4548 H   0  0  0  0  0  0  0  0  0  0  0  0  # atno 8009 bound_to 7997
  156.0245  140.1247  157.0312 H   0  0  0  0  0  0  0  0  0  0  0  0  # atno 8010 bound_to 7997
  139.4846  144.4567  151.8759 H   0  0  0  0  0  0  0  0  0  0  0  0  # atno 10167 bound_to 10162
  156.3597  130.4321  149.7634 H   0  0  0  0  0  0  0  0  0  0  0  0  # atno 10718 bound_to 10713
  154.2924  135.6251  153.5390 H   0  0  0  0  0  0  0  0  0  0  0  0  # atno 10763 bound_to 10752
  152.9851  135.5659  154.5375 H   0  0  0  0  0  0  0  0  0  0  0  0  # atno 10764 bound_to 10752
  154.4989  135.2871  155.1413 H   0  0  0  0  0  0  0  0  0  0  0  0  # atno 10765 bound_to 10752
  141.1491  133.6706  156.6191 H   0  0  0  0  0  0  0  0  0  0  0  0  # atno 11005 bound_to 11000
  144.8324  139.5607  143.6938 LP  0  0  0  0  0  0  0  0  0  0  0  0  # atno 17320 bound_to 7965
  146.2716  139.6648  142.9292 LP  0  0  0  0  0  0  0  0  0  0  0  0  # atno 17321 bound_to 7965
  140.4027  144.2472  150.5892 LP  0  0  0  0  0  0  0  0  0  0  0  0  # atno 17342 bound_to 10162
  140.5042  143.2309  151.8633 LP  0  0  0  0  0  0  0  0  0  0  0  0  # atno 17343 bound_to 10162
  156.4803  130.8038  151.3052 LP  0  0  0  0  0  0  0  0  0  0  0  0  # atno 17370 bound_to 10713
  157.7472  131.0008  150.2939 LP  0  0  0  0  0  0  0  0  0  0  0  0  # atno 17371 bound_to 10713
  140.3554  134.7732  157.4497 LP  0  0  0  0  0  0  0  0  0  0  0  0  # atno 17394 bound_to 11000
  140.0827  134.5709  155.8524 LP  0  0  0  0  0  0  0  0  0  0  0  0  # atno 17395 bound_to 11000

$$$$
