AV-unprocessed.smi:13|AV-procd|sdf|76|dock2
  -GOLD-   2262015203D 1   1.00000     0.00000
 Structure written by MMmdl.
 54 58  0  0  0  0  0  0  0  0  1 V2000
  152.4791  145.0498  158.8616 C   0  0  0  0  0  0  0  0  0  0  0  0
  151.8702  143.6861  159.1880 C   0  0  0  0  0  0  0  0  0  0  0  0
  152.4282  143.2748  160.5574 C   0  0  0  0  0  0  0  0  0  0  0  0
  150.3452  143.5785  159.0374 C   0  0  0  0  0  0  0  0  0  0  0  0
  150.5682  142.2761  158.4358 N   0  0  0  0  0  0  0  0  0  0  0  0
  149.6328  141.9705  157.4081 C   0  0  0  0  0  0  0  0  0  0  0  0
  150.0328  141.6868  156.1386 N   0  0  0  0  0  0  0  0  0  0  0  0
  149.1413  141.3999  155.1856 C   0  0  0  0  0  0  0  0  0  0  0  0
  147.8125  141.3409  155.2784 N   0  0  0  0  0  0  0  0  0  0  0  0
  147.3977  141.6229  156.5457 C   0  0  0  0  0  0  0  0  0  0  0  0
  148.2327  141.9486  157.6517 C   0  0  0  0  0  0  0  0  0  0  0  0
  147.4559  142.1832  158.7789 N   0  0  0  0  0  0  0  0  0  0  0  0
  146.2316  142.0050  158.3639 C   0  0  0  0  0  0  0  0  0  0  0  0
  146.1044  141.6540  157.0383 N   0  0  0  0  0  0  0  0  0  0  0  0
  144.8672  141.3919  156.3182 C   0  0  0  0  0  0  0  0  0  0  0  0
  144.6731  142.2842  155.0688 C   0  0  2  0  0  0  0  0  0  0  0  0
  145.5117  141.8166  154.0268 O   0  0  0  0  0  0  0  0  0  0  0  0
  145.0100  143.7471  155.3309 C   0  0  0  0  0  0  0  0  0  0  0  0
  144.1013  144.4829  154.3556 C   0  0  0  0  0  0  0  0  0  0  0  0
  142.9000  143.7337  154.4190 O   0  0  0  0  0  0  0  0  0  0  0  0
  143.2255  142.3519  154.5384 C   0  0  0  0  0  0  0  0  0  0  0  0
  151.9286  142.6425  158.0497 C   0  0  2  0  0  0  0  0  0  0  0  0
  152.8941  141.4514  158.1117 C   0  0  1  0  0  0  0  0  0  0  0  0
  152.5231  140.3977  159.1615 C   0  0  0  0  0  0  0  0  0  0  0  0
  151.5627  139.5042  158.4119 C   0  0  0  0  0  0  0  0  0  0  0  0
  152.1967  139.4853  157.0272 C   0  0  0  0  0  0  0  0  0  0  0  0
  152.7943  140.7679  156.8616 O   0  0  0  0  0  0  0  0  0  0  0  0
  152.2218  145.7955  159.6144 H   0  0  0  0  0  0  0  0  0  0  0  0
  152.1248  145.4263  157.9015 H   0  0  0  0  0  0  0  0  0  0  0  0
  153.5669  144.9971  158.8051 H   0  0  0  0  0  0  0  0  0  0  0  0
  152.0146  142.3236  160.8934 H   0  0  0  0  0  0  0  0  0  0  0  0
  152.1894  144.0129  161.3238 H   0  0  0  0  0  0  0  0  0  0  0  0
  153.5130  143.1659  160.5328 H   0  0  0  0  0  0  0  0  0  0  0  0
  149.7954  143.5390  159.9781 H   0  0  0  0  0  0  0  0  0  0  0  0
  149.9226  144.3064  158.3416 H   0  0  0  0  0  0  0  0  0  0  0  0
  149.5521  141.1859  154.2100 H   0  0  0  0  0  0  0  0  0  0  0  0
  145.3822  142.1235  159.0207 H   0  0  0  0  0  0  0  0  0  0  0  0
  144.8598  140.3397  156.0317 H   0  0  0  0  0  0  0  0  0  0  0  0
  144.0332  141.5252  157.0087 H   0  0  0  0  0  0  0  0  0  0  0  0
  144.9772  141.3700  153.3883 H   0  0  0  0  0  0  0  0  0  0  0  0
  144.7340  144.0230  156.3498 H   0  0  0  0  0  0  0  0  0  0  0  0
  146.0660  143.9857  155.1976 H   0  0  0  0  0  0  0  0  0  0  0  0
  143.9409  145.5255  154.6303 H   0  0  0  0  0  0  0  0  0  0  0  0
  144.5031  144.4485  153.3417 H   0  0  0  0  0  0  0  0  0  0  0  0
  143.1151  141.8557  153.5727 H   0  0  0  0  0  0  0  0  0  0  0  0
  142.5102  141.8967  155.2224 H   0  0  0  0  0  0  0  0  0  0  0  0
  151.9645  143.1635  157.0918 H   0  0  0  0  0  0  0  0  0  0  0  0
  153.9208  141.7874  158.2609 H   0  0  0  0  0  0  0  0  0  0  0  0
  153.4104  139.8269  159.4384 H   0  0  0  0  0  0  0  0  0  0  0  0
  152.1013  140.8110  160.0769 H   0  0  0  0  0  0  0  0  0  0  0  0
  151.4660  138.5112  158.8517 H   0  0  0  0  0  0  0  0  0  0  0  0
  150.5729  139.9608  158.3728 H   0  0  0  0  0  0  0  0  0  0  0  0
  152.9800  138.7282  156.9776 H   0  0  0  0  0  0  0  0  0  0  0  0
  151.4731  139.2779  156.2386 H   0  0  0  0  0  0  0  0  0  0  0  0
  1  2  1  0  0  0  0
  1 28  1  0  0  0  0
  1 29  1  0  0  0  0
  1 30  1  0  0  0  0
  2 22  1  0  0  0  0
  2  3  1  0  0  0  0
  2  4  1  0  0  0  0
  3 31  1  0  0  0  0
  3 32  1  0  0  0  0
  3 33  1  0  0  0  0
  4  5  1  0  0  0  0
  4 34  1  0  0  0  0
  4 35  1  0  0  0  0
  5  6  1  0  0  0  0
  5 22  1  0  0  0  0
  6 11  1  0  0  0  0
  6  7  2  0  0  0  0
  7  8  1  0  0  0  0
  8  9  2  0  0  0  0
  8 36  1  0  0  0  0
  9 10  1  0  0  0  0
 10 14  1  0  0  0  0
 10 11  2  0  0  0  0
 11 12  1  0  0  0  0
 12 13  2  0  0  0  0
 13 14  1  0  0  0  0
 13 37  1  0  0  0  0
 14 15  1  0  0  0  0
 15 16  1  0  0  0  0
 15 38  1  0  0  0  0
 15 39  1  0  0  0  0
 16 21  1  0  0  0  0
 16 17  1  0  0  0  0
 16 18  1  0  0  0  0
 17 40  1  0  0  0  0
 18 19  1  0  0  0  0
 18 41  1  0  0  0  0
 18 42  1  0  0  0  0
 19 20  1  0  0  0  0
 19 43  1  0  0  0  0
 19 44  1  0  0  0  0
 20 21  1  0  0  0  0
 21 45  1  0  0  0  0
 21 46  1  0  0  0  0
 22 23  1  0  0  0  0
 22 47  1  0  0  0  0
 23 27  1  0  0  0  0
 23 24  1  0  0  0  0
 23 48  1  0  0  0  0
 24 25  1  0  0  0  0
 24 49  1  0  0  0  0
 24 50  1  0  0  0  0
 25 26  1  0  0  0  0
 25 51  1  0  0  0  0
 25 52  1  0  0  0  0
 26 27  1  0  0  0  0
 26 53  1  0  0  0  0
 26 54  1  0  0  0  0
M  END
> <s_m_source_file>
AV-unprocessed.smi

> <i_m_source_file_index>
13

> <i_lp_mmshare_version>
43012

> <i_f3d_flags>
0

> <s_epik_input>
TzFbQ0gyXVtDSDJdW0NIMl1bQ0BIXTFbQ0BASF0yTihbQ0gyXUMyKFtDSDNdKVtDSDNdKWMobltjSF1uMyljKGMzNCluW2NIXW40W0NIMl1bQ0BAXTUoW09IXSlbQ0gyXVtDSDJdT1tDSDJdNQ==

> <s_epik_cmdline>
J2VwaWtfcHl0aG9uJywgJy1waCcsICc3LjAnLCAnLXRuJywgJzgnLCAnLW1hJywgJzIwMCcsICctbWV0YWxfYmluZGluZycsICctaW1hZScsICc8aW5maWxlLm1hZT4nLCAnLW9tYWUnLCAnPG91dGZpbGUubWFlPic=

> <r_lp_tautomer_probability>
1

> <r_epik_Ionization_Penalty>
0.00202764

> <r_epik_Ionization_Penalty_Charging>
0

> <r_epik_Ionization_Penalty_Neutral>
0.00202764

> <r_epik_State_Penalty>
0.00134017

> <r_epik_Charging_Adjusted_Penalty>
0.00134017

> <i_epik_Tot_Q>
0

> <i_epik_Tot_abs_Q>
0

> <r_epik_Metal_State_Penalty>
-0

> <b_epik_Metal_Only>
0

> <s_lp_Force_Field>
OPLS_2005

> <r_lp_Energy>
64.8662

> <b_lp_Chiralities_Consistent>
1

> <s_lp_Variant>
AV-unprocessed.smi:13-8

> <Gold.Version>
5.8.1

> <Gold.Id.Protein>
6NUR|6NUR_protein|mol2

> <Gold.PLP.Fitness>
38.8510

> <Gold.PLP.PLP>
-34.8846

> <Gold.PLP.part.hbond>
-3.1255

> <Gold.PLP.part.metal>
0.0000

> <Gold.PLP.part.buried>
-5.4675

> <Gold.PLP.part.nonpolar>
-25.6153

> <Gold.PLP.part.repulsive>
0.4422

> <Gold.PLP.ligand.clash>
0.0000

> <Gold.PLP.ligand.torsion>
0.8024

> <Gold.PLP.Chemscore.Hbond>
1.6867

> <Gold.PLP.Chemscore.CHOScore>
0.0000

> <Gold.PLP.Chemscore.Metal>
0.0000

> <Gold.Chemscore.Hbonds>
donor molecule, donor type, donor heavy atom, donor atom, acceptor molecule, acceptor atom, score
      L1  H    17    40       P1 10175  0.80
      P1  H  6934  6946       L1    12  0.03
      P1  H  7997  8008       L1    27  0.52

> <Gold.PLP.Chemscore.Internal.Correction>
0.5112

> <Gold.Rescore>
     Score         DG    S(hbond)    S(metal)    S(lipo)     H(rot)  DE(clash)    DE(int)     intcor
     12.83     -16.01       1.51        0.00      97.26       2.30       0.68       2.51       ----

> <Gold.Chemscore.Fitness>
12.8272

> <Gold.Chemscore.DG>
-16.0122

> <Gold.Chemscore.ZeroCoef>
-5.4800

> <Gold.Chemscore.Hbond>
1.5088

> <Gold.Chemscore.Metal>
0.0000

> <Gold.Chemscore.Lipo>
97.2612

> <Gold.Chemscore.Internal_Hbond>
0.0000

> <Gold.Chemscore.DEClash>
0.6754

> <Gold.Chemscore.DEInternal>
2.5096

> <Gold.Chemscore.Rot>
2.2996

> <Gold.Chemscore.Internal.Correction>
   9.000000E+99

> <Gold.Chemscore.Hbonds>
donor molecule, donor type, donor heavy atom, donor atom, acceptor molecule, acceptor atom, score
      L1  H    17    40       P1 10175  0.12
      P1  H  7997  8008       L1    27  0.04

> <Gold.Chemscore.Hbond.Weighted>
-5.0395

> <Gold.Chemscore.Metal.Weighted>
-0.0000

> <Gold.Chemscore.Lipo.Weighted>
-11.3796

> <Gold.Chemscore.Internal_Hbond.Weighted>
0.0000

> <Gold.Chemscore.DEClash.Weighted>
0.6754

> <Gold.Chemscore.DEInternal.Weighted>
2.5096

> <Gold.Chemscore.Rot.Weighted>
5.8869

> <Gold.Chemscore.Internal.Correction.Weighted>
   9.000000E+99

> <Gold.Protein.RotatedTorsions>
[ 6907 6896 6895 6894 ] final   72.47 input  -60.11 | X-H torsion
[ 7974 7965 7964 7962 ] final    5.76 input  175.53 | X-H torsion
[ 8008 7997 7996 7995 ] final  -49.19 input   59.86 | X-H torsion
[ 10167 10162 10161 10158 ] final  159.40 input  -65.29 | X-H torsion
[ 10718 10713 10712 10709 ] final   74.06 input   66.30 | X-H torsion
[ 10763 10752 10751 10750 ] final   54.50 input  -60.55 | X-H torsion
[ 11005 11000 10999 10996 ] final -146.58 input  -57.11 | X-H torsion

> <Gold.Protein.ActiveResidues>
 VAL166  LYS551  ARG553  GLY616  TRP617  ASP618  TYR619  PRO620  LYS621  CYS622 
 ASP623  PHE694  ASN695  SER759  ASP760  ASP761  ALA762  ILE779  LEU786  VAL792 
 PHE793  MET794  SER795  GLU796  ALA797  LYS798  CYS799  TRP800  GLU811  SER814 

> <Gold.Protein.RotatedAtoms>
  152.4869  134.4567  159.9591 H   0  0  0  0  0  0  0  0  0  0  0  0  # atno 6907 bound_to 6896
  151.4561  133.3598  159.2810 H   0  0  0  0  0  0  0  0  0  0  0  0  # atno 6908 bound_to 6896
  150.8988  134.8423  159.7406 H   0  0  0  0  0  0  0  0  0  0  0  0  # atno 6909 bound_to 6896
  146.2439  140.0335  142.8388 H   0  0  0  0  0  0  0  0  0  0  0  0  # atno 7974 bound_to 7965
  154.4040  140.1303  156.4462 H   0  0  0  0  0  0  0  0  0  0  0  0  # atno 8008 bound_to 7997
  155.7411  140.3490  155.5085 H   0  0  0  0  0  0  0  0  0  0  0  0  # atno 8009 bound_to 7997
  155.9038  140.1024  157.1320 H   0  0  0  0  0  0  0  0  0  0  0  0  # atno 8010 bound_to 7997
  139.4832  144.4734  151.8545 H   0  0  0  0  0  0  0  0  0  0  0  0  # atno 10167 bound_to 10162
  157.6575  130.9659  150.1157 H   0  0  0  0  0  0  0  0  0  0  0  0  # atno 10718 bound_to 10713
  152.9805  135.5743  154.4914 H   0  0  0  0  0  0  0  0  0  0  0  0  # atno 10763 bound_to 10752
  154.4447  135.2777  155.1825 H   0  0  0  0  0  0  0  0  0  0  0  0  # atno 10764 bound_to 10752
  154.3478  135.6216  153.5681 H   0  0  0  0  0  0  0  0  0  0  0  0  # atno 10765 bound_to 10752
  140.7805  134.3084  157.5047 H   0  0  0  0  0  0  0  0  0  0  0  0  # atno 11005 bound_to 11000
  145.1133  140.9418  143.4643 LP  0  0  0  0  0  0  0  0  0  0  0  0  # atno 17320 bound_to 7965
  145.0554  139.3148  143.5907 LP  0  0  0  0  0  0  0  0  0  0  0  0  # atno 17321 bound_to 7965
  140.4204  144.2251  150.5887 LP  0  0  0  0  0  0  0  0  0  0  0  0  # atno 17342 bound_to 10162
  140.4879  143.2357  151.8861 LP  0  0  0  0  0  0  0  0  0  0  0  0  # atno 17343 bound_to 10162
  156.2042  130.3662  149.8750 LP  0  0  0  0  0  0  0  0  0  0  0  0  # atno 17370 bound_to 10713
  156.6646  130.8796  151.3553 LP  0  0  0  0  0  0  0  0  0  0  0  0  # atno 17371 bound_to 10713
  139.8743  134.9315  156.3531 LP  0  0  0  0  0  0  0  0  0  0  0  0  # atno 17394 bound_to 11000
  140.9487  133.7465  156.0243 LP  0  0  0  0  0  0  0  0  0  0  0  0  # atno 17395 bound_to 11000

$$$$
