AV-unprocessed.smi:3128|AV-procd|sdf|11918|dock8
  -GOLD-   2272017293D 1   1.00000     0.00000
 Structure written by MMmdl.
 40 40  0  0  0  0  0  0  0  0  2 V2000
  146.3231  132.4016  151.6921 C   0  0  0  0  0  0  0  0  0  0  0  0
  146.9655  133.7840  151.9052 C   0  0  0  0  0  0  0  0  0  0  0  0
  147.9749  133.7048  153.0669 C   0  0  0  0  0  0  0  0  0  0  0  0
  145.9018  134.9001  152.1175 C   0  0  2  0  0  0  0  0  0  0  0  0
  144.6346  134.7315  151.2538 C   0  0  0  0  0  0  0  0  0  0  0  0
  146.4547  136.2493  151.9581 N   0  0  0  0  0  0  0  0  0  0  0  0
  145.8737  137.4149  152.2905 C   0  0  0  0  0  0  0  0  0  0  0  0
  144.7590  137.5008  152.8060 O   0  0  0  0  0  0  0  0  0  0  0  0
  146.6894  138.6749  152.0008 C   0  0  0  0  0  0  0  0  0  0  0  0
  148.0459  138.5944  152.5773 N   0  3  0  0  0  0  0  0  0  0  0  0
  148.1573  139.1372  153.9459 C   0  0  0  0  0  0  0  0  0  0  0  0
  148.6847  140.5810  153.9411 C   0  0  0  0  0  0  0  0  0  0  0  0
  149.7867  140.7656  154.8685 N   0  0  0  0  0  0  0  0  0  0  0  0
  149.8781  141.6437  155.9279 C   0  0  0  0  0  0  0  0  0  0  0  0
  151.0951  141.4461  156.5150 C   0  0  0  0  0  0  0  0  0  0  0  0
  151.6859  140.4154  155.7321 C   0  0  0  0  0  0  0  0  0  0  0  0
  150.8994  140.0090  154.7485 N   0  0  0  0  0  0  0  0  0  0  0  0
  145.6907  132.1239  152.5359 H   0  0  0  0  0  0  0  0  0  0  0  0
  147.0838  131.6282  151.5819 H   0  0  0  0  0  0  0  0  0  0  0  0
  145.7126  132.3726  150.7901 H   0  0  0  0  0  0  0  0  0  0  0  0
  147.5311  134.0122  151.0014 H   0  0  0  0  0  0  0  0  0  0  0  0
  147.4716  133.5129  154.0149 H   0  0  0  0  0  0  0  0  0  0  0  0
  148.5480  134.6257  153.1733 H   0  0  0  0  0  0  0  0  0  0  0  0
  148.6948  132.9019  152.9061 H   0  0  0  0  0  0  0  0  0  0  0  0
  145.5826  134.8519  153.1594 H   0  0  0  0  0  0  0  0  0  0  0  0
  144.0756  133.8392  151.5336 H   0  0  0  0  0  0  0  0  0  0  0  0
  144.8746  134.6514  150.1934 H   0  0  0  0  0  0  0  0  0  0  0  0
  143.9595  135.5785  151.3797 H   0  0  0  0  0  0  0  0  0  0  0  0
  147.3754  136.2969  151.5464 H   0  0  0  0  0  0  0  0  0  0  0  0
  146.7585  138.8114  150.9210 H   0  0  0  0  0  0  0  0  0  0  0  0
  146.1752  139.5456  152.4109 H   0  0  0  0  0  0  0  0  0  0  0  0
  148.3235  137.6231  152.5979 H   0  0  0  0  0  0  0  0  0  0  0  0
  147.1740  139.1058  154.4165 H   0  0  0  0  0  0  0  0  0  0  0  0
  148.8166  138.5033  154.5406 H   0  0  0  0  0  0  0  0  0  0  0  0
  149.0060  140.8742  152.9404 H   0  0  0  0  0  0  0  0  0  0  0  0
  147.8845  141.2661  154.2246 H   0  0  0  0  0  0  0  0  0  0  0  0
  149.0789  142.3272  156.1747 H   0  0  0  0  0  0  0  0  0  0  0  0
  151.5026  141.9607  157.3727 H   0  0  0  0  0  0  0  0  0  0  0  0
  152.6549  139.9527  155.8494 H   0  0  0  0  0  0  0  0  0  0  0  0
  148.6835  139.0931  151.9728 H   0  0  0  0  0  0  0  0  0  0  0  0
  1  2  1  0  0  0  0
  1 18  1  0  0  0  0
  1 19  1  0  0  0  0
  1 20  1  0  0  0  0
  2  3  1  0  0  0  0
  2  4  1  0  0  0  0
  2 21  1  0  0  0  0
  3 22  1  0  0  0  0
  3 23  1  0  0  0  0
  3 24  1  0  0  0  0
  4  5  1  0  0  0  0
  4  6  1  0  0  0  0
  4 25  1  0  0  0  0
  5 26  1  0  0  0  0
  5 27  1  0  0  0  0
  5 28  1  0  0  0  0
  6  7  1  0  0  0  0
  6 29  1  0  0  0  0
  7  8  2  0  0  0  0
  7  9  1  0  0  0  0
  9 10  1  0  0  0  0
  9 30  1  0  0  0  0
  9 31  1  0  0  0  0
 10 11  1  0  0  0  0
 10 32  1  0  0  0  0
 10 40  1  0  0  0  0
 11 12  1  0  0  0  0
 11 33  1  0  0  0  0
 11 34  1  0  0  0  0
 12 13  1  0  0  0  0
 12 35  1  0  0  0  0
 12 36  1  0  0  0  0
 13 17  1  0  0  0  0
 13 14  1  0  0  0  0
 14 15  2  0  0  0  0
 14 37  1  0  0  0  0
 15 16  1  0  0  0  0
 15 38  1  0  0  0  0
 16 17  2  0  0  0  0
 16 39  1  0  0  0  0
M  CHG  1  10   1
M  END
> <s_m_source_file>
AV-unprocessed.smi

> <i_m_source_file_index>
3128

> <i_lp_mmshare_version>
43012

> <i_f3d_flags>
0

> <s_epik_input>
W0NIM11bQ0hdKFtDSDNdKVtDQEhdKFtDSDNdKVtOSF1DKD1PKVtDSDJdW05IXVtDSDJdW0NIMl1uMVtjSF1bY0hdW2NIXW4x

> <s_epik_cmdline>
J2VwaWtfcHl0aG9uJywgJy1waCcsICc3LjAnLCAnLXRuJywgJzgnLCAnLW1hJywgJzIwMCcsICctbWV0YWxfYmluZGluZycsICctaW1hZScsICc8aW5maWxlLm1hZT4nLCAnLW9tYWUnLCAnPG91dGZpbGUubWFlPic=

> <r_lp_tautomer_probability>
1

> <r_epik_Ionization_Penalty>
0.20724

> <r_epik_Ionization_Penalty_Charging>
0.207237

> <r_epik_Ionization_Penalty_Neutral>
3.20642e-06

> <r_epik_State_Penalty>
0.197613

> <r_epik_Charging_Adjusted_Penalty>
0.40485

> <i_epik_Tot_Q>
1

> <i_epik_Tot_abs_Q>
1

> <r_epik_Metal_State_Penalty>
0.197789

> <b_epik_Metal_Only>
0

> <s_lp_Force_Field>
OPLS_2005

> <r_lp_Energy>
3.68696

> <b_lp_Chiralities_Consistent>
1

> <s_lp_Variant>
AV-unprocessed.smi:3128-1

> <Gold.Version>
5.8.1

> <Gold.Id.Protein>
6NUR|6NUR_protein|mol2

> <Gold.PLP.Fitness>
48.8361

> <Gold.PLP.PLP>
-33.5245

> <Gold.PLP.part.hbond>
-3.8790

> <Gold.PLP.part.metal>
0.0000

> <Gold.PLP.part.buried>
0.1866

> <Gold.PLP.part.nonpolar>
-29.9108

> <Gold.PLP.part.repulsive>
0.4012

> <Gold.PLP.ligand.clash>
0.0000

> <Gold.PLP.ligand.torsion>
1.2335

> <Gold.PLP.Chemscore.Hbond>
4.9440

> <Gold.PLP.Chemscore.CHOScore>
0.9158

> <Gold.PLP.Chemscore.Metal>
0.0000

> <Gold.Chemscore.Hbonds>
donor molecule, donor type, donor heavy atom, donor atom, acceptor molecule, acceptor atom, score
      L1  H     6    29       P1  7948  0.93
      L1  H    10    32       P1  7948  2.00
      L1  H    10    40       P1  7957  0.99
      P1  H  7989  7998       L1    17  0.81
      L1  C    14    37       P1  8028  0.98

> <Gold.PLP.Chemscore.Internal.Correction>
0.1991

> <Gold.Rescore>
     Score         DG    S(hbond)    S(metal)    S(lipo)     H(rot)  DE(clash)    DE(int)     intcor
     16.31     -17.60       3.13        0.00      63.22       2.24       0.09       1.20       ----

> <Gold.Chemscore.Fitness>
16.3138

> <Gold.Chemscore.DG>
-17.5961

> <Gold.Chemscore.ZeroCoef>
-5.4800

> <Gold.Chemscore.Hbond>
3.1312

> <Gold.Chemscore.Metal>
0.0000

> <Gold.Chemscore.Lipo>
63.2172

> <Gold.Chemscore.Internal_Hbond>
0.0000

> <Gold.Chemscore.DEClash>
0.0868

> <Gold.Chemscore.DEInternal>
1.1955

> <Gold.Chemscore.Rot>
2.2416

> <Gold.Chemscore.Internal.Correction>
   9.000000E+99

> <Gold.Chemscore.Hbonds>
donor molecule, donor type, donor heavy atom, donor atom, acceptor molecule, acceptor atom, score
      L1  H     6    29       P1  7948  0.87
      L1  H    10    32       P1  7948  0.95
      L1  H    10    40       P1  7957  0.89
      P1  H  7989  7998       L1    17  0.03

> <Gold.Chemscore.Hbond.Weighted>
-10.4581

> <Gold.Chemscore.Metal.Weighted>
-0.0000

> <Gold.Chemscore.Lipo.Weighted>
-7.3964

> <Gold.Chemscore.Internal_Hbond.Weighted>
0.0000

> <Gold.Chemscore.DEClash.Weighted>
0.0868

> <Gold.Chemscore.DEInternal.Weighted>
1.1955

> <Gold.Chemscore.Rot.Weighted>
5.7385

> <Gold.Chemscore.Internal.Correction.Weighted>
   9.000000E+99

> <Gold.Protein.RotatedTorsions>
[ 6907 6896 6895 6894 ] final -143.64 input  -60.11 | X-H torsion
[ 7974 7965 7964 7962 ] final   -5.75 input  175.53 | X-H torsion
[ 8008 7997 7996 7995 ] final  144.58 input   59.86 | X-H torsion
[ 10167 10162 10161 10158 ] final   12.11 input  -65.29 | X-H torsion
[ 10718 10713 10712 10709 ] final -124.82 input   66.30 | X-H torsion
[ 10763 10752 10751 10750 ] final   77.77 input  -60.55 | X-H torsion
[ 11005 11000 10999 10996 ] final  169.35 input  -57.11 | X-H torsion

> <Gold.Protein.ActiveResidues>
 VAL166  LYS551  ARG553  GLY616  TRP617  ASP618  TYR619  PRO620  LYS621  CYS622 
 ASP623  PHE694  ASN695  SER759  ASP760  ASP761  ALA762  ILE779  LEU786  VAL792 
 PHE793  MET794  SER795  GLU796  ALA797  LYS798  CYS799  TRP800  GLU811  SER814 

> <Gold.Protein.RotatedAtoms>
  151.1032  133.5228  159.2608 H   0  0  0  0  0  0  0  0  0  0  0  0  # atno 6907 bound_to 6896
  151.2051  135.0458  159.8898 H   0  0  0  0  0  0  0  0  0  0  0  0  # atno 6908 bound_to 6896
  152.5444  134.0855  159.8307 H   0  0  0  0  0  0  0  0  0  0  0  0  # atno 6909 bound_to 6896
  146.2346  140.2067  142.8334 H   0  0  0  0  0  0  0  0  0  0  0  0  # atno 7974 bound_to 7965
  156.2904  140.2232  156.5077 H   0  0  0  0  0  0  0  0  0  0  0  0  # atno 8008 bound_to 7997
  154.7636  140.0471  157.1015 H   0  0  0  0  0  0  0  0  0  0  0  0  # atno 8009 bound_to 7997
  154.9961  140.3096  155.4889 H   0  0  0  0  0  0  0  0  0  0  0  0  # atno 8010 bound_to 7997
  140.6089  143.8450  150.7043 H   0  0  0  0  0  0  0  0  0  0  0  0  # atno 10167 bound_to 10162
  156.1621  130.6609  151.0064 H   0  0  0  0  0  0  0  0  0  0  0  0  # atno 10718 bound_to 10713
  153.0824  135.4902  154.8529 H   0  0  0  0  0  0  0  0  0  0  0  0  # atno 10763 bound_to 10752
  154.7167  135.3031  154.9114 H   0  0  0  0  0  0  0  0  0  0  0  0  # atno 10764 bound_to 10752
  153.9791  135.6792  153.4802 H   0  0  0  0  0  0  0  0  0  0  0  0  # atno 10765 bound_to 10752
  140.2969  134.7628  157.3884 H   0  0  0  0  0  0  0  0  0  0  0  0  # atno 11005 bound_to 11000
  144.9739  140.8395  143.5438 LP  0  0  0  0  0  0  0  0  0  0  0  0  # atno 17320 bound_to 7965
  145.2052  139.2232  143.5172 LP  0  0  0  0  0  0  0  0  0  0  0  0  # atno 17321 bound_to 7965
  140.2014  143.3956  152.1789 LP  0  0  0  0  0  0  0  0  0  0  0  0  # atno 17342 bound_to 10162
  139.5346  144.7195  151.4938 LP  0  0  0  0  0  0  0  0  0  0  0  0  # atno 17343 bound_to 10162
  157.6740  131.0855  150.7540 LP  0  0  0  0  0  0  0  0  0  0  0  0  # atno 17370 bound_to 10713
  156.7603  130.4796  149.5438 LP  0  0  0  0  0  0  0  0  0  0  0  0  # atno 17371 bound_to 10713
  140.1145  134.5302  155.8237 LP  0  0  0  0  0  0  0  0  0  0  0  0  # atno 17394 bound_to 11000
  141.2136  133.6735  156.6751 LP  0  0  0  0  0  0  0  0  0  0  0  0  # atno 17395 bound_to 11000

$$$$
