AV-unprocessed.smi:109|AV-procd|sdf|1037|dock9
  -GOLD-   2262018 53D 1   1.00000     0.00000
 Structure written by MMmdl.
 58 61  0  0  0  0  0  0  0  0  1 V2000
  149.6408  140.8228  153.4807 O   0  0  0  0  0  0  0  0  0  0  0  0
  149.0054  140.9516  154.7343 C   0  0  0  0  0  0  0  0  0  0  0  0
  149.7393  142.0004  155.5871 C   0  0  0  0  0  0  0  0  0  0  0  0
  150.8050  141.4084  156.5421 C   0  0  2  0  0  0  0  0  0  0  0  0
  150.3734  140.0831  156.9924 N   0  0  0  0  0  0  0  0  0  0  0  0
  150.9626  138.9466  156.5573 C   0  0  0  0  0  0  0  0  0  0  0  0
  152.2710  138.9176  156.1917 N   0  0  0  0  0  0  0  0  0  0  0  0
  152.8230  137.7779  155.7643 C   0  0  0  0  0  0  0  0  0  0  0  0
  152.2578  136.5762  155.6287 N   0  0  0  0  0  0  0  0  0  0  0  0
  150.9433  136.6025  155.9931 C   0  0  0  0  0  0  0  0  0  0  0  0
  150.2275  137.7369  156.4645 C   0  0  0  0  0  0  0  0  0  0  0  0
  148.9142  137.3806  156.7428 N   0  0  0  0  0  0  0  0  0  0  0  0
  148.8636  136.1073  156.4536 C   0  0  0  0  0  0  0  0  0  0  0  0
  150.0403  135.5630  155.9836 N   0  0  0  0  0  0  0  0  0  0  0  0
  150.3415  134.1557  155.5718 C   0  0  1  0  0  0  0  0  0  0  0  0
  149.8799  133.2831  156.5667 O   0  0  0  0  0  0  0  0  0  0  0  0
  148.9011  132.3748  156.0583 C   0  0  1  0  0  0  0  0  0  0  0  0
  147.4898  132.9024  156.3984 C   0  0  0  0  0  0  0  0  0  0  0  0
  146.5133  132.0164  155.8947 O   0  0  0  0  0  0  0  0  0  0  0  0
  149.2445  132.3286  154.5633 C   0  0  1  0  0  0  0  0  0  0  0  0
  148.2270  131.8203  153.7200 O   0  0  0  0  0  0  0  0  0  0  0  0
  149.6610  133.7556  154.2462 C   0  0  1  0  0  0  0  0  0  0  0  0
  148.5592  134.5774  153.8912 O   0  0  0  0  0  0  0  0  0  0  0  0
  151.0977  142.3050  157.7800 C   0  0  0  0  0  0  0  0  0  0  0  0
  151.5580  143.7351  157.3993 C   0  0  0  0  0  0  0  0  0  0  0  0
  151.8905  144.5959  158.6293 C   0  0  0  0  0  0  0  0  0  0  0  0
  152.9454  143.9247  159.5166 C   0  0  0  0  0  0  0  0  0  0  0  0
  152.4862  142.5219  159.9301 C   0  0  0  0  0  0  0  0  0  0  0  0
  152.1662  141.6588  158.7000 C   0  0  0  0  0  0  0  0  0  0  0  0
  151.4305  134.1093  155.5264 H   0  0  0  0  0  0  0  0  0  0  0  0
  149.0385  131.3858  156.4976 H   0  0  0  0  0  0  0  0  0  0  0  0
  150.1183  131.6864  154.4404 H   0  0  0  0  0  0  0  0  0  0  0  0
  150.3892  133.7922  153.4352 H   0  0  0  0  0  0  0  0  0  0  0  0
  149.1306  140.2355  152.9440 H   0  0  0  0  0  0  0  0  0  0  0  0
  147.9656  141.2327  154.5674 H   0  0  0  0  0  0  0  0  0  0  0  0
  149.0075  139.9819  155.2327 H   0  0  0  0  0  0  0  0  0  0  0  0
  150.2085  142.6945  154.8923 H   0  0  0  0  0  0  0  0  0  0  0  0
  149.0154  142.5814  156.1604 H   0  0  0  0  0  0  0  0  0  0  0  0
  151.7409  141.3375  155.9884 H   0  0  0  0  0  0  0  0  0  0  0  0
  149.6712  140.0824  157.7183 H   0  0  0  0  0  0  0  0  0  0  0  0
  153.8665  137.8379  155.4923 H   0  0  0  0  0  0  0  0  0  0  0  0
  147.9583  135.5318  156.5798 H   0  0  0  0  0  0  0  0  0  0  0  0
  147.3469  133.0443  157.4687 H   0  0  0  0  0  0  0  0  0  0  0  0
  147.3136  133.8670  155.9231 H   0  0  0  0  0  0  0  0  0  0  0  0
  145.7843  131.9998  156.4960 H   0  0  0  0  0  0  0  0  0  0  0  0
  148.0791  132.4394  153.0213 H   0  0  0  0  0  0  0  0  0  0  0  0
  148.8015  135.0858  153.1322 H   0  0  0  0  0  0  0  0  0  0  0  0
  150.1742  142.3975  158.3544 H   0  0  0  0  0  0  0  0  0  0  0  0
  152.4306  143.6788  156.7471 H   0  0  0  0  0  0  0  0  0  0  0  0
  150.7841  144.2564  156.8386 H   0  0  0  0  0  0  0  0  0  0  0  0
  152.2450  145.5764  158.3105 H   0  0  0  0  0  0  0  0  0  0  0  0
  150.9832  144.7698  159.2091 H   0  0  0  0  0  0  0  0  0  0  0  0
  153.8920  143.8589  158.9788 H   0  0  0  0  0  0  0  0  0  0  0  0
  153.1317  144.5333  160.4020 H   0  0  0  0  0  0  0  0  0  0  0  0
  153.2589  142.0404  160.5299 H   0  0  0  0  0  0  0  0  0  0  0  0
  151.6025  142.5965  160.5648 H   0  0  0  0  0  0  0  0  0  0  0  0
  151.8357  140.6808  159.0502 H   0  0  0  0  0  0  0  0  0  0  0  0
  153.0809  141.4847  158.1315 H   0  0  0  0  0  0  0  0  0  0  0  0
  1  2  1  0  0  0  0
  1 34  1  0  0  0  0
  2  3  1  0  0  0  0
  2 35  1  0  0  0  0
  2 36  1  0  0  0  0
  3  4  1  0  0  0  0
  3 37  1  0  0  0  0
  3 38  1  0  0  0  0
  4  5  1  0  0  0  0
  4 24  1  0  0  0  0
  4 39  1  0  0  0  0
  5  6  1  0  0  0  0
  5 40  1  0  0  0  0
  6 11  1  0  0  0  0
  6  7  2  0  0  0  0
  7  8  1  0  0  0  0
  8  9  2  0  0  0  0
  8 41  1  0  0  0  0
  9 10  1  0  0  0  0
 10 14  1  0  0  0  0
 10 11  2  0  0  0  0
 11 12  1  0  0  0  0
 12 13  2  0  0  0  0
 13 14  1  0  0  0  0
 13 42  1  0  0  0  0
 14 15  1  0  0  0  0
 15 30  1  0  0  0  0
 15 22  1  0  0  0  0
 15 16  1  0  0  0  0
 16 17  1  0  0  0  0
 17 31  1  0  0  0  0
 17 18  1  0  0  0  0
 17 20  1  0  0  0  0
 18 19  1  0  0  0  0
 18 43  1  0  0  0  0
 18 44  1  0  0  0  0
 19 45  1  0  0  0  0
 20 32  1  0  0  0  0
 20 21  1  0  0  0  0
 20 22  1  0  0  0  0
 21 46  1  0  0  0  0
 22 33  1  0  0  0  0
 22 23  1  0  0  0  0
 23 47  1  0  0  0  0
 24 29  1  0  0  0  0
 24 25  1  0  0  0  0
 24 48  1  0  0  0  0
 25 26  1  0  0  0  0
 25 49  1  0  0  0  0
 25 50  1  0  0  0  0
 26 27  1  0  0  0  0
 26 51  1  0  0  0  0
 26 52  1  0  0  0  0
 27 28  1  0  0  0  0
 27 53  1  0  0  0  0
 27 54  1  0  0  0  0
 28 29  1  0  0  0  0
 28 55  1  0  0  0  0
 28 56  1  0  0  0  0
 29 57  1  0  0  0  0
 29 58  1  0  0  0  0
M  END
> <s_m_source_file>
AV-unprocessed.smi

> <i_m_source_file_index>
109

> <i_lp_mmshare_version>
43012

> <i_f3d_flags>
0

> <s_epik_input>
W0NIMl0xW0NIMl1bQ0gyXVtDSDJdW0NIMl1bQ0hdMVtDQEhdKFtDSDJdW0NIMl1bT0hdKVtOSF1jKG5bY0hdbjIpYyhjMjMpbltjSF1uM1tDQEBIXTRPW0NASF0oW0NIMl1bT0hdKVtDQEBIXShbT0hdKVtDQEhdNFtPSF0=

> <s_epik_cmdline>
J2VwaWtfcHl0aG9uJywgJy1waCcsICc3LjAnLCAnLXRuJywgJzgnLCAnLW1hJywgJzIwMCcsICctbWV0YWxfYmluZGluZycsICctaW1hZScsICc8aW5maWxlLm1hZT4nLCAnLW9tYWUnLCAnPG91dGZpbGUubWFlPic=

> <r_lp_tautomer_probability>
1

> <r_epik_Ionization_Penalty>
0.000793976

> <r_epik_Ionization_Penalty_Charging>
0

> <r_epik_Ionization_Penalty_Neutral>
0.000793976

> <r_epik_State_Penalty>
-0

> <r_epik_Charging_Adjusted_Penalty>
0

> <i_epik_Tot_Q>
0

> <i_epik_Tot_abs_Q>
0

> <r_epik_Metal_State_Penalty>
-0

> <b_epik_Metal_Only>
0

> <s_epik_Chemistry_Notes>
This compound contains an acetal/aminal-like group ( X-CH(R)-Y where X, Y are N, S, or O) that may be acid/base labile, releasing an aldehyde.

> <s_lp_Force_Field>
OPLS_2005

> <r_lp_Energy>
61.3844

> <b_lp_Chiralities_Consistent>
1

> <s_lp_Variant>
AV-unprocessed.smi:109-7

> <Gold.Version>
5.8.1

> <Gold.Id.Protein>
6NUR|6NUR_protein|mol2

> <Gold.PLP.Fitness>
52.2302

> <Gold.PLP.PLP>
-42.7898

> <Gold.PLP.part.hbond>
-4.2667

> <Gold.PLP.part.metal>
0.0000

> <Gold.PLP.part.buried>
-2.3990

> <Gold.PLP.part.nonpolar>
-36.2442

> <Gold.PLP.part.repulsive>
0.0500

> <Gold.PLP.ligand.clash>
0.0057

> <Gold.PLP.ligand.torsion>
1.0100

> <Gold.PLP.Chemscore.Hbond>
3.7728

> <Gold.PLP.Chemscore.CHOScore>
0.0000

> <Gold.PLP.Chemscore.Metal>
0.0000

> <Gold.Chemscore.Hbonds>
donor molecule, donor type, donor heavy atom, donor atom, acceptor molecule, acceptor atom, score
      L1  H     1    34       P1  7957  0.37
      L1  H    23    47       P1  7948  1.00
      P1  H  7989  7998       L1     1  0.32
      P1  H  7997  8009       L1     7  0.07
      P1  H  8011  8017       L1     1  1.00
      P1  H 10752 10765       L1     9  0.96

> <Gold.PLP.Chemscore.Internal.Correction>
0.1478

> <Gold.Rescore>
     Score         DG    S(hbond)    S(metal)    S(lipo)     H(rot)  DE(clash)    DE(int)     intcor
     11.42     -14.98       3.14        0.00     111.10       5.47       1.53       2.04       ----

> <Gold.Chemscore.Fitness>
11.4158

> <Gold.Chemscore.DG>
-14.9797

> <Gold.Chemscore.ZeroCoef>
-5.4800

> <Gold.Chemscore.Hbond>
3.1419

> <Gold.Chemscore.Metal>
0.0000

> <Gold.Chemscore.Lipo>
111.1034

> <Gold.Chemscore.Internal_Hbond>
0.0000

> <Gold.Chemscore.DEClash>
1.5262

> <Gold.Chemscore.DEInternal>
2.0377

> <Gold.Chemscore.Rot>
5.4662

> <Gold.Chemscore.Internal.Correction>
   9.000000E+99

> <Gold.Chemscore.Hbonds>
donor molecule, donor type, donor heavy atom, donor atom, acceptor molecule, acceptor atom, score
      L1  H     1    34       P1  7957  0.36
      L1  H    23    47       P1  7948  0.45
      P1  H  7989  7998       L1     1  0.30
      P1  H  7997  8009       L1     7  0.01
      P1  H  8011  8017       L1     1  0.33
      P1  H 10752 10765       L1     9  0.81

> <Gold.Chemscore.Hbond.Weighted>
-10.4941

> <Gold.Chemscore.Metal.Weighted>
-0.0000

> <Gold.Chemscore.Lipo.Weighted>
-12.9991

> <Gold.Chemscore.Internal_Hbond.Weighted>
0.0000

> <Gold.Chemscore.DEClash.Weighted>
1.5262

> <Gold.Chemscore.DEInternal.Weighted>
2.0377

> <Gold.Chemscore.Rot.Weighted>
13.9935

> <Gold.Chemscore.Internal.Correction.Weighted>
   9.000000E+99

> <Gold.Protein.RotatedTorsions>
[ 6907 6896 6895 6894 ] final -175.44 input  -60.11 | X-H torsion
[ 7974 7965 7964 7962 ] final   83.27 input  175.53 | X-H torsion
[ 8008 7997 7996 7995 ] final -163.38 input   59.86 | X-H torsion
[ 10167 10162 10161 10158 ] final  -58.00 input  -65.29 | X-H torsion
[ 10718 10713 10712 10709 ] final   62.02 input   66.30 | X-H torsion
[ 10763 10752 10751 10750 ] final -170.53 input  -60.55 | X-H torsion
[ 11005 11000 10999 10996 ] final  -55.61 input  -57.11 | X-H torsion

> <Gold.Protein.ActiveResidues>
 VAL166  LYS551  ARG553  GLY616  TRP617  ASP618  TYR619  PRO620  LYS621  CYS622 
 ASP623  PHE694  ASN695  SER759  ASP760  ASP761  ALA762  ILE779  LEU786  VAL792 
 PHE793  MET794  SER795  GLU796  ALA797  LYS798  CYS799  TRP800  GLU811  SER814 

> <Gold.Protein.RotatedAtoms>
  151.5886  133.3369  159.3022 H   0  0  0  0  0  0  0  0  0  0  0  0  # atno 6907 bound_to 6896
  150.8273  134.7513  159.6835 H   0  0  0  0  0  0  0  0  0  0  0  0  # atno 6908 bound_to 6896
  152.4361  134.5690  159.9967 H   0  0  0  0  0  0  0  0  0  0  0  0  # atno 6909 bound_to 6896
  145.6141  139.2373  143.2175 H   0  0  0  0  0  0  0  0  0  0  0  0  # atno 7974 bound_to 7965
  155.8205  140.0919  157.1852 H   0  0  0  0  0  0  0  0  0  0  0  0  # atno 8008 bound_to 7997
  154.3979  140.1437  156.3554 H   0  0  0  0  0  0  0  0  0  0  0  0  # atno 8009 bound_to 7997
  155.8271  140.3444  155.5552 H   0  0  0  0  0  0  0  0  0  0  0  0  # atno 8010 bound_to 7997
  140.6224  143.2424  151.5448 H   0  0  0  0  0  0  0  0  0  0  0  0  # atno 10167 bound_to 10162
  157.5870  130.9027  149.9534 H   0  0  0  0  0  0  0  0  0  0  0  0  # atno 10718 bound_to 10713
  154.6405  135.2898  155.0109 H   0  0  0  0  0  0  0  0  0  0  0  0  # atno 10763 bound_to 10752
  154.1237  135.6544  153.4912 H   0  0  0  0  0  0  0  0  0  0  0  0  # atno 10764 bound_to 10752
  153.0324  135.5294  154.7270 H   0  0  0  0  0  0  0  0  0  0  0  0  # atno 10765 bound_to 10752
  141.1082  133.6612  156.4495 H   0  0  0  0  0  0  0  0  0  0  0  0  # atno 11005 bound_to 11000
  146.1481  140.6963  142.9335 LP  0  0  0  0  0  0  0  0  0  0  0  0  # atno 17320 bound_to 7965
  144.7257  140.4518  143.6974 LP  0  0  0  0  0  0  0  0  0  0  0  0  # atno 17321 bound_to 7965
  139.5450  144.2546  152.1424 LP  0  0  0  0  0  0  0  0  0  0  0  0  # atno 17342 bound_to 10162
  140.1769  144.4882  150.6549 LP  0  0  0  0  0  0  0  0  0  0  0  0  # atno 17343 bound_to 10162
  156.0920  130.3662  150.0377 LP  0  0  0  0  0  0  0  0  0  0  0  0  # atno 17370 bound_to 10713
  156.8506  130.9457  151.3626 LP  0  0  0  0  0  0  0  0  0  0  0  0  # atno 17371 bound_to 10713
  140.4847  134.6632  157.5186 LP  0  0  0  0  0  0  0  0  0  0  0  0  # atno 17394 bound_to 11000
  139.9962  134.6908  155.9606 LP  0  0  0  0  0  0  0  0  0  0  0  0  # atno 17395 bound_to 11000

$$$$
