AV-unprocessed.smi:1716|AV-procd|sdf|6916|dock7
  -GOLD-   22720 8123D 1   1.00000     0.00000
 Structure written by MMmdl.
 40 41  0  0  0  0  0  0  0  0  1 V2000
  148.9272  141.0595  156.3589 C   0  0  0  0  0  0  0  0  0  0  0  0
  148.5961  141.3138  154.8865 C   0  0  0  0  0  0  0  0  0  0  0  0
  149.3914  141.9780  154.2216 O   0  0  0  0  0  0  0  0  0  0  0  0
  147.4536  140.8036  154.3663 N   0  0  0  0  0  0  0  0  0  0  0  0
  147.0950  140.9417  152.9498 C   0  0  0  0  0  0  0  0  0  0  0  0
  147.2028  139.5648  152.2699 C   0  0  0  0  0  0  0  0  0  0  0  0
  146.3310  138.5115  152.9915 C   0  0  0  0  0  0  0  0  0  0  0  0
  146.5877  137.1765  152.4593 N   0  0  0  0  0  0  0  0  0  0  0  0
  145.6480  136.2610  152.1799 C   0  0  0  0  0  0  0  0  0  0  0  0
  144.4428  136.4547  152.3431 O   0  0  0  0  0  0  0  0  0  0  0  0
  146.1987  135.1293  151.7057 N   0  0  0  0  0  0  0  0  0  0  0  0
  145.5491  133.9289  151.3005 C   0  0  0  0  0  0  0  0  0  0  0  0
  144.4205  133.9253  150.5470 N   0  0  0  0  0  0  0  0  0  0  0  0
  143.8563  132.7511  150.1987 C   0  0  0  0  0  0  0  0  0  0  0  0
  144.3813  131.5045  150.5797 C   0  0  0  0  0  0  0  0  0  0  0  0
  145.5500  131.4895  151.3601 C   0  0  0  0  0  0  0  0  0  0  0  0
  146.1475  132.7135  151.7293 C   0  0  0  0  0  0  0  0  0  0  0  0
  147.4119  132.6989  152.5732 C   0  0  0  0  0  0  0  0  0  0  0  0
  146.5850  138.5213  154.5142 C   0  0  0  0  0  0  0  0  0  0  0  0
  146.5000  139.9485  155.0844 C   0  0  0  0  0  0  0  0  0  0  0  0
  148.9915  139.9901  156.5626 H   0  0  0  0  0  0  0  0  0  0  0  0
  148.1693  141.5004  157.0070 H   0  0  0  0  0  0  0  0  0  0  0  0
  149.8877  141.5053  156.6189 H   0  0  0  0  0  0  0  0  0  0  0  0
  146.0750  141.3201  152.8702 H   0  0  0  0  0  0  0  0  0  0  0  0
  147.7204  141.6638  152.4233 H   0  0  0  0  0  0  0  0  0  0  0  0
  146.9073  139.6460  151.2232 H   0  0  0  0  0  0  0  0  0  0  0  0
  148.2464  139.2467  152.2724 H   0  0  0  0  0  0  0  0  0  0  0  0
  145.2813  138.7649  152.8312 H   0  0  0  0  0  0  0  0  0  0  0  0
  147.5531  136.9332  152.2922 H   0  0  0  0  0  0  0  0  0  0  0  0
  147.2045  135.1225  151.6251 H   0  0  0  0  0  0  0  0  0  0  0  0
  142.9597  132.8080  149.5994 H   0  0  0  0  0  0  0  0  0  0  0  0
  143.9000  130.5851  150.2811 H   0  0  0  0  0  0  0  0  0  0  0  0
  145.9796  130.5481  151.6697 H   0  0  0  0  0  0  0  0  0  0  0  0
  147.7215  131.6799  152.8074 H   0  0  0  0  0  0  0  0  0  0  0  0
  147.2491  133.2240  153.5146 H   0  0  0  0  0  0  0  0  0  0  0  0
  148.2312  133.1842  152.0423 H   0  0  0  0  0  0  0  0  0  0  0  0
  145.8638  137.8764  155.0176 H   0  0  0  0  0  0  0  0  0  0  0  0
  147.5723  138.1093  154.7296 H   0  0  0  0  0  0  0  0  0  0  0  0
  146.6572  139.9262  156.1615 H   0  0  0  0  0  0  0  0  0  0  0  0
  145.4926  140.3438  154.9471 H   0  0  0  0  0  0  0  0  0  0  0  0
  1  2  1  0  0  0  0
  1 21  1  0  0  0  0
  1 22  1  0  0  0  0
  1 23  1  0  0  0  0
  2  3  2  0  0  0  0
  2  4  1  0  0  0  0
  4 20  1  0  0  0  0
  4  5  1  0  0  0  0
  5  6  1  0  0  0  0
  5 24  1  0  0  0  0
  5 25  1  0  0  0  0
  6  7  1  0  0  0  0
  6 26  1  0  0  0  0
  6 27  1  0  0  0  0
  7  8  1  0  0  0  0
  7 19  1  0  0  0  0
  7 28  1  0  0  0  0
  8  9  1  0  0  0  0
  8 29  1  0  0  0  0
  9 10  2  0  0  0  0
  9 11  1  0  0  0  0
 11 12  1  0  0  0  0
 11 30  1  0  0  0  0
 12 17  1  0  0  0  0
 12 13  2  0  0  0  0
 13 14  1  0  0  0  0
 14 15  2  0  0  0  0
 14 31  1  0  0  0  0
 15 16  1  0  0  0  0
 15 32  1  0  0  0  0
 16 17  2  0  0  0  0
 16 33  1  0  0  0  0
 17 18  1  0  0  0  0
 18 34  1  0  0  0  0
 18 35  1  0  0  0  0
 18 36  1  0  0  0  0
 19 20  1  0  0  0  0
 19 37  1  0  0  0  0
 19 38  1  0  0  0  0
 20 39  1  0  0  0  0
 20 40  1  0  0  0  0
M  END
> <s_m_source_file>
AV-unprocessed.smi

> <i_m_source_file_index>
1716

> <i_lp_mmshare_version>
43012

> <i_f3d_flags>
0

> <s_epik_input>
W0NIM11DKD1PKU4xW0NIMl1bQ0gyXVtDSF0oW0NIMl1bQ0gyXTEpW05IXUMoPU8pW05IXWMybltjSF1bY0hdW2NIXWMyW0NIM10=

> <s_epik_cmdline>
J2VwaWtfcHl0aG9uJywgJy1waCcsICc3LjAnLCAnLXRuJywgJzgnLCAnLW1hJywgJzIwMCcsICctbWV0YWxfYmluZGluZycsICctaW1hZScsICc8aW5maWxlLm1hZT4nLCAnLW9tYWUnLCAnPG91dGZpbGUubWFlPic=

> <r_lp_tautomer_probability>
1

> <r_epik_Ionization_Penalty>
5.94044e-05

> <r_epik_Ionization_Penalty_Charging>
0

> <r_epik_Ionization_Penalty_Neutral>
5.94044e-05

> <r_epik_State_Penalty>
-0

> <r_epik_Charging_Adjusted_Penalty>
0

> <i_epik_Tot_Q>
0

> <i_epik_Tot_abs_Q>
0

> <r_epik_Metal_State_Penalty>
-0

> <b_epik_Metal_Only>
0

> <s_lp_Force_Field>
OPLS_2005

> <r_lp_Energy>
26.4914

> <b_lp_Chiralities_Consistent>
1

> <s_lp_Variant>
AV-unprocessed.smi:1716-1

> <Gold.Version>
5.8.1

> <Gold.Id.Protein>
6NUR|6NUR_protein|mol2

> <Gold.PLP.Fitness>
39.2603

> <Gold.PLP.PLP>
-30.5123

> <Gold.PLP.part.hbond>
-4.0000

> <Gold.PLP.part.metal>
0.0000

> <Gold.PLP.part.buried>
-0.4417

> <Gold.PLP.part.nonpolar>
-26.6056

> <Gold.PLP.part.repulsive>
0.7093

> <Gold.PLP.ligand.clash>
0.0000

> <Gold.PLP.ligand.torsion>
0.6129

> <Gold.PLP.Chemscore.Hbond>
2.3197

> <Gold.PLP.Chemscore.CHOScore>
1.0000

> <Gold.PLP.Chemscore.Metal>
0.0000

> <Gold.Chemscore.Hbonds>
donor molecule, donor type, donor heavy atom, donor atom, acceptor molecule, acceptor atom, score
      L1  H     8    29       P1  7948  1.00
      L1  H    11    30       P1  7948  0.92
      P1  H  8011  8017       L1     3  0.38
      L1  C    14    31       P1 10186  1.00

> <Gold.PLP.Chemscore.Internal.Correction>
0.0146

> <Gold.Rescore>
     Score         DG    S(hbond)    S(metal)    S(lipo)     H(rot)  DE(clash)    DE(int)     intcor
     16.31     -18.14       1.98        0.00      73.59       1.00       1.23       0.59       ----

> <Gold.Chemscore.Fitness>
16.3140

> <Gold.Chemscore.DG>
-18.1379

> <Gold.Chemscore.ZeroCoef>
-5.4800

> <Gold.Chemscore.Hbond>
1.9784

> <Gold.Chemscore.Metal>
0.0000

> <Gold.Chemscore.Lipo>
73.5890

> <Gold.Chemscore.Internal_Hbond>
0.0000

> <Gold.Chemscore.DEClash>
1.2349

> <Gold.Chemscore.DEInternal>
0.5891

> <Gold.Chemscore.Rot>
1.0000

> <Gold.Chemscore.Internal.Correction>
   9.000000E+99

> <Gold.Chemscore.Hbonds>
donor molecule, donor type, donor heavy atom, donor atom, acceptor molecule, acceptor atom, score
      L1  H     8    29       P1  7948  0.99
      L1  H    11    30       P1  7948  0.76
      P1  H  8011  8017       L1     3  0.37

> <Gold.Chemscore.Hbond.Weighted>
-6.6080

> <Gold.Chemscore.Metal.Weighted>
-0.0000

> <Gold.Chemscore.Lipo.Weighted>
-8.6099

> <Gold.Chemscore.Internal_Hbond.Weighted>
0.0000

> <Gold.Chemscore.DEClash.Weighted>
1.2349

> <Gold.Chemscore.DEInternal.Weighted>
0.5891

> <Gold.Chemscore.Rot.Weighted>
2.5600

> <Gold.Chemscore.Internal.Correction.Weighted>
   9.000000E+99

> <Gold.Protein.RotatedTorsions>
[ 6907 6896 6895 6894 ] final -164.72 input  -60.11 | X-H torsion
[ 7974 7965 7964 7962 ] final   32.83 input  175.53 | X-H torsion
[ 8008 7997 7996 7995 ] final  -67.28 input   59.86 | X-H torsion
[ 10167 10162 10161 10158 ] final   20.27 input  -65.29 | X-H torsion
[ 10718 10713 10712 10709 ] final -164.82 input   66.30 | X-H torsion
[ 10763 10752 10751 10750 ] final -159.49 input  -60.55 | X-H torsion
[ 11005 11000 10999 10996 ] final  168.75 input  -57.11 | X-H torsion

> <Gold.Protein.ActiveResidues>
 VAL166  LYS551  ARG553  GLY616  TRP617  ASP618  TYR619  PRO620  LYS621  CYS622 
 ASP623  PHE694  ASN695  SER759  ASP760  ASP761  ALA762  ILE779  LEU786  VAL792 
 PHE793  MET794  SER795  GLU796  ALA797  LYS798  CYS799  TRP800  GLU811  SER814 

> <Gold.Protein.RotatedAtoms>
  151.4163  133.3712  159.2750 H   0  0  0  0  0  0  0  0  0  0  0  0  # atno 6907 bound_to 6896
  150.9326  134.8742  159.7572 H   0  0  0  0  0  0  0  0  0  0  0  0  # atno 6908 bound_to 6896
  152.5035  134.4108  159.9500 H   0  0  0  0  0  0  0  0  0  0  0  0  # atno 6909 bound_to 6896
  146.1461  139.6475  142.9130 H   0  0  0  0  0  0  0  0  0  0  0  0  # atno 7974 bound_to 7965
  154.4789  140.0896  156.7330 H   0  0  0  0  0  0  0  0  0  0  0  0  # atno 8008 bound_to 7997
  155.4522  140.3458  155.4284 H   0  0  0  0  0  0  0  0  0  0  0  0  # atno 8009 bound_to 7997
  156.1161  140.1461  156.9259 H   0  0  0  0  0  0  0  0  0  0  0  0  # atno 8010 bound_to 7997
  140.5516  143.9499  150.6582 H   0  0  0  0  0  0  0  0  0  0  0  0  # atno 10167 bound_to 10162
  156.6445  130.8982  151.3002 H   0  0  0  0  0  0  0  0  0  0  0  0  # atno 10718 bound_to 10713
  154.7470  135.3082  154.8626 H   0  0  0  0  0  0  0  0  0  0  0  0  # atno 10763 bound_to 10752
  153.9424  135.6773  153.4748 H   0  0  0  0  0  0  0  0  0  0  0  0  # atno 10764 bound_to 10752
  153.1066  135.4886  154.8889 H   0  0  0  0  0  0  0  0  0  0  0  0  # atno 10765 bound_to 10752
  140.2905  134.7677  157.3834 H   0  0  0  0  0  0  0  0  0  0  0  0  # atno 11005 bound_to 11000
  145.4934  141.0438  143.2580 LP  0  0  0  0  0  0  0  0  0  0  0  0  # atno 17320 bound_to 7965
  144.7848  139.6450  143.7139 LP  0  0  0  0  0  0  0  0  0  0  0  0  # atno 17321 bound_to 7965
  140.2926  143.3314  152.1048 LP  0  0  0  0  0  0  0  0  0  0  0  0  # atno 17342 bound_to 10162
  139.5030  144.6746  151.6160 LP  0  0  0  0  0  0  0  0  0  0  0  0  # atno 17343 bound_to 10162
  157.7161  130.9498  150.1259 LP  0  0  0  0  0  0  0  0  0  0  0  0  # atno 17370 bound_to 10713
  156.2133  130.3668  149.8644 LP  0  0  0  0  0  0  0  0  0  0  0  0  # atno 17371 bound_to 10713
  140.1200  134.5233  155.8192 LP  0  0  0  0  0  0  0  0  0  0  0  0  # atno 17394 bound_to 11000
  141.2147  133.6753  156.6847 LP  0  0  0  0  0  0  0  0  0  0  0  0  # atno 17395 bound_to 11000

$$$$
