AV-unprocessed.smi:2078|AV-procd|sdf|8472|dock4
  -GOLD-   2272011173D 1   1.00000     0.00000
 Structure written by MMmdl.
 41 42  0  0  0  0  0  0  0  0  3 V2000
  136.6383  139.4357  153.8921 C   0  0  0  0  0  0  0  0  0  0  0  0
  138.1168  139.5801  153.7699 C   0  0  0  0  0  0  0  0  0  0  0  0
  139.1047  138.7173  153.3867 C   0  0  0  0  0  0  0  0  0  0  0  0
  140.2819  139.5033  153.5050 C   0  0  0  0  0  0  0  0  0  0  0  0
  141.5527  138.9526  153.1925 N   0  0  0  0  0  0  0  0  0  0  0  0
  141.9249  137.6605  153.1491 C   0  0  0  0  0  0  0  0  0  0  0  0
  141.1164  136.7666  153.4269 O   0  0  0  0  0  0  0  0  0  0  0  0
  143.2293  137.5125  152.7870 N   0  5  0  0  0  0  0  0  0  0  0  0
  143.9459  136.2391  152.7491 C   0  0  0  0  0  0  0  0  0  0  0  0
  145.3907  136.4522  152.2548 C   0  0  0  0  0  0  0  0  0  0  0  0
  146.0892  135.1578  152.0406 N   0  3  2  0  0  0  0  0  0  0  0  0
  145.6913  134.4702  150.7814 C   0  0  0  0  0  0  0  0  0  0  0  0
  146.5740  133.2393  150.5240 C   0  0  0  0  0  0  0  0  0  0  0  0
  146.5324  132.2739  151.7172 C   0  0  0  0  0  0  0  0  0  0  0  0
  146.8784  132.9947  153.0337 C   0  0  1  0  0  0  0  0  0  0  0  0
  148.3776  133.3188  153.1588 C   0  0  0  0  0  0  0  0  0  0  0  0
  145.9969  134.2481  153.2135 C   0  0  0  0  0  0  0  0  0  0  0  0
  140.0336  140.7364  153.9211 N   0  0  0  0  0  0  0  0  0  0  0  0
  138.6454  140.7916  154.0939 O   0  0  0  0  0  0  0  0  0  0  0  0
  136.2522  138.7513  153.1366 H   0  0  0  0  0  0  0  0  0  0  0  0
  136.1393  140.3963  153.7629 H   0  0  0  0  0  0  0  0  0  0  0  0
  136.3696  139.0432  154.8729 H   0  0  0  0  0  0  0  0  0  0  0  0
  139.0007  137.6889  153.0741 H   0  0  0  0  0  0  0  0  0  0  0  0
  142.2710  139.6218  152.9583 H   0  0  0  0  0  0  0  0  0  0  0  0
  143.9671  135.7492  153.7236 H   0  0  0  0  0  0  0  0  0  0  0  0
  143.4509  135.5320  152.0831 H   0  0  0  0  0  0  0  0  0  0  0  0
  145.3501  137.0135  151.3199 H   0  0  0  0  0  0  0  0  0  0  0  0
  145.9584  137.0725  152.9507 H   0  0  0  0  0  0  0  0  0  0  0  0
  144.6427  134.1748  150.8427 H   0  0  0  0  0  0  0  0  0  0  0  0
  145.7761  135.1545  149.9362 H   0  0  0  0  0  0  0  0  0  0  0  0
  146.2411  132.7266  149.6212 H   0  0  0  0  0  0  0  0  0  0  0  0
  147.6002  133.5554  150.3342 H   0  0  0  0  0  0  0  0  0  0  0  0
  145.5308  131.8487  151.7944 H   0  0  0  0  0  0  0  0  0  0  0  0
  147.2077  131.4341  151.5498 H   0  0  0  0  0  0  0  0  0  0  0  0
  146.6437  132.3101  153.8498 H   0  0  0  0  0  0  0  0  0  0  0  0
  148.7057  134.0303  152.4009 H   0  0  0  0  0  0  0  0  0  0  0  0
  148.9838  132.4188  153.0534 H   0  0  0  0  0  0  0  0  0  0  0  0
  148.6027  133.7522  154.1337 H   0  0  0  0  0  0  0  0  0  0  0  0
  146.2996  134.7764  154.1191 H   0  0  0  0  0  0  0  0  0  0  0  0
  144.9552  133.9557  153.3554 H   0  0  0  0  0  0  0  0  0  0  0  0
  147.0672  135.3928  151.9497 H   0  0  0  0  0  0  0  0  0  0  0  0
  1  2  1  0  0  0  0
  1 20  1  0  0  0  0
  1 21  1  0  0  0  0
  1 22  1  0  0  0  0
  2 19  1  0  0  0  0
  2  3  2  0  0  0  0
  3  4  1  0  0  0  0
  3 23  1  0  0  0  0
  4  5  1  0  0  0  0
  4 18  2  0  0  0  0
  5  6  1  0  0  0  0
  5 24  1  0  0  0  0
  6  7  2  0  0  0  0
  6  8  1  0  0  0  0
  8  9  1  0  0  0  0
  9 10  1  0  0  0  0
  9 25  1  0  0  0  0
  9 26  1  0  0  0  0
 10 11  1  0  0  0  0
 10 27  1  0  0  0  0
 10 28  1  0  0  0  0
 11 17  1  0  0  0  0
 11 12  1  0  0  0  0
 11 41  1  0  0  0  0
 12 13  1  0  0  0  0
 12 29  1  0  0  0  0
 12 30  1  0  0  0  0
 13 14  1  0  0  0  0
 13 31  1  0  0  0  0
 13 32  1  0  0  0  0
 14 15  1  0  0  0  0
 14 33  1  0  0  0  0
 14 34  1  0  0  0  0
 15 16  1  0  0  0  0
 15 17  1  0  0  0  0
 15 35  1  0  0  0  0
 16 36  1  0  0  0  0
 16 37  1  0  0  0  0
 16 38  1  0  0  0  0
 17 39  1  0  0  0  0
 17 40  1  0  0  0  0
 18 19  1  0  0  0  0
M  CHG  1   8  -1
M  CHG  1  11   1
M  END
> <s_m_source_file>
AV-unprocessed.smi

> <i_m_source_file_index>
2078

> <i_lp_mmshare_version>
43012

> <i_f3d_flags>
0

> <s_epik_input>
W0NIM11jMVtjSF1jKG5vMSlbTkhdQyg9TylbTkhdW0NIMl1bQ0gyXU4yW0NIMl1bQ0gyXVtDSDJdW0NAQEhdKFtDSDNdKVtDSDJdMg==

> <s_epik_cmdline>
J2VwaWtfcHl0aG9uJywgJy1waCcsICc3LjAnLCAnLXRuJywgJzgnLCAnLW1hJywgJzIwMCcsICctbWV0YWxfYmluZGluZycsICctaW1hZScsICc8aW5maWxlLm1hZT4nLCAnLW9tYWUnLCAnPG91dGZpbGUubWFlPic=

> <r_epik_Ionization_Penalty>
6.76934

> <r_epik_Ionization_Penalty_Charging>
6.76934

> <r_epik_Ionization_Penalty_Neutral>
5.77849e-06

> <r_epik_State_Penalty>
6.79457

> <r_epik_Charging_Adjusted_Penalty>
13.5639

> <i_epik_Tot_Q>
0

> <i_epik_Tot_abs_Q>
2

> <r_epik_Metal_State_Penalty>
2.72837

> <b_epik_Metal_Only>
1

> <s_lp_Force_Field>
OPLS_2005

> <r_lp_Energy>
14.163

> <b_lp_Chiralities_Consistent>
1

> <s_lp_Variant>
AV-unprocessed.smi:2078-10

> <Gold.Version>
5.8.1

> <Gold.Id.Protein>
6NUR|6NUR_protein|mol2

> <Gold.PLP.Fitness>
36.2451

> <Gold.PLP.PLP>
-27.6889

> <Gold.PLP.part.hbond>
-2.8374

> <Gold.PLP.part.metal>
0.0000

> <Gold.PLP.part.buried>
-1.1759

> <Gold.PLP.part.nonpolar>
-23.6698

> <Gold.PLP.part.repulsive>
1.7036

> <Gold.PLP.ligand.clash>
0.0000

> <Gold.PLP.ligand.torsion>
0.2097

> <Gold.PLP.Chemscore.Hbond>
2.9825

> <Gold.PLP.Chemscore.CHOScore>
0.0000

> <Gold.PLP.Chemscore.Metal>
0.0000

> <Gold.Chemscore.Hbonds>
donor molecule, donor type, donor heavy atom, donor atom, acceptor molecule, acceptor atom, score
      L1  H     5    24       P1 10175  1.00
      L1  H    11    41       P1  7948  1.98

> <Gold.PLP.Chemscore.Internal.Correction>
0.0281

> <Gold.Rescore>
     Score         DG    S(hbond)    S(metal)    S(lipo)     H(rot)  DE(clash)    DE(int)     intcor
     13.50     -15.38       1.96        0.00      62.53       1.54       0.26       1.62       ----

> <Gold.Chemscore.Fitness>
13.4993

> <Gold.Chemscore.DG>
-15.3849

> <Gold.Chemscore.ZeroCoef>
-5.4800

> <Gold.Chemscore.Hbond>
1.9562

> <Gold.Chemscore.Metal>
0.0000

> <Gold.Chemscore.Lipo>
62.5277

> <Gold.Chemscore.Internal_Hbond>
0.0000

> <Gold.Chemscore.DEClash>
0.2644

> <Gold.Chemscore.DEInternal>
1.6212

> <Gold.Chemscore.Rot>
1.5409

> <Gold.Chemscore.Internal.Correction>
   9.000000E+99

> <Gold.Chemscore.Hbonds>
donor molecule, donor type, donor heavy atom, donor atom, acceptor molecule, acceptor atom, score
      L1  H     5    24       P1 10175  0.85
      L1  H    11    41       P1  7948  0.92

> <Gold.Chemscore.Hbond.Weighted>
-6.5338

> <Gold.Chemscore.Metal.Weighted>
-0.0000

> <Gold.Chemscore.Lipo.Weighted>
-7.3157

> <Gold.Chemscore.Internal_Hbond.Weighted>
0.0000

> <Gold.Chemscore.DEClash.Weighted>
0.2644

> <Gold.Chemscore.DEInternal.Weighted>
1.6212

> <Gold.Chemscore.Rot.Weighted>
3.9446

> <Gold.Chemscore.Internal.Correction.Weighted>
   9.000000E+99

> <Gold.Protein.RotatedTorsions>
[ 6907 6896 6895 6894 ] final -141.04 input  -60.11 | X-H torsion
[ 7974 7965 7964 7962 ] final    4.59 input  175.53 | X-H torsion
[ 8008 7997 7996 7995 ] final -149.85 input   59.86 | X-H torsion
[ 10167 10162 10161 10158 ] final   91.37 input  -65.29 | X-H torsion
[ 10718 10713 10712 10709 ] final  108.96 input   66.30 | X-H torsion
[ 10763 10752 10751 10750 ] final  104.95 input  -60.55 | X-H torsion
[ 11005 11000 10999 10996 ] final  -54.27 input  -57.11 | X-H torsion

> <Gold.Protein.ActiveResidues>
 VAL166  LYS551  ARG553  GLY616  TRP617  ASP618  TYR619  PRO620  LYS621  CYS622 
 ASP623  PHE694  ASN695  SER759  ASP760  ASP761  ALA762  ILE779  LEU786  VAL792 
 PHE793  MET794  SER795  GLU796  ALA797  LYS798  CYS799  TRP800  GLU811  SER814 

> <Gold.Protein.RotatedAtoms>
  151.0686  133.5485  159.2628 H   0  0  0  0  0  0  0  0  0  0  0  0  # atno 6907 bound_to 6896
  151.2433  135.0596  159.9043 H   0  0  0  0  0  0  0  0  0  0  0  0  # atno 6908 bound_to 6896
  152.5408  134.0457  159.8141 H   0  0  0  0  0  0  0  0  0  0  0  0  # atno 6909 bound_to 6896
  146.2443  140.0512  142.8375 H   0  0  0  0  0  0  0  0  0  0  0  0  # atno 7974 bound_to 7965
  155.6142  140.0675  157.2697 H   0  0  0  0  0  0  0  0  0  0  0  0  # atno 8008 bound_to 7997
  154.4245  140.1796  156.1352 H   0  0  0  0  0  0  0  0  0  0  0  0  # atno 8009 bound_to 7997
  156.0060  140.3331  155.6896 H   0  0  0  0  0  0  0  0  0  0  0  0  # atno 8010 bound_to 7997
  139.8381  144.6654  150.9316 H   0  0  0  0  0  0  0  0  0  0  0  0  # atno 10167 bound_to 10162
  157.6563  131.0904  150.6382 H   0  0  0  0  0  0  0  0  0  0  0  0  # atno 10718 bound_to 10713
  153.3728  135.3926  155.1801 H   0  0  0  0  0  0  0  0  0  0  0  0  # atno 10763 bound_to 10752
  154.8696  135.3706  154.4956 H   0  0  0  0  0  0  0  0  0  0  0  0  # atno 10764 bound_to 10752
  153.5426  135.7084  153.5690 H   0  0  0  0  0  0  0  0  0  0  0  0  # atno 10765 bound_to 10752
  141.1017  133.6617  156.4296 H   0  0  0  0  0  0  0  0  0  0  0  0  # atno 11005 bound_to 11000
  145.0983  140.9329  143.4728 LP  0  0  0  0  0  0  0  0  0  0  0  0  # atno 17320 bound_to 7965
  145.0699  139.3039  143.5837 LP  0  0  0  0  0  0  0  0  0  0  0  0  # atno 17321 bound_to 7965
  140.7800  143.3938  151.1265 LP  0  0  0  0  0  0  0  0  0  0  0  0  # atno 17342 bound_to 10162
  139.7586  143.8669  152.3095 LP  0  0  0  0  0  0  0  0  0  0  0  0  # atno 17343 bound_to 10162
  156.6688  130.4533  149.5663 LP  0  0  0  0  0  0  0  0  0  0  0  0  # atno 17370 bound_to 10713
  156.2012  130.6621  151.1170 LP  0  0  0  0  0  0  0  0  0  0  0  0  # atno 17371 bound_to 10713
  140.5004  134.6491  157.5246 LP  0  0  0  0  0  0  0  0  0  0  0  0  # atno 17394 bound_to 11000
  139.9872  134.7043  155.9754 LP  0  0  0  0  0  0  0  0  0  0  0  0  # atno 17395 bound_to 11000

$$$$
