AV-unprocessed.smi:3149|AV-procd|sdf|12006|dock7
  -GOLD-   2272017413D 1   1.00000     0.00000
 Structure written by MMmdl.
 37 38  0  0  0  0  0  0  0  0  1 V2000
  150.4738  139.5465  158.1187 C   0  0  0  0  0  0  0  0  0  0  0  0
  151.4177  140.5615  157.4431 C   0  0  1  0  0  0  0  0  0  0  0  0
  152.7567  140.4650  158.0191 N   0  0  0  0  0  0  0  0  0  0  0  0
  152.8043  140.7316  159.4609 C   0  0  0  0  0  0  0  0  0  0  0  0
  152.4915  142.2000  159.7580 C   0  0  0  0  0  0  0  0  0  0  0  0
  151.6996  142.8177  159.0466 O   0  0  0  0  0  0  0  0  0  0  0  0
  153.0524  142.7708  160.9039 N   0  0  0  0  0  0  0  0  0  0  0  0
  152.3901  143.8635  161.5993 C   0  0  0  0  0  0  0  0  0  0  0  0
  153.0709  143.3260  162.8626 C   0  0  0  0  0  0  0  0  0  0  0  0
  153.2763  142.0022  162.1196 C   0  0  0  0  0  0  0  0  0  0  0  0
  151.4912  140.3689  155.9035 C   0  0  1  0  0  0  0  0  0  0  0  0
  152.0887  139.0088  155.4906 C   0  0  0  0  0  0  0  0  0  0  0  0
  150.2282  140.6455  155.2217 N   0  0  0  0  0  0  0  0  0  0  0  0
  149.5239  141.8322  155.1889 C   0  0  0  0  0  0  0  0  0  0  0  0
  148.3912  141.6194  154.4572 C   0  0  0  0  0  0  0  0  0  0  0  0
  148.4845  140.2509  154.0819 C   0  0  0  0  0  0  0  0  0  0  0  0
  149.5795  139.6706  154.5435 N   0  0  0  0  0  0  0  0  0  0  0  0
  149.5004  139.5366  157.6277 H   0  0  0  0  0  0  0  0  0  0  0  0
  150.2965  139.7921  159.1654 H   0  0  0  0  0  0  0  0  0  0  0  0
  150.8740  138.5329  158.0795 H   0  0  0  0  0  0  0  0  0  0  0  0
  151.0326  141.5663  157.6240 H   0  0  0  0  0  0  0  0  0  0  0  0
  153.1683  139.5726  157.7841 H   0  0  0  0  0  0  0  0  0  0  0  0
  152.0997  140.0885  159.9900 H   0  0  0  0  0  0  0  0  0  0  0  0
  153.7970  140.5072  159.8506 H   0  0  0  0  0  0  0  0  0  0  0  0
  152.7226  144.8542  161.2881 H   0  0  0  0  0  0  0  0  0  0  0  0
  151.3023  143.7705  161.6237 H   0  0  0  0  0  0  0  0  0  0  0  0
  154.0048  143.8376  163.1018 H   0  0  0  0  0  0  0  0  0  0  0  0
  152.4137  143.2551  163.7298 H   0  0  0  0  0  0  0  0  0  0  0  0
  152.4942  141.2708  162.3310 H   0  0  0  0  0  0  0  0  0  0  0  0
  154.2799  141.5841  162.2037 H   0  0  0  0  0  0  0  0  0  0  0  0
  152.1942  141.1188  155.5372 H   0  0  0  0  0  0  0  0  0  0  0  0
  153.0732  138.8638  155.9362 H   0  0  0  0  0  0  0  0  0  0  0  0
  152.2058  138.9469  154.4085 H   0  0  0  0  0  0  0  0  0  0  0  0
  151.4612  138.1732  155.8022 H   0  0  0  0  0  0  0  0  0  0  0  0
  149.8834  142.7210  155.6865 H   0  0  0  0  0  0  0  0  0  0  0  0
  147.6127  142.3316  154.2276 H   0  0  0  0  0  0  0  0  0  0  0  0
  147.7928  139.6651  153.4948 H   0  0  0  0  0  0  0  0  0  0  0  0
  1  2  1  0  0  0  0
  1 18  1  0  0  0  0
  1 19  1  0  0  0  0
  1 20  1  0  0  0  0
  2  3  1  0  0  0  0
  2 11  1  0  0  0  0
  2 21  1  0  0  0  0
  3  4  1  0  0  0  0
  3 22  1  0  0  0  0
  4  5  1  0  0  0  0
  4 23  1  0  0  0  0
  4 24  1  0  0  0  0
  5  6  2  0  0  0  0
  5  7  1  0  0  0  0
  7 10  1  0  0  0  0
  7  8  1  0  0  0  0
  8  9  1  0  0  0  0
  8 25  1  0  0  0  0
  8 26  1  0  0  0  0
  9 10  1  0  0  0  0
  9 27  1  0  0  0  0
  9 28  1  0  0  0  0
 10 29  1  0  0  0  0
 10 30  1  0  0  0  0
 11 12  1  0  0  0  0
 11 13  1  0  0  0  0
 11 31  1  0  0  0  0
 12 32  1  0  0  0  0
 12 33  1  0  0  0  0
 12 34  1  0  0  0  0
 13 17  1  0  0  0  0
 13 14  1  0  0  0  0
 14 15  2  0  0  0  0
 14 35  1  0  0  0  0
 15 16  1  0  0  0  0
 15 36  1  0  0  0  0
 16 17  2  0  0  0  0
 16 37  1  0  0  0  0
M  END
> <s_m_source_file>
AV-unprocessed.smi

> <i_m_source_file_index>
3149

> <i_lp_mmshare_version>
43012

> <i_f3d_flags>
0

> <s_epik_input>
bjFbY0hdW2NIXVtjSF1uMVtDQEBIXShbQ0gzXSlbQ0BIXShbQ0gzXSlbTkhdW0NIMl1DKD1PKU4yW0NIMl1bQ0gyXVtDSDJdMg==

> <s_epik_cmdline>
J2VwaWtfcHl0aG9uJywgJy1waCcsICc3LjAnLCAnLXRuJywgJzgnLCAnLW1hJywgJzIwMCcsICctbWV0YWxfYmluZGluZycsICctaW1hZScsICc8aW5maWxlLm1hZT4nLCAnLW9tYWUnLCAnPG91dGZpbGUubWFlPic=

> <r_lp_tautomer_probability>
1

> <r_epik_Ionization_Penalty>
0.918674

> <r_epik_Ionization_Penalty_Charging>
0

> <r_epik_Ionization_Penalty_Neutral>
0.918674

> <r_epik_State_Penalty>
0.958258

> <r_epik_Charging_Adjusted_Penalty>
0.958258

> <i_epik_Tot_Q>
0

> <i_epik_Tot_abs_Q>
0

> <r_epik_Metal_State_Penalty>
0.956881

> <b_epik_Metal_Only>
0

> <s_lp_Force_Field>
OPLS_2005

> <r_lp_Energy>
24.8849

> <b_lp_Chiralities_Consistent>
1

> <s_lp_Variant>
AV-unprocessed.smi:3149-8

> <Gold.Version>
5.8.1

> <Gold.Id.Protein>
6NUR|6NUR_protein|mol2

> <Gold.PLP.Fitness>
43.5343

> <Gold.PLP.PLP>
-41.4429

> <Gold.PLP.part.hbond>
-1.0000

> <Gold.PLP.part.metal>
0.0000

> <Gold.PLP.part.buried>
-1.8083

> <Gold.PLP.part.nonpolar>
-37.9462

> <Gold.PLP.part.repulsive>
0.1260

> <Gold.PLP.ligand.clash>
0.0000

> <Gold.PLP.ligand.torsion>
0.9495

> <Gold.PLP.Chemscore.Hbond>
0.0000

> <Gold.PLP.Chemscore.CHOScore>
0.9970

> <Gold.PLP.Chemscore.Metal>
0.0000

> <Gold.Chemscore.Hbonds>
donor molecule, donor type, donor heavy atom, donor atom, acceptor molecule, acceptor atom, score
      L1  C    14    35       P1  8028  0.91

> <Gold.PLP.Chemscore.Internal.Correction>
0.9992

> <Gold.Rescore>
     Score         DG    S(hbond)    S(metal)    S(lipo)     H(rot)  DE(clash)    DE(int)     intcor
      8.93     -11.35       0.00        0.00      89.27       1.79       0.07       2.34       ----

> <Gold.Chemscore.Fitness>
8.9349

> <Gold.Chemscore.DG>
-11.3488

> <Gold.Chemscore.ZeroCoef>
-5.4800

> <Gold.Chemscore.Hbond>
0.0000

> <Gold.Chemscore.Metal>
0.0000

> <Gold.Chemscore.Lipo>
89.2705

> <Gold.Chemscore.Internal_Hbond>
0.0000

> <Gold.Chemscore.DEClash>
0.0737

> <Gold.Chemscore.DEInternal>
2.3403

> <Gold.Chemscore.Rot>
1.7874

> <Gold.Chemscore.Internal.Correction>
   9.000000E+99

> <Gold.Chemscore.Hbond.Weighted>
-0.0000

> <Gold.Chemscore.Metal.Weighted>
-0.0000

> <Gold.Chemscore.Lipo.Weighted>
-10.4447

> <Gold.Chemscore.Internal_Hbond.Weighted>
0.0000

> <Gold.Chemscore.DEClash.Weighted>
0.0737

> <Gold.Chemscore.DEInternal.Weighted>
2.3403

> <Gold.Chemscore.Rot.Weighted>
4.5758

> <Gold.Chemscore.Internal.Correction.Weighted>
   9.000000E+99

> <Gold.Protein.RotatedTorsions>
[ 6907 6896 6895 6894 ] final  -14.71 input  -60.11 | X-H torsion
[ 7974 7965 7964 7962 ] final -175.82 input  175.53 | X-H torsion
[ 8008 7997 7996 7995 ] final  176.06 input   59.86 | X-H torsion
[ 10167 10162 10161 10158 ] final  -91.07 input  -65.29 | X-H torsion
[ 10718 10713 10712 10709 ] final    4.80 input   66.30 | X-H torsion
[ 10763 10752 10751 10750 ] final  145.55 input  -60.55 | X-H torsion
[ 11005 11000 10999 10996 ] final  144.13 input  -57.11 | X-H torsion

> <Gold.Protein.ActiveResidues>
 VAL166  LYS551  ARG553  GLY616  TRP617  ASP618  TYR619  PRO620  LYS621  CYS622 
 ASP623  PHE694  ASN695  SER759  ASP760  ASP761  ALA762  ILE779  LEU786  VAL792 
 PHE793  MET794  SER795  GLU796  ALA797  LYS798  CYS799  TRP800  GLU811  SER814 

> <Gold.Protein.RotatedAtoms>
  151.3352  135.0851  159.9351 H   0  0  0  0  0  0  0  0  0  0  0  0  # atno 6907 bound_to 6896
  152.5225  133.9503  159.7679 H   0  0  0  0  0  0  0  0  0  0  0  0  # atno 6908 bound_to 6896
  150.9849  133.6155  159.2747 H   0  0  0  0  0  0  0  0  0  0  0  0  # atno 6909 bound_to 6896
  144.7127  140.1263  143.6402 H   0  0  0  0  0  0  0  0  0  0  0  0  # atno 7974 bound_to 7965
  156.0804  140.1393  156.9719 H   0  0  0  0  0  0  0  0  0  0  0  0  # atno 8008 bound_to 7997
  154.4582  140.0953  156.6867 H   0  0  0  0  0  0  0  0  0  0  0  0  # atno 8009 bound_to 7997
  155.5084  140.3453  155.4386 H   0  0  0  0  0  0  0  0  0  0  0  0  # atno 8010 bound_to 7997
  140.3486  143.2903  151.9753 H   0  0  0  0  0  0  0  0  0  0  0  0  # atno 10167 bound_to 10162
  156.8980  130.5711  149.5648 H   0  0  0  0  0  0  0  0  0  0  0  0  # atno 10718 bound_to 10713
  154.0072  135.2918  155.3396 H   0  0  0  0  0  0  0  0  0  0  0  0  # atno 10763 bound_to 10752
  154.7124  135.5143  153.8690 H   0  0  0  0  0  0  0  0  0  0  0  0  # atno 10764 bound_to 10752
  153.0739  135.6657  154.0307 H   0  0  0  0  0  0  0  0  0  0  0  0  # atno 10765 bound_to 10752
  140.0608  134.9206  157.1180 H   0  0  0  0  0  0  0  0  0  0  0  0  # atno 11005 bound_to 11000
  145.9326  139.2616  143.1316 LP  0  0  0  0  0  0  0  0  0  0  0  0  # atno 17320 bound_to 7965
  145.9507  140.8911  143.0261 LP  0  0  0  0  0  0  0  0  0  0  0  0  # atno 17321 bound_to 7965
  139.4830  144.6096  151.7458 LP  0  0  0  0  0  0  0  0  0  0  0  0  # atno 17342 bound_to 10162
  140.5241  144.0833  150.6032 LP  0  0  0  0  0  0  0  0  0  0  0  0  # atno 17343 bound_to 10162
  156.0596  130.5651  150.9165 LP  0  0  0  0  0  0  0  0  0  0  0  0  # atno 17370 bound_to 10713
  157.6043  131.0940  150.8905 LP  0  0  0  0  0  0  0  0  0  0  0  0  # atno 17371 bound_to 10713
  140.3774  134.2324  155.7173 LP  0  0  0  0  0  0  0  0  0  0  0  0  # atno 17394 bound_to 11000
  141.1972  133.8065  157.0638 LP  0  0  0  0  0  0  0  0  0  0  0  0  # atno 17395 bound_to 11000

$$$$
