AV-unprocessed.smi:275|AV-procd|sdf|2063|dock2
  -GOLD-   2262021313D 1   1.00000     0.00000
 Structure written by MMmdl.
 65 69  0  0  0  0  0  0  0  0  1 V2000
  150.4287  142.1764  157.7580 C   0  0  0  0  0  0  0  0  0  0  0  0
  151.7107  141.3330  157.6976 C   0  0  0  0  0  0  0  0  0  0  0  0
  151.4172  139.9880  156.9960 C   0  0  0  0  0  0  0  0  0  0  0  0
  152.3938  141.2486  159.0881 C   0  0  1  0  0  0  0  0  0  0  0  0
  153.6140  140.4403  159.0338 N   0  0  0  0  0  0  0  0  0  0  0  0
  153.7613  139.4072  160.0172 C   0  0  0  0  0  0  0  0  0  0  0  0
  153.0399  138.2621  159.8717 N   0  0  0  0  0  0  0  0  0  0  0  0
  153.1190  137.2652  160.7562 C   0  0  0  0  0  0  0  0  0  0  0  0
  153.8431  137.1998  161.8717 N   0  0  0  0  0  0  0  0  0  0  0  0
  154.5518  138.3477  162.0572 C   0  0  0  0  0  0  0  0  0  0  0  0
  154.5645  139.4853  161.1969 C   0  0  0  0  0  0  0  0  0  0  0  0
  155.3982  140.4584  161.7378 N   0  0  0  0  0  0  0  0  0  0  0  0
  155.8615  139.9254  162.8338 C   0  0  0  0  0  0  0  0  0  0  0  0
  155.4086  138.6555  163.0993 N   0  0  0  0  0  0  0  0  0  0  0  0
  155.7597  137.8350  164.2457 C   0  0  0  0  0  0  0  0  0  0  0  0
  155.4070  136.3377  164.0583 C   0  0  2  0  0  0  0  0  0  0  0  0
  153.9145  136.0717  164.3829 C   0  0  0  0  0  0  0  0  0  0  0  0
  153.4613  136.8687  165.4567 O   0  0  0  0  0  0  0  0  0  0  0  0
  156.3654  135.4553  164.9045 C   0  0  2  0  0  0  0  0  0  0  0  0
  157.8272  135.5112  164.4677 C   0  0  0  0  0  0  0  0  0  0  0  0
  158.3934  134.1310  164.8141 C   0  0  0  0  0  0  0  0  0  0  0  0
  157.3091  133.3933  165.3596 O   0  0  0  0  0  0  0  0  0  0  0  0
  156.1051  133.9485  164.8603 C   0  0  0  0  0  0  0  0  0  0  0  0
  154.4728  141.6128  159.1904 C   0  0  0  0  0  0  0  0  0  0  0  0
  153.2510  142.3905  159.6982 C   0  0  0  0  0  0  0  0  0  0  0  0
  153.1811  142.5233  161.2356 C   0  0  0  0  0  0  0  0  0  0  0  0
  151.8686  143.1519  161.7326 C   0  0  0  0  0  0  0  0  0  0  0  0
  151.6607  144.5431  161.1242 C   0  0  0  0  0  0  0  0  0  0  0  0
  151.7652  144.4939  159.5958 C   0  0  0  0  0  0  0  0  0  0  0  0
  153.0742  143.8198  159.1451 C   0  0  0  0  0  0  0  0  0  0  0  0
  149.6692  141.6974  158.3766 H   0  0  0  0  0  0  0  0  0  0  0  0
  150.0041  142.3201  156.7642 H   0  0  0  0  0  0  0  0  0  0  0  0
  150.6259  143.1648  158.1739 H   0  0  0  0  0  0  0  0  0  0  0  0
  152.3830  141.8784  157.0368 H   0  0  0  0  0  0  0  0  0  0  0  0
  150.6796  139.4009  157.5438 H   0  0  0  0  0  0  0  0  0  0  0  0
  152.3049  139.3719  156.8742 H   0  0  0  0  0  0  0  0  0  0  0  0
  151.0131  140.1573  155.9976 H   0  0  0  0  0  0  0  0  0  0  0  0
  151.6921  140.9128  159.8495 H   0  0  0  0  0  0  0  0  0  0  0  0
  152.5133  136.3978  160.5390 H   0  0  0  0  0  0  0  0  0  0  0  0
  156.5514  140.4464  163.4817 H   0  0  0  0  0  0  0  0  0  0  0  0
  156.8283  137.9655  164.4146 H   0  0  0  0  0  0  0  0  0  0  0  0
  155.2602  138.2317  165.1304 H   0  0  0  0  0  0  0  0  0  0  0  0
  155.5665  136.0992  163.0052 H   0  0  0  0  0  0  0  0  0  0  0  0
  153.2894  136.2439  163.5064 H   0  0  0  0  0  0  0  0  0  0  0  0
  153.7477  135.0398  164.6869 H   0  0  0  0  0  0  0  0  0  0  0  0
  154.1926  137.0458  166.0286 H   0  0  0  0  0  0  0  0  0  0  0  0
  156.3110  135.7695  165.9480 H   0  0  0  0  0  0  0  0  0  0  0  0
  157.9094  135.6795  163.3931 H   0  0  0  0  0  0  0  0  0  0  0  0
  158.3690  136.3124  164.9713 H   0  0  0  0  0  0  0  0  0  0  0  0
  158.7645  133.6302  163.9188 H   0  0  0  0  0  0  0  0  0  0  0  0
  159.2100  134.1889  165.5341 H   0  0  0  0  0  0  0  0  0  0  0  0
  155.2574  133.6453  165.4751 H   0  0  0  0  0  0  0  0  0  0  0  0
  155.9377  133.6019  163.8390 H   0  0  0  0  0  0  0  0  0  0  0  0
  155.2828  141.5458  159.9166 H   0  0  0  0  0  0  0  0  0  0  0  0
  154.8435  141.9704  158.2299 H   0  0  0  0  0  0  0  0  0  0  0  0
  153.2974  141.5498  161.7118 H   0  0  0  0  0  0  0  0  0  0  0  0
  154.0209  143.1198  161.5950 H   0  0  0  0  0  0  0  0  0  0  0  0
  151.0281  142.5075  161.4728 H   0  0  0  0  0  0  0  0  0  0  0  0
  151.8784  143.2215  162.8206 H   0  0  0  0  0  0  0  0  0  0  0  0
  150.6920  144.9447  161.4228 H   0  0  0  0  0  0  0  0  0  0  0  0
  152.4142  145.2266  161.5173 H   0  0  0  0  0  0  0  0  0  0  0  0
  150.9087  143.9540  159.1932 H   0  0  0  0  0  0  0  0  0  0  0  0
  151.7089  145.5042  159.1897 H   0  0  0  0  0  0  0  0  0  0  0  0
  153.9141  144.4401  159.4607 H   0  0  0  0  0  0  0  0  0  0  0  0
  153.1126  143.8304  158.0585 H   0  0  0  0  0  0  0  0  0  0  0  0
  1  2  1  0  0  0  0
  1 31  1  0  0  0  0
  1 32  1  0  0  0  0
  1 33  1  0  0  0  0
  2  3  1  0  0  0  0
  2  4  1  0  0  0  0
  2 34  1  0  0  0  0
  3 35  1  0  0  0  0
  3 36  1  0  0  0  0
  3 37  1  0  0  0  0
  4 25  1  0  0  0  0
  4  5  1  0  0  0  0
  4 38  1  0  0  0  0
  5  6  1  0  0  0  0
  5 24  1  0  0  0  0
  6 11  1  0  0  0  0
  6  7  2  0  0  0  0
  7  8  1  0  0  0  0
  8  9  2  0  0  0  0
  8 39  1  0  0  0  0
  9 10  1  0  0  0  0
 10 14  1  0  0  0  0
 10 11  2  0  0  0  0
 11 12  1  0  0  0  0
 12 13  2  0  0  0  0
 13 14  1  0  0  0  0
 13 40  1  0  0  0  0
 14 15  1  0  0  0  0
 15 16  1  0  0  0  0
 15 41  1  0  0  0  0
 15 42  1  0  0  0  0
 16 17  1  0  0  0  0
 16 19  1  0  0  0  0
 16 43  1  0  0  0  0
 17 18  1  0  0  0  0
 17 44  1  0  0  0  0
 17 45  1  0  0  0  0
 18 46  1  0  0  0  0
 19 23  1  0  0  0  0
 19 20  1  0  0  0  0
 19 47  1  0  0  0  0
 20 21  1  0  0  0  0
 20 48  1  0  0  0  0
 20 49  1  0  0  0  0
 21 22  1  0  0  0  0
 21 50  1  0  0  0  0
 21 51  1  0  0  0  0
 22 23  1  0  0  0  0
 23 52  1  0  0  0  0
 23 53  1  0  0  0  0
 24 25  1  0  0  0  0
 24 54  1  0  0  0  0
 24 55  1  0  0  0  0
 25 30  1  0  0  0  0
 25 26  1  0  0  0  0
 26 27  1  0  0  0  0
 26 56  1  0  0  0  0
 26 57  1  0  0  0  0
 27 28  1  0  0  0  0
 27 58  1  0  0  0  0
 27 59  1  0  0  0  0
 28 29  1  0  0  0  0
 28 60  1  0  0  0  0
 28 61  1  0  0  0  0
 29 30  1  0  0  0  0
 29 62  1  0  0  0  0
 29 63  1  0  0  0  0
 30 64  1  0  0  0  0
 30 65  1  0  0  0  0
M  END
> <s_m_source_file>
AV-unprocessed.smi

> <i_m_source_file_index>
275

> <i_lp_mmshare_version>
43012

> <i_f3d_flags>
0

> <s_epik_input>
W0NIMl0xW0NIMl1bQ0gyXVtDSDJdW0NIMl1DMTJbQ0BIXShbQ0hdKFtDSDNdKVtDSDNdKU4oW0NIMl0yKWMobltjSF1uMyljKGMzNCluW2NIXW40W0NIMl1bQ0BIXShbQ0gyXVtPSF0pW0NAQEhdNVtDSDJdW0NIMl1PW0NIMl01

> <s_epik_cmdline>
J2VwaWtfcHl0aG9uJywgJy1waCcsICc3LjAnLCAnLXRuJywgJzgnLCAnLW1hJywgJzIwMCcsICctbWV0YWxfYmluZGluZycsICctaW1hZScsICc8aW5maWxlLm1hZT4nLCAnLW9tYWUnLCAnPG91dGZpbGUubWFlPic=

> <r_lp_tautomer_probability>
1

> <r_epik_Ionization_Penalty>
0.00375122

> <r_epik_Ionization_Penalty_Charging>
0

> <r_epik_Ionization_Penalty_Neutral>
0.00375122

> <r_epik_State_Penalty>
0.00260593

> <r_epik_Charging_Adjusted_Penalty>
0.00260593

> <i_epik_Tot_Q>
0

> <i_epik_Tot_abs_Q>
0

> <r_epik_Metal_State_Penalty>
-0

> <b_epik_Metal_Only>
0

> <s_lp_Force_Field>
OPLS_2005

> <r_lp_Energy>
70.0888

> <b_lp_Chiralities_Consistent>
1

> <s_lp_Variant>
AV-unprocessed.smi:275-2

> <Gold.Version>
5.8.1

> <Gold.Id.Protein>
6NUR|6NUR_protein|mol2

> <Gold.PLP.Fitness>
45.7972

> <Gold.PLP.PLP>
-47.7215

> <Gold.PLP.part.hbond>
-4.6697

> <Gold.PLP.part.metal>
0.0000

> <Gold.PLP.part.buried>
-1.7720

> <Gold.PLP.part.nonpolar>
-41.6244

> <Gold.PLP.part.repulsive>
0.0282

> <Gold.PLP.ligand.clash>
0.0000

> <Gold.PLP.ligand.torsion>
1.3106

> <Gold.PLP.Chemscore.Hbond>
0.0520

> <Gold.PLP.Chemscore.CHOScore>
0.0000

> <Gold.PLP.Chemscore.Metal>
0.0000

> <Gold.Chemscore.Hbonds>
donor molecule, donor type, donor heavy atom, donor atom, acceptor molecule, acceptor atom, score
      P1  H  6924  6935       L1    18  0.09

> <Gold.PLP.Chemscore.Internal.Correction>
0.5409

> <Gold.Rescore>
     Score         DG    S(hbond)    S(metal)    S(lipo)     H(rot)  DE(clash)    DE(int)     intcor
      8.56     -16.46       0.00        0.00     149.23       2.54       2.47       5.42       ----

> <Gold.Chemscore.Fitness>
8.5649

> <Gold.Chemscore.DG>
-16.4568

> <Gold.Chemscore.ZeroCoef>
-5.4800

> <Gold.Chemscore.Hbond>
0.0041

> <Gold.Chemscore.Metal>
0.0000

> <Gold.Chemscore.Lipo>
149.2287

> <Gold.Chemscore.Internal_Hbond>
0.0000

> <Gold.Chemscore.DEClash>
2.4709

> <Gold.Chemscore.DEInternal>
5.4209

> <Gold.Chemscore.Rot>
2.5377

> <Gold.Chemscore.Internal.Correction>
   9.000000E+99

> <Gold.Chemscore.Hbonds>
donor molecule, donor type, donor heavy atom, donor atom, acceptor molecule, acceptor atom, score
      P1  H  6924  6935       L1    18  0.06

> <Gold.Chemscore.Hbond.Weighted>
-0.0136

> <Gold.Chemscore.Metal.Weighted>
-0.0000

> <Gold.Chemscore.Lipo.Weighted>
-17.4598

> <Gold.Chemscore.Internal_Hbond.Weighted>
0.0000

> <Gold.Chemscore.DEClash.Weighted>
2.4709

> <Gold.Chemscore.DEInternal.Weighted>
5.4209

> <Gold.Chemscore.Rot.Weighted>
6.4966

> <Gold.Chemscore.Internal.Correction.Weighted>
   9.000000E+99

> <Gold.Protein.RotatedTorsions>
[ 6907 6896 6895 6894 ] final   39.82 input  -60.11 | X-H torsion
[ 7974 7965 7964 7962 ] final  -47.50 input  175.53 | X-H torsion
[ 8008 7997 7996 7995 ] final  111.97 input   59.86 | X-H torsion
[ 10167 10162 10161 10158 ] final   71.56 input  -65.29 | X-H torsion
[ 10718 10713 10712 10709 ] final  125.54 input   66.30 | X-H torsion
[ 10763 10752 10751 10750 ] final  -22.99 input  -60.55 | X-H torsion
[ 11005 11000 10999 10996 ] final    0.80 input  -57.11 | X-H torsion

> <Gold.Protein.ActiveResidues>
 VAL166  LYS551  ARG553  GLY616  TRP617  ASP618  TYR619  PRO620  LYS621  CYS622 
 ASP623  PHE694  ASN695  SER759  ASP760  ASP761  ALA762  ILE779  LEU786  VAL792 
 PHE793  MET794  SER795  GLU796  ALA797  LYS798  CYS799  TRP800  GLU811  SER814 

> <Gold.Protein.RotatedAtoms>
  152.1746  134.8806  160.0531 H   0  0  0  0  0  0  0  0  0  0  0  0  # atno 6907 bound_to 6896
  151.9753  133.3734  159.4095 H   0  0  0  0  0  0  0  0  0  0  0  0  # atno 6908 bound_to 6896
  150.6907  134.4020  159.5167 H   0  0  0  0  0  0  0  0  0  0  0  0  # atno 6909 bound_to 6896
  145.9610  140.7479  142.9457 H   0  0  0  0  0  0  0  0  0  0  0  0  # atno 7974 bound_to 7965
  156.2160  140.3009  155.9841 H   0  0  0  0  0  0  0  0  0  0  0  0  # atno 8008 bound_to 7997
  155.2603  140.0429  157.3013 H   0  0  0  0  0  0  0  0  0  0  0  0  # atno 8009 bound_to 7997
  154.5769  140.2364  155.8118 H   0  0  0  0  0  0  0  0  0  0  0  0  # atno 8010 bound_to 7997
  140.0448  144.5360  150.7407 H   0  0  0  0  0  0  0  0  0  0  0  0  # atno 10167 bound_to 10162
  157.5494  131.1094  150.8726 H   0  0  0  0  0  0  0  0  0  0  0  0  # atno 10718 bound_to 10713
  153.6607  135.6976  153.5178 H   0  0  0  0  0  0  0  0  0  0  0  0  # atno 10763 bound_to 10752
  153.2633  135.4237  155.0915 H   0  0  0  0  0  0  0  0  0  0  0  0  # atno 10764 bound_to 10752
  154.8452  135.3560  154.6152 H   0  0  0  0  0  0  0  0  0  0  0  0  # atno 10765 bound_to 10752
  140.6225  133.9648  155.8232 H   0  0  0  0  0  0  0  0  0  0  0  0  # atno 11005 bound_to 11000
  144.6815  140.2590  143.7321 LP  0  0  0  0  0  0  0  0  0  0  0  0  # atno 17320 bound_to 7965
  145.8040  139.1976  143.2031 LP  0  0  0  0  0  0  0  0  0  0  0  0  # atno 17321 bound_to 7965
  140.7244  143.2621  151.4171 LP  0  0  0  0  0  0  0  0  0  0  0  0  # atno 17342 bound_to 10162
  139.5991  144.1334  152.2177 LP  0  0  0  0  0  0  0  0  0  0  0  0  # atno 17343 bound_to 10162
  156.9256  130.5331  149.5279 LP  0  0  0  0  0  0  0  0  0  0  0  0  # atno 17370 bound_to 10713
  156.0564  130.5625  150.9100 LP  0  0  0  0  0  0  0  0  0  0  0  0  # atno 17371 bound_to 10713
  141.0732  134.0174  157.3496 LP  0  0  0  0  0  0  0  0  0  0  0  0  # atno 17394 bound_to 11000
  139.9148  135.0195  156.7836 LP  0  0  0  0  0  0  0  0  0  0  0  0  # atno 17395 bound_to 11000

$$$$
