AV-unprocessed.smi:1593|AV-procd|sdf|6410|dock7
  -GOLD-   22720 7 43D 1   1.00000     0.00000
 Structure written by MMmdl.
 37 38  0  0  0  0  0  0  0  0  2 V2000
  150.9376  141.0343  158.1217 C   0  0  0  0  0  0  0  0  0  0  0  0
  150.7290  140.5500  156.7279 C   0  0  0  0  0  0  0  0  0  0  0  0
  149.6089  140.2537  156.0032 C   0  0  0  0  0  0  0  0  0  0  0  0
  150.1380  139.8497  154.7486 C   0  0  0  0  0  0  0  0  0  0  0  0
  149.2808  139.4527  153.6908 N   0  0  0  0  0  0  0  0  0  0  0  0
  148.0378  138.9516  153.7908 C   0  0  0  0  0  0  0  0  0  0  0  0
  147.4297  138.7646  154.8451 O   0  0  0  0  0  0  0  0  0  0  0  0
  147.5243  138.6688  152.5848 N   0  0  0  0  0  0  0  0  0  0  0  0
  146.1920  138.1206  152.3581 C   0  0  0  0  0  0  0  0  0  0  0  0
  145.9894  136.7927  153.1133 C   0  0  0  0  0  0  0  0  0  0  0  0
  146.1877  135.6097  152.2400 N   0  3  0  0  0  0  0  0  0  0  0  0
  146.3678  134.3600  153.0170 C   0  0  0  0  0  0  0  0  0  0  0  0
  146.6143  133.1686  152.0760 C   0  0  0  0  0  0  0  0  0  0  0  0
  145.5343  133.0535  151.1584 O   0  0  0  0  0  0  0  0  0  0  0  0
  145.4051  134.2109  150.3424 C   0  0  0  0  0  0  0  0  0  0  0  0
  145.1176  135.4369  151.2256 C   0  0  0  0  0  0  0  0  0  0  0  0
  151.4609  139.8948  154.7109 N   0  0  0  0  0  0  0  0  0  0  0  0
  151.8464  140.3437  155.9795 O   0  0  0  0  0  0  0  0  0  0  0  0
  149.9857  141.1567  158.6389 H   0  0  0  0  0  0  0  0  0  0  0  0
  151.4492  141.9968  158.1229 H   0  0  0  0  0  0  0  0  0  0  0  0
  151.5430  140.3275  158.6894 H   0  0  0  0  0  0  0  0  0  0  0  0
  148.5790  140.3174  156.3219 H   0  0  0  0  0  0  0  0  0  0  0  0
  149.6577  139.5563  152.7603 H   0  0  0  0  0  0  0  0  0  0  0  0
  148.0893  138.8536  151.7685 H   0  0  0  0  0  0  0  0  0  0  0  0
  145.4481  138.8634  152.6475 H   0  0  0  0  0  0  0  0  0  0  0  0
  146.0698  137.9607  151.2865 H   0  0  0  0  0  0  0  0  0  0  0  0
  146.7097  136.7572  153.9322 H   0  0  0  0  0  0  0  0  0  0  0  0
  145.0006  136.7447  153.5721 H   0  0  0  0  0  0  0  0  0  0  0  0
  147.2113  134.4657  153.7001 H   0  0  0  0  0  0  0  0  0  0  0  0
  145.4812  134.1774  153.6264 H   0  0  0  0  0  0  0  0  0  0  0  0
  147.5560  133.2851  151.5371 H   0  0  0  0  0  0  0  0  0  0  0  0
  146.6889  132.2458  152.6513 H   0  0  0  0  0  0  0  0  0  0  0  0
  146.3114  134.3584  149.7527 H   0  0  0  0  0  0  0  0  0  0  0  0
  144.5884  134.0563  149.6368 H   0  0  0  0  0  0  0  0  0  0  0  0
  144.1549  135.3161  151.7249 H   0  0  0  0  0  0  0  0  0  0  0  0
  145.0399  136.3220  150.5950 H   0  0  0  0  0  0  0  0  0  0  0  0
  147.0520  135.7591  151.7392 H   0  0  0  0  0  0  0  0  0  0  0  0
  1  2  1  0  0  0  0
  1 19  1  0  0  0  0
  1 20  1  0  0  0  0
  1 21  1  0  0  0  0
  2 18  1  0  0  0  0
  2  3  2  0  0  0  0
  3  4  1  0  0  0  0
  3 22  1  0  0  0  0
  4  5  1  0  0  0  0
  4 17  2  0  0  0  0
  5  6  1  0  0  0  0
  5 23  1  0  0  0  0
  6  7  2  0  0  0  0
  6  8  1  0  0  0  0
  8  9  1  0  0  0  0
  8 24  1  0  0  0  0
  9 10  1  0  0  0  0
  9 25  1  0  0  0  0
  9 26  1  0  0  0  0
 10 11  1  0  0  0  0
 10 27  1  0  0  0  0
 10 28  1  0  0  0  0
 11 16  1  0  0  0  0
 11 12  1  0  0  0  0
 11 37  1  0  0  0  0
 12 13  1  0  0  0  0
 12 29  1  0  0  0  0
 12 30  1  0  0  0  0
 13 14  1  0  0  0  0
 13 31  1  0  0  0  0
 13 32  1  0  0  0  0
 14 15  1  0  0  0  0
 15 16  1  0  0  0  0
 15 33  1  0  0  0  0
 15 34  1  0  0  0  0
 16 35  1  0  0  0  0
 16 36  1  0  0  0  0
 17 18  1  0  0  0  0
M  CHG  1  11   1
M  END
> <s_m_source_file>
AV-unprocessed.smi

> <i_m_source_file_index>
1593

> <i_lp_mmshare_version>
43012

> <i_f3d_flags>
0

> <s_epik_input>
W0NIM11jMVtjSF1jKG5vMSlbTkhdQyg9TylbTkhdW0NIMl1bQ0gyXU4yW0NIMl1bQ0gyXU9bQ0gyXVtDSDJdMg==

> <s_epik_cmdline>
J2VwaWtfcHl0aG9uJywgJy1waCcsICc3LjAnLCAnLXRuJywgJzgnLCAnLW1hJywgJzIwMCcsICctbWV0YWxfYmluZGluZycsICctaW1hZScsICc8aW5maWxlLm1hZT4nLCAnLW9tYWUnLCAnPG91dGZpbGUubWFlPic=

> <r_epik_Ionization_Penalty>
0.707076

> <r_epik_Ionization_Penalty_Charging>
0.707039

> <r_epik_Ionization_Penalty_Neutral>
3.67886e-05

> <r_epik_State_Penalty>
0.730276

> <r_epik_Charging_Adjusted_Penalty>
1.43732

> <i_epik_Tot_Q>
1

> <i_epik_Tot_abs_Q>
1

> <r_epik_Metal_State_Penalty>
0.743216

> <b_epik_Metal_Only>
0

> <s_lp_Force_Field>
OPLS_2005

> <r_lp_Energy>
12.0314

> <b_lp_Chiralities_Consistent>
1

> <s_lp_Variant>
AV-unprocessed.smi:1593-2

> <Gold.Version>
5.8.1

> <Gold.Id.Protein>
6NUR|6NUR_protein|mol2

> <Gold.PLP.Fitness>
39.9451

> <Gold.PLP.PLP>
-26.4334

> <Gold.PLP.part.hbond>
-5.0181

> <Gold.PLP.part.metal>
0.0000

> <Gold.PLP.part.buried>
-2.7963

> <Gold.PLP.part.nonpolar>
-18.9366

> <Gold.PLP.part.repulsive>
0.4612

> <Gold.PLP.ligand.clash>
0.0000

> <Gold.PLP.ligand.torsion>
0.4980

> <Gold.PLP.Chemscore.Hbond>
4.8320

> <Gold.PLP.Chemscore.CHOScore>
0.0000

> <Gold.PLP.Chemscore.Metal>
0.0000

> <Gold.Chemscore.Hbonds>
donor molecule, donor type, donor heavy atom, donor atom, acceptor molecule, acceptor atom, score
      L1  H     5    23       P1  7957  1.00
      L1  H     8    24       P1  7957  0.85
      L1  H    11    37       P1  7948  1.92
      P1  H  7989  7998       L1    17  1.00

> <Gold.PLP.Chemscore.Internal.Correction>
0.0117

> <Gold.Rescore>
     Score         DG    S(hbond)    S(metal)    S(lipo)     H(rot)  DE(clash)    DE(int)     intcor
     15.15     -18.42       3.48        0.00      47.41       1.65       1.50       1.77       ----

> <Gold.Chemscore.Fitness>
15.1501

> <Gold.Chemscore.DG>
-18.4162

> <Gold.Chemscore.ZeroCoef>
-5.4800

> <Gold.Chemscore.Hbond>
3.4783

> <Gold.Chemscore.Metal>
0.0000

> <Gold.Chemscore.Lipo>
47.4072

> <Gold.Chemscore.Internal_Hbond>
0.0000

> <Gold.Chemscore.DEClash>
1.4966

> <Gold.Chemscore.DEInternal>
1.7695

> <Gold.Chemscore.Rot>
1.6516

> <Gold.Chemscore.Internal.Correction>
   9.000000E+99

> <Gold.Chemscore.Hbonds>
donor molecule, donor type, donor heavy atom, donor atom, acceptor molecule, acceptor atom, score
      L1  H     5    23       P1  7957  0.98
      L1  H     8    24       P1  7957  0.71
      L1  H    11    37       P1  7948  0.92
      P1  H  7989  7998       L1    17  0.23

> <Gold.Chemscore.Hbond.Weighted>
-11.6176

> <Gold.Chemscore.Metal.Weighted>
-0.0000

> <Gold.Chemscore.Lipo.Weighted>
-5.5466

> <Gold.Chemscore.Internal_Hbond.Weighted>
0.0000

> <Gold.Chemscore.DEClash.Weighted>
1.4966

> <Gold.Chemscore.DEInternal.Weighted>
1.7695

> <Gold.Chemscore.Rot.Weighted>
4.2281

> <Gold.Chemscore.Internal.Correction.Weighted>
   9.000000E+99

> <Gold.Protein.RotatedTorsions>
[ 6907 6896 6895 6894 ] final -145.59 input  -60.11 | X-H torsion
[ 7974 7965 7964 7962 ] final   60.53 input  175.53 | X-H torsion
[ 8008 7997 7996 7995 ] final -178.92 input   59.86 | X-H torsion
[ 10167 10162 10161 10158 ] final -166.23 input  -65.29 | X-H torsion
[ 10718 10713 10712 10709 ] final  174.97 input   66.30 | X-H torsion
[ 10763 10752 10751 10750 ] final  -30.25 input  -60.55 | X-H torsion
[ 11005 11000 10999 10996 ] final  101.26 input  -57.11 | X-H torsion

> <Gold.Protein.ActiveResidues>
 VAL166  LYS551  ARG553  GLY616  TRP617  ASP618  TYR619  PRO620  LYS621  CYS622 
 ASP623  PHE694  ASN695  SER759  ASP760  ASP761  ALA762  ILE779  LEU786  VAL792 
 PHE793  MET794  SER795  GLU796  ALA797  LYS798  CYS799  TRP800  GLU811  SER814 

> <Gold.Protein.RotatedAtoms>
  151.1299  133.5044  159.2599 H   0  0  0  0  0  0  0  0  0  0  0  0  # atno 6907 bound_to 6896
  151.1768  135.0343  159.8785 H   0  0  0  0  0  0  0  0  0  0  0  0  # atno 6908 bound_to 6896
  152.5459  134.1156  159.8430 H   0  0  0  0  0  0  0  0  0  0  0  0  # atno 6909 bound_to 6896
  145.8950  139.3539  143.0626 H   0  0  0  0  0  0  0  0  0  0  0  0  # atno 7974 bound_to 7965
  156.0245  140.1268  157.0323 H   0  0  0  0  0  0  0  0  0  0  0  0  # atno 8008 bound_to 7997
  154.4325  140.1062  156.6081 H   0  0  0  0  0  0  0  0  0  0  0  0  # atno 8009 bound_to 7997
  155.5896  140.3469  155.4565 H   0  0  0  0  0  0  0  0  0  0  0  0  # atno 8010 bound_to 7997
  139.6129  144.0779  152.1859 H   0  0  0  0  0  0  0  0  0  0  0  0  # atno 10167 bound_to 10162
  156.9417  131.0003  151.2967 H   0  0  0  0  0  0  0  0  0  0  0  0  # atno 10718 bound_to 10713
  153.7778  135.6907  153.4894 H   0  0  0  0  0  0  0  0  0  0  0  0  # atno 10763 bound_to 10752
  153.1831  135.4499  155.0053 H   0  0  0  0  0  0  0  0  0  0  0  0  # atno 10764 bound_to 10752
  154.8093  135.3370  154.7283 H   0  0  0  0  0  0  0  0  0  0  0  0  # atno 10765 bound_to 10752
  139.8773  134.9175  156.4880 H   0  0  0  0  0  0  0  0  0  0  0  0  # atno 11005 bound_to 11000
  145.8861  140.9332  143.0576 LP  0  0  0  0  0  0  0  0  0  0  0  0  # atno 17320 bound_to 7965
  144.6732  140.0844  143.7468 LP  0  0  0  0  0  0  0  0  0  0  0  0  # atno 17321 bound_to 7965
  140.0402  144.6013  150.7417 LP  0  0  0  0  0  0  0  0  0  0  0  0  # atno 17342 bound_to 10162
  140.7331  143.2713  151.3879 LP  0  0  0  0  0  0  0  0  0  0  0  0  # atno 17343 bound_to 10162
  157.5780  130.8356  149.8483 LP  0  0  0  0  0  0  0  0  0  0  0  0  # atno 17370 bound_to 10713
  156.0401  130.3741  150.1457 LP  0  0  0  0  0  0  0  0  0  0  0  0  # atno 17371 bound_to 10713
  140.8679  133.8010  155.9333 LP  0  0  0  0  0  0  0  0  0  0  0  0  # atno 17394 bound_to 11000
  140.8982  134.2411  157.5056 LP  0  0  0  0  0  0  0  0  0  0  0  0  # atno 17395 bound_to 11000

$$$$
