AV-unprocessed.smi:561|AV-procd|sdf|2941|dock5
  -GOLD-   2262023443D 1   1.00000     0.00000
 Structure written by MMmdl.
 36 37  0  0  0  0  0  0  0  0  3 V2000
  150.3171  139.3597  157.9137 C   0  0  0  0  0  0  0  0  0  0  0  0
  151.5858  139.1717  157.0709 C   0  0  1  0  0  0  0  0  0  0  0  0
  151.2584  139.1679  155.5550 C   0  0  0  0  0  0  0  0  0  0  0  0
  150.1899  140.1047  155.1603 N   0  0  0  0  0  0  0  0  0  0  0  0
  149.0840  139.8255  154.3952 C   0  0  0  0  0  0  0  0  0  0  0  0
  148.3702  140.9913  154.2948 C   0  0  0  0  0  0  0  0  0  0  0  0
  149.0739  141.9376  154.9897 N   0  3  0  0  0  0  0  0  0  0  0  0
  150.1827  141.4003  155.5084 C   0  0  0  0  0  0  0  0  0  0  0  0
  152.5234  140.2569  157.3822 N   0  5  0  0  0  0  0  0  0  0  0  0
  152.2326  141.3708  158.1182 C   0  0  0  0  0  0  0  0  0  0  0  0
  151.4112  142.2488  157.8193 O   0  0  0  0  0  0  0  0  0  0  0  0
  152.9444  141.5535  159.4175 C   0  0  0  0  0  0  0  0  0  0  0  0
  152.4659  142.3975  160.2771 N   0  0  0  0  0  0  0  0  0  0  0  0
  153.0732  142.6356  161.4926 N   0  0  0  0  0  0  0  0  0  0  0  0
  152.5632  143.7997  162.2143 C   0  0  0  0  0  0  0  0  0  0  0  0
  154.0444  141.8601  162.0344 C   0  0  0  0  0  0  0  0  0  0  0  0
  154.5808  142.0919  163.1181 O   0  0  0  0  0  0  0  0  0  0  0  0
  154.4458  140.6150  161.2400 C   0  0  0  0  0  0  0  0  0  0  0  0
  154.2221  140.7894  159.7250 C   0  0  0  0  0  0  0  0  0  0  0  0
  149.5959  138.5660  157.7167 H   0  0  0  0  0  0  0  0  0  0  0  0
  149.8300  140.3113  157.6972 H   0  0  0  0  0  0  0  0  0  0  0  0
  150.5453  139.3362  158.9799 H   0  0  0  0  0  0  0  0  0  0  0  0
  151.9966  138.1936  157.3260 H   0  0  0  0  0  0  0  0  0  0  0  0
  152.1477  139.4289  154.9797 H   0  0  0  0  0  0  0  0  0  0  0  0
  150.9617  138.1697  155.2294 H   0  0  0  0  0  0  0  0  0  0  0  0
  148.8880  138.8370  154.0053 H   0  0  0  0  0  0  0  0  0  0  0  0
  147.4382  141.2113  153.7953 H   0  0  0  0  0  0  0  0  0  0  0  0
  150.9199  141.9067  156.1055 H   0  0  0  0  0  0  0  0  0  0  0  0
  152.0982  143.4946  163.1529 H   0  0  0  0  0  0  0  0  0  0  0  0
  151.8147  144.3443  161.6360 H   0  0  0  0  0  0  0  0  0  0  0  0
  153.3713  144.4962  162.4429 H   0  0  0  0  0  0  0  0  0  0  0  0
  155.4860  140.3584  161.4429 H   0  0  0  0  0  0  0  0  0  0  0  0
  153.8401  139.7853  161.6058 H   0  0  0  0  0  0  0  0  0  0  0  0
  154.2007  139.7958  159.2761 H   0  0  0  0  0  0  0  0  0  0  0  0
  155.0692  141.3115  159.2789 H   0  0  0  0  0  0  0  0  0  0  0  0
  148.7952  142.9040  155.1022 H   0  0  0  0  0  0  0  0  0  0  0  0
  1  2  1  0  0  0  0
  1 20  1  0  0  0  0
  1 21  1  0  0  0  0
  1 22  1  0  0  0  0
  2  3  1  0  0  0  0
  2  9  1  0  0  0  0
  2 23  1  0  0  0  0
  3  4  1  0  0  0  0
  3 24  1  0  0  0  0
  3 25  1  0  0  0  0
  4  8  1  0  0  0  0
  4  5  1  0  0  0  0
  5  6  2  0  0  0  0
  5 26  1  0  0  0  0
  6  7  1  0  0  0  0
  6 27  1  0  0  0  0
  7  8  2  0  0  0  0
  7 36  1  0  0  0  0
  8 28  1  0  0  0  0
  9 10  1  0  0  0  0
 10 11  2  0  0  0  0
 10 12  1  0  0  0  0
 12 19  1  0  0  0  0
 12 13  2  0  0  0  0
 13 14  1  0  0  0  0
 14 15  1  0  0  0  0
 14 16  1  0  0  0  0
 15 29  1  0  0  0  0
 15 30  1  0  0  0  0
 15 31  1  0  0  0  0
 16 17  2  0  0  0  0
 16 18  1  0  0  0  0
 18 19  1  0  0  0  0
 18 32  1  0  0  0  0
 18 33  1  0  0  0  0
 19 34  1  0  0  0  0
 19 35  1  0  0  0  0
M  CHG  1   7   1
M  CHG  1   9  -1
M  END
> <s_m_source_file>
AV-unprocessed.smi

> <i_m_source_file_index>
561

> <i_lp_mmshare_version>
43012

> <i_f3d_flags>
0

> <s_epik_input>
W2NIXTFuW2NIXVtjSF1uMVtDSDJdW0NAQEhdKFtDSDNdKVtOSF1DKD1PKUMyPU5OKFtDSDNdKUMoPU8pW0NIMl1bQ0gyXTI=

> <s_epik_cmdline>
J2VwaWtfcHl0aG9uJywgJy1waCcsICc3LjAnLCAnLXRuJywgJzgnLCAnLW1hJywgJzIwMCcsICctbWV0YWxfYmluZGluZycsICctaW1hZScsICc8aW5maWxlLm1hZT4nLCAnLW9tYWUnLCAnPG91dGZpbGUubWFlPic=

> <r_lp_tautomer_probability>
1

> <r_epik_Ionization_Penalty>
5.37239

> <r_epik_Ionization_Penalty_Charging>
5.18263

> <r_epik_Ionization_Penalty_Neutral>
0.189756

> <r_epik_State_Penalty>
5.53772

> <r_epik_Charging_Adjusted_Penalty>
10.7204

> <i_epik_Tot_Q>
0

> <i_epik_Tot_abs_Q>
2

> <r_epik_Metal_State_Penalty>
1.80836

> <b_epik_Metal_Only>
1

> <s_epik_Chemistry_Notes>
This compound has an imine and may undergo hydrolysis.

> <s_lp_Force_Field>
OPLS_2005

> <r_lp_Energy>
21.245

> <b_lp_Chiralities_Consistent>
1

> <s_lp_Variant>
AV-unprocessed.smi:561-6

> <Gold.Version>
5.8.1

> <Gold.Id.Protein>
6NUR|6NUR_protein|mol2

> <Gold.PLP.Fitness>
49.3682

> <Gold.PLP.PLP>
-39.6525

> <Gold.PLP.part.hbond>
-3.0000

> <Gold.PLP.part.metal>
0.0000

> <Gold.PLP.part.buried>
-3.2498

> <Gold.PLP.part.nonpolar>
-32.2488

> <Gold.PLP.part.repulsive>
0.2681

> <Gold.PLP.ligand.clash>
0.0000

> <Gold.PLP.ligand.torsion>
1.1528

> <Gold.PLP.Chemscore.Hbond>
3.9840

> <Gold.PLP.Chemscore.CHOScore>
0.0000

> <Gold.PLP.Chemscore.Metal>
0.0000

> <Gold.Chemscore.Hbonds>
donor molecule, donor type, donor heavy atom, donor atom, acceptor molecule, acceptor atom, score
      L1  H     7    36       P1  8028  2.00
      P1  H  7997  8008       L1     9  2.00

> <Gold.PLP.Chemscore.Internal.Correction>
0.0693

> <Gold.Rescore>
     Score         DG    S(hbond)    S(metal)    S(lipo)     H(rot)  DE(clash)    DE(int)     intcor
     11.69     -15.19       1.84        0.00      68.21       1.73       0.83       2.68       ----

> <Gold.Chemscore.Fitness>
11.6860

> <Gold.Chemscore.DG>
-15.1894

> <Gold.Chemscore.ZeroCoef>
-5.4800

> <Gold.Chemscore.Hbond>
1.8434

> <Gold.Chemscore.Metal>
0.0000

> <Gold.Chemscore.Lipo>
68.2140

> <Gold.Chemscore.Internal_Hbond>
0.0000

> <Gold.Chemscore.DEClash>
0.8275

> <Gold.Chemscore.DEInternal>
2.6759

> <Gold.Chemscore.Rot>
1.7299

> <Gold.Chemscore.Internal.Correction>
   9.000000E+99

> <Gold.Chemscore.Hbonds>
donor molecule, donor type, donor heavy atom, donor atom, acceptor molecule, acceptor atom, score
      L1  H     7    36       P1  8028  0.99
      P1  H  7997  8008       L1     9  0.83

> <Gold.Chemscore.Hbond.Weighted>
-6.1570

> <Gold.Chemscore.Metal.Weighted>
-0.0000

> <Gold.Chemscore.Lipo.Weighted>
-7.9810

> <Gold.Chemscore.Internal_Hbond.Weighted>
0.0000

> <Gold.Chemscore.DEClash.Weighted>
0.8275

> <Gold.Chemscore.DEInternal.Weighted>
2.6759

> <Gold.Chemscore.Rot.Weighted>
4.4286

> <Gold.Chemscore.Internal.Correction.Weighted>
   9.000000E+99

> <Gold.Protein.RotatedTorsions>
[ 6907 6896 6895 6894 ] final  136.44 input  -60.11 | X-H torsion
[ 7974 7965 7964 7962 ] final -148.35 input  175.53 | X-H torsion
[ 8008 7997 7996 7995 ] final  -63.05 input   59.86 | X-H torsion
[ 10167 10162 10161 10158 ] final  163.93 input  -65.29 | X-H torsion
[ 10718 10713 10712 10709 ] final -116.31 input   66.30 | X-H torsion
[ 10763 10752 10751 10750 ] final   40.28 input  -60.55 | X-H torsion
[ 11005 11000 10999 10996 ] final    9.89 input  -57.11 | X-H torsion

> <Gold.Protein.ActiveResidues>
 VAL166  LYS551  ARG553  GLY616  TRP617  ASP618  TYR619  PRO620  LYS621  CYS622 
 ASP623  PHE694  ASN695  SER759  ASP760  ASP761  ALA762  ILE779  LEU786  VAL792 
 PHE793  MET794  SER795  GLU796  ALA797  LYS798  CYS799  TRP800  GLU811  SER814 

> <Gold.Protein.RotatedAtoms>
  152.2893  133.5545  159.5546 H   0  0  0  0  0  0  0  0  0  0  0  0  # atno 6907 bound_to 6896
  150.7228  134.0452  159.3788 H   0  0  0  0  0  0  0  0  0  0  0  0  # atno 6908 bound_to 6896
  151.8358  135.0607  160.0493 H   0  0  0  0  0  0  0  0  0  0  0  0  # atno 6909 bound_to 6896
  144.8035  140.5207  143.5691 H   0  0  0  0  0  0  0  0  0  0  0  0  # atno 7974 bound_to 7965
  154.4533  140.0983  156.6682 H   0  0  0  0  0  0  0  0  0  0  0  0  # atno 8008 bound_to 7997
  155.5217  140.3479  155.4389 H   0  0  0  0  0  0  0  0  0  0  0  0  # atno 8009 bound_to 7997
  156.0726  140.1353  156.9799 H   0  0  0  0  0  0  0  0  0  0  0  0  # atno 8010 bound_to 7997
  139.4881  144.4287  151.9097 H   0  0  0  0  0  0  0  0  0  0  0  0  # atno 10167 bound_to 10162
  156.0954  130.6128  150.9018 H   0  0  0  0  0  0  0  0  0  0  0  0  # atno 10718 bound_to 10713
  152.9941  135.6196  154.2600 H   0  0  0  0  0  0  0  0  0  0  0  0  # atno 10763 bound_to 10752
  154.2337  135.2791  155.2882 H   0  0  0  0  0  0  0  0  0  0  0  0  # atno 10764 bound_to 10752
  154.5428  135.5756  153.6912 H   0  0  0  0  0  0  0  0  0  0  0  0  # atno 10765 bound_to 10752
  140.5206  134.0563  155.7843 H   0  0  0  0  0  0  0  0  0  0  0  0  # atno 11005 bound_to 11000
  145.5496  139.1476  143.3402 LP  0  0  0  0  0  0  0  0  0  0  0  0  # atno 17320 bound_to 7965
  146.2321  140.5634  142.8971 LP  0  0  0  0  0  0  0  0  0  0  0  0  # atno 17321 bound_to 7965
  140.3734  144.2827  150.5917 LP  0  0  0  0  0  0  0  0  0  0  0  0  # atno 17342 bound_to 10162
  140.5298  143.2246  151.8256 LP  0  0  0  0  0  0  0  0  0  0  0  0  # atno 17343 bound_to 10162
  157.6114  131.0936  150.8788 LP  0  0  0  0  0  0  0  0  0  0  0  0  # atno 17370 bound_to 10713
  156.8927  130.5218  149.5285 LP  0  0  0  0  0  0  0  0  0  0  0  0  # atno 17371 bound_to 10713
  141.1336  133.9260  157.2482 LP  0  0  0  0  0  0  0  0  0  0  0  0  # atno 17394 bound_to 11000
  139.9608  135.0154  156.9255 LP  0  0  0  0  0  0  0  0  0  0  0  0  # atno 17395 bound_to 11000

$$$$
