AV-unprocessed.smi:3258|AV-procd|sdf|12470|dock7
  -GOLD-   2272018373D 1   1.00000     0.00000
 Structure written by MMmdl.
 38 39  0  0  0  0  0  0  0  0  1 V2000
  144.1274  136.8641  152.8273 C   0  0  0  0  0  0  0  0  0  0  0  0
  145.0634  135.8270  152.1852 C   0  0  2  0  0  0  0  0  0  0  0  0
  144.5998  134.3698  152.4022 C   0  0  0  0  0  0  0  0  0  0  0  0
  144.7920  133.5393  151.2270 N   0  0  0  0  0  0  0  0  0  0  0  0
  143.8467  133.1203  150.3148 C   0  0  0  0  0  0  0  0  0  0  0  0
  144.4912  132.3591  149.3824 C   0  0  0  0  0  0  0  0  0  0  0  0
  145.8472  132.3730  149.8139 C   0  0  0  0  0  0  0  0  0  0  0  0
  146.0247  133.0816  150.9173 N   0  0  0  0  0  0  0  0  0  0  0  0
  146.4129  136.0089  152.7126 N   0  0  0  0  0  0  0  0  0  0  0  0
  146.7330  136.0671  154.0131 C   0  0  0  0  0  0  0  0  0  0  0  0
  145.9162  135.9720  154.9294 O   0  0  0  0  0  0  0  0  0  0  0  0
  148.0487  136.2498  154.1931 N   0  0  0  0  0  0  0  0  0  0  0  0
  148.7162  136.3665  155.4858 C   0  0  0  0  0  0  0  0  0  0  0  0
  149.8475  137.4115  155.4568 C   0  0  1  0  0  0  0  0  0  0  0  0
  151.0951  136.9956  154.7007 C   0  0  0  0  0  0  0  0  0  0  0  0
  151.7698  138.3384  154.4360 C   0  0  0  0  0  0  0  0  0  0  0  0
  150.7172  139.2948  154.3446 O   0  0  0  0  0  0  0  0  0  0  0  0
  149.4796  138.6964  154.7162 C   0  0  0  0  0  0  0  0  0  0  0  0
  143.1289  136.8253  152.3917 H   0  0  0  0  0  0  0  0  0  0  0  0
  144.5038  137.8768  152.6793 H   0  0  0  0  0  0  0  0  0  0  0  0
  144.0289  136.6983  153.9007 H   0  0  0  0  0  0  0  0  0  0  0  0
  145.0823  136.0284  151.1122 H   0  0  0  0  0  0  0  0  0  0  0  0
  145.1511  133.9136  153.2254 H   0  0  0  0  0  0  0  0  0  0  0  0
  143.5459  134.3454  152.6849 H   0  0  0  0  0  0  0  0  0  0  0  0
  142.8059  133.3949  150.4063 H   0  0  0  0  0  0  0  0  0  0  0  0
  144.0601  131.8676  148.5230 H   0  0  0  0  0  0  0  0  0  0  0  0
  146.7021  131.8932  149.3607 H   0  0  0  0  0  0  0  0  0  0  0  0
  147.1562  136.0995  152.0355 H   0  0  0  0  0  0  0  0  0  0  0  0
  148.6342  136.3165  153.3733 H   0  0  0  0  0  0  0  0  0  0  0  0
  147.9980  136.5968  156.2746 H   0  0  0  0  0  0  0  0  0  0  0  0
  149.1324  135.3891  155.7310 H   0  0  0  0  0  0  0  0  0  0  0  0
  150.1288  137.6706  156.4790 H   0  0  0  0  0  0  0  0  0  0  0  0
  151.7299  136.3077  155.2599 H   0  0  0  0  0  0  0  0  0  0  0  0
  150.8265  136.5207  153.7560 H   0  0  0  0  0  0  0  0  0  0  0  0
  152.4137  138.6124  155.2726 H   0  0  0  0  0  0  0  0  0  0  0  0
  152.3776  138.3263  153.5312 H   0  0  0  0  0  0  0  0  0  0  0  0
  148.9200  138.4719  153.8069 H   0  0  0  0  0  0  0  0  0  0  0  0
  148.8778  139.3722  155.3244 H   0  0  0  0  0  0  0  0  0  0  0  0
  1  2  1  0  0  0  0
  1 19  1  0  0  0  0
  1 20  1  0  0  0  0
  1 21  1  0  0  0  0
  2  3  1  0  0  0  0
  2  9  1  0  0  0  0
  2 22  1  0  0  0  0
  3  4  1  0  0  0  0
  3 23  1  0  0  0  0
  3 24  1  0  0  0  0
  4  8  1  0  0  0  0
  4  5  1  0  0  0  0
  5  6  2  0  0  0  0
  5 25  1  0  0  0  0
  6  7  1  0  0  0  0
  6 26  1  0  0  0  0
  7  8  2  0  0  0  0
  7 27  1  0  0  0  0
  9 10  1  0  0  0  0
  9 28  1  0  0  0  0
 10 11  2  0  0  0  0
 10 12  1  0  0  0  0
 12 13  1  0  0  0  0
 12 29  1  0  0  0  0
 13 14  1  0  0  0  0
 13 30  1  0  0  0  0
 13 31  1  0  0  0  0
 14 18  1  0  0  0  0
 14 15  1  0  0  0  0
 14 32  1  0  0  0  0
 15 16  1  0  0  0  0
 15 33  1  0  0  0  0
 15 34  1  0  0  0  0
 16 17  1  0  0  0  0
 16 35  1  0  0  0  0
 16 36  1  0  0  0  0
 17 18  1  0  0  0  0
 18 37  1  0  0  0  0
 18 38  1  0  0  0  0
M  END
> <s_m_source_file>
AV-unprocessed.smi

> <i_m_source_file_index>
3258

> <i_lp_mmshare_version>
43012

> <i_f3d_flags>
0

> <s_epik_input>
bjFbY0hdW2NIXVtjSF1uMVtDSDJdW0NAQEhdKFtDSDNdKVtOSF1DKD1PKVtOSF1bQ0gyXVtDQEBIXTJbQ0gyXVtDSDJdT1tDSDJdMg==

> <s_epik_cmdline>
J2VwaWtfcHl0aG9uJywgJy1waCcsICc3LjAnLCAnLXRuJywgJzgnLCAnLW1hJywgJzIwMCcsICctbWV0YWxfYmluZGluZycsICctaW1hZScsICc8aW5maWxlLm1hZT4nLCAnLW9tYWUnLCAnPG91dGZpbGUubWFlPic=

> <r_lp_tautomer_probability>
1

> <r_epik_Ionization_Penalty>
6.85079e-05

> <r_epik_Ionization_Penalty_Charging>
0

> <r_epik_Ionization_Penalty_Neutral>
6.85079e-05

> <r_epik_State_Penalty>
-0

> <r_epik_Charging_Adjusted_Penalty>
0

> <i_epik_Tot_Q>
0

> <i_epik_Tot_abs_Q>
0

> <r_epik_Metal_State_Penalty>
-0

> <b_epik_Metal_Only>
0

> <s_lp_Force_Field>
OPLS_2005

> <r_lp_Energy>
15.6708

> <b_lp_Chiralities_Consistent>
1

> <s_lp_Variant>
AV-unprocessed.smi:3258-3

> <Gold.Version>
5.8.1

> <Gold.Id.Protein>
6NUR|6NUR_protein|mol2

> <Gold.PLP.Fitness>
41.1063

> <Gold.PLP.PLP>
-28.6100

> <Gold.PLP.part.hbond>
-2.8638

> <Gold.PLP.part.metal>
0.0000

> <Gold.PLP.part.buried>
-4.0802

> <Gold.PLP.part.nonpolar>
-22.1894

> <Gold.PLP.part.repulsive>
0.3821

> <Gold.PLP.ligand.clash>
0.0000

> <Gold.PLP.ligand.torsion>
1.1404

> <Gold.PLP.Chemscore.Hbond>
2.9120

> <Gold.PLP.Chemscore.CHOScore>
2.0000

> <Gold.PLP.Chemscore.Metal>
0.0000

> <Gold.Chemscore.Hbonds>
donor molecule, donor type, donor heavy atom, donor atom, acceptor molecule, acceptor atom, score
      L1  H     9    28       P1  7948  0.90
      L1  H    12    29       P1  7948  1.00
      P1  H  7989  7998       L1    17  1.00
      L1  C     5    25       P1 10186  1.00
      L1  C     7    27       P1 10747  0.73

> <Gold.PLP.Chemscore.Internal.Correction>
0.0411

> <Gold.Rescore>
     Score         DG    S(hbond)    S(metal)    S(lipo)     H(rot)  DE(clash)    DE(int)     intcor
     15.76     -18.07       2.79        0.00      68.93       1.87       0.03       2.28       ----

> <Gold.Chemscore.Fitness>
15.7580

> <Gold.Chemscore.DG>
-18.0710

> <Gold.Chemscore.ZeroCoef>
-5.4800

> <Gold.Chemscore.Hbond>
2.7902

> <Gold.Chemscore.Metal>
0.0000

> <Gold.Chemscore.Lipo>
68.9327

> <Gold.Chemscore.Internal_Hbond>
0.0000

> <Gold.Chemscore.DEClash>
0.0306

> <Gold.Chemscore.DEInternal>
2.2824

> <Gold.Chemscore.Rot>
1.8724

> <Gold.Chemscore.Internal.Correction>
   9.000000E+99

> <Gold.Chemscore.Hbonds>
donor molecule, donor type, donor heavy atom, donor atom, acceptor molecule, acceptor atom, score
      L1  H     9    28       P1  7948  0.88
      L1  H    12    29       P1  7948  0.93
      P1  H  7989  7998       L1    17  0.33

> <Gold.Chemscore.Hbond.Weighted>
-9.3192

> <Gold.Chemscore.Metal.Weighted>
-0.0000

> <Gold.Chemscore.Lipo.Weighted>
-8.0651

> <Gold.Chemscore.Internal_Hbond.Weighted>
0.0000

> <Gold.Chemscore.DEClash.Weighted>
0.0306

> <Gold.Chemscore.DEInternal.Weighted>
2.2824

> <Gold.Chemscore.Rot.Weighted>
4.7933

> <Gold.Chemscore.Internal.Correction.Weighted>
   9.000000E+99

> <Gold.Protein.RotatedTorsions>
[ 6907 6896 6895 6894 ] final   74.38 input  -60.11 | X-H torsion
[ 7974 7965 7964 7962 ] final -108.74 input  175.53 | X-H torsion
[ 8008 7997 7996 7995 ] final -138.25 input   59.86 | X-H torsion
[ 10167 10162 10161 10158 ] final  135.85 input  -65.29 | X-H torsion
[ 10718 10713 10712 10709 ] final   77.68 input   66.30 | X-H torsion
[ 10763 10752 10751 10750 ] final  -14.21 input  -60.55 | X-H torsion
[ 11005 11000 10999 10996 ] final  -68.39 input  -57.11 | X-H torsion

> <Gold.Protein.ActiveResidues>
 VAL166  LYS551  ARG553  GLY616  TRP617  ASP618  TYR619  PRO620  LYS621  CYS622 
 ASP623  PHE694  ASN695  SER759  ASP760  ASP761  ALA762  ILE779  LEU786  VAL792 
 PHE793  MET794  SER795  GLU796  ALA797  LYS798  CYS799  TRP800  GLU811  SER814 

> <Gold.Protein.RotatedAtoms>
  152.4973  134.4280  159.9502 H   0  0  0  0  0  0  0  0  0  0  0  0  # atno 6907 bound_to 6896
  151.4256  133.3679  159.2769 H   0  0  0  0  0  0  0  0  0  0  0  0  # atno 6908 bound_to 6896
  150.9191  134.8631  159.7536 H   0  0  0  0  0  0  0  0  0  0  0  0  # atno 6909 bound_to 6896
  145.1892  140.9006  143.3435 H   0  0  0  0  0  0  0  0  0  0  0  0  # atno 7974 bound_to 7965
  155.4252  140.0521  157.3023 H   0  0  0  0  0  0  0  0  0  0  0  0  # atno 8008 bound_to 7997
  154.4884  140.2110  155.9561 H   0  0  0  0  0  0  0  0  0  0  0  0  # atno 8009 bound_to 7997
  156.1308  140.3172  155.8351 H   0  0  0  0  0  0  0  0  0  0  0  0  # atno 8010 bound_to 7997
  139.5202  144.6495  151.5342 H   0  0  0  0  0  0  0  0  0  0  0  0  # atno 10167 bound_to 10162
  157.6719  130.9833  150.1677 H   0  0  0  0  0  0  0  0  0  0  0  0  # atno 10718 bound_to 10713
  153.5249  135.7015  153.5712 H   0  0  0  0  0  0  0  0  0  0  0  0  # atno 10763 bound_to 10752
  153.3745  135.3936  155.1812 H   0  0  0  0  0  0  0  0  0  0  0  0  # atno 10764 bound_to 10752
  154.8691  135.3820  154.4741 H   0  0  0  0  0  0  0  0  0  0  0  0  # atno 10765 bound_to 10752
  141.1531  133.6740  156.6438 H   0  0  0  0  0  0  0  0  0  0  0  0  # atno 11005 bound_to 11000
  145.0059  139.3555  143.6144 LP  0  0  0  0  0  0  0  0  0  0  0  0  # atno 17320 bound_to 7965
  146.3439  139.9301  142.8755 LP  0  0  0  0  0  0  0  0  0  0  0  0  # atno 17321 bound_to 7965
  140.6295  143.9104  150.6593 LP  0  0  0  0  0  0  0  0  0  0  0  0  # atno 17342 bound_to 10162
  140.2404  143.3668  152.1491 LP  0  0  0  0  0  0  0  0  0  0  0  0  # atno 17343 bound_to 10162
  156.2438  130.3693  149.8307 LP  0  0  0  0  0  0  0  0  0  0  0  0  # atno 17370 bound_to 10713
  156.6100  130.8582  151.3452 LP  0  0  0  0  0  0  0  0  0  0  0  0  # atno 17371 bound_to 10713
  140.3373  134.7879  157.4371 LP  0  0  0  0  0  0  0  0  0  0  0  0  # atno 17394 bound_to 11000
  140.0967  134.5527  155.8391 LP  0  0  0  0  0  0  0  0  0  0  0  0  # atno 17395 bound_to 11000

$$$$
