AV-unprocessed.smi:1636|AV-procd|sdf|6543|dock6
  -GOLD-   22720 7223D 1   1.00000     0.00000
 Structure written by MMmdl.
 43 44  0  0  0  0  0  0  0  0  1 V2000
  153.4072  141.9407  161.2787 C   0  0  0  0  0  0  0  0  0  0  0  0
  153.1080  142.5351  159.8984 C   0  0  1  0  0  0  0  0  0  0  0  0
  152.0180  141.7429  159.1517 C   0  0  0  0  0  0  0  0  0  0  0  0
  151.6681  142.4003  157.8951 N   0  0  0  0  0  0  0  0  0  0  0  0
  150.9065  141.6826  156.9436 C   0  0  0  0  0  0  0  0  0  0  0  0
  151.4942  140.7440  156.0569 C   0  0  0  0  0  0  0  0  0  0  0  0
  150.6781  140.0686  155.1294 C   0  0  0  0  0  0  0  0  0  0  0  0
  149.2967  140.3387  155.1057 C   0  0  0  0  0  0  0  0  0  0  0  0
  148.3904  139.6287  154.1107 C   0  0  0  0  0  0  0  0  0  0  0  0
  148.6400  138.1957  153.9924 N   0  0  0  0  0  0  0  0  0  0  0  0
  148.7076  137.3443  155.0253 C   0  0  0  0  0  0  0  0  0  0  0  0
  148.5645  137.6754  156.2025 O   0  0  0  0  0  0  0  0  0  0  0  0
  148.9505  136.0897  154.6218 N   0  0  0  0  0  0  0  0  0  0  0  0
  149.0805  134.9390  155.5078 C   0  0  0  0  0  0  0  0  0  0  0  0
  149.5455  133.6885  154.7456 C   0  0  0  0  0  0  0  0  0  0  0  0
  149.0204  133.7045  153.4362 O   0  0  0  0  0  0  0  0  0  0  0  0
  148.7993  141.2923  156.0181 C   0  0  0  0  0  0  0  0  0  0  0  0
  149.5768  141.9432  156.9083 N   0  0  0  0  0  0  0  0  0  0  0  0
  151.3648  143.8243  158.0359 C   0  0  0  0  0  0  0  0  0  0  0  0
  152.4714  144.5384  158.8288 C   0  0  0  0  0  0  0  0  0  0  0  0
  152.6744  143.8800  160.0738 O   0  0  0  0  0  0  0  0  0  0  0  0
  153.7599  140.9123  161.1947 H   0  0  0  0  0  0  0  0  0  0  0  0
  152.5180  141.9394  161.9101 H   0  0  0  0  0  0  0  0  0  0  0  0
  154.1791  142.5154  161.7911 H   0  0  0  0  0  0  0  0  0  0  0  0
  154.0298  142.5306  159.3138 H   0  0  0  0  0  0  0  0  0  0  0  0
  152.3914  140.7369  158.9591 H   0  0  0  0  0  0  0  0  0  0  0  0
  151.1236  141.6524  159.7694 H   0  0  0  0  0  0  0  0  0  0  0  0
  152.5494  140.5184  156.0723 H   0  0  0  0  0  0  0  0  0  0  0  0
  151.1109  139.3501  154.4489 H   0  0  0  0  0  0  0  0  0  0  0  0
  147.3579  139.7673  154.4315 H   0  0  0  0  0  0  0  0  0  0  0  0
  148.4736  140.0982  153.1288 H   0  0  0  0  0  0  0  0  0  0  0  0
  148.7722  137.8300  153.0608 H   0  0  0  0  0  0  0  0  0  0  0  0
  149.0500  135.9164  153.6325 H   0  0  0  0  0  0  0  0  0  0  0  0
  149.7653  135.1689  156.3261 H   0  0  0  0  0  0  0  0  0  0  0  0
  148.1054  134.7566  155.9604 H   0  0  0  0  0  0  0  0  0  0  0  0
  150.6337  133.6547  154.6871 H   0  0  0  0  0  0  0  0  0  0  0  0
  149.2163  132.7793  155.2492 H   0  0  0  0  0  0  0  0  0  0  0  0
  148.8892  134.6035  153.1758 H   0  0  0  0  0  0  0  0  0  0  0  0
  147.7500  141.5467  156.0367 H   0  0  0  0  0  0  0  0  0  0  0  0
  151.2614  144.3136  157.0677 H   0  0  0  0  0  0  0  0  0  0  0  0
  150.4091  143.9297  158.5504 H   0  0  0  0  0  0  0  0  0  0  0  0
  153.4026  144.5637  158.2607 H   0  0  0  0  0  0  0  0  0  0  0  0
  152.1876  145.5735  159.0177 H   0  0  0  0  0  0  0  0  0  0  0  0
  1  2  1  0  0  0  0
  1 22  1  0  0  0  0
  1 23  1  0  0  0  0
  1 24  1  0  0  0  0
  2 21  1  0  0  0  0
  2  3  1  0  0  0  0
  2 25  1  0  0  0  0
  3  4  1  0  0  0  0
  3 26  1  0  0  0  0
  3 27  1  0  0  0  0
  4  5  1  0  0  0  0
  4 19  1  0  0  0  0
  5 18  1  0  0  0  0
  5  6  2  0  0  0  0
  6  7  1  0  0  0  0
  6 28  1  0  0  0  0
  7  8  2  0  0  0  0
  7 29  1  0  0  0  0
  8  9  1  0  0  0  0
  8 17  1  0  0  0  0
  9 10  1  0  0  0  0
  9 30  1  0  0  0  0
  9 31  1  0  0  0  0
 10 11  1  0  0  0  0
 10 32  1  0  0  0  0
 11 12  2  0  0  0  0
 11 13  1  0  0  0  0
 13 14  1  0  0  0  0
 13 33  1  0  0  0  0
 14 15  1  0  0  0  0
 14 34  1  0  0  0  0
 14 35  1  0  0  0  0
 15 16  1  0  0  0  0
 15 36  1  0  0  0  0
 15 37  1  0  0  0  0
 16 38  1  0  0  0  0
 17 18  2  0  0  0  0
 17 39  1  0  0  0  0
 19 20  1  0  0  0  0
 19 40  1  0  0  0  0
 19 41  1  0  0  0  0
 20 21  1  0  0  0  0
 20 42  1  0  0  0  0
 20 43  1  0  0  0  0
M  END
> <s_m_source_file>
AV-unprocessed.smi

> <i_m_source_file_index>
1636

> <i_lp_mmshare_version>
43012

> <i_f3d_flags>
0

> <s_epik_input>
W0NIM11bQ0BASF0xW0NIMl1OKFtDSDJdW0NIMl1PMSljMltjSF1bY0hdYyhbY0hdbjIpW0NIMl1bTkhdQyg9TylbTkhdW0NIMl1bQ0gyXVtPSF0=

> <s_epik_cmdline>
J2VwaWtfcHl0aG9uJywgJy1waCcsICc3LjAnLCAnLXRuJywgJzgnLCAnLW1hJywgJzIwMCcsICctbWV0YWxfYmluZGluZycsICctaW1hZScsICc8aW5maWxlLm1hZT4nLCAnLW9tYWUnLCAnPG91dGZpbGUubWFlPic=

> <r_lp_tautomer_probability>
1

> <r_epik_Ionization_Penalty>
0.00695222

> <r_epik_Ionization_Penalty_Charging>
0

> <r_epik_Ionization_Penalty_Neutral>
0.00695222

> <r_epik_State_Penalty>
0.00513345

> <r_epik_Charging_Adjusted_Penalty>
0.00513345

> <i_epik_Tot_Q>
0

> <i_epik_Tot_abs_Q>
0

> <r_epik_Metal_State_Penalty>
-0

> <b_epik_Metal_Only>
0

> <s_lp_Force_Field>
OPLS_2005

> <r_lp_Energy>
12.451

> <b_lp_Chiralities_Consistent>
1

> <s_lp_Variant>
AV-unprocessed.smi:1636-2

> <Gold.Version>
5.8.1

> <Gold.Id.Protein>
6NUR|6NUR_protein|mol2

> <Gold.PLP.Fitness>
45.6706

> <Gold.PLP.PLP>
-38.1697

> <Gold.PLP.part.hbond>
-3.0000

> <Gold.PLP.part.metal>
0.0000

> <Gold.PLP.part.buried>
-3.5337

> <Gold.PLP.part.nonpolar>
-32.6629

> <Gold.PLP.part.repulsive>
0.9225

> <Gold.PLP.ligand.clash>
0.0000

> <Gold.PLP.ligand.torsion>
0.9511

> <Gold.PLP.Chemscore.Hbond>
2.9833

> <Gold.PLP.Chemscore.CHOScore>
0.0000

> <Gold.PLP.Chemscore.Metal>
0.0000

> <Gold.Chemscore.Hbonds>
donor molecule, donor type, donor heavy atom, donor atom, acceptor molecule, acceptor atom, score
      L1  H    10    32       P1  7948  0.99
      L1  H    13    33       P1  7948  1.00
      L1  H    16    38       P1  7948  0.77

> <Gold.PLP.Chemscore.Internal.Correction>
0.4532

> <Gold.Rescore>
     Score         DG    S(hbond)    S(metal)    S(lipo)     H(rot)  DE(clash)    DE(int)     intcor
     15.71     -17.39       2.46        0.00      92.56       2.78       0.88       0.79       ----

> <Gold.Chemscore.Fitness>
15.7117

> <Gold.Chemscore.DG>
-17.3881

> <Gold.Chemscore.ZeroCoef>
-5.4800

> <Gold.Chemscore.Hbond>
2.4558

> <Gold.Chemscore.Metal>
0.0000

> <Gold.Chemscore.Lipo>
92.5617

> <Gold.Chemscore.Internal_Hbond>
0.0000

> <Gold.Chemscore.DEClash>
0.8824

> <Gold.Chemscore.DEInternal>
0.7940

> <Gold.Chemscore.Rot>
2.7828

> <Gold.Chemscore.Internal.Correction>
   9.000000E+99

> <Gold.Chemscore.Hbonds>
donor molecule, donor type, donor heavy atom, donor atom, acceptor molecule, acceptor atom, score
      L1  H    10    32       P1  7948  0.91
      L1  H    13    33       P1  7948  0.90
      L1  H    16    38       P1  7948  0.11

> <Gold.Chemscore.Hbond.Weighted>
-8.2025

> <Gold.Chemscore.Metal.Weighted>
-0.0000

> <Gold.Chemscore.Lipo.Weighted>
-10.8297

> <Gold.Chemscore.Internal_Hbond.Weighted>
0.0000

> <Gold.Chemscore.DEClash.Weighted>
0.8824

> <Gold.Chemscore.DEInternal.Weighted>
0.7940

> <Gold.Chemscore.Rot.Weighted>
7.1241

> <Gold.Chemscore.Internal.Correction.Weighted>
   9.000000E+99

> <Gold.Protein.RotatedTorsions>
[ 6907 6896 6895 6894 ] final   80.03 input  -60.11 | X-H torsion
[ 7974 7965 7964 7962 ] final   70.05 input  175.53 | X-H torsion
[ 8008 7997 7996 7995 ] final  -46.33 input   59.86 | X-H torsion
[ 10167 10162 10161 10158 ] final -119.18 input  -65.29 | X-H torsion
[ 10718 10713 10712 10709 ] final -150.02 input   66.30 | X-H torsion
[ 10763 10752 10751 10750 ] final  170.14 input  -60.55 | X-H torsion
[ 11005 11000 10999 10996 ] final  -43.41 input  -57.11 | X-H torsion

> <Gold.Protein.ActiveResidues>
 VAL166  LYS551  ARG553  GLY616  TRP617  ASP618  TYR619  PRO620  LYS621  CYS622 
 ASP623  PHE694  ASN695  SER759  ASP760  ASP761  ALA762  ILE779  LEU786  VAL792 
 PHE793  MET794  SER795  GLU796  ALA797  LYS798  CYS799  TRP800  GLU811  SER814 

> <Gold.Protein.RotatedAtoms>
  152.5220  134.3420  159.9220 H   0  0  0  0  0  0  0  0  0  0  0  0  # atno 6907 bound_to 6896
  151.3370  133.3971  159.2675 H   0  0  0  0  0  0  0  0  0  0  0  0  # atno 6908 bound_to 6896
  150.9834  134.9202  159.7915 H   0  0  0  0  0  0  0  0  0  0  0  0  # atno 6909 bound_to 6896
  145.7829  139.2896  143.1255 H   0  0  0  0  0  0  0  0  0  0  0  0  # atno 7974 bound_to 7965
  154.4006  140.1374  156.3994 H   0  0  0  0  0  0  0  0  0  0  0  0  # atno 8008 bound_to 7997
  155.7839  140.3480  155.5292 H   0  0  0  0  0  0  0  0  0  0  0  0  # atno 8009 bound_to 7997
  155.8647  140.0962  157.1581 H   0  0  0  0  0  0  0  0  0  0  0  0  # atno 8010 bound_to 7997
  140.0495  143.5074  152.2089 H   0  0  0  0  0  0  0  0  0  0  0  0  # atno 10167 bound_to 10162
  156.4407  130.8120  151.2350 H   0  0  0  0  0  0  0  0  0  0  0  0  # atno 10718 bound_to 10713
  154.3933  135.2754  155.2141 H   0  0  0  0  0  0  0  0  0  0  0  0  # atno 10763 bound_to 10752
  154.4198  135.6002  153.6007 H   0  0  0  0  0  0  0  0  0  0  0  0  # atno 10764 bound_to 10752
  152.9832  135.5970  154.4191 H   0  0  0  0  0  0  0  0  0  0  0  0  # atno 10765 bound_to 10752
  141.0382  133.6791  156.2729 H   0  0  0  0  0  0  0  0  0  0  0  0  # atno 11005 bound_to 11000
  146.0056  140.8481  142.9997 LP  0  0  0  0  0  0  0  0  0  0  0  0  # atno 17320 bound_to 7965
  144.6793  140.2415  143.7343 LP  0  0  0  0  0  0  0  0  0  0  0  0  # atno 17321 bound_to 7965
  139.5962  144.7568  151.3280 LP  0  0  0  0  0  0  0  0  0  0  0  0  # atno 17342 bound_to 10162
  140.7223  143.7100  150.7777 LP  0  0  0  0  0  0  0  0  0  0  0  0  # atno 17343 bound_to 10162
  157.7506  131.0169  150.3563 LP  0  0  0  0  0  0  0  0  0  0  0  0  # atno 17370 bound_to 10713
  156.3920  130.3900  149.7022 LP  0  0  0  0  0  0  0  0  0  0  0  0  # atno 17371 bound_to 10713
  140.6284  134.5289  157.5556 LP  0  0  0  0  0  0  0  0  0  0  0  0  # atno 17394 bound_to 11000
  139.9256  134.8063  156.1080 LP  0  0  0  0  0  0  0  0  0  0  0  0  # atno 17395 bound_to 11000

$$$$
