AV-unprocessed.smi:1906|AV-procd|sdf|7728|dock3
  -GOLD-   22720 9473D 1   1.00000     0.00000
 Structure written by MMmdl.
 35 37  0  0  0  0  0  0  0  0  1 V2000
  151.7805  137.3114  158.1083 C   0  0  0  0  0  0  0  0  0  0  0  0
  151.9597  138.7562  158.4507 C   0  0  0  0  0  0  0  0  0  0  0  0
  152.8971  139.1699  159.3034 N   0  0  0  0  0  0  0  0  0  0  0  0
  152.7103  140.5385  159.3190 C   0  0  0  0  0  0  0  0  0  0  0  0
  153.3920  141.5507  160.0312 C   0  0  0  0  0  0  0  0  0  0  0  0
  153.0189  142.9028  159.8828 C   0  0  0  0  0  0  0  0  0  0  0  0
  151.9615  143.2614  159.0219 C   0  0  0  0  0  0  0  0  0  0  0  0
  151.2687  142.2683  158.3033 C   0  0  0  0  0  0  0  0  0  0  0  0
  151.6440  140.9203  158.4562 C   0  0  0  0  0  0  0  0  0  0  0  0
  151.1769  139.7266  157.9156 N   0  0  0  0  0  0  0  0  0  0  0  0
  150.0741  139.5855  156.9739 C   0  0  0  0  0  0  0  0  0  0  0  0
  150.3125  140.3734  155.6697 C   0  0  1  0  0  0  0  0  0  0  0  0
  151.5017  139.8947  155.0751 O   0  0  0  0  0  0  0  0  0  0  0  0
  149.1214  140.3046  154.7237 C   0  0  0  0  0  0  0  0  0  0  0  0
  148.7822  139.0969  154.0743 C   0  0  0  0  0  0  0  0  0  0  0  0
  147.6643  139.0407  153.2193 C   0  0  0  0  0  0  0  0  0  0  0  0
  146.8787  140.1903  153.0094 C   0  0  0  0  0  0  0  0  0  0  0  0
  147.2116  141.3966  153.6545 C   0  0  0  0  0  0  0  0  0  0  0  0
  146.4550  142.5016  153.4557 F   0  0  0  0  0  0  0  0  0  0  0  0
  148.3297  141.4534  154.5085 C   0  0  0  0  0  0  0  0  0  0  0  0
  152.4902  136.6963  158.6622 H   0  0  0  0  0  0  0  0  0  0  0  0
  151.9475  137.1522  157.0428 H   0  0  0  0  0  0  0  0  0  0  0  0
  150.7734  136.9834  158.3635 H   0  0  0  0  0  0  0  0  0  0  0  0
  154.2034  141.2864  160.6929 H   0  0  0  0  0  0  0  0  0  0  0  0
  153.5477  143.6683  160.4316 H   0  0  0  0  0  0  0  0  0  0  0  0
  151.6820  144.2992  158.9130 H   0  0  0  0  0  0  0  0  0  0  0  0
  150.4582  142.5390  157.6429 H   0  0  0  0  0  0  0  0  0  0  0  0
  149.9687  138.5228  156.7511 H   0  0  0  0  0  0  0  0  0  0  0  0
  149.1391  139.8906  157.4438 H   0  0  0  0  0  0  0  0  0  0  0  0
  150.4970  141.4203  155.9132 H   0  0  0  0  0  0  0  0  0  0  0  0
  151.4155  138.9630  154.9424 H   0  0  0  0  0  0  0  0  0  0  0  0
  149.3725  138.2068  154.2360 H   0  0  0  0  0  0  0  0  0  0  0  0
  147.4073  138.1146  152.7267 H   0  0  0  0  0  0  0  0  0  0  0  0
  146.0204  140.1463  152.3555 H   0  0  0  0  0  0  0  0  0  0  0  0
  148.5726  142.3810  155.0065 H   0  0  0  0  0  0  0  0  0  0  0  0
  1  2  1  0  0  0  0
  1 21  1  0  0  0  0
  1 22  1  0  0  0  0
  1 23  1  0  0  0  0
  2 10  1  0  0  0  0
  2  3  2  0  0  0  0
  3  4  1  0  0  0  0
  4  9  2  0  0  0  0
  4  5  1  0  0  0  0
  5  6  2  0  0  0  0
  5 24  1  0  0  0  0
  6  7  1  0  0  0  0
  6 25  1  0  0  0  0
  7  8  2  0  0  0  0
  7 26  1  0  0  0  0
  8  9  1  0  0  0  0
  8 27  1  0  0  0  0
  9 10  1  0  0  0  0
 10 11  1  0  0  0  0
 11 12  1  0  0  0  0
 11 28  1  0  0  0  0
 11 29  1  0  0  0  0
 12 13  1  0  0  0  0
 12 14  1  0  0  0  0
 12 30  1  0  0  0  0
 13 31  1  0  0  0  0
 14 20  1  0  0  0  0
 14 15  2  0  0  0  0
 15 16  1  0  0  0  0
 15 32  1  0  0  0  0
 16 17  2  0  0  0  0
 16 33  1  0  0  0  0
 17 18  1  0  0  0  0
 17 34  1  0  0  0  0
 18 19  1  0  0  0  0
 18 20  2  0  0  0  0
 20 35  1  0  0  0  0
M  END
> <s_m_source_file>
AV-unprocessed.smi

> <i_m_source_file_index>
1906

> <i_lp_mmshare_version>
43012

> <i_f3d_flags>
0

> <s_epik_input>
W2NIXTFbY0hdW2NIXVtjSF1jKGMxMiluKGMobjIpW0NIM10pW0NIMl1bQ0BIXShbT0hdKWMzW2NIXVtjSF1bY0hdYyhGKVtjSF0z

> <s_epik_cmdline>
J2VwaWtfcHl0aG9uJywgJy1waCcsICc3LjAnLCAnLXRuJywgJzgnLCAnLW1hJywgJzIwMCcsICctbWV0YWxfYmluZGluZycsICctaW1hZScsICc8aW5maWxlLm1hZT4nLCAnLW9tYWUnLCAnPG91dGZpbGUubWFlPic=

> <r_epik_Ionization_Penalty>
0.129664

> <r_epik_Ionization_Penalty_Charging>
0

> <r_epik_Ionization_Penalty_Neutral>
0.129664

> <r_epik_State_Penalty>
0.119073

> <r_epik_Charging_Adjusted_Penalty>
0.119073

> <i_epik_Tot_Q>
0

> <i_epik_Tot_abs_Q>
0

> <r_epik_Metal_State_Penalty>
0.000131867

> <b_epik_Metal_Only>
0

> <s_lp_Force_Field>
OPLS_2005

> <r_lp_Energy>
11.7028

> <b_lp_Chiralities_Consistent>
1

> <s_lp_Variant>
AV-unprocessed.smi:1906-2

> <Gold.Version>
5.8.1

> <Gold.Id.Protein>
6NUR|6NUR_protein|mol2

> <Gold.PLP.Fitness>
45.9219

> <Gold.PLP.PLP>
-43.3775

> <Gold.PLP.part.hbond>
-1.0000

> <Gold.PLP.part.metal>
0.0000

> <Gold.PLP.part.buried>
-5.3909

> <Gold.PLP.part.nonpolar>
-37.6226

> <Gold.PLP.part.repulsive>
0.0000

> <Gold.PLP.ligand.clash>
0.0000

> <Gold.PLP.ligand.torsion>
0.1525

> <Gold.PLP.Chemscore.Hbond>
0.9440

> <Gold.PLP.Chemscore.CHOScore>
0.0000

> <Gold.PLP.Chemscore.Metal>
0.0000

> <Gold.Chemscore.Hbonds>
donor molecule, donor type, donor heavy atom, donor atom, acceptor molecule, acceptor atom, score
      P1  H  7989  7998       L1    13  1.00

> <Gold.PLP.Chemscore.Internal.Correction>
0.0175

> <Gold.Rescore>
     Score         DG    S(hbond)    S(metal)    S(lipo)     H(rot)  DE(clash)    DE(int)     intcor
     17.03     -17.42       0.85        0.00     116.94       1.79       0.28       0.11       ----

> <Gold.Chemscore.Fitness>
17.0328

> <Gold.Chemscore.DG>
-17.4247

> <Gold.Chemscore.ZeroCoef>
-5.4800

> <Gold.Chemscore.Hbond>
0.8538

> <Gold.Chemscore.Metal>
0.0000

> <Gold.Chemscore.Lipo>
116.9402

> <Gold.Chemscore.Internal_Hbond>
0.0000

> <Gold.Chemscore.DEClash>
0.2801

> <Gold.Chemscore.DEInternal>
0.1119

> <Gold.Chemscore.Rot>
1.7926

> <Gold.Chemscore.Internal.Correction>
   9.000000E+99

> <Gold.Chemscore.Hbonds>
donor molecule, donor type, donor heavy atom, donor atom, acceptor molecule, acceptor atom, score
      P1  H  7989  7998       L1    13  0.39

> <Gold.Chemscore.Hbond.Weighted>
-2.8518

> <Gold.Chemscore.Metal.Weighted>
-0.0000

> <Gold.Chemscore.Lipo.Weighted>
-13.6820

> <Gold.Chemscore.Internal_Hbond.Weighted>
0.0000

> <Gold.Chemscore.DEClash.Weighted>
0.2801

> <Gold.Chemscore.DEInternal.Weighted>
0.1119

> <Gold.Chemscore.Rot.Weighted>
4.5890

> <Gold.Chemscore.Internal.Correction.Weighted>
   9.000000E+99

> <Gold.Protein.RotatedTorsions>
[ 6907 6896 6895 6894 ] final   32.21 input  -60.11 | X-H torsion
[ 7974 7965 7964 7962 ] final   21.14 input  175.53 | X-H torsion
[ 8008 7997 7996 7995 ] final   34.84 input   59.86 | X-H torsion
[ 10167 10162 10161 10158 ] final -174.24 input  -65.29 | X-H torsion
[ 10718 10713 10712 10709 ] final   97.72 input   66.30 | X-H torsion
[ 10763 10752 10751 10750 ] final -168.01 input  -60.55 | X-H torsion
[ 11005 11000 10999 10996 ] final  120.52 input  -57.11 | X-H torsion

> <Gold.Protein.ActiveResidues>
 VAL166  LYS551  ARG553  GLY616  TRP617  ASP618  TYR619  PRO620  LYS621  CYS622 
 ASP623  PHE694  ASN695  SER759  ASP760  ASP761  ALA762  ILE779  LEU786  VAL792 
 PHE793  MET794  SER795  GLU796  ALA797  LYS798  CYS799  TRP800  GLU811  SER814 

> <Gold.Protein.RotatedAtoms>
  152.0712  134.9532  160.0574 H   0  0  0  0  0  0  0  0  0  0  0  0  # atno 6907 bound_to 6896
  152.0857  133.4170  159.4529 H   0  0  0  0  0  0  0  0  0  0  0  0  # atno 6908 bound_to 6896
  150.6836  134.2850  159.4686 H   0  0  0  0  0  0  0  0  0  0  0  0  # atno 6909 bound_to 6896
  146.2083  139.8070  142.8708 H   0  0  0  0  0  0  0  0  0  0  0  0  # atno 7974 bound_to 7965
  155.1613  140.3283  155.4411 H   0  0  0  0  0  0  0  0  0  0  0  0  # atno 8008 bound_to 7997
  156.2541  140.1959  156.6671 H   0  0  0  0  0  0  0  0  0  0  0  0  # atno 8009 bound_to 7997
  154.6403  140.0571  156.9824 H   0  0  0  0  0  0  0  0  0  0  0  0  # atno 8010 bound_to 7997
  139.5644  144.1790  152.1290 H   0  0  0  0  0  0  0  0  0  0  0  0  # atno 10167 bound_to 10162
  157.6908  131.0618  150.4686 H   0  0  0  0  0  0  0  0  0  0  0  0  # atno 10718 bound_to 10713
  154.6672  135.2934  154.9789 H   0  0  0  0  0  0  0  0  0  0  0  0  # atno 10763 bound_to 10752
  154.0828  135.6602  153.4844 H   0  0  0  0  0  0  0  0  0  0  0  0  # atno 10764 bound_to 10752
  153.0465  135.5201  154.7651 H   0  0  0  0  0  0  0  0  0  0  0  0  # atno 10765 bound_to 10752
  139.9189  134.9635  156.7820 H   0  0  0  0  0  0  0  0  0  0  0  0  # atno 11005 bound_to 11000
  145.3236  141.0250  143.3486 LP  0  0  0  0  0  0  0  0  0  0  0  0  # atno 17320 bound_to 7965
  144.8849  139.4853  143.6705 LP  0  0  0  0  0  0  0  0  0  0  0  0  # atno 17321 bound_to 7965
  140.1310  144.5288  150.6802 LP  0  0  0  0  0  0  0  0  0  0  0  0  # atno 17342 bound_to 10162
  140.6927  143.2385  151.5087 LP  0  0  0  0  0  0  0  0  0  0  0  0  # atno 17343 bound_to 10162
  156.5026  130.4120  149.6345 LP  0  0  0  0  0  0  0  0  0  0  0  0  # atno 17370 bound_to 10713
  156.3314  130.7334  151.2264 LP  0  0  0  0  0  0  0  0  0  0  0  0  # atno 17371 bound_to 10713
  140.6537  133.9708  155.7768 LP  0  0  0  0  0  0  0  0  0  0  0  0  # atno 17394 bound_to 11000
  141.0691  134.0233  157.3552 LP  0  0  0  0  0  0  0  0  0  0  0  0  # atno 17395 bound_to 11000

$$$$
