AV-unprocessed.smi:1575|AV-procd|sdf|6339|dock3
  -GOLD-   22720 6553D 1   1.00000     0.00000
 Structure written by MMmdl.
 41 41  0  0  0  0  0  0  0  0  1 V2000
  149.2432  133.3326  153.7583 C   0  0  0  0  0  0  0  0  0  0  0  0
  148.3004  134.4401  153.7430 N   0  0  0  0  0  0  0  0  0  0  0  0
  147.0479  134.3714  154.2166 C   0  0  0  0  0  0  0  0  0  0  0  0
  146.5780  133.3529  154.7272 O   0  0  0  0  0  0  0  0  0  0  0  0
  146.2092  135.6565  154.1104 C   0  0  2  0  0  0  0  0  0  0  0  0
  145.1306  135.4313  153.0239 C   0  0  0  0  0  0  0  0  0  0  0  0
  145.6422  134.7887  151.7136 C   0  0  0  0  0  0  0  0  0  0  0  0
  144.8935  135.3035  150.4726 C   0  0  0  0  0  0  0  0  0  0  0  0
  145.5547  133.2572  151.7934 C   0  0  0  0  0  0  0  0  0  0  0  0
  147.0598  136.7740  153.7019 N   0  0  0  0  0  0  0  0  0  0  0  0
  147.1918  137.9332  154.3645 C   0  0  0  0  0  0  0  0  0  0  0  0
  146.5967  138.1818  155.4140 O   0  0  0  0  0  0  0  0  0  0  0  0
  148.1630  138.9527  153.7546 C   0  0  0  0  0  0  0  0  0  0  0  0
  149.4123  139.0757  154.5188 N   0  0  0  0  0  0  0  0  0  0  0  0
  150.5974  138.5600  154.0135 C   0  0  0  0  0  0  0  0  0  0  0  0
  151.7806  138.6325  154.6682 C   0  0  0  0  0  0  0  0  0  0  0  0
  151.8640  139.2765  155.9746 C   0  0  0  0  0  0  0  0  0  0  0  0
  152.8882  139.3941  156.6434 O   0  0  0  0  0  0  0  0  0  0  0  0
  150.6501  139.7799  156.4502 N   0  0  0  0  0  0  0  0  0  0  0  0
  149.4268  139.7060  155.7823 C   0  0  0  0  0  0  0  0  0  0  0  0
  148.4128  140.1787  156.2946 O   0  0  0  0  0  0  0  0  0  0  0  0
  150.6584  140.2329  157.3525 H   0  0  0  0  0  0  0  0  0  0  0  0
  150.1971  133.6504  153.3377 H   0  0  0  0  0  0  0  0  0  0  0  0
  148.8694  132.4979  153.1638 H   0  0  0  0  0  0  0  0  0  0  0  0
  149.4187  132.9846  154.7770 H   0  0  0  0  0  0  0  0  0  0  0  0
  148.6162  135.3115  153.3425 H   0  0  0  0  0  0  0  0  0  0  0  0
  145.7413  135.8641  155.0741 H   0  0  0  0  0  0  0  0  0  0  0  0
  144.3377  134.8025  153.4336 H   0  0  0  0  0  0  0  0  0  0  0  0
  144.6552  136.3832  152.7805 H   0  0  0  0  0  0  0  0  0  0  0  0
  146.6970  135.0372  151.5910 H   0  0  0  0  0  0  0  0  0  0  0  0
  143.8199  135.1322  150.5574 H   0  0  0  0  0  0  0  0  0  0  0  0
  145.2392  134.7981  149.5704 H   0  0  0  0  0  0  0  0  0  0  0  0
  145.0524  136.3707  150.3196 H   0  0  0  0  0  0  0  0  0  0  0  0
  144.5222  132.9237  151.9029 H   0  0  0  0  0  0  0  0  0  0  0  0
  146.1205  132.8734  152.6429 H   0  0  0  0  0  0  0  0  0  0  0  0
  145.9610  132.7928  150.8944 H   0  0  0  0  0  0  0  0  0  0  0  0
  147.5972  136.6482  152.8565 H   0  0  0  0  0  0  0  0  0  0  0  0
  148.3736  138.6453  152.7293 H   0  0  0  0  0  0  0  0  0  0  0  0
  147.6787  139.9278  153.6685 H   0  0  0  0  0  0  0  0  0  0  0  0
  150.5825  138.0704  153.0501 H   0  0  0  0  0  0  0  0  0  0  0  0
  152.6702  138.2110  154.2228 H   0  0  0  0  0  0  0  0  0  0  0  0
  1  2  1  0  0  0  0
  1 23  1  0  0  0  0
  1 24  1  0  0  0  0
  1 25  1  0  0  0  0
  2  3  1  0  0  0  0
  2 26  1  0  0  0  0
  3  4  2  0  0  0  0
  3  5  1  0  0  0  0
  5  6  1  0  0  0  0
  5 10  1  0  0  0  0
  5 27  1  0  0  0  0
  6  7  1  0  0  0  0
  6 28  1  0  0  0  0
  6 29  1  0  0  0  0
  7  8  1  0  0  0  0
  7  9  1  0  0  0  0
  7 30  1  0  0  0  0
  8 31  1  0  0  0  0
  8 32  1  0  0  0  0
  8 33  1  0  0  0  0
  9 34  1  0  0  0  0
  9 35  1  0  0  0  0
  9 36  1  0  0  0  0
 10 11  1  0  0  0  0
 10 37  1  0  0  0  0
 11 12  2  0  0  0  0
 11 13  1  0  0  0  0
 13 14  1  0  0  0  0
 13 38  1  0  0  0  0
 13 39  1  0  0  0  0
 14 20  1  0  0  0  0
 14 15  1  0  0  0  0
 15 16  2  0  0  0  0
 15 40  1  0  0  0  0
 16 17  1  0  0  0  0
 16 41  1  0  0  0  0
 17 18  2  0  0  0  0
 17 19  1  0  0  0  0
 19 22  1  0  0  0  0
 19 20  1  0  0  0  0
 20 21  2  0  0  0  0
M  END
> <s_m_source_file>
AV-unprocessed.smi

> <i_m_source_file_index>
1575

> <i_lp_mmshare_version>
43012

> <i_f3d_flags>
0

> <s_epik_input>
W0NIM11bTkhdQyg9TylbQ0BIXShbQ0gyXVtDSF0oW0NIM10pW0NIM10pW05IXUMoPU8pW0NIMl1uMVtjSF1bY0hdYyg9TylbbkhdYzE9Tw==

> <s_epik_cmdline>
J2VwaWtfcHl0aG9uJywgJy1waCcsICc3LjAnLCAnLXRuJywgJzgnLCAnLW1hJywgJzIwMCcsICctbWV0YWxfYmluZGluZycsICctaW1hZScsICc8aW5maWxlLm1hZT4nLCAnLW9tYWUnLCAnPG91dGZpbGUubWFlPic=

> <r_lp_tautomer_probability>
0.999537

> <r_epik_Ionization_Penalty>
0.00357166

> <r_epik_Ionization_Penalty_Charging>
0.00357161

> <r_epik_Ionization_Penalty_Neutral>
5.44484e-08

> <r_epik_State_Penalty>
0.00253761

> <r_epik_Charging_Adjusted_Penalty>
0.00610921

> <i_epik_Tot_Q>
0

> <i_epik_Tot_abs_Q>
0

> <r_epik_Metal_State_Penalty>
0.368734

> <b_epik_Metal_Only>
0

> <s_lp_Force_Field>
OPLS_2005

> <r_lp_Energy>
6.26633

> <b_lp_Chiralities_Consistent>
1

> <s_lp_Variant>
AV-unprocessed.smi:1575-1

> <Gold.Version>
5.8.1

> <Gold.Id.Protein>
6NUR|6NUR_protein|mol2

> <Gold.PLP.Fitness>
38.6489

> <Gold.PLP.PLP>
-28.0579

> <Gold.PLP.part.hbond>
-3.0000

> <Gold.PLP.part.metal>
0.0000

> <Gold.PLP.part.buried>
-3.5812

> <Gold.PLP.part.nonpolar>
-20.9935

> <Gold.PLP.part.repulsive>
0.1539

> <Gold.PLP.ligand.clash>
0.0000

> <Gold.PLP.ligand.torsion>
0.9961

> <Gold.PLP.Chemscore.Hbond>
2.9920

> <Gold.PLP.Chemscore.CHOScore>
1.1492

> <Gold.PLP.Chemscore.Metal>
0.0000

> <Gold.Chemscore.Hbonds>
donor molecule, donor type, donor heavy atom, donor atom, acceptor molecule, acceptor atom, score
      L1  H     2    26       P1  7948  0.91
      L1  H    10    37       P1  7948  1.00
      P1  H  7997  8009       L1    18  1.00
      L1  C    15    40       P1  7948  0.39
      L1  C    15    40       P1  7949  0.42
      L1  C    15    40       P1  7957  0.06

> <Gold.PLP.Chemscore.Internal.Correction>
0.1596

> <Gold.Rescore>
     Score         DG    S(hbond)    S(metal)    S(lipo)     H(rot)  DE(clash)    DE(int)     intcor
     11.28     -13.76       2.91        0.00      49.26       2.81       0.03       2.46       ----

> <Gold.Chemscore.Fitness>
11.2772

> <Gold.Chemscore.DG>
-13.7641

> <Gold.Chemscore.ZeroCoef>
-5.4800

> <Gold.Chemscore.Hbond>
2.9063

> <Gold.Chemscore.Metal>
0.0000

> <Gold.Chemscore.Lipo>
49.2596

> <Gold.Chemscore.Internal_Hbond>
0.0000

> <Gold.Chemscore.DEClash>
0.0276

> <Gold.Chemscore.DEInternal>
2.4593

> <Gold.Chemscore.Rot>
2.8072

> <Gold.Chemscore.Internal.Correction>
   9.000000E+99

> <Gold.Chemscore.Hbonds>
donor molecule, donor type, donor heavy atom, donor atom, acceptor molecule, acceptor atom, score
      L1  H     2    26       P1  7948  0.81
      L1  H    10    37       P1  7948  0.99
      P1  H  7997  8009       L1    18  0.99

> <Gold.Chemscore.Hbond.Weighted>
-9.7072

> <Gold.Chemscore.Metal.Weighted>
-0.0000

> <Gold.Chemscore.Lipo.Weighted>
-5.7634

> <Gold.Chemscore.Internal_Hbond.Weighted>
0.0000

> <Gold.Chemscore.DEClash.Weighted>
0.0276

> <Gold.Chemscore.DEInternal.Weighted>
2.4593

> <Gold.Chemscore.Rot.Weighted>
7.1864

> <Gold.Chemscore.Internal.Correction.Weighted>
   9.000000E+99

> <Gold.Protein.RotatedTorsions>
[ 6907 6896 6895 6894 ] final   80.01 input  -60.11 | X-H torsion
[ 7974 7965 7964 7962 ] final  138.49 input  175.53 | X-H torsion
[ 8008 7997 7996 7995 ] final -171.60 input   59.86 | X-H torsion
[ 10167 10162 10161 10158 ] final   24.88 input  -65.29 | X-H torsion
[ 10718 10713 10712 10709 ] final  -35.85 input   66.30 | X-H torsion
[ 10763 10752 10751 10750 ] final   16.37 input  -60.55 | X-H torsion
[ 11005 11000 10999 10996 ] final  108.42 input  -57.11 | X-H torsion

> <Gold.Protein.ActiveResidues>
 VAL166  LYS551  ARG553  GLY616  TRP617  ASP618  TYR619  PRO620  LYS621  CYS622 
 ASP623  PHE694  ASN695  SER759  ASP760  ASP761  ALA762  ILE779  LEU786  VAL792 
 PHE793  MET794  SER795  GLU796  ALA797  LYS798  CYS799  TRP800  GLU811  SER814 

> <Gold.Protein.RotatedAtoms>
  152.5219  134.3424  159.9221 H   0  0  0  0  0  0  0  0  0  0  0  0  # atno 6907 bound_to 6896
  151.3374  133.3970  159.2675 H   0  0  0  0  0  0  0  0  0  0  0  0  # atno 6908 bound_to 6896
  150.9831  134.9200  159.7914 H   0  0  0  0  0  0  0  0  0  0  0  0  # atno 6909 bound_to 6896
  144.9367  139.4980  143.5591 H   0  0  0  0  0  0  0  0  0  0  0  0  # atno 7974 bound_to 7965
  155.9337  140.1096  157.1112 H   0  0  0  0  0  0  0  0  0  0  0  0  # atno 8008 bound_to 7997
  154.4075  140.1232  156.4902 H   0  0  0  0  0  0  0  0  0  0  0  0  # atno 8009 bound_to 7997
  155.7048  140.3471  155.4951 H   0  0  0  0  0  0  0  0  0  0  0  0  # atno 8010 bound_to 7997
  140.5152  144.0094  150.6391 H   0  0  0  0  0  0  0  0  0  0  0  0  # atno 10167 bound_to 10162
  156.3338  130.4283  149.7849 H   0  0  0  0  0  0  0  0  0  0  0  0  # atno 10718 bound_to 10713
  153.1437  135.6765  153.8988 H   0  0  0  0  0  0  0  0  0  0  0  0  # atno 10763 bound_to 10752
  153.8436  135.3102  155.3429 H   0  0  0  0  0  0  0  0  0  0  0  0  # atno 10764 bound_to 10752
  154.7808  135.4889  153.9924 H   0  0  0  0  0  0  0  0  0  0  0  0  # atno 10765 bound_to 10752
  139.8844  134.9430  156.5970 H   0  0  0  0  0  0  0  0  0  0  0  0  # atno 11005 bound_to 11000
  146.3269  139.8357  142.8900 LP  0  0  0  0  0  0  0  0  0  0  0  0  # atno 17320 bound_to 7965
  145.3056  141.0206  143.3584 LP  0  0  0  0  0  0  0  0  0  0  0  0  # atno 17321 bound_to 7965
  140.3428  143.3009  152.0570 LP  0  0  0  0  0  0  0  0  0  0  0  0  # atno 17342 bound_to 10162
  139.4907  144.6430  151.6837 LP  0  0  0  0  0  0  0  0  0  0  0  0  # atno 17343 bound_to 10162
  156.5111  130.8172  151.3169 LP  0  0  0  0  0  0  0  0  0  0  0  0  # atno 17370 bound_to 10713
  157.7435  130.9913  150.2597 LP  0  0  0  0  0  0  0  0  0  0  0  0  # atno 17371 bound_to 10713
  140.7912  133.8581  155.8647 LP  0  0  0  0  0  0  0  0  0  0  0  0  # atno 17394 bound_to 11000
  140.9675  134.1574  157.4603 LP  0  0  0  0  0  0  0  0  0  0  0  0  # atno 17395 bound_to 11000

$$$$
