AV-unprocessed.smi:1434|AV-procd|sdf|5856|dock6
  -GOLD-   22720 5523D 1   1.00000     0.00000
 Structure written by MMmdl.
 44 45  0  0  0  0  0  0  0  0  3 V2000
  151.4768  138.1037  155.7215 C   0  0  0  0  0  0  0  0  0  0  0  0
  151.7684  138.8201  154.0483 S   0  0  0  0  0  0  0  0  0  0  0  0
  153.2253  138.9955  153.9231 O   0  0  0  0  0  0  0  0  0  0  0  0
  151.1327  137.8772  153.1158 O   0  0  0  0  0  0  0  0  0  0  0  0
  150.9365  140.2163  154.1254 N   0  5  0  0  0  0  0  0  0  0  0  0
  149.4855  140.2339  154.2668 C   0  0  1  0  0  0  0  0  0  0  0  0
  148.9503  141.6888  154.2163 C   0  0  0  0  0  0  0  0  0  0  0  0
  147.4051  141.7733  154.0998 C   0  0  0  0  0  0  0  0  0  0  0  0
  146.8468  140.8959  152.9557 C   0  0  0  0  0  0  0  0  0  0  0  0
  147.3480  139.5177  153.1658 N   0  0  0  0  0  0  0  0  0  0  0  0
  146.5812  138.4286  153.4426 C   0  0  0  0  0  0  0  0  0  0  0  0
  147.0283  137.2827  153.5065 O   0  0  0  0  0  0  0  0  0  0  0  0
  145.2775  138.6881  153.6346 N   0  0  0  0  0  0  0  0  0  0  0  0
  144.2681  137.6842  153.9408 C   0  0  0  0  0  0  0  0  0  0  0  0
  143.3306  137.4780  152.7433 C   0  0  0  0  0  0  0  0  0  0  0  0
  141.8694  137.5964  153.1312 C   0  0  0  0  0  0  0  0  0  0  0  0
  141.0294  136.4674  153.2469 C   0  0  0  0  0  0  0  0  0  0  0  0
  139.6815  136.6472  153.6219 C   0  0  0  0  0  0  0  0  0  0  0  0
  139.2021  137.9497  153.8722 C   0  0  0  0  0  0  0  0  0  0  0  0
  140.0851  139.0410  153.7440 C   0  0  0  0  0  0  0  0  0  0  0  0
  141.3704  138.8282  153.3850 N   0  3  0  0  0  0  0  0  0  0  0  0
  148.8269  139.4352  153.1087 C   0  0  0  0  0  0  0  0  0  0  0  0
  151.9195  137.1094  155.7666 H   0  0  0  0  0  0  0  0  0  0  0  0
  150.4049  138.0302  155.9031 H   0  0  0  0  0  0  0  0  0  0  0  0
  151.9342  138.7336  156.4837 H   0  0  0  0  0  0  0  0  0  0  0  0
  149.1658  139.7790  155.2051 H   0  0  0  0  0  0  0  0  0  0  0  0
  149.2815  142.2434  155.0948 H   0  0  0  0  0  0  0  0  0  0  0  0
  149.3841  142.2003  153.3554 H   0  0  0  0  0  0  0  0  0  0  0  0
  146.9447  141.4717  155.0429 H   0  0  0  0  0  0  0  0  0  0  0  0
  147.1101  142.8111  153.9426 H   0  0  0  0  0  0  0  0  0  0  0  0
  145.7620  140.9909  152.9182 H   0  0  0  0  0  0  0  0  0  0  0  0
  147.2090  141.2613  151.9936 H   0  0  0  0  0  0  0  0  0  0  0  0
  144.9713  139.6477  153.5664 H   0  0  0  0  0  0  0  0  0  0  0  0
  144.7546  136.7413  154.1976 H   0  0  0  0  0  0  0  0  0  0  0  0
  143.7019  138.0057  154.8162 H   0  0  0  0  0  0  0  0  0  0  0  0
  143.5503  138.2105  151.9649 H   0  0  0  0  0  0  0  0  0  0  0  0
  143.5024  136.4964  152.2993 H   0  0  0  0  0  0  0  0  0  0  0  0
  141.4116  135.4753  153.0547 H   0  0  0  0  0  0  0  0  0  0  0  0
  139.0233  135.7958  153.7175 H   0  0  0  0  0  0  0  0  0  0  0  0
  138.1729  138.1086  154.1600 H   0  0  0  0  0  0  0  0  0  0  0  0
  139.8046  140.0698  153.9176 H   0  0  0  0  0  0  0  0  0  0  0  0
  149.1531  139.8354  152.1473 H   0  0  0  0  0  0  0  0  0  0  0  0
  149.1850  138.4046  153.1275 H   0  0  0  0  0  0  0  0  0  0  0  0
  141.9917  139.6331  153.3004 H   0  0  0  0  0  0  0  0  0  0  0  0
  1  2  1  0  0  0  0
  1 23  1  0  0  0  0
  1 24  1  0  0  0  0
  1 25  1  0  0  0  0
  2  3  2  0  0  0  0
  2  4  2  0  0  0  0
  2  5  1  0  0  0  0
  5  6  1  0  0  0  0
  6 22  1  0  0  0  0
  6  7  1  0  0  0  0
  6 26  1  0  0  0  0
  7  8  1  0  0  0  0
  7 27  1  0  0  0  0
  7 28  1  0  0  0  0
  8  9  1  0  0  0  0
  8 29  1  0  0  0  0
  8 30  1  0  0  0  0
  9 10  1  0  0  0  0
  9 31  1  0  0  0  0
  9 32  1  0  0  0  0
 10 11  1  0  0  0  0
 10 22  1  0  0  0  0
 11 12  2  0  0  0  0
 11 13  1  0  0  0  0
 13 14  1  0  0  0  0
 13 33  1  0  0  0  0
 14 15  1  0  0  0  0
 14 34  1  0  0  0  0
 14 35  1  0  0  0  0
 15 16  1  0  0  0  0
 15 36  1  0  0  0  0
 15 37  1  0  0  0  0
 16 21  1  0  0  0  0
 16 17  2  0  0  0  0
 17 18  1  0  0  0  0
 17 38  1  0  0  0  0
 18 19  2  0  0  0  0
 18 39  1  0  0  0  0
 19 20  1  0  0  0  0
 19 40  1  0  0  0  0
 20 21  2  0  0  0  0
 20 41  1  0  0  0  0
 21 44  1  0  0  0  0
 22 42  1  0  0  0  0
 22 43  1  0  0  0  0
M  CHG  1   5  -1
M  CHG  1  21   1
M  END
> <s_m_source_file>
AV-unprocessed.smi

> <i_m_source_file_index>
1434

> <i_lp_mmshare_version>
43012

> <i_f3d_flags>
0

> <s_epik_input>
W0NIM11TKD1PKSg9TylbTkhdW0NAQEhdMVtDSDJdW0NIMl1bQ0gyXU4oW0NIMl0xKUMoPU8pW05IXVtDSDJdW0NIMl1jMltjSF1bY0hdW2NIXVtjSF1uMg==

> <s_epik_cmdline>
J2VwaWtfcHl0aG9uJywgJy1waCcsICc3LjAnLCAnLXRuJywgJzgnLCAnLW1hJywgJzIwMCcsICctbWV0YWxfYmluZGluZycsICctaW1hZScsICc8aW5maWxlLm1hZT4nLCAnLW9tYWUnLCAnPG91dGZpbGUubWFlPic=

> <r_epik_Ionization_Penalty>
8.07847

> <r_epik_Ionization_Penalty_Charging>
8.0784

> <r_epik_Ionization_Penalty_Neutral>
6.25603e-05

> <r_epik_State_Penalty>
8.17261

> <r_epik_Charging_Adjusted_Penalty>
16.251

> <i_epik_Tot_Q>
0

> <i_epik_Tot_abs_Q>
2

> <r_epik_Metal_State_Penalty>
4.14042

> <b_epik_Metal_Only>
1

> <s_lp_Force_Field>
OPLS_2005

> <r_lp_Energy>
28.6508

> <b_lp_Chiralities_Consistent>
1

> <s_lp_Variant>
AV-unprocessed.smi:1434-8

> <Gold.Version>
5.8.1

> <Gold.Id.Protein>
6NUR|6NUR_protein|mol2

> <Gold.PLP.Fitness>
51.4836

> <Gold.PLP.PLP>
-38.1291

> <Gold.PLP.part.hbond>
-4.2954

> <Gold.PLP.part.metal>
0.0000

> <Gold.PLP.part.buried>
-1.8562

> <Gold.PLP.part.nonpolar>
-33.0376

> <Gold.PLP.part.repulsive>
0.4183

> <Gold.PLP.ligand.clash>
0.0000

> <Gold.PLP.ligand.torsion>
1.1290

> <Gold.PLP.Chemscore.Hbond>
4.8480

> <Gold.PLP.Chemscore.CHOScore>
0.0000

> <Gold.PLP.Chemscore.Metal>
0.0000

> <Gold.Chemscore.Hbonds>
donor molecule, donor type, donor heavy atom, donor atom, acceptor molecule, acceptor atom, score
      L1  H    13    33       P1 10175  0.64
      L1  H    21    44       P1 10175  1.95
      P1  H  7989  7998       L1     5  0.02

> <Gold.PLP.Chemscore.Internal.Correction>
1.0685

> <Gold.Rescore>
     Score         DG    S(hbond)    S(metal)    S(lipo)     H(rot)  DE(clash)    DE(int)     intcor
     19.88     -22.39       3.62        0.00      79.76       1.77       1.28       1.23       ----

> <Gold.Chemscore.Fitness>
19.8815

> <Gold.Chemscore.DG>
-22.3937

> <Gold.Chemscore.ZeroCoef>
-5.4800

> <Gold.Chemscore.Hbond>
3.6237

> <Gold.Chemscore.Metal>
0.0000

> <Gold.Chemscore.Lipo>
79.7577

> <Gold.Chemscore.Internal_Hbond>
0.0000

> <Gold.Chemscore.DEClash>
1.2848

> <Gold.Chemscore.DEInternal>
1.2275

> <Gold.Chemscore.Rot>
1.7661

> <Gold.Chemscore.Internal.Correction>
   9.000000E+99

> <Gold.Chemscore.Hbonds>
donor molecule, donor type, donor heavy atom, donor atom, acceptor molecule, acceptor atom, score
      L1  H    13    33       P1 10175  0.64
      L1  H    21    44       P1 10175  0.78
      P1  H  7989  7998       L1     5  0.02

> <Gold.Chemscore.Hbond.Weighted>
-12.1032

> <Gold.Chemscore.Metal.Weighted>
-0.0000

> <Gold.Chemscore.Lipo.Weighted>
-9.3316

> <Gold.Chemscore.Internal_Hbond.Weighted>
0.0000

> <Gold.Chemscore.DEClash.Weighted>
1.2848

> <Gold.Chemscore.DEInternal.Weighted>
1.2275

> <Gold.Chemscore.Rot.Weighted>
4.5211

> <Gold.Chemscore.Internal.Correction.Weighted>
   9.000000E+99

> <Gold.Protein.RotatedTorsions>
[ 6907 6896 6895 6894 ] final -103.62 input  -60.11 | X-H torsion
[ 7974 7965 7964 7962 ] final  121.54 input  175.53 | X-H torsion
[ 8008 7997 7996 7995 ] final -145.73 input   59.86 | X-H torsion
[ 10167 10162 10161 10158 ] final  -19.80 input  -65.29 | X-H torsion
[ 10718 10713 10712 10709 ] final   11.21 input   66.30 | X-H torsion
[ 10763 10752 10751 10750 ] final  -44.59 input  -60.55 | X-H torsion
[ 11005 11000 10999 10996 ] final -129.88 input  -57.11 | X-H torsion

> <Gold.Protein.ActiveResidues>
 VAL166  LYS551  ARG553  GLY616  TRP617  ASP618  TYR619  PRO620  LYS621  CYS622 
 ASP623  PHE694  ASN695  SER759  ASP760  ASP761  ALA762  ILE779  LEU786  VAL792 
 PHE793  MET794  SER795  GLU796  ALA797  LYS798  CYS799  TRP800  GLU811  SER814 

> <Gold.Protein.RotatedAtoms>
  150.7249  134.0402  159.3762 H   0  0  0  0  0  0  0  0  0  0  0  0  # atno 6907 bound_to 6896
  151.8375  135.0599  160.0453 H   0  0  0  0  0  0  0  0  0  0  0  0  # atno 6908 bound_to 6896
  152.2887  133.5504  159.5580 H   0  0  0  0  0  0  0  0  0  0  0  0  # atno 6909 bound_to 6896
  145.1182  139.3407  143.4728 H   0  0  0  0  0  0  0  0  0  0  0  0  # atno 7974 bound_to 7965
  155.5478  140.0614  157.2856 H   0  0  0  0  0  0  0  0  0  0  0  0  # atno 8008 bound_to 7997
  154.4430  140.1908  156.0701 H   0  0  0  0  0  0  0  0  0  0  0  0  # atno 8009 bound_to 7997
  156.0538  140.3281  155.7385 H   0  0  0  0  0  0  0  0  0  0  0  0  # atno 8010 bound_to 7997
  140.7271  143.4783  151.0152 H   0  0  0  0  0  0  0  0  0  0  0  0  # atno 10167 bound_to 10162
  156.9922  130.6047  149.5687 H   0  0  0  0  0  0  0  0  0  0  0  0  # atno 10718 bound_to 10713
  154.0146  135.6677  153.4768 H   0  0  0  0  0  0  0  0  0  0  0  0  # atno 10763 bound_to 10752
  153.0606  135.5030  154.8080 H   0  0  0  0  0  0  0  0  0  0  0  0  # atno 10764 bound_to 10752
  154.6974  135.3072  154.9355 H   0  0  0  0  0  0  0  0  0  0  0  0  # atno 10765 bound_to 10752
  140.9394  134.1213  157.4164 H   0  0  0  0  0  0  0  0  0  0  0  0  # atno 11005 bound_to 11000
  146.3522  140.1129  142.8603 LP  0  0  0  0  0  0  0  0  0  0  0  0  # atno 17320 bound_to 7965
  145.0770  140.9195  143.4848 LP  0  0  0  0  0  0  0  0  0  0  0  0  # atno 17321 bound_to 7965
  139.8480  143.7475  152.3179 LP  0  0  0  0  0  0  0  0  0  0  0  0  # atno 17342 bound_to 10162
  139.7648  144.7495  151.0311 LP  0  0  0  0  0  0  0  0  0  0  0  0  # atno 17343 bound_to 10162
  156.0203  130.5297  150.8255 LP  0  0  0  0  0  0  0  0  0  0  0  0  # atno 17370 bound_to 10713
  157.5451  131.0942  150.9774 LP  0  0  0  0  0  0  0  0  0  0  0  0  # atno 17371 bound_to 10713
  139.8816  135.0031  156.6170 LP  0  0  0  0  0  0  0  0  0  0  0  0  # atno 17394 bound_to 11000
  140.7755  133.8703  155.8525 LP  0  0  0  0  0  0  0  0  0  0  0  0  # atno 17395 bound_to 11000

$$$$
