AV-unprocessed.smi:1725|AV-procd|sdf|6955|dock2
  -GOLD-   22720 8163D 1   1.00000     0.00000
 Structure written by MMmdl.
 35 36  0  0  0  0  0  0  0  0  2 V2000
  151.5735  138.0055  154.1244 C   0  0  0  0  0  0  0  0  0  0  0  0
  150.8044  138.9511  155.0599 C   0  0  2  0  0  0  0  0  0  0  0  0
  150.2114  139.9667  154.2541 O   0  0  0  0  0  0  0  0  0  0  0  0
  149.0670  140.5996  154.8144 C   0  0  0  0  0  0  0  0  0  0  0  0
  148.4523  141.5081  153.7722 C   0  0  0  0  0  0  0  0  0  0  0  0
  147.4204  142.5418  154.1630 C   0  0  0  0  0  0  0  0  0  0  0  0
  147.0069  141.3315  153.3649 C   0  0  0  0  0  0  0  0  0  0  0  0
  151.7267  139.5773  156.1199 C   0  0  0  0  0  0  0  0  0  0  0  0
  152.9448  139.4186  156.0369 O   0  0  0  0  0  0  0  0  0  0  0  0
  151.1028  140.3048  157.0669 N   0  0  0  0  0  0  0  0  0  0  0  0
  151.6508  141.0075  158.1522 C   0  0  0  0  0  0  0  0  0  0  0  0
  151.4544  142.3330  158.3942 C   0  0  0  0  0  0  0  0  0  0  0  0
  152.0608  143.0157  159.5303 C   0  0  0  0  0  0  0  0  0  0  0  0
  151.7879  144.4659  159.8879 C   0  0  0  0  0  0  0  0  0  0  0  0
  152.3055  145.2889  158.9754 F   0  0  0  0  0  0  0  0  0  0  0  0
  150.4741  144.6805  159.9420 F   0  0  0  0  0  0  0  0  0  0  0  0
  152.3094  144.7728  161.0756 F   0  0  0  0  0  0  0  0  0  0  0  0
  152.8274  142.1662  160.3042 C   0  0  0  0  0  0  0  0  0  0  0  0
  153.0958  140.8550  160.1183 N   0  5  0  0  0  0  0  0  0  0  0  0
  152.5237  140.2265  159.0526 C   0  0  0  0  0  0  0  0  0  0  0  0
  152.7183  139.0313  158.8276 O   0  0  0  0  0  0  0  0  0  0  0  0
  152.0720  137.2133  154.6840 H   0  0  0  0  0  0  0  0  0  0  0  0
  152.3308  138.5381  153.5479 H   0  0  0  0  0  0  0  0  0  0  0  0
  150.8961  137.5304  153.4148 H   0  0  0  0  0  0  0  0  0  0  0  0
  150.0182  138.3741  155.5508 H   0  0  0  0  0  0  0  0  0  0  0  0
  148.3288  139.8529  155.1093 H   0  0  0  0  0  0  0  0  0  0  0  0
  149.3227  141.1851  155.6983 H   0  0  0  0  0  0  0  0  0  0  0  0
  149.1365  141.7869  152.9729 H   0  0  0  0  0  0  0  0  0  0  0  0
  147.1154  142.5836  155.2069 H   0  0  0  0  0  0  0  0  0  0  0  0
  147.4502  143.4994  153.6470 H   0  0  0  0  0  0  0  0  0  0  0  0
  146.7582  141.4819  152.3163 H   0  0  0  0  0  0  0  0  0  0  0  0
  146.4241  140.5687  153.8779 H   0  0  0  0  0  0  0  0  0  0  0  0
  150.1051  140.4176  156.9590 H   0  0  0  0  0  0  0  0  0  0  0  0
  150.8529  142.9310  157.7289 H   0  0  0  0  0  0  0  0  0  0  0  0
  153.2930  142.6066  161.2119 H   0  0  0  0  0  0  0  0  0  0  0  0
  1  2  1  0  0  0  0
  1 22  1  0  0  0  0
  1 23  1  0  0  0  0
  1 24  1  0  0  0  0
  2  3  1  0  0  0  0
  2  8  1  0  0  0  0
  2 25  1  0  0  0  0
  3  4  1  0  0  0  0
  4  5  1  0  0  0  0
  4 26  1  0  0  0  0
  4 27  1  0  0  0  0
  5  7  1  0  0  0  0
  5  6  1  0  0  0  0
  5 28  1  0  0  0  0
  6  7  1  0  0  0  0
  6 29  1  0  0  0  0
  6 30  1  0  0  0  0
  7 31  1  0  0  0  0
  7 32  1  0  0  0  0
  8  9  2  0  0  0  0
  8 10  1  0  0  0  0
 10 11  1  0  0  0  0
 10 33  1  0  0  0  0
 11 20  1  0  0  0  0
 11 12  2  0  0  0  0
 12 13  1  0  0  0  0
 12 34  1  0  0  0  0
 13 14  1  0  0  0  0
 13 18  2  0  0  0  0
 14 15  1  0  0  0  0
 14 16  1  0  0  0  0
 14 17  1  0  0  0  0
 18 19  1  0  0  0  0
 18 35  1  0  0  0  0
 19 20  1  0  0  0  0
 20 21  2  0  0  0  0
M  CHG  1  19  -1
M  END
> <s_m_source_file>
AV-unprocessed.smi

> <i_m_source_file_index>
1725

> <i_lp_mmshare_version>
43012

> <i_f3d_flags>
0

> <s_epik_input>
W0NIMl0xW0NIMl1bQ0hdMVtDSDJdT1tDQEBIXShbQ0gzXSlDKD1PKVtOSF1jMltjSF1jKEMoRikoRilGKVtjSF1bbkhdYzI9Tw==

> <s_epik_cmdline>
J2VwaWtfcHl0aG9uJywgJy1waCcsICc3LjAnLCAnLXRuJywgJzgnLCAnLW1hJywgJzIwMCcsICctbWV0YWxfYmluZGluZycsICctaW1hZScsICc8aW5maWxlLm1hZT4nLCAnLW9tYWUnLCAnPG91dGZpbGUubWFlPic=

> <r_lp_tautomer_probability>
0.999

> <r_epik_Ionization_Penalty>
2.64397

> <r_epik_Ionization_Penalty_Charging>
0.0618254

> <r_epik_Ionization_Penalty_Neutral>
2.58215

> <r_epik_State_Penalty>
2.58023

> <r_epik_Charging_Adjusted_Penalty>
2.64205

> <i_epik_Tot_Q>
-1

> <i_epik_Tot_abs_Q>
1

> <r_epik_Metal_State_Penalty>
0.429101

> <b_epik_Metal_Only>
1

> <s_lp_Force_Field>
OPLS_2005

> <r_lp_Energy>
29.6692

> <b_lp_Chiralities_Consistent>
1

> <s_lp_Variant>
AV-unprocessed.smi:1725-3

> <Gold.Version>
5.8.1

> <Gold.Id.Protein>
6NUR|6NUR_protein|mol2

> <Gold.PLP.Fitness>
52.6703

> <Gold.PLP.PLP>
-48.8773

> <Gold.PLP.part.hbond>
-2.0000

> <Gold.PLP.part.metal>
0.0000

> <Gold.PLP.part.buried>
-6.9187

> <Gold.PLP.part.nonpolar>
-40.4745

> <Gold.PLP.part.repulsive>
0.2511

> <Gold.PLP.ligand.clash>
0.0000

> <Gold.PLP.ligand.torsion>
1.4426

> <Gold.PLP.Chemscore.Hbond>
2.0000

> <Gold.PLP.Chemscore.CHOScore>
0.0000

> <Gold.PLP.Chemscore.Metal>
0.0000

> <Gold.Chemscore.Hbonds>
donor molecule, donor type, donor heavy atom, donor atom, acceptor molecule, acceptor atom, score
      P1  H  7989  7998       L1     3  1.00
      P1  H  7997  8009       L1     9  1.00

> <Gold.PLP.Chemscore.Internal.Correction>
0.6783

> <Gold.Rescore>
     Score         DG    S(hbond)    S(metal)    S(lipo)     H(rot)  DE(clash)    DE(int)     intcor
     13.23     -17.69       1.83        0.00      90.64       1.76       0.35       4.11       ----

> <Gold.Chemscore.Fitness>
13.2263

> <Gold.Chemscore.DG>
-17.6857

> <Gold.Chemscore.ZeroCoef>
-5.4800

> <Gold.Chemscore.Hbond>
1.8287

> <Gold.Chemscore.Metal>
0.0000

> <Gold.Chemscore.Lipo>
90.6369

> <Gold.Chemscore.Internal_Hbond>
0.0000

> <Gold.Chemscore.DEClash>
0.3541

> <Gold.Chemscore.DEInternal>
4.1054

> <Gold.Chemscore.Rot>
1.7604

> <Gold.Chemscore.Internal.Correction>
   9.000000E+99

> <Gold.Chemscore.Hbonds>
donor molecule, donor type, donor heavy atom, donor atom, acceptor molecule, acceptor atom, score
      P1  H  7989  7998       L1     3  0.54
      P1  H  7997  8009       L1     9  0.98

> <Gold.Chemscore.Hbond.Weighted>
-6.1077

> <Gold.Chemscore.Metal.Weighted>
-0.0000

> <Gold.Chemscore.Lipo.Weighted>
-10.6045

> <Gold.Chemscore.Internal_Hbond.Weighted>
0.0000

> <Gold.Chemscore.DEClash.Weighted>
0.3541

> <Gold.Chemscore.DEInternal.Weighted>
4.1054

> <Gold.Chemscore.Rot.Weighted>
4.5065

> <Gold.Chemscore.Internal.Correction.Weighted>
   9.000000E+99

> <Gold.Protein.RotatedTorsions>
[ 6907 6896 6895 6894 ] final  135.39 input  -60.11 | X-H torsion
[ 7974 7965 7964 7962 ] final -153.02 input  175.53 | X-H torsion
[ 8008 7997 7996 7995 ] final -169.55 input   59.86 | X-H torsion
[ 10167 10162 10161 10158 ] final  179.95 input  -65.29 | X-H torsion
[ 10718 10713 10712 10709 ] final  102.29 input   66.30 | X-H torsion
[ 10763 10752 10751 10750 ] final  -33.55 input  -60.55 | X-H torsion
[ 11005 11000 10999 10996 ] final   81.62 input  -57.11 | X-H torsion

> <Gold.Protein.ActiveResidues>
 VAL166  LYS551  ARG553  GLY616  TRP617  ASP618  TYR619  PRO620  LYS621  CYS622 
 ASP623  PHE694  ASN695  SER759  ASP760  ASP761  ALA762  ILE779  LEU786  VAL792 
 PHE793  MET794  SER795  GLU796  ALA797  LYS798  CYS799  TRP800  GLU811  SER814 

> <Gold.Protein.RotatedAtoms>
  152.3009  133.5655  159.5617 H   0  0  0  0  0  0  0  0  0  0  0  0  # atno 6907 bound_to 6896
  150.7277  134.0292  159.3736 H   0  0  0  0  0  0  0  0  0  0  0  0  # atno 6908 bound_to 6896
  151.8192  135.0657  160.0474 H   0  0  0  0  0  0  0  0  0  0  0  0  # atno 6909 bound_to 6896
  144.7763  140.4583  143.5871 H   0  0  0  0  0  0  0  0  0  0  0  0  # atno 7974 bound_to 7965
  155.9064  140.1050  157.1312 H   0  0  0  0  0  0  0  0  0  0  0  0  # atno 8008 bound_to 7997
  154.4033  140.1282  156.4566 H   0  0  0  0  0  0  0  0  0  0  0  0  # atno 8009 bound_to 7997
  155.7362  140.3467  155.5085 H   0  0  0  0  0  0  0  0  0  0  0  0  # atno 8010 bound_to 7997
  139.5359  144.2500  152.0792 H   0  0  0  0  0  0  0  0  0  0  0  0  # atno 10167 bound_to 10162
  157.6806  131.0749  150.5381 H   0  0  0  0  0  0  0  0  0  0  0  0  # atno 10718 bound_to 10713
  153.8321  135.6865  153.4813 H   0  0  0  0  0  0  0  0  0  0  0  0  # atno 10763 bound_to 10752
  153.1504  135.4620  154.9627 H   0  0  0  0  0  0  0  0  0  0  0  0  # atno 10764 bound_to 10752
  154.7882  135.3292  154.7783 H   0  0  0  0  0  0  0  0  0  0  0  0  # atno 10765 bound_to 10752
  139.9092  134.8010  156.2065 H   0  0  0  0  0  0  0  0  0  0  0  0  # atno 11005 bound_to 11000
  145.6177  139.1520  143.3040 LP  0  0  0  0  0  0  0  0  0  0  0  0  # atno 17320 bound_to 7965
  146.1944  140.6289  142.9131 LP  0  0  0  0  0  0  0  0  0  0  0  0  # atno 17321 bound_to 7965
  140.1970  144.4695  150.6450 LP  0  0  0  0  0  0  0  0  0  0  0  0  # atno 17342 bound_to 10162
  140.6564  143.2239  151.5958 LP  0  0  0  0  0  0  0  0  0  0  0  0  # atno 17343 bound_to 10162
  156.5689  130.4274  149.6028 LP  0  0  0  0  0  0  0  0  0  0  0  0  # atno 17370 bound_to 10713
  156.2757  130.7042  151.1853 LP  0  0  0  0  0  0  0  0  0  0  0  0  # atno 17371 bound_to 10713
  141.0492  133.6897  156.1740 LP  0  0  0  0  0  0  0  0  0  0  0  0  # atno 17394 bound_to 11000
  140.6836  134.4740  157.5589 LP  0  0  0  0  0  0  0  0  0  0  0  0  # atno 17395 bound_to 11000

$$$$
