AV-unprocessed.smi:103|AV-procd|sdf|978|dock2
  -GOLD-   2262017533D 1   1.00000     0.00000
 Structure written by MMmdl.
 53 55  0  0  0  0  0  0  0  0  1 V2000
  148.8659  132.9107  153.8694 C   0  0  0  0  0  0  0  0  0  0  0  0
  148.9089  133.1471  155.3737 C   0  0  0  0  0  0  0  0  0  0  0  0
  149.8689  132.7817  156.0525 O   0  0  0  0  0  0  0  0  0  0  0  0
  147.8135  133.7808  155.8281 O   0  0  0  0  0  0  0  0  0  0  0  0
  147.6895  134.1134  157.2047 C   0  0  0  0  0  0  0  0  0  0  0  0
  148.9690  134.7961  157.7328 C   0  0  1  0  0  0  0  0  0  0  0  0
  149.5087  135.5967  156.6778 O   0  0  0  0  0  0  0  0  0  0  0  0
  149.5111  136.9466  157.0293 C   0  0  1  0  0  0  0  0  0  0  0  0
  149.1532  137.7810  155.8349 N   0  0  0  0  0  0  0  0  0  0  0  0
  149.8654  138.8092  155.2514 C   0  0  0  0  0  0  0  0  0  0  0  0
  151.4954  139.3727  155.7245 S   0  0  0  0  0  0  0  0  0  0  0  0
  152.5662  138.4345  154.5614 C   0  0  0  0  0  0  0  0  0  0  0  0
  151.5638  140.8072  155.4042 O   0  0  0  0  0  0  0  0  0  0  0  0
  151.7426  138.8996  157.0950 O   0  0  0  0  0  0  0  0  0  0  0  0
  149.3461  139.3525  154.1846 N   0  0  0  0  0  0  0  0  0  0  0  0
  148.1328  138.6922  154.0561 C   0  0  0  0  0  0  0  0  0  0  0  0
  147.0489  138.7945  153.1484 C   0  0  0  0  0  0  0  0  0  0  0  0
  147.0255  139.6692  152.1336 N   0  0  0  0  0  0  0  0  0  0  0  0
  145.9858  137.9736  153.3136 N   0  0  0  0  0  0  0  0  0  0  0  0
  145.9843  137.0936  154.3192 C   0  0  0  0  0  0  0  0  0  0  0  0
  146.9234  136.8826  155.2443 N   0  0  0  0  0  0  0  0  0  0  0  0
  147.9972  137.7099  155.0790 C   0  0  0  0  0  0  0  0  0  0  0  0
  148.5265  137.1096  158.1926 C   0  0  1  0  0  0  0  0  0  0  0  0
  147.1841  137.2623  157.7321 O   0  0  0  0  0  0  0  0  0  0  0  0
  146.2130  137.6778  158.5644 C   0  0  0  0  0  0  0  0  0  0  0  0
  144.8813  137.8643  157.8504 C   0  0  0  0  0  0  0  0  0  0  0  0
  146.3368  137.9116  159.7663 O   0  0  0  0  0  0  0  0  0  0  0  0
  148.7287  135.7763  158.8925 C   0  0  1  0  0  0  0  0  0  0  0  0
  147.6451  135.4176  159.7443 O   0  0  0  0  0  0  0  0  0  0  0  0
  147.6308  135.8195  161.0272 C   0  0  0  0  0  0  0  0  0  0  0  0
  146.8922  134.8438  161.9333 C   0  0  0  0  0  0  0  0  0  0  0  0
  148.1353  136.8520  161.4688 O   0  0  0  0  0  0  0  0  0  0  0  0
  147.8429  132.9677  153.4964 H   0  0  0  0  0  0  0  0  0  0  0  0
  149.2648  131.9247  153.6296 H   0  0  0  0  0  0  0  0  0  0  0  0
  149.4653  133.6604  153.3530 H   0  0  0  0  0  0  0  0  0  0  0  0
  146.8302  134.7719  157.3242 H   0  0  0  0  0  0  0  0  0  0  0  0
  147.4664  133.2138  157.7801 H   0  0  0  0  0  0  0  0  0  0  0  0
  149.6964  134.0435  158.0379 H   0  0  0  0  0  0  0  0  0  0  0  0
  150.5308  137.2284  157.2901 H   0  0  0  0  0  0  0  0  0  0  0  0
  153.6098  138.6890  154.7438 H   0  0  0  0  0  0  0  0  0  0  0  0
  152.3032  138.6958  153.5365 H   0  0  0  0  0  0  0  0  0  0  0  0
  152.4204  137.3651  154.7118 H   0  0  0  0  0  0  0  0  0  0  0  0
  147.8061  140.2938  151.9906 H   0  0  0  0  0  0  0  0  0  0  0  0
  146.2262  139.7063  151.5180 H   0  0  0  0  0  0  0  0  0  0  0  0
  145.1072  136.4676  154.3927 H   0  0  0  0  0  0  0  0  0  0  0  0
  148.8318  137.9374  158.8330 H   0  0  0  0  0  0  0  0  0  0  0  0
  145.0403  138.2078  156.8277 H   0  0  0  0  0  0  0  0  0  0  0  0
  144.2704  138.6025  158.3706 H   0  0  0  0  0  0  0  0  0  0  0  0
  144.3353  136.9213  157.8199 H   0  0  0  0  0  0  0  0  0  0  0  0
  149.6511  135.8284  159.4737 H   0  0  0  0  0  0  0  0  0  0  0  0
  145.9423  134.5528  161.4843 H   0  0  0  0  0  0  0  0  0  0  0  0
  146.6899  135.3004  162.9024 H   0  0  0  0  0  0  0  0  0  0  0  0
  147.4915  133.9473  162.0915 H   0  0  0  0  0  0  0  0  0  0  0  0
  1  2  1  0  0  0  0
  1 33  1  0  0  0  0
  1 34  1  0  0  0  0
  1 35  1  0  0  0  0
  2  3  2  0  0  0  0
  2  4  1  0  0  0  0
  4  5  1  0  0  0  0
  5  6  1  0  0  0  0
  5 36  1  0  0  0  0
  5 37  1  0  0  0  0
  6 28  1  0  0  0  0
  6  7  1  0  0  0  0
  6 38  1  0  0  0  0
  7  8  1  0  0  0  0
  8  9  1  0  0  0  0
  8 23  1  0  0  0  0
  8 39  1  0  0  0  0
  9 22  1  0  0  0  0
  9 10  1  0  0  0  0
 10 11  1  0  0  0  0
 10 15  2  0  0  0  0
 11 12  1  0  0  0  0
 11 13  2  0  0  0  0
 11 14  2  0  0  0  0
 12 40  1  0  0  0  0
 12 41  1  0  0  0  0
 12 42  1  0  0  0  0
 15 16  1  0  0  0  0
 16 22  2  0  0  0  0
 16 17  1  0  0  0  0
 17 18  1  0  0  0  0
 17 19  2  0  0  0  0
 18 43  1  0  0  0  0
 18 44  1  0  0  0  0
 19 20  1  0  0  0  0
 20 21  2  0  0  0  0
 20 45  1  0  0  0  0
 21 22  1  0  0  0  0
 23 24  1  0  0  0  0
 23 28  1  0  0  0  0
 23 46  1  0  0  0  0
 24 25  1  0  0  0  0
 25 26  1  0  0  0  0
 25 27  2  0  0  0  0
 26 47  1  0  0  0  0
 26 48  1  0  0  0  0
 26 49  1  0  0  0  0
 28 29  1  0  0  0  0
 28 50  1  0  0  0  0
 29 30  1  0  0  0  0
 30 31  1  0  0  0  0
 30 32  2  0  0  0  0
 31 51  1  0  0  0  0
 31 52  1  0  0  0  0
 31 53  1  0  0  0  0
M  END
> <s_m_source_file>
AV-unprocessed.smi

> <i_m_source_file_index>
103

> <i_lp_mmshare_version>
43012

> <i_f3d_flags>
0

> <s_epik_input>
W0NIM11DKD1PKU9bQ0gyXVtDQEBIXTFPW0NASF0oW0NAQEhdKE9DKD1PKVtDSDNdKVtDQEhdMU9DKD1PKVtDSDNdKW4oYyhuMilTKD1PKSg9TylbQ0gzXSljKGMyMyluW2NIXW5jM1tOSDJd

> <s_epik_cmdline>
J2VwaWtfcHl0aG9uJywgJy1waCcsICc3LjAnLCAnLXRuJywgJzgnLCAnLW1hJywgJzIwMCcsICctbWV0YWxfYmluZGluZycsICctaW1hZScsICc8aW5maWxlLm1hZT4nLCAnLW9tYWUnLCAnPG91dGZpbGUubWFlPic=

> <r_lp_tautomer_probability>
1

> <r_epik_Ionization_Penalty>
1.51338e-05

> <r_epik_Ionization_Penalty_Charging>
0

> <r_epik_Ionization_Penalty_Neutral>
1.51338e-05

> <r_epik_State_Penalty>
-0

> <r_epik_Charging_Adjusted_Penalty>
0

> <i_epik_Tot_Q>
0

> <i_epik_Tot_abs_Q>
0

> <r_epik_Metal_State_Penalty>
-0

> <b_epik_Metal_Only>
0

> <s_epik_Chemistry_Notes>
This compound has an ester and may undergo hydrolysis at high or low pH. This compound contains an acetal/aminal-like group ( X-CH(R)-Y where X, Y are N, S, or O) that may be acid/base labile, releasing an aldehyde.

> <s_lp_Force_Field>
OPLS_2005

> <r_lp_Energy>
15.224

> <b_lp_Chiralities_Consistent>
1

> <s_lp_Variant>
AV-unprocessed.smi:103-2

> <Gold.Version>
5.8.1

> <Gold.Id.Protein>
6NUR|6NUR_protein|mol2

> <Gold.PLP.Fitness>
37.8535

> <Gold.PLP.PLP>
-30.1176

> <Gold.PLP.part.hbond>
-4.4127

> <Gold.PLP.part.metal>
0.0000

> <Gold.PLP.part.buried>
-5.6779

> <Gold.PLP.part.nonpolar>
-21.4459

> <Gold.PLP.part.repulsive>
0.7560

> <Gold.PLP.ligand.clash>
0.0000

> <Gold.PLP.ligand.torsion>
2.2485

> <Gold.PLP.Chemscore.Hbond>
3.2400

> <Gold.PLP.Chemscore.CHOScore>
0.0000

> <Gold.PLP.Chemscore.Metal>
0.0000

> <Gold.Chemscore.Hbonds>
donor molecule, donor type, donor heavy atom, donor atom, acceptor molecule, acceptor atom, score
      L1  H    18    43       P1  7957  0.64
      P1  H  6931  6943       L1    32  1.00
      P1  H  6934  6947       L1    27  0.91
      P1  H  7989  7998       L1    13  0.66

> <Gold.PLP.Chemscore.Internal.Correction>
2.5130

> <Gold.Rescore>
     Score         DG    S(hbond)    S(metal)    S(lipo)     H(rot)  DE(clash)    DE(int)     intcor
     -0.50     -11.18       3.68        0.00      36.59       4.25       0.32      11.36       ----

> <Gold.Chemscore.Fitness>
-0.4985

> <Gold.Chemscore.DG>
-11.1753

> <Gold.Chemscore.ZeroCoef>
-5.4800

> <Gold.Chemscore.Hbond>
3.6774

> <Gold.Chemscore.Metal>
0.0000

> <Gold.Chemscore.Lipo>
36.5938

> <Gold.Chemscore.Internal_Hbond>
0.0000

> <Gold.Chemscore.DEClash>
0.3173

> <Gold.Chemscore.DEInternal>
11.3565

> <Gold.Chemscore.Rot>
4.2456

> <Gold.Chemscore.Internal.Correction>
   9.000000E+99

> <Gold.Chemscore.Hbonds>
donor molecule, donor type, donor heavy atom, donor atom, acceptor molecule, acceptor atom, score
      L1  H    18    43       P1  7957  0.63
      P1  H  6931  6943       L1    32  1.00
      P1  H  6934  6947       L1    27  0.90
      P1  H  7989  7998       L1    13  0.36

> <Gold.Chemscore.Hbond.Weighted>
-12.2825

> <Gold.Chemscore.Metal.Weighted>
-0.0000

> <Gold.Chemscore.Lipo.Weighted>
-4.2815

> <Gold.Chemscore.Internal_Hbond.Weighted>
0.0000

> <Gold.Chemscore.DEClash.Weighted>
0.3173

> <Gold.Chemscore.DEInternal.Weighted>
11.3565

> <Gold.Chemscore.Rot.Weighted>
10.8687

> <Gold.Chemscore.Internal.Correction.Weighted>
   9.000000E+99

> <Gold.Protein.RotatedTorsions>
[ 6907 6896 6895 6894 ] final    2.25 input  -60.11 | X-H torsion
[ 7974 7965 7964 7962 ] final   90.88 input  175.53 | X-H torsion
[ 8008 7997 7996 7995 ] final   42.04 input   59.86 | X-H torsion
[ 10167 10162 10161 10158 ] final  -76.45 input  -65.29 | X-H torsion
[ 10718 10713 10712 10709 ] final   26.36 input   66.30 | X-H torsion
[ 10763 10752 10751 10750 ] final   17.02 input  -60.55 | X-H torsion
[ 11005 11000 10999 10996 ] final  136.30 input  -57.11 | X-H torsion

> <Gold.Protein.ActiveResidues>
 VAL166  LYS551  ARG553  GLY616  TRP617  ASP618  TYR619  PRO620  LYS621  CYS622 
 ASP623  PHE694  ASN695  SER759  ASP760  ASP761  ALA762  ILE779  LEU786  VAL792 
 PHE793  MET794  SER795  GLU796  ALA797  LYS798  CYS799  TRP800  GLU811  SER814 

> <Gold.Protein.RotatedAtoms>
  151.6058  135.1044  160.0070 H   0  0  0  0  0  0  0  0  0  0  0  0  # atno 6907 bound_to 6896
  152.4234  133.7150  159.6511 H   0  0  0  0  0  0  0  0  0  0  0  0  # atno 6908 bound_to 6896
  150.8122  133.8329  159.3199 H   0  0  0  0  0  0  0  0  0  0  0  0  # atno 6909 bound_to 6896
  145.5131  139.2277  143.2713 H   0  0  0  0  0  0  0  0  0  0  0  0  # atno 7974 bound_to 7965
  155.2795  140.3371  155.4259 H   0  0  0  0  0  0  0  0  0  0  0  0  # atno 8008 bound_to 7997
  156.2096  140.1764  156.7765 H   0  0  0  0  0  0  0  0  0  0  0  0  # atno 8009 bound_to 7997
  154.5668  140.0677  156.8888 H   0  0  0  0  0  0  0  0  0  0  0  0  # atno 8010 bound_to 7997
  140.4855  143.2392  151.7990 H   0  0  0  0  0  0  0  0  0  0  0  0  # atno 10167 bound_to 10162
  157.2057  130.6911  149.6207 H   0  0  0  0  0  0  0  0  0  0  0  0  # atno 10718 bound_to 10713
  153.1377  135.6753  153.9077 H   0  0  0  0  0  0  0  0  0  0  0  0  # atno 10763 bound_to 10752
  153.8543  135.3089  155.3435 H   0  0  0  0  0  0  0  0  0  0  0  0  # atno 10764 bound_to 10752
  154.7761  135.4913  153.9831 H   0  0  0  0  0  0  0  0  0  0  0  0  # atno 10765 bound_to 10752
  140.0037  134.9468  157.0128 H   0  0  0  0  0  0  0  0  0  0  0  0  # atno 11005 bound_to 11000
  146.2154  140.5939  142.9041 LP  0  0  0  0  0  0  0  0  0  0  0  0  # atno 17320 bound_to 7965
  144.7716  140.5651  143.6666 LP  0  0  0  0  0  0  0  0  0  0  0  0  # atno 17321 bound_to 7965
  139.4841  144.4717  151.9417 LP  0  0  0  0  0  0  0  0  0  0  0  0  # atno 17342 bound_to 10162
  140.3803  144.2745  150.5909 LP  0  0  0  0  0  0  0  0  0  0  0  0  # atno 17343 bound_to 10162
  155.9695  130.4568  150.5937 LP  0  0  0  0  0  0  0  0  0  0  0  0  # atno 17370 bound_to 10713
  157.3722  131.0767  151.1548 LP  0  0  0  0  0  0  0  0  0  0  0  0  # atno 17371 bound_to 10713
  140.4681  134.1415  155.7199 LP  0  0  0  0  0  0  0  0  0  0  0  0  # atno 17394 bound_to 11000
  141.1661  133.8700  157.1710 LP  0  0  0  0  0  0  0  0  0  0  0  0  # atno 17395 bound_to 11000

$$$$
