AV-unprocessed.smi:1830|AV-procd|sdf|7441|dock6
  -GOLD-   22720 9133D 1   1.00000     0.00000
 Structure written by MMmdl.
 52 55  0  0  0  0  0  0  0  0  1 V2000
  150.5807  134.6099  155.7856 O   0  0  0  0  0  0  0  0  0  0  0  0
  150.0657  135.0690  154.7660 C   0  0  0  0  0  0  0  0  0  0  0  0
  150.1969  136.3454  154.3810 N   0  0  0  0  0  0  0  0  0  0  0  0
  150.9471  137.3653  155.1048 C   0  0  0  0  0  0  0  0  0  0  0  0
  151.0591  138.6751  154.2948 C   0  0  1  0  0  0  0  0  0  0  0  0
  149.7584  139.5113  154.3308 C   0  0  0  0  0  0  0  0  0  0  0  0
  149.6047  140.1627  155.6182 N   0  0  0  0  0  0  0  0  0  0  0  0
  148.4768  141.0524  155.7667 C   0  0  0  0  0  0  0  0  0  0  0  0
  148.8048  141.8745  157.0247 C   0  0  0  0  0  0  0  0  0  0  0  0
  150.3355  141.7401  157.1838 C   0  0  0  0  0  0  0  0  0  0  0  0
  150.7448  140.9861  155.9169 C   0  0  1  0  0  0  0  0  0  0  0  0
  152.0246  140.1419  155.9790 C   0  0  0  0  0  0  0  0  0  0  0  0
  152.1794  139.4649  154.7275 O   0  0  0  0  0  0  0  0  0  0  0  0
  149.2896  134.3834  153.9104 N   0  0  0  0  0  0  0  0  0  0  0  0
  148.9140  133.0106  153.9601 C   0  0  0  0  0  0  0  0  0  0  0  0
  149.7154  132.0255  154.5875 C   0  0  0  0  0  0  0  0  0  0  0  0
  149.2865  130.6864  154.5844 C   0  0  0  0  0  0  0  0  0  0  0  0
  148.0740  130.3760  153.9451 C   0  0  0  0  0  0  0  0  0  0  0  0
  147.3082  131.2986  153.3286 N   0  0  0  0  0  0  0  0  0  0  0  0
  147.7102  132.5933  153.3301 C   0  0  0  0  0  0  0  0  0  0  0  0
  146.9036  133.5292  152.6493 N   0  0  0  0  0  0  0  0  0  0  0  0
  146.7579  133.2494  151.2235 C   0  0  0  0  0  0  0  0  0  0  0  0
  145.3316  133.6545  150.8474 C   0  0  0  0  0  0  0  0  0  0  0  0
  144.5672  133.4645  152.1513 C   0  0  0  0  0  0  0  0  0  0  0  0
  145.5961  133.8822  153.2008 C   0  0  0  0  0  0  0  0  0  0  0  0
  149.7321  136.6389  153.5343 H   0  0  0  0  0  0  0  0  0  0  0  0
  150.4720  137.5591  156.0680 H   0  0  0  0  0  0  0  0  0  0  0  0
  151.9340  136.9639  155.3337 H   0  0  0  0  0  0  0  0  0  0  0  0
  151.2485  138.4072  153.2547 H   0  0  0  0  0  0  0  0  0  0  0  0
  149.7944  140.2646  153.5425 H   0  0  0  0  0  0  0  0  0  0  0  0
  148.8935  138.8813  154.1207 H   0  0  0  0  0  0  0  0  0  0  0  0
  148.4019  141.7131  154.9014 H   0  0  0  0  0  0  0  0  0  0  0  0
  147.5391  140.5028  155.8559 H   0  0  0  0  0  0  0  0  0  0  0  0
  148.4940  142.9131  156.9080 H   0  0  0  0  0  0  0  0  0  0  0  0
  148.2955  141.4682  157.8995 H   0  0  0  0  0  0  0  0  0  0  0  0
  150.8365  142.7048  157.2681 H   0  0  0  0  0  0  0  0  0  0  0  0
  150.5701  141.1560  158.0747 H   0  0  0  0  0  0  0  0  0  0  0  0
  150.8659  141.7216  155.1185 H   0  0  0  0  0  0  0  0  0  0  0  0
  152.8945  140.7756  156.1520 H   0  0  0  0  0  0  0  0  0  0  0  0
  151.9844  139.4230  156.7980 H   0  0  0  0  0  0  0  0  0  0  0  0
  148.8526  134.9230  153.1777 H   0  0  0  0  0  0  0  0  0  0  0  0
  150.6556  132.2694  155.0571 H   0  0  0  0  0  0  0  0  0  0  0  0
  149.8765  129.9150  155.0568 H   0  0  0  0  0  0  0  0  0  0  0  0
  147.7130  129.3585  153.9203 H   0  0  0  0  0  0  0  0  0  0  0  0
  147.4938  133.7994  150.6368 H   0  0  0  0  0  0  0  0  0  0  0  0
  146.9057  132.1851  151.0320 H   0  0  0  0  0  0  0  0  0  0  0  0
  145.3085  134.7058  150.5574 H   0  0  0  0  0  0  0  0  0  0  0  0
  144.9264  133.0669  150.0231 H   0  0  0  0  0  0  0  0  0  0  0  0
  143.6488  134.0497  152.2001 H   0  0  0  0  0  0  0  0  0  0  0  0
  144.3090  132.4126  152.2808 H   0  0  0  0  0  0  0  0  0  0  0  0
  145.3822  133.4429  154.1751 H   0  0  0  0  0  0  0  0  0  0  0  0
  145.5744  134.9645  153.3315 H   0  0  0  0  0  0  0  0  0  0  0  0
  1  2  2  0  0  0  0
  2  3  1  0  0  0  0
  2 14  1  0  0  0  0
  3  4  1  0  0  0  0
  3 26  1  0  0  0  0
  4  5  1  0  0  0  0
  4 27  1  0  0  0  0
  4 28  1  0  0  0  0
  5 13  1  0  0  0  0
  5  6  1  0  0  0  0
  5 29  1  0  0  0  0
  6  7  1  0  0  0  0
  6 30  1  0  0  0  0
  6 31  1  0  0  0  0
  7 11  1  0  0  0  0
  7  8  1  0  0  0  0
  8  9  1  0  0  0  0
  8 32  1  0  0  0  0
  8 33  1  0  0  0  0
  9 10  1  0  0  0  0
  9 34  1  0  0  0  0
  9 35  1  0  0  0  0
 10 11  1  0  0  0  0
 10 36  1  0  0  0  0
 10 37  1  0  0  0  0
 11 12  1  0  0  0  0
 11 38  1  0  0  0  0
 12 13  1  0  0  0  0
 12 39  1  0  0  0  0
 12 40  1  0  0  0  0
 14 15  1  0  0  0  0
 14 41  1  0  0  0  0
 15 20  1  0  0  0  0
 15 16  2  0  0  0  0
 16 17  1  0  0  0  0
 16 42  1  0  0  0  0
 17 18  2  0  0  0  0
 17 43  1  0  0  0  0
 18 19  1  0  0  0  0
 18 44  1  0  0  0  0
 19 20  2  0  0  0  0
 20 21  1  0  0  0  0
 21 25  1  0  0  0  0
 21 22  1  0  0  0  0
 22 23  1  0  0  0  0
 22 45  1  0  0  0  0
 22 46  1  0  0  0  0
 23 24  1  0  0  0  0
 23 47  1  0  0  0  0
 23 48  1  0  0  0  0
 24 25  1  0  0  0  0
 24 49  1  0  0  0  0
 24 50  1  0  0  0  0
 25 51  1  0  0  0  0
 25 52  1  0  0  0  0
M  END
> <s_m_source_file>
AV-unprocessed.smi

> <i_m_source_file_index>
1830

> <i_lp_mmshare_version>
43012

> <i_f3d_flags>
0

> <s_epik_input>
W0NIMl0xW0NIMl1bQ0gyXVtDQEhdKE4xMilbQ0gyXU9bQ0BASF0oW0NIMl0yKVtDSDJdW05IXUMoPU8pW05IXWMzW2NIXVtjSF1bY0hdbmMzTjRbQ0gyXVtDSDJdW0NIMl1bQ0gyXTQ=

> <s_epik_cmdline>
J2VwaWtfcHl0aG9uJywgJy1waCcsICc3LjAnLCAnLXRuJywgJzgnLCAnLW1hJywgJzIwMCcsICctbWV0YWxfYmluZGluZycsICctaW1hZScsICc8aW5maWxlLm1hZT4nLCAnLW9tYWUnLCAnPG91dGZpbGUubWFlPic=

> <r_lp_tautomer_probability>
1

> <r_epik_Ionization_Penalty>
1.16487

> <r_epik_Ionization_Penalty_Charging>
0

> <r_epik_Ionization_Penalty_Neutral>
1.16487

> <r_epik_State_Penalty>
1.21807

> <r_epik_Charging_Adjusted_Penalty>
1.21807

> <i_epik_Tot_Q>
0

> <i_epik_Tot_abs_Q>
0

> <r_epik_Metal_State_Penalty>
1.19922

> <b_epik_Metal_Only>
0

> <s_lp_Force_Field>
OPLS_2005

> <r_lp_Energy>
78.6276

> <b_lp_Chiralities_Consistent>
1

> <s_lp_Variant>
AV-unprocessed.smi:1830-10

> <Gold.Version>
5.8.1

> <Gold.Id.Protein>
6NUR|6NUR_protein|mol2

> <Gold.PLP.Fitness>
48.1800

> <Gold.PLP.PLP>
-41.6657

> <Gold.PLP.part.hbond>
-3.9501

> <Gold.PLP.part.metal>
0.0000

> <Gold.PLP.part.buried>
-5.0459

> <Gold.PLP.part.nonpolar>
-33.1919

> <Gold.PLP.part.repulsive>
0.4492

> <Gold.PLP.ligand.clash>
0.0000

> <Gold.PLP.ligand.torsion>
0.4520

> <Gold.PLP.Chemscore.Hbond>
2.4272

> <Gold.PLP.Chemscore.CHOScore>
0.0000

> <Gold.PLP.Chemscore.Metal>
0.0000

> <Gold.Chemscore.Hbonds>
donor molecule, donor type, donor heavy atom, donor atom, acceptor molecule, acceptor atom, score
      L1  H     3    26       P1  7948  0.99
      L1  H    14    41       P1  7948  0.99
      P1  H  7989  7998       L1    13  0.41

> <Gold.PLP.Chemscore.Internal.Correction>
0.1367

> <Gold.Rescore>
     Score         DG    S(hbond)    S(metal)    S(lipo)     H(rot)  DE(clash)    DE(int)     intcor
     15.30     -17.13       1.35        0.00      91.25       1.37       0.08       1.75       ----

> <Gold.Chemscore.Fitness>
15.3038

> <Gold.Chemscore.DG>
-17.1342

> <Gold.Chemscore.ZeroCoef>
-5.4800

> <Gold.Chemscore.Hbond>
1.3463

> <Gold.Chemscore.Metal>
0.0000

> <Gold.Chemscore.Lipo>
91.2512

> <Gold.Chemscore.Internal_Hbond>
0.0000

> <Gold.Chemscore.DEClash>
0.0769

> <Gold.Chemscore.DEInternal>
1.7534

> <Gold.Chemscore.Rot>
1.3746

> <Gold.Chemscore.Internal.Correction>
   9.000000E+99

> <Gold.Chemscore.Hbonds>
donor molecule, donor type, donor heavy atom, donor atom, acceptor molecule, acceptor atom, score
      L1  H     3    26       P1  7948  0.42
      L1  H    14    41       P1  7948  0.28
      P1  H  7989  7998       L1    13  0.01

> <Gold.Chemscore.Hbond.Weighted>
-4.4966

> <Gold.Chemscore.Metal.Weighted>
-0.0000

> <Gold.Chemscore.Lipo.Weighted>
-10.6764

> <Gold.Chemscore.Internal_Hbond.Weighted>
0.0000

> <Gold.Chemscore.DEClash.Weighted>
0.0769

> <Gold.Chemscore.DEInternal.Weighted>
1.7534

> <Gold.Chemscore.Rot.Weighted>
3.5189

> <Gold.Chemscore.Internal.Correction.Weighted>
   9.000000E+99

> <Gold.Protein.RotatedTorsions>
[ 6907 6896 6895 6894 ] final  109.89 input  -60.11 | X-H torsion
[ 7974 7965 7964 7962 ] final -131.83 input  175.53 | X-H torsion
[ 8008 7997 7996 7995 ] final  -93.92 input   59.86 | X-H torsion
[ 10167 10162 10161 10158 ] final    3.64 input  -65.29 | X-H torsion
[ 10718 10713 10712 10709 ] final  -32.17 input   66.30 | X-H torsion
[ 10763 10752 10751 10750 ] final  -65.04 input  -60.55 | X-H torsion
[ 11005 11000 10999 10996 ] final   12.34 input  -57.11 | X-H torsion

> <Gold.Protein.ActiveResidues>
 VAL166  LYS551  ARG553  GLY616  TRP617  ASP618  TYR619  PRO620  LYS621  CYS622 
 ASP623  PHE694  ASN695  SER759  ASP760  ASP761  ALA762  ILE779  LEU786  VAL792 
 PHE793  MET794  SER795  GLU796  ALA797  LYS798  CYS799  TRP800  GLU811  SER814 

> <Gold.Protein.RotatedAtoms>
  152.5046  133.8880  159.7379 H   0  0  0  0  0  0  0  0  0  0  0  0  # atno 6907 bound_to 6896
  150.9325  133.6741  159.2814 H   0  0  0  0  0  0  0  0  0  0  0  0  # atno 6908 bound_to 6896
  151.4080  135.0985  159.9629 H   0  0  0  0  0  0  0  0  0  0  0  0  # atno 6909 bound_to 6896
  144.9343  140.7165  143.4886 H   0  0  0  0  0  0  0  0  0  0  0  0  # atno 7974 bound_to 7965
  154.7418  140.0494  157.0817 H   0  0  0  0  0  0  0  0  0  0  0  0  # atno 8008 bound_to 7997
  155.0169  140.3142  155.4789 H   0  0  0  0  0  0  0  0  0  0  0  0  # atno 8009 bound_to 7997
  156.2866  140.2174  156.5286 H   0  0  0  0  0  0  0  0  0  0  0  0  # atno 8010 bound_to 7997
  140.6576  143.7388  150.7680 H   0  0  0  0  0  0  0  0  0  0  0  0  # atno 10167 bound_to 10162
  156.3783  130.4351  149.7490 H   0  0  0  0  0  0  0  0  0  0  0  0  # atno 10718 bound_to 10713
  154.3390  135.6160  153.5587 H   0  0  0  0  0  0  0  0  0  0  0  0  # atno 10763 bound_to 10752
  152.9805  135.5765  154.4874 H   0  0  0  0  0  0  0  0  0  0  0  0  # atno 10764 bound_to 10752
  154.4575  135.2855  155.1714 H   0  0  0  0  0  0  0  0  0  0  0  0  # atno 10765 bound_to 10752
  140.4931  134.0820  155.7776 H   0  0  0  0  0  0  0  0  0  0  0  0  # atno 11005 bound_to 11000
  145.3092  139.1824  143.4648 LP  0  0  0  0  0  0  0  0  0  0  0  0  # atno 17320 bound_to 7965
  146.3260  140.3095  142.8626 LP  0  0  0  0  0  0  0  0  0  0  0  0  # atno 17321 bound_to 7965
  140.1051  143.4752  152.2403 LP  0  0  0  0  0  0  0  0  0  0  0  0  # atno 17342 bound_to 10162
  139.5802  144.7506  151.3661 LP  0  0  0  0  0  0  0  0  0  0  0  0  # atno 17343 bound_to 10162
  156.4590  130.7943  151.2963 LP  0  0  0  0  0  0  0  0  0  0  0  0  # atno 17370 bound_to 10713
  157.7490  131.0071  150.3179 LP  0  0  0  0  0  0  0  0  0  0  0  0  # atno 17371 bound_to 10713
  141.1474  133.9031  157.2182 LP  0  0  0  0  0  0  0  0  0  0  0  0  # atno 17394 bound_to 11000
  139.9757  135.0114  156.9626 LP  0  0  0  0  0  0  0  0  0  0  0  0  # atno 17395 bound_to 11000

$$$$
