AV-unprocessed.smi:3330|AV-procd|sdf|12804|dock9
  -GOLD-   2272019163D 1   1.00000     0.00000
 Structure written by MMmdl.
 39 40  0  0  0  0  0  0  0  0  2 V2000
  146.3011  139.0648  155.0127 C   0  0  0  0  0  0  0  0  0  0  0  0
  147.1733  139.1703  153.7505 C   0  0  1  0  0  0  0  0  0  0  0  0
  146.3257  138.8712  152.5719 N   0  3  0  0  0  0  0  0  0  0  0  0
  145.9945  137.4440  152.3847 C   0  0  0  0  0  0  0  0  0  0  0  0
  144.5728  137.1410  152.8783 C   0  0  0  0  0  0  0  0  0  0  0  0
  144.2606  135.7161  152.7453 N   0  0  0  0  0  0  0  0  0  0  0  0
  144.4697  134.9967  151.6354 C   0  0  0  0  0  0  0  0  0  0  0  0
  144.9488  135.3859  150.5711 O   0  0  0  0  0  0  0  0  0  0  0  0
  143.9967  133.5813  151.8860 C   0  0  0  0  0  0  0  0  0  0  0  0
  143.5248  133.7292  153.2464 N   0  0  0  0  0  0  0  0  0  0  0  0
  143.6875  134.9746  153.7110 C   0  0  0  0  0  0  0  0  0  0  0  0
  143.3548  135.3649  154.8291 O   0  0  0  0  0  0  0  0  0  0  0  0
  147.8477  140.5634  153.6066 C   0  0  1  0  0  0  0  0  0  0  0  0
  146.8759  141.7380  153.8295 C   0  0  0  0  0  0  0  0  0  0  0  0
  148.9971  140.6945  154.4963 N   0  0  0  0  0  0  0  0  0  0  0  0
  149.2388  141.6432  155.4713 C   0  0  0  0  0  0  0  0  0  0  0  0
  150.4197  141.3180  156.0745 C   0  0  0  0  0  0  0  0  0  0  0  0
  150.8297  140.1348  155.4001 C   0  0  0  0  0  0  0  0  0  0  0  0
  149.9734  139.7601  154.4638 N   0  0  0  0  0  0  0  0  0  0  0  0
  146.8930  139.1591  155.9230 H   0  0  0  0  0  0  0  0  0  0  0  0
  145.8009  138.0968  155.0613 H   0  0  0  0  0  0  0  0  0  0  0  0
  145.5316  139.8372  155.0310 H   0  0  0  0  0  0  0  0  0  0  0  0
  147.9498  138.4071  153.8298 H   0  0  0  0  0  0  0  0  0  0  0  0
  145.4585  139.3809  152.6622 H   0  0  0  0  0  0  0  0  0  0  0  0
  146.0763  137.1802  151.3308 H   0  0  0  0  0  0  0  0  0  0  0  0
  146.7233  136.8363  152.9221 H   0  0  0  0  0  0  0  0  0  0  0  0
  144.4618  137.4555  153.9176 H   0  0  0  0  0  0  0  0  0  0  0  0
  143.8490  137.7293  152.3109 H   0  0  0  0  0  0  0  0  0  0  0  0
  143.1906  133.2988  151.2085 H   0  0  0  0  0  0  0  0  0  0  0  0
  144.8155  132.8644  151.8193 H   0  0  0  0  0  0  0  0  0  0  0  0
  143.1124  132.9711  153.7709 H   0  0  0  0  0  0  0  0  0  0  0  0
  148.2202  140.6533  152.5840 H   0  0  0  0  0  0  0  0  0  0  0  0
  146.1160  141.7846  153.0502 H   0  0  0  0  0  0  0  0  0  0  0  0
  147.4042  142.6920  153.8119 H   0  0  0  0  0  0  0  0  0  0  0  0
  146.3641  141.6598  154.7892 H   0  0  0  0  0  0  0  0  0  0  0  0
  148.5566  142.4593  155.6584 H   0  0  0  0  0  0  0  0  0  0  0  0
  150.9137  141.8423  156.8790 H   0  0  0  0  0  0  0  0  0  0  0  0
  151.7137  139.5371  155.5667 H   0  0  0  0  0  0  0  0  0  0  0  0
  146.8083  139.2033  151.7486 H   0  0  0  0  0  0  0  0  0  0  0  0
  1  2  1  0  0  0  0
  1 20  1  0  0  0  0
  1 21  1  0  0  0  0
  1 22  1  0  0  0  0
  2  3  1  0  0  0  0
  2 13  1  0  0  0  0
  2 23  1  0  0  0  0
  3  4  1  0  0  0  0
  3 24  1  0  0  0  0
  3 39  1  0  0  0  0
  4  5  1  0  0  0  0
  4 25  1  0  0  0  0
  4 26  1  0  0  0  0
  5  6  1  0  0  0  0
  5 27  1  0  0  0  0
  5 28  1  0  0  0  0
  6 11  1  0  0  0  0
  6  7  1  0  0  0  0
  7  8  2  0  0  0  0
  7  9  1  0  0  0  0
  9 10  1  0  0  0  0
  9 29  1  0  0  0  0
  9 30  1  0  0  0  0
 10 11  1  0  0  0  0
 10 31  1  0  0  0  0
 11 12  2  0  0  0  0
 13 14  1  0  0  0  0
 13 15  1  0  0  0  0
 13 32  1  0  0  0  0
 14 33  1  0  0  0  0
 14 34  1  0  0  0  0
 14 35  1  0  0  0  0
 15 19  1  0  0  0  0
 15 16  1  0  0  0  0
 16 17  2  0  0  0  0
 16 36  1  0  0  0  0
 17 18  1  0  0  0  0
 17 37  1  0  0  0  0
 18 19  2  0  0  0  0
 18 38  1  0  0  0  0
M  CHG  1   3   1
M  END
> <s_m_source_file>
AV-unprocessed.smi

> <i_m_source_file_index>
3330

> <i_lp_mmshare_version>
43012

> <i_f3d_flags>
0

> <s_epik_input>
bjFbY0hdW2NIXVtjSF1uMVtDQEBIXShbQ0gzXSlbQ0BIXShbQ0gzXSlbTkhdW0NIMl1bQ0gyXU4yQyg9TylbQ0gyXVtOSF1DMj1P

> <s_epik_cmdline>
J2VwaWtfcHl0aG9uJywgJy1waCcsICc3LjAnLCAnLXRuJywgJzgnLCAnLW1hJywgJzIwMCcsICctbWV0YWxfYmluZGluZycsICctaW1hZScsICc8aW5maWxlLm1hZT4nLCAnLW9tYWUnLCAnPG91dGZpbGUubWFlPic=

> <r_lp_tautomer_probability>
1

> <r_epik_Ionization_Penalty>
0.0124905

> <r_epik_Ionization_Penalty_Charging>
0.0123685

> <r_epik_Ionization_Penalty_Neutral>
0.000122059

> <r_epik_State_Penalty>
0.00957041

> <r_epik_Charging_Adjusted_Penalty>
0.0219389

> <i_epik_Tot_Q>
1

> <i_epik_Tot_abs_Q>
1

> <r_epik_Metal_State_Penalty>
0.0858301

> <b_epik_Metal_Only>
0

> <s_lp_Force_Field>
OPLS_2005

> <r_lp_Energy>
25.1369

> <b_lp_Chiralities_Consistent>
1

> <s_lp_Variant>
AV-unprocessed.smi:3330-4

> <Gold.Version>
5.8.1

> <Gold.Id.Protein>
6NUR|6NUR_protein|mol2

> <Gold.PLP.Fitness>
42.6664

> <Gold.PLP.PLP>
-32.2023

> <Gold.PLP.part.hbond>
-2.7491

> <Gold.PLP.part.metal>
0.0000

> <Gold.PLP.part.buried>
-2.5707

> <Gold.PLP.part.nonpolar>
-29.2498

> <Gold.PLP.part.repulsive>
1.7194

> <Gold.PLP.ligand.clash>
0.0000

> <Gold.PLP.ligand.torsion>
0.8457

> <Gold.PLP.Chemscore.Hbond>
3.0000

> <Gold.PLP.Chemscore.CHOScore>
1.0000

> <Gold.PLP.Chemscore.Metal>
0.0000

> <Gold.Chemscore.Hbonds>
donor molecule, donor type, donor heavy atom, donor atom, acceptor molecule, acceptor atom, score
      L1  H     3    24       P1 10175  1.69
      L1  H    10    31       P1 10957  1.00
      L1  C    16    36       P1  8028  1.00

> <Gold.PLP.Chemscore.Internal.Correction>
0.1555

> <Gold.Rescore>
     Score         DG    S(hbond)    S(metal)    S(lipo)     H(rot)  DE(clash)    DE(int)     intcor
     11.19     -12.28       1.97        0.00      60.28       2.67       0.24       0.85       ----

> <Gold.Chemscore.Fitness>
11.1914

> <Gold.Chemscore.DG>
-12.2802

> <Gold.Chemscore.ZeroCoef>
-5.4800

> <Gold.Chemscore.Hbond>
1.9684

> <Gold.Chemscore.Metal>
0.0000

> <Gold.Chemscore.Lipo>
60.2768

> <Gold.Chemscore.Internal_Hbond>
0.0000

> <Gold.Chemscore.DEClash>
0.2390

> <Gold.Chemscore.DEInternal>
0.8498

> <Gold.Chemscore.Rot>
2.6666

> <Gold.Chemscore.Internal.Correction>
   9.000000E+99

> <Gold.Chemscore.Hbonds>
donor molecule, donor type, donor heavy atom, donor atom, acceptor molecule, acceptor atom, score
      L1  H     3    24       P1 10175  0.84
      L1  H    10    31       P1 10957  0.97

> <Gold.Chemscore.Hbond.Weighted>
-6.5743

> <Gold.Chemscore.Metal.Weighted>
-0.0000

> <Gold.Chemscore.Lipo.Weighted>
-7.0524

> <Gold.Chemscore.Internal_Hbond.Weighted>
0.0000

> <Gold.Chemscore.DEClash.Weighted>
0.2390

> <Gold.Chemscore.DEInternal.Weighted>
0.8498

> <Gold.Chemscore.Rot.Weighted>
6.8265

> <Gold.Chemscore.Internal.Correction.Weighted>
   9.000000E+99

> <Gold.Protein.RotatedTorsions>
[ 6907 6896 6895 6894 ] final  -53.32 input  -60.11 | X-H torsion
[ 7974 7965 7964 7962 ] final   57.73 input  175.53 | X-H torsion
[ 8008 7997 7996 7995 ] final -157.53 input   59.86 | X-H torsion
[ 10167 10162 10161 10158 ] final    9.54 input  -65.29 | X-H torsion
[ 10718 10713 10712 10709 ] final   62.76 input   66.30 | X-H torsion
[ 10763 10752 10751 10750 ] final -168.78 input  -60.55 | X-H torsion
[ 11005 11000 10999 10996 ] final   16.90 input  -57.11 | X-H torsion

> <Gold.Protein.ActiveResidues>
 VAL166  LYS551  ARG553  GLY616  TRP617  ASP618  TYR619  PRO620  LYS621  CYS622 
 ASP623  PHE694  ASN695  SER759  ASP760  ASP761  ALA762  ILE779  LEU786  VAL792 
 PHE793  MET794  SER795  GLU796  ALA797  LYS798  CYS799  TRP800  GLU811  SER814 

> <Gold.Protein.RotatedAtoms>
  150.8437  134.7739  159.6953 H   0  0  0  0  0  0  0  0  0  0  0  0  # atno 6907 bound_to 6896
  152.4519  134.5372  159.9838 H   0  0  0  0  0  0  0  0  0  0  0  0  # atno 6908 bound_to 6896
  151.5507  133.3380  159.2988 H   0  0  0  0  0  0  0  0  0  0  0  0  # atno 6909 bound_to 6896
  145.9259  139.3767  143.0450 H   0  0  0  0  0  0  0  0  0  0  0  0  # atno 7974 bound_to 7965
  155.7339  140.0805  157.2276 H   0  0  0  0  0  0  0  0  0  0  0  0  # atno 8008 bound_to 7997
  154.4029  140.1590  156.2594 H   0  0  0  0  0  0  0  0  0  0  0  0  # atno 8009 bound_to 7997
  155.9083  140.3405  155.6082 H   0  0  0  0  0  0  0  0  0  0  0  0  # atno 8010 bound_to 7997
  140.6249  143.8123  150.7221 H   0  0  0  0  0  0  0  0  0  0  0  0  # atno 10167 bound_to 10162
  157.5924  130.9068  149.9629 H   0  0  0  0  0  0  0  0  0  0  0  0  # atno 10718 bound_to 10713
  154.6593  135.2922  154.9887 H   0  0  0  0  0  0  0  0  0  0  0  0  # atno 10763 bound_to 10752
  154.0953  135.6585  153.4863 H   0  0  0  0  0  0  0  0  0  0  0  0  # atno 10764 bound_to 10752
  153.0420  135.5229  154.7536 H   0  0  0  0  0  0  0  0  0  0  0  0  # atno 10765 bound_to 10752
  140.4419  134.1313  155.7691 H   0  0  0  0  0  0  0  0  0  0  0  0  # atno 11005 bound_to 11000
  145.8489  140.9540  143.0760 LP  0  0  0  0  0  0  0  0  0  0  0  0  # atno 17320 bound_to 7965
  144.6758  140.0381  143.7481 LP  0  0  0  0  0  0  0  0  0  0  0  0  # atno 17321 bound_to 7965
  140.1722  143.4185  152.1993 LP  0  0  0  0  0  0  0  0  0  0  0  0  # atno 17342 bound_to 10162
  139.5471  144.7307  151.4550 LP  0  0  0  0  0  0  0  0  0  0  0  0  # atno 17343 bound_to 10162
  156.0980  130.3658  150.0270 LP  0  0  0  0  0  0  0  0  0  0  0  0  # atno 17370 bound_to 10713
  156.8390  130.9419  151.3633 LP  0  0  0  0  0  0  0  0  0  0  0  0  # atno 17371 bound_to 10713
  141.1702  133.8624  157.1595 LP  0  0  0  0  0  0  0  0  0  0  0  0  # atno 17394 bound_to 11000
  140.0064  135.0007  157.0301 LP  0  0  0  0  0  0  0  0  0  0  0  0  # atno 17395 bound_to 11000

$$$$
