AV-unprocessed.smi:79|AV-procd|sdf|780|dock9
  -GOLD-   2262017143D 1   1.00000     0.00000
 Structure written by MMmdl.
 56 59  0  0  0  0  0  0  0  0  2 V2000
  144.4166  132.5912  151.3187 C   0  0  0  0  0  0  0  0  0  0  0  0
  145.8072  133.0758  150.8828 C   0  0  1  0  0  0  0  0  0  0  0  0
  145.6582  134.3282  150.2483 O   0  0  0  0  0  0  0  0  0  0  0  0
  146.7871  133.2412  152.0618 C   0  0  0  0  0  0  0  0  0  0  0  0
  147.4625  131.9717  152.4341 N   0  3  1  0  0  0  0  0  0  0  0  0
  148.3931  132.1131  153.5873 C   0  0  0  0  0  0  0  0  0  0  0  0
  149.1065  130.7835  153.8981 C   0  0  0  0  0  0  0  0  0  0  0  0
  148.1396  129.7101  154.1016 N   0  0  0  0  0  0  0  0  0  0  0  0
  147.6990  129.6357  155.3839 C   0  0  0  0  0  0  0  0  0  0  0  0
  147.9677  128.5453  156.1490 N   0  0  0  0  0  0  0  0  0  0  0  0
  147.5087  128.4721  157.4019 C   0  0  0  0  0  0  0  0  0  0  0  0
  146.7698  129.3582  158.0721 N   0  0  0  0  0  0  0  0  0  0  0  0
  146.4902  130.4511  157.3054 C   0  0  0  0  0  0  0  0  0  0  0  0
  146.9074  130.6644  155.9621 C   0  0  0  0  0  0  0  0  0  0  0  0
  146.4273  131.8835  155.5021 N   0  0  0  0  0  0  0  0  0  0  0  0
  145.7681  132.3681  156.5194 C   0  0  0  0  0  0  0  0  0  0  0  0
  145.7647  131.5793  157.6485 N   0  0  0  0  0  0  0  0  0  0  0  0
  145.1168  131.8710  158.9180 C   0  0  0  0  0  0  0  0  0  0  0  0
  143.9285  130.9488  159.2686 C   0  0  0  0  0  0  0  0  0  0  0  0
  142.7713  131.1524  158.2729 C   0  0  0  0  0  0  0  0  0  0  0  0
  141.6646  130.3215  158.5627 O   0  0  0  0  0  0  0  0  0  0  0  0
  144.2717  129.4934  159.6238 C   0  0  0  0  0  0  0  0  0  0  0  0
  144.1412  129.7423  161.0390 O   0  0  0  0  0  0  0  0  0  0  0  0
  143.5254  131.0145  160.7496 C   0  0  0  0  0  0  0  0  0  0  0  0
  147.2185  129.5381  152.9720 C   0  0  1  0  0  0  0  0  0  0  0  0
  146.2659  128.3356  153.1162 C   0  0  0  0  0  0  0  0  0  0  0  0
  146.4958  130.8578  152.6221 C   0  0  0  0  0  0  0  0  0  0  0  0
  144.4679  131.6054  151.7809 H   0  0  0  0  0  0  0  0  0  0  0  0
  143.7426  132.5150  150.4646 H   0  0  0  0  0  0  0  0  0  0  0  0
  143.9640  133.2738  152.0390 H   0  0  0  0  0  0  0  0  0  0  0  0
  146.2134  132.3922  150.1381 H   0  0  0  0  0  0  0  0  0  0  0  0
  145.9185  134.2457  149.3433 H   0  0  0  0  0  0  0  0  0  0  0  0
  147.5441  133.9930  151.8312 H   0  0  0  0  0  0  0  0  0  0  0  0
  146.2313  133.6239  152.9193 H   0  0  0  0  0  0  0  0  0  0  0  0
  149.1435  132.8747  153.3810 H   0  0  0  0  0  0  0  0  0  0  0  0
  147.8359  132.4504  154.4628 H   0  0  0  0  0  0  0  0  0  0  0  0
  149.7581  130.5087  153.0681 H   0  0  0  0  0  0  0  0  0  0  0  0
  149.7547  130.9000  154.7680 H   0  0  0  0  0  0  0  0  0  0  0  0
  147.7707  127.5757  157.9446 H   0  0  0  0  0  0  0  0  0  0  0  0
  145.2631  133.3214  156.4704 H   0  0  0  0  0  0  0  0  0  0  0  0
  145.8806  131.8138  159.6946 H   0  0  0  0  0  0  0  0  0  0  0  0
  144.7939  132.9126  158.9051 H   0  0  0  0  0  0  0  0  0  0  0  0
  142.4123  132.1816  158.2999 H   0  0  0  0  0  0  0  0  0  0  0  0
  143.0956  130.9694  157.2481 H   0  0  0  0  0  0  0  0  0  0  0  0
  140.8819  130.7416  158.2402 H   0  0  0  0  0  0  0  0  0  0  0  0
  143.5376  128.7659  159.2740 H   0  0  0  0  0  0  0  0  0  0  0  0
  145.2800  129.1869  159.3484 H   0  0  0  0  0  0  0  0  0  0  0  0
  143.9862  131.8353  161.3005 H   0  0  0  0  0  0  0  0  0  0  0  0
  142.4489  130.9899  160.9261 H   0  0  0  0  0  0  0  0  0  0  0  0
  147.8605  129.3006  152.1227 H   0  0  0  0  0  0  0  0  0  0  0  0
  145.7260  128.1605  152.1855 H   0  0  0  0  0  0  0  0  0  0  0  0
  145.5192  128.4827  153.8956 H   0  0  0  0  0  0  0  0  0  0  0  0
  146.8183  127.4247  153.3491 H   0  0  0  0  0  0  0  0  0  0  0  0
  145.7767  131.1290  153.3955 H   0  0  0  0  0  0  0  0  0  0  0  0
  145.9244  130.7206  151.7031 H   0  0  0  0  0  0  0  0  0  0  0  0
  148.0285  131.7082  151.6403 H   0  0  0  0  0  0  0  0  0  0  0  0
  1  2  1  0  0  0  0
  1 28  1  0  0  0  0
  1 29  1  0  0  0  0
  1 30  1  0  0  0  0
  2  3  1  0  0  0  0
  2  4  1  0  0  0  0
  2 31  1  0  0  0  0
  3 32  1  0  0  0  0
  4  5  1  0  0  0  0
  4 33  1  0  0  0  0
  4 34  1  0  0  0  0
  5 27  1  0  0  0  0
  5  6  1  0  0  0  0
  5 56  1  0  0  0  0
  6  7  1  0  0  0  0
  6 35  1  0  0  0  0
  6 36  1  0  0  0  0
  7  8  1  0  0  0  0
  7 37  1  0  0  0  0
  7 38  1  0  0  0  0
  8  9  1  0  0  0  0
  8 25  1  0  0  0  0
  9 14  1  0  0  0  0
  9 10  2  0  0  0  0
 10 11  1  0  0  0  0
 11 12  2  0  0  0  0
 11 39  1  0  0  0  0
 12 13  1  0  0  0  0
 13 17  1  0  0  0  0
 13 14  2  0  0  0  0
 14 15  1  0  0  0  0
 15 16  2  0  0  0  0
 16 17  1  0  0  0  0
 16 40  1  0  0  0  0
 17 18  1  0  0  0  0
 18 19  1  0  0  0  0
 18 41  1  0  0  0  0
 18 42  1  0  0  0  0
 19 24  1  0  0  0  0
 19 20  1  0  0  0  0
 19 22  1  0  0  0  0
 20 21  1  0  0  0  0
 20 43  1  0  0  0  0
 20 44  1  0  0  0  0
 21 45  1  0  0  0  0
 22 23  1  0  0  0  0
 22 46  1  0  0  0  0
 22 47  1  0  0  0  0
 23 24  1  0  0  0  0
 24 48  1  0  0  0  0
 24 49  1  0  0  0  0
 25 26  1  0  0  0  0
 25 27  1  0  0  0  0
 25 50  1  0  0  0  0
 26 51  1  0  0  0  0
 26 52  1  0  0  0  0
 26 53  1  0  0  0  0
 27 54  1  0  0  0  0
 27 55  1  0  0  0  0
M  CHG  1   5   1
M  END
> <s_m_source_file>
AV-unprocessed.smi

> <i_m_source_file_index>
79

> <i_lp_mmshare_version>
43012

> <i_f3d_flags>
0

> <s_epik_input>
W0NIM11bQ0BIXShbT0hdKVtDSDJdTjFbQ0gyXVtDSDJdTihbQ0BASF0oW0NIM10pW0NIMl0xKWMobltjSF1uMiljKGMyMyluW2NIXW4zW0NIMl1DNChbQ0gyXVtPSF0pW0NIMl1PW0NIMl00

> <s_epik_cmdline>
J2VwaWtfcHl0aG9uJywgJy1waCcsICc3LjAnLCAnLXRuJywgJzgnLCAnLW1hJywgJzIwMCcsICctbWV0YWxfYmluZGluZycsICctaW1hZScsICc8aW5maWxlLm1hZT4nLCAnLW9tYWUnLCAnPG91dGZpbGUubWFlPic=

> <r_lp_tautomer_probability>
1

> <r_epik_Ionization_Penalty>
0.00515943

> <r_epik_Ionization_Penalty_Charging>
0.00509693

> <r_epik_Ionization_Penalty_Neutral>
6.25007e-05

> <r_epik_State_Penalty>
-0

> <r_epik_Charging_Adjusted_Penalty>
0.00509693

> <i_epik_Tot_Q>
1

> <i_epik_Tot_abs_Q>
1

> <r_epik_Metal_State_Penalty>
-0

> <b_epik_Metal_Only>
0

> <s_lp_Force_Field>
OPLS_2005

> <r_lp_Energy>
48.5729

> <b_lp_Chiralities_Consistent>
1

> <s_lp_Variant>
AV-unprocessed.smi:79-4

> <Gold.Version>
5.8.1

> <Gold.Id.Protein>
6NUR|6NUR_protein|mol2

> <Gold.PLP.Fitness>
39.1878

> <Gold.PLP.PLP>
-30.8131

> <Gold.PLP.part.hbond>
-3.0000

> <Gold.PLP.part.metal>
0.0000

> <Gold.PLP.part.buried>
-5.9672

> <Gold.PLP.part.nonpolar>
-22.1793

> <Gold.PLP.part.repulsive>
0.3738

> <Gold.PLP.ligand.clash>
0.0000

> <Gold.PLP.ligand.torsion>
0.7089

> <Gold.PLP.Chemscore.Hbond>
3.0000

> <Gold.PLP.Chemscore.CHOScore>
0.0000

> <Gold.PLP.Chemscore.Metal>
0.0000

> <Gold.Chemscore.Hbonds>
donor molecule, donor type, donor heavy atom, donor atom, acceptor molecule, acceptor atom, score
      L1  H     3    32       P1  7921  1.00
      L1  H     5    56       P1 10747  1.00

> <Gold.PLP.Chemscore.Internal.Correction>
0.7925

> <Gold.Rescore>
     Score         DG    S(hbond)    S(metal)    S(lipo)     H(rot)  DE(clash)    DE(int)     intcor
      9.30     -13.83       2.72        0.00      75.12       3.72       0.09       4.44       ----

> <Gold.Chemscore.Fitness>
9.2990

> <Gold.Chemscore.DG>
-13.8278

> <Gold.Chemscore.ZeroCoef>
-5.4800

> <Gold.Chemscore.Hbond>
2.7212

> <Gold.Chemscore.Metal>
0.0000

> <Gold.Chemscore.Lipo>
75.1178

> <Gold.Chemscore.Internal_Hbond>
0.0000

> <Gold.Chemscore.DEClash>
0.0926

> <Gold.Chemscore.DEInternal>
4.4363

> <Gold.Chemscore.Rot>
3.7226

> <Gold.Chemscore.Internal.Correction>
   9.000000E+99

> <Gold.Chemscore.Hbonds>
donor molecule, donor type, donor heavy atom, donor atom, acceptor molecule, acceptor atom, score
      L1  H     3    32       P1  7921  0.39
      L1  H     5    56       P1 10747  1.00
      L1  H    21    45       P1 10998  0.03

> <Gold.Chemscore.Hbond.Weighted>
-9.0888

> <Gold.Chemscore.Metal.Weighted>
-0.0000

> <Gold.Chemscore.Lipo.Weighted>
-8.7888

> <Gold.Chemscore.Internal_Hbond.Weighted>
0.0000

> <Gold.Chemscore.DEClash.Weighted>
0.0926

> <Gold.Chemscore.DEInternal.Weighted>
4.4363

> <Gold.Chemscore.Rot.Weighted>
9.5298

> <Gold.Chemscore.Internal.Correction.Weighted>
   9.000000E+99

> <Gold.Protein.RotatedTorsions>
[ 6907 6896 6895 6894 ] final   12.59 input  -60.11 | X-H torsion
[ 7974 7965 7964 7962 ] final  -78.69 input  175.53 | X-H torsion
[ 8008 7997 7996 7995 ] final  -64.37 input   59.86 | X-H torsion
[ 10167 10162 10161 10158 ] final -111.71 input  -65.29 | X-H torsion
[ 10718 10713 10712 10709 ] final  -80.47 input   66.30 | X-H torsion
[ 10763 10752 10751 10750 ] final  129.77 input  -60.55 | X-H torsion
[ 11005 11000 10999 10996 ] final   75.31 input  -57.11 | X-H torsion

> <Gold.Protein.ActiveResidues>
 VAL166  LYS551  ARG553  GLY616  TRP617  ASP618  TYR619  PRO620  LYS621  CYS622 
 ASP623  PHE694  ASN695  SER759  ASP760  ASP761  ALA762  ILE779  LEU786  VAL792 
 PHE793  MET794  SER795  GLU796  ALA797  LYS798  CYS799  TRP800  GLU811  SER814 

> <Gold.Protein.RotatedAtoms>
  151.7727  135.0782  160.0362 H   0  0  0  0  0  0  0  0  0  0  0  0  # atno 6907 bound_to 6896
  152.3277  133.5919  159.5796 H   0  0  0  0  0  0  0  0  0  0  0  0  # atno 6908 bound_to 6896
  150.7405  133.9831  159.3624 H   0  0  0  0  0  0  0  0  0  0  0  0  # atno 6909 bound_to 6896
  145.5831  140.9444  143.1333 H   0  0  0  0  0  0  0  0  0  0  0  0  # atno 7974 bound_to 7965
  154.4608  140.0955  156.6886 H   0  0  0  0  0  0  0  0  0  0  0  0  # atno 8008 bound_to 7997
  155.5001  140.3473  155.4351 H   0  0  0  0  0  0  0  0  0  0  0  0  # atno 8009 bound_to 7997
  156.0866  140.1386  156.9635 H   0  0  0  0  0  0  0  0  0  0  0  0  # atno 8010 bound_to 7997
  140.1307  143.4363  152.1629 H   0  0  0  0  0  0  0  0  0  0  0  0  # atno 10167 bound_to 10162
  156.0069  130.4575  150.3805 H   0  0  0  0  0  0  0  0  0  0  0  0  # atno 10718 bound_to 10713
  153.7471  135.3215  155.3314 H   0  0  0  0  0  0  0  0  0  0  0  0  # atno 10763 bound_to 10752
  154.8276  135.4558  154.0969 H   0  0  0  0  0  0  0  0  0  0  0  0  # atno 10764 bound_to 10752
  153.2161  135.6942  153.8138 H   0  0  0  0  0  0  0  0  0  0  0  0  # atno 10765 bound_to 10752
  139.9350  134.7506  156.1255 H   0  0  0  0  0  0  0  0  0  0  0  0  # atno 11005 bound_to 11000
  144.7385  139.7517  143.7320 LP  0  0  0  0  0  0  0  0  0  0  0  0  # atno 17320 bound_to 7965
  146.1702  139.4849  142.9932 LP  0  0  0  0  0  0  0  0  0  0  0  0  # atno 17321 bound_to 7965
  139.5521  144.7345  151.4403 LP  0  0  0  0  0  0  0  0  0  0  0  0  # atno 17342 bound_to 10162
  140.6819  143.8063  150.7133 LP  0  0  0  0  0  0  0  0  0  0  0  0  # atno 17343 bound_to 10162
  157.1885  131.0409  151.2712 LP  0  0  0  0  0  0  0  0  0  0  0  0  # atno 17370 bound_to 10713
  157.4082  130.7370  149.6818 LP  0  0  0  0  0  0  0  0  0  0  0  0  # atno 17371 bound_to 10713
  141.0959  133.6696  156.2643 LP  0  0  0  0  0  0  0  0  0  0  0  0  # atno 17394 bound_to 11000
  140.6100  134.5468  157.5532 LP  0  0  0  0  0  0  0  0  0  0  0  0  # atno 17395 bound_to 11000

$$$$
