AV-unprocessed.smi:2746|AV-procd|sdf|10576|dock4
  -GOLD-   2272015 33D 1   1.00000     0.00000
 Structure written by MMmdl.
 38 39  0  0  0  0  0  0  0  0  3 V2000
  142.7516  136.2676  152.8986 C   0  0  0  0  0  0  0  0  0  0  0  0
  143.9752  135.7621  153.1269 C   0  0  0  0  0  0  0  0  0  0  0  0
  145.2666  136.2759  152.5140 C   0  0  1  0  0  0  0  0  0  0  0  0
  145.3003  135.9636  151.0115 C   0  0  0  0  0  0  0  0  0  0  0  0
  145.4795  137.7118  152.6934 N   0  5  0  0  0  0  0  0  0  0  0  0
  146.4392  138.4359  152.0451 C   0  0  0  0  0  0  0  0  0  0  0  0
  146.8002  138.3713  150.8645 O   0  0  0  0  0  0  0  0  0  0  0  0
  147.1217  139.4443  152.9392 C   0  0  0  0  0  0  0  0  0  0  0  0
  148.4590  139.2636  153.3661 C   0  0  0  0  0  0  0  0  0  0  0  0
  149.0711  140.2275  154.2019 C   0  0  0  0  0  0  0  0  0  0  0  0
  150.3939  140.0914  154.6449 N   0  0  0  0  0  0  0  0  0  0  0  0
  150.6112  140.5911  155.9969 C   0  0  0  0  0  0  0  0  0  0  0  0
  152.1066  140.5148  156.3507 C   0  0  0  0  0  0  0  0  0  0  0  0
  152.5677  139.1766  156.1871 O   0  0  0  0  0  0  0  0  0  0  0  0
  152.4195  138.7191  154.8457 C   0  0  0  0  0  0  0  0  0  0  0  0
  150.9327  138.7511  154.4506 C   0  0  0  0  0  0  0  0  0  0  0  0
  148.3271  141.3592  154.5966 C   0  0  0  0  0  0  0  0  0  0  0  0
  146.9996  141.4986  154.1489 C   0  0  0  0  0  0  0  0  0  0  0  0
  146.4589  140.5537  153.3518 N   0  3  0  0  0  0  0  0  0  0  0  0
  142.5862  137.1071  152.2371 H   0  0  0  0  0  0  0  0  0  0  0  0
  141.8854  135.8381  153.3794 H   0  0  0  0  0  0  0  0  0  0  0  0
  144.0725  134.9201  153.7964 H   0  0  0  0  0  0  0  0  0  0  0  0
  146.0802  135.7073  152.9683 H   0  0  0  0  0  0  0  0  0  0  0  0
  145.1866  134.8942  150.8322 H   0  0  0  0  0  0  0  0  0  0  0  0
  146.2476  136.2690  150.5653 H   0  0  0  0  0  0  0  0  0  0  0  0
  144.4988  136.4759  150.4773 H   0  0  0  0  0  0  0  0  0  0  0  0
  149.0163  138.3925  153.0533 H   0  0  0  0  0  0  0  0  0  0  0  0
  150.2606  141.6211  156.0720 H   0  0  0  0  0  0  0  0  0  0  0  0
  150.0348  140.0004  156.7099 H   0  0  0  0  0  0  0  0  0  0  0  0
  152.6900  141.1913  155.7243 H   0  0  0  0  0  0  0  0  0  0  0  0
  152.2650  140.8213  157.3846 H   0  0  0  0  0  0  0  0  0  0  0  0
  153.0148  139.3371  154.1715 H   0  0  0  0  0  0  0  0  0  0  0  0
  152.8067  137.7029  154.7720 H   0  0  0  0  0  0  0  0  0  0  0  0
  150.3752  138.0354  155.0564 H   0  0  0  0  0  0  0  0  0  0  0  0
  150.8164  138.4519  153.4081 H   0  0  0  0  0  0  0  0  0  0  0  0
  148.7677  142.1122  155.2337 H   0  0  0  0  0  0  0  0  0  0  0  0
  146.3577  142.3300  154.4001 H   0  0  0  0  0  0  0  0  0  0  0  0
  145.4959  140.6677  153.0319 H   0  0  0  0  0  0  0  0  0  0  0  0
  1  2  2  0  0  0  0
  1 20  1  0  0  0  0
  1 21  1  0  0  0  0
  2  3  1  0  0  0  0
  2 22  1  0  0  0  0
  3  4  1  0  0  0  0
  3  5  1  0  0  0  0
  3 23  1  0  0  0  0
  4 24  1  0  0  0  0
  4 25  1  0  0  0  0
  4 26  1  0  0  0  0
  5  6  1  0  0  0  0
  6  7  2  0  0  0  0
  6  8  1  0  0  0  0
  8 19  1  0  0  0  0
  8  9  2  0  0  0  0
  9 10  1  0  0  0  0
  9 27  1  0  0  0  0
 10 11  1  0  0  0  0
 10 17  2  0  0  0  0
 11 16  1  0  0  0  0
 11 12  1  0  0  0  0
 12 13  1  0  0  0  0
 12 28  1  0  0  0  0
 12 29  1  0  0  0  0
 13 14  1  0  0  0  0
 13 30  1  0  0  0  0
 13 31  1  0  0  0  0
 14 15  1  0  0  0  0
 15 16  1  0  0  0  0
 15 32  1  0  0  0  0
 15 33  1  0  0  0  0
 16 34  1  0  0  0  0
 16 35  1  0  0  0  0
 17 18  1  0  0  0  0
 17 36  1  0  0  0  0
 18 19  2  0  0  0  0
 18 37  1  0  0  0  0
 19 38  1  0  0  0  0
M  CHG  1   5  -1
M  CHG  1  19   1
M  END
> <s_m_source_file>
AV-unprocessed.smi

> <i_m_source_file_index>
2746

> <i_lp_mmshare_version>
43012

> <i_f3d_flags>
0

> <s_epik_input>
W0NIMl09W0NIXVtDQEhdKFtDSDNdKVtOSF1DKD1PKWMxW2NIXWMoW2NIXVtjSF1uMSlOMltDSDJdW0NIMl1PW0NIMl1bQ0gyXTI=

> <s_epik_cmdline>
J2VwaWtfcHl0aG9uJywgJy1waCcsICc3LjAnLCAnLXRuJywgJzgnLCAnLW1hJywgJzIwMCcsICctbWV0YWxfYmluZGluZycsICctaW1hZScsICc8aW5maWxlLm1hZT4nLCAnLW9tYWUnLCAnPG91dGZpbGUubWFlPic=

> <r_lp_tautomer_probability>
1

> <r_epik_Ionization_Penalty>
4.23471

> <r_epik_Ionization_Penalty_Charging>
4.23471

> <r_epik_Ionization_Penalty_Neutral>
3.18831e-12

> <r_epik_State_Penalty>
4.68748

> <r_epik_Charging_Adjusted_Penalty>
8.92219

> <i_epik_Tot_Q>
0

> <i_epik_Tot_abs_Q>
2

> <r_epik_Metal_State_Penalty>
1.16626

> <b_epik_Metal_Only>
1

> <s_lp_Force_Field>
OPLS_2005

> <r_lp_Energy>
17.3094

> <b_lp_Chiralities_Consistent>
1

> <s_lp_Variant>
AV-unprocessed.smi:2746-6

> <Gold.Version>
5.8.1

> <Gold.Id.Protein>
6NUR|6NUR_protein|mol2

> <Gold.PLP.Fitness>
41.4122

> <Gold.PLP.PLP>
-34.7831

> <Gold.PLP.part.hbond>
-4.0000

> <Gold.PLP.part.metal>
0.0000

> <Gold.PLP.part.buried>
-0.6310

> <Gold.PLP.part.nonpolar>
-31.9691

> <Gold.PLP.part.repulsive>
0.8601

> <Gold.PLP.ligand.clash>
0.0278

> <Gold.PLP.ligand.torsion>
2.4158

> <Gold.PLP.Chemscore.Hbond>
3.7627

> <Gold.PLP.Chemscore.CHOScore>
0.0000

> <Gold.PLP.Chemscore.Metal>
0.0000

> <Gold.Chemscore.Hbonds>
donor molecule, donor type, donor heavy atom, donor atom, acceptor molecule, acceptor atom, score
      L1  H    19    38       P1 10175  2.00
      P1  H  7954  7966       L1     7  1.00
      P1  H  7989  7998       L1    11  0.70
      P1  H  7997  8009       L1    14  0.06

> <Gold.PLP.Chemscore.Internal.Correction>
0.2004

> <Gold.Rescore>
     Score         DG    S(hbond)    S(metal)    S(lipo)     H(rot)  DE(clash)    DE(int)     intcor
     13.52     -18.12       1.95        0.00      80.30       1.27       1.41       3.19       ----

> <Gold.Chemscore.Fitness>
13.5189

> <Gold.Chemscore.DG>
-18.1233

> <Gold.Chemscore.ZeroCoef>
-5.4800

> <Gold.Chemscore.Hbond>
1.9492

> <Gold.Chemscore.Metal>
0.0000

> <Gold.Chemscore.Lipo>
80.2996

> <Gold.Chemscore.Internal_Hbond>
0.0000

> <Gold.Chemscore.DEClash>
1.4150

> <Gold.Chemscore.DEInternal>
3.1894

> <Gold.Chemscore.Rot>
1.2742

> <Gold.Chemscore.Internal.Correction>
   9.000000E+99

> <Gold.Chemscore.Hbonds>
donor molecule, donor type, donor heavy atom, donor atom, acceptor molecule, acceptor atom, score
      L1  H    19    38       P1 10175  0.74
      P1  H  7954  7966       L1     7  0.96
      P1  H  7989  7998       L1    11  0.05

> <Gold.Chemscore.Hbond.Weighted>
-6.5102

> <Gold.Chemscore.Metal.Weighted>
-0.0000

> <Gold.Chemscore.Lipo.Weighted>
-9.3951

> <Gold.Chemscore.Internal_Hbond.Weighted>
0.0000

> <Gold.Chemscore.DEClash.Weighted>
1.4150

> <Gold.Chemscore.DEInternal.Weighted>
3.1894

> <Gold.Chemscore.Rot.Weighted>
3.2619

> <Gold.Chemscore.Internal.Correction.Weighted>
   9.000000E+99

> <Gold.Protein.RotatedTorsions>
[ 6907 6896 6895 6894 ] final  -73.25 input  -60.11 | X-H torsion
[ 7974 7965 7964 7962 ] final   63.82 input  175.53 | X-H torsion
[ 8008 7997 7996 7995 ] final -137.87 input   59.86 | X-H torsion
[ 10167 10162 10161 10158 ] final -160.84 input  -65.29 | X-H torsion
[ 10718 10713 10712 10709 ] final  -74.37 input   66.30 | X-H torsion
[ 10763 10752 10751 10750 ] final -154.42 input  -60.55 | X-H torsion
[ 11005 11000 10999 10996 ] final  -13.24 input  -57.11 | X-H torsion

> <Gold.Protein.ActiveResidues>
 VAL166  LYS551  ARG553  GLY616  TRP617  ASP618  TYR619  PRO620  LYS621  CYS622 
 ASP623  PHE694  ASN695  SER759  ASP760  ASP761  ALA762  ILE779  LEU786  VAL792 
 PHE793  MET794  SER795  GLU796  ALA797  LYS798  CYS799  TRP800  GLU811  SER814 

> <Gold.Protein.RotatedAtoms>
  150.7137  134.5043  159.5576 H   0  0  0  0  0  0  0  0  0  0  0  0  # atno 6907 bound_to 6896
  152.2634  134.8007  160.0436 H   0  0  0  0  0  0  0  0  0  0  0  0  # atno 6908 bound_to 6896
  151.8713  133.3441  159.3772 H   0  0  0  0  0  0  0  0  0  0  0  0  # atno 6909 bound_to 6896
  145.8573  139.3292  143.0839 H   0  0  0  0  0  0  0  0  0  0  0  0  # atno 7974 bound_to 7965
  155.4190  140.0517  157.3027 H   0  0  0  0  0  0  0  0  0  0  0  0  # atno 8008 bound_to 7997
  154.4911  140.2120  155.9506 H   0  0  0  0  0  0  0  0  0  0  0  0  # atno 8009 bound_to 7997
  156.1343  140.3166  155.8402 H   0  0  0  0  0  0  0  0  0  0  0  0  # atno 8010 bound_to 7997
  139.6509  144.0085  152.2161 H   0  0  0  0  0  0  0  0  0  0  0  0  # atno 10167 bound_to 10162
  156.0245  130.4415  150.2882 H   0  0  0  0  0  0  0  0  0  0  0  0  # atno 10718 bound_to 10713
  154.7860  135.3190  154.7886 H   0  0  0  0  0  0  0  0  0  0  0  0  # atno 10763 bound_to 10752
  153.8586  135.6855  153.4789 H   0  0  0  0  0  0  0  0  0  0  0  0  # atno 10764 bound_to 10752
  153.1511  135.4699  154.9577 H   0  0  0  0  0  0  0  0  0  0  0  0  # atno 10765 bound_to 10752
  140.7741  133.8415  155.9233 H   0  0  0  0  0  0  0  0  0  0  0  0  # atno 11005 bound_to 11000
  145.9288  140.9063  143.0367 LP  0  0  0  0  0  0  0  0  0  0  0  0  # atno 17320 bound_to 7965
  144.6727  140.1390  143.7438 LP  0  0  0  0  0  0  0  0  0  0  0  0  # atno 17321 bound_to 7965
  139.9799  144.6435  150.7910 LP  0  0  0  0  0  0  0  0  0  0  0  0  # atno 17342 bound_to 10162
  140.7537  143.3013  151.3072 LP  0  0  0  0  0  0  0  0  0  0  0  0  # atno 17343 bound_to 10162
  157.0986  131.0189  151.3094 LP  0  0  0  0  0  0  0  0  0  0  0  0  # atno 17370 bound_to 10713
  157.4798  130.7758  149.7403 LP  0  0  0  0  0  0  0  0  0  0  0  0  # atno 17371 bound_to 10713
  140.9546  134.1735  157.4702 LP  0  0  0  0  0  0  0  0  0  0  0  0  # atno 17394 bound_to 11000
  139.8751  134.9922  156.5585 LP  0  0  0  0  0  0  0  0  0  0  0  0  # atno 17395 bound_to 11000

$$$$
