AV-unprocessed.smi:1042|AV-procd|sdf|4536|dock2
  -GOLD-   22720 2563D 1   1.00000     0.00000
 Structure written by MMmdl.
 40 42  0  0  0  0  0  0  0  0  2 V2000
  150.9070  135.5046  155.8680 O   0  0  0  0  0  0  0  0  0  0  0  0
  150.3078  135.7848  154.8294 C   0  0  0  0  0  0  0  0  0  0  0  0
  149.6680  134.8763  154.0783 N   0  0  0  0  0  0  0  0  0  0  0  0
  149.5822  133.4477  154.3680 C   0  0  0  0  0  0  0  0  0  0  0  0
  148.9084  132.6645  153.2245 C   0  0  2  0  0  0  0  0  0  0  0  0
  147.4624  133.0606  152.9233 C   0  0  0  0  0  0  0  0  0  0  0  0
  146.8740  131.8361  152.2148 C   0  0  0  0  0  0  0  0  0  0  0  0
  147.7397  130.6853  152.5621 N   0  3  2  0  0  0  0  0  0  0  0  0
  147.0035  129.4950  153.0381 C   0  0  0  0  0  0  0  0  0  0  0  0
  147.4932  128.2008  152.4345 C   0  0  0  0  0  0  0  0  0  0  0  0
  146.1934  128.8149  151.9608 C   0  0  0  0  0  0  0  0  0  0  0  0
  148.7708  131.1679  153.5042 C   0  0  0  0  0  0  0  0  0  0  0  0
  150.1995  137.0168  154.3014 N   0  0  0  0  0  0  0  0  0  0  0  0
  150.6929  138.2421  154.8240 C   0  0  0  0  0  0  0  0  0  0  0  0
  149.8257  139.3482  154.6767 C   0  0  0  0  0  0  0  0  0  0  0  0
  150.2197  140.6081  155.1675 C   0  0  0  0  0  0  0  0  0  0  0  0
  151.4731  140.7301  155.7931 C   0  0  0  0  0  0  0  0  0  0  0  0
  152.2759  139.5794  155.8986 C   0  0  0  0  0  0  0  0  0  0  0  0
  151.8998  138.3705  155.4301 N   0  0  0  0  0  0  0  0  0  0  0  0
  149.2068  135.1966  153.2392 H   0  0  0  0  0  0  0  0  0  0  0  0
  150.5984  133.0795  154.5101 H   0  0  0  0  0  0  0  0  0  0  0  0
  149.0633  133.2750  155.3126 H   0  0  0  0  0  0  0  0  0  0  0  0
  149.4960  132.7876  152.3128 H   0  0  0  0  0  0  0  0  0  0  0  0
  146.9218  133.2323  153.8552 H   0  0  0  0  0  0  0  0  0  0  0  0
  147.3869  133.9680  152.3234 H   0  0  0  0  0  0  0  0  0  0  0  0
  145.8341  131.6778  152.5048 H   0  0  0  0  0  0  0  0  0  0  0  0
  146.8975  131.9686  151.1329 H   0  0  0  0  0  0  0  0  0  0  0  0
  146.6403  129.5265  154.0640 H   0  0  0  0  0  0  0  0  0  0  0  0
  148.3432  128.2374  151.7553 H   0  0  0  0  0  0  0  0  0  0  0  0
  147.4269  127.3047  153.0481 H   0  0  0  0  0  0  0  0  0  0  0  0
  145.2711  128.3223  152.2620 H   0  0  0  0  0  0  0  0  0  0  0  0
  146.1793  129.2608  150.9681 H   0  0  0  0  0  0  0  0  0  0  0  0
  149.7102  130.6293  153.3757 H   0  0  0  0  0  0  0  0  0  0  0  0
  148.4322  131.0119  154.5302 H   0  0  0  0  0  0  0  0  0  0  0  0
  149.6901  137.0905  153.4333 H   0  0  0  0  0  0  0  0  0  0  0  0
  148.8655  139.2370  154.1940 H   0  0  0  0  0  0  0  0  0  0  0  0
  149.5707  141.4654  155.0655 H   0  0  0  0  0  0  0  0  0  0  0  0
  151.8102  141.6794  156.1817 H   0  0  0  0  0  0  0  0  0  0  0  0
  153.2451  139.6300  156.3722 H   0  0  0  0  0  0  0  0  0  0  0  0
  148.2210  130.4268  151.7126 H   0  0  0  0  0  0  0  0  0  0  0  0
  1  2  2  0  0  0  0
  2  3  1  0  0  0  0
  2 13  1  0  0  0  0
  3  4  1  0  0  0  0
  3 20  1  0  0  0  0
  4  5  1  0  0  0  0
  4 21  1  0  0  0  0
  4 22  1  0  0  0  0
  5 12  1  0  0  0  0
  5  6  1  0  0  0  0
  5 23  1  0  0  0  0
  6  7  1  0  0  0  0
  6 24  1  0  0  0  0
  6 25  1  0  0  0  0
  7  8  1  0  0  0  0
  7 26  1  0  0  0  0
  7 27  1  0  0  0  0
  8  9  1  0  0  0  0
  8 12  1  0  0  0  0
  8 40  1  0  0  0  0
  9 11  1  0  0  0  0
  9 10  1  0  0  0  0
  9 28  1  0  0  0  0
 10 11  1  0  0  0  0
 10 29  1  0  0  0  0
 10 30  1  0  0  0  0
 11 31  1  0  0  0  0
 11 32  1  0  0  0  0
 12 33  1  0  0  0  0
 12 34  1  0  0  0  0
 13 14  1  0  0  0  0
 13 35  1  0  0  0  0
 14 19  1  0  0  0  0
 14 15  2  0  0  0  0
 15 16  1  0  0  0  0
 15 36  1  0  0  0  0
 16 17  2  0  0  0  0
 16 37  1  0  0  0  0
 17 18  1  0  0  0  0
 17 38  1  0  0  0  0
 18 19  2  0  0  0  0
 18 39  1  0  0  0  0
M  CHG  1   8   1
M  END
> <s_m_source_file>
AV-unprocessed.smi

> <i_m_source_file_index>
1042

> <i_lp_mmshare_version>
43012

> <i_f3d_flags>
0

> <s_epik_input>
bjFbY0hdW2NIXVtjSF1bY0hdYzFbTkhdQyg9TylbTkhdW0NIMl1bQ0BASF0yW0NIMl1bQ0gyXU4oW0NIMl0yKVtDSF0zW0NIMl1bQ0gyXTM=

> <s_epik_cmdline>
J2VwaWtfcHl0aG9uJywgJy1waCcsICc3LjAnLCAnLXRuJywgJzgnLCAnLW1hJywgJzIwMCcsICctbWV0YWxfYmluZGluZycsICctaW1hZScsICc8aW5maWxlLm1hZT4nLCAnLW9tYWUnLCAnPG91dGZpbGUubWFlPic=

> <r_lp_tautomer_probability>
1

> <r_epik_Ionization_Penalty>
0.000244736

> <r_epik_Ionization_Penalty_Charging>
0.000203384

> <r_epik_Ionization_Penalty_Neutral>
4.13519e-05

> <r_epik_State_Penalty>
-0

> <r_epik_Charging_Adjusted_Penalty>
0.000203384

> <i_epik_Tot_Q>
1

> <i_epik_Tot_abs_Q>
1

> <r_epik_Metal_State_Penalty>
-0

> <b_epik_Metal_Only>
0

> <s_lp_Force_Field>
OPLS_2005

> <r_lp_Energy>
38.723

> <b_lp_Chiralities_Consistent>
1

> <s_lp_Variant>
AV-unprocessed.smi:1042-1

> <Gold.Version>
5.8.1

> <Gold.Id.Protein>
6NUR|6NUR_protein|mol2

> <Gold.PLP.Fitness>
44.4000

> <Gold.PLP.PLP>
-36.1510

> <Gold.PLP.part.hbond>
-3.0533

> <Gold.PLP.part.metal>
0.0000

> <Gold.PLP.part.buried>
-1.6282

> <Gold.PLP.part.nonpolar>
-30.9475

> <Gold.PLP.part.repulsive>
0.1038

> <Gold.PLP.ligand.clash>
0.0000

> <Gold.PLP.ligand.torsion>
0.9941

> <Gold.PLP.Chemscore.Hbond>
2.9920

> <Gold.PLP.Chemscore.CHOScore>
0.0000

> <Gold.PLP.Chemscore.Metal>
0.0000

> <Gold.Chemscore.Hbonds>
donor molecule, donor type, donor heavy atom, donor atom, acceptor molecule, acceptor atom, score
      L1  H     3    20       P1  7948  0.85
      L1  H     8    40       P1 10747  1.00
      L1  H    13    35       P1  7948  0.98

> <Gold.PLP.Chemscore.Internal.Correction>
1.2613

> <Gold.Rescore>
     Score         DG    S(hbond)    S(metal)    S(lipo)     H(rot)  DE(clash)    DE(int)     intcor
     17.78     -19.57       2.58        0.00      79.05       1.47       0.07       1.73       ----

> <Gold.Chemscore.Fitness>
17.7755

> <Gold.Chemscore.DG>
-19.5700

> <Gold.Chemscore.ZeroCoef>
-5.4800

> <Gold.Chemscore.Hbond>
2.5767

> <Gold.Chemscore.Metal>
0.0000

> <Gold.Chemscore.Lipo>
79.0492

> <Gold.Chemscore.Internal_Hbond>
0.0000

> <Gold.Chemscore.DEClash>
0.0676

> <Gold.Chemscore.DEInternal>
1.7268

> <Gold.Chemscore.Rot>
1.4707

> <Gold.Chemscore.Internal.Correction>
   9.000000E+99

> <Gold.Chemscore.Hbonds>
donor molecule, donor type, donor heavy atom, donor atom, acceptor molecule, acceptor atom, score
      L1  H     3    20       P1  7948  0.14
      L1  H     8    40       P1 10747  0.95
      L1  H    13    35       P1  7948  0.61

> <Gold.Chemscore.Hbond.Weighted>
-8.6062

> <Gold.Chemscore.Metal.Weighted>
-0.0000

> <Gold.Chemscore.Lipo.Weighted>
-9.2488

> <Gold.Chemscore.Internal_Hbond.Weighted>
0.0000

> <Gold.Chemscore.DEClash.Weighted>
0.0676

> <Gold.Chemscore.DEInternal.Weighted>
1.7268

> <Gold.Chemscore.Rot.Weighted>
3.7650

> <Gold.Chemscore.Internal.Correction.Weighted>
   9.000000E+99

> <Gold.Protein.RotatedTorsions>
[ 6907 6896 6895 6894 ] final   28.47 input  -60.11 | X-H torsion
[ 7974 7965 7964 7962 ] final    2.00 input  175.53 | X-H torsion
[ 8008 7997 7996 7995 ] final  167.62 input   59.86 | X-H torsion
[ 10167 10162 10161 10158 ] final  104.29 input  -65.29 | X-H torsion
[ 10718 10713 10712 10709 ] final  -25.67 input   66.30 | X-H torsion
[ 10763 10752 10751 10750 ] final  129.75 input  -60.55 | X-H torsion
[ 11005 11000 10999 10996 ] final   34.63 input  -57.11 | X-H torsion

> <Gold.Protein.ActiveResidues>
 VAL166  LYS551  ARG553  GLY616  TRP617  ASP618  TYR619  PRO620  LYS621  CYS622 
 ASP623  PHE694  ASN695  SER759  ASP760  ASP761  ALA762  ILE779  LEU786  VAL792 
 PHE793  MET794  SER795  GLU796  ALA797  LYS798  CYS799  TRP800  GLU811  SER814 

> <Gold.Protein.RotatedAtoms>
  152.0174  134.9842  160.0569 H   0  0  0  0  0  0  0  0  0  0  0  0  # atno 6907 bound_to 6896
  152.1370  133.4437  159.4757 H   0  0  0  0  0  0  0  0  0  0  0  0  # atno 6908 bound_to 6896
  150.6861  134.2269  159.4462 H   0  0  0  0  0  0  0  0  0  0  0  0  # atno 6909 bound_to 6896
  146.2442  140.0902  142.8352 H   0  0  0  0  0  0  0  0  0  0  0  0  # atno 7974 bound_to 7965
  156.1618  140.1612  156.8598 H   0  0  0  0  0  0  0  0  0  0  0  0  # atno 8008 bound_to 7997
  154.5168  140.0787  156.8133 H   0  0  0  0  0  0  0  0  0  0  0  0  # atno 8009 bound_to 7997
  155.3691  140.3399  155.4245 H   0  0  0  0  0  0  0  0  0  0  0  0  # atno 8010 bound_to 7997
  139.7190  144.7062  151.0904 H   0  0  0  0  0  0  0  0  0  0  0  0  # atno 10167 bound_to 10162
  156.4613  130.4504  149.6927 H   0  0  0  0  0  0  0  0  0  0  0  0  # atno 10718 bound_to 10713
  153.7469  135.3216  155.3314 H   0  0  0  0  0  0  0  0  0  0  0  0  # atno 10763 bound_to 10752
  154.8276  135.4558  154.0971 H   0  0  0  0  0  0  0  0  0  0  0  0  # atno 10764 bound_to 10752
  153.2162  135.6942  153.8137 H   0  0  0  0  0  0  0  0  0  0  0  0  # atno 10765 bound_to 10752
  140.2509  134.3304  155.7891 H   0  0  0  0  0  0  0  0  0  0  0  0  # atno 11005 bound_to 11000
  145.0657  140.9120  143.4912 LP  0  0  0  0  0  0  0  0  0  0  0  0  # atno 17320 bound_to 7965
  145.1026  139.2812  143.5678 LP  0  0  0  0  0  0  0  0  0  0  0  0  # atno 17321 bound_to 7965
  140.7749  143.5192  150.9557 LP  0  0  0  0  0  0  0  0  0  0  0  0  # atno 17342 bound_to 10162
  139.8878  143.6991  152.3149 LP  0  0  0  0  0  0  0  0  0  0  0  0  # atno 17343 bound_to 10162
  156.3713  130.7532  151.2515 LP  0  0  0  0  0  0  0  0  0  0  0  0  # atno 17370 bound_to 10713
  157.7497  131.0322  150.4216 LP  0  0  0  0  0  0  0  0  0  0  0  0  # atno 17371 bound_to 10713
  141.2201  133.7353  156.9035 LP  0  0  0  0  0  0  0  0  0  0  0  0  # atno 17394 bound_to 11000
  140.1559  134.9199  157.2653 LP  0  0  0  0  0  0  0  0  0  0  0  0  # atno 17395 bound_to 11000

$$$$
