AV-unprocessed.smi:2190|AV-procd|sdf|8890|dock10
  -GOLD-   2272012 93D 1   1.00000     0.00000
 Structure written by MMmdl.
 47 49  0  0  0  0  0  0  0  0  2 V2000
  147.9070  132.2554  160.1894 C   0  0  0  0  0  0  0  0  0  0  0  0
  147.6619  133.5778  160.8866 C   0  0  0  0  0  0  0  0  0  0  0  0
  147.0440  133.6124  162.1517 C   0  0  0  0  0  0  0  0  0  0  0  0
  146.8182  134.8455  162.7895 C   0  0  0  0  0  0  0  0  0  0  0  0
  147.2086  136.0500  162.1684 C   0  0  0  0  0  0  0  0  0  0  0  0
  146.9566  137.3722  162.8691 C   0  0  0  0  0  0  0  0  0  0  0  0
  147.8322  136.0289  160.8994 C   0  0  0  0  0  0  0  0  0  0  0  0
  148.1881  137.2421  160.3484 O   0  0  0  0  0  0  0  0  0  0  0  0
  149.0588  137.2512  159.2256 C   0  0  0  0  0  0  0  0  0  0  0  0
  148.9224  138.6065  158.5177 C   0  0  2  0  0  0  0  0  0  0  0  0
  147.9118  138.5047  157.5349 O   0  0  0  0  0  0  0  0  0  0  0  0
  150.2448  139.0680  157.8725 C   0  0  0  0  0  0  0  0  0  0  0  0
  150.3877  140.5319  157.8547 N   0  0  0  0  0  0  0  0  0  0  0  0
  149.7025  141.4659  157.1344 C   0  0  0  0  0  0  0  0  0  0  0  0
  148.6026  141.2125  156.1563 C   0  0  0  0  0  0  0  0  0  0  0  0
  148.8398  141.8295  154.9104 O   0  0  0  0  0  0  0  0  0  0  0  0
  150.2004  142.6867  157.4787 N   0  3  0  0  0  0  0  0  0  0  0  0
  151.2155  142.5333  158.4238 C   0  0  0  0  0  0  0  0  0  0  0  0
  152.0116  143.4772  159.0655 C   0  0  0  0  0  0  0  0  0  0  0  0
  152.9643  142.9845  159.9812 C   0  0  0  0  0  0  0  0  0  0  0  0
  153.0969  141.6030  160.2300 C   0  0  0  0  0  0  0  0  0  0  0  0
  152.2823  140.6558  159.5753 C   0  0  0  0  0  0  0  0  0  0  0  0
  151.3426  141.1506  158.6706 C   0  0  0  0  0  0  0  0  0  0  0  0
  148.0542  134.7802  160.2648 C   0  0  0  0  0  0  0  0  0  0  0  0
  147.5329  131.4180  160.7792 H   0  0  0  0  0  0  0  0  0  0  0  0
  148.9747  132.1066  160.0262 H   0  0  0  0  0  0  0  0  0  0  0  0
  147.4058  132.2404  159.2212 H   0  0  0  0  0  0  0  0  0  0  0  0
  146.7400  132.6964  162.6370 H   0  0  0  0  0  0  0  0  0  0  0  0
  146.3426  134.8618  163.7591 H   0  0  0  0  0  0  0  0  0  0  0  0
  147.8872  137.9315  162.9731 H   0  0  0  0  0  0  0  0  0  0  0  0
  146.5386  137.2237  163.8654 H   0  0  0  0  0  0  0  0  0  0  0  0
  146.2553  137.9762  162.2927 H   0  0  0  0  0  0  0  0  0  0  0  0
  150.0935  137.0914  159.5347 H   0  0  0  0  0  0  0  0  0  0  0  0
  148.7789  136.4480  158.5418 H   0  0  0  0  0  0  0  0  0  0  0  0
  148.5931  139.3490  159.2453 H   0  0  0  0  0  0  0  0  0  0  0  0
  147.9902  139.2400  156.9468 H   0  0  0  0  0  0  0  0  0  0  0  0
  151.0917  138.6753  158.4366 H   0  0  0  0  0  0  0  0  0  0  0  0
  150.3530  138.6776  156.8607 H   0  0  0  0  0  0  0  0  0  0  0  0
  148.4894  140.1384  156.0066 H   0  0  0  0  0  0  0  0  0  0  0  0
  147.6603  141.5802  156.5622 H   0  0  0  0  0  0  0  0  0  0  0  0
  148.8924  142.7640  155.0426 H   0  0  0  0  0  0  0  0  0  0  0  0
  151.9117  144.5360  158.8768 H   0  0  0  0  0  0  0  0  0  0  0  0
  153.6059  143.6797  160.5030 H   0  0  0  0  0  0  0  0  0  0  0  0
  153.8388  141.2622  160.9375 H   0  0  0  0  0  0  0  0  0  0  0  0
  152.3959  139.6005  159.7732 H   0  0  0  0  0  0  0  0  0  0  0  0
  148.5236  134.7196  159.2946 H   0  0  0  0  0  0  0  0  0  0  0  0
  149.8649  143.5606  157.0944 H   0  0  0  0  0  0  0  0  0  0  0  0
  1  2  1  0  0  0  0
  1 25  1  0  0  0  0
  1 26  1  0  0  0  0
  1 27  1  0  0  0  0
  2 24  1  0  0  0  0
  2  3  2  0  0  0  0
  3  4  1  0  0  0  0
  3 28  1  0  0  0  0
  4  5  2  0  0  0  0
  4 29  1  0  0  0  0
  5  6  1  0  0  0  0
  5  7  1  0  0  0  0
  6 30  1  0  0  0  0
  6 31  1  0  0  0  0
  6 32  1  0  0  0  0
  7  8  1  0  0  0  0
  7 24  2  0  0  0  0
  8  9  1  0  0  0  0
  9 10  1  0  0  0  0
  9 33  1  0  0  0  0
  9 34  1  0  0  0  0
 10 11  1  0  0  0  0
 10 12  1  0  0  0  0
 10 35  1  0  0  0  0
 11 36  1  0  0  0  0
 12 13  1  0  0  0  0
 12 37  1  0  0  0  0
 12 38  1  0  0  0  0
 13 23  1  0  0  0  0
 13 14  1  0  0  0  0
 14 15  1  0  0  0  0
 14 17  2  0  0  0  0
 15 16  1  0  0  0  0
 15 39  1  0  0  0  0
 15 40  1  0  0  0  0
 16 41  1  0  0  0  0
 17 18  1  0  0  0  0
 17 47  1  0  0  0  0
 18 23  2  0  0  0  0
 18 19  1  0  0  0  0
 19 20  2  0  0  0  0
 19 42  1  0  0  0  0
 20 21  1  0  0  0  0
 20 43  1  0  0  0  0
 21 22  2  0  0  0  0
 21 44  1  0  0  0  0
 22 23  1  0  0  0  0
 22 45  1  0  0  0  0
 24 46  1  0  0  0  0
M  CHG  1  17   1
M  END
> <s_m_source_file>
AV-unprocessed.smi

> <i_m_source_file_index>
2190

> <i_lp_mmshare_version>
43012

> <i_f3d_flags>
0

> <s_epik_input>
W0NIM11jMVtjSF1bY0hdYyhbQ0gzXSljKFtjSF0xKU9bQ0gyXVtDQEhdKFtPSF0pW0NIMl1uKGMobjIpW0NIMl1bT0hdKWMoYzIzKVtjSF1bY0hdW2NIXVtjSF0z

> <s_epik_cmdline>
J2VwaWtfcHl0aG9uJywgJy1waCcsICc3LjAnLCAnLXRuJywgJzgnLCAnLW1hJywgJzIwMCcsICctbWV0YWxfYmluZGluZycsICctaW1hZScsICc8aW5maWxlLm1hZT4nLCAnLW9tYWUnLCAnPG91dGZpbGUubWFlPic=

> <r_lp_tautomer_probability>
1

> <r_epik_Ionization_Penalty>
1.43125

> <r_epik_Ionization_Penalty_Charging>
1.43039

> <r_epik_Ionization_Penalty_Neutral>
0.000858184

> <r_epik_State_Penalty>
1.51493

> <r_epik_Charging_Adjusted_Penalty>
2.94531

> <i_epik_Tot_Q>
1

> <i_epik_Tot_abs_Q>
1

> <r_epik_Metal_State_Penalty>
5.5599

> <b_epik_Metal_Only>
0

> <s_lp_Force_Field>
OPLS_2005

> <r_lp_Energy>
17.5717

> <b_lp_Chiralities_Consistent>
1

> <s_lp_Variant>
AV-unprocessed.smi:2190-3

> <Gold.Version>
5.8.1

> <Gold.Id.Protein>
6NUR|6NUR_protein|mol2

> <Gold.PLP.Fitness>
59.1266

> <Gold.PLP.PLP>
-48.9158

> <Gold.PLP.part.hbond>
-4.0000

> <Gold.PLP.part.metal>
0.0000

> <Gold.PLP.part.buried>
-4.0753

> <Gold.PLP.part.nonpolar>
-41.9008

> <Gold.PLP.part.repulsive>
0.0200

> <Gold.PLP.ligand.clash>
0.0000

> <Gold.PLP.ligand.torsion>
1.1705

> <Gold.PLP.Chemscore.Hbond>
4.1504

> <Gold.PLP.Chemscore.CHOScore>
0.0000

> <Gold.PLP.Chemscore.Metal>
0.0000

> <Gold.Chemscore.Hbonds>
donor molecule, donor type, donor heavy atom, donor atom, acceptor molecule, acceptor atom, score
      L1  H    16    41       P1  8028  0.98
      L1  H    17    47       P1  8028  1.76
      P1  H  6931  6943       L1     8  0.69
      P1  H  6934  6947       L1     8  0.51

> <Gold.PLP.Chemscore.Internal.Correction>
0.1006

> <Gold.Rescore>
     Score         DG    S(hbond)    S(metal)    S(lipo)     H(rot)  DE(clash)    DE(int)     intcor
     19.92     -21.03       2.58        0.00     125.98       3.05       0.00       1.10       ----

> <Gold.Chemscore.Fitness>
19.9195

> <Gold.Chemscore.DG>
-21.0274

> <Gold.Chemscore.ZeroCoef>
-5.4800

> <Gold.Chemscore.Hbond>
2.5776

> <Gold.Chemscore.Metal>
0.0000

> <Gold.Chemscore.Lipo>
125.9830

> <Gold.Chemscore.Internal_Hbond>
0.0000

> <Gold.Chemscore.DEClash>
0.0033

> <Gold.Chemscore.DEInternal>
1.1047

> <Gold.Chemscore.Rot>
3.0476

> <Gold.Chemscore.Internal.Correction>
   9.000000E+99

> <Gold.Chemscore.Hbonds>
donor molecule, donor type, donor heavy atom, donor atom, acceptor molecule, acceptor atom, score
      L1  H    16    41       P1  8028  0.92
      L1  H    17    47       P1  8028  0.81
      P1  H  6931  6943       L1     8  0.22
      P1  H  6934  6947       L1     8  0.49

> <Gold.Chemscore.Hbond.Weighted>
-8.6092

> <Gold.Chemscore.Metal.Weighted>
-0.0000

> <Gold.Chemscore.Lipo.Weighted>
-14.7400

> <Gold.Chemscore.Internal_Hbond.Weighted>
0.0000

> <Gold.Chemscore.DEClash.Weighted>
0.0033

> <Gold.Chemscore.DEInternal.Weighted>
1.1047

> <Gold.Chemscore.Rot.Weighted>
7.8018

> <Gold.Chemscore.Internal.Correction.Weighted>
   9.000000E+99

> <Gold.Protein.RotatedTorsions>
[ 6907 6896 6895 6894 ] final  137.24 input  -60.11 | X-H torsion
[ 7974 7965 7964 7962 ] final   64.26 input  175.53 | X-H torsion
[ 8008 7997 7996 7995 ] final -164.65 input   59.86 | X-H torsion
[ 10167 10162 10161 10158 ] final    6.88 input  -65.29 | X-H torsion
[ 10718 10713 10712 10709 ] final  -40.90 input   66.30 | X-H torsion
[ 10763 10752 10751 10750 ] final  114.77 input  -60.55 | X-H torsion
[ 11005 11000 10999 10996 ] final -103.79 input  -57.11 | X-H torsion

> <Gold.Protein.ActiveResidues>
 VAL166  LYS551  ARG553  GLY616  TRP617  ASP618  TYR619  PRO620  LYS621  CYS622 
 ASP623  PHE694  ASN695  SER759  ASP760  ASP761  ALA762  ILE779  LEU786  VAL792 
 PHE793  MET794  SER795  GLU796  ALA797  LYS798  CYS799  TRP800  GLU811  SER814 

> <Gold.Protein.RotatedAtoms>
  152.2803  133.5464  159.5493 H   0  0  0  0  0  0  0  0  0  0  0  0  # atno 6907 bound_to 6896
  150.7193  134.0573  159.3828 H   0  0  0  0  0  0  0  0  0  0  0  0  # atno 6908 bound_to 6896
  151.8484  135.0566  160.0507 H   0  0  0  0  0  0  0  0  0  0  0  0  # atno 6909 bound_to 6896
  145.8523  139.3262  143.0868 H   0  0  0  0  0  0  0  0  0  0  0  0  # atno 7974 bound_to 7965
  155.8386  140.0945  157.1748 H   0  0  0  0  0  0  0  0  0  0  0  0  # atno 8008 bound_to 7997
  154.3981  140.1405  156.3762 H   0  0  0  0  0  0  0  0  0  0  0  0  # atno 8009 bound_to 7997
  155.8089  140.3450  155.5448 H   0  0  0  0  0  0  0  0  0  0  0  0  # atno 8010 bound_to 7997
  140.6403  143.7789  150.7418 H   0  0  0  0  0  0  0  0  0  0  0  0  # atno 10167 bound_to 10162
  156.2762  130.4212  149.8385 H   0  0  0  0  0  0  0  0  0  0  0  0  # atno 10718 bound_to 10713
  153.5122  135.3615  155.2592 H   0  0  0  0  0  0  0  0  0  0  0  0  # atno 10763 bound_to 10752
  154.8741  135.4025  154.3355 H   0  0  0  0  0  0  0  0  0  0  0  0  # atno 10764 bound_to 10752
  153.4011  135.7075  153.6492 H   0  0  0  0  0  0  0  0  0  0  0  0  # atno 10765 bound_to 10752
  141.1130  133.8669  157.1530 H   0  0  0  0  0  0  0  0  0  0  0  0  # atno 11005 bound_to 11000
  145.9343  140.9026  143.0340 LP  0  0  0  0  0  0  0  0  0  0  0  0  # atno 17320 bound_to 7965
  144.6729  140.1461  143.7433 LP  0  0  0  0  0  0  0  0  0  0  0  0  # atno 17321 bound_to 7965
  140.1419  143.4433  152.2188 LP  0  0  0  0  0  0  0  0  0  0  0  0  # atno 17342 bound_to 10162
  139.5612  144.7407  151.4149 LP  0  0  0  0  0  0  0  0  0  0  0  0  # atno 17343 bound_to 10162
  156.5849  130.8481  151.3393 LP  0  0  0  0  0  0  0  0  0  0  0  0  # atno 17370 bound_to 10713
  157.7300  130.9679  150.1812 LP  0  0  0  0  0  0  0  0  0  0  0  0  # atno 17371 bound_to 10713
  140.0035  135.0018  157.0241 LP  0  0  0  0  0  0  0  0  0  0  0  0  # atno 17394 bound_to 11000
  140.4723  134.1373  155.7205 LP  0  0  0  0  0  0  0  0  0  0  0  0  # atno 17395 bound_to 11000

$$$$
