AV-unprocessed.smi:906|AV-procd|sdf|4101|dock4
  -GOLD-   22720 1593D 1   1.00000     0.00000
 Structure written by MMmdl.
 47 48  0  0  0  0  0  0  0  0  1 V2000
  152.3036  146.0325  160.0465 C   0  0  0  0  0  0  0  0  0  0  0  0
  151.8954  144.7009  159.4520 C   0  0  0  0  0  0  0  0  0  0  0  0
  152.6693  143.5429  159.6770 C   0  0  0  0  0  0  0  0  0  0  0  0
  152.2411  142.3289  159.1060 C   0  0  0  0  0  0  0  0  0  0  0  0
  151.0602  142.3189  158.3360 C   0  0  0  0  0  0  0  0  0  0  0  0
  150.5522  141.0373  157.7056 C   0  0  0  0  0  0  0  0  0  0  0  0
  150.2716  141.2044  156.2035 C   0  0  0  0  0  0  0  0  0  0  0  0
  148.8468  141.3673  155.9408 N   0  0  0  0  0  0  0  0  0  0  0  0
  148.3090  141.6964  154.7539 C   0  0  0  0  0  0  0  0  0  0  0  0
  149.0005  141.8861  153.7521 O   0  0  0  0  0  0  0  0  0  0  0  0
  146.9542  141.7590  154.7435 N   0  0  0  0  0  0  0  0  0  0  0  0
  146.0443  141.3475  155.8226 C   0  0  0  0  0  0  0  0  0  0  0  0
  145.4163  142.6077  156.4486 C   0  0  0  0  0  0  0  0  0  0  0  0
  144.6911  143.3747  155.4281 N   0  0  0  0  0  0  0  0  0  0  0  0
  143.9387  144.4951  156.0187 C   0  0  1  0  0  0  0  0  0  0  0  0
  144.8289  145.6656  156.4917 C   0  0  0  0  0  0  0  0  0  0  0  0
  142.7870  144.9673  155.0991 C   0  0  0  0  0  0  0  0  0  0  0  0
  142.0315  143.9307  154.7346 F   0  0  0  0  0  0  0  0  0  0  0  0
  142.0164  145.8220  155.7717 F   0  0  0  0  0  0  0  0  0  0  0  0
  143.2344  145.5845  154.0056 F   0  0  0  0  0  0  0  0  0  0  0  0
  145.5796  143.7386  154.3154 C   0  0  0  0  0  0  0  0  0  0  0  0
  146.2052  142.4703  153.7037 C   0  0  0  0  0  0  0  0  0  0  0  0
  150.3587  143.5321  158.1728 C   0  0  0  0  0  0  0  0  0  0  0  0
  150.7617  144.7007  158.7164 N   0  0  0  0  0  0  0  0  0  0  0  0
  153.3664  146.0425  160.2902 H   0  0  0  0  0  0  0  0  0  0  0  0
  151.7404  146.2242  160.9602 H   0  0  0  0  0  0  0  0  0  0  0  0
  152.1104  146.8457  159.3460 H   0  0  0  0  0  0  0  0  0  0  0  0
  153.5687  143.5814  160.2740 H   0  0  0  0  0  0  0  0  0  0  0  0
  152.8085  141.4226  159.2600 H   0  0  0  0  0  0  0  0  0  0  0  0
  151.2890  140.2495  157.8684 H   0  0  0  0  0  0  0  0  0  0  0  0
  149.6454  140.7215  158.2235 H   0  0  0  0  0  0  0  0  0  0  0  0
  150.7873  142.0875  155.8248 H   0  0  0  0  0  0  0  0  0  0  0  0
  150.6617  140.3530  155.6431 H   0  0  0  0  0  0  0  0  0  0  0  0
  148.2194  141.2121  156.7163 H   0  0  0  0  0  0  0  0  0  0  0  0
  145.2650  140.7045  155.4105 H   0  0  0  0  0  0  0  0  0  0  0  0
  146.5235  140.7580  156.6038 H   0  0  0  0  0  0  0  0  0  0  0  0
  144.7305  142.3100  157.2423 H   0  0  0  0  0  0  0  0  0  0  0  0
  146.1945  143.2186  156.9066 H   0  0  0  0  0  0  0  0  0  0  0  0
  143.4492  144.0892  156.9052 H   0  0  0  0  0  0  0  0  0  0  0  0
  144.2318  146.4107  157.0172 H   0  0  0  0  0  0  0  0  0  0  0  0
  145.3117  146.1747  155.6577 H   0  0  0  0  0  0  0  0  0  0  0  0
  145.6061  145.3394  157.1816 H   0  0  0  0  0  0  0  0  0  0  0  0
  145.0257  144.2618  153.5387 H   0  0  0  0  0  0  0  0  0  0  0  0
  146.3695  144.4077  154.6584 H   0  0  0  0  0  0  0  0  0  0  0  0
  146.8278  142.7426  152.8504 H   0  0  0  0  0  0  0  0  0  0  0  0
  145.4265  141.8181  153.3052 H   0  0  0  0  0  0  0  0  0  0  0  0
  149.4476  143.5663  157.5936 H   0  0  0  0  0  0  0  0  0  0  0  0
  1  2  1  0  0  0  0
  1 25  1  0  0  0  0
  1 26  1  0  0  0  0
  1 27  1  0  0  0  0
  2 24  1  0  0  0  0
  2  3  2  0  0  0  0
  3  4  1  0  0  0  0
  3 28  1  0  0  0  0
  4  5  2  0  0  0  0
  4 29  1  0  0  0  0
  5  6  1  0  0  0  0
  5 23  1  0  0  0  0
  6  7  1  0  0  0  0
  6 30  1  0  0  0  0
  6 31  1  0  0  0  0
  7  8  1  0  0  0  0
  7 32  1  0  0  0  0
  7 33  1  0  0  0  0
  8  9  1  0  0  0  0
  8 34  1  0  0  0  0
  9 10  2  0  0  0  0
  9 11  1  0  0  0  0
 11 22  1  0  0  0  0
 11 12  1  0  0  0  0
 12 13  1  0  0  0  0
 12 35  1  0  0  0  0
 12 36  1  0  0  0  0
 13 14  1  0  0  0  0
 13 37  1  0  0  0  0
 13 38  1  0  0  0  0
 14 15  1  0  0  0  0
 14 21  1  0  0  0  0
 15 16  1  0  0  0  0
 15 17  1  0  0  0  0
 15 39  1  0  0  0  0
 16 40  1  0  0  0  0
 16 41  1  0  0  0  0
 16 42  1  0  0  0  0
 17 18  1  0  0  0  0
 17 19  1  0  0  0  0
 17 20  1  0  0  0  0
 21 22  1  0  0  0  0
 21 43  1  0  0  0  0
 21 44  1  0  0  0  0
 22 45  1  0  0  0  0
 22 46  1  0  0  0  0
 23 24  2  0  0  0  0
 23 47  1  0  0  0  0
M  END
> <s_m_source_file>
AV-unprocessed.smi

> <i_m_source_file_index>
906

> <i_lp_mmshare_version>
43012

> <i_f3d_flags>
0

> <s_epik_input>
W0NIM11jMVtjSF1bY0hdYyhbY0hdbjEpW0NIMl1bQ0gyXVtOSF1DKD1PKU4yW0NIMl1bQ0gyXU4oW0NASF0oW0NIM10pQyhGKShGKUYpW0NIMl1bQ0gyXTI=

> <s_epik_cmdline>
J2VwaWtfcHl0aG9uJywgJy1waCcsICc3LjAnLCAnLXRuJywgJzgnLCAnLW1hJywgJzIwMCcsICctbWV0YWxfYmluZGluZycsICctaW1hZScsICc8aW5maWxlLm1hZT4nLCAnLW9tYWUnLCAnPG91dGZpbGUubWFlPic=

> <r_epik_Ionization_Penalty>
0.0782886

> <r_epik_Ionization_Penalty_Charging>
0

> <r_epik_Ionization_Penalty_Neutral>
0.0782886

> <r_epik_State_Penalty>
0.0661423

> <r_epik_Charging_Adjusted_Penalty>
0.0661423

> <i_epik_Tot_Q>
0

> <i_epik_Tot_abs_Q>
0

> <r_epik_Metal_State_Penalty>
0.060629

> <b_epik_Metal_Only>
0

> <s_lp_Force_Field>
OPLS_2005

> <r_lp_Energy>
47.1211

> <b_lp_Chiralities_Consistent>
1

> <s_lp_Variant>
AV-unprocessed.smi:906-2

> <Gold.Version>
5.8.1

> <Gold.Id.Protein>
6NUR|6NUR_protein|mol2

> <Gold.PLP.Fitness>
44.1931

> <Gold.PLP.PLP>
-40.6974

> <Gold.PLP.part.hbond>
-0.9607

> <Gold.PLP.part.metal>
0.0000

> <Gold.PLP.part.buried>
-4.5946

> <Gold.PLP.part.nonpolar>
-33.3926

> <Gold.PLP.part.repulsive>
0.5580

> <Gold.PLP.ligand.clash>
0.0000

> <Gold.PLP.ligand.torsion>
0.7670

> <Gold.PLP.Chemscore.Hbond>
0.4640

> <Gold.PLP.Chemscore.CHOScore>
0.9787

> <Gold.PLP.Chemscore.Metal>
0.0000

> <Gold.Chemscore.Hbonds>
donor molecule, donor type, donor heavy atom, donor atom, acceptor molecule, acceptor atom, score
      P1  H  8011  8017       L1    10  0.53
      L1  C    23    47       P1  8028  1.00

> <Gold.PLP.Chemscore.Internal.Correction>
0.7016

> <Gold.Rescore>
     Score         DG    S(hbond)    S(metal)    S(lipo)     H(rot)  DE(clash)    DE(int)     intcor
     13.09     -14.70       0.42        0.00     101.47       1.58       0.69       0.92       ----

> <Gold.Chemscore.Fitness>
13.0908

> <Gold.Chemscore.DG>
-14.6999

> <Gold.Chemscore.ZeroCoef>
-5.4800

> <Gold.Chemscore.Hbond>
0.4200

> <Gold.Chemscore.Metal>
0.0000

> <Gold.Chemscore.Lipo>
101.4742

> <Gold.Chemscore.Internal_Hbond>
0.0000

> <Gold.Chemscore.DEClash>
0.6864

> <Gold.Chemscore.DEInternal>
0.9227

> <Gold.Chemscore.Rot>
1.5841

> <Gold.Chemscore.Internal.Correction>
   9.000000E+99

> <Gold.Chemscore.Hbonds>
donor molecule, donor type, donor heavy atom, donor atom, acceptor molecule, acceptor atom, score
      P1  H  8011  8017       L1    10  0.54

> <Gold.Chemscore.Hbond.Weighted>
-1.4028

> <Gold.Chemscore.Metal.Weighted>
-0.0000

> <Gold.Chemscore.Lipo.Weighted>
-11.8725

> <Gold.Chemscore.Internal_Hbond.Weighted>
0.0000

> <Gold.Chemscore.DEClash.Weighted>
0.6864

> <Gold.Chemscore.DEInternal.Weighted>
0.9227

> <Gold.Chemscore.Rot.Weighted>
4.0554

> <Gold.Chemscore.Internal.Correction.Weighted>
   9.000000E+99

> <Gold.Protein.RotatedTorsions>
[ 6907 6896 6895 6894 ] final  -59.39 input  -60.11 | X-H torsion
[ 7974 7965 7964 7962 ] final  -37.88 input  175.53 | X-H torsion
[ 8008 7997 7996 7995 ] final  119.24 input   59.86 | X-H torsion
[ 10167 10162 10161 10158 ] final  -93.66 input  -65.29 | X-H torsion
[ 10718 10713 10712 10709 ] final   49.41 input   66.30 | X-H torsion
[ 10763 10752 10751 10750 ] final  137.57 input  -60.55 | X-H torsion
[ 11005 11000 10999 10996 ] final  166.12 input  -57.11 | X-H torsion

> <Gold.Protein.ActiveResidues>
 VAL166  LYS551  ARG553  GLY616  TRP617  ASP618  TYR619  PRO620  LYS621  CYS622 
 ASP623  PHE694  ASN695  SER759  ASP760  ASP761  ALA762  ILE779  LEU786  VAL792 
 PHE793  MET794  SER795  GLU796  ALA797  LYS798  CYS799  TRP800  GLU811  SER814 

> <Gold.Protein.RotatedAtoms>
  150.7934  134.6975  159.6531 H   0  0  0  0  0  0  0  0  0  0  0  0  # atno 6907 bound_to 6896
  152.4043  134.6230  160.0065 H   0  0  0  0  0  0  0  0  0  0  0  0  # atno 6908 bound_to 6896
  151.6492  133.3285  159.3184 H   0  0  0  0  0  0  0  0  0  0  0  0  # atno 6909 bound_to 6896
  146.0535  140.6448  142.9030 H   0  0  0  0  0  0  0  0  0  0  0  0  # atno 7974 bound_to 7965
  156.2586  140.2857  156.0961 H   0  0  0  0  0  0  0  0  0  0  0  0  # atno 8008 bound_to 7997
  155.1410  140.0395  157.2816 H   0  0  0  0  0  0  0  0  0  0  0  0  # atno 8009 bound_to 7997
  154.6529  140.2549  155.7199 H   0  0  0  0  0  0  0  0  0  0  0  0  # atno 8010 bound_to 7997
  140.3224  143.3041  152.0032 H   0  0  0  0  0  0  0  0  0  0  0  0  # atno 10167 bound_to 10162
  157.4784  130.8299  149.8065 H   0  0  0  0  0  0  0  0  0  0  0  0  # atno 10718 bound_to 10713
  153.8752  135.3051  155.3443 H   0  0  0  0  0  0  0  0  0  0  0  0  # atno 10763 bound_to 10752
  154.7787  135.4847  153.9802 H   0  0  0  0  0  0  0  0  0  0  0  0  # atno 10764 bound_to 10752
  153.1383  135.6819  153.9164 H   0  0  0  0  0  0  0  0  0  0  0  0  # atno 10765 bound_to 10752
  140.2632  134.7886  157.3609 H   0  0  0  0  0  0  0  0  0  0  0  0  # atno 11005 bound_to 11000
  144.7135  140.4127  143.7062 LP  0  0  0  0  0  0  0  0  0  0  0  0  # atno 17320 bound_to 7965
  145.6683  139.1594  143.2769 LP  0  0  0  0  0  0  0  0  0  0  0  0  # atno 17321 bound_to 7965
  139.4872  144.6301  151.7088 LP  0  0  0  0  0  0  0  0  0  0  0  0  # atno 17342 bound_to 10162
  140.5472  144.0484  150.6112 LP  0  0  0  0  0  0  0  0  0  0  0  0  # atno 17343 bound_to 10162
  156.0109  130.3834  150.2269 LP  0  0  0  0  0  0  0  0  0  0  0  0  # atno 17370 bound_to 10713
  157.0455  131.0047  151.3270 LP  0  0  0  0  0  0  0  0  0  0  0  0  # atno 17371 bound_to 10713
  140.1445  134.4929  155.8007 LP  0  0  0  0  0  0  0  0  0  0  0  0  # atno 17394 bound_to 11000
  141.2187  133.6838  156.7268 LP  0  0  0  0  0  0  0  0  0  0  0  0  # atno 17395 bound_to 11000

$$$$
