AV-unprocessed.smi:1662|AV-procd|sdf|6659|dock4
  -GOLD-   22720 7373D 1   1.00000     0.00000
 Structure written by MMmdl.
 47 48  0  0  0  0  0  0  0  0  1 V2000
  145.9428  136.8527  156.0080 C   0  0  0  0  0  0  0  0  0  0  0  0
  147.4299  136.6219  156.0160 C   0  0  0  0  0  0  0  0  0  0  0  0
  148.1600  137.5218  155.4433 N   0  0  0  0  0  0  0  0  0  0  0  0
  149.5355  137.4043  155.3887 N   0  0  0  0  0  0  0  0  0  0  0  0
  150.2050  138.5103  154.6882 C   0  0  0  0  0  0  0  0  0  0  0  0
  150.8898  139.5060  155.6357 C   0  0  0  0  0  0  0  0  0  0  0  0
  152.0331  139.9066  155.4120 O   0  0  0  0  0  0  0  0  0  0  0  0
  150.1613  139.9089  156.6879 N   0  0  0  0  0  0  0  0  0  0  0  0
  150.5997  140.8544  157.7134 C   0  0  2  0  0  0  0  0  0  0  0  0
  150.5862  142.2806  157.1285 C   0  0  0  0  0  0  0  0  0  0  0  0
  151.0840  143.3072  158.1497 C   0  0  0  0  0  0  0  0  0  0  0  0
  152.4890  142.9416  158.6390 C   0  0  0  0  0  0  0  0  0  0  0  0
  152.5330  141.5287  159.2544 C   0  0  2  0  0  0  0  0  0  0  0  0
  153.9585  141.2326  159.7566 C   0  0  0  0  0  0  0  0  0  0  0  0
  152.0031  140.4630  158.2525 C   0  0  1  0  0  0  0  0  0  0  0  0
  151.9835  139.0481  158.8723 C   0  0  0  0  0  0  0  0  0  0  0  0
  150.2482  136.3679  155.9176 C   0  0  0  0  0  0  0  0  0  0  0  0
  151.4765  136.3042  155.8466 O   0  0  0  0  0  0  0  0  0  0  0  0
  149.4146  135.3539  156.5672 C   0  0  0  0  0  0  0  0  0  0  0  0
  150.1205  134.2491  157.1317 C   0  0  0  0  0  0  0  0  0  0  0  0
  150.6991  133.3657  157.6064 N   0  0  0  0  0  0  0  0  0  0  0  0
  148.0634  135.4580  156.6272 C   0  0  0  0  0  0  0  0  0  0  0  0
  147.1543  134.4317  157.2894 C   0  0  0  0  0  0  0  0  0  0  0  0
  145.5720  137.0156  157.0200 H   0  0  0  0  0  0  0  0  0  0  0  0
  145.4189  135.9932  155.5897 H   0  0  0  0  0  0  0  0  0  0  0  0
  145.6695  137.7244  155.4116 H   0  0  0  0  0  0  0  0  0  0  0  0
  150.9619  138.1215  154.0045 H   0  0  0  0  0  0  0  0  0  0  0  0
  149.4871  139.0398  154.0586 H   0  0  0  0  0  0  0  0  0  0  0  0
  149.2303  139.5315  156.7891 H   0  0  0  0  0  0  0  0  0  0  0  0
  149.8989  140.8184  158.5500 H   0  0  0  0  0  0  0  0  0  0  0  0
  151.2139  142.3216  156.2370 H   0  0  0  0  0  0  0  0  0  0  0  0
  149.5786  142.5483  156.8085 H   0  0  0  0  0  0  0  0  0  0  0  0
  151.0920  144.3019  157.7034 H   0  0  0  0  0  0  0  0  0  0  0  0
  150.3969  143.3511  158.9956 H   0  0  0  0  0  0  0  0  0  0  0  0
  153.1916  143.0041  157.8068 H   0  0  0  0  0  0  0  0  0  0  0  0
  152.8158  143.6795  159.3726 H   0  0  0  0  0  0  0  0  0  0  0  0
  151.8744  141.5297  160.1244 H   0  0  0  0  0  0  0  0  0  0  0  0
  154.6579  141.1299  158.9266 H   0  0  0  0  0  0  0  0  0  0  0  0
  154.0015  140.3195  160.3490 H   0  0  0  0  0  0  0  0  0  0  0  0
  154.3220  142.0371  160.3964 H   0  0  0  0  0  0  0  0  0  0  0  0
  152.6887  140.4380  157.4035 H   0  0  0  0  0  0  0  0  0  0  0  0
  151.3568  139.0171  159.7640 H   0  0  0  0  0  0  0  0  0  0  0  0
  152.9816  138.7143  159.1530 H   0  0  0  0  0  0  0  0  0  0  0  0
  151.6007  138.3025  158.1757 H   0  0  0  0  0  0  0  0  0  0  0  0
  147.7173  133.6589  157.8116 H   0  0  0  0  0  0  0  0  0  0  0  0
  146.5311  133.9391  156.5429 H   0  0  0  0  0  0  0  0  0  0  0  0
  146.5025  134.9080  158.0223 H   0  0  0  0  0  0  0  0  0  0  0  0
  1  2  1  0  0  0  0
  1 24  1  0  0  0  0
  1 25  1  0  0  0  0
  1 26  1  0  0  0  0
  2 22  1  0  0  0  0
  2  3  2  0  0  0  0
  3  4  1  0  0  0  0
  4  5  1  0  0  0  0
  4 17  1  0  0  0  0
  5  6  1  0  0  0  0
  5 27  1  0  0  0  0
  5 28  1  0  0  0  0
  6  7  2  0  0  0  0
  6  8  1  0  0  0  0
  8  9  1  0  0  0  0
  8 29  1  0  0  0  0
  9 15  1  0  0  0  0
  9 10  1  0  0  0  0
  9 30  1  0  0  0  0
 10 11  1  0  0  0  0
 10 31  1  0  0  0  0
 10 32  1  0  0  0  0
 11 12  1  0  0  0  0
 11 33  1  0  0  0  0
 11 34  1  0  0  0  0
 12 13  1  0  0  0  0
 12 35  1  0  0  0  0
 12 36  1  0  0  0  0
 13 14  1  0  0  0  0
 13 15  1  0  0  0  0
 13 37  1  0  0  0  0
 14 38  1  0  0  0  0
 14 39  1  0  0  0  0
 14 40  1  0  0  0  0
 15 16  1  0  0  0  0
 15 41  1  0  0  0  0
 16 42  1  0  0  0  0
 16 43  1  0  0  0  0
 16 44  1  0  0  0  0
 17 18  2  0  0  0  0
 17 19  1  0  0  0  0
 19 20  1  0  0  0  0
 19 22  2  0  0  0  0
 20 21  3  0  0  0  0
 22 23  1  0  0  0  0
 23 45  1  0  0  0  0
 23 46  1  0  0  0  0
 23 47  1  0  0  0  0
M  END
> <s_m_source_file>
AV-unprocessed.smi

> <i_m_source_file_index>
1662

> <i_lp_mmshare_version>
43012

> <i_f3d_flags>
0

> <s_epik_input>
TiNDYyhjMVtDSDNdKWMoPU8pbihuYzFbQ0gzXSlbQ0gyXUMoPU8pW05IXVtDQEBIXTJbQ0gyXVtDSDJdW0NIMl1bQ0BASF0oW0NIM10pW0NASF0yW0NIM10=

> <s_epik_cmdline>
J2VwaWtfcHl0aG9uJywgJy1waCcsICc3LjAnLCAnLXRuJywgJzgnLCAnLW1hJywgJzIwMCcsICctbWV0YWxfYmluZGluZycsICctaW1hZScsICc8aW5maWxlLm1hZT4nLCAnLW9tYWUnLCAnPG91dGZpbGUubWFlPic=

> <r_lp_tautomer_probability>
1

> <r_epik_Ionization_Penalty>
1.90709e-08

> <r_epik_Ionization_Penalty_Charging>
2.37982e-11

> <r_epik_Ionization_Penalty_Neutral>
1.90471e-08

> <r_epik_State_Penalty>
-0

> <r_epik_Charging_Adjusted_Penalty>
2.37982e-11

> <i_epik_Tot_Q>
0

> <i_epik_Tot_abs_Q>
0

> <r_epik_Metal_State_Penalty>
-0

> <b_epik_Metal_Only>
0

> <s_lp_Force_Field>
OPLS_2005

> <r_lp_Energy>
27.4579

> <b_lp_Chiralities_Consistent>
1

> <s_lp_Variant>
AV-unprocessed.smi:1662-3

> <Gold.Version>
5.8.1

> <Gold.Id.Protein>
6NUR|6NUR_protein|mol2

> <Gold.PLP.Fitness>
42.5920

> <Gold.PLP.PLP>
-34.9278

> <Gold.PLP.part.hbond>
-3.6145

> <Gold.PLP.part.metal>
0.0000

> <Gold.PLP.part.buried>
-5.3272

> <Gold.PLP.part.nonpolar>
-27.6053

> <Gold.PLP.part.repulsive>
0.2602

> <Gold.PLP.ligand.clash>
0.0000

> <Gold.PLP.ligand.torsion>
0.5155

> <Gold.PLP.Chemscore.Hbond>
2.8960

> <Gold.PLP.Chemscore.CHOScore>
0.0000

> <Gold.PLP.Chemscore.Metal>
0.0000

> <Gold.Chemscore.Hbonds>
donor molecule, donor type, donor heavy atom, donor atom, acceptor molecule, acceptor atom, score
      P1  H  6896  6907       L1    21  0.93
      P1  H  7989  7998       L1     7  0.53
      P1  H 10752 10764       L1    18  1.00

> <Gold.PLP.Chemscore.Internal.Correction>
0.0071

> <Gold.Rescore>
     Score         DG    S(hbond)    S(metal)    S(lipo)     H(rot)  DE(clash)    DE(int)     intcor
     19.06     -21.22       2.97        0.00      81.52       1.45       0.01       2.16       ----

> <Gold.Chemscore.Fitness>
19.0555

> <Gold.Chemscore.DG>
-21.2197

> <Gold.Chemscore.ZeroCoef>
-5.4800

> <Gold.Chemscore.Hbond>
2.9684

> <Gold.Chemscore.Metal>
0.0000

> <Gold.Chemscore.Lipo>
81.5230

> <Gold.Chemscore.Internal_Hbond>
0.0000

> <Gold.Chemscore.DEClash>
0.0059

> <Gold.Chemscore.DEInternal>
2.1583

> <Gold.Chemscore.Rot>
1.4504

> <Gold.Chemscore.Internal.Correction>
   9.000000E+99

> <Gold.Chemscore.Hbonds>
donor molecule, donor type, donor heavy atom, donor atom, acceptor molecule, acceptor atom, score
      P1  H  6896  6907       L1    21  0.80
      P1  H  7989  7998       L1     7  0.12
      P1  H  7997  8008       L1     7  0.01
      P1  H 10752 10764       L1    18  0.97

> <Gold.Chemscore.Hbond.Weighted>
-9.9145

> <Gold.Chemscore.Metal.Weighted>
-0.0000

> <Gold.Chemscore.Lipo.Weighted>
-9.5382

> <Gold.Chemscore.Internal_Hbond.Weighted>
0.0000

> <Gold.Chemscore.DEClash.Weighted>
0.0059

> <Gold.Chemscore.DEInternal.Weighted>
2.1583

> <Gold.Chemscore.Rot.Weighted>
3.7129

> <Gold.Chemscore.Internal.Correction.Weighted>
   9.000000E+99

> <Gold.Protein.RotatedTorsions>
[ 6907 6896 6895 6894 ] final -139.55 input  -60.11 | X-H torsion
[ 7974 7965 7964 7962 ] final  -24.19 input  175.53 | X-H torsion
[ 8008 7997 7996 7995 ] final  -45.76 input   59.86 | X-H torsion
[ 10167 10162 10161 10158 ] final -155.22 input  -65.29 | X-H torsion
[ 10718 10713 10712 10709 ] final  166.33 input   66.30 | X-H torsion
[ 10763 10752 10751 10750 ] final  -38.06 input  -60.55 | X-H torsion
[ 11005 11000 10999 10996 ] final   18.58 input  -57.11 | X-H torsion

> <Gold.Protein.ActiveResidues>
 VAL166  LYS551  ARG553  GLY616  TRP617  ASP618  TYR619  PRO620  LYS621  CYS622 
 ASP623  PHE694  ASN695  SER759  ASP760  ASP761  ALA762  ILE779  LEU786  VAL792 
 PHE793  MET794  SER795  GLU796  ALA797  LYS798  CYS799  TRP800  GLU811  SER814 

> <Gold.Protein.RotatedAtoms>
  151.0492  133.5639  159.2643 H   0  0  0  0  0  0  0  0  0  0  0  0  # atno 6907 bound_to 6896
  151.2656  135.0667  159.9124 H   0  0  0  0  0  0  0  0  0  0  0  0  # atno 6908 bound_to 6896
  152.5379  134.0230  159.8044 H   0  0  0  0  0  0  0  0  0  0  0  0  # atno 6909 bound_to 6896
  146.1570  140.4718  142.8587 H   0  0  0  0  0  0  0  0  0  0  0  0  # atno 7974 bound_to 7965
  154.4003  140.1388  156.3900 H   0  0  0  0  0  0  0  0  0  0  0  0  # atno 8008 bound_to 7997
  155.7923  140.3478  155.5335 H   0  0  0  0  0  0  0  0  0  0  0  0  # atno 8009 bound_to 7997
  155.8567  140.0950  157.1630 H   0  0  0  0  0  0  0  0  0  0  0  0  # atno 8010 bound_to 7997
  139.6949  143.9359  152.2402 H   0  0  0  0  0  0  0  0  0  0  0  0  # atno 10167 bound_to 10162
  157.0674  131.0356  151.2624 H   0  0  0  0  0  0  0  0  0  0  0  0  # atno 10718 bound_to 10713
  153.9066  135.6797  153.4753 H   0  0  0  0  0  0  0  0  0  0  0  0  # atno 10763 bound_to 10752
  153.1101  135.4787  154.9017 H   0  0  0  0  0  0  0  0  0  0  0  0  # atno 10764 bound_to 10752
  154.7548  135.3194  154.8445 H   0  0  0  0  0  0  0  0  0  0  0  0  # atno 10765 bound_to 10752
  140.4232  134.1497  155.7674 H   0  0  0  0  0  0  0  0  0  0  0  0  # atno 11005 bound_to 11000
  144.7976  140.6152  143.6499 LP  0  0  0  0  0  0  0  0  0  0  0  0  # atno 17320 bound_to 7965
  145.4684  139.1506  143.3828 LP  0  0  0  0  0  0  0  0  0  0  0  0  # atno 17321 bound_to 7965
  139.9185  144.6814  150.8486 LP  0  0  0  0  0  0  0  0  0  0  0  0  # atno 17342 bound_to 10162
  140.7693  143.3392  151.2244 LP  0  0  0  0  0  0  0  0  0  0  0  0  # atno 17343 bound_to 10162
  157.4906  130.7820  149.7504 LP  0  0  0  0  0  0  0  0  0  0  0  0  # atno 17370 bound_to 10713
  155.9960  130.3908  150.2794 LP  0  0  0  0  0  0  0  0  0  0  0  0  # atno 17371 bound_to 10713
  141.1775  133.8482  157.1370 LP  0  0  0  0  0  0  0  0  0  0  0  0  # atno 17394 bound_to 11000
  140.0185  134.9956  157.0544 LP  0  0  0  0  0  0  0  0  0  0  0  0  # atno 17395 bound_to 11000

$$$$
