AV-unprocessed.smi:3298|AV-procd|sdf|12642|dock4
  -GOLD-   2272018573D 1   1.00000     0.00000
 Structure written by MMmdl.
 35 36  0  0  0  0  0  0  0  0  1 V2000
  153.7325  140.9768  160.5730 C   0  0  0  0  0  0  0  0  0  0  0  0
  152.9543  142.1064  159.9309 C   0  0  0  0  0  0  0  0  0  0  0  0
  152.1755  141.8830  158.7753 C   0  0  0  0  0  0  0  0  0  0  0  0
  151.4629  142.9721  158.2157 C   0  0  0  0  0  0  0  0  0  0  0  0
  150.6469  142.8972  157.0522 N   0  0  0  0  0  0  0  0  0  0  0  0
  150.4243  141.8593  156.2261 C   0  0  0  0  0  0  0  0  0  0  0  0
  150.9033  140.7317  156.3423 O   0  0  0  0  0  0  0  0  0  0  0  0
  149.5884  142.2037  155.2355 N   0  0  0  0  0  0  0  0  0  0  0  0
  149.1414  141.3153  154.1671 C   0  0  2  0  0  0  0  0  0  0  0  0
  147.8251  141.7653  153.5903 C   0  0  0  0  0  0  0  0  0  0  0  0
  146.8668  140.8517  153.7250 C   0  0  0  0  0  0  0  0  0  0  0  0
  147.3353  139.6120  154.4414 C   0  0  1  0  0  0  0  0  0  0  0  0
  147.0617  138.3361  153.6278 C   0  0  0  0  0  0  0  0  0  0  0  0
  147.6482  138.4384  152.3474 O   0  0  0  0  0  0  0  0  0  0  0  0
  148.8417  139.8890  154.6915 C   0  0  0  0  0  0  0  0  0  0  0  0
  151.5832  144.2310  158.8402 C   0  0  0  0  0  0  0  0  0  0  0  0
  152.3881  144.3475  159.9904 C   0  0  0  0  0  0  0  0  0  0  0  0
  153.0612  143.3111  160.5317 N   0  0  0  0  0  0  0  0  0  0  0  0
  149.8857  141.2719  153.3700 H   0  0  0  0  0  0  0  0  0  0  0  0
  146.8025  139.5638  155.3920 H   0  0  0  0  0  0  0  0  0  0  0  0
  153.6168  140.0474  160.0146 H   0  0  0  0  0  0  0  0  0  0  0  0
  153.3822  140.8069  161.5915 H   0  0  0  0  0  0  0  0  0  0  0  0
  154.7947  141.2200  160.6107 H   0  0  0  0  0  0  0  0  0  0  0  0
  152.1490  140.8941  158.3465 H   0  0  0  0  0  0  0  0  0  0  0  0
  150.1416  143.7431  156.8335 H   0  0  0  0  0  0  0  0  0  0  0  0
  149.2381  143.1503  155.2147 H   0  0  0  0  0  0  0  0  0  0  0  0
  147.7047  142.7272  153.1137 H   0  0  0  0  0  0  0  0  0  0  0  0
  145.8488  140.9669  153.3829 H   0  0  0  0  0  0  0  0  0  0  0  0
  147.4843  137.4660  154.1311 H   0  0  0  0  0  0  0  0  0  0  0  0
  145.9903  138.1608  153.5229 H   0  0  0  0  0  0  0  0  0  0  0  0
  147.9005  137.5736  152.0618 H   0  0  0  0  0  0  0  0  0  0  0  0
  149.4653  139.1674  154.1619 H   0  0  0  0  0  0  0  0  0  0  0  0
  149.0792  139.7833  155.7510 H   0  0  0  0  0  0  0  0  0  0  0  0
  151.0673  145.0959  158.4496 H   0  0  0  0  0  0  0  0  0  0  0  0
  152.4943  145.2996  160.4887 H   0  0  0  0  0  0  0  0  0  0  0  0
  1  2  1  0  0  0  0
  1 21  1  0  0  0  0
  1 22  1  0  0  0  0
  1 23  1  0  0  0  0
  2 18  1  0  0  0  0
  2  3  2  0  0  0  0
  3  4  1  0  0  0  0
  3 24  1  0  0  0  0
  4  5  1  0  0  0  0
  4 16  2  0  0  0  0
  5  6  1  0  0  0  0
  5 25  1  0  0  0  0
  6  7  2  0  0  0  0
  6  8  1  0  0  0  0
  8  9  1  0  0  0  0
  8 26  1  0  0  0  0
  9 19  1  0  0  0  0
  9 15  1  0  0  0  0
  9 10  1  0  0  0  0
 10 11  2  0  0  0  0
 10 27  1  0  0  0  0
 11 12  1  0  0  0  0
 11 28  1  0  0  0  0
 12 20  1  0  0  0  0
 12 13  1  0  0  0  0
 12 15  1  0  0  0  0
 13 14  1  0  0  0  0
 13 29  1  0  0  0  0
 13 30  1  0  0  0  0
 14 31  1  0  0  0  0
 15 32  1  0  0  0  0
 15 33  1  0  0  0  0
 16 17  1  0  0  0  0
 16 34  1  0  0  0  0
 17 18  2  0  0  0  0
 17 35  1  0  0  0  0
M  END
> <s_m_source_file>
AV-unprocessed.smi

> <i_m_source_file_index>
3298

> <i_lp_mmshare_version>
43012

> <i_f3d_flags>
0

> <s_epik_input>
W0NIM11jMVtjSF1jKFtjSF1bY0hdbjEpW05IXUMoPU8pW05IXVtDQEBIXTJbQ0hdPVtDSF1bQ0BASF0oW0NIMl0yKVtDSDJdW09IXQ==

> <s_epik_cmdline>
J2VwaWtfcHl0aG9uJywgJy1waCcsICc3LjAnLCAnLXRuJywgJzgnLCAnLW1hJywgJzIwMCcsICctbWV0YWxfYmluZGluZycsICctaW1hZScsICc8aW5maWxlLm1hZT4nLCAnLW9tYWUnLCAnPG91dGZpbGUubWFlPic=

> <r_epik_Ionization_Penalty>
0.379275

> <r_epik_Ionization_Penalty_Charging>
0

> <r_epik_Ionization_Penalty_Neutral>
0.379275

> <r_epik_State_Penalty>
0.377195

> <r_epik_Charging_Adjusted_Penalty>
0.377195

> <i_epik_Tot_Q>
0

> <i_epik_Tot_abs_Q>
0

> <r_epik_Metal_State_Penalty>
0.22815

> <b_epik_Metal_Only>
0

> <s_lp_Force_Field>
OPLS_2005

> <r_lp_Energy>
21.788

> <b_lp_Chiralities_Consistent>
1

> <s_lp_Variant>
AV-unprocessed.smi:3298-3

> <Gold.Version>
5.8.1

> <Gold.Id.Protein>
6NUR|6NUR_protein|mol2

> <Gold.PLP.Fitness>
46.2398

> <Gold.PLP.PLP>
-37.9345

> <Gold.PLP.part.hbond>
-4.0000

> <Gold.PLP.part.metal>
0.0000

> <Gold.PLP.part.buried>
-4.2605

> <Gold.PLP.part.nonpolar>
-29.5673

> <Gold.PLP.part.repulsive>
0.2457

> <Gold.PLP.ligand.clash>
0.0000

> <Gold.PLP.ligand.torsion>
0.3194

> <Gold.PLP.Chemscore.Hbond>
2.9760

> <Gold.PLP.Chemscore.CHOScore>
0.0000

> <Gold.PLP.Chemscore.Metal>
0.0000

> <Gold.Chemscore.Hbonds>
donor molecule, donor type, donor heavy atom, donor atom, acceptor molecule, acceptor atom, score
      L1  H     5    25       P1  8028  1.00
      L1  H     8    26       P1  8028  1.00
      L1  H    14    31       P1  7948  1.00

> <Gold.PLP.Chemscore.Internal.Correction>
0.0161

> <Gold.Rescore>
     Score         DG    S(hbond)    S(metal)    S(lipo)     H(rot)  DE(clash)    DE(int)     intcor
     19.28     -22.36       2.94        0.00      99.38       1.78       0.45       2.63       ----

> <Gold.Chemscore.Fitness>
19.2820

> <Gold.Chemscore.DG>
-22.3591

> <Gold.Chemscore.ZeroCoef>
-5.4800

> <Gold.Chemscore.Hbond>
2.9362

> <Gold.Chemscore.Metal>
0.0000

> <Gold.Chemscore.Lipo>
99.3847

> <Gold.Chemscore.Internal_Hbond>
0.0000

> <Gold.Chemscore.DEClash>
0.4459

> <Gold.Chemscore.DEInternal>
2.6311

> <Gold.Chemscore.Rot>
1.7796

> <Gold.Chemscore.Internal.Correction>
   9.000000E+99

> <Gold.Chemscore.Hbonds>
donor molecule, donor type, donor heavy atom, donor atom, acceptor molecule, acceptor atom, score
      L1  H     5    25       P1  8028  0.94
      L1  H     8    26       P1  8028  1.00
      L1  H    14    31       P1  7948  0.98

> <Gold.Chemscore.Hbond.Weighted>
-9.8069

> <Gold.Chemscore.Metal.Weighted>
-0.0000

> <Gold.Chemscore.Lipo.Weighted>
-11.6280

> <Gold.Chemscore.Internal_Hbond.Weighted>
0.0000

> <Gold.Chemscore.DEClash.Weighted>
0.4459

> <Gold.Chemscore.DEInternal.Weighted>
2.6311

> <Gold.Chemscore.Rot.Weighted>
4.5558

> <Gold.Chemscore.Internal.Correction.Weighted>
   9.000000E+99

> <Gold.Protein.RotatedTorsions>
[ 6907 6896 6895 6894 ] final -136.30 input  -60.11 | X-H torsion
[ 7974 7965 7964 7962 ] final   29.73 input  175.53 | X-H torsion
[ 8008 7997 7996 7995 ] final -174.07 input   59.86 | X-H torsion
[ 10167 10162 10161 10158 ] final  -63.50 input  -65.29 | X-H torsion
[ 10718 10713 10712 10709 ] final   -4.26 input   66.30 | X-H torsion
[ 10763 10752 10751 10750 ] final  160.82 input  -60.55 | X-H torsion
[ 11005 11000 10999 10996 ] final -150.86 input  -57.11 | X-H torsion

> <Gold.Protein.ActiveResidues>
 VAL166  LYS551  ARG553  GLY616  TRP617  ASP618  TYR619  PRO620  LYS621  CYS622 
 ASP623  PHE694  ASN695  SER759  ASP760  ASP761  ALA762  ILE779  LEU786  VAL792 
 PHE793  MET794  SER795  GLU796  ALA797  LYS798  CYS799  TRP800  GLU811  SER814 

> <Gold.Protein.RotatedAtoms>
  151.0084  133.5989  159.2685 H   0  0  0  0  0  0  0  0  0  0  0  0  # atno 6907 bound_to 6896
  151.3150  135.0803  159.9295 H   0  0  0  0  0  0  0  0  0  0  0  0  # atno 6908 bound_to 6896
  152.5293  133.9741  159.7830 H   0  0  0  0  0  0  0  0  0  0  0  0  # atno 6909 bound_to 6896
  146.1654  139.6882  142.9005 H   0  0  0  0  0  0  0  0  0  0  0  0  # atno 7974 bound_to 7965
  155.9654  140.1152  157.0859 H   0  0  0  0  0  0  0  0  0  0  0  0  # atno 8008 bound_to 7997
  154.4142  140.1173  156.5302 H   0  0  0  0  0  0  0  0  0  0  0  0  # atno 8009 bound_to 7997
  155.6666  140.3473  155.4805 H   0  0  0  0  0  0  0  0  0  0  0  0  # atno 8010 bound_to 7997
  140.5866  143.2335  151.6230 H   0  0  0  0  0  0  0  0  0  0  0  0  # atno 10167 bound_to 10162
  156.7639  130.5278  149.5780 H   0  0  0  0  0  0  0  0  0  0  0  0  # atno 10718 bound_to 10713
  154.2533  135.2771  155.2807 H   0  0  0  0  0  0  0  0  0  0  0  0  # atno 10763 bound_to 10752
  154.5446  135.5693  153.6872 H   0  0  0  0  0  0  0  0  0  0  0  0  # atno 10764 bound_to 10752
  152.9976  135.6259  154.2681 H   0  0  0  0  0  0  0  0  0  0  0  0  # atno 10765 bound_to 10752
  140.7357  134.3570  157.5158 H   0  0  0  0  0  0  0  0  0  0  0  0  # atno 11005 bound_to 11000
  145.4481  141.0426  143.2820 LP  0  0  0  0  0  0  0  0  0  0  0  0  # atno 17320 bound_to 7965
  144.8085  139.6006  143.7040 LP  0  0  0  0  0  0  0  0  0  0  0  0  # atno 17321 bound_to 7965
  139.5201  144.3232  152.0892 LP  0  0  0  0  0  0  0  0  0  0  0  0  # atno 17342 bound_to 10162
  140.2390  144.4289  150.6268 LP  0  0  0  0  0  0  0  0  0  0  0  0  # atno 17343 bound_to 10162
  156.1321  130.6185  151.0349 LP  0  0  0  0  0  0  0  0  0  0  0  0  # atno 17370 bound_to 10713
  157.6722  131.0859  150.7584 LP  0  0  0  0  0  0  0  0  0  0  0  0  # atno 17371 bound_to 10713
  139.8816  134.9048  156.2885 LP  0  0  0  0  0  0  0  0  0  0  0  0  # atno 17394 bound_to 11000
  140.9881  133.7225  156.0772 LP  0  0  0  0  0  0  0  0  0  0  0  0  # atno 17395 bound_to 11000

$$$$
