AV-unprocessed.smi:2171|AV-procd|sdf|8828|dock10
  -GOLD-   2272012 23D 1   1.00000     0.00000
 Structure written by MMmdl.
 39 41  0  0  0  0  0  0  0  0  2 V2000
  144.2358  135.4637  152.6546 O   0  0  0  0  0  0  0  0  0  0  0  0
  145.4329  135.3210  152.4079 C   0  0  0  0  0  0  0  0  0  0  0  0
  146.0329  133.9156  152.3191 C   0  0  0  0  0  0  0  0  0  0  0  0
  145.4136  133.1306  151.2648 N   0  0  0  0  0  0  0  0  0  0  0  0
  146.0072  132.5644  150.1556 C   0  0  0  0  0  0  0  0  0  0  0  0
  145.0271  131.9269  149.4503 C   0  0  0  0  0  0  0  0  0  0  0  0
  143.8519  132.1594  150.2184 C   0  0  0  0  0  0  0  0  0  0  0  0
  144.0863  132.8801  151.3032 N   0  0  0  0  0  0  0  0  0  0  0  0
  146.2740  136.3501  152.2180 N   0  0  0  0  0  0  0  0  0  0  0  0
  145.8982  137.7602  152.2421 C   0  0  2  0  0  0  0  0  0  0  0  0
  146.2817  138.5029  150.9500 C   0  0  0  0  0  0  0  0  0  0  0  0
  146.7367  139.9040  151.4035 C   0  0  0  0  0  0  0  0  0  0  0  0
  146.5064  139.9376  152.8603 N   0  3  2  0  0  0  0  0  0  0  0  0
  147.3175  140.8903  153.6492 C   0  0  0  0  0  0  0  0  0  0  0  0
  146.8718  140.8374  155.1244 C   0  0  0  0  0  0  0  0  0  0  0  0
  146.8983  139.3981  155.6783 C   0  0  0  0  0  0  0  0  0  0  0  0
  146.1161  138.4349  154.7646 C   0  0  0  0  0  0  0  0  0  0  0  0
  146.6425  138.5482  153.3236 C   0  0  1  0  0  0  0  0  0  0  0  0
  147.1040  133.9870  152.1265 H   0  0  0  0  0  0  0  0  0  0  0  0
  145.9118  133.3930  153.2694 H   0  0  0  0  0  0  0  0  0  0  0  0
  147.0653  132.6622  149.9620 H   0  0  0  0  0  0  0  0  0  0  0  0
  145.1330  131.3766  148.5273 H   0  0  0  0  0  0  0  0  0  0  0  0
  142.8429  131.8288  150.0212 H   0  0  0  0  0  0  0  0  0  0  0  0
  147.2416  136.1375  152.0221 H   0  0  0  0  0  0  0  0  0  0  0  0
  144.8215  137.8675  152.3905 H   0  0  0  0  0  0  0  0  0  0  0  0
  147.0992  138.0022  150.4288 H   0  0  0  0  0  0  0  0  0  0  0  0
  145.4378  138.5530  150.2609 H   0  0  0  0  0  0  0  0  0  0  0  0
  147.7977  140.0398  151.1875 H   0  0  0  0  0  0  0  0  0  0  0  0
  146.1849  140.7022  150.9064 H   0  0  0  0  0  0  0  0  0  0  0  0
  148.3758  140.6404  153.5601 H   0  0  0  0  0  0  0  0  0  0  0  0
  147.1885  141.8980  153.2528 H   0  0  0  0  0  0  0  0  0  0  0  0
  147.5075  141.4831  155.7308 H   0  0  0  0  0  0  0  0  0  0  0  0
  145.8596  141.2352  155.2094 H   0  0  0  0  0  0  0  0  0  0  0  0
  147.9324  139.0607  155.7598 H   0  0  0  0  0  0  0  0  0  0  0  0
  146.4860  139.3764  156.6875 H   0  0  0  0  0  0  0  0  0  0  0  0
  146.2204  137.4128  155.1293 H   0  0  0  0  0  0  0  0  0  0  0  0
  145.0519  138.6724  154.7966 H   0  0  0  0  0  0  0  0  0  0  0  0
  147.7006  138.2761  153.3009 H   0  0  0  0  0  0  0  0  0  0  0  0
  145.5365  140.1874  152.9915 H   0  0  0  0  0  0  0  0  0  0  0  0
  1  2  2  0  0  0  0
  2  3  1  0  0  0  0
  2  9  1  0  0  0  0
  3  4  1  0  0  0  0
  3 19  1  0  0  0  0
  3 20  1  0  0  0  0
  4  8  1  0  0  0  0
  4  5  1  0  0  0  0
  5  6  2  0  0  0  0
  5 21  1  0  0  0  0
  6  7  1  0  0  0  0
  6 22  1  0  0  0  0
  7  8  2  0  0  0  0
  7 23  1  0  0  0  0
  9 10  1  0  0  0  0
  9 24  1  0  0  0  0
 10 18  1  0  0  0  0
 10 11  1  0  0  0  0
 10 25  1  0  0  0  0
 11 12  1  0  0  0  0
 11 26  1  0  0  0  0
 11 27  1  0  0  0  0
 12 13  1  0  0  0  0
 12 28  1  0  0  0  0
 12 29  1  0  0  0  0
 13 18  1  0  0  0  0
 13 14  1  0  0  0  0
 13 39  1  0  0  0  0
 14 15  1  0  0  0  0
 14 30  1  0  0  0  0
 14 31  1  0  0  0  0
 15 16  1  0  0  0  0
 15 32  1  0  0  0  0
 15 33  1  0  0  0  0
 16 17  1  0  0  0  0
 16 34  1  0  0  0  0
 16 35  1  0  0  0  0
 17 18  1  0  0  0  0
 17 36  1  0  0  0  0
 17 37  1  0  0  0  0
 18 38  1  0  0  0  0
M  CHG  1  13   1
M  END
> <s_m_source_file>
AV-unprocessed.smi

> <i_m_source_file_index>
2171

> <i_lp_mmshare_version>
43012

> <i_f3d_flags>
0

> <s_epik_input>
bjFbY0hdW2NIXVtjSF1uMVtDSDJdQyg9TylbTkhdW0NASF0oW0NIMl1bQ0gyXTIpW0NAQEhdKE4yMylbQ0gyXVtDSDJdW0NIMl1bQ0gyXTM=

> <s_epik_cmdline>
J2VwaWtfcHl0aG9uJywgJy1waCcsICc3LjAnLCAnLXRuJywgJzgnLCAnLW1hJywgJzIwMCcsICctbWV0YWxfYmluZGluZycsICctaW1hZScsICc8aW5maWxlLm1hZT4nLCAnLW9tYWUnLCAnPG91dGZpbGUubWFlPic=

> <r_lp_tautomer_probability>
1

> <r_epik_Ionization_Penalty>
0.00204179

> <r_epik_Ionization_Penalty_Charging>
0.00203239

> <r_epik_Ionization_Penalty_Neutral>
9.40205e-06

> <r_epik_State_Penalty>
0.00138983

> <r_epik_Charging_Adjusted_Penalty>
0.00342221

> <i_epik_Tot_Q>
1

> <i_epik_Tot_abs_Q>
1

> <r_epik_Metal_State_Penalty>
-0

> <b_epik_Metal_Only>
0

> <s_lp_Force_Field>
OPLS_2005

> <r_lp_Energy>
34.6158

> <b_lp_Chiralities_Consistent>
1

> <s_lp_Variant>
AV-unprocessed.smi:2171-3

> <Gold.Version>
5.8.1

> <Gold.Id.Protein>
6NUR|6NUR_protein|mol2

> <Gold.PLP.Fitness>
41.5332

> <Gold.PLP.PLP>
-27.0881

> <Gold.PLP.part.hbond>
-2.0000

> <Gold.PLP.part.metal>
0.0000

> <Gold.PLP.part.buried>
1.5886

> <Gold.PLP.part.nonpolar>
-29.0217

> <Gold.PLP.part.repulsive>
0.2890

> <Gold.PLP.ligand.clash>
0.0000

> <Gold.PLP.ligand.torsion>
0.0082

> <Gold.PLP.Chemscore.Hbond>
3.0000

> <Gold.PLP.Chemscore.CHOScore>
1.8174

> <Gold.PLP.Chemscore.Metal>
0.0000

> <Gold.Chemscore.Hbonds>
donor molecule, donor type, donor heavy atom, donor atom, acceptor molecule, acceptor atom, score
      L1  H     9    24       P1  7948  1.00
      L1  H    13    39       P1 10175  2.00
      L1  C     5    21       P1 10747  0.74
      L1  C     7    23       P1 10952  0.96

> <Gold.PLP.Chemscore.Internal.Correction>
0.0094

> <Gold.Rescore>
     Score         DG    S(hbond)    S(metal)    S(lipo)     H(rot)  DE(clash)    DE(int)     intcor
     14.89     -18.50       1.99        0.00      86.09       1.44       2.45       1.16       ----

> <Gold.Chemscore.Fitness>
14.8921

> <Gold.Chemscore.DG>
-18.4988

> <Gold.Chemscore.ZeroCoef>
-5.4800

> <Gold.Chemscore.Hbond>
1.9865

> <Gold.Chemscore.Metal>
0.0000

> <Gold.Chemscore.Lipo>
86.0917

> <Gold.Chemscore.Internal_Hbond>
0.0000

> <Gold.Chemscore.DEClash>
2.4452

> <Gold.Chemscore.DEInternal>
1.1615

> <Gold.Chemscore.Rot>
1.4410

> <Gold.Chemscore.Internal.Correction>
   9.000000E+99

> <Gold.Chemscore.Hbonds>
donor molecule, donor type, donor heavy atom, donor atom, acceptor molecule, acceptor atom, score
      L1  H     9    24       P1  7948  1.00
      L1  H    13    39       P1 10175  0.95

> <Gold.Chemscore.Hbond.Weighted>
-6.6350

> <Gold.Chemscore.Metal.Weighted>
-0.0000

> <Gold.Chemscore.Lipo.Weighted>
-10.0727

> <Gold.Chemscore.Internal_Hbond.Weighted>
0.0000

> <Gold.Chemscore.DEClash.Weighted>
2.4452

> <Gold.Chemscore.DEInternal.Weighted>
1.1615

> <Gold.Chemscore.Rot.Weighted>
3.6889

> <Gold.Chemscore.Internal.Correction.Weighted>
   9.000000E+99

> <Gold.Protein.RotatedTorsions>
[ 6907 6896 6895 6894 ] final   64.17 input  -60.11 | X-H torsion
[ 7974 7965 7964 7962 ] final  165.12 input  175.53 | X-H torsion
[ 8008 7997 7996 7995 ] final -122.33 input   59.86 | X-H torsion
[ 10167 10162 10161 10158 ] final   47.01 input  -65.29 | X-H torsion
[ 10718 10713 10712 10709 ] final   34.87 input   66.30 | X-H torsion
[ 10763 10752 10751 10750 ] final -164.94 input  -60.55 | X-H torsion
[ 11005 11000 10999 10996 ] final  -48.52 input  -57.11 | X-H torsion

> <Gold.Protein.ActiveResidues>
 VAL166  LYS551  ARG553  GLY616  TRP617  ASP618  TYR619  PRO620  LYS621  CYS622 
 ASP623  PHE694  ASN695  SER759  ASP760  ASP761  ALA762  ILE779  LEU786  VAL792 
 PHE793  MET794  SER795  GLU796  ALA797  LYS798  CYS799  TRP800  GLU811  SER814 

> <Gold.Protein.RotatedAtoms>
  152.4311  134.5776  159.9938 H   0  0  0  0  0  0  0  0  0  0  0  0  # atno 6907 bound_to 6896
  151.5899  133.3362  159.3033 H   0  0  0  0  0  0  0  0  0  0  0  0  # atno 6908 bound_to 6896
  150.8204  134.7444  159.6832 H   0  0  0  0  0  0  0  0  0  0  0  0  # atno 6909 bound_to 6896
  144.7516  139.8425  143.6364 H   0  0  0  0  0  0  0  0  0  0  0  0  # atno 7974 bound_to 7965
  155.1625  140.0406  157.2845 H   0  0  0  0  0  0  0  0  0  0  0  0  # atno 8008 bound_to 7997
  154.6326  140.2528  155.7389 H   0  0  0  0  0  0  0  0  0  0  0  0  # atno 8009 bound_to 7997
  156.2492  140.2872  156.0684 H   0  0  0  0  0  0  0  0  0  0  0  0  # atno 8010 bound_to 7997
  140.3080  144.2855  150.6205 H   0  0  0  0  0  0  0  0  0  0  0  0  # atno 10167 bound_to 10162
  157.3157  130.7422  149.6753 H   0  0  0  0  0  0  0  0  0  0  0  0  # atno 10718 bound_to 10713
  154.6980  135.2982  154.9383 H   0  0  0  0  0  0  0  0  0  0  0  0  # atno 10763 bound_to 10752
  154.0325  135.6668  153.4786 H   0  0  0  0  0  0  0  0  0  0  0  0  # atno 10764 bound_to 10752
  153.0660  135.5088  154.8108 H   0  0  0  0  0  0  0  0  0  0  0  0  # atno 10765 bound_to 10752
  141.0705  133.6680  156.3452 H   0  0  0  0  0  0  0  0  0  0  0  0  # atno 11005 bound_to 11000
  146.1473  139.4546  143.0071 LP  0  0  0  0  0  0  0  0  0  0  0  0  # atno 17320 bound_to 7965
  145.6925  141.0160  143.1547 LP  0  0  0  0  0  0  0  0  0  0  0  0  # atno 17321 bound_to 7965
  140.5593  143.2194  151.7793 LP  0  0  0  0  0  0  0  0  0  0  0  0  # atno 17342 bound_to 10162
  139.4900  144.4370  151.9807 LP  0  0  0  0  0  0  0  0  0  0  0  0  # atno 17343 bound_to 10162
  155.9681  130.4238  150.4579 LP  0  0  0  0  0  0  0  0  0  0  0  0  # atno 17370 bound_to 10713
  157.2585  131.0562  151.2335 LP  0  0  0  0  0  0  0  0  0  0  0  0  # atno 17371 bound_to 10713
  140.5683  134.5866  157.5451 LP  0  0  0  0  0  0  0  0  0  0  0  0  # atno 17394 bound_to 11000
  139.9519  134.7602  156.0429 LP  0  0  0  0  0  0  0  0  0  0  0  0  # atno 17395 bound_to 11000

$$$$
