AV-unprocessed.smi:2385|AV-procd|sdf|9463|dock2
  -GOLD-   2272013 93D 1   1.00000     0.00000
 Structure written by MMmdl.
 50 52  0  0  0  0  0  0  0  0  2 V2000
  153.2411  142.8519  162.3931 C   0  0  0  0  0  0  0  0  0  0  0  0
  152.4586  142.8494  161.0968 C   0  0  0  0  0  0  0  0  0  0  0  0
  152.6493  141.8407  160.1338 C   0  0  0  0  0  0  0  0  0  0  0  0
  151.8947  141.8854  158.9457 C   0  0  0  0  0  0  0  0  0  0  0  0
  150.9712  142.9364  158.7470 C   0  0  0  0  0  0  0  0  0  0  0  0
  150.2599  142.8869  157.5185 N   0  0  0  0  0  0  0  0  0  0  0  0
  150.0489  141.8240  156.7222 C   0  0  0  0  0  0  0  0  0  0  0  0
  150.4364  140.6780  156.9508 O   0  0  0  0  0  0  0  0  0  0  0  0
  149.3504  142.1710  155.6282 N   0  0  0  0  0  0  0  0  0  0  0  0
  148.9267  141.3020  154.5278 C   0  0  2  0  0  0  0  0  0  0  0  0
  147.6768  141.8298  153.7967 C   0  0  0  0  0  0  0  0  0  0  0  0
  147.2914  140.9021  152.6323 C   0  0  0  0  0  0  0  0  0  0  0  0
  147.0837  139.5076  153.1041 N   0  3  1  0  0  0  0  0  0  0  0  0
  146.5556  138.6110  152.0435 C   0  0  0  0  0  0  0  0  0  0  0  0
  146.0064  137.2931  152.6221 C   0  0  2  0  0  0  0  0  0  0  0  0
  145.6082  136.2444  151.6009 C   0  0  0  0  0  0  0  0  0  0  0  0
  144.6749  135.3434  152.4057 C   0  0  0  0  0  0  0  0  0  0  0  0
  144.0907  136.1738  153.4049 O   0  0  0  0  0  0  0  0  0  0  0  0
  144.6864  137.4659  153.3728 C   0  0  0  0  0  0  0  0  0  0  0  0
  148.3007  138.9689  153.7680 C   0  0  0  0  0  0  0  0  0  0  0  0
  148.7084  139.8407  154.9668 C   0  0  0  0  0  0  0  0  0  0  0  0
  150.7969  143.9057  159.6796 N   0  0  0  0  0  0  0  0  0  0  0  0
  151.5196  143.8615  160.8187 C   0  0  0  0  0  0  0  0  0  0  0  0
  153.6245  141.8569  162.6214 H   0  0  0  0  0  0  0  0  0  0  0  0
  152.6082  143.1697  163.2222 H   0  0  0  0  0  0  0  0  0  0  0  0
  154.0853  143.5378  162.3217 H   0  0  0  0  0  0  0  0  0  0  0  0
  153.3595  141.0439  160.2993 H   0  0  0  0  0  0  0  0  0  0  0  0
  152.0268  141.1169  158.1979 H   0  0  0  0  0  0  0  0  0  0  0  0
  149.8749  143.7661  157.2065 H   0  0  0  0  0  0  0  0  0  0  0  0
  149.0837  143.1415  155.5464 H   0  0  0  0  0  0  0  0  0  0  0  0
  149.7542  141.3129  153.8169 H   0  0  0  0  0  0  0  0  0  0  0  0
  146.8318  141.9038  154.4816 H   0  0  0  0  0  0  0  0  0  0  0  0
  147.8590  142.8371  153.4206 H   0  0  0  0  0  0  0  0  0  0  0  0
  146.3757  141.2754  152.1720 H   0  0  0  0  0  0  0  0  0  0  0  0
  148.0650  140.9172  151.8629 H   0  0  0  0  0  0  0  0  0  0  0  0
  145.7341  139.1070  151.5244 H   0  0  0  0  0  0  0  0  0  0  0  0
  147.3125  138.4241  151.2797 H   0  0  0  0  0  0  0  0  0  0  0  0
  146.7369  136.8613  153.3088 H   0  0  0  0  0  0  0  0  0  0  0  0
  145.0607  136.7031  150.7763 H   0  0  0  0  0  0  0  0  0  0  0  0
  146.4585  135.7003  151.1887 H   0  0  0  0  0  0  0  0  0  0  0  0
  143.9131  134.8747  151.7823 H   0  0  0  0  0  0  0  0  0  0  0  0
  145.2400  134.5527  152.9005 H   0  0  0  0  0  0  0  0  0  0  0  0
  144.8250  137.8642  154.3784 H   0  0  0  0  0  0  0  0  0  0  0  0
  144.0195  138.1396  152.8323 H   0  0  0  0  0  0  0  0  0  0  0  0
  148.1242  137.9499  154.1101 H   0  0  0  0  0  0  0  0  0  0  0  0
  149.1182  138.9196  153.0468 H   0  0  0  0  0  0  0  0  0  0  0  0
  149.6186  139.4447  155.4185 H   0  0  0  0  0  0  0  0  0  0  0  0
  147.9313  139.7764  155.7290 H   0  0  0  0  0  0  0  0  0  0  0  0
  151.3414  144.6571  161.5272 H   0  0  0  0  0  0  0  0  0  0  0  0
  146.3636  139.5606  153.8106 H   0  0  0  0  0  0  0  0  0  0  0  0
  1  2  1  0  0  0  0
  1 24  1  0  0  0  0
  1 25  1  0  0  0  0
  1 26  1  0  0  0  0
  2 23  1  0  0  0  0
  2  3  2  0  0  0  0
  3  4  1  0  0  0  0
  3 27  1  0  0  0  0
  4  5  2  0  0  0  0
  4 28  1  0  0  0  0
  5  6  1  0  0  0  0
  5 22  1  0  0  0  0
  6  7  1  0  0  0  0
  6 29  1  0  0  0  0
  7  8  2  0  0  0  0
  7  9  1  0  0  0  0
  9 10  1  0  0  0  0
  9 30  1  0  0  0  0
 10 21  1  0  0  0  0
 10 11  1  0  0  0  0
 10 31  1  0  0  0  0
 11 12  1  0  0  0  0
 11 32  1  0  0  0  0
 11 33  1  0  0  0  0
 12 13  1  0  0  0  0
 12 34  1  0  0  0  0
 12 35  1  0  0  0  0
 13 14  1  0  0  0  0
 13 20  1  0  0  0  0
 13 50  1  0  0  0  0
 14 15  1  0  0  0  0
 14 36  1  0  0  0  0
 14 37  1  0  0  0  0
 15 19  1  0  0  0  0
 15 16  1  0  0  0  0
 15 38  1  0  0  0  0
 16 17  1  0  0  0  0
 16 39  1  0  0  0  0
 16 40  1  0  0  0  0
 17 18  1  0  0  0  0
 17 41  1  0  0  0  0
 17 42  1  0  0  0  0
 18 19  1  0  0  0  0
 19 43  1  0  0  0  0
 19 44  1  0  0  0  0
 20 21  1  0  0  0  0
 20 45  1  0  0  0  0
 20 46  1  0  0  0  0
 21 47  1  0  0  0  0
 21 48  1  0  0  0  0
 22 23  2  0  0  0  0
 23 49  1  0  0  0  0
M  CHG  1  13   1
M  END
> <s_m_source_file>
AV-unprocessed.smi

> <i_m_source_file_index>
2385

> <i_lp_mmshare_version>
43012

> <i_f3d_flags>
0

> <s_epik_input>
W0NIM11jMVtjSF1bY0hdYyhuW2NIXTEpW05IXUMoPU8pW05IXVtDSF0yW0NIMl1bQ0gyXU4oW0NIMl1bQ0gyXTIpW0NIMl1bQ0BASF0zW0NIMl1bQ0gyXU9bQ0gyXTM=

> <s_epik_cmdline>
J2VwaWtfcHl0aG9uJywgJy1waCcsICc3LjAnLCAnLXRuJywgJzgnLCAnLW1hJywgJzIwMCcsICctbWV0YWxfYmluZGluZycsICctaW1hZScsICc8aW5maWxlLm1hZT4nLCAnLW9tYWUnLCAnPG91dGZpbGUubWFlPic=

> <r_epik_Ionization_Penalty>
0.00752367

> <r_epik_Ionization_Penalty_Charging>
0.00747775

> <r_epik_Ionization_Penalty_Neutral>
4.59207e-05

> <r_epik_State_Penalty>
0.00558817

> <r_epik_Charging_Adjusted_Penalty>
0.0130659

> <i_epik_Tot_Q>
1

> <i_epik_Tot_abs_Q>
1

> <r_epik_Metal_State_Penalty>
-0

> <b_epik_Metal_Only>
0

> <s_lp_Force_Field>
OPLS_2005

> <r_lp_Energy>
37.2882

> <b_lp_Chiralities_Consistent>
1

> <s_lp_Variant>
AV-unprocessed.smi:2385-1

> <Gold.Version>
5.8.1

> <Gold.Id.Protein>
6NUR|6NUR_protein|mol2

> <Gold.PLP.Fitness>
46.4361

> <Gold.PLP.PLP>
-41.8474

> <Gold.PLP.part.hbond>
-2.2608

> <Gold.PLP.part.metal>
0.0000

> <Gold.PLP.part.buried>
-3.9606

> <Gold.PLP.part.nonpolar>
-34.9466

> <Gold.PLP.part.repulsive>
0.3769

> <Gold.PLP.ligand.clash>
0.0000

> <Gold.PLP.ligand.torsion>
0.5800

> <Gold.PLP.Chemscore.Hbond>
1.8892

> <Gold.PLP.Chemscore.CHOScore>
0.0000

> <Gold.PLP.Chemscore.Metal>
0.0000

> <Gold.Chemscore.Hbonds>
donor molecule, donor type, donor heavy atom, donor atom, acceptor molecule, acceptor atom, score
      L1  H     6    29       P1  8028  0.86
      L1  H     9    30       P1  8028  1.00

> <Gold.PLP.Chemscore.Internal.Correction>
0.0811

> <Gold.Rescore>
     Score         DG    S(hbond)    S(metal)    S(lipo)     H(rot)  DE(clash)    DE(int)     intcor
     16.33     -21.81       1.97        0.00     114.14       1.41       2.02       3.46       ----

> <Gold.Chemscore.Fitness>
16.3253

> <Gold.Chemscore.DG>
-21.8061

> <Gold.Chemscore.ZeroCoef>
-5.4800

> <Gold.Chemscore.Hbond>
1.9670

> <Gold.Chemscore.Metal>
0.0000

> <Gold.Chemscore.Lipo>
114.1419

> <Gold.Chemscore.Internal_Hbond>
0.0000

> <Gold.Chemscore.DEClash>
2.0246

> <Gold.Chemscore.DEInternal>
3.4563

> <Gold.Chemscore.Rot>
1.4056

> <Gold.Chemscore.Internal.Correction>
   9.000000E+99

> <Gold.Chemscore.Hbonds>
donor molecule, donor type, donor heavy atom, donor atom, acceptor molecule, acceptor atom, score
      L1  H     6    29       P1  8028  0.71
      L1  H     9    30       P1  8028  0.98

> <Gold.Chemscore.Hbond.Weighted>
-6.5697

> <Gold.Chemscore.Metal.Weighted>
-0.0000

> <Gold.Chemscore.Lipo.Weighted>
-13.3546

> <Gold.Chemscore.Internal_Hbond.Weighted>
0.0000

> <Gold.Chemscore.DEClash.Weighted>
2.0246

> <Gold.Chemscore.DEInternal.Weighted>
3.4563

> <Gold.Chemscore.Rot.Weighted>
3.5982

> <Gold.Chemscore.Internal.Correction.Weighted>
   9.000000E+99

> <Gold.Protein.RotatedTorsions>
[ 6907 6896 6895 6894 ] final  -96.07 input  -60.11 | X-H torsion
[ 7974 7965 7964 7962 ] final -125.06 input  175.53 | X-H torsion
[ 8008 7997 7996 7995 ] final  -37.92 input   59.86 | X-H torsion
[ 10167 10162 10161 10158 ] final  -45.12 input  -65.29 | X-H torsion
[ 10718 10713 10712 10709 ] final  -75.26 input   66.30 | X-H torsion
[ 10763 10752 10751 10750 ] final  -78.79 input  -60.55 | X-H torsion
[ 11005 11000 10999 10996 ] final   29.90 input  -57.11 | X-H torsion

> <Gold.Protein.ActiveResidues>
 VAL166  LYS551  ARG553  GLY616  TRP617  ASP618  TYR619  PRO620  LYS621  CYS622 
 ASP623  PHE694  ASN695  SER759  ASP760  ASP761  ALA762  ILE779  LEU786  VAL792 
 PHE793  MET794  SER795  GLU796  ALA797  LYS798  CYS799  TRP800  GLU811  SER814 

> <Gold.Protein.RotatedAtoms>
  150.6979  134.1559  159.4157 H   0  0  0  0  0  0  0  0  0  0  0  0  # atno 6907 bound_to 6896
  151.9541  135.0153  160.0553 H   0  0  0  0  0  0  0  0  0  0  0  0  # atno 6908 bound_to 6896
  152.1985  133.4789  159.5082 H   0  0  0  0  0  0  0  0  0  0  0  0  # atno 6909 bound_to 6896
  145.0016  140.7825  143.4493 H   0  0  0  0  0  0  0  0  0  0  0  0  # atno 7974 bound_to 7965
  154.4045  140.1591  156.2615 H   0  0  0  0  0  0  0  0  0  0  0  0  # atno 8008 bound_to 7997
  155.9032  140.3432  155.6020 H   0  0  0  0  0  0  0  0  0  0  0  0  # atno 8009 bound_to 7997
  155.7424  140.0794  157.2230 H   0  0  0  0  0  0  0  0  0  0  0  0  # atno 8010 bound_to 7997
  140.6870  143.2895  151.3593 H   0  0  0  0  0  0  0  0  0  0  0  0  # atno 10167 bound_to 10162
  156.0214  130.4436  150.3016 H   0  0  0  0  0  0  0  0  0  0  0  0  # atno 10718 bound_to 10713
  154.5304  135.5718  153.6754 H   0  0  0  0  0  0  0  0  0  0  0  0  # atno 10763 bound_to 10752
  152.9938  135.6203  154.2636 H   0  0  0  0  0  0  0  0  0  0  0  0  # atno 10764 bound_to 10752
  154.2562  135.2857  155.2776 H   0  0  0  0  0  0  0  0  0  0  0  0  # atno 10765 bound_to 10752
  140.3000  134.2767  155.7756 H   0  0  0  0  0  0  0  0  0  0  0  0  # atno 11005 bound_to 11000
  145.2146  139.2188  143.5125 LP  0  0  0  0  0  0  0  0  0  0  0  0  # atno 17320 bound_to 7965
  146.3453  140.1991  142.8589 LP  0  0  0  0  0  0  0  0  0  0  0  0  # atno 17321 bound_to 7965
  139.6238  144.0855  152.2415 LP  0  0  0  0  0  0  0  0  0  0  0  0  # atno 17342 bound_to 10162
  140.0307  144.6083  150.7490 LP  0  0  0  0  0  0  0  0  0  0  0  0  # atno 17343 bound_to 10162
  157.1119  131.0223  151.3044 LP  0  0  0  0  0  0  0  0  0  0  0  0  # atno 17370 bound_to 10713
  157.4698  130.7702  149.7312 LP  0  0  0  0  0  0  0  0  0  0  0  0  # atno 17371 bound_to 10713
  141.2130  133.7640  156.9753 LP  0  0  0  0  0  0  0  0  0  0  0  0  # atno 17394 bound_to 11000
  140.1117  134.9472  157.2076 LP  0  0  0  0  0  0  0  0  0  0  0  0  # atno 17395 bound_to 11000

$$$$
