AV-unprocessed.smi:1196|AV-procd|sdf|5001|dock8
  -GOLD-   22720 4 13D 1   1.00000     0.00000
 Structure written by MMmdl.
 36 37  0  0  0  0  0  0  0  0  2 V2000
  152.2130  140.0995  156.2285 C   0  0  0  0  0  0  0  0  0  0  0  0
  151.5101  140.5304  157.5254 C   0  0  1  0  0  0  0  0  0  0  0  0
  151.0361  141.9945  157.4476 C   0  0  0  0  0  0  0  0  0  0  0  0
  151.6557  142.8308  158.4606 N   0  0  0  0  0  0  0  0  0  0  0  0
  151.6216  144.2047  158.5727 C   0  0  0  0  0  0  0  0  0  0  0  0
  152.3509  144.5405  159.6773 C   0  0  0  0  0  0  0  0  0  0  0  0
  152.7985  143.2868  160.1802 C   0  0  0  0  0  0  0  0  0  0  0  0
  152.3794  142.2652  159.4511 N   0  0  0  0  0  0  0  0  0  0  0  0
  150.3761  139.6482  157.7935 N   0  0  0  0  0  0  0  0  0  0  0  0
  149.2404  139.5983  157.0812 C   0  0  0  0  0  0  0  0  0  0  0  0
  149.0250  140.3143  156.1026 O   0  0  0  0  0  0  0  0  0  0  0  0
  148.1955  138.5823  157.5499 C   0  0  0  0  0  0  0  0  0  0  0  0
  148.7920  137.4756  158.4410 C   0  0  0  0  0  0  0  0  0  0  0  0
  147.7406  136.4477  158.9097 C   0  0  2  0  0  0  0  0  0  0  0  0
  147.0248  136.9125  160.0852 N   0  5  0  0  0  0  0  0  0  0  0  0
  147.2050  136.0134  161.0811 C   0  0  0  0  0  0  0  0  0  0  0  0
  146.7480  136.0525  162.2212 O   0  0  0  0  0  0  0  0  0  0  0  0
  147.9868  135.0078  160.6749 N   0  0  0  0  0  0  0  0  0  0  0  0
  148.3749  135.1658  159.4137 C   0  0  0  0  0  0  0  0  0  0  0  0
  149.1071  134.4258  158.7582 O   0  0  0  0  0  0  0  0  0  0  0  0
  153.0721  140.7370  156.0186 H   0  0  0  0  0  0  0  0  0  0  0  0
  151.5386  140.1576  155.3735 H   0  0  0  0  0  0  0  0  0  0  0  0
  152.5766  139.0739  156.2971 H   0  0  0  0  0  0  0  0  0  0  0  0
  152.2287  140.4513  158.3434 H   0  0  0  0  0  0  0  0  0  0  0  0
  151.2845  142.4158  156.4728 H   0  0  0  0  0  0  0  0  0  0  0  0
  149.9507  142.0561  157.5443 H   0  0  0  0  0  0  0  0  0  0  0  0
  151.0889  144.8214  157.8638 H   0  0  0  0  0  0  0  0  0  0  0  0
  152.5373  145.5306  160.0657 H   0  0  0  0  0  0  0  0  0  0  0  0
  153.4106  143.0903  161.0481 H   0  0  0  0  0  0  0  0  0  0  0  0
  150.4687  139.0142  158.5743 H   0  0  0  0  0  0  0  0  0  0  0  0
  147.4133  139.1178  158.0889 H   0  0  0  0  0  0  0  0  0  0  0  0
  147.7201  138.1293  156.6786 H   0  0  0  0  0  0  0  0  0  0  0  0
  149.5703  136.9560  157.8790 H   0  0  0  0  0  0  0  0  0  0  0  0
  149.2905  137.9204  159.3046 H   0  0  0  0  0  0  0  0  0  0  0  0
  147.0707  136.1962  158.0863 H   0  0  0  0  0  0  0  0  0  0  0  0
  148.2571  134.2306  161.2588 H   0  0  0  0  0  0  0  0  0  0  0  0
  1  2  1  0  0  0  0
  1 21  1  0  0  0  0
  1 22  1  0  0  0  0
  1 23  1  0  0  0  0
  2  3  1  0  0  0  0
  2  9  1  0  0  0  0
  2 24  1  0  0  0  0
  3  4  1  0  0  0  0
  3 25  1  0  0  0  0
  3 26  1  0  0  0  0
  4  8  1  0  0  0  0
  4  5  1  0  0  0  0
  5  6  2  0  0  0  0
  5 27  1  0  0  0  0
  6  7  1  0  0  0  0
  6 28  1  0  0  0  0
  7  8  2  0  0  0  0
  7 29  1  0  0  0  0
  9 10  1  0  0  0  0
  9 30  1  0  0  0  0
 10 11  2  0  0  0  0
 10 12  1  0  0  0  0
 12 13  1  0  0  0  0
 12 31  1  0  0  0  0
 12 32  1  0  0  0  0
 13 14  1  0  0  0  0
 13 33  1  0  0  0  0
 13 34  1  0  0  0  0
 14 19  1  0  0  0  0
 14 15  1  0  0  0  0
 14 35  1  0  0  0  0
 15 16  1  0  0  0  0
 16 17  2  0  0  0  0
 16 18  1  0  0  0  0
 18 19  1  0  0  0  0
 18 36  1  0  0  0  0
 19 20  2  0  0  0  0
M  CHG  1  15  -1
M  END
> <s_m_source_file>
AV-unprocessed.smi

> <i_m_source_file_index>
1196

> <i_lp_mmshare_version>
43012

> <i_f3d_flags>
0

> <s_epik_input>
bjFbY0hdW2NIXVtjSF1uMVtDSDJdW0NAQEhdKFtDSDNdKVtOSF1DKD1PKVtDSDJdW0NIMl1bQ0BASF0yW05IXUMoPU8pW05IXUMyPU8=

> <s_epik_cmdline>
J2VwaWtfcHl0aG9uJywgJy1waCcsICc3LjAnLCAnLXRuJywgJzgnLCAnLW1hJywgJzIwMCcsICctbWV0YWxfYmluZGluZycsICctaW1hZScsICc8aW5maWxlLm1hZT4nLCAnLW9tYWUnLCAnPG91dGZpbGUubWFlPic=

> <r_lp_tautomer_probability>
1

> <r_epik_Ionization_Penalty>
5.79547

> <r_epik_Ionization_Penalty_Charging>
5.79516

> <r_epik_Ionization_Penalty_Neutral>
0.000313087

> <r_epik_State_Penalty>
5.80096

> <r_epik_Charging_Adjusted_Penalty>
11.5961

> <i_epik_Tot_Q>
-1

> <i_epik_Tot_abs_Q>
1

> <r_epik_Metal_State_Penalty>
2.14443

> <b_epik_Metal_Only>
1

> <s_lp_Force_Field>
OPLS_2005

> <r_lp_Energy>
12.2353

> <b_lp_Chiralities_Consistent>
1

> <s_lp_Variant>
AV-unprocessed.smi:1196-6

> <Gold.Version>
5.8.1

> <Gold.Id.Protein>
6NUR|6NUR_protein|mol2

> <Gold.PLP.Fitness>
43.2510

> <Gold.PLP.PLP>
-33.9296

> <Gold.PLP.part.hbond>
-2.0000

> <Gold.PLP.part.metal>
0.0000

> <Gold.PLP.part.buried>
-4.9170

> <Gold.PLP.part.nonpolar>
-26.9787

> <Gold.PLP.part.repulsive>
0.2329

> <Gold.PLP.ligand.clash>
0.0000

> <Gold.PLP.ligand.torsion>
1.3791

> <Gold.PLP.Chemscore.Hbond>
3.0000

> <Gold.PLP.Chemscore.CHOScore>
1.0000

> <Gold.PLP.Chemscore.Metal>
0.0000

> <Gold.Chemscore.Hbonds>
donor molecule, donor type, donor heavy atom, donor atom, acceptor molecule, acceptor atom, score
      P1  H  6896  6908       L1    20  1.00
      P1  H  6934  6947       L1    15  0.78

> <Gold.PLP.Chemscore.Internal.Correction>
0.0795

> <Gold.Rescore>
     Score         DG    S(hbond)    S(metal)    S(lipo)     H(rot)  DE(clash)    DE(int)     intcor
      9.27     -11.45       1.80        0.00      63.08       2.89       0.03       2.15       ----

> <Gold.Chemscore.Fitness>
9.2658

> <Gold.Chemscore.DG>
-11.4496

> <Gold.Chemscore.ZeroCoef>
-5.4800

> <Gold.Chemscore.Hbond>
1.7962

> <Gold.Chemscore.Metal>
0.0000

> <Gold.Chemscore.Lipo>
63.0812

> <Gold.Chemscore.Internal_Hbond>
0.0000

> <Gold.Chemscore.DEClash>
0.0323

> <Gold.Chemscore.DEInternal>
2.1514

> <Gold.Chemscore.Rot>
2.8946

> <Gold.Chemscore.Internal.Correction>
   9.000000E+99

> <Gold.Chemscore.Hbonds>
donor molecule, donor type, donor heavy atom, donor atom, acceptor molecule, acceptor atom, score
      P1  H  6896  6908       L1    20  0.91
      P1  H  6934  6947       L1    15  0.29

> <Gold.Chemscore.Hbond.Weighted>
-5.9992

> <Gold.Chemscore.Metal.Weighted>
-0.0000

> <Gold.Chemscore.Lipo.Weighted>
-7.3805

> <Gold.Chemscore.Internal_Hbond.Weighted>
0.0000

> <Gold.Chemscore.DEClash.Weighted>
0.0323

> <Gold.Chemscore.DEInternal.Weighted>
2.1514

> <Gold.Chemscore.Rot.Weighted>
7.4101

> <Gold.Chemscore.Internal.Correction.Weighted>
   9.000000E+99

> <Gold.Protein.RotatedTorsions>
[ 6907 6896 6895 6894 ] final  145.98 input  -60.11 | X-H torsion
[ 7974 7965 7964 7962 ] final   22.56 input  175.53 | X-H torsion
[ 8008 7997 7996 7995 ] final   -5.86 input   59.86 | X-H torsion
[ 10167 10162 10161 10158 ] final  -23.18 input  -65.29 | X-H torsion
[ 10718 10713 10712 10709 ] final   82.16 input   66.30 | X-H torsion
[ 10763 10752 10751 10750 ] final -156.67 input  -60.55 | X-H torsion
[ 11005 11000 10999 10996 ] final  -77.54 input  -57.11 | X-H torsion

> <Gold.Protein.ActiveResidues>
 VAL166  LYS551  ARG553  GLY616  TRP617  ASP618  TYR619  PRO620  LYS621  CYS622 
 ASP623  PHE694  ASN695  SER759  ASP760  ASP761  ALA762  ILE779  LEU786  VAL792 
 PHE793  MET794  SER795  GLU796  ALA797  LYS798  CYS799  TRP800  GLU811  SER814 

> <Gold.Protein.RotatedAtoms>
  152.1738  133.4661  159.4922 H   0  0  0  0  0  0  0  0  0  0  0  0  # atno 6907 bound_to 6896
  150.6924  134.1919  159.4297 H   0  0  0  0  0  0  0  0  0  0  0  0  # atno 6908 bound_to 6896
  151.9827  135.0020  160.0609 H   0  0  0  0  0  0  0  0  0  0  0  0  # atno 6909 bound_to 6896
  146.2023  139.7868  142.8752 H   0  0  0  0  0  0  0  0  0  0  0  0  # atno 7974 bound_to 7965
  154.5996  140.2448  155.7810 H   0  0  0  0  0  0  0  0  0  0  0  0  # atno 8008 bound_to 7997
  156.2302  140.2969  156.0122 H   0  0  0  0  0  0  0  0  0  0  0  0  # atno 8009 bound_to 7997
  155.2233  140.0401  157.2942 H   0  0  0  0  0  0  0  0  0  0  0  0  # atno 8010 bound_to 7997
  140.7287  143.4466  151.0577 H   0  0  0  0  0  0  0  0  0  0  0  0  # atno 10167 bound_to 10162
  157.6850  131.0035  150.2333 H   0  0  0  0  0  0  0  0  0  0  0  0  # atno 10718 bound_to 10713
  154.7695  135.3141  154.8218 H   0  0  0  0  0  0  0  0  0  0  0  0  # atno 10763 bound_to 10752
  153.8957  135.6821  153.4762 H   0  0  0  0  0  0  0  0  0  0  0  0  # atno 10764 bound_to 10752
  153.1307  135.4781  154.9278 H   0  0  0  0  0  0  0  0  0  0  0  0  # atno 10765 bound_to 10752
  141.1661  133.7027  156.7836 H   0  0  0  0  0  0  0  0  0  0  0  0  # atno 11005 bound_to 11000
  145.3440  141.0293  143.3376 LP  0  0  0  0  0  0  0  0  0  0  0  0  # atno 17320 bound_to 7965
  144.8712  139.5035  143.6766 LP  0  0  0  0  0  0  0  0  0  0  0  0  # atno 17321 bound_to 7965
  139.8139  143.7913  152.3173 LP  0  0  0  0  0  0  0  0  0  0  0  0  # atno 17342 bound_to 10162
  139.7972  144.7388  150.9874 LP  0  0  0  0  0  0  0  0  0  0  0  0  # atno 17343 bound_to 10162
  156.2962  130.3752  149.7794 LP  0  0  0  0  0  0  0  0  0  0  0  0  # atno 17370 bound_to 10713
  156.5439  130.8312  151.3278 LP  0  0  0  0  0  0  0  0  0  0  0  0  # atno 17371 bound_to 10713
  140.2376  134.8638  157.3541 LP  0  0  0  0  0  0  0  0  0  0  0  0  # atno 17394 bound_to 11000
  140.1828  134.4468  155.7762 LP  0  0  0  0  0  0  0  0  0  0  0  0  # atno 17395 bound_to 11000

$$$$
