AV-unprocessed.smi:1922|AV-procd|sdf|7787|dock7
  -GOLD-   22720 9533D 1   1.00000     0.00000
 Structure written by MMmdl.
 34 35  0  0  0  0  0  0  0  0  2 V2000
  152.9609  138.0858  160.0673 O   0  0  0  0  0  0  0  0  0  0  0  0
  153.7236  138.6063  159.2516 C   0  0  0  0  0  0  0  0  0  0  0  0
  153.9964  137.9523  157.8881 C   0  0  0  0  0  0  0  0  0  0  0  0
  152.8993  138.1013  156.9204 N   0  0  0  0  0  0  0  0  0  0  0  0
  152.5669  139.4899  156.6139 N   0  5  0  0  0  0  0  0  0  0  0  0
  151.5791  139.7522  155.7175 C   0  0  0  0  0  0  0  0  0  0  0  0
  151.2574  140.8935  155.3952 O   0  0  0  0  0  0  0  0  0  0  0  0
  150.8757  138.6265  155.1256 C   0  0  0  0  0  0  0  0  0  0  0  0
  151.1858  137.3550  155.4473 C   0  0  0  0  0  0  0  0  0  0  0  0
  152.2419  137.0269  156.3973 C   0  0  0  0  0  0  0  0  0  0  0  0
  152.5229  135.8678  156.7042 O   0  0  0  0  0  0  0  0  0  0  0  0
  154.3726  139.7578  159.4827 N   0  0  0  0  0  0  0  0  0  0  0  0
  154.2597  140.5708  160.6891 C   0  0  0  0  0  0  0  0  0  0  0  0
  153.1566  141.6373  160.5549 C   0  0  0  0  0  0  0  0  0  0  0  0
  153.4337  142.6679  159.4586 C   0  0  0  0  0  0  0  0  0  0  0  0
  152.5140  143.8490  159.7859 C   0  0  0  0  0  0  0  0  0  0  0  0
  152.2242  143.7627  161.2925 C   0  0  0  0  0  0  0  0  0  0  0  0
  152.9430  142.5069  161.7988 C   0  0  0  0  0  0  0  0  0  0  0  0
  154.9086  138.3751  157.4630 H   0  0  0  0  0  0  0  0  0  0  0  0
  154.2155  136.8970  158.0603 H   0  0  0  0  0  0  0  0  0  0  0  0
  150.0851  138.8137  154.4141 H   0  0  0  0  0  0  0  0  0  0  0  0
  150.6353  136.5499  154.9846 H   0  0  0  0  0  0  0  0  0  0  0  0
  154.9826  140.1047  158.7568 H   0  0  0  0  0  0  0  0  0  0  0  0
  154.0878  139.9470  161.5679 H   0  0  0  0  0  0  0  0  0  0  0  0
  155.2211  141.0598  160.8473 H   0  0  0  0  0  0  0  0  0  0  0  0
  152.2130  141.1418  160.3192 H   0  0  0  0  0  0  0  0  0  0  0  0
  154.4740  142.9931  159.5097 H   0  0  0  0  0  0  0  0  0  0  0  0
  153.2610  142.2707  158.4579 H   0  0  0  0  0  0  0  0  0  0  0  0
  152.9707  144.7998  159.5098 H   0  0  0  0  0  0  0  0  0  0  0  0
  151.5813  143.7614  159.2273 H   0  0  0  0  0  0  0  0  0  0  0  0
  152.5643  144.6522  161.8236 H   0  0  0  0  0  0  0  0  0  0  0  0
  151.1495  143.6761  161.4579 H   0  0  0  0  0  0  0  0  0  0  0  0
  152.3804  141.9926  162.5788 H   0  0  0  0  0  0  0  0  0  0  0  0
  153.9078  142.7890  162.2227 H   0  0  0  0  0  0  0  0  0  0  0  0
  1  2  2  0  0  0  0
  2  3  1  0  0  0  0
  2 12  1  0  0  0  0
  3 19  1  0  0  0  0
  3 20  1  0  0  0  0
  3  4  1  0  0  0  0
  4  5  1  0  0  0  0
  4 10  1  0  0  0  0
  5  6  1  0  0  0  0
  6  7  2  0  0  0  0
  6  8  1  0  0  0  0
  8 21  1  0  0  0  0
  8  9  2  0  0  0  0
  9 22  1  0  0  0  0
  9 10  1  0  0  0  0
 10 11  2  0  0  0  0
 12 13  1  0  0  0  0
 12 23  1  0  0  0  0
 13 14  1  0  0  0  0
 13 24  1  0  0  0  0
 13 25  1  0  0  0  0
 14 18  1  0  0  0  0
 14 15  1  0  0  0  0
 14 26  1  0  0  0  0
 15 16  1  0  0  0  0
 15 27  1  0  0  0  0
 15 28  1  0  0  0  0
 16 17  1  0  0  0  0
 16 29  1  0  0  0  0
 16 30  1  0  0  0  0
 17 18  1  0  0  0  0
 17 31  1  0  0  0  0
 17 32  1  0  0  0  0
 18 33  1  0  0  0  0
 18 34  1  0  0  0  0
M  CHG  1   5  -1
M  END
> <s_m_source_file>
AV-unprocessed.smi

> <i_m_source_file_index>
1922

> <i_lp_mmshare_version>
43012

> <i_f3d_flags>
0

> <s_epik_input>
W0NIMl0xW0NIMl1bQ0gyXVtDSDJdW0NIXTFbQ0gyXVtOSF1DKD1PKVtDSDJdbjJbbkhdYyg9TylbY0hdW2NIXWMyPU8=

> <s_epik_cmdline>
J2VwaWtfcHl0aG9uJywgJy1waCcsICc3LjAnLCAnLXRuJywgJzgnLCAnLW1hJywgJzIwMCcsICctbWV0YWxfYmluZGluZycsICctaW1hZScsICc8aW5maWxlLm1hZT4nLCAnLW9tYWUnLCAnPG91dGZpbGUubWFlPic=

> <r_lp_tautomer_probability>
1

> <r_epik_Ionization_Penalty>
0.0984168

> <r_epik_Ionization_Penalty_Charging>
0.0984168

> <r_epik_Ionization_Penalty_Neutral>
1.97085e-08

> <r_epik_State_Penalty>
0.0346886

> <r_epik_Charging_Adjusted_Penalty>
0.133105

> <i_epik_Tot_Q>
-1

> <i_epik_Tot_abs_Q>
1

> <r_epik_Metal_State_Penalty>
0.0346886

> <b_epik_Metal_Only>
0

> <s_lp_Force_Field>
OPLS_2005

> <r_lp_Energy>
36.8816

> <b_lp_Chiralities_Consistent>
1

> <s_lp_Variant>
AV-unprocessed.smi:1922-1

> <Gold.Version>
5.8.1

> <Gold.Id.Protein>
6NUR|6NUR_protein|mol2

> <Gold.PLP.Fitness>
45.2373

> <Gold.PLP.PLP>
-34.8870

> <Gold.PLP.part.hbond>
-3.0000

> <Gold.PLP.part.metal>
0.0000

> <Gold.PLP.part.buried>
-2.4549

> <Gold.PLP.part.nonpolar>
-29.5608

> <Gold.PLP.part.repulsive>
0.1332

> <Gold.PLP.ligand.clash>
0.0000

> <Gold.PLP.ligand.torsion>
0.3860

> <Gold.PLP.Chemscore.Hbond>
3.7040

> <Gold.PLP.Chemscore.CHOScore>
0.0000

> <Gold.PLP.Chemscore.Metal>
0.0000

> <Gold.Chemscore.Hbonds>
donor molecule, donor type, donor heavy atom, donor atom, acceptor molecule, acceptor atom, score
      P1  H  7989  7998       L1     7  0.70
      P1  H  7997  8008       L1     5  1.90
      P1  H 10752 10763       L1    11  1.00

> <Gold.PLP.Chemscore.Internal.Correction>
0.0102

> <Gold.Rescore>
     Score         DG    S(hbond)    S(metal)    S(lipo)     H(rot)  DE(clash)    DE(int)     intcor
     17.13     -17.60       2.14        0.00      84.97       1.94       0.03       0.45       ----

> <Gold.Chemscore.Fitness>
17.1305

> <Gold.Chemscore.DG>
-17.6012

> <Gold.Chemscore.ZeroCoef>
-5.4800

> <Gold.Chemscore.Hbond>
2.1396

> <Gold.Chemscore.Metal>
0.0000

> <Gold.Chemscore.Lipo>
84.9708

> <Gold.Chemscore.Internal_Hbond>
0.0000

> <Gold.Chemscore.DEClash>
0.0256

> <Gold.Chemscore.DEInternal>
0.4452

> <Gold.Chemscore.Rot>
1.9401

> <Gold.Chemscore.Internal.Correction>
   9.000000E+99

> <Gold.Chemscore.Hbonds>
donor molecule, donor type, donor heavy atom, donor atom, acceptor molecule, acceptor atom, score
      P1  H  7989  7998       L1     7  0.24
      P1  H  7997  8008       L1     5  0.20
      P1  H 10752 10763       L1    11  0.26

> <Gold.Chemscore.Hbond.Weighted>
-7.1463

> <Gold.Chemscore.Metal.Weighted>
-0.0000

> <Gold.Chemscore.Lipo.Weighted>
-9.9416

> <Gold.Chemscore.Internal_Hbond.Weighted>
0.0000

> <Gold.Chemscore.DEClash.Weighted>
0.0256

> <Gold.Chemscore.DEInternal.Weighted>
0.4452

> <Gold.Chemscore.Rot.Weighted>
4.9666

> <Gold.Chemscore.Internal.Correction.Weighted>
   9.000000E+99

> <Gold.Protein.RotatedTorsions>
[ 6907 6896 6895 6894 ] final  169.71 input  -60.11 | X-H torsion
[ 7974 7965 7964 7962 ] final -138.05 input  175.53 | X-H torsion
[ 8008 7997 7996 7995 ] final  -33.64 input   59.86 | X-H torsion
[ 10167 10162 10161 10158 ] final   40.64 input  -65.29 | X-H torsion
[ 10718 10713 10712 10709 ] final -120.48 input   66.30 | X-H torsion
[ 10763 10752 10751 10750 ] final  110.73 input  -60.55 | X-H torsion
[ 11005 11000 10999 10996 ] final    5.97 input  -57.11 | X-H torsion

> <Gold.Protein.ActiveResidues>
 VAL166  LYS551  ARG553  GLY616  TRP617  ASP618  TYR619  PRO620  LYS621  CYS622 
 ASP623  PHE694  ASN695  SER759  ASP760  ASP761  ALA762  ILE779  LEU786  VAL792 
 PHE793  MET794  SER795  GLU796  ALA797  LYS798  CYS799  TRP800  GLU811  SER814 

> <Gold.Protein.RotatedAtoms>
  151.8276  133.3403  159.3603 H   0  0  0  0  0  0  0  0  0  0  0  0  # atno 6907 bound_to 6896
  150.7274  134.5514  159.5806 H   0  0  0  0  0  0  0  0  0  0  0  0  # atno 6908 bound_to 6896
  152.2960  134.7668  160.0419 H   0  0  0  0  0  0  0  0  0  0  0  0  # atno 6909 bound_to 6896
  144.8791  140.6480  143.5218 H   0  0  0  0  0  0  0  0  0  0  0  0  # atno 7974 bound_to 7965
  154.4143  140.1705  156.1920 H   0  0  0  0  0  0  0  0  0  0  0  0  # atno 8008 bound_to 7997
  155.9595  140.3394  155.6455 H   0  0  0  0  0  0  0  0  0  0  0  0  # atno 8009 bound_to 7997
  155.6766  140.0718  157.2491 H   0  0  0  0  0  0  0  0  0  0  0  0  # atno 8010 bound_to 7997
  140.3722  144.2090  150.6133 H   0  0  0  0  0  0  0  0  0  0  0  0  # atno 10167 bound_to 10162
  156.1262  130.6360  150.9546 H   0  0  0  0  0  0  0  0  0  0  0  0  # atno 10718 bound_to 10713
  153.4531  135.3739  155.2295 H   0  0  0  0  0  0  0  0  0  0  0  0  # atno 10763 bound_to 10752
  154.8756  135.3890  154.4014 H   0  0  0  0  0  0  0  0  0  0  0  0  # atno 10764 bound_to 10752
  153.4576  135.7086  153.6134 H   0  0  0  0  0  0  0  0  0  0  0  0  # atno 10765 bound_to 10752
  140.5647  134.0159  155.7985 H   0  0  0  0  0  0  0  0  0  0  0  0  # atno 11005 bound_to 11000
  145.3988  139.1602  143.4189 LP  0  0  0  0  0  0  0  0  0  0  0  0  # atno 17320 bound_to 7965
  146.2982  140.4083  142.8714 LP  0  0  0  0  0  0  0  0  0  0  0  0  # atno 17321 bound_to 7965
  140.5022  143.2314  151.8661 LP  0  0  0  0  0  0  0  0  0  0  0  0  # atno 17342 bound_to 10162
  139.4803  144.5046  151.9014 LP  0  0  0  0  0  0  0  0  0  0  0  0  # atno 17343 bound_to 10162
  157.6443  131.0906  150.8186 LP  0  0  0  0  0  0  0  0  0  0  0  0  # atno 17370 bound_to 10713
  156.8276  130.5005  149.5335 LP  0  0  0  0  0  0  0  0  0  0  0  0  # atno 17371 bound_to 10713
  141.1093  133.9643  157.2940 LP  0  0  0  0  0  0  0  0  0  0  0  0  # atno 17394 bound_to 11000
  139.9390  135.0193  156.8650 LP  0  0  0  0  0  0  0  0  0  0  0  0  # atno 17395 bound_to 11000

$$$$
