AV-unprocessed.smi:2253|AV-procd|sdf|9118|dock5
  -GOLD-   2272012323D 1   1.00000     0.00000
 Structure written by MMmdl.
 52 54  0  0  0  0  0  0  0  0  3 V2000
  144.6078  136.8095  151.8729 C   0  0  0  0  0  0  0  0  0  0  0  0
  145.3115  137.9272  152.5386 N   0  3  2  0  0  0  0  0  0  0  0  0
  146.5309  138.3463  151.8028 C   0  0  0  0  0  0  0  0  0  0  0  0
  147.1972  139.5610  152.4764 C   0  0  0  0  0  0  0  0  0  0  0  0
  147.5637  139.2750  153.9531 C   0  0  2  0  0  0  0  0  0  0  0  0
  148.6760  138.2705  154.0883 N   0  3  2  0  0  0  0  0  0  0  0  0
  148.8867  137.7036  155.4519 C   0  0  0  0  0  0  0  0  0  0  0  0
  149.5190  138.7313  156.4089 C   0  0  0  0  0  0  0  0  0  0  0  0
  150.8661  139.2274  155.8565 C   0  0  2  0  0  0  0  0  0  0  0  0
  151.4206  140.2566  156.7318 N   0  0  0  0  0  0  0  0  0  0  0  0
  151.9408  140.0316  157.9480 C   0  0  0  0  0  0  0  0  0  0  0  0
  152.0282  138.9088  158.4429 O   0  0  0  0  0  0  0  0  0  0  0  0
  152.3397  141.1791  158.5241 N   0  0  0  0  0  0  0  0  0  0  0  0
  152.9177  141.4037  159.8058 C   0  0  0  0  0  0  0  0  0  0  0  0
  153.8557  140.5480  160.4351 C   0  0  0  0  0  0  0  0  0  0  0  0
  154.3409  140.8987  161.7110 C   0  0  0  0  0  0  0  0  0  0  0  0
  153.9610  142.0117  162.3727 N   0  0  0  0  0  0  0  0  0  0  0  0
  153.0685  142.8258  161.7711 C   0  0  0  0  0  0  0  0  0  0  0  0
  152.5211  142.5677  160.4984 C   0  0  0  0  0  0  0  0  0  0  0  0
  151.6271  143.4278  159.9530 F   0  0  0  0  0  0  0  0  0  0  0  0
  150.6857  139.7549  154.4196 C   0  0  0  0  0  0  0  0  0  0  0  0
  149.9873  138.7093  153.5268 C   0  0  0  0  0  0  0  0  0  0  0  0
  146.2450  138.8631  154.6529 C   0  0  0  0  0  0  0  0  0  0  0  0
  145.5841  137.6503  153.9711 C   0  0  0  0  0  0  0  0  0  0  0  0
  145.2266  135.9112  151.8558 H   0  0  0  0  0  0  0  0  0  0  0  0
  144.3556  137.0708  150.8447 H   0  0  0  0  0  0  0  0  0  0  0  0
  143.6787  136.5750  152.3934 H   0  0  0  0  0  0  0  0  0  0  0  0
  147.2321  137.5122  151.7454 H   0  0  0  0  0  0  0  0  0  0  0  0
  146.2617  138.6027  150.7773 H   0  0  0  0  0  0  0  0  0  0  0  0
  148.0518  139.8951  151.8919 H   0  0  0  0  0  0  0  0  0  0  0  0
  146.4996  140.3995  152.4437 H   0  0  0  0  0  0  0  0  0  0  0  0
  147.8943  140.2073  154.4105 H   0  0  0  0  0  0  0  0  0  0  0  0
  147.9762  137.2808  155.8711 H   0  0  0  0  0  0  0  0  0  0  0  0
  149.5611  136.8510  155.3593 H   0  0  0  0  0  0  0  0  0  0  0  0
  148.8381  139.5698  156.5609 H   0  0  0  0  0  0  0  0  0  0  0  0
  149.6674  138.2752  157.3884 H   0  0  0  0  0  0  0  0  0  0  0  0
  151.5527  138.3785  155.8347 H   0  0  0  0  0  0  0  0  0  0  0  0
  151.3869  141.2092  156.3986 H   0  0  0  0  0  0  0  0  0  0  0  0
  152.2013  142.0149  157.9749 H   0  0  0  0  0  0  0  0  0  0  0  0
  154.2151  139.6385  159.9818 H   0  0  0  0  0  0  0  0  0  0  0  0
  155.0554  140.2643  162.2145 H   0  0  0  0  0  0  0  0  0  0  0  0
  152.7808  143.7095  162.3211 H   0  0  0  0  0  0  0  0  0  0  0  0
  150.1158  140.6844  154.4285 H   0  0  0  0  0  0  0  0  0  0  0  0
  151.6568  140.0032  153.9897 H   0  0  0  0  0  0  0  0  0  0  0  0
  150.6293  137.8306  153.4485 H   0  0  0  0  0  0  0  0  0  0  0  0
  149.8974  139.0793  152.5084 H   0  0  0  0  0  0  0  0  0  0  0  0
  146.3790  138.6889  155.7192 H   0  0  0  0  0  0  0  0  0  0  0  0
  145.5494  139.7025  154.6052 H   0  0  0  0  0  0  0  0  0  0  0  0
  144.6468  137.4152  154.4771 H   0  0  0  0  0  0  0  0  0  0  0  0
  146.2207  136.7689  154.0608 H   0  0  0  0  0  0  0  0  0  0  0  0
  148.3867  137.4865  153.5212 H   0  0  0  0  0  0  0  0  0  0  0  0
  144.6783  138.7143  152.5145 H   0  0  0  0  0  0  0  0  0  0  0  0
  1  2  1  0  0  0  0
  1 25  1  0  0  0  0
  1 26  1  0  0  0  0
  1 27  1  0  0  0  0
  2 24  1  0  0  0  0
  2  3  1  0  0  0  0
  2 52  1  0  0  0  0
  3  4  1  0  0  0  0
  3 28  1  0  0  0  0
  3 29  1  0  0  0  0
  4  5  1  0  0  0  0
  4 30  1  0  0  0  0
  4 31  1  0  0  0  0
  5  6  1  0  0  0  0
  5 23  1  0  0  0  0
  5 32  1  0  0  0  0
  6 22  1  0  0  0  0
  6  7  1  0  0  0  0
  6 51  1  0  0  0  0
  7  8  1  0  0  0  0
  7 33  1  0  0  0  0
  7 34  1  0  0  0  0
  8  9  1  0  0  0  0
  8 35  1  0  0  0  0
  8 36  1  0  0  0  0
  9 10  1  0  0  0  0
  9 21  1  0  0  0  0
  9 37  1  0  0  0  0
 10 11  1  0  0  0  0
 10 38  1  0  0  0  0
 11 12  2  0  0  0  0
 11 13  1  0  0  0  0
 13 14  1  0  0  0  0
 13 39  1  0  0  0  0
 14 19  1  0  0  0  0
 14 15  2  0  0  0  0
 15 16  1  0  0  0  0
 15 40  1  0  0  0  0
 16 17  2  0  0  0  0
 16 41  1  0  0  0  0
 17 18  1  0  0  0  0
 18 19  2  0  0  0  0
 18 42  1  0  0  0  0
 19 20  1  0  0  0  0
 21 22  1  0  0  0  0
 21 43  1  0  0  0  0
 21 44  1  0  0  0  0
 22 45  1  0  0  0  0
 22 46  1  0  0  0  0
 23 24  1  0  0  0  0
 23 47  1  0  0  0  0
 23 48  1  0  0  0  0
 24 49  1  0  0  0  0
 24 50  1  0  0  0  0
M  CHG  1   2   1
M  CHG  1   6   1
M  END
> <s_m_source_file>
AV-unprocessed.smi

> <i_m_source_file_index>
2253

> <i_lp_mmshare_version>
43012

> <i_f3d_flags>
0

> <s_epik_input>
W0NIM11OMVtDSDJdW0NIMl1bQ0hdKFtDSDJdW0NIMl0xKU4yW0NIMl1bQ0gyXVtDSF0oW0NIMl1bQ0gyXTIpW05IXUMoPU8pW05IXWMzW2NIXVtjSF1uW2NIXWMzRg==

> <s_epik_cmdline>
J2VwaWtfcHl0aG9uJywgJy1waCcsICc3LjAnLCAnLXRuJywgJzgnLCAnLW1hJywgJzIwMCcsICctbWV0YWxfYmluZGluZycsICctaW1hZScsICc8aW5maWxlLm1hZT4nLCAnLW9tYWUnLCAnPG91dGZpbGUubWFlPic=

> <r_epik_Ionization_Penalty>
0.183544

> <r_epik_Ionization_Penalty_Charging>
0.180787

> <r_epik_Ionization_Penalty_Neutral>
0.00275649

> <r_epik_State_Penalty>
0.153592

> <r_epik_Charging_Adjusted_Penalty>
0.334379

> <i_epik_Tot_Q>
2

> <i_epik_Tot_abs_Q>
2

> <r_epik_Metal_State_Penalty>
0.153693

> <b_epik_Metal_Only>
0

> <s_lp_Force_Field>
OPLS_2005

> <r_lp_Energy>
53.0851

> <b_lp_Chiralities_Consistent>
1

> <s_lp_Variant>
AV-unprocessed.smi:2253-4

> <Gold.Version>
5.8.1

> <Gold.Id.Protein>
6NUR|6NUR_protein|mol2

> <Gold.PLP.Fitness>
43.0641

> <Gold.PLP.PLP>
-33.9980

> <Gold.PLP.part.hbond>
-3.5591

> <Gold.PLP.part.metal>
0.0000

> <Gold.PLP.part.buried>
8.2742

> <Gold.PLP.part.nonpolar>
-37.3777

> <Gold.PLP.part.repulsive>
0.2298

> <Gold.PLP.ligand.clash>
0.0000

> <Gold.PLP.ligand.torsion>
0.5446

> <Gold.PLP.Chemscore.Hbond>
3.3686

> <Gold.PLP.Chemscore.CHOScore>
0.0000

> <Gold.PLP.Chemscore.Metal>
0.0000

> <Gold.Chemscore.Hbonds>
donor molecule, donor type, donor heavy atom, donor atom, acceptor molecule, acceptor atom, score
      L1  H     2    52       P1 10175  2.00
      L1  H     6    51       P1  7948  1.21

> <Gold.PLP.Chemscore.Internal.Correction>
0.0494

> <Gold.Rescore>
     Score         DG    S(hbond)    S(metal)    S(lipo)     H(rot)  DE(clash)    DE(int)     intcor
     15.08     -19.57       1.45        0.00     106.37       1.26       3.95       0.53       ----

> <Gold.Chemscore.Fitness>
15.0842

> <Gold.Chemscore.DG>
-19.5682

> <Gold.Chemscore.ZeroCoef>
-5.4800

> <Gold.Chemscore.Hbond>
1.4547

> <Gold.Chemscore.Metal>
0.0000

> <Gold.Chemscore.Lipo>
106.3652

> <Gold.Chemscore.Internal_Hbond>
0.0000

> <Gold.Chemscore.DEClash>
3.9524

> <Gold.Chemscore.DEInternal>
0.5316

> <Gold.Chemscore.Rot>
1.2559

> <Gold.Chemscore.Internal.Correction>
   9.000000E+99

> <Gold.Chemscore.Hbonds>
donor molecule, donor type, donor heavy atom, donor atom, acceptor molecule, acceptor atom, score
      L1  H     2    52       P1 10175  0.95
      L1  H     6    51       P1  7948  0.60

> <Gold.Chemscore.Hbond.Weighted>
-4.8586

> <Gold.Chemscore.Metal.Weighted>
-0.0000

> <Gold.Chemscore.Lipo.Weighted>
-12.4447

> <Gold.Chemscore.Internal_Hbond.Weighted>
0.0000

> <Gold.Chemscore.DEClash.Weighted>
3.9524

> <Gold.Chemscore.DEInternal.Weighted>
0.5316

> <Gold.Chemscore.Rot.Weighted>
3.2151

> <Gold.Chemscore.Internal.Correction.Weighted>
   9.000000E+99

> <Gold.Protein.RotatedTorsions>
[ 6907 6896 6895 6894 ] final  168.72 input  -60.11 | X-H torsion
[ 7974 7965 7964 7962 ] final   60.41 input  175.53 | X-H torsion
[ 8008 7997 7996 7995 ] final   60.94 input   59.86 | X-H torsion
[ 10167 10162 10161 10158 ] final    2.31 input  -65.29 | X-H torsion
[ 10718 10713 10712 10709 ] final -133.29 input   66.30 | X-H torsion
[ 10763 10752 10751 10750 ] final  -92.97 input  -60.55 | X-H torsion
[ 11005 11000 10999 10996 ] final  166.04 input  -57.11 | X-H torsion

> <Gold.Protein.ActiveResidues>
 VAL166  LYS551  ARG553  GLY616  TRP617  ASP618  TYR619  PRO620  LYS621  CYS622 
 ASP623  PHE694  ASN695  SER759  ASP760  ASP761  ALA762  ILE779  LEU786  VAL792 
 PHE793  MET794  SER795  GLU796  ALA797  LYS798  CYS799  TRP800  GLU811  SER814 

> <Gold.Protein.RotatedAtoms>
  151.8431  133.3427  159.3649 H   0  0  0  0  0  0  0  0  0  0  0  0  # atno 6907 bound_to 6896
  150.7229  134.5371  159.5738 H   0  0  0  0  0  0  0  0  0  0  0  0  # atno 6908 bound_to 6896
  152.2849  134.7787  160.0440 H   0  0  0  0  0  0  0  0  0  0  0  0  # atno 6909 bound_to 6896
  145.8963  139.3548  143.0619 H   0  0  0  0  0  0  0  0  0  0  0  0  # atno 7974 bound_to 7965
  155.5903  140.3492  155.4564 H   0  0  0  0  0  0  0  0  0  0  0  0  # atno 8008 bound_to 7997
  156.0306  140.1274  157.0287 H   0  0  0  0  0  0  0  0  0  0  0  0  # atno 8009 bound_to 7997
  154.4351  140.1044  156.6080 H   0  0  0  0  0  0  0  0  0  0  0  0  # atno 8010 bound_to 7997
  140.6641  143.7225  150.7794 H   0  0  0  0  0  0  0  0  0  0  0  0  # atno 10167 bound_to 10162
  156.2434  130.7109  151.0980 H   0  0  0  0  0  0  0  0  0  0  0  0  # atno 10718 bound_to 10713
  154.6913  135.5211  153.8397 H   0  0  0  0  0  0  0  0  0  0  0  0  # atno 10763 bound_to 10752
  153.0634  135.6576  154.0418 H   0  0  0  0  0  0  0  0  0  0  0  0  # atno 10764 bound_to 10752
  154.0292  135.2987  155.3350 H   0  0  0  0  0  0  0  0  0  0  0  0  # atno 10765 bound_to 10752
  140.2623  134.7892  157.3601 H   0  0  0  0  0  0  0  0  0  0  0  0  # atno 11005 bound_to 11000
  145.8846  140.9341  143.0583 LP  0  0  0  0  0  0  0  0  0  0  0  0  # atno 17320 bound_to 7965
  144.6733  140.0825  143.7468 LP  0  0  0  0  0  0  0  0  0  0  0  0  # atno 17321 bound_to 7965
  140.0899  143.4887  152.2484 LP  0  0  0  0  0  0  0  0  0  0  0  0  # atno 17342 bound_to 10162
  139.5884  144.7540  151.3461 LP  0  0  0  0  0  0  0  0  0  0  0  0  # atno 17343 bound_to 10162
  157.7185  131.0696  150.6233 LP  0  0  0  0  0  0  0  0  0  0  0  0  # atno 17370 bound_to 10713
  156.6307  130.4431  149.5787 LP  0  0  0  0  0  0  0  0  0  0  0  0  # atno 17371 bound_to 10713
  140.1452  134.4920  155.8001 LP  0  0  0  0  0  0  0  0  0  0  0  0  # atno 17394 bound_to 11000
  141.2188  133.6841  156.7282 LP  0  0  0  0  0  0  0  0  0  0  0  0  # atno 17395 bound_to 11000

$$$$
