AV-unprocessed.smi:2124|AV-procd|sdf|8657|dock2
  -GOLD-   2272011403D 1   1.00000     0.00000
 Structure written by MMmdl.
 47 49  0  0  0  0  0  0  0  0  1 V2000
  146.6890  138.3819  151.6988 C   0  0  0  0  0  0  0  0  0  0  0  0
  146.6521  139.2204  152.9593 C   0  0  0  0  0  0  0  0  0  0  0  0
  145.8187  139.0295  153.9286 N   0  0  0  0  0  0  0  0  0  0  0  0
  145.8798  139.8741  155.0458 C   0  0  0  0  0  0  0  0  0  0  0  0
  144.8645  139.5903  156.1397 C   0  0  0  0  0  0  0  0  0  0  0  0
  146.7947  140.8842  155.1306 C   0  0  0  0  0  0  0  0  0  0  0  0
  146.8789  141.8244  156.3321 C   0  0  0  0  0  0  0  0  0  0  0  0
  147.9686  141.4921  157.3543 C   0  0  0  0  0  0  0  0  0  0  0  0
  147.8616  140.4958  158.0695 O   0  0  0  0  0  0  0  0  0  0  0  0
  149.0138  142.3336  157.4030 N   0  0  0  0  0  0  0  0  0  0  0  0
  150.1901  142.2005  158.2617 C   0  0  1  0  0  0  0  0  0  0  0  0
  150.8333  140.8299  157.9997 C   0  0  0  0  0  0  0  0  0  0  0  0
  151.1682  143.3725  158.0020 C   0  0  1  0  0  0  0  0  0  0  0  0
  150.7235  144.7370  158.5789 C   0  0  0  0  0  0  0  0  0  0  0  0
  151.9764  145.2226  159.3305 C   0  0  1  0  0  0  0  0  0  0  0  0
  152.1307  144.4059  160.6265 C   0  0  0  0  0  0  0  0  0  0  0  0
  152.5920  143.0326  160.1063 C   0  0  0  0  0  0  0  0  0  0  0  0
  152.6005  143.2306  158.5763 C   0  0  2  0  0  0  0  0  0  0  0  0
  153.1045  144.6665  158.4698 C   0  0  0  0  0  0  0  0  0  0  0  0
  147.7425  141.0919  154.0186 C   0  0  0  0  0  0  0  0  0  0  0  0
  148.6024  141.9707  153.9884 O   0  0  0  0  0  0  0  0  0  0  0  0
  147.6109  140.2318  152.9840 N   0  0  0  0  0  0  0  0  0  0  0  0
  148.2355  140.3336  152.1976 H   0  0  0  0  0  0  0  0  0  0  0  0
  145.7411  138.4630  151.1665 H   0  0  0  0  0  0  0  0  0  0  0  0
  146.8530  137.3338  151.9499 H   0  0  0  0  0  0  0  0  0  0  0  0
  147.4864  138.7002  151.0261 H   0  0  0  0  0  0  0  0  0  0  0  0
  145.3669  139.3246  157.0699 H   0  0  0  0  0  0  0  0  0  0  0  0
  144.2087  138.7626  155.8665 H   0  0  0  0  0  0  0  0  0  0  0  0
  144.2386  140.4646  156.3196 H   0  0  0  0  0  0  0  0  0  0  0  0
  147.0345  142.8390  155.9630 H   0  0  0  0  0  0  0  0  0  0  0  0
  145.9244  141.8650  156.8575 H   0  0  0  0  0  0  0  0  0  0  0  0
  149.0028  143.1269  156.7784 H   0  0  0  0  0  0  0  0  0  0  0  0
  149.8751  142.2204  159.3050 H   0  0  0  0  0  0  0  0  0  0  0  0
  151.6752  140.6513  158.6686 H   0  0  0  0  0  0  0  0  0  0  0  0
  151.1988  140.7511  156.9755 H   0  0  0  0  0  0  0  0  0  0  0  0
  150.1165  140.0238  158.1610 H   0  0  0  0  0  0  0  0  0  0  0  0
  151.2654  143.4838  156.9201 H   0  0  0  0  0  0  0  0  0  0  0  0
  150.4571  145.4229  157.7739 H   0  0  0  0  0  0  0  0  0  0  0  0
  149.8640  144.6629  159.2458 H   0  0  0  0  0  0  0  0  0  0  0  0
  152.0014  146.3012  159.4884 H   0  0  0  0  0  0  0  0  0  0  0  0
  152.8877  144.8439  161.2781 H   0  0  0  0  0  0  0  0  0  0  0  0
  151.1988  144.3453  161.1901 H   0  0  0  0  0  0  0  0  0  0  0  0
  153.5989  142.8143  160.4648 H   0  0  0  0  0  0  0  0  0  0  0  0
  151.9504  142.2171  160.4371 H   0  0  0  0  0  0  0  0  0  0  0  0
  153.2135  142.5011  158.0458 H   0  0  0  0  0  0  0  0  0  0  0  0
  153.1022  145.0553  157.4498 H   0  0  0  0  0  0  0  0  0  0  0  0
  154.0943  144.8134  158.9059 H   0  0  0  0  0  0  0  0  0  0  0  0
  1  2  1  0  0  0  0
  1 24  1  0  0  0  0
  1 25  1  0  0  0  0
  1 26  1  0  0  0  0
  2 22  1  0  0  0  0
  2  3  2  0  0  0  0
  3  4  1  0  0  0  0
  4  5  1  0  0  0  0
  4  6  2  0  0  0  0
  5 27  1  0  0  0  0
  5 28  1  0  0  0  0
  5 29  1  0  0  0  0
  6  7  1  0  0  0  0
  6 20  1  0  0  0  0
  7  8  1  0  0  0  0
  7 30  1  0  0  0  0
  7 31  1  0  0  0  0
  8  9  2  0  0  0  0
  8 10  1  0  0  0  0
 10 11  1  0  0  0  0
 10 32  1  0  0  0  0
 11 12  1  0  0  0  0
 11 13  1  0  0  0  0
 11 33  1  0  0  0  0
 12 34  1  0  0  0  0
 12 35  1  0  0  0  0
 12 36  1  0  0  0  0
 13 18  1  0  0  0  0
 13 14  1  0  0  0  0
 13 37  1  0  0  0  0
 14 15  1  0  0  0  0
 14 38  1  0  0  0  0
 14 39  1  0  0  0  0
 15 19  1  0  0  0  0
 15 16  1  0  0  0  0
 15 40  1  0  0  0  0
 16 17  1  0  0  0  0
 16 41  1  0  0  0  0
 16 42  1  0  0  0  0
 17 18  1  0  0  0  0
 17 43  1  0  0  0  0
 17 44  1  0  0  0  0
 18 19  1  0  0  0  0
 18 45  1  0  0  0  0
 19 46  1  0  0  0  0
 19 47  1  0  0  0  0
 20 21  2  0  0  0  0
 20 22  1  0  0  0  0
 22 23  1  0  0  0  0
M  END
> <s_m_source_file>
AV-unprocessed.smi

> <i_m_source_file_index>
2124

> <i_lp_mmshare_version>
43012

> <i_f3d_flags>
0

> <s_epik_input>
W0NIM11jMW5jKFtDSDNdKWMoYyg9TylbbkhdMSlbQ0gyXUMoPU8pW05IXVtDQEhdKFtDSDNdKVtDQEhdKFtDSDJdW0NASF0yMylbQ0BIXShbQ0gyXTMpW0NIMl1bQ0gyXTI=

> <s_epik_cmdline>
J2VwaWtfcHl0aG9uJywgJy1waCcsICc3LjAnLCAnLXRuJywgJzgnLCAnLW1hJywgJzIwMCcsICctbWV0YWxfYmluZGluZycsICctaW1hZScsICc8aW5maWxlLm1hZT4nLCAnLW9tYWUnLCAnPG91dGZpbGUubWFlPic=

> <r_lp_tautomer_probability>
0.839158

> <r_epik_Ionization_Penalty>
0.000383628

> <r_epik_Ionization_Penalty_Charging>
0.00035045

> <r_epik_Ionization_Penalty_Neutral>
3.31781e-05

> <r_epik_State_Penalty>
0.09125

> <r_epik_Charging_Adjusted_Penalty>
0.0916005

> <i_epik_Tot_Q>
0

> <i_epik_Tot_abs_Q>
0

> <r_epik_Metal_State_Penalty>
0.255229

> <b_epik_Metal_Only>
0

> <s_lp_Force_Field>
OPLS_2005

> <r_lp_Energy>
52.5586

> <b_lp_Chiralities_Consistent>
1

> <s_lp_Variant>
AV-unprocessed.smi:2124-8

> <Gold.Version>
5.8.1

> <Gold.Id.Protein>
6NUR|6NUR_protein|mol2

> <Gold.PLP.Fitness>
48.5791

> <Gold.PLP.PLP>
-42.4688

> <Gold.PLP.part.hbond>
-3.9968

> <Gold.PLP.part.metal>
0.0000

> <Gold.PLP.part.buried>
-4.9999

> <Gold.PLP.part.nonpolar>
-35.0776

> <Gold.PLP.part.repulsive>
1.3634

> <Gold.PLP.ligand.clash>
0.0000

> <Gold.PLP.ligand.torsion>
0.6020

> <Gold.PLP.Chemscore.Hbond>
2.4320

> <Gold.PLP.Chemscore.CHOScore>
0.0000

> <Gold.PLP.Chemscore.Metal>
0.0000

> <Gold.Chemscore.Hbonds>
donor molecule, donor type, donor heavy atom, donor atom, acceptor molecule, acceptor atom, score
      L1  H    10    32       P1  8028  1.00
      L1  H    22    23       P1  7957  1.00
      P1  H  8011  8017       L1    21  0.38

> <Gold.PLP.Chemscore.Internal.Correction>
0.0182

> <Gold.Rescore>
     Score         DG    S(hbond)    S(metal)    S(lipo)     H(rot)  DE(clash)    DE(int)     intcor
     20.87     -23.11       2.49        0.00     115.87       1.65       0.87       1.38       ----

> <Gold.Chemscore.Fitness>
20.8658

> <Gold.Chemscore.DG>
-23.1105

> <Gold.Chemscore.ZeroCoef>
-5.4800

> <Gold.Chemscore.Hbond>
2.4870

> <Gold.Chemscore.Metal>
0.0000

> <Gold.Chemscore.Lipo>
115.8675

> <Gold.Chemscore.Internal_Hbond>
0.0000

> <Gold.Chemscore.DEClash>
0.8682

> <Gold.Chemscore.DEInternal>
1.3765

> <Gold.Chemscore.Rot>
1.6534

> <Gold.Chemscore.Internal.Correction>
   9.000000E+99

> <Gold.Chemscore.Hbonds>
donor molecule, donor type, donor heavy atom, donor atom, acceptor molecule, acceptor atom, score
      L1  H    10    32       P1  8028  0.94
      L1  H    22    23       P1  7957  1.00
      P1  H  8011  8017       L1    21  0.36

> <Gold.Chemscore.Hbond.Weighted>
-8.3066

> <Gold.Chemscore.Metal.Weighted>
-0.0000

> <Gold.Chemscore.Lipo.Weighted>
-13.5565

> <Gold.Chemscore.Internal_Hbond.Weighted>
0.0000

> <Gold.Chemscore.DEClash.Weighted>
0.8682

> <Gold.Chemscore.DEInternal.Weighted>
1.3765

> <Gold.Chemscore.Rot.Weighted>
4.2326

> <Gold.Chemscore.Internal.Correction.Weighted>
   9.000000E+99

> <Gold.Protein.RotatedTorsions>
[ 6907 6896 6895 6894 ] final   95.75 input  -60.11 | X-H torsion
[ 7974 7965 7964 7962 ] final  154.80 input  175.53 | X-H torsion
[ 8008 7997 7996 7995 ] final   37.85 input   59.86 | X-H torsion
[ 10167 10162 10161 10158 ] final  136.67 input  -65.29 | X-H torsion
[ 10718 10713 10712 10709 ] final  -32.43 input   66.30 | X-H torsion
[ 10763 10752 10751 10750 ] final  -16.43 input  -60.55 | X-H torsion
[ 11005 11000 10999 10996 ] final   11.44 input  -57.11 | X-H torsion

> <Gold.Protein.ActiveResidues>
 VAL166  LYS551  ARG553  GLY616  TRP617  ASP618  TYR619  PRO620  LYS621  CYS622 
 ASP623  PHE694  ASN695  SER759  ASP760  ASP761  ALA762  ILE779  LEU786  VAL792 
 PHE793  MET794  SER795  GLU796  ALA797  LYS798  CYS799  TRP800  GLU811  SER814 

> <Gold.Protein.RotatedAtoms>
  152.5441  134.0991  159.8309 H   0  0  0  0  0  0  0  0  0  0  0  0  # atno 6907 bound_to 6896
  151.1071  133.5193  159.2614 H   0  0  0  0  0  0  0  0  0  0  0  0  # atno 6908 bound_to 6896
  151.1926  135.0418  159.8893 H   0  0  0  0  0  0  0  0  0  0  0  0  # atno 6909 bound_to 6896
  144.8066  139.6982  143.6159 H   0  0  0  0  0  0  0  0  0  0  0  0  # atno 7974 bound_to 7965
  155.2105  140.3323  155.4329 H   0  0  0  0  0  0  0  0  0  0  0  0  # atno 8008 bound_to 7997
  156.2372  140.1878  156.7135 H   0  0  0  0  0  0  0  0  0  0  0  0  # atno 8009 bound_to 7997
  154.6081  140.0613  156.9444 H   0  0  0  0  0  0  0  0  0  0  0  0  # atno 8010 bound_to 7997
  139.5171  144.6452  151.5460 H   0  0  0  0  0  0  0  0  0  0  0  0  # atno 10167 bound_to 10162
  156.3750  130.4346  149.7514 H   0  0  0  0  0  0  0  0  0  0  0  0  # atno 10718 bound_to 10713
  153.5585  135.7010  153.5558 H   0  0  0  0  0  0  0  0  0  0  0  0  # atno 10763 bound_to 10752
  153.3451  135.4010  155.1602 H   0  0  0  0  0  0  0  0  0  0  0  0  # atno 10764 bound_to 10752
  154.8651  135.3751  154.5100 H   0  0  0  0  0  0  0  0  0  0  0  0  # atno 10765 bound_to 10752
  140.5032  134.0725  155.7799 H   0  0  0  0  0  0  0  0  0  0  0  0  # atno 11005 bound_to 11000
  146.2358  139.5902  142.9525 LP  0  0  0  0  0  0  0  0  0  0  0  0  # atno 17320 bound_to 7965
  145.5424  141.0420  143.2323 LP  0  0  0  0  0  0  0  0  0  0  0  0  # atno 17321 bound_to 7965
  140.6234  143.9216  150.6544 LP  0  0  0  0  0  0  0  0  0  0  0  0  # atno 17342 bound_to 10162
  140.2496  143.3603  152.1417 LP  0  0  0  0  0  0  0  0  0  0  0  0  # atno 17343 bound_to 10162
  156.4627  130.7959  151.2979 LP  0  0  0  0  0  0  0  0  0  0  0  0  # atno 17370 bound_to 10713
  157.7487  131.0061  150.3137 LP  0  0  0  0  0  0  0  0  0  0  0  0  # atno 17371 bound_to 10713
  141.1424  133.9114  157.2294 LP  0  0  0  0  0  0  0  0  0  0  0  0  # atno 17394 bound_to 11000
  139.9701  135.0130  156.9490 LP  0  0  0  0  0  0  0  0  0  0  0  0  # atno 17395 bound_to 11000

$$$$
