AV-unprocessed.smi:1988|AV-procd|sdf|8058|dock6
  -GOLD-   2272010263D 1   1.00000     0.00000
 Structure written by MMmdl.
 37 38  0  0  0  0  0  0  0  0  1 V2000
  152.1445  138.5678  154.6519 C   0  0  0  0  0  0  0  0  0  0  0  0
  151.9616  139.5419  155.7802 C   0  0  0  0  0  0  0  0  0  0  0  0
  152.7951  139.5096  156.8062 N   0  0  0  0  0  0  0  0  0  0  0  0
  152.3618  140.5073  157.6844 O   0  0  0  0  0  0  0  0  0  0  0  0
  151.2689  141.1066  157.1471 C   0  0  0  0  0  0  0  0  0  0  0  0
  150.6404  142.1985  157.9450 C   0  0  0  0  0  0  0  0  0  0  0  0
  150.9616  140.5452  155.9385 C   0  0  0  0  0  0  0  0  0  0  0  0
  149.8270  140.8895  155.0082 C   0  0  0  0  0  0  0  0  0  0  0  0
  148.5038  140.5832  155.7061 C   0  0  0  0  0  0  0  0  0  0  0  0
  147.9839  141.4272  156.4358 O   0  0  0  0  0  0  0  0  0  0  0  0
  147.9937  139.3586  155.5025 N   0  0  0  0  0  0  0  0  0  0  0  0
  146.8259  138.8042  156.1786 C   0  0  0  0  0  0  0  0  0  0  0  0
  147.1824  137.5145  156.9425 C   0  0  2  0  0  0  0  0  0  0  0  0
  145.9537  136.8687  157.6117 C   0  0  0  0  0  0  0  0  0  0  0  0
  146.4344  135.7542  158.5468 C   0  0  0  0  0  0  0  0  0  0  0  0
  148.0414  136.3270  159.2128 S   0  0  0  0  0  0  0  0  0  0  0  0
  147.8455  136.8798  160.5616 O   0  0  0  0  0  0  0  0  0  0  0  0
  149.0595  135.2972  158.9563 O   0  0  0  0  0  0  0  0  0  0  0  0
  148.2556  137.7087  158.0287 C   0  0  0  0  0  0  0  0  0  0  0  0
  151.8122  138.9926  153.7050 H   0  0  0  0  0  0  0  0  0  0  0  0
  151.5697  137.6584  154.8279 H   0  0  0  0  0  0  0  0  0  0  0  0
  153.1905  138.2831  154.5347 H   0  0  0  0  0  0  0  0  0  0  0  0
  149.6396  141.9106  158.2671 H   0  0  0  0  0  0  0  0  0  0  0  0
  150.5555  143.1093  157.3526 H   0  0  0  0  0  0  0  0  0  0  0  0
  151.2291  142.4270  158.8337 H   0  0  0  0  0  0  0  0  0  0  0  0
  149.8439  141.9443  154.7315 H   0  0  0  0  0  0  0  0  0  0  0  0
  149.8888  140.3310  154.0733 H   0  0  0  0  0  0  0  0  0  0  0  0
  148.4923  138.7398  154.8793 H   0  0  0  0  0  0  0  0  0  0  0  0
  146.3752  139.5357  156.8516 H   0  0  0  0  0  0  0  0  0  0  0  0
  146.0737  138.5850  155.4204 H   0  0  0  0  0  0  0  0  0  0  0  0
  147.5744  136.7902  156.2264 H   0  0  0  0  0  0  0  0  0  0  0  0
  145.4299  137.6217  158.2021 H   0  0  0  0  0  0  0  0  0  0  0  0
  145.2433  136.4907  156.8758 H   0  0  0  0  0  0  0  0  0  0  0  0
  145.7391  135.5475  159.3605 H   0  0  0  0  0  0  0  0  0  0  0  0
  146.6088  134.8318  157.9923 H   0  0  0  0  0  0  0  0  0  0  0  0
  149.2714  137.7081  157.6328 H   0  0  0  0  0  0  0  0  0  0  0  0
  148.0981  138.6400  158.5736 H   0  0  0  0  0  0  0  0  0  0  0  0
  1  2  1  0  0  0  0
  1 20  1  0  0  0  0
  1 21  1  0  0  0  0
  1 22  1  0  0  0  0
  2  7  1  0  0  0  0
  2  3  2  0  0  0  0
  3  4  1  0  0  0  0
  4  5  1  0  0  0  0
  5  6  1  0  0  0  0
  5  7  2  0  0  0  0
  6 23  1  0  0  0  0
  6 24  1  0  0  0  0
  6 25  1  0  0  0  0
  7  8  1  0  0  0  0
  8  9  1  0  0  0  0
  8 26  1  0  0  0  0
  8 27  1  0  0  0  0
  9 10  2  0  0  0  0
  9 11  1  0  0  0  0
 11 12  1  0  0  0  0
 11 28  1  0  0  0  0
 12 13  1  0  0  0  0
 12 29  1  0  0  0  0
 12 30  1  0  0  0  0
 13 19  1  0  0  0  0
 13 14  1  0  0  0  0
 13 31  1  0  0  0  0
 14 15  1  0  0  0  0
 14 32  1  0  0  0  0
 14 33  1  0  0  0  0
 15 16  1  0  0  0  0
 15 34  1  0  0  0  0
 15 35  1  0  0  0  0
 16 17  2  0  0  0  0
 16 18  2  0  0  0  0
 16 19  1  0  0  0  0
 19 36  1  0  0  0  0
 19 37  1  0  0  0  0
M  END
> <s_m_source_file>
AV-unprocessed.smi

> <i_m_source_file_index>
1988

> <i_lp_mmshare_version>
43012

> <i_f3d_flags>
0

> <s_epik_input>
W0NIM11jMW5vYyhbQ0gzXSljMVtDSDJdQyg9TylbTkhdW0NIMl1bQ0BASF0oW0NIMl0yKVtDSDJdW0NIMl1TMig9Tyk9Tw==

> <s_epik_cmdline>
J2VwaWtfcHl0aG9uJywgJy1waCcsICc3LjAnLCAnLXRuJywgJzgnLCAnLW1hJywgJzIwMCcsICctbWV0YWxfYmluZGluZycsICctaW1hZScsICc8aW5maWxlLm1hZT4nLCAnLW9tYWUnLCAnPG91dGZpbGUubWFlPic=

> <r_lp_tautomer_probability>
1

> <r_epik_Ionization_Penalty>
2.7503e-08

> <r_epik_Ionization_Penalty_Charging>
0

> <r_epik_Ionization_Penalty_Neutral>
2.7503e-08

> <r_epik_State_Penalty>
-0

> <r_epik_Charging_Adjusted_Penalty>
0

> <i_epik_Tot_Q>
0

> <i_epik_Tot_abs_Q>
0

> <r_epik_Metal_State_Penalty>
-0

> <b_epik_Metal_Only>
0

> <s_lp_Force_Field>
OPLS_2005

> <r_lp_Energy>
-3.10021

> <b_lp_Chiralities_Consistent>
1

> <s_lp_Variant>
AV-unprocessed.smi:1988-1

> <Gold.Version>
5.8.1

> <Gold.Id.Protein>
6NUR|6NUR_protein|mol2

> <Gold.PLP.Fitness>
34.9238

> <Gold.PLP.PLP>
-24.6473

> <Gold.PLP.part.hbond>
-4.7073

> <Gold.PLP.part.metal>
0.0000

> <Gold.PLP.part.buried>
-2.1908

> <Gold.PLP.part.nonpolar>
-17.4822

> <Gold.PLP.part.repulsive>
0.1119

> <Gold.PLP.ligand.clash>
0.0000

> <Gold.PLP.ligand.torsion>
0.3864

> <Gold.PLP.Chemscore.Hbond>
3.6800

> <Gold.PLP.Chemscore.CHOScore>
0.0000

> <Gold.PLP.Chemscore.Metal>
0.0000

> <Gold.Chemscore.Hbonds>
donor molecule, donor type, donor heavy atom, donor atom, acceptor molecule, acceptor atom, score
      P1  H  6896  6907       L1    18  1.00
      P1  H  6931  6943       L1    17  0.39
      P1  H  6934  6947       L1    17  0.36
      P1  H  7997  8008       L1     3  1.00

> <Gold.PLP.Chemscore.Internal.Correction>
0.0095

> <Gold.Rescore>
     Score         DG    S(hbond)    S(metal)    S(lipo)     H(rot)  DE(clash)    DE(int)     intcor
     17.81     -18.22       3.56        0.00      44.45       1.70       0.02       0.39       ----

> <Gold.Chemscore.Fitness>
17.8106

> <Gold.Chemscore.DG>
-18.2203

> <Gold.Chemscore.ZeroCoef>
-5.4800

> <Gold.Chemscore.Hbond>
3.5573

> <Gold.Chemscore.Metal>
0.0000

> <Gold.Chemscore.Lipo>
44.4452

> <Gold.Chemscore.Internal_Hbond>
0.0000

> <Gold.Chemscore.DEClash>
0.0215

> <Gold.Chemscore.DEInternal>
0.3882

> <Gold.Chemscore.Rot>
1.6958

> <Gold.Chemscore.Internal.Correction>
   9.000000E+99

> <Gold.Chemscore.Hbonds>
donor molecule, donor type, donor heavy atom, donor atom, acceptor molecule, acceptor atom, score
      P1  H  6896  6907       L1    18  0.99
      P1  H  6931  6943       L1    17  0.38
      P1  H  6934  6947       L1    17  0.36
      P1  H  7997  8008       L1     3  0.22

> <Gold.Chemscore.Hbond.Weighted>
-11.8815

> <Gold.Chemscore.Metal.Weighted>
-0.0000

> <Gold.Chemscore.Lipo.Weighted>
-5.2001

> <Gold.Chemscore.Internal_Hbond.Weighted>
0.0000

> <Gold.Chemscore.DEClash.Weighted>
0.0215

> <Gold.Chemscore.DEInternal.Weighted>
0.3882

> <Gold.Chemscore.Rot.Weighted>
4.3413

> <Gold.Chemscore.Internal.Correction.Weighted>
   9.000000E+99

> <Gold.Protein.RotatedTorsions>
[ 6907 6896 6895 6894 ] final  -84.95 input  -60.11 | X-H torsion
[ 7974 7965 7964 7962 ] final   43.16 input  175.53 | X-H torsion
[ 8008 7997 7996 7995 ] final  -46.88 input   59.86 | X-H torsion
[ 10167 10162 10161 10158 ] final -132.36 input  -65.29 | X-H torsion
[ 10718 10713 10712 10709 ] final  -42.40 input   66.30 | X-H torsion
[ 10763 10752 10751 10750 ] final   43.70 input  -60.55 | X-H torsion
[ 11005 11000 10999 10996 ] final  -35.55 input  -57.11 | X-H torsion

> <Gold.Protein.ActiveResidues>
 VAL166  LYS551  ARG553  GLY616  TRP617  ASP618  TYR619  PRO620  LYS621  CYS622 
 ASP623  PHE694  ASN695  SER759  ASP760  ASP761  ALA762  ILE779  LEU786  VAL792 
 PHE793  MET794  SER795  GLU796  ALA797  LYS798  CYS799  TRP800  GLU811  SER814 

> <Gold.Protein.RotatedAtoms>
  150.6873  134.3279  159.4814 H   0  0  0  0  0  0  0  0  0  0  0  0  # atno 6907 bound_to 6896
  152.1147  134.9246  160.0574 H   0  0  0  0  0  0  0  0  0  0  0  0  # atno 6908 bound_to 6896
  152.0475  133.3970  159.4400 H   0  0  0  0  0  0  0  0  0  0  0  0  # atno 6909 bound_to 6896
  146.0679  139.5218  142.9616 H   0  0  0  0  0  0  0  0  0  0  0  0  # atno 7974 bound_to 7965
  154.4011  140.1360  156.4083 H   0  0  0  0  0  0  0  0  0  0  0  0  # atno 8008 bound_to 7997
  155.7758  140.3483  155.5250 H   0  0  0  0  0  0  0  0  0  0  0  0  # atno 8009 bound_to 7997
  155.8723  140.0974  157.1532 H   0  0  0  0  0  0  0  0  0  0  0  0  # atno 8010 bound_to 7997
  139.9094  143.6512  152.2578 H   0  0  0  0  0  0  0  0  0  0  0  0  # atno 10167 bound_to 10162
  156.2600  130.4196  149.8552 H   0  0  0  0  0  0  0  0  0  0  0  0  # atno 10718 bound_to 10713
  152.9855  135.6093  154.3154 H   0  0  0  0  0  0  0  0  0  0  0  0  # atno 10763 bound_to 10752
  154.2867  135.2776  155.2675 H   0  0  0  0  0  0  0  0  0  0  0  0  # atno 10764 bound_to 10752
  154.4989  135.5872  153.6572 H   0  0  0  0  0  0  0  0  0  0  0  0  # atno 10765 bound_to 10752
  140.9805  133.7059  156.1676 H   0  0  0  0  0  0  0  0  0  0  0  0  # atno 11005 bound_to 11000
  145.6444  141.0277  143.1794 LP  0  0  0  0  0  0  0  0  0  0  0  0  # atno 17320 bound_to 7965
  144.7213  139.8020  143.7381 LP  0  0  0  0  0  0  0  0  0  0  0  0  # atno 17321 bound_to 7965
  139.6956  144.7642  151.1363 LP  0  0  0  0  0  0  0  0  0  0  0  0  # atno 17342 bound_to 10162
  140.7689  143.5529  150.9185 LP  0  0  0  0  0  0  0  0  0  0  0  0  # atno 17343 bound_to 10162
  156.6071  130.8571  151.3445 LP  0  0  0  0  0  0  0  0  0  0  0  0  # atno 17370 bound_to 10713
  157.7247  130.9606  150.1584 LP  0  0  0  0  0  0  0  0  0  0  0  0  # atno 17371 bound_to 10713
  140.7193  134.4375  157.5576 LP  0  0  0  0  0  0  0  0  0  0  0  0  # atno 17394 bound_to 11000
  139.8948  134.8697  156.2160 LP  0  0  0  0  0  0  0  0  0  0  0  0  # atno 17395 bound_to 11000

$$$$
