AV-unprocessed.smi:1509|AV-procd|sdf|6091|dock10
  -GOLD-   22720 6223D 1   1.00000     0.00000
 Structure written by MMmdl.
 42 43  0  0  0  0  0  0  0  0  2 V2000
  145.5405  130.7259  151.7367 C   0  0  0  0  0  0  0  0  0  0  0  0
  145.6385  131.9550  150.8162 C   0  0  1  0  0  0  0  0  0  0  0  0
  144.2661  132.4252  150.3004 C   0  0  0  0  0  0  0  0  0  0  0  0
  143.4701  133.1339  151.4050 C   0  0  0  0  0  0  0  0  0  0  0  0
  144.2927  134.2681  152.0362 C   0  0  0  0  0  0  0  0  0  0  0  0
  145.5920  133.7674  152.5547 N   0  3  2  0  0  0  0  0  0  0  0  0
  146.3387  134.8148  153.2967 C   0  0  0  0  0  0  0  0  0  0  0  0
  147.4554  134.2315  154.1795 C   0  0  0  0  0  0  0  0  0  0  0  0
  147.9858  135.2577  155.1947 C   0  0  0  0  0  0  0  0  0  0  0  0
  148.5456  136.4325  154.5369 N   0  0  0  0  0  0  0  0  0  0  0  0
  148.9070  137.5647  155.1615 C   0  0  0  0  0  0  0  0  0  0  0  0
  148.7720  137.7418  156.3721 O   0  0  0  0  0  0  0  0  0  0  0  0
  149.5121  138.6664  154.2906 C   0  0  0  0  0  0  0  0  0  0  0  0
  150.9580  138.6908  154.4081 N   0  0  0  0  0  0  0  0  0  0  0  0
  151.8720  137.7423  154.1930 C   0  0  0  0  0  0  0  0  0  0  0  0
  153.0984  138.1819  154.4294 N   0  0  0  0  0  0  0  0  0  0  0  0
  152.8924  139.4959  154.8151 N   0  0  0  0  0  0  0  0  0  0  0  0
  151.6244  139.8036  154.8044 N   0  0  0  0  0  0  0  0  0  0  0  0
  146.3970  133.1230  151.4807 C   0  0  0  0  0  0  0  0  0  0  0  0
  144.9947  130.9452  152.6543 H   0  0  0  0  0  0  0  0  0  0  0  0
  146.5315  130.3715  152.0213 H   0  0  0  0  0  0  0  0  0  0  0  0
  145.0304  129.9021  151.2366 H   0  0  0  0  0  0  0  0  0  0  0  0
  146.2195  131.6408  149.9482 H   0  0  0  0  0  0  0  0  0  0  0  0
  144.4130  133.1164  149.4693 H   0  0  0  0  0  0  0  0  0  0  0  0
  143.6970  131.5852  149.9009 H   0  0  0  0  0  0  0  0  0  0  0  0
  142.5431  133.5338  150.9929 H   0  0  0  0  0  0  0  0  0  0  0  0
  143.1775  132.4179  152.1736 H   0  0  0  0  0  0  0  0  0  0  0  0
  144.4718  135.0571  151.3040 H   0  0  0  0  0  0  0  0  0  0  0  0
  143.7167  134.7136  152.8484 H   0  0  0  0  0  0  0  0  0  0  0  0
  146.7400  135.5505  152.5978 H   0  0  0  0  0  0  0  0  0  0  0  0
  145.6481  135.3540  153.9469 H   0  0  0  0  0  0  0  0  0  0  0  0
  147.0789  133.3567  154.7113 H   0  0  0  0  0  0  0  0  0  0  0  0
  148.2817  133.8843  153.5599 H   0  0  0  0  0  0  0  0  0  0  0  0
  147.1940  135.5594  155.8827 H   0  0  0  0  0  0  0  0  0  0  0  0
  148.7700  134.8078  155.8044 H   0  0  0  0  0  0  0  0  0  0  0  0
  148.6878  136.3730  153.5387 H   0  0  0  0  0  0  0  0  0  0  0  0
  149.2435  138.5096  153.2452 H   0  0  0  0  0  0  0  0  0  0  0  0
  149.1128  139.6387  154.5837 H   0  0  0  0  0  0  0  0  0  0  0  0
  151.6411  136.7379  153.8696 H   0  0  0  0  0  0  0  0  0  0  0  0
  147.3436  132.7559  151.8755 H   0  0  0  0  0  0  0  0  0  0  0  0
  146.6483  133.8730  150.7286 H   0  0  0  0  0  0  0  0  0  0  0  0
  145.3661  133.0470  153.2257 H   0  0  0  0  0  0  0  0  0  0  0  0
  1  2  1  0  0  0  0
  1 20  1  0  0  0  0
  1 21  1  0  0  0  0
  1 22  1  0  0  0  0
  2 19  1  0  0  0  0
  2  3  1  0  0  0  0
  2 23  1  0  0  0  0
  3  4  1  0  0  0  0
  3 24  1  0  0  0  0
  3 25  1  0  0  0  0
  4  5  1  0  0  0  0
  4 26  1  0  0  0  0
  4 27  1  0  0  0  0
  5  6  1  0  0  0  0
  5 28  1  0  0  0  0
  5 29  1  0  0  0  0
  6  7  1  0  0  0  0
  6 19  1  0  0  0  0
  6 42  1  0  0  0  0
  7  8  1  0  0  0  0
  7 30  1  0  0  0  0
  7 31  1  0  0  0  0
  8  9  1  0  0  0  0
  8 32  1  0  0  0  0
  8 33  1  0  0  0  0
  9 10  1  0  0  0  0
  9 34  1  0  0  0  0
  9 35  1  0  0  0  0
 10 11  1  0  0  0  0
 10 36  1  0  0  0  0
 11 12  2  0  0  0  0
 11 13  1  0  0  0  0
 13 14  1  0  0  0  0
 13 37  1  0  0  0  0
 13 38  1  0  0  0  0
 14 18  1  0  0  0  0
 14 15  1  0  0  0  0
 15 16  2  0  0  0  0
 15 39  1  0  0  0  0
 16 17  1  0  0  0  0
 17 18  2  0  0  0  0
 19 40  1  0  0  0  0
 19 41  1  0  0  0  0
M  CHG  1   6   1
M  END
> <s_m_source_file>
AV-unprocessed.smi

> <i_m_source_file_index>
1509

> <i_lp_mmshare_version>
43012

> <i_f3d_flags>
0

> <s_epik_input>
W0NIM11bQ0BASF0xW0NIMl1bQ0gyXVtDSDJdTihbQ0gyXTEpW0NIMl1bQ0gyXVtDSDJdW05IXUMoPU8pW0NIMl1uMltjSF1ubm4y

> <s_epik_cmdline>
J2VwaWtfcHl0aG9uJywgJy1waCcsICc3LjAnLCAnLXRuJywgJzgnLCAnLW1hJywgJzIwMCcsICctbWV0YWxfYmluZGluZycsICctaW1hZScsICc8aW5maWxlLm1hZT4nLCAnLW9tYWUnLCAnPG91dGZpbGUubWFlPic=

> <r_lp_tautomer_probability>
1

> <r_epik_Ionization_Penalty>
0.00044216

> <r_epik_Ionization_Penalty_Charging>
0.000440775

> <r_epik_Ionization_Penalty_Neutral>
1.38512e-06

> <r_epik_State_Penalty>
0.000271914

> <r_epik_Charging_Adjusted_Penalty>
0.000712689

> <i_epik_Tot_Q>
1

> <i_epik_Tot_abs_Q>
1

> <r_epik_Metal_State_Penalty>
-0

> <b_epik_Metal_Only>
0

> <s_lp_Force_Field>
OPLS_2005

> <r_lp_Energy>
22.736

> <b_lp_Chiralities_Consistent>
1

> <s_lp_Variant>
AV-unprocessed.smi:1509-2

> <Gold.Version>
5.8.1

> <Gold.Id.Protein>
6NUR|6NUR_protein|mol2

> <Gold.PLP.Fitness>
44.3818

> <Gold.PLP.PLP>
-33.5446

> <Gold.PLP.part.hbond>
-4.7494

> <Gold.PLP.part.metal>
0.0000

> <Gold.PLP.part.buried>
-4.2691

> <Gold.PLP.part.nonpolar>
-23.8264

> <Gold.PLP.part.repulsive>
0.1280

> <Gold.PLP.ligand.clash>
0.0000

> <Gold.PLP.ligand.torsion>
0.4619

> <Gold.PLP.Chemscore.Hbond>
2.9000

> <Gold.PLP.Chemscore.CHOScore>
1.0000

> <Gold.PLP.Chemscore.Metal>
0.0000

> <Gold.Chemscore.Hbonds>
donor molecule, donor type, donor heavy atom, donor atom, acceptor molecule, acceptor atom, score
      L1  H    10    36       P1  7948  1.00
      P1  H  7989  7998       L1    18  0.90
      P1  H  7997  8010       L1    17  0.96
      L1  C    15    39       P1  7949  0.92

> <Gold.PLP.Chemscore.Internal.Correction>
0.0610

> <Gold.Rescore>
     Score         DG    S(hbond)    S(metal)    S(lipo)     H(rot)  DE(clash)    DE(int)     intcor
     11.43     -12.01       1.99        0.00      63.94       2.97       0.05       0.53       ----

> <Gold.Chemscore.Fitness>
11.4279

> <Gold.Chemscore.DG>
-12.0063

> <Gold.Chemscore.ZeroCoef>
-5.4800

> <Gold.Chemscore.Hbond>
1.9889

> <Gold.Chemscore.Metal>
0.0000

> <Gold.Chemscore.Lipo>
63.9447

> <Gold.Chemscore.Internal_Hbond>
0.0000

> <Gold.Chemscore.DEClash>
0.0477

> <Gold.Chemscore.DEInternal>
0.5306

> <Gold.Chemscore.Rot>
2.9680

> <Gold.Chemscore.Internal.Correction>
   9.000000E+99

> <Gold.Chemscore.Hbonds>
donor molecule, donor type, donor heavy atom, donor atom, acceptor molecule, acceptor atom, score
      L1  H    10    36       P1  7948  1.00
      P1  H  7989  7998       L1    18  0.11
      P1  H  7997  8010       L1    17  0.75

> <Gold.Chemscore.Hbond.Weighted>
-6.6428

> <Gold.Chemscore.Metal.Weighted>
-0.0000

> <Gold.Chemscore.Lipo.Weighted>
-7.4815

> <Gold.Chemscore.Internal_Hbond.Weighted>
0.0000

> <Gold.Chemscore.DEClash.Weighted>
0.0477

> <Gold.Chemscore.DEInternal.Weighted>
0.5306

> <Gold.Chemscore.Rot.Weighted>
7.5980

> <Gold.Chemscore.Internal.Correction.Weighted>
   9.000000E+99

> <Gold.Protein.RotatedTorsions>
[ 6907 6896 6895 6894 ] final -124.93 input  -60.11 | X-H torsion
[ 7974 7965 7964 7962 ] final -111.14 input  175.53 | X-H torsion
[ 8008 7997 7996 7995 ] final   93.76 input   59.86 | X-H torsion
[ 10167 10162 10161 10158 ] final   35.24 input  -65.29 | X-H torsion
[ 10718 10713 10712 10709 ] final -106.09 input   66.30 | X-H torsion
[ 10763 10752 10751 10750 ] final  104.87 input  -60.55 | X-H torsion
[ 11005 11000 10999 10996 ] final   51.74 input  -57.11 | X-H torsion

> <Gold.Protein.ActiveResidues>
 VAL166  LYS551  ARG553  GLY616  TRP617  ASP618  TYR619  PRO620  LYS621  CYS622 
 ASP623  PHE694  ASN695  SER759  ASP760  ASP761  ALA762  ILE779  LEU786  VAL792 
 PHE793  MET794  SER795  GLU796  ALA797  LYS798  CYS799  TRP800  GLU811  SER814 

> <Gold.Protein.RotatedAtoms>
  150.8817  133.7363  159.2930 H   0  0  0  0  0  0  0  0  0  0  0  0  # atno 6907 bound_to 6896
  151.4943  135.1057  159.9821 H   0  0  0  0  0  0  0  0  0  0  0  0  # atno 6908 bound_to 6896
  152.4764  133.8102  159.7055 H   0  0  0  0  0  0  0  0  0  0  0  0  # atno 6909 bound_to 6896
  145.1597  140.8872  143.3598 H   0  0  0  0  0  0  0  0  0  0  0  0  # atno 7974 bound_to 7965
  156.0503  140.3309  155.7344 H   0  0  0  0  0  0  0  0  0  0  0  0  # atno 8008 bound_to 7997
  155.5611  140.0619  157.2846 H   0  0  0  0  0  0  0  0  0  0  0  0  # atno 8009 bound_to 7997
  154.4433  140.1877  156.0771 H   0  0  0  0  0  0  0  0  0  0  0  0  # atno 8010 bound_to 7997
  140.4241  144.1418  150.6151 H   0  0  0  0  0  0  0  0  0  0  0  0  # atno 10167 bound_to 10162
  156.0375  130.5596  150.7632 H   0  0  0  0  0  0  0  0  0  0  0  0  # atno 10718 bound_to 10713
  153.3718  135.3928  155.1794 H   0  0  0  0  0  0  0  0  0  0  0  0  # atno 10763 bound_to 10752
  154.8695  135.3704  154.4968 H   0  0  0  0  0  0  0  0  0  0  0  0  # atno 10764 bound_to 10752
  153.5437  135.7084  153.5685 H   0  0  0  0  0  0  0  0  0  0  0  0  # atno 10765 bound_to 10752
  140.0907  134.5213  155.8854 H   0  0  0  0  0  0  0  0  0  0  0  0  # atno 11005 bound_to 11000
  145.0344  139.3313  143.6008 LP  0  0  0  0  0  0  0  0  0  0  0  0  # atno 17320 bound_to 7965
  146.3484  139.9694  142.8708 LP  0  0  0  0  0  0  0  0  0  0  0  0  # atno 17321 bound_to 7965
  140.4501  143.2490  151.9359 LP  0  0  0  0  0  0  0  0  0  0  0  0  # atno 17342 bound_to 10162
  139.4783  144.5570  151.8298 LP  0  0  0  0  0  0  0  0  0  0  0  0  # atno 17343 bound_to 10162
  157.5146  131.0927  151.0156 LP  0  0  0  0  0  0  0  0  0  0  0  0  # atno 17370 bound_to 10713
  157.0502  130.5784  149.5369 LP  0  0  0  0  0  0  0  0  0  0  0  0  # atno 17371 bound_to 10713
  141.2077  133.6666  156.6322 LP  0  0  0  0  0  0  0  0  0  0  0  0  # atno 17394 bound_to 11000
  140.3356  134.7892  157.4359 LP  0  0  0  0  0  0  0  0  0  0  0  0  # atno 17395 bound_to 11000

$$$$
