AV-unprocessed.smi:3058|AV-procd|sdf|11669|dock2
  -GOLD-   2272017 73D 1   1.00000     0.00000
 Structure written by MMmdl.
 38 40  0  0  0  0  0  0  0  0  1 V2000
  152.8179  140.1725  157.4226 O   0  0  0  0  0  0  0  0  0  0  0  0
  151.7136  140.4577  157.8869 C   0  0  0  0  0  0  0  0  0  0  0  0
  150.5634  140.0048  157.3644 N   0  0  0  0  0  0  0  0  0  0  0  0
  150.4567  139.1343  156.1999 C   0  0  0  0  0  0  0  0  0  0  0  0
  150.7960  139.8818  154.8997 C   0  0  0  0  0  0  0  0  0  0  0  0
  149.5577  140.4237  154.2133 C   0  0  0  0  0  0  0  0  0  0  0  0
  149.2394  141.7959  154.2788 C   0  0  0  0  0  0  0  0  0  0  0  0
  148.0813  142.2555  153.6228 C   0  0  0  0  0  0  0  0  0  0  0  0
  147.2880  141.3202  152.9286 C   0  0  0  0  0  0  0  0  0  0  0  0
  147.5832  140.0041  152.8590 N   0  0  0  0  0  0  0  0  0  0  0  0
  148.6962  139.5717  153.4900 C   0  0  0  0  0  0  0  0  0  0  0  0
  151.5848  141.3710  159.1186 C   0  0  2  0  0  0  0  0  0  0  0  0
  150.9758  142.7568  158.7913 C   0  0  0  0  0  0  0  0  0  0  0  0
  152.0241  143.7427  159.3429 C   0  0  1  0  0  0  0  0  0  0  0  0
  152.0351  143.6729  160.8821 C   0  0  0  0  0  0  0  0  0  0  0  0
  152.7094  142.3143  161.1559 C   0  0  0  0  0  0  0  0  0  0  0  0
  152.9504  141.7667  159.7363 C   0  0  2  0  0  0  0  0  0  0  0  0
  153.3297  143.0451  158.9888 C   0  0  0  0  0  0  0  0  0  0  0  0
  149.6994  140.2835  157.8066 H   0  0  0  0  0  0  0  0  0  0  0  0
  151.1053  138.2653  156.3247 H   0  0  0  0  0  0  0  0  0  0  0  0
  149.4354  138.7551  156.1543 H   0  0  0  0  0  0  0  0  0  0  0  0
  151.4802  140.7052  155.1093 H   0  0  0  0  0  0  0  0  0  0  0  0
  151.3158  139.2206  154.2051 H   0  0  0  0  0  0  0  0  0  0  0  0
  149.8716  142.4846  154.8200 H   0  0  0  0  0  0  0  0  0  0  0  0
  147.8072  143.2997  153.6512 H   0  0  0  0  0  0  0  0  0  0  0  0
  146.3924  141.6380  152.4154 H   0  0  0  0  0  0  0  0  0  0  0  0
  148.9050  138.5148  153.4132 H   0  0  0  0  0  0  0  0  0  0  0  0
  150.9739  140.8609  159.8657 H   0  0  0  0  0  0  0  0  0  0  0  0
  150.8447  142.9067  157.7182 H   0  0  0  0  0  0  0  0  0  0  0  0
  150.0003  142.8955  159.2590 H   0  0  0  0  0  0  0  0  0  0  0  0
  151.9214  144.7552  158.9513 H   0  0  0  0  0  0  0  0  0  0  0  0
  152.6255  144.4862  161.3061 H   0  0  0  0  0  0  0  0  0  0  0  0
  151.0313  143.7322  161.3044 H   0  0  0  0  0  0  0  0  0  0  0  0
  153.6551  142.4561  161.6806 H   0  0  0  0  0  0  0  0  0  0  0  0
  152.0890  141.6533  161.7623 H   0  0  0  0  0  0  0  0  0  0  0  0
  153.7037  140.9786  159.6987 H   0  0  0  0  0  0  0  0  0  0  0  0
  153.4724  142.9143  157.9158 H   0  0  0  0  0  0  0  0  0  0  0  0
  154.2098  143.5416  159.4014 H   0  0  0  0  0  0  0  0  0  0  0  0
  1  2  2  0  0  0  0
  2  3  1  0  0  0  0
  2 12  1  0  0  0  0
  3  4  1  0  0  0  0
  3 19  1  0  0  0  0
  4  5  1  0  0  0  0
  4 20  1  0  0  0  0
  4 21  1  0  0  0  0
  5  6  1  0  0  0  0
  5 22  1  0  0  0  0
  5 23  1  0  0  0  0
  6 11  1  0  0  0  0
  6  7  2  0  0  0  0
  7  8  1  0  0  0  0
  7 24  1  0  0  0  0
  8  9  2  0  0  0  0
  8 25  1  0  0  0  0
  9 10  1  0  0  0  0
  9 26  1  0  0  0  0
 10 11  2  0  0  0  0
 11 27  1  0  0  0  0
 12 17  1  0  0  0  0
 12 13  1  0  0  0  0
 12 28  1  0  0  0  0
 13 14  1  0  0  0  0
 13 29  1  0  0  0  0
 13 30  1  0  0  0  0
 14 18  1  0  0  0  0
 14 15  1  0  0  0  0
 14 31  1  0  0  0  0
 15 16  1  0  0  0  0
 15 32  1  0  0  0  0
 15 33  1  0  0  0  0
 16 17  1  0  0  0  0
 16 34  1  0  0  0  0
 16 35  1  0  0  0  0
 17 18  1  0  0  0  0
 17 36  1  0  0  0  0
 18 37  1  0  0  0  0
 18 38  1  0  0  0  0
M  END
> <s_m_source_file>
AV-unprocessed.smi

> <i_m_source_file_index>
3058

> <i_lp_mmshare_version>
43012

> <i_f3d_flags>
0

> <s_epik_input>
W0NIMl0xW0NIMl1bQ0BIXShbQ0gyXTIpW0NAQEhdKFtDSDJdW0NAQEhdMTIpQyg9TylbTkhdW0NIMl1bQ0gyXWMzW2NIXVtjSF1bY0hdbltjSF0z

> <s_epik_cmdline>
J2VwaWtfcHl0aG9uJywgJy1waCcsICc3LjAnLCAnLXRuJywgJzgnLCAnLW1hJywgJzIwMCcsICctbWV0YWxfYmluZGluZycsICctaW1hZScsICc8aW5maWxlLm1hZT4nLCAnLW9tYWUnLCAnPG91dGZpbGUubWFlPic=

> <r_epik_Ionization_Penalty>
0.0135821

> <r_epik_Ionization_Penalty_Charging>
0

> <r_epik_Ionization_Penalty_Neutral>
0.0135821

> <r_epik_State_Penalty>
0.0105782

> <r_epik_Charging_Adjusted_Penalty>
0.0105782

> <i_epik_Tot_Q>
0

> <i_epik_Tot_abs_Q>
0

> <r_epik_Metal_State_Penalty>
0.0103407

> <b_epik_Metal_Only>
0

> <s_lp_Force_Field>
OPLS_2005

> <r_lp_Energy>
46.4183

> <b_lp_Chiralities_Consistent>
1

> <s_lp_Variant>
AV-unprocessed.smi:3058-1

> <Gold.Version>
5.8.1

> <Gold.Id.Protein>
6NUR|6NUR_protein|mol2

> <Gold.PLP.Fitness>
47.2013

> <Gold.PLP.PLP>
-39.6028

> <Gold.PLP.part.hbond>
-1.0000

> <Gold.PLP.part.metal>
0.0000

> <Gold.PLP.part.buried>
0.0706

> <Gold.PLP.part.nonpolar>
-36.6134

> <Gold.PLP.part.repulsive>
1.0495

> <Gold.PLP.ligand.clash>
0.0000

> <Gold.PLP.ligand.torsion>
0.6132

> <Gold.PLP.Chemscore.Hbond>
1.0000

> <Gold.PLP.Chemscore.CHOScore>
1.9229

> <Gold.PLP.Chemscore.Metal>
0.0000

> <Gold.Chemscore.Hbonds>
donor molecule, donor type, donor heavy atom, donor atom, acceptor molecule, acceptor atom, score
      P1  H  7997  8009       L1     1  1.00
      L1  C     9    26       P1 10175  0.01
      L1  C    11    27       P1  7948  0.49

> <Gold.PLP.Chemscore.Internal.Correction>
0.0564

> <Gold.Rescore>
     Score         DG    S(hbond)    S(metal)    S(lipo)     H(rot)  DE(clash)    DE(int)     intcor
     18.73     -19.20       0.98        0.00     119.30       1.37       0.03       0.44       ----

> <Gold.Chemscore.Fitness>
18.7301

> <Gold.Chemscore.DG>
-19.2013

> <Gold.Chemscore.ZeroCoef>
-5.4800

> <Gold.Chemscore.Hbond>
0.9755

> <Gold.Chemscore.Metal>
0.0000

> <Gold.Chemscore.Lipo>
119.3024

> <Gold.Chemscore.Internal_Hbond>
0.0000

> <Gold.Chemscore.DEClash>
0.0316

> <Gold.Chemscore.DEInternal>
0.4396

> <Gold.Chemscore.Rot>
1.3653

> <Gold.Chemscore.Internal.Correction>
   9.000000E+99

> <Gold.Chemscore.Hbonds>
donor molecule, donor type, donor heavy atom, donor atom, acceptor molecule, acceptor atom, score
      P1  H  7997  8009       L1     1  0.96

> <Gold.Chemscore.Hbond.Weighted>
-3.2581

> <Gold.Chemscore.Metal.Weighted>
-0.0000

> <Gold.Chemscore.Lipo.Weighted>
-13.9584

> <Gold.Chemscore.Internal_Hbond.Weighted>
0.0000

> <Gold.Chemscore.DEClash.Weighted>
0.0316

> <Gold.Chemscore.DEInternal.Weighted>
0.4396

> <Gold.Chemscore.Rot.Weighted>
3.4951

> <Gold.Chemscore.Internal.Correction.Weighted>
   9.000000E+99

> <Gold.Protein.RotatedTorsions>
[ 6907 6896 6895 6894 ] final  -22.57 input  -60.11 | X-H torsion
[ 7974 7965 7964 7962 ] final   59.43 input  175.53 | X-H torsion
[ 8008 7997 7996 7995 ] final  176.02 input   59.86 | X-H torsion
[ 10167 10162 10161 10158 ] final  160.28 input  -65.29 | X-H torsion
[ 10718 10713 10712 10709 ] final   46.76 input   66.30 | X-H torsion
[ 10763 10752 10751 10750 ] final   19.17 input  -60.55 | X-H torsion
[ 11005 11000 10999 10996 ] final -177.25 input  -57.11 | X-H torsion

> <Gold.Protein.ActiveResidues>
 VAL166  LYS551  ARG553  GLY616  TRP617  ASP618  TYR619  PRO620  LYS621  CYS622 
 ASP623  PHE694  ASN695  SER759  ASP760  ASP761  ALA762  ILE779  LEU786  VAL792 
 PHE793  MET794  SER795  GLU796  ALA797  LYS798  CYS799  TRP800  GLU811  SER814 

> <Gold.Protein.RotatedAtoms>
  151.2166  135.0502  159.8932 H   0  0  0  0  0  0  0  0  0  0  0  0  # atno 6907 bound_to 6896
  152.5419  134.0686  159.8194 H   0  0  0  0  0  0  0  0  0  0  0  0  # atno 6908 bound_to 6896
  151.0847  133.5314  159.2650 H   0  0  0  0  0  0  0  0  0  0  0  0  # atno 6909 bound_to 6896
  145.9072  139.3626  143.0557 H   0  0  0  0  0  0  0  0  0  0  0  0  # atno 7974 bound_to 7965
  156.0809  140.1394  156.9713 H   0  0  0  0  0  0  0  0  0  0  0  0  # atno 8008 bound_to 7997
  154.4585  140.0952  156.6874 H   0  0  0  0  0  0  0  0  0  0  0  0  # atno 8009 bound_to 7997
  155.5076  140.3453  155.4385 H   0  0  0  0  0  0  0  0  0  0  0  0  # atno 8010 bound_to 7997
  139.4838  144.4649  151.8655 H   0  0  0  0  0  0  0  0  0  0  0  0  # atno 10167 bound_to 10162
  157.4515  130.8141  149.7793 H   0  0  0  0  0  0  0  0  0  0  0  0  # atno 10718 bound_to 10713
  153.1185  135.6713  153.9376 H   0  0  0  0  0  0  0  0  0  0  0  0  # atno 10763 bound_to 10752
  153.8898  135.3048  155.3448 H   0  0  0  0  0  0  0  0  0  0  0  0  # atno 10764 bound_to 10752
  154.7599  135.4993  153.9524 H   0  0  0  0  0  0  0  0  0  0  0  0  # atno 10765 bound_to 10752
  140.4430  134.6413  157.4766 H   0  0  0  0  0  0  0  0  0  0  0  0  # atno 11005 bound_to 11000
  145.8717  140.9416  143.0647 LP  0  0  0  0  0  0  0  0  0  0  0  0  # atno 17320 bound_to 7965
  144.6740  140.0663  143.7474 LP  0  0  0  0  0  0  0  0  0  0  0  0  # atno 17321 bound_to 7965
  140.4114  144.2364  150.5889 LP  0  0  0  0  0  0  0  0  0  0  0  0  # atno 17342 bound_to 10162
  140.4962  143.2332  151.8745 LP  0  0  0  0  0  0  0  0  0  0  0  0  # atno 17343 bound_to 10162
  155.9989  130.3891  150.2684 LP  0  0  0  0  0  0  0  0  0  0  0  0  # atno 17370 bound_to 10713
  157.0856  131.0155  151.3140 LP  0  0  0  0  0  0  0  0  0  0  0  0  # atno 17371 bound_to 10713
  140.0057  134.6768  155.9459 LP  0  0  0  0  0  0  0  0  0  0  0  0  # atno 17394 bound_to 11000
  141.1697  133.6537  156.4607 LP  0  0  0  0  0  0  0  0  0  0  0  0  # atno 17395 bound_to 11000

$$$$
