AV-unprocessed.smi:1|AV-procd|sdf|9|dock3
  -GOLD-   2262015 93D 1   1.00000     0.00000
 Structure written by MMmdl.
 57 62  0  0  0  0  0  0  0  0  1 V2000
  152.9645  140.2783  158.1764 O   0  0  0  0  0  0  0  0  0  0  0  0
  153.2623  140.0930  159.3595 C   0  0  0  0  0  0  0  0  0  0  0  0
  153.7560  138.9446  159.9640 N   0  0  0  0  0  0  0  0  0  0  0  0
  154.4946  138.1176  159.2884 C   0  0  0  0  0  0  0  0  0  0  0  0
  154.9569  138.1236  157.9657 N   0  0  0  0  0  0  0  0  0  0  0  0
  155.7730  137.1464  157.3745 C   0  0  0  0  0  0  0  0  0  0  0  0
  156.2197  136.0789  157.9810 N   0  0  0  0  0  0  0  0  0  0  0  0
  155.7872  136.0250  159.2983 C   0  0  0  0  0  0  0  0  0  0  0  0
  154.9912  136.9135  159.9878 C   0  0  0  0  0  0  0  0  0  0  0  0
  154.7938  136.4867  161.2964 N   0  0  0  0  0  0  0  0  0  0  0  0
  155.4886  135.3529  161.3408 C   0  0  0  0  0  0  0  0  0  0  0  0
  156.1169  135.0150  160.1966 N   0  0  0  0  0  0  0  0  0  0  0  0
  156.9765  133.8158  159.9240 C   0  0  2  0  0  0  0  0  0  0  0  0
  157.4169  133.8717  158.6005 O   0  0  0  0  0  0  0  0  0  0  0  0
  156.6038  133.0344  157.7879 C   0  0  1  0  0  0  0  0  0  0  0  0
  157.3370  132.6785  156.4917 C   0  0  0  0  0  0  0  0  0  0  0  0
  157.4149  133.8383  155.6797 O   0  0  0  0  0  0  0  0  0  0  0  0
  157.4553  133.7237  154.3390 C   0  0  0  0  0  0  0  0  0  0  0  0
  157.4387  132.6432  153.7456 O   0  0  0  0  0  0  0  0  0  0  0  0
  157.5252  135.0431  153.6470 C   0  0  0  0  0  0  0  0  0  0  0  0
  158.0648  136.1570  154.3316 C   0  0  0  0  0  0  0  0  0  0  0  0
  158.1425  137.4158  153.7046 C   0  0  0  0  0  0  0  0  0  0  0  0
  157.6821  137.5760  152.3847 C   0  0  0  0  0  0  0  0  0  0  0  0
  157.1439  136.4756  151.6924 C   0  0  0  0  0  0  0  0  0  0  0  0
  157.0648  135.2160  152.3180 C   0  0  0  0  0  0  0  0  0  0  0  0
  156.3512  131.8367  158.7022 C   0  0  2  0  0  0  0  0  0  0  0  0
  155.1553  131.1546  158.3678 O   0  0  0  0  0  0  0  0  0  0  0  0
  153.9073  131.7633  159.2967 S   0  0  0  0  0  0  0  0  0  0  0  0
  153.0834  132.6380  158.4485 O   0  0  0  0  0  0  0  0  0  0  0  0
  153.3390  130.6593  160.0848 O   0  0  0  0  0  0  0  0  0  0  0  0
  154.8058  132.7291  160.3193 O   0  0  0  0  0  0  0  0  0  0  0  0
  156.1866  132.4988  160.0788 C   0  0  2  0  0  0  0  0  0  0  0  0
  153.1069  141.2360  160.3085 C   0  0  0  0  0  0  0  0  0  0  0  0
  153.7015  141.1787  161.5868 C   0  0  0  0  0  0  0  0  0  0  0  0
  153.5440  142.2498  162.4878 C   0  0  0  0  0  0  0  0  0  0  0  0
  152.7905  143.3797  162.1145 C   0  0  0  0  0  0  0  0  0  0  0  0
  152.1941  143.4386  160.8399 C   0  0  0  0  0  0  0  0  0  0  0  0
  152.3504  142.3680  159.9377 C   0  0  0  0  0  0  0  0  0  0  0  0
  156.0194  137.3470  156.3307 H   0  0  0  0  0  0  0  0  0  0  0  0
  155.5392  134.7546  162.2382 H   0  0  0  0  0  0  0  0  0  0  0  0
  157.8149  133.9155  160.6141 H   0  0  0  0  0  0  0  0  0  0  0  0
  155.6617  133.5398  157.5691 H   0  0  0  0  0  0  0  0  0  0  0  0
  158.3313  132.2858  156.7095 H   0  0  0  0  0  0  0  0  0  0  0  0
  156.7864  131.9069  155.9521 H   0  0  0  0  0  0  0  0  0  0  0  0
  158.4245  136.0583  155.3458 H   0  0  0  0  0  0  0  0  0  0  0  0
  158.5558  138.2592  154.2380 H   0  0  0  0  0  0  0  0  0  0  0  0
  157.7418  138.5410  151.9035 H   0  0  0  0  0  0  0  0  0  0  0  0
  156.7904  136.5973  150.6791 H   0  0  0  0  0  0  0  0  0  0  0  0
  156.6459  134.3925  151.7580 H   0  0  0  0  0  0  0  0  0  0  0  0
  157.2052  131.1580  158.7035 H   0  0  0  0  0  0  0  0  0  0  0  0
  156.6080  131.8926  160.8811 H   0  0  0  0  0  0  0  0  0  0  0  0
  154.2781  140.3136  161.8811 H   0  0  0  0  0  0  0  0  0  0  0  0
  153.9993  142.2036  163.4659 H   0  0  0  0  0  0  0  0  0  0  0  0
  152.6688  144.1999  162.8066 H   0  0  0  0  0  0  0  0  0  0  0  0
  151.6146  144.3042  160.5548 H   0  0  0  0  0  0  0  0  0  0  0  0
  151.8869  142.4189  158.9630 H   0  0  0  0  0  0  0  0  0  0  0  0
  154.6794  138.9036  157.3875 H   0  0  0  0  0  0  0  0  0  0  0  0
  1  2  2  0  0  0  0
  2  3  1  0  0  0  0
  2 33  1  0  0  0  0
  3  4  2  0  0  0  0
  4  9  1  0  0  0  0
  4  5  1  0  0  0  0
  5  6  1  0  0  0  0
  5 57  1  0  0  0  0
  6  7  2  0  0  0  0
  6 39  1  0  0  0  0
  7  8  1  0  0  0  0
  8 12  1  0  0  0  0
  8  9  2  0  0  0  0
  9 10  1  0  0  0  0
 10 11  2  0  0  0  0
 11 12  1  0  0  0  0
 11 40  1  0  0  0  0
 12 13  1  0  0  0  0
 13 32  1  0  0  0  0
 13 14  1  0  0  0  0
 13 41  1  0  0  0  0
 14 15  1  0  0  0  0
 15 16  1  0  0  0  0
 15 26  1  0  0  0  0
 15 42  1  0  0  0  0
 16 17  1  0  0  0  0
 16 43  1  0  0  0  0
 16 44  1  0  0  0  0
 17 18  1  0  0  0  0
 18 19  2  0  0  0  0
 18 20  1  0  0  0  0
 20 25  1  0  0  0  0
 20 21  2  0  0  0  0
 21 22  1  0  0  0  0
 21 45  1  0  0  0  0
 22 23  2  0  0  0  0
 22 46  1  0  0  0  0
 23 24  1  0  0  0  0
 23 47  1  0  0  0  0
 24 25  2  0  0  0  0
 24 48  1  0  0  0  0
 25 49  1  0  0  0  0
 26 32  1  0  0  0  0
 26 27  1  0  0  0  0
 26 50  1  0  0  0  0
 27 28  1  0  0  0  0
 28 29  2  0  0  0  0
 28 30  2  0  0  0  0
 28 31  1  0  0  0  0
 31 32  1  0  0  0  0
 32 51  1  0  0  0  0
 33 38  1  0  0  0  0
 33 34  2  0  0  0  0
 34 35  1  0  0  0  0
 34 52  1  0  0  0  0
 35 36  2  0  0  0  0
 35 53  1  0  0  0  0
 36 37  1  0  0  0  0
 36 54  1  0  0  0  0
 37 38  2  0  0  0  0
 37 55  1  0  0  0  0
 38 56  1  0  0  0  0
M  END
> <s_m_source_file>
AV-unprocessed.smi

> <i_m_source_file_index>
1

> <i_lp_mmshare_version>
43012

> <i_f3d_flags>
0

> <s_epik_input>
W2NIXTFbY0hdW2NIXVtjSF1bY0hdYzFDKD1PKVtOSF1jKG5bY0hdbjIpYyhjMjMpbltjSF1uM1tDQEBIXShbQ0BIXShbQ0BIXTQ1KU9TKE81KSg9Tyk9TylPW0NASF00W0NIMl1PQyg9TyljNltjSF1bY0hdW2NIXVtjSF1bY0hdNg==

> <s_epik_cmdline>
J2VwaWtfcHl0aG9uJywgJy1waCcsICc3LjAnLCAnLXRuJywgJzgnLCAnLW1hJywgJzIwMCcsICctbWV0YWxfYmluZGluZycsICctaW1hZScsICc8aW5maWxlLm1hZT4nLCAnLW9tYWUnLCAnPG91dGZpbGUubWFlPic=

> <r_epik_Ionization_Penalty>
0.122545

> <r_epik_Ionization_Penalty_Charging>
0.122545

> <r_epik_Ionization_Penalty_Neutral>
7.8935e-16

> <r_epik_State_Penalty>
2.69178

> <r_epik_Charging_Adjusted_Penalty>
2.81433

> <i_epik_Tot_Q>
0

> <i_epik_Tot_abs_Q>
0

> <r_epik_Metal_State_Penalty>
3.02665

> <b_epik_Metal_Only>
0

> <s_epik_Chemistry_Notes>
This compound has an ester and may undergo hydrolysis at high or low pH. This compound contains an acetal/aminal-like group ( X-CH(R)-Y where X, Y are N, S, or O) that may be acid/base labile, releasing an aldehyde.

> <s_lp_Force_Field>
OPLS_2005

> <r_lp_Energy>
57.7872

> <b_lp_Chiralities_Consistent>
1

> <s_lp_Variant>
AV-unprocessed.smi:1-9

> <Gold.Version>
5.8.1

> <Gold.Id.Protein>
6NUR|6NUR_protein|mol2

> <Gold.PLP.Fitness>
48.6214

> <Gold.PLP.PLP>
-44.1357

> <Gold.PLP.part.hbond>
-2.0000

> <Gold.PLP.part.metal>
0.0000

> <Gold.PLP.part.buried>
-4.3111

> <Gold.PLP.part.nonpolar>
-38.7713

> <Gold.PLP.part.repulsive>
2.1441

> <Gold.PLP.ligand.clash>
0.0000

> <Gold.PLP.ligand.torsion>
0.7713

> <Gold.PLP.Chemscore.Hbond>
1.9120

> <Gold.PLP.Chemscore.CHOScore>
0.0000

> <Gold.PLP.Chemscore.Metal>
0.0000

> <Gold.Chemscore.Hbonds>
donor molecule, donor type, donor heavy atom, donor atom, acceptor molecule, acceptor atom, score
      P1  H  6896  6907       L1    29  1.00
      P1  H  7997  8010       L1     1  0.93

> <Gold.PLP.Chemscore.Internal.Correction>
0.2923

> <Gold.Rescore>
     Score         DG    S(hbond)    S(metal)    S(lipo)     H(rot)  DE(clash)    DE(int)     intcor
     16.39     -20.18       1.83        0.00     119.97       2.13       0.01       3.78       ----

> <Gold.Chemscore.Fitness>
16.3929

> <Gold.Chemscore.DG>
-20.1826

> <Gold.Chemscore.ZeroCoef>
-5.4800

> <Gold.Chemscore.Hbond>
1.8345

> <Gold.Chemscore.Metal>
0.0000

> <Gold.Chemscore.Lipo>
119.9724

> <Gold.Chemscore.Internal_Hbond>
0.0000

> <Gold.Chemscore.DEClash>
0.0118

> <Gold.Chemscore.DEInternal>
3.7779

> <Gold.Chemscore.Rot>
2.1333

> <Gold.Chemscore.Internal.Correction>
   9.000000E+99

> <Gold.Chemscore.Hbonds>
donor molecule, donor type, donor heavy atom, donor atom, acceptor molecule, acceptor atom, score
      P1  H  6896  6907       L1    29  0.53
      P1  H  7997  8010       L1     1  0.76

> <Gold.Chemscore.Hbond.Weighted>
-6.1272

> <Gold.Chemscore.Metal.Weighted>
-0.0000

> <Gold.Chemscore.Lipo.Weighted>
-14.0368

> <Gold.Chemscore.Internal_Hbond.Weighted>
0.0000

> <Gold.Chemscore.DEClash.Weighted>
0.0118

> <Gold.Chemscore.DEInternal.Weighted>
3.7779

> <Gold.Chemscore.Rot.Weighted>
5.4614

> <Gold.Chemscore.Internal.Correction.Weighted>
   9.000000E+99

> <Gold.Protein.RotatedTorsions>
[ 6907 6896 6895 6894 ] final  153.54 input  -60.11 | X-H torsion
[ 7974 7965 7964 7962 ] final  -43.77 input  175.53 | X-H torsion
[ 8008 7997 7996 7995 ] final   42.83 input   59.86 | X-H torsion
[ 10167 10162 10161 10158 ] final -175.13 input  -65.29 | X-H torsion
[ 10718 10713 10712 10709 ] final   35.06 input   66.30 | X-H torsion
[ 10763 10752 10751 10750 ] final  146.16 input  -60.55 | X-H torsion
[ 11005 11000 10999 10996 ] final   84.57 input  -57.11 | X-H torsion

> <Gold.Protein.ActiveResidues>
 VAL166  LYS551  ARG553  GLY616  TRP617  ASP618  TYR619  PRO620  LYS621  CYS622 
 ASP623  PHE694  ASN695  SER759  ASP760  ASP761  ALA762  ILE779  LEU786  VAL792 
 PHE793  MET794  SER795  GLU796  ALA797  LYS798  CYS799  TRP800  GLU811  SER814 

> <Gold.Protein.RotatedAtoms>
  152.0712  133.4107  159.4459 H   0  0  0  0  0  0  0  0  0  0  0  0  # atno 6907 bound_to 6896
  150.6863  134.3089  159.4747 H   0  0  0  0  0  0  0  0  0  0  0  0  # atno 6908 bound_to 6896
  152.0921  134.9399  160.0622 H   0  0  0  0  0  0  0  0  0  0  0  0  # atno 6909 bound_to 6896
  145.9986  140.7100  142.9281 H   0  0  0  0  0  0  0  0  0  0  0  0  # atno 7974 bound_to 7965
  155.2927  140.3380  155.4251 H   0  0  0  0  0  0  0  0  0  0  0  0  # atno 8008 bound_to 7997
  156.2038  140.1743  156.7882 H   0  0  0  0  0  0  0  0  0  0  0  0  # atno 8009 bound_to 7997
  154.5594  140.0690  156.8779 H   0  0  0  0  0  0  0  0  0  0  0  0  # atno 8010 bound_to 7997
  139.5597  144.1900  152.1218 H   0  0  0  0  0  0  0  0  0  0  0  0  # atno 10167 bound_to 10162
  157.3181  130.7434  149.6767 H   0  0  0  0  0  0  0  0  0  0  0  0  # atno 10718 bound_to 10713
  154.0173  135.2909  155.3385 H   0  0  0  0  0  0  0  0  0  0  0  0  # atno 10763 bound_to 10752
  154.7067  135.5166  153.8609 H   0  0  0  0  0  0  0  0  0  0  0  0  # atno 10764 bound_to 10752
  153.0696  135.6643  154.0399 H   0  0  0  0  0  0  0  0  0  0  0  0  # atno 10765 bound_to 10752
  139.8996  134.8225  156.2463 H   0  0  0  0  0  0  0  0  0  0  0  0  # atno 11005 bound_to 11000
  144.6912  140.3194  143.7235 LP  0  0  0  0  0  0  0  0  0  0  0  0  # atno 17320 bound_to 7965
  145.7521  139.1797  143.2315 LP  0  0  0  0  0  0  0  0  0  0  0  0  # atno 17321 bound_to 7965
  140.1411  144.5201  150.6743 LP  0  0  0  0  0  0  0  0  0  0  0  0  # atno 17342 bound_to 10162
  140.6875  143.2358  151.5221 LP  0  0  0  0  0  0  0  0  0  0  0  0  # atno 17343 bound_to 10162
  155.9683  130.4231  150.4548 LP  0  0  0  0  0  0  0  0  0  0  0  0  # atno 17370 bound_to 10713
  157.2559  131.0556  151.2351 LP  0  0  0  0  0  0  0  0  0  0  0  0  # atno 17371 bound_to 10713
  141.0253  133.7019  156.1336 LP  0  0  0  0  0  0  0  0  0  0  0  0  # atno 17394 bound_to 11000
  140.7175  134.4394  157.5577 LP  0  0  0  0  0  0  0  0  0  0  0  0  # atno 17395 bound_to 11000

$$$$
