AV-unprocessed.smi:2662|AV-procd|sdf|10320|dock3
  -GOLD-   2272014333D 1   1.00000     0.00000
 Structure written by MMmdl.
 37 39  0  0  0  0  0  0  0  0  2 V2000
  151.6637  136.6952  154.2191 O   0  0  0  0  0  0  0  0  0  0  0  0
  151.7710  137.9903  154.7664 C   0  0  0  0  0  0  0  0  0  0  0  0
  150.5681  138.8289  154.4793 C   0  0  0  0  0  0  0  0  0  0  0  0
  149.5470  138.4810  153.6459 N   0  3  0  0  0  0  0  0  0  0  0  0
  148.6007  139.5050  153.6019 C   0  0  0  0  0  0  0  0  0  0  0  0
  147.4039  139.6113  152.9000 C   0  0  0  0  0  0  0  0  0  0  0  0
  146.6698  140.8024  153.0778 C   0  0  0  0  0  0  0  0  0  0  0  0
  147.1315  141.8299  153.9261 C   0  0  0  0  0  0  0  0  0  0  0  0
  148.3470  141.7109  154.6320 C   0  0  0  0  0  0  0  0  0  0  0  0
  149.0663  140.5298  154.4503 C   0  0  0  0  0  0  0  0  0  0  0  0
  150.2830  140.0722  154.9683 N   0  0  0  0  0  0  0  0  0  0  0  0
  151.0316  140.9417  155.8907 C   0  0  0  0  0  0  0  0  0  0  0  0
  150.8085  140.5799  157.3728 C   0  0  2  0  0  0  0  0  0  0  0  0
  149.4231  140.5819  157.6624 O   0  0  0  0  0  0  0  0  0  0  0  0
  151.6060  141.5007  158.2867 C   0  0  0  0  0  0  0  0  0  0  0  0
  151.4905  142.9052  158.1766 C   0  0  0  0  0  0  0  0  0  0  0  0
  152.2415  143.7494  159.0171 C   0  0  0  0  0  0  0  0  0  0  0  0
  152.1231  145.0936  158.9060 F   0  0  0  0  0  0  0  0  0  0  0  0
  153.1176  143.1967  159.9699 C   0  0  0  0  0  0  0  0  0  0  0  0
  153.2438  141.7990  160.0801 C   0  0  0  0  0  0  0  0  0  0  0  0
  152.4930  140.9525  159.2410 C   0  0  0  0  0  0  0  0  0  0  0  0
  152.6343  139.6096  159.3522 F   0  0  0  0  0  0  0  0  0  0  0  0
  151.4032  136.7716  153.3139 H   0  0  0  0  0  0  0  0  0  0  0  0
  151.9003  137.9077  155.8457 H   0  0  0  0  0  0  0  0  0  0  0  0
  152.6688  138.4690  154.3779 H   0  0  0  0  0  0  0  0  0  0  0  0
  147.0488  138.8258  152.2488 H   0  0  0  0  0  0  0  0  0  0  0  0
  145.7347  140.9310  152.5523 H   0  0  0  0  0  0  0  0  0  0  0  0
  146.5421  142.7286  154.0368 H   0  0  0  0  0  0  0  0  0  0  0  0
  148.6933  142.5049  155.2773 H   0  0  0  0  0  0  0  0  0  0  0  0
  152.0898  140.8829  155.6324 H   0  0  0  0  0  0  0  0  0  0  0  0
  150.7353  141.9736  155.7039 H   0  0  0  0  0  0  0  0  0  0  0  0
  151.1475  139.5579  157.5447 H   0  0  0  0  0  0  0  0  0  0  0  0
  149.2482  141.2666  158.2901 H   0  0  0  0  0  0  0  0  0  0  0  0
  150.8284  143.3445  157.4448 H   0  0  0  0  0  0  0  0  0  0  0  0
  153.6956  143.8441  160.6129 H   0  0  0  0  0  0  0  0  0  0  0  0
  153.9205  141.3749  160.8072 H   0  0  0  0  0  0  0  0  0  0  0  0
  149.5089  137.6067  153.1380 H   0  0  0  0  0  0  0  0  0  0  0  0
  1  2  1  0  0  0  0
  1 23  1  0  0  0  0
  2  3  1  0  0  0  0
  2 24  1  0  0  0  0
  2 25  1  0  0  0  0
  3 11  1  0  0  0  0
  3  4  2  0  0  0  0
  4  5  1  0  0  0  0
  4 37  1  0  0  0  0
  5 10  2  0  0  0  0
  5  6  1  0  0  0  0
  6  7  2  0  0  0  0
  6 26  1  0  0  0  0
  7  8  1  0  0  0  0
  7 27  1  0  0  0  0
  8  9  2  0  0  0  0
  8 28  1  0  0  0  0
  9 10  1  0  0  0  0
  9 29  1  0  0  0  0
 10 11  1  0  0  0  0
 11 12  1  0  0  0  0
 12 13  1  0  0  0  0
 12 30  1  0  0  0  0
 12 31  1  0  0  0  0
 13 14  1  0  0  0  0
 13 15  1  0  0  0  0
 13 32  1  0  0  0  0
 14 33  1  0  0  0  0
 15 21  1  0  0  0  0
 15 16  2  0  0  0  0
 16 17  1  0  0  0  0
 16 34  1  0  0  0  0
 17 18  1  0  0  0  0
 17 19  2  0  0  0  0
 19 20  1  0  0  0  0
 19 35  1  0  0  0  0
 20 21  2  0  0  0  0
 20 36  1  0  0  0  0
 21 22  1  0  0  0  0
M  CHG  1   4   1
M  END
> <s_m_source_file>
AV-unprocessed.smi

> <i_m_source_file_index>
2662

> <i_lp_mmshare_version>
43012

> <i_f3d_flags>
0

> <s_epik_input>
W2NIXTFbY0hdW2NIXVtjSF1jKGMxMiluKGMobjIpW0NIMl1bT0hdKVtDSDJdW0NASF0oW09IXSljM1tjSF1jKEYpW2NIXVtjSF1jM0Y=

> <s_epik_cmdline>
J2VwaWtfcHl0aG9uJywgJy1waCcsICc3LjAnLCAnLXRuJywgJzgnLCAnLW1hJywgJzIwMCcsICctbWV0YWxfYmluZGluZycsICctaW1hZScsICc8aW5maWxlLm1hZT4nLCAnLW9tYWUnLCAnPG91dGZpbGUubWFlPic=

> <r_epik_Ionization_Penalty>
1.35643

> <r_epik_Ionization_Penalty_Charging>
1.35557

> <r_epik_Ionization_Penalty_Neutral>
0.000859316

> <r_epik_State_Penalty>
1.43401

> <r_epik_Charging_Adjusted_Penalty>
2.78958

> <i_epik_Tot_Q>
1

> <i_epik_Tot_abs_Q>
1

> <r_epik_Metal_State_Penalty>
5.47166

> <b_epik_Metal_Only>
0

> <s_lp_Force_Field>
OPLS_2005

> <r_lp_Energy>
14.5058

> <b_lp_Chiralities_Consistent>
1

> <s_lp_Variant>
AV-unprocessed.smi:2662-3

> <Gold.Version>
5.8.1

> <Gold.Id.Protein>
6NUR|6NUR_protein|mol2

> <Gold.PLP.Fitness>
64.5948

> <Gold.PLP.PLP>
-53.5196

> <Gold.PLP.part.hbond>
-4.0000

> <Gold.PLP.part.metal>
0.0000

> <Gold.PLP.part.buried>
1.6397

> <Gold.PLP.part.nonpolar>
-52.2034

> <Gold.PLP.part.repulsive>
0.0678

> <Gold.PLP.ligand.clash>
0.0000

> <Gold.PLP.ligand.torsion>
0.5054

> <Gold.PLP.Chemscore.Hbond>
4.0000

> <Gold.PLP.Chemscore.CHOScore>
0.0000

> <Gold.PLP.Chemscore.Metal>
0.0000

> <Gold.Chemscore.Hbonds>
donor molecule, donor type, donor heavy atom, donor atom, acceptor molecule, acceptor atom, score
      L1  H     1    23       P1  7949  1.00
      L1  H     4    37       P1  7948  2.00
      P1  H 10752 10764       L1     1  1.00

> <Gold.PLP.Chemscore.Internal.Correction>
0.0860

> <Gold.Rescore>
     Score         DG    S(hbond)    S(metal)    S(lipo)     H(rot)  DE(clash)    DE(int)     intcor
     18.97     -21.08       2.64        0.00     122.61       2.95       1.81       0.31       ----

> <Gold.Chemscore.Fitness>
18.9703

> <Gold.Chemscore.DG>
-21.0827

> <Gold.Chemscore.ZeroCoef>
-5.4800

> <Gold.Chemscore.Hbond>
2.6356

> <Gold.Chemscore.Metal>
0.0000

> <Gold.Chemscore.Lipo>
122.6096

> <Gold.Chemscore.Internal_Hbond>
0.0000

> <Gold.Chemscore.DEClash>
1.8056

> <Gold.Chemscore.DEInternal>
0.3068

> <Gold.Chemscore.Rot>
2.9475

> <Gold.Chemscore.Internal.Correction>
   9.000000E+99

> <Gold.Chemscore.Hbonds>
donor molecule, donor type, donor heavy atom, donor atom, acceptor molecule, acceptor atom, score
      L1  H     1    23       P1  7949  0.76
      L1  H     4    37       P1  7948  0.88
      P1  H 10752 10764       L1     1  0.68

> <Gold.Chemscore.Hbond.Weighted>
-8.8031

> <Gold.Chemscore.Metal.Weighted>
-0.0000

> <Gold.Chemscore.Lipo.Weighted>
-14.3453

> <Gold.Chemscore.Internal_Hbond.Weighted>
0.0000

> <Gold.Chemscore.DEClash.Weighted>
1.8056

> <Gold.Chemscore.DEInternal.Weighted>
0.3068

> <Gold.Chemscore.Rot.Weighted>
7.5457

> <Gold.Chemscore.Internal.Correction.Weighted>
   9.000000E+99

> <Gold.Protein.RotatedTorsions>
[ 6907 6896 6895 6894 ] final  127.63 input  -60.11 | X-H torsion
[ 7974 7965 7964 7962 ] final -163.89 input  175.53 | X-H torsion
[ 8008 7997 7996 7995 ] final -130.80 input   59.86 | X-H torsion
[ 10167 10162 10161 10158 ] final  124.23 input  -65.29 | X-H torsion
[ 10718 10713 10712 10709 ] final   90.90 input   66.30 | X-H torsion
[ 10763 10752 10751 10750 ] final  -74.07 input  -60.55 | X-H torsion
[ 11005 11000 10999 10996 ] final -165.06 input  -57.11 | X-H torsion

> <Gold.Protein.ActiveResidues>
 VAL166  LYS551  ARG553  GLY616  TRP617  ASP618  TYR619  PRO620  LYS621  CYS622 
 ASP623  PHE694  ASN695  SER759  ASP760  ASP761  ALA762  ILE779  LEU786  VAL792 
 PHE793  MET794  SER795  GLU796  ALA797  LYS798  CYS799  TRP800  GLU811  SER814 

> <Gold.Protein.RotatedAtoms>
  152.3795  133.6526  159.6149 H   0  0  0  0  0  0  0  0  0  0  0  0  # atno 6907 bound_to 6896
  150.7730  133.9138  159.3386 H   0  0  0  0  0  0  0  0  0  0  0  0  # atno 6908 bound_to 6896
  151.6946  135.0942  160.0291 H   0  0  0  0  0  0  0  0  0  0  0  0  # atno 6909 bound_to 6896
  144.7312  140.3040  143.6199 H   0  0  0  0  0  0  0  0  0  0  0  0  # atno 7974 bound_to 7965
  155.3017  140.0453  157.3030 H   0  0  0  0  0  0  0  0  0  0  0  0  # atno 8008 bound_to 7997
  154.5483  140.2309  155.8494 H   0  0  0  0  0  0  0  0  0  0  0  0  # atno 8009 bound_to 7997
  156.1944  140.3042  155.9403 H   0  0  0  0  0  0  0  0  0  0  0  0  # atno 8010 bound_to 7997
  139.5753  144.6960  151.3669 H   0  0  0  0  0  0  0  0  0  0  0  0  # atno 10167 bound_to 10162
  157.6960  131.0387  150.3648 H   0  0  0  0  0  0  0  0  0  0  0  0  # atno 10718 bound_to 10713
  154.4681  135.5876  153.6302 H   0  0  0  0  0  0  0  0  0  0  0  0  # atno 10763 bound_to 10752
  152.9831  135.6060  154.3402 H   0  0  0  0  0  0  0  0  0  0  0  0  # atno 10764 bound_to 10752
  154.3281  135.2843  155.2465 H   0  0  0  0  0  0  0  0  0  0  0  0  # atno 10765 bound_to 10752
  140.5799  134.5152  157.5176 H   0  0  0  0  0  0  0  0  0  0  0  0  # atno 11005 bound_to 11000
  145.7731  139.1864  143.2201 LP  0  0  0  0  0  0  0  0  0  0  0  0  # atno 17320 bound_to 7965
  146.0894  140.7673  142.9602 LP  0  0  0  0  0  0  0  0  0  0  0  0  # atno 17321 bound_to 7965
  140.7036  143.7570  150.7444 LP  0  0  0  0  0  0  0  0  0  0  0  0  # atno 17342 bound_to 10162
  140.1088  143.4719  152.2382 LP  0  0  0  0  0  0  0  0  0  0  0  0  # atno 17343 bound_to 10162
  156.4080  130.3928  149.6912 LP  0  0  0  0  0  0  0  0  0  0  0  0  # atno 17370 bound_to 10713
  156.4206  130.7767  151.2784 LP  0  0  0  0  0  0  0  0  0  0  0  0  # atno 17371 bound_to 10713
  139.9322  134.7942  156.0900 LP  0  0  0  0  0  0  0  0  0  0  0  0  # atno 17394 bound_to 11000
  141.1003  133.6680  156.2738 LP  0  0  0  0  0  0  0  0  0  0  0  0  # atno 17395 bound_to 11000

$$$$
