AV-unprocessed.smi:1598|AV-procd|sdf|6421|dock2
  -GOLD-   22720 7 63D 1   1.00000     0.00000
 Structure written by MMmdl.
 39 39  0  0  0  0  0  0  0  0  1 V2000
  153.5691  137.0884  164.9959 C   0  0  0  0  0  0  0  0  0  0  0  0
  152.7803  136.7652  163.8648 O   0  0  0  0  0  0  0  0  0  0  0  0
  153.1682  137.4873  162.7058 C   0  0  0  0  0  0  0  0  0  0  0  0
  153.0990  136.5714  161.4708 C   0  0  2  0  0  0  0  0  0  0  0  0
  154.0526  135.3736  161.5784 C   0  0  0  0  0  0  0  0  0  0  0  0
  153.3978  137.3274  160.2597 N   0  0  0  0  0  0  0  0  0  0  0  0
  152.5724  137.5018  159.2136 C   0  0  0  0  0  0  0  0  0  0  0  0
  151.4516  136.9977  159.1565 O   0  0  0  0  0  0  0  0  0  0  0  0
  153.0554  138.3886  158.0499 C   0  0  0  0  0  0  0  0  0  0  0  0
  152.2607  139.6254  157.8260 N   0  0  0  0  0  0  0  0  0  0  0  0
  151.5856  139.8265  156.5807 C   0  0  0  0  0  0  0  0  0  0  0  0
  151.6670  138.7450  155.4932 C   0  0  0  0  0  0  0  0  0  0  0  0
  150.9984  139.1113  154.3987 F   0  0  0  0  0  0  0  0  0  0  0  0
  152.9313  138.5397  155.1228 F   0  0  0  0  0  0  0  0  0  0  0  0
  151.1336  137.5911  155.8934 F   0  0  0  0  0  0  0  0  0  0  0  0
  150.8642  140.9454  156.3840 C   0  0  0  0  0  0  0  0  0  0  0  0
  150.7765  141.9406  157.4167 C   0  0  0  0  0  0  0  0  0  0  0  0
  151.4077  141.7661  158.5999 C   0  0  0  0  0  0  0  0  0  0  0  0
  151.3440  142.7613  159.6948 C   0  0  0  0  0  0  0  0  0  0  0  0
  150.7356  143.9069  159.3625 N   0  0  0  0  0  0  0  0  0  0  0  0
  151.7809  142.6341  160.8385 O   0  0  0  0  0  0  0  0  0  0  0  0
  152.2082  140.5407  158.8545 C   0  0  0  0  0  0  0  0  0  0  0  0
  152.7975  140.3128  159.9152 O   0  0  0  0  0  0  0  0  0  0  0  0
  153.2381  136.5014  165.8525 H   0  0  0  0  0  0  0  0  0  0  0  0
  153.4742  138.1441  165.2532 H   0  0  0  0  0  0  0  0  0  0  0  0
  154.6218  136.8635  164.8201 H   0  0  0  0  0  0  0  0  0  0  0  0
  152.5147  138.3502  162.5678 H   0  0  0  0  0  0  0  0  0  0  0  0
  154.1823  137.8705  162.8302 H   0  0  0  0  0  0  0  0  0  0  0  0
  152.0855  136.1738  161.3962 H   0  0  0  0  0  0  0  0  0  0  0  0
  153.8380  134.7810  162.4679 H   0  0  0  0  0  0  0  0  0  0  0  0
  155.0932  135.6946  161.6354 H   0  0  0  0  0  0  0  0  0  0  0  0
  153.9549  134.7167  160.7133 H   0  0  0  0  0  0  0  0  0  0  0  0
  154.2988  137.7817  160.2270 H   0  0  0  0  0  0  0  0  0  0  0  0
  154.1027  138.6350  158.2341 H   0  0  0  0  0  0  0  0  0  0  0  0
  153.1176  137.7681  157.1611 H   0  0  0  0  0  0  0  0  0  0  0  0
  150.3401  141.1147  155.4552 H   0  0  0  0  0  0  0  0  0  0  0  0
  150.1893  142.8214  157.2031 H   0  0  0  0  0  0  0  0  0  0  0  0
  150.6457  144.6484  160.0416 H   0  0  0  0  0  0  0  0  0  0  0  0
  150.3707  144.0249  158.4285 H   0  0  0  0  0  0  0  0  0  0  0  0
  1  2  1  0  0  0  0
  1 24  1  0  0  0  0
  1 25  1  0  0  0  0
  1 26  1  0  0  0  0
  2  3  1  0  0  0  0
  3  4  1  0  0  0  0
  3 27  1  0  0  0  0
  3 28  1  0  0  0  0
  4  5  1  0  0  0  0
  4  6  1  0  0  0  0
  4 29  1  0  0  0  0
  5 30  1  0  0  0  0
  5 31  1  0  0  0  0
  5 32  1  0  0  0  0
  6  7  1  0  0  0  0
  6 33  1  0  0  0  0
  7  8  2  0  0  0  0
  7  9  1  0  0  0  0
  9 10  1  0  0  0  0
  9 34  1  0  0  0  0
  9 35  1  0  0  0  0
 10 22  1  0  0  0  0
 10 11  1  0  0  0  0
 11 12  1  0  0  0  0
 11 16  2  0  0  0  0
 12 13  1  0  0  0  0
 12 14  1  0  0  0  0
 12 15  1  0  0  0  0
 16 17  1  0  0  0  0
 16 36  1  0  0  0  0
 17 18  2  0  0  0  0
 17 37  1  0  0  0  0
 18 19  1  0  0  0  0
 18 22  1  0  0  0  0
 19 20  1  0  0  0  0
 19 21  2  0  0  0  0
 20 38  1  0  0  0  0
 20 39  1  0  0  0  0
 22 23  2  0  0  0  0
M  END
> <s_m_source_file>
AV-unprocessed.smi

> <i_m_source_file_index>
1598

> <i_lp_mmshare_version>
43012

> <i_f3d_flags>
0

> <s_epik_input>
W0NIM11PW0NIMl1bQ0BIXShbQ0gzXSlbTkhdQyg9TylbQ0gyXW4xYyhDKEYpKEYpRilbY0hdW2NIXWMoYzE9TylDKD1PKVtOSDJd

> <s_epik_cmdline>
J2VwaWtfcHl0aG9uJywgJy1waCcsICc3LjAnLCAnLXRuJywgJzgnLCAnLW1hJywgJzIwMCcsICctbWV0YWxfYmluZGluZycsICctaW1hZScsICc8aW5maWxlLm1hZT4nLCAnLW9tYWUnLCAnPG91dGZpbGUubWFlPic=

> <r_lp_tautomer_probability>
1

> <r_epik_Ionization_Penalty>
2.07884e-06

> <r_epik_Ionization_Penalty_Charging>
8.00383e-10

> <r_epik_Ionization_Penalty_Neutral>
2.07804e-06

> <r_epik_State_Penalty>
-0

> <r_epik_Charging_Adjusted_Penalty>
8.00383e-10

> <i_epik_Tot_Q>
0

> <i_epik_Tot_abs_Q>
0

> <r_epik_Metal_State_Penalty>
-0

> <b_epik_Metal_Only>
0

> <s_lp_Force_Field>
OPLS_2005

> <r_lp_Energy>
25.9184

> <b_lp_Chiralities_Consistent>
1

> <s_lp_Variant>
AV-unprocessed.smi:1598-1

> <Gold.Version>
5.8.1

> <Gold.Id.Protein>
6NUR|6NUR_protein|mol2

> <Gold.PLP.Fitness>
41.4850

> <Gold.PLP.PLP>
-38.9613

> <Gold.PLP.part.hbond>
-1.0000

> <Gold.PLP.part.metal>
0.0000

> <Gold.PLP.part.buried>
-5.6148

> <Gold.PLP.part.nonpolar>
-32.9295

> <Gold.PLP.part.repulsive>
0.1850

> <Gold.PLP.ligand.clash>
3.8782

> <Gold.PLP.ligand.torsion>
0.3340

> <Gold.PLP.Chemscore.Hbond>
0.9913

> <Gold.PLP.Chemscore.CHOScore>
0.0000

> <Gold.PLP.Chemscore.Metal>
0.0000

> <Gold.Chemscore.Hbonds>
donor molecule, donor type, donor heavy atom, donor atom, acceptor molecule, acceptor atom, score
      P1  H  6896  6908       L1     8  1.00
      P1  H  6933  6945       L1    21  0.04

> <Gold.PLP.Chemscore.Internal.Correction>
4.0962

> <Gold.Rescore>
     Score         DG    S(hbond)    S(metal)    S(lipo)     H(rot)  DE(clash)    DE(int)     intcor
      5.71     -10.07       0.98        0.00      64.52       2.43       0.03       4.33       ----

> <Gold.Chemscore.Fitness>
5.7143

> <Gold.Chemscore.DG>
-10.0707

> <Gold.Chemscore.ZeroCoef>
-5.4800

> <Gold.Chemscore.Hbond>
0.9761

> <Gold.Chemscore.Metal>
0.0000

> <Gold.Chemscore.Lipo>
64.5174

> <Gold.Chemscore.Internal_Hbond>
0.0000

> <Gold.Chemscore.DEClash>
0.0301

> <Gold.Chemscore.DEInternal>
4.3263

> <Gold.Chemscore.Rot>
2.4289

> <Gold.Chemscore.Internal.Correction>
   9.000000E+99

> <Gold.Chemscore.Hbonds>
donor molecule, donor type, donor heavy atom, donor atom, acceptor molecule, acceptor atom, score
      P1  H  6896  6908       L1     8  0.56
      P1  H  6933  6945       L1    21  0.03

> <Gold.Chemscore.Hbond.Weighted>
-3.2602

> <Gold.Chemscore.Metal.Weighted>
-0.0000

> <Gold.Chemscore.Lipo.Weighted>
-7.5485

> <Gold.Chemscore.Internal_Hbond.Weighted>
0.0000

> <Gold.Chemscore.DEClash.Weighted>
0.0301

> <Gold.Chemscore.DEInternal.Weighted>
4.3263

> <Gold.Chemscore.Rot.Weighted>
6.2180

> <Gold.Chemscore.Internal.Correction.Weighted>
   9.000000E+99

> <Gold.Protein.RotatedTorsions>
[ 6907 6896 6895 6894 ] final -118.88 input  -60.11 | X-H torsion
[ 7974 7965 7964 7962 ] final  100.25 input  175.53 | X-H torsion
[ 8008 7997 7996 7995 ] final -145.64 input   59.86 | X-H torsion
[ 10167 10162 10161 10158 ] final  -16.49 input  -65.29 | X-H torsion
[ 10718 10713 10712 10709 ] final    1.80 input   66.30 | X-H torsion
[ 10763 10752 10751 10750 ] final  -28.39 input  -60.55 | X-H torsion
[ 11005 11000 10999 10996 ] final  -80.96 input  -57.11 | X-H torsion

> <Gold.Protein.ActiveResidues>
 VAL166  LYS551  ARG553  GLY616  TRP617  ASP618  TYR619  PRO620  LYS621  CYS622 
 ASP623  PHE694  ASN695  SER759  ASP760  ASP761  ALA762  ILE779  LEU786  VAL792 
 PHE793  MET794  SER795  GLU796  ALA797  LYS798  CYS799  TRP800  GLU811  SER814 

> <Gold.Protein.RotatedAtoms>
  150.8257  133.8176  159.3119 H   0  0  0  0  0  0  0  0  0  0  0  0  # atno 6907 bound_to 6896
  151.5921  135.1051  160.0051 H   0  0  0  0  0  0  0  0  0  0  0  0  # atno 6908 bound_to 6896
  152.4342  133.7290  159.6633 H   0  0  0  0  0  0  0  0  0  0  0  0  # atno 6909 bound_to 6896
  145.3881  139.2367  143.3367 H   0  0  0  0  0  0  0  0  0  0  0  0  # atno 7974 bound_to 7965
  155.5464  140.0612  157.2859 H   0  0  0  0  0  0  0  0  0  0  0  0  # atno 8008 bound_to 7997
  154.4435  140.1910  156.0687 H   0  0  0  0  0  0  0  0  0  0  0  0  # atno 8009 bound_to 7997
  156.0548  140.3280  155.7396 H   0  0  0  0  0  0  0  0  0  0  0  0  # atno 8010 bound_to 7997
  140.7234  143.5110  150.9749 H   0  0  0  0  0  0  0  0  0  0  0  0  # atno 10167 bound_to 10162
  156.8535  130.5562  149.5668 H   0  0  0  0  0  0  0  0  0  0  0  0  # atno 10718 bound_to 10713
  153.7476  135.6928  153.4953 H   0  0  0  0  0  0  0  0  0  0  0  0  # atno 10763 bound_to 10752
  153.2025  135.4431  155.0283 H   0  0  0  0  0  0  0  0  0  0  0  0  # atno 10764 bound_to 10752
  154.8199  135.3417  154.6998 H   0  0  0  0  0  0  0  0  0  0  0  0  # atno 10765 bound_to 10752
  141.1667  133.7174  156.8351 H   0  0  0  0  0  0  0  0  0  0  0  0  # atno 11005 bound_to 11000
  146.2810  140.4559  142.8776 LP  0  0  0  0  0  0  0  0  0  0  0  0  # atno 17320 bound_to 7965
  144.8459  140.6929  143.6199 LP  0  0  0  0  0  0  0  0  0  0  0  0  # atno 17321 bound_to 7965
  139.8824  143.7055  152.3155 LP  0  0  0  0  0  0  0  0  0  0  0  0  # atno 17342 bound_to 10162
  139.7342  144.7575  151.0754 LP  0  0  0  0  0  0  0  0  0  0  0  0  # atno 17343 bound_to 10162
  156.0815  130.5824  150.9571 LP  0  0  0  0  0  0  0  0  0  0  0  0  # atno 17370 bound_to 10713
  157.6290  131.0923  150.8478 LP  0  0  0  0  0  0  0  0  0  0  0  0  # atno 17371 bound_to 10713
  140.2023  134.8888  157.3183 LP  0  0  0  0  0  0  0  0  0  0  0  0  # atno 17394 bound_to 11000
  140.2174  134.4064  155.7582 LP  0  0  0  0  0  0  0  0  0  0  0  0  # atno 17395 bound_to 11000

$$$$
