AV-unprocessed.smi:771|AV-procd|sdf|3682|dock5
  -GOLD-   22720 1 93D 1   1.00000     0.00000
 Structure written by MMmdl.
 41 42  0  0  0  0  0  0  0  0  3 V2000
  146.3899  137.8152  155.0440 O   0  0  0  0  0  0  0  0  0  0  0  0
  146.8741  137.7781  153.9120 C   0  0  0  0  0  0  0  0  0  0  0  0
  147.4124  139.0540  153.2507 C   0  0  0  0  0  0  0  0  0  0  0  0
  148.5454  139.6430  153.9844 N   0  0  0  0  0  0  0  0  0  0  0  0
  149.7236  138.8755  154.0732 C   0  0  0  0  0  0  0  0  0  0  0  0
  150.8206  139.3201  154.7172 C   0  0  0  0  0  0  0  0  0  0  0  0
  152.0230  138.5198  154.7967 N   0  3  0  0  0  0  0  0  0  0  0  0
  151.9786  137.3527  154.4213 O   0  0  0  0  0  0  0  0  0  0  0  0
  153.0501  139.0299  155.2345 O   0  5  0  0  0  0  0  0  0  0  0  0
  150.7580  140.6338  155.3283 C   0  0  0  0  0  0  0  0  0  0  0  0
  149.6349  141.3738  155.2445 C   0  0  0  0  0  0  0  0  0  0  0  0
  148.4425  140.8884  154.5426 C   0  0  0  0  0  0  0  0  0  0  0  0
  147.4138  141.5602  154.4606 O   0  0  0  0  0  0  0  0  0  0  0  0
  146.9606  136.6546  153.1845 N   0  0  0  0  0  0  0  0  0  0  0  0
  146.5603  135.3269  153.6394 C   0  0  0  0  0  0  0  0  0  0  0  0
  145.9768  134.4570  152.5010 C   0  0  1  0  0  0  0  0  0  0  0  0
  146.5462  133.0237  152.5405 C   0  0  0  0  0  0  0  0  0  0  0  0
  146.0283  132.1752  151.3684 C   0  0  0  0  0  0  0  0  0  0  0  0
  144.4931  132.1404  151.3410 C   0  0  0  0  0  0  0  0  0  0  0  0
  143.9038  133.5609  151.3015 C   0  0  0  0  0  0  0  0  0  0  0  0
  144.4259  134.4414  152.4534 C   0  0  1  0  0  0  0  0  0  0  0  0
  143.8834  133.9790  153.6764 O   0  0  0  0  0  0  0  0  0  0  0  0
  147.7105  138.8395  152.2223 H   0  0  0  0  0  0  0  0  0  0  0  0
  146.5895  139.7651  153.1670 H   0  0  0  0  0  0  0  0  0  0  0  0
  149.6723  137.9154  153.5802 H   0  0  0  0  0  0  0  0  0  0  0  0
  151.6110  141.0345  155.8561 H   0  0  0  0  0  0  0  0  0  0  0  0
  149.6108  142.3503  155.7055 H   0  0  0  0  0  0  0  0  0  0  0  0
  147.3612  136.7183  152.2596 H   0  0  0  0  0  0  0  0  0  0  0  0
  147.4154  134.8264  154.0963 H   0  0  0  0  0  0  0  0  0  0  0  0
  145.8238  135.4509  154.4336 H   0  0  0  0  0  0  0  0  0  0  0  0
  146.3139  134.8964  151.5608 H   0  0  0  0  0  0  0  0  0  0  0  0
  147.6358  133.0559  152.5088 H   0  0  0  0  0  0  0  0  0  0  0  0
  146.2818  132.5439  153.4837 H   0  0  0  0  0  0  0  0  0  0  0  0
  146.4017  132.5833  150.4283 H   0  0  0  0  0  0  0  0  0  0  0  0
  146.4212  131.1608  151.4421 H   0  0  0  0  0  0  0  0  0  0  0  0
  144.1499  131.5725  150.4758 H   0  0  0  0  0  0  0  0  0  0  0  0
  144.1242  131.6122  152.2211 H   0  0  0  0  0  0  0  0  0  0  0  0
  144.1671  134.0268  150.3512 H   0  0  0  0  0  0  0  0  0  0  0  0
  142.8143  133.5153  151.3242 H   0  0  0  0  0  0  0  0  0  0  0  0
  144.0533  135.4548  152.3008 H   0  0  0  0  0  0  0  0  0  0  0  0
  143.6197  133.0785  153.5668 H   0  0  0  0  0  0  0  0  0  0  0  0
  1  2  2  0  0  0  0
  2  3  1  0  0  0  0
  2 14  1  0  0  0  0
  3  4  1  0  0  0  0
  3 23  1  0  0  0  0
  3 24  1  0  0  0  0
  4 12  1  0  0  0  0
  4  5  1  0  0  0  0
  5  6  2  0  0  0  0
  5 25  1  0  0  0  0
  6  7  1  0  0  0  0
  6 10  1  0  0  0  0
  7  8  2  0  0  0  0
  7  9  1  0  0  0  0
 10 11  2  0  0  0  0
 10 26  1  0  0  0  0
 11 12  1  0  0  0  0
 11 27  1  0  0  0  0
 12 13  2  0  0  0  0
 14 15  1  0  0  0  0
 14 28  1  0  0  0  0
 15 16  1  0  0  0  0
 15 29  1  0  0  0  0
 15 30  1  0  0  0  0
 16 21  1  0  0  0  0
 16 17  1  0  0  0  0
 16 31  1  0  0  0  0
 17 18  1  0  0  0  0
 17 32  1  0  0  0  0
 17 33  1  0  0  0  0
 18 19  1  0  0  0  0
 18 34  1  0  0  0  0
 18 35  1  0  0  0  0
 19 20  1  0  0  0  0
 19 36  1  0  0  0  0
 19 37  1  0  0  0  0
 20 21  1  0  0  0  0
 20 38  1  0  0  0  0
 20 39  1  0  0  0  0
 21 22  1  0  0  0  0
 21 40  1  0  0  0  0
 22 41  1  0  0  0  0
M  CHG  1   7   1
M  CHG  1   9  -1
M  END
> <s_m_source_file>
AV-unprocessed.smi

> <i_m_source_file_index>
771

> <i_lp_mmshare_version>
43012

> <i_f3d_flags>
0

> <s_epik_input>
Tz1jMVtjSF1bY0hdYyhbTitdKD1PKVtPLV0pW2NIXW4xW0NIMl1DKD1PKVtOSF1bQ0gyXVtDQEBIXTJbQ0gyXVtDSDJdW0NIMl1bQ0gyXVtDQEhdMltPSF0=

> <s_epik_cmdline>
J2VwaWtfcHl0aG9uJywgJy1waCcsICc3LjAnLCAnLXRuJywgJzgnLCAnLW1hJywgJzIwMCcsICctbWV0YWxfYmluZGluZycsICctaW1hZScsICc8aW5maWxlLm1hZT4nLCAnLW9tYWUnLCAnPG91dGZpbGUubWFlPic=

> <r_lp_tautomer_probability>
1

> <r_epik_Ionization_Penalty>
3.77175e-07

> <r_epik_Ionization_Penalty_Charging>
7.70067e-11

> <r_epik_Ionization_Penalty_Neutral>
3.77098e-07

> <r_epik_State_Penalty>
-0

> <r_epik_Charging_Adjusted_Penalty>
7.70067e-11

> <i_epik_Tot_Q>
0

> <i_epik_Tot_abs_Q>
2

> <r_epik_Metal_State_Penalty>
-0

> <b_epik_Metal_Only>
0

> <s_lp_Force_Field>
OPLS_2005

> <r_lp_Energy>
25.2575

> <b_lp_Chiralities_Consistent>
1

> <s_lp_Variant>
AV-unprocessed.smi:771-2

> <Gold.Version>
5.8.1

> <Gold.Id.Protein>
6NUR|6NUR_protein|mol2

> <Gold.PLP.Fitness>
48.8002

> <Gold.PLP.PLP>
-37.6211

> <Gold.PLP.part.hbond>
-3.8978

> <Gold.PLP.part.metal>
0.0000

> <Gold.PLP.part.buried>
-1.5690

> <Gold.PLP.part.nonpolar>
-31.6033

> <Gold.PLP.part.repulsive>
0.3468

> <Gold.PLP.ligand.clash>
0.0000

> <Gold.PLP.ligand.torsion>
0.8185

> <Gold.PLP.Chemscore.Hbond>
3.2560

> <Gold.PLP.Chemscore.CHOScore>
1.0000

> <Gold.PLP.Chemscore.Metal>
0.0000

> <Gold.Chemscore.Hbonds>
donor molecule, donor type, donor heavy atom, donor atom, acceptor molecule, acceptor atom, score
      L1  H    14    28       P1  7948  0.51
      L1  H    22    41       P1 10957  0.67
      P1  H  7997  8010       L1     9  1.00
      P1  H 10752 10765       L1     8  0.93
      L1  C     5    25       P1  7948  1.00

> <Gold.PLP.Chemscore.Internal.Correction>
0.0482

> <Gold.Rescore>
     Score         DG    S(hbond)    S(metal)    S(lipo)     H(rot)  DE(clash)    DE(int)     intcor
     18.01     -18.82       3.67        0.00      63.51       2.48       0.05       0.76       ----

> <Gold.Chemscore.Fitness>
18.0096

> <Gold.Chemscore.DG>
-18.8231

> <Gold.Chemscore.ZeroCoef>
-5.4800

> <Gold.Chemscore.Hbond>
3.6675

> <Gold.Chemscore.Metal>
0.0000

> <Gold.Chemscore.Lipo>
63.5088

> <Gold.Chemscore.Internal_Hbond>
0.0000

> <Gold.Chemscore.DEClash>
0.0515

> <Gold.Chemscore.DEInternal>
0.7620

> <Gold.Chemscore.Rot>
2.4753

> <Gold.Chemscore.Internal.Correction>
   9.000000E+99

> <Gold.Chemscore.Hbonds>
donor molecule, donor type, donor heavy atom, donor atom, acceptor molecule, acceptor atom, score
      L1  H    14    28       P1  7948  0.52
      L1  H    22    41       P1 10957  0.59
      P1  H  7997  8010       L1     9  0.99
      P1  H 10752 10765       L1     8  0.89

> <Gold.Chemscore.Hbond.Weighted>
-12.2494

> <Gold.Chemscore.Metal.Weighted>
-0.0000

> <Gold.Chemscore.Lipo.Weighted>
-7.4305

> <Gold.Chemscore.Internal_Hbond.Weighted>
0.0000

> <Gold.Chemscore.DEClash.Weighted>
0.0515

> <Gold.Chemscore.DEInternal.Weighted>
0.7620

> <Gold.Chemscore.Rot.Weighted>
6.3369

> <Gold.Chemscore.Internal.Correction.Weighted>
   9.000000E+99

> <Gold.Protein.RotatedTorsions>
[ 6907 6896 6895 6894 ] final  175.84 input  -60.11 | X-H torsion
[ 7974 7965 7964 7962 ] final   28.52 input  175.53 | X-H torsion
[ 8008 7997 7996 7995 ] final   97.10 input   59.86 | X-H torsion
[ 10167 10162 10161 10158 ] final  -27.30 input  -65.29 | X-H torsion
[ 10718 10713 10712 10709 ] final  -67.83 input   66.30 | X-H torsion
[ 10763 10752 10751 10750 ] final  165.13 input  -60.55 | X-H torsion
[ 11005 11000 10999 10996 ] final -102.17 input  -57.11 | X-H torsion

> <Gold.Protein.ActiveResidues>
 VAL166  LYS551  ARG553  GLY616  TRP617  ASP618  TYR619  PRO620  LYS621  CYS622 
 ASP623  PHE694  ASN695  SER759  ASP760  ASP761  ALA762  ILE779  LEU786  VAL792 
 PHE793  MET794  SER795  GLU796  ALA797  LYS798  CYS799  TRP800  GLU811  SER814 

> <Gold.Protein.RotatedAtoms>
  151.7297  133.3317  159.3336 H   0  0  0  0  0  0  0  0  0  0  0  0  # atno 6907 bound_to 6896
  150.7618  134.6374  159.6228 H   0  0  0  0  0  0  0  0  0  0  0  0  # atno 6908 bound_to 6896
  152.3600  134.6888  160.0262 H   0  0  0  0  0  0  0  0  0  0  0  0  # atno 6909 bound_to 6896
  146.1724  139.7045  142.8958 H   0  0  0  0  0  0  0  0  0  0  0  0  # atno 7974 bound_to 7965
  156.0866  140.3263  155.7761 H   0  0  0  0  0  0  0  0  0  0  0  0  # atno 8008 bound_to 7997
  155.5066  140.0573  157.2948 H   0  0  0  0  0  0  0  0  0  0  0  0  # atno 8009 bound_to 7997
  154.4613  140.1968  156.0254 H   0  0  0  0  0  0  0  0  0  0  0  0  # atno 8010 bound_to 7997
  140.7278  143.4105  151.1114 H   0  0  0  0  0  0  0  0  0  0  0  0  # atno 10167 bound_to 10162
  156.0537  130.4284  150.1912 H   0  0  0  0  0  0  0  0  0  0  0  0  # atno 10718 bound_to 10713
  154.3194  135.2756  155.2527 H   0  0  0  0  0  0  0  0  0  0  0  0  # atno 10763 bound_to 10752
  154.4887  135.5839  153.6447 H   0  0  0  0  0  0  0  0  0  0  0  0  # atno 10764 bound_to 10752
  152.9878  135.6129  154.3377 H   0  0  0  0  0  0  0  0  0  0  0  0  # atno 10765 bound_to 10752
  141.1200  133.8537  157.1325 H   0  0  0  0  0  0  0  0  0  0  0  0  # atno 11005 bound_to 11000
  145.4304  141.0414  143.2914 LP  0  0  0  0  0  0  0  0  0  0  0  0  # atno 17320 bound_to 7965
  144.8183  139.5836  143.6998 LP  0  0  0  0  0  0  0  0  0  0  0  0  # atno 17321 bound_to 7965
  139.7737  143.8456  152.3125 LP  0  0  0  0  0  0  0  0  0  0  0  0  # atno 17342 bound_to 10162
  139.8384  144.7221  150.9362 LP  0  0  0  0  0  0  0  0  0  0  0  0  # atno 17343 bound_to 10162
  156.9991  130.9917  151.3395 LP  0  0  0  0  0  0  0  0  0  0  0  0  # atno 17370 bound_to 10713
  157.5487  130.8168  149.8118 LP  0  0  0  0  0  0  0  0  0  0  0  0  # atno 17371 bound_to 10713
  140.0151  134.9971  157.0476 LP  0  0  0  0  0  0  0  0  0  0  0  0  # atno 17394 bound_to 11000
  140.4534  134.1559  155.7184 LP  0  0  0  0  0  0  0  0  0  0  0  0  # atno 17395 bound_to 11000

$$$$
