AV-unprocessed.smi:235|AV-procd|sdf|1802|dock3
  -GOLD-   2262020373D 1   1.00000     0.00000
 Structure written by MMmdl.
 54 58  0  0  0  0  0  0  0  0  1 V2000
  150.2920  140.6199  156.7708 O   0  0  0  0  0  0  0  0  0  0  0  0
  149.8066  141.6578  156.3209 C   0  0  0  0  0  0  0  0  0  0  0  0
  150.1561  142.8760  156.7666 N   0  0  0  0  0  0  0  0  0  0  0  0
  151.1074  143.1555  157.7906 C   0  0  0  0  0  0  0  0  0  0  0  0
  150.6478  144.0115  158.9510 C   0  0  0  0  0  0  0  0  0  0  0  0
  151.5903  144.5834  157.9284 C   0  0  0  0  0  0  0  0  0  0  0  0
  148.7733  141.5755  155.1780 C   0  0  1  0  0  0  0  0  0  0  0  0
  149.3728  141.0126  153.8705 C   0  0  0  0  0  0  0  0  0  0  0  0
  148.8158  139.5956  153.7571 C   0  0  0  0  0  0  0  0  0  0  0  0
  147.4438  139.7339  154.4039 C   0  0  0  0  0  0  0  0  0  0  0  0
  147.6503  140.6810  155.4863 N   0  0  0  0  0  0  0  0  0  0  0  0
  146.5361  141.2206  156.0257 C   0  0  0  0  0  0  0  0  0  0  0  0
  146.0928  140.8039  157.2401 N   0  0  0  0  0  0  0  0  0  0  0  0
  144.9824  141.3371  157.7602 C   0  0  0  0  0  0  0  0  0  0  0  0
  144.1842  142.2757  157.2441 N   0  0  0  0  0  0  0  0  0  0  0  0
  144.6349  142.6944  156.0263 C   0  0  0  0  0  0  0  0  0  0  0  0
  145.7963  142.2263  155.3530 C   0  0  0  0  0  0  0  0  0  0  0  0
  145.9426  142.8807  154.1364 N   0  0  0  0  0  0  0  0  0  0  0  0
  144.9176  143.6876  154.0887 C   0  0  0  0  0  0  0  0  0  0  0  0
  144.0808  143.6388  155.1815 N   0  0  0  0  0  0  0  0  0  0  0  0
  142.8723  144.4161  155.3917 C   0  0  0  0  0  0  0  0  0  0  0  0
  141.7124  143.9591  154.4809 C   0  0  2  0  0  0  0  0  0  0  0  0
  142.1017  144.1643  153.1360 O   0  0  0  0  0  0  0  0  0  0  0  0
  140.4091  144.7474  154.7206 C   0  0  2  0  0  0  0  0  0  0  0  0
  139.8189  144.5993  156.1247 C   0  0  0  0  0  0  0  0  0  0  0  0
  138.3430  144.9029  155.9278 C   0  0  0  0  0  0  0  0  0  0  0  0
  138.1303  144.7255  154.4229 C   0  0  0  0  0  0  0  0  0  0  0  0
  139.3588  144.2064  153.9328 O   0  0  0  0  0  0  0  0  0  0  0  0
  149.7123  143.6742  156.3347 H   0  0  0  0  0  0  0  0  0  0  0  0
  151.8303  142.3767  158.0296 H   0  0  0  0  0  0  0  0  0  0  0  0
  149.6210  144.3729  158.9424 H   0  0  0  0  0  0  0  0  0  0  0  0
  151.0525  143.7820  159.9346 H   0  0  0  0  0  0  0  0  0  0  0  0
  152.6253  144.7351  158.2279 H   0  0  0  0  0  0  0  0  0  0  0  0
  151.1929  145.3246  157.2373 H   0  0  0  0  0  0  0  0  0  0  0  0
  148.4270  142.5940  154.9946 H   0  0  0  0  0  0  0  0  0  0  0  0
  149.0197  141.6081  153.0275 H   0  0  0  0  0  0  0  0  0  0  0  0
  150.4631  141.0257  153.8364 H   0  0  0  0  0  0  0  0  0  0  0  0
  148.7693  139.2336  152.7298 H   0  0  0  0  0  0  0  0  0  0  0  0
  149.4340  138.9067  154.3345 H   0  0  0  0  0  0  0  0  0  0  0  0
  146.7186  140.1210  153.6856 H   0  0  0  0  0  0  0  0  0  0  0  0
  147.0770  138.7778  154.7790 H   0  0  0  0  0  0  0  0  0  0  0  0
  144.6901  140.9550  158.7272 H   0  0  0  0  0  0  0  0  0  0  0  0
  144.7396  144.3406  153.2466 H   0  0  0  0  0  0  0  0  0  0  0  0
  142.5981  144.3217  156.4426 H   0  0  0  0  0  0  0  0  0  0  0  0
  143.1000  145.4697  155.2228 H   0  0  0  0  0  0  0  0  0  0  0  0
  141.5312  142.8945  154.6355 H   0  0  0  0  0  0  0  0  0  0  0  0
  141.9784  143.3571  152.6608 H   0  0  0  0  0  0  0  0  0  0  0  0
  140.5408  145.8058  154.4860 H   0  0  0  0  0  0  0  0  0  0  0  0
  139.9349  143.5719  156.4734 H   0  0  0  0  0  0  0  0  0  0  0  0
  140.2903  145.2581  156.8547 H   0  0  0  0  0  0  0  0  0  0  0  0
  137.7194  144.2263  156.5129 H   0  0  0  0  0  0  0  0  0  0  0  0
  138.1058  145.9243  156.2279 H   0  0  0  0  0  0  0  0  0  0  0  0
  137.3043  144.0524  154.1926 H   0  0  0  0  0  0  0  0  0  0  0  0
  137.9298  145.6865  153.9476 H   0  0  0  0  0  0  0  0  0  0  0  0
  1  2  2  0  0  0  0
  2  3  1  0  0  0  0
  2  7  1  0  0  0  0
  3  4  1  0  0  0  0
  3 29  1  0  0  0  0
  4  6  1  0  0  0  0
  4  5  1  0  0  0  0
  4 30  1  0  0  0  0
  5  6  1  0  0  0  0
  5 31  1  0  0  0  0
  5 32  1  0  0  0  0
  6 33  1  0  0  0  0
  6 34  1  0  0  0  0
  7 11  1  0  0  0  0
  7  8  1  0  0  0  0
  7 35  1  0  0  0  0
  8  9  1  0  0  0  0
  8 36  1  0  0  0  0
  8 37  1  0  0  0  0
  9 10  1  0  0  0  0
  9 38  1  0  0  0  0
  9 39  1  0  0  0  0
 10 11  1  0  0  0  0
 10 40  1  0  0  0  0
 10 41  1  0  0  0  0
 11 12  1  0  0  0  0
 12 17  1  0  0  0  0
 12 13  2  0  0  0  0
 13 14  1  0  0  0  0
 14 15  2  0  0  0  0
 14 42  1  0  0  0  0
 15 16  1  0  0  0  0
 16 20  1  0  0  0  0
 16 17  2  0  0  0  0
 17 18  1  0  0  0  0
 18 19  2  0  0  0  0
 19 20  1  0  0  0  0
 19 43  1  0  0  0  0
 20 21  1  0  0  0  0
 21 22  1  0  0  0  0
 21 44  1  0  0  0  0
 21 45  1  0  0  0  0
 22 23  1  0  0  0  0
 22 24  1  0  0  0  0
 22 46  1  0  0  0  0
 23 47  1  0  0  0  0
 24 28  1  0  0  0  0
 24 25  1  0  0  0  0
 24 48  1  0  0  0  0
 25 26  1  0  0  0  0
 25 49  1  0  0  0  0
 25 50  1  0  0  0  0
 26 27  1  0  0  0  0
 26 51  1  0  0  0  0
 26 52  1  0  0  0  0
 27 28  1  0  0  0  0
 27 53  1  0  0  0  0
 27 54  1  0  0  0  0
M  END
> <s_m_source_file>
AV-unprocessed.smi

> <i_m_source_file_index>
235

> <i_lp_mmshare_version>
43012

> <i_f3d_flags>
0

> <s_epik_input>
W0NIMl0xW0NIMl1bQ0hdMVtOSF1DKD1PKVtDQEBIXTJbQ0gyXVtDSDJdW0NIMl1OMmMobltjSF1uMyljKGMzNCluW2NIXW40W0NIMl1bQ0BIXShbT0hdKVtDQEBIXTVbQ0gyXVtDSDJdW0NIMl1PNQ==

> <s_epik_cmdline>
J2VwaWtfcHl0aG9uJywgJy1waCcsICc3LjAnLCAnLXRuJywgJzgnLCAnLW1hJywgJzIwMCcsICctbWV0YWxfYmluZGluZycsICctaW1hZScsICc8aW5maWxlLm1hZT4nLCAnLW9tYWUnLCAnPG91dGZpbGUubWFlPic=

> <r_lp_tautomer_probability>
1

> <r_epik_Ionization_Penalty>
0.000526714

> <r_epik_Ionization_Penalty_Charging>
0

> <r_epik_Ionization_Penalty_Neutral>
0.000526714

> <r_epik_State_Penalty>
0.000272704

> <r_epik_Charging_Adjusted_Penalty>
0.000272704

> <i_epik_Tot_Q>
0

> <i_epik_Tot_abs_Q>
0

> <r_epik_Metal_State_Penalty>
-0

> <b_epik_Metal_Only>
0

> <s_lp_Force_Field>
OPLS_2005

> <r_lp_Energy>
60.5906

> <b_lp_Chiralities_Consistent>
1

> <s_lp_Variant>
AV-unprocessed.smi:235-2

> <Gold.Version>
5.8.1

> <Gold.Id.Protein>
6NUR|6NUR_protein|mol2

> <Gold.PLP.Fitness>
53.3461

> <Gold.PLP.PLP>
-44.9790

> <Gold.PLP.part.hbond>
-3.0171

> <Gold.PLP.part.metal>
0.0000

> <Gold.PLP.part.buried>
-6.7624

> <Gold.PLP.part.nonpolar>
-35.5772

> <Gold.PLP.part.repulsive>
0.4428

> <Gold.PLP.ligand.clash>
0.0000

> <Gold.PLP.ligand.torsion>
0.5134

> <Gold.PLP.Chemscore.Hbond>
2.9920

> <Gold.PLP.Chemscore.CHOScore>
0.0000

> <Gold.PLP.Chemscore.Metal>
0.0000

> <Gold.Chemscore.Hbonds>
donor molecule, donor type, donor heavy atom, donor atom, acceptor molecule, acceptor atom, score
      L1  H     3    29       P1  8028  0.89
      L1  H    23    47       P1 10174  0.12
      P1  H 10162 10167       L1    28  0.91

> <Gold.PLP.Chemscore.Internal.Correction>
0.4179

> <Gold.Rescore>
     Score         DG    S(hbond)    S(metal)    S(lipo)     H(rot)  DE(clash)    DE(int)     intcor
     15.55     -18.29       2.86        0.00      93.49       3.00       2.11       0.63       ----

> <Gold.Chemscore.Fitness>
15.5499

> <Gold.Chemscore.DG>
-18.2903

> <Gold.Chemscore.ZeroCoef>
-5.4800

> <Gold.Chemscore.Hbond>
2.8591

> <Gold.Chemscore.Metal>
0.0000

> <Gold.Chemscore.Lipo>
93.4874

> <Gold.Chemscore.Internal_Hbond>
0.0000

> <Gold.Chemscore.DEClash>
2.1149

> <Gold.Chemscore.DEInternal>
0.6255

> <Gold.Chemscore.Rot>
2.9989

> <Gold.Chemscore.Internal.Correction>
   9.000000E+99

> <Gold.Chemscore.Hbonds>
donor molecule, donor type, donor heavy atom, donor atom, acceptor molecule, acceptor atom, score
      L1  H     3    29       P1  8028  0.87
      L1  H    23    47       P1 10174  0.13
      P1  H 10162 10167       L1    28  0.78

> <Gold.Chemscore.Hbond.Weighted>
-9.5495

> <Gold.Chemscore.Metal.Weighted>
-0.0000

> <Gold.Chemscore.Lipo.Weighted>
-10.9380

> <Gold.Chemscore.Internal_Hbond.Weighted>
0.0000

> <Gold.Chemscore.DEClash.Weighted>
2.1149

> <Gold.Chemscore.DEInternal.Weighted>
0.6255

> <Gold.Chemscore.Rot.Weighted>
7.6772

> <Gold.Chemscore.Internal.Correction.Weighted>
   9.000000E+99

> <Gold.Protein.RotatedTorsions>
[ 6907 6896 6895 6894 ] final -127.57 input  -60.11 | X-H torsion
[ 7974 7965 7964 7962 ] final   62.84 input  175.53 | X-H torsion
[ 8008 7997 7996 7995 ] final  -65.42 input   59.86 | X-H torsion
[ 10167 10162 10161 10158 ] final -179.64 input  -65.29 | X-H torsion
[ 10718 10713 10712 10709 ] final   39.08 input   66.30 | X-H torsion
[ 10763 10752 10751 10750 ] final  -27.64 input  -60.55 | X-H torsion
[ 11005 11000 10999 10996 ] final  -25.71 input  -57.11 | X-H torsion

> <Gold.Protein.ActiveResidues>
 VAL166  LYS551  ARG553  GLY616  TRP617  ASP618  TYR619  PRO620  LYS621  CYS622 
 ASP623  PHE694  ASN695  SER759  ASP760  ASP761  ALA762  ILE779  LEU786  VAL792 
 PHE793  MET794  SER795  GLU796  ALA797  LYS798  CYS799  TRP800  GLU811  SER814 

> <Gold.Protein.RotatedAtoms>
  150.9087  133.7024  159.2859 H   0  0  0  0  0  0  0  0  0  0  0  0  # atno 6907 bound_to 6896
  151.4518  135.1029  159.9709 H   0  0  0  0  0  0  0  0  0  0  0  0  # atno 6908 bound_to 6896
  152.4918  133.8471  159.7238 H   0  0  0  0  0  0  0  0  0  0  0  0  # atno 6909 bound_to 6896
  145.8687  139.3363  143.0775 H   0  0  0  0  0  0  0  0  0  0  0  0  # atno 7974 bound_to 7965
  154.4670  140.0933  156.7047 H   0  0  0  0  0  0  0  0  0  0  0  0  # atno 8008 bound_to 7997
  155.4829  140.3468  155.4324 H   0  0  0  0  0  0  0  0  0  0  0  0  # atno 8009 bound_to 7997
  156.0974  140.1413  156.9501 H   0  0  0  0  0  0  0  0  0  0  0  0  # atno 8010 bound_to 7997
  139.5377  144.2450  152.0830 H   0  0  0  0  0  0  0  0  0  0  0  0  # atno 10167 bound_to 10162
  157.3664  130.7677  149.7085 H   0  0  0  0  0  0  0  0  0  0  0  0  # atno 10718 bound_to 10713
  153.7354  135.6936  153.4979 H   0  0  0  0  0  0  0  0  0  0  0  0  # atno 10763 bound_to 10752
  153.2106  135.4404  155.0374 H   0  0  0  0  0  0  0  0  0  0  0  0  # atno 10764 bound_to 10752
  154.8239  135.3436  154.6882 H   0  0  0  0  0  0  0  0  0  0  0  0  # atno 10765 bound_to 10752
  140.8963  133.7554  156.0485 H   0  0  0  0  0  0  0  0  0  0  0  0  # atno 11005 bound_to 11000
  145.9163  140.9146  143.0428 LP  0  0  0  0  0  0  0  0  0  0  0  0  # atno 17320 bound_to 7965
  144.6726  140.1227  143.7449 LP  0  0  0  0  0  0  0  0  0  0  0  0  # atno 17321 bound_to 7965
  140.1923  144.4739  150.6472 LP  0  0  0  0  0  0  0  0  0  0  0  0  # atno 17342 bound_to 10162
  140.6592  143.2247  151.5896 LP  0  0  0  0  0  0  0  0  0  0  0  0  # atno 17343 bound_to 10162
  155.9747  130.4099  150.3905 LP  0  0  0  0  0  0  0  0  0  0  0  0  # atno 17370 bound_to 10713
  157.1990  131.0433  151.2660 LP  0  0  0  0  0  0  0  0  0  0  0  0  # atno 17371 bound_to 10713
  140.8285  134.3206  157.5357 LP  0  0  0  0  0  0  0  0  0  0  0  0  # atno 17394 bound_to 11000
  139.8736  134.9350  156.3621 LP  0  0  0  0  0  0  0  0  0  0  0  0  # atno 17395 bound_to 11000

$$$$
