AV-unprocessed.smi:1420|AV-procd|sdf|5786|dock8
  -GOLD-   22720 5433D 1   1.00000     0.00000
 Structure written by MMmdl.
 38 39  0  0  0  0  0  0  0  0  1 V2000
  151.0214  145.3756  159.9716 C   0  0  0  0  0  0  0  0  0  0  0  0
  151.3120  144.0076  159.3011 C   0  0  2  0  0  0  0  0  0  0  0  0
  150.0197  143.5128  158.5877 C   0  0  0  0  0  0  0  0  0  0  0  0
  150.2925  142.7837  157.3536 N   0  0  0  0  0  0  0  0  0  0  0  0
  150.7331  141.5182  157.2861 C   0  0  0  0  0  0  0  0  0  0  0  0
  150.8882  140.7975  158.2719 O   0  0  0  0  0  0  0  0  0  0  0  0
  151.0782  140.9951  155.8922 C   0  0  0  0  0  0  0  0  0  0  0  0
  149.8715  140.7909  155.1114 N   0  0  0  0  0  0  0  0  0  0  0  0
  148.9983  141.7398  154.6215 C   0  0  0  0  0  0  0  0  0  0  0  0
  148.0007  141.0749  153.9679 C   0  0  0  0  0  0  0  0  0  0  0  0
  148.3545  139.7045  154.1151 C   0  0  0  0  0  0  0  0  0  0  0  0
  149.4752  139.5371  154.7988 N   0  0  0  0  0  0  0  0  0  0  0  0
  151.8749  143.0126  160.2434 N   0  0  0  0  0  0  0  0  0  0  0  0
  152.4887  143.6355  161.4220 C   0  0  0  0  0  0  0  0  0  0  0  0
  153.1011  142.6091  162.3903 C   0  0  0  0  0  0  0  0  0  0  0  0
  154.0615  141.8186  161.7040 O   0  0  0  0  0  0  0  0  0  0  0  0
  153.4925  141.1321  160.5979 C   0  0  0  0  0  0  0  0  0  0  0  0
  152.8799  142.1459  159.6160 C   0  0  0  0  0  0  0  0  0  0  0  0
  150.5676  146.0897  159.2853 H   0  0  0  0  0  0  0  0  0  0  0  0
  151.9291  145.8642  160.3229 H   0  0  0  0  0  0  0  0  0  0  0  0
  150.3468  145.2630  160.8207 H   0  0  0  0  0  0  0  0  0  0  0  0
  152.0577  144.1894  158.5254 H   0  0  0  0  0  0  0  0  0  0  0  0
  149.4254  142.8548  159.2201 H   0  0  0  0  0  0  0  0  0  0  0  0
  149.3825  144.3638  158.3448 H   0  0  0  0  0  0  0  0  0  0  0  0
  150.1984  143.2986  156.4899 H   0  0  0  0  0  0  0  0  0  0  0  0
  151.7180  141.7096  155.3729 H   0  0  0  0  0  0  0  0  0  0  0  0
  151.6322  140.0573  155.9617 H   0  0  0  0  0  0  0  0  0  0  0  0
  149.1565  142.7964  154.7806 H   0  0  0  0  0  0  0  0  0  0  0  0
  147.1470  141.5026  153.4638 H   0  0  0  0  0  0  0  0  0  0  0  0
  147.8336  138.8323  153.7485 H   0  0  0  0  0  0  0  0  0  0  0  0
  153.2583  144.3429  161.1089 H   0  0  0  0  0  0  0  0  0  0  0  0
  151.7488  144.2003  161.9866 H   0  0  0  0  0  0  0  0  0  0  0  0
  153.5878  143.1173  163.2227 H   0  0  0  0  0  0  0  0  0  0  0  0
  152.3266  141.9686  162.8150 H   0  0  0  0  0  0  0  0  0  0  0  0
  154.2695  140.5484  160.1039 H   0  0  0  0  0  0  0  0  0  0  0  0
  152.7363  140.4271  160.9468 H   0  0  0  0  0  0  0  0  0  0  0  0
  152.4424  141.5704  158.8032 H   0  0  0  0  0  0  0  0  0  0  0  0
  153.6745  142.7548  159.1821 H   0  0  0  0  0  0  0  0  0  0  0  0
  1  2  1  0  0  0  0
  1 19  1  0  0  0  0
  1 20  1  0  0  0  0
  1 21  1  0  0  0  0
  2  3  1  0  0  0  0
  2 13  1  0  0  0  0
  2 22  1  0  0  0  0
  3  4  1  0  0  0  0
  3 23  1  0  0  0  0
  3 24  1  0  0  0  0
  4  5  1  0  0  0  0
  4 25  1  0  0  0  0
  5  6  2  0  0  0  0
  5  7  1  0  0  0  0
  7  8  1  0  0  0  0
  7 26  1  0  0  0  0
  7 27  1  0  0  0  0
  8 12  1  0  0  0  0
  8  9  1  0  0  0  0
  9 10  2  0  0  0  0
  9 28  1  0  0  0  0
 10 11  1  0  0  0  0
 10 29  1  0  0  0  0
 11 12  2  0  0  0  0
 11 30  1  0  0  0  0
 13 18  1  0  0  0  0
 13 14  1  0  0  0  0
 14 15  1  0  0  0  0
 14 31  1  0  0  0  0
 14 32  1  0  0  0  0
 15 16  1  0  0  0  0
 15 33  1  0  0  0  0
 15 34  1  0  0  0  0
 16 17  1  0  0  0  0
 17 18  1  0  0  0  0
 17 35  1  0  0  0  0
 17 36  1  0  0  0  0
 18 37  1  0  0  0  0
 18 38  1  0  0  0  0
M  END
> <s_m_source_file>
AV-unprocessed.smi

> <i_m_source_file_index>
1420

> <i_lp_mmshare_version>
43012

> <i_f3d_flags>
0

> <s_epik_input>
W0NIMl0xW0NIMl1PW0NIMl1bQ0gyXU4xW0NASF0oW0NIM10pW0NIMl1bTkhdQyg9TylbQ0gyXW4yW2NIXVtjSF1bY0hdbjI=

> <s_epik_cmdline>
J2VwaWtfcHl0aG9uJywgJy1waCcsICc3LjAnLCAnLXRuJywgJzgnLCAnLW1hJywgJzIwMCcsICctbWV0YWxfYmluZGluZycsICctaW1hZScsICc8aW5maWxlLm1hZT4nLCAnLW9tYWUnLCAnPG91dGZpbGUubWFlPic=

> <r_lp_tautomer_probability>
1

> <r_epik_Ionization_Penalty>
0.196927

> <r_epik_Ionization_Penalty_Charging>
0

> <r_epik_Ionization_Penalty_Neutral>
0.196927

> <r_epik_State_Penalty>
0.186684

> <r_epik_Charging_Adjusted_Penalty>
0.186684

> <i_epik_Tot_Q>
0

> <i_epik_Tot_abs_Q>
0

> <r_epik_Metal_State_Penalty>
0.186682

> <b_epik_Metal_Only>
0

> <s_lp_Force_Field>
OPLS_2005

> <r_lp_Energy>
27.7246

> <b_lp_Chiralities_Consistent>
1

> <s_lp_Variant>
AV-unprocessed.smi:1420-1

> <Gold.Version>
5.8.1

> <Gold.Id.Protein>
6NUR|6NUR_protein|mol2

> <Gold.PLP.Fitness>
42.6067

> <Gold.PLP.PLP>
-42.6247

> <Gold.PLP.part.hbond>
-2.0000

> <Gold.PLP.part.metal>
0.0000

> <Gold.PLP.part.buried>
-3.6462

> <Gold.PLP.part.nonpolar>
-36.6827

> <Gold.PLP.part.repulsive>
0.1446

> <Gold.PLP.ligand.clash>
1.8375

> <Gold.PLP.ligand.torsion>
1.6553

> <Gold.PLP.Chemscore.Hbond>
0.6890

> <Gold.PLP.Chemscore.CHOScore>
1.0000

> <Gold.PLP.Chemscore.Metal>
0.0000

> <Gold.Chemscore.Hbonds>
donor molecule, donor type, donor heavy atom, donor atom, acceptor molecule, acceptor atom, score
      L1  H     4    25       P1  8028  0.62
      L1  C     9    28       P1  8028  1.00

> <Gold.PLP.Chemscore.Internal.Correction>
0.0631

> <Gold.Rescore>
     Score         DG    S(hbond)    S(metal)    S(lipo)     H(rot)  DE(clash)    DE(int)     intcor
     11.46     -14.91       0.82        0.00      98.11       1.87       0.36       3.09       ----

> <Gold.Chemscore.Fitness>
11.4595

> <Gold.Chemscore.DG>
-14.9110

> <Gold.Chemscore.ZeroCoef>
-5.4800

> <Gold.Chemscore.Hbond>
0.8178

> <Gold.Chemscore.Metal>
0.0000

> <Gold.Chemscore.Lipo>
98.1076

> <Gold.Chemscore.Internal_Hbond>
0.0000

> <Gold.Chemscore.DEClash>
0.3605

> <Gold.Chemscore.DEInternal>
3.0910

> <Gold.Chemscore.Rot>
1.8669

> <Gold.Chemscore.Internal.Correction>
   9.000000E+99

> <Gold.Chemscore.Hbonds>
donor molecule, donor type, donor heavy atom, donor atom, acceptor molecule, acceptor atom, score
      L1  H     4    25       P1  8028  0.61

> <Gold.Chemscore.Hbond.Weighted>
-2.7316

> <Gold.Chemscore.Metal.Weighted>
-0.0000

> <Gold.Chemscore.Lipo.Weighted>
-11.4786

> <Gold.Chemscore.Internal_Hbond.Weighted>
0.0000

> <Gold.Chemscore.DEClash.Weighted>
0.3605

> <Gold.Chemscore.DEInternal.Weighted>
3.0910

> <Gold.Chemscore.Rot.Weighted>
4.7792

> <Gold.Chemscore.Internal.Correction.Weighted>
   9.000000E+99

> <Gold.Protein.RotatedTorsions>
[ 6907 6896 6895 6894 ] final  -22.84 input  -60.11 | X-H torsion
[ 7974 7965 7964 7962 ] final    5.98 input  175.53 | X-H torsion
[ 8008 7997 7996 7995 ] final   46.25 input   59.86 | X-H torsion
[ 10167 10162 10161 10158 ] final  135.27 input  -65.29 | X-H torsion
[ 10718 10713 10712 10709 ] final   87.84 input   66.30 | X-H torsion
[ 10763 10752 10751 10750 ] final  -35.60 input  -60.55 | X-H torsion
[ 11005 11000 10999 10996 ] final    4.97 input  -57.11 | X-H torsion

> <Gold.Protein.ActiveResidues>
 VAL166  LYS551  ARG553  GLY616  TRP617  ASP618  TYR619  PRO620  LYS621  CYS622 
 ASP623  PHE694  ASN695  SER759  ASP760  ASP761  ALA762  ILE779  LEU786  VAL792 
 PHE793  MET794  SER795  GLU796  ALA797  LYS798  CYS799  TRP800  GLU811  SER814 

> <Gold.Protein.RotatedAtoms>
  151.2126  135.0487  159.8917 H   0  0  0  0  0  0  0  0  0  0  0  0  # atno 6907 bound_to 6896
  152.5423  134.0728  159.8211 H   0  0  0  0  0  0  0  0  0  0  0  0  # atno 6908 bound_to 6896
  151.0883  133.5288  159.2648 H   0  0  0  0  0  0  0  0  0  0  0  0  # atno 6909 bound_to 6896
  146.2437  140.0302  142.8390 H   0  0  0  0  0  0  0  0  0  0  0  0  # atno 7974 bound_to 7965
  155.3494  140.3412  155.4239 H   0  0  0  0  0  0  0  0  0  0  0  0  # atno 8008 bound_to 7997
  156.1772  140.1651  156.8377 H   0  0  0  0  0  0  0  0  0  0  0  0  # atno 8009 bound_to 7997
  154.5294  140.0748  156.8301 H   0  0  0  0  0  0  0  0  0  0  0  0  # atno 8010 bound_to 7997
  139.5223  144.6525  151.5259 H   0  0  0  0  0  0  0  0  0  0  0  0  # atno 10167 bound_to 10162
  157.6944  131.0271  150.3185 H   0  0  0  0  0  0  0  0  0  0  0  0  # atno 10718 bound_to 10713
  153.8660  135.6835  153.4778 H   0  0  0  0  0  0  0  0  0  0  0  0  # atno 10763 bound_to 10752
  153.1315  135.4696  154.9353 H   0  0  0  0  0  0  0  0  0  0  0  0  # atno 10764 bound_to 10752
  154.7737  135.3246  154.8087 H   0  0  0  0  0  0  0  0  0  0  0  0  # atno 10765 bound_to 10752
  140.5760  134.0057  155.8028 H   0  0  0  0  0  0  0  0  0  0  0  0  # atno 11005 bound_to 11000
  145.1162  140.9435  143.4627 LP  0  0  0  0  0  0  0  0  0  0  0  0  # atno 17320 bound_to 7965
  145.0527  139.3169  143.5920 LP  0  0  0  0  0  0  0  0  0  0  0  0  # atno 17321 bound_to 7965
  140.6336  143.9027  150.6627 LP  0  0  0  0  0  0  0  0  0  0  0  0  # atno 17342 bound_to 10162
  140.2339  143.3714  152.1543 LP  0  0  0  0  0  0  0  0  0  0  0  0  # atno 17343 bound_to 10162
  156.3676  130.3858  149.7201 LP  0  0  0  0  0  0  0  0  0  0  0  0  # atno 17370 bound_to 10713
  156.4627  130.7959  151.2979 LP  0  0  0  0  0  0  0  0  0  0  0  0  # atno 17371 bound_to 10713
  141.1026  133.9744  157.3052 LP  0  0  0  0  0  0  0  0  0  0  0  0  # atno 17394 bound_to 11000
  139.9339  135.0198  156.8493 LP  0  0  0  0  0  0  0  0  0  0  0  0  # atno 17395 bound_to 11000

$$$$
