AV-unprocessed.smi:3157|AV-procd|sdf|12038|dock8
  -GOLD-   2272017463D 1   1.00000     0.00000
 Structure written by MMmdl.
 40 41  0  0  0  0  0  0  0  0  2 V2000
  148.9134  140.2432  157.2040 C   0  0  0  0  0  0  0  0  0  0  0  0
  149.1175  141.4096  156.2138 C   0  0  1  0  0  0  0  0  0  0  0  0
  150.2053  142.2941  156.6905 N   0  3  0  0  0  0  0  0  0  0  0  0
  150.2808  142.4686  158.1562 C   0  0  0  0  0  0  0  0  0  0  0  0
  150.6653  143.9104  158.5241 C   0  0  0  0  0  0  0  0  0  0  0  0
  152.0850  144.3083  158.1016 C   0  0  0  0  0  0  0  0  0  0  0  0
  152.4859  145.4655  159.0271 C   0  0  0  0  0  0  0  0  0  0  0  0
  151.4900  145.4526  160.1959 C   0  0  0  0  0  0  0  0  0  0  0  0
  150.6664  144.1738  160.0310 C   0  0  0  0  0  0  0  0  0  0  0  0
  149.4278  140.9306  154.7714 C   0  0  2  0  0  0  0  0  0  0  0  0
  148.1534  140.6476  153.9542 C   0  0  0  0  0  0  0  0  0  0  0  0
  150.2933  139.7572  154.7588 N   0  0  0  0  0  0  0  0  0  0  0  0
  151.5201  139.5802  155.3680 C   0  0  0  0  0  0  0  0  0  0  0  0
  151.9508  138.3215  155.0612 C   0  0  0  0  0  0  0  0  0  0  0  0
  150.9083  137.7965  154.2481 C   0  0  0  0  0  0  0  0  0  0  0  0
  149.9199  138.6576  154.0682 N   0  0  0  0  0  0  0  0  0  0  0  0
  148.0620  139.6210  156.9276 H   0  0  0  0  0  0  0  0  0  0  0  0
  148.7206  140.5974  158.2161 H   0  0  0  0  0  0  0  0  0  0  0  0
  149.7935  139.6002  157.2411 H   0  0  0  0  0  0  0  0  0  0  0  0
  148.1947  141.9912  156.1793 H   0  0  0  0  0  0  0  0  0  0  0  0
  151.0869  141.9386  156.3488 H   0  0  0  0  0  0  0  0  0  0  0  0
  149.3065  142.2302  158.5849 H   0  0  0  0  0  0  0  0  0  0  0  0
  150.9971  141.7698  158.5878 H   0  0  0  0  0  0  0  0  0  0  0  0
  149.9571  144.6019  158.0640 H   0  0  0  0  0  0  0  0  0  0  0  0
  152.7686  143.4723  158.2574 H   0  0  0  0  0  0  0  0  0  0  0  0
  152.1421  144.5842  157.0483 H   0  0  0  0  0  0  0  0  0  0  0  0
  153.5115  145.3421  159.3767 H   0  0  0  0  0  0  0  0  0  0  0  0
  152.4351  146.4194  158.5010 H   0  0  0  0  0  0  0  0  0  0  0  0
  151.9875  145.4954  161.1654 H   0  0  0  0  0  0  0  0  0  0  0  0
  150.8354  146.3225  160.1263 H   0  0  0  0  0  0  0  0  0  0  0  0
  149.6606  144.2711  160.4410 H   0  0  0  0  0  0  0  0  0  0  0  0
  151.1594  143.3532  160.5540 H   0  0  0  0  0  0  0  0  0  0  0  0
  149.9664  141.7337  154.2635 H   0  0  0  0  0  0  0  0  0  0  0  0
  147.5356  141.5398  153.8524 H   0  0  0  0  0  0  0  0  0  0  0  0
  147.5422  139.8735  154.4197 H   0  0  0  0  0  0  0  0  0  0  0  0
  148.4027  140.3118  152.9469 H   0  0  0  0  0  0  0  0  0  0  0  0
  151.9811  140.3562  155.9609 H   0  0  0  0  0  0  0  0  0  0  0  0
  152.8710  137.8475  155.3697 H   0  0  0  0  0  0  0  0  0  0  0  0
  150.8414  136.8229  153.7853 H   0  0  0  0  0  0  0  0  0  0  0  0
  150.0544  143.2093  156.2906 H   0  0  0  0  0  0  0  0  0  0  0  0
  1  2  1  0  0  0  0
  1 17  1  0  0  0  0
  1 18  1  0  0  0  0
  1 19  1  0  0  0  0
  2  3  1  0  0  0  0
  2 10  1  0  0  0  0
  2 20  1  0  0  0  0
  3  4  1  0  0  0  0
  3 21  1  0  0  0  0
  3 40  1  0  0  0  0
  4  5  1  0  0  0  0
  4 22  1  0  0  0  0
  4 23  1  0  0  0  0
  5  9  1  0  0  0  0
  5  6  1  0  0  0  0
  5 24  1  0  0  0  0
  6  7  1  0  0  0  0
  6 25  1  0  0  0  0
  6 26  1  0  0  0  0
  7  8  1  0  0  0  0
  7 27  1  0  0  0  0
  7 28  1  0  0  0  0
  8  9  1  0  0  0  0
  8 29  1  0  0  0  0
  8 30  1  0  0  0  0
  9 31  1  0  0  0  0
  9 32  1  0  0  0  0
 10 11  1  0  0  0  0
 10 12  1  0  0  0  0
 10 33  1  0  0  0  0
 11 34  1  0  0  0  0
 11 35  1  0  0  0  0
 11 36  1  0  0  0  0
 12 16  1  0  0  0  0
 12 13  1  0  0  0  0
 13 14  2  0  0  0  0
 13 37  1  0  0  0  0
 14 15  1  0  0  0  0
 14 38  1  0  0  0  0
 15 16  2  0  0  0  0
 15 39  1  0  0  0  0
M  CHG  1   3   1
M  END
> <s_m_source_file>
AV-unprocessed.smi

> <i_m_source_file_index>
3157

> <i_lp_mmshare_version>
43012

> <i_f3d_flags>
0

> <s_epik_input>
bjFbY0hdW2NIXVtjSF1uMVtDQEBIXShbQ0gzXSlbQ0BIXShbQ0gzXSlbTkhdW0NIMl1bQ0hdMltDSDJdW0NIMl1bQ0gyXVtDSDJdMg==

> <s_epik_cmdline>
J2VwaWtfcHl0aG9uJywgJy1waCcsICc3LjAnLCAnLXRuJywgJzgnLCAnLW1hJywgJzIwMCcsICctbWV0YWxfYmluZGluZycsICctaW1hZScsICc8aW5maWxlLm1hZT4nLCAnLW9tYWUnLCAnPG91dGZpbGUubWFlPic=

> <r_lp_tautomer_probability>
1

> <r_epik_Ionization_Penalty>
0.00132192

> <r_epik_Ionization_Penalty_Charging>
0.0013111

> <r_epik_Ionization_Penalty_Neutral>
1.08112e-05

> <r_epik_State_Penalty>
-0

> <r_epik_Charging_Adjusted_Penalty>
0.0013111

> <i_epik_Tot_Q>
1

> <i_epik_Tot_abs_Q>
1

> <r_epik_Metal_State_Penalty>
-0

> <b_epik_Metal_Only>
0

> <s_lp_Force_Field>
OPLS_2005

> <r_lp_Energy>
32.0676

> <b_lp_Chiralities_Consistent>
1

> <s_lp_Variant>
AV-unprocessed.smi:3157-2

> <Gold.Version>
5.8.1

> <Gold.Id.Protein>
6NUR|6NUR_protein|mol2

> <Gold.PLP.Fitness>
44.5435

> <Gold.PLP.PLP>
-37.4548

> <Gold.PLP.part.hbond>
-1.0000

> <Gold.PLP.part.metal>
0.0000

> <Gold.PLP.part.buried>
-3.0218

> <Gold.PLP.part.nonpolar>
-32.5482

> <Gold.PLP.part.repulsive>
0.2895

> <Gold.PLP.ligand.clash>
0.0000

> <Gold.PLP.ligand.torsion>
1.1082

> <Gold.PLP.Chemscore.Hbond>
2.0000

> <Gold.PLP.Chemscore.CHOScore>
1.0738

> <Gold.PLP.Chemscore.Metal>
0.0000

> <Gold.Chemscore.Hbonds>
donor molecule, donor type, donor heavy atom, donor atom, acceptor molecule, acceptor atom, score
      L1  H     3    40       P1  8028  2.00
      L1  C    15    39       P1  7948  0.15
      L1  C    15    39       P1  7949  0.87

> <Gold.PLP.Chemscore.Internal.Correction>
0.0837

> <Gold.Rescore>
     Score         DG    S(hbond)    S(metal)    S(lipo)     H(rot)  DE(clash)    DE(int)     intcor
     16.36     -17.68       0.99        0.00     108.93       1.50       0.09       1.23       ----

> <Gold.Chemscore.Fitness>
16.3582

> <Gold.Chemscore.DG>
-17.6773

> <Gold.Chemscore.ZeroCoef>
-5.4800

> <Gold.Chemscore.Hbond>
0.9893

> <Gold.Chemscore.Metal>
0.0000

> <Gold.Chemscore.Lipo>
108.9328

> <Gold.Chemscore.Internal_Hbond>
0.0000

> <Gold.Chemscore.DEClash>
0.0874

> <Gold.Chemscore.DEInternal>
1.2317

> <Gold.Chemscore.Rot>
1.5047

> <Gold.Chemscore.Internal.Correction>
   9.000000E+99

> <Gold.Chemscore.Hbonds>
donor molecule, donor type, donor heavy atom, donor atom, acceptor molecule, acceptor atom, score
      L1  H     3    40       P1  8028  0.93

> <Gold.Chemscore.Hbond.Weighted>
-3.3041

> <Gold.Chemscore.Metal.Weighted>
-0.0000

> <Gold.Chemscore.Lipo.Weighted>
-12.7451

> <Gold.Chemscore.Internal_Hbond.Weighted>
0.0000

> <Gold.Chemscore.DEClash.Weighted>
0.0874

> <Gold.Chemscore.DEInternal.Weighted>
1.2317

> <Gold.Chemscore.Rot.Weighted>
3.8520

> <Gold.Chemscore.Internal.Correction.Weighted>
   9.000000E+99

> <Gold.Protein.RotatedTorsions>
[ 6907 6896 6895 6894 ] final   63.71 input  -60.11 | X-H torsion
[ 7974 7965 7964 7962 ] final  142.55 input  175.53 | X-H torsion
[ 8008 7997 7996 7995 ] final -168.38 input   59.86 | X-H torsion
[ 10167 10162 10161 10158 ] final   54.40 input  -65.29 | X-H torsion
[ 10718 10713 10712 10709 ] final   -2.05 input   66.30 | X-H torsion
[ 10763 10752 10751 10750 ] final  150.01 input  -60.55 | X-H torsion
[ 11005 11000 10999 10996 ] final -173.08 input  -57.11 | X-H torsion

> <Gold.Protein.ActiveResidues>
 VAL166  LYS551  ARG553  GLY616  TRP617  ASP618  TYR619  PRO620  LYS621  CYS622 
 ASP623  PHE694  ASN695  SER759  ASP760  ASP761  ALA762  ILE779  LEU786  VAL792 
 PHE793  MET794  SER795  GLU796  ALA797  LYS798  CYS799  TRP800  GLU811  SER814 

> <Gold.Protein.RotatedAtoms>
  152.4275  134.5841  159.9955 H   0  0  0  0  0  0  0  0  0  0  0  0  # atno 6907 bound_to 6896
  151.5974  133.3354  159.3048 H   0  0  0  0  0  0  0  0  0  0  0  0  # atno 6908 bound_to 6896
  150.8165  134.7386  159.6800 H   0  0  0  0  0  0  0  0  0  0  0  0  # atno 6909 bound_to 6896
  144.8997  139.5440  143.5759 H   0  0  0  0  0  0  0  0  0  0  0  0  # atno 7974 bound_to 7965
  155.8906  140.1024  157.1421 H   0  0  0  0  0  0  0  0  0  0  0  0  # atno 8008 bound_to 7997
  154.4014  140.1311  156.4375 H   0  0  0  0  0  0  0  0  0  0  0  0  # atno 8009 bound_to 7997
  155.7538  140.3464  155.5166 H   0  0  0  0  0  0  0  0  0  0  0  0  # atno 8010 bound_to 7997
  140.2305  144.3692  150.6416 H   0  0  0  0  0  0  0  0  0  0  0  0  # atno 10167 bound_to 10162
  156.7965  130.5379  149.5728 H   0  0  0  0  0  0  0  0  0  0  0  0  # atno 10718 bound_to 10713
  154.0805  135.2860  155.3291 H   0  0  0  0  0  0  0  0  0  0  0  0  # atno 10763 bound_to 10752
  154.6687  135.5307  153.8113 H   0  0  0  0  0  0  0  0  0  0  0  0  # atno 10764 bound_to 10752
  153.0450  135.6552  154.0980 H   0  0  0  0  0  0  0  0  0  0  0  0  # atno 10765 bound_to 10752
  140.4898  134.5996  157.4950 H   0  0  0  0  0  0  0  0  0  0  0  0  # atno 11005 bound_to 11000
  146.3101  139.7718  142.9026 LP  0  0  0  0  0  0  0  0  0  0  0  0  # atno 17320 bound_to 7965
  145.3637  141.0330  143.3270 LP  0  0  0  0  0  0  0  0  0  0  0  0  # atno 17321 bound_to 7965
  140.6189  143.2174  151.6735 LP  0  0  0  0  0  0  0  0  0  0  0  0  # atno 17342 bound_to 10162
  139.5112  144.3518  152.0645 LP  0  0  0  0  0  0  0  0  0  0  0  0  # atno 17343 bound_to 10162
  156.1127  130.6052  151.0072 LP  0  0  0  0  0  0  0  0  0  0  0  0  # atno 17370 bound_to 10713
  157.6575  131.0887  150.7914 LP  0  0  0  0  0  0  0  0  0  0  0  0  # atno 17371 bound_to 10713
  139.9776  134.7190  155.9920 LP  0  0  0  0  0  0  0  0  0  0  0  0  # atno 17394 bound_to 11000
  141.1490  133.6551  156.3954 LP  0  0  0  0  0  0  0  0  0  0  0  0  # atno 17395 bound_to 11000

$$$$
