AV-unprocessed.smi:876|AV-procd|sdf|4020|dock3
  -GOLD-   22720 1503D 1   1.00000     0.00000
 Structure written by MMmdl.
 41 42  0  0  0  0  0  0  0  0  2 V2000
  146.2969  138.5258  150.7787 C   0  0  0  0  0  0  0  0  0  0  0  0
  146.2307  138.4138  152.2301 N   0  0  0  0  0  0  0  0  0  0  0  0
  145.3034  137.4768  152.8547 C   0  0  0  0  0  0  0  0  0  0  0  0
  147.0227  139.2601  153.0360 C   0  0  0  0  0  0  0  0  0  0  0  0
  148.3147  138.9058  153.4959 C   0  0  0  0  0  0  0  0  0  0  0  0
  149.0499  139.8050  154.2951 C   0  0  0  0  0  0  0  0  0  0  0  0
  148.4920  141.0644  154.6257 C   0  0  0  0  0  0  0  0  0  0  0  0
  149.1407  142.0391  155.4320 N   0  0  0  0  0  0  0  0  0  0  0  0
  150.2878  141.9251  156.1241 C   0  0  0  0  0  0  0  0  0  0  0  0
  150.9973  140.9204  156.1651 O   0  0  0  0  0  0  0  0  0  0  0  0
  150.5843  143.0636  156.7667 N   0  0  0  0  0  0  0  0  0  0  0  0
  151.7649  143.2632  157.6001 C   0  0  1  0  0  0  0  0  0  0  0  0
  151.6636  144.5533  158.3664 C   0  0  0  0  0  0  0  0  0  0  0  0
  151.7452  144.3771  159.6832 C   0  0  0  0  0  0  0  0  0  0  0  0
  151.8920  142.9281  160.0730 C   0  0  2  0  0  0  0  0  0  0  0  0
  153.1494  142.6622  160.9190 C   0  0  0  0  0  0  0  0  0  0  0  0
  152.8820  142.8727  162.2899 O   0  0  0  0  0  0  0  0  0  0  0  0
  151.9072  142.1886  158.7105 C   0  0  0  0  0  0  0  0  0  0  0  0
  147.1963  141.3609  154.1573 C   0  0  0  0  0  0  0  0  0  0  0  0
  146.5272  140.4700  153.3943 N   0  3  0  0  0  0  0  0  0  0  0  0
  152.6626  143.3022  156.9806 H   0  0  0  0  0  0  0  0  0  0  0  0
  151.0029  142.6371  160.6345 H   0  0  0  0  0  0  0  0  0  0  0  0
  147.3061  138.3144  150.4238 H   0  0  0  0  0  0  0  0  0  0  0  0
  146.0170  139.5298  150.4580 H   0  0  0  0  0  0  0  0  0  0  0  0
  145.6202  137.8211  150.2949 H   0  0  0  0  0  0  0  0  0  0  0  0
  144.5785  138.0084  153.4719 H   0  0  0  0  0  0  0  0  0  0  0  0
  145.8416  136.7670  153.4837 H   0  0  0  0  0  0  0  0  0  0  0  0
  144.7503  136.9072  152.1074 H   0  0  0  0  0  0  0  0  0  0  0  0
  148.7577  137.9519  153.2520 H   0  0  0  0  0  0  0  0  0  0  0  0
  150.0235  139.5011  154.6469 H   0  0  0  0  0  0  0  0  0  0  0  0
  148.7107  142.9525  155.4375 H   0  0  0  0  0  0  0  0  0  0  0  0
  149.9516  143.8453  156.6784 H   0  0  0  0  0  0  0  0  0  0  0  0
  151.5529  145.5084  157.8742 H   0  0  0  0  0  0  0  0  0  0  0  0
  151.6994  145.1672  160.4182 H   0  0  0  0  0  0  0  0  0  0  0  0
  153.4821  141.6322  160.7875 H   0  0  0  0  0  0  0  0  0  0  0  0
  153.9710  143.3094  160.6095 H   0  0  0  0  0  0  0  0  0  0  0  0
  153.6430  142.6146  162.7873 H   0  0  0  0  0  0  0  0  0  0  0  0
  151.0984  141.4574  158.6731 H   0  0  0  0  0  0  0  0  0  0  0  0
  152.8345  141.6315  158.5708 H   0  0  0  0  0  0  0  0  0  0  0  0
  146.6755  142.2852  154.3622 H   0  0  0  0  0  0  0  0  0  0  0  0
  145.5944  140.7235  153.0684 H   0  0  0  0  0  0  0  0  0  0  0  0
  1  2  1  0  0  0  0
  1 23  1  0  0  0  0
  1 24  1  0  0  0  0
  1 25  1  0  0  0  0
  2  3  1  0  0  0  0
  2  4  1  0  0  0  0
  3 26  1  0  0  0  0
  3 27  1  0  0  0  0
  3 28  1  0  0  0  0
  4 20  1  0  0  0  0
  4  5  2  0  0  0  0
  5  6  1  0  0  0  0
  5 29  1  0  0  0  0
  6  7  2  0  0  0  0
  6 30  1  0  0  0  0
  7  8  1  0  0  0  0
  7 19  1  0  0  0  0
  8  9  1  0  0  0  0
  8 31  1  0  0  0  0
  9 10  2  0  0  0  0
  9 11  1  0  0  0  0
 11 12  1  0  0  0  0
 11 32  1  0  0  0  0
 12 21  1  0  0  0  0
 12 18  1  0  0  0  0
 12 13  1  0  0  0  0
 13 14  2  0  0  0  0
 13 33  1  0  0  0  0
 14 15  1  0  0  0  0
 14 34  1  0  0  0  0
 15 22  1  0  0  0  0
 15 16  1  0  0  0  0
 15 18  1  0  0  0  0
 16 17  1  0  0  0  0
 16 35  1  0  0  0  0
 16 36  1  0  0  0  0
 17 37  1  0  0  0  0
 18 38  1  0  0  0  0
 18 39  1  0  0  0  0
 19 20  2  0  0  0  0
 19 40  1  0  0  0  0
 20 41  1  0  0  0  0
M  CHG  1  20   1
M  END
> <s_m_source_file>
AV-unprocessed.smi

> <i_m_source_file_index>
876

> <i_lp_mmshare_version>
43012

> <i_f3d_flags>
0

> <s_epik_input>
W0NIM11OKFtDSDNdKWMxW2NIXVtjSF1jKFtjSF1uMSlbTkhdQyg9TylbTkhdW0NAQEhdMltDSF09W0NIXVtDQEBIXShbQ0gyXTIpW0NIMl1bT0hd

> <s_epik_cmdline>
J2VwaWtfcHl0aG9uJywgJy1waCcsICc3LjAnLCAnLXRuJywgJzgnLCAnLW1hJywgJzIwMCcsICctbWV0YWxfYmluZGluZycsICctaW1hZScsICc8aW5maWxlLm1hZT4nLCAnLW9tYWUnLCAnPG91dGZpbGUubWFlPic=

> <r_lp_tautomer_probability>
0.999994

> <r_epik_Ionization_Penalty>
0.257994

> <r_epik_Ionization_Penalty_Charging>
0.257974

> <r_epik_Ionization_Penalty_Neutral>
1.95938e-05

> <r_epik_State_Penalty>
0.249586

> <r_epik_Charging_Adjusted_Penalty>
0.50756

> <i_epik_Tot_Q>
1

> <i_epik_Tot_abs_Q>
1

> <r_epik_Metal_State_Penalty>
0.538508

> <b_epik_Metal_Only>
0

> <s_lp_Force_Field>
OPLS_2005

> <r_lp_Energy>
26.3189

> <b_lp_Chiralities_Consistent>
1

> <s_lp_Variant>
AV-unprocessed.smi:876-2

> <Gold.Version>
5.8.1

> <Gold.Id.Protein>
6NUR|6NUR_protein|mol2

> <Gold.PLP.Fitness>
49.9884

> <Gold.PLP.PLP>
-41.7458

> <Gold.PLP.part.hbond>
-3.0000

> <Gold.PLP.part.metal>
0.0000

> <Gold.PLP.part.buried>
-0.1779

> <Gold.PLP.part.nonpolar>
-40.1652

> <Gold.PLP.part.repulsive>
0.2576

> <Gold.PLP.ligand.clash>
0.0000

> <Gold.PLP.ligand.torsion>
1.8636

> <Gold.PLP.Chemscore.Hbond>
3.9825

> <Gold.PLP.Chemscore.CHOScore>
0.0000

> <Gold.PLP.Chemscore.Metal>
0.0000

> <Gold.Chemscore.Hbonds>
donor molecule, donor type, donor heavy atom, donor atom, acceptor molecule, acceptor atom, score
      L1  H     8    31       P1  8028  0.99
      L1  H    11    32       P1  8028  0.96
      L1  H    20    41       P1 10175  2.00

> <Gold.PLP.Chemscore.Internal.Correction>
0.0224

> <Gold.Rescore>
     Score         DG    S(hbond)    S(metal)    S(lipo)     H(rot)  DE(clash)    DE(int)     intcor
     16.41     -22.49       2.68        0.00     108.56       1.82       1.61       4.46       ----

> <Gold.Chemscore.Fitness>
16.4106

> <Gold.Chemscore.DG>
-22.4851

> <Gold.Chemscore.ZeroCoef>
-5.4800

> <Gold.Chemscore.Hbond>
2.6834

> <Gold.Chemscore.Metal>
0.0000

> <Gold.Chemscore.Lipo>
108.5559

> <Gold.Chemscore.Internal_Hbond>
0.0000

> <Gold.Chemscore.DEClash>
1.6144

> <Gold.Chemscore.DEInternal>
4.4602

> <Gold.Chemscore.Rot>
1.8197

> <Gold.Chemscore.Internal.Correction>
   9.000000E+99

> <Gold.Chemscore.Hbonds>
donor molecule, donor type, donor heavy atom, donor atom, acceptor molecule, acceptor atom, score
      L1  H     8    31       P1  8028  0.93
      L1  H    11    32       P1  8028  0.92
      L1  H    20    41       P1 10175  0.66

> <Gold.Chemscore.Hbond.Weighted>
-8.9626

> <Gold.Chemscore.Metal.Weighted>
-0.0000

> <Gold.Chemscore.Lipo.Weighted>
-12.7010

> <Gold.Chemscore.Internal_Hbond.Weighted>
0.0000

> <Gold.Chemscore.DEClash.Weighted>
1.6144

> <Gold.Chemscore.DEInternal.Weighted>
4.4602

> <Gold.Chemscore.Rot.Weighted>
4.6585

> <Gold.Chemscore.Internal.Correction.Weighted>
   9.000000E+99

> <Gold.Protein.RotatedTorsions>
[ 6907 6896 6895 6894 ] final -154.99 input  -60.11 | X-H torsion
[ 7974 7965 7964 7962 ] final  -28.31 input  175.53 | X-H torsion
[ 8008 7997 7996 7995 ] final   23.05 input   59.86 | X-H torsion
[ 10167 10162 10161 10158 ] final  150.45 input  -65.29 | X-H torsion
[ 10718 10713 10712 10709 ] final   17.44 input   66.30 | X-H torsion
[ 10763 10752 10751 10750 ] final  -16.38 input  -60.55 | X-H torsion
[ 11005 11000 10999 10996 ] final  -90.86 input  -57.11 | X-H torsion

> <Gold.Protein.ActiveResidues>
 VAL166  LYS551  ARG553  GLY616  TRP617  ASP618  TYR619  PRO620  LYS621  CYS622 
 ASP623  PHE694  ASN695  SER759  ASP760  ASP761  ALA762  ILE779  LEU786  VAL792 
 PHE793  MET794  SER795  GLU796  ALA797  LYS798  CYS799  TRP800  GLU811  SER814 

> <Gold.Protein.RotatedAtoms>
  151.2658  133.4279  159.2618 H   0  0  0  0  0  0  0  0  0  0  0  0  # atno 6907 bound_to 6896
  151.0489  134.9660  159.8211 H   0  0  0  0  0  0  0  0  0  0  0  0  # atno 6908 bound_to 6896
  152.5379  134.2613  159.8989 H   0  0  0  0  0  0  0  0  0  0  0  0  # atno 6909 bound_to 6896
  146.1297  140.5265  142.8699 H   0  0  0  0  0  0  0  0  0  0  0  0  # atno 7974 bound_to 7965
  154.9750  140.3095  155.4971 H   0  0  0  0  0  0  0  0  0  0  0  0  # atno 8008 bound_to 7997
  156.2961  140.2277  156.4784 H   0  0  0  0  0  0  0  0  0  0  0  0  # atno 8009 bound_to 7997
  154.7842  140.0444  157.1139 H   0  0  0  0  0  0  0  0  0  0  0  0  # atno 8010 bound_to 7997
  139.4850  144.5521  151.7382 H   0  0  0  0  0  0  0  0  0  0  0  0  # atno 10167 bound_to 10162
  157.0821  130.6392  149.5829 H   0  0  0  0  0  0  0  0  0  0  0  0  # atno 10718 bound_to 10713
  153.5577  135.7010  153.5561 H   0  0  0  0  0  0  0  0  0  0  0  0  # atno 10763 bound_to 10752
  153.3457  135.4009  155.1607 H   0  0  0  0  0  0  0  0  0  0  0  0  # atno 10764 bound_to 10752
  154.8652  135.3753  154.5093 H   0  0  0  0  0  0  0  0  0  0  0  0  # atno 10765 bound_to 10752
  141.1557  133.7719  156.9798 H   0  0  0  0  0  0  0  0  0  0  0  0  # atno 11005 bound_to 11000
  144.7678  140.5570  143.6691 LP  0  0  0  0  0  0  0  0  0  0  0  0  # atno 17320 bound_to 7965
  145.5287  139.1475  143.3511 LP  0  0  0  0  0  0  0  0  0  0  0  0  # atno 17321 bound_to 7965
  140.5077  144.1073  150.5987 LP  0  0  0  0  0  0  0  0  0  0  0  0  # atno 17342 bound_to 10162
  140.3988  143.2714  151.9972 LP  0  0  0  0  0  0  0  0  0  0  0  0  # atno 17343 bound_to 10162
  155.9921  130.4977  150.7325 LP  0  0  0  0  0  0  0  0  0  0  0  0  # atno 17370 bound_to 10713
  157.4791  131.0900  151.0556 LP  0  0  0  0  0  0  0  0  0  0  0  0  # atno 17371 bound_to 10713
  140.1073  134.9498  157.2014 LP  0  0  0  0  0  0  0  0  0  0  0  0  # atno 17394 bound_to 11000
  140.3239  134.2885  155.7241 LP  0  0  0  0  0  0  0  0  0  0  0  0  # atno 17395 bound_to 11000

$$$$
