AV-unprocessed.smi:2171|AV-procd|sdf|8830|dock4
  -GOLD-   2272012 23D 1   1.00000     0.00000
 Structure written by MMmdl.
 39 41  0  0  0  0  0  0  0  0  2 V2000
  151.8432  140.3125  156.6692 O   0  0  0  0  0  0  0  0  0  0  0  0
  151.2053  141.0208  157.4471 C   0  0  0  0  0  0  0  0  0  0  0  0
  151.8921  141.6102  158.6825 C   0  0  0  0  0  0  0  0  0  0  0  0
  151.7024  143.0481  158.7756 N   0  0  0  0  0  0  0  0  0  0  0  0
  152.6582  144.0303  158.9348 C   0  0  0  0  0  0  0  0  0  0  0  0
  152.0065  145.2294  158.9754 C   0  0  0  0  0  0  0  0  0  0  0  0
  150.6363  144.8750  158.8279 C   0  0  0  0  0  0  0  0  0  0  0  0
  150.4575  143.5695  158.7080 N   0  0  0  0  0  0  0  0  0  0  0  0
  149.9025  141.3042  157.2844 N   0  0  0  0  0  0  0  0  0  0  0  0
  149.0791  140.8815  156.1534 C   0  0  2  0  0  0  0  0  0  0  0  0
  149.6638  141.3142  154.7950 C   0  0  0  0  0  0  0  0  0  0  0  0
  148.4504  141.7656  153.9759 C   0  0  0  0  0  0  0  0  0  0  0  0
  147.5568  142.3286  154.9947 N   0  3  1  0  0  0  0  0  0  0  0  0
  146.1661  142.6482  154.6146 C   0  0  0  0  0  0  0  0  0  0  0  0
  145.4970  143.3904  155.7914 C   0  0  0  0  0  0  0  0  0  0  0  0
  145.6345  142.6199  157.1246 C   0  0  0  0  0  0  0  0  0  0  0  0
  147.0951  142.2000  157.3990 C   0  0  0  0  0  0  0  0  0  0  0  0
  147.6385  141.4461  156.1716 C   0  0  2  0  0  0  0  0  0  0  0  0
  151.4904  141.1399  159.5807 H   0  0  0  0  0  0  0  0  0  0  0  0
  152.9618  141.3949  158.6579 H   0  0  0  0  0  0  0  0  0  0  0  0
  153.7105  143.7970  159.0064 H   0  0  0  0  0  0  0  0  0  0  0  0
  152.4420  146.2110  159.0908 H   0  0  0  0  0  0  0  0  0  0  0  0
  149.7726  145.5230  158.8045 H   0  0  0  0  0  0  0  0  0  0  0  0
  149.4603  141.8905  157.9776 H   0  0  0  0  0  0  0  0  0  0  0  0
  149.0177  139.7913  156.1539 H   0  0  0  0  0  0  0  0  0  0  0  0
  150.3428  142.1586  154.9264 H   0  0  0  0  0  0  0  0  0  0  0  0
  150.2236  140.5169  154.3048 H   0  0  0  0  0  0  0  0  0  0  0  0
  148.7079  142.4959  153.2082 H   0  0  0  0  0  0  0  0  0  0  0  0
  147.9714  140.9107  153.4957 H   0  0  0  0  0  0  0  0  0  0  0  0
  146.1625  143.2761  153.7230 H   0  0  0  0  0  0  0  0  0  0  0  0
  145.6232  141.7341  154.3698 H   0  0  0  0  0  0  0  0  0  0  0  0
  145.9574  144.3733  155.9008 H   0  0  0  0  0  0  0  0  0  0  0  0
  144.4443  143.5690  155.5700 H   0  0  0  0  0  0  0  0  0  0  0  0
  145.2584  143.2268  157.9485 H   0  0  0  0  0  0  0  0  0  0  0  0
  145.0056  141.7293  157.0887 H   0  0  0  0  0  0  0  0  0  0  0  0
  147.7050  143.0801  157.6073 H   0  0  0  0  0  0  0  0  0  0  0  0
  147.1340  141.5670  158.2861 H   0  0  0  0  0  0  0  0  0  0  0  0
  146.9784  140.5955  155.9874 H   0  0  0  0  0  0  0  0  0  0  0  0
  147.9838  143.2008  155.2720 H   0  0  0  0  0  0  0  0  0  0  0  0
  1  2  2  0  0  0  0
  2  3  1  0  0  0  0
  2  9  1  0  0  0  0
  3  4  1  0  0  0  0
  3 19  1  0  0  0  0
  3 20  1  0  0  0  0
  4  8  1  0  0  0  0
  4  5  1  0  0  0  0
  5  6  2  0  0  0  0
  5 21  1  0  0  0  0
  6  7  1  0  0  0  0
  6 22  1  0  0  0  0
  7  8  2  0  0  0  0
  7 23  1  0  0  0  0
  9 10  1  0  0  0  0
  9 24  1  0  0  0  0
 10 18  1  0  0  0  0
 10 11  1  0  0  0  0
 10 25  1  0  0  0  0
 11 12  1  0  0  0  0
 11 26  1  0  0  0  0
 11 27  1  0  0  0  0
 12 13  1  0  0  0  0
 12 28  1  0  0  0  0
 12 29  1  0  0  0  0
 13 18  1  0  0  0  0
 13 14  1  0  0  0  0
 13 39  1  0  0  0  0
 14 15  1  0  0  0  0
 14 30  1  0  0  0  0
 14 31  1  0  0  0  0
 15 16  1  0  0  0  0
 15 32  1  0  0  0  0
 15 33  1  0  0  0  0
 16 17  1  0  0  0  0
 16 34  1  0  0  0  0
 16 35  1  0  0  0  0
 17 18  1  0  0  0  0
 17 36  1  0  0  0  0
 17 37  1  0  0  0  0
 18 38  1  0  0  0  0
M  CHG  1  13   1
M  END
> <s_m_source_file>
AV-unprocessed.smi

> <i_m_source_file_index>
2171

> <i_lp_mmshare_version>
43012

> <i_f3d_flags>
0

> <s_epik_input>
bjFbY0hdW2NIXVtjSF1uMVtDSDJdQyg9TylbTkhdW0NASF0oW0NIMl1bQ0gyXTIpW0NAQEhdKE4yMylbQ0gyXVtDSDJdW0NIMl1bQ0gyXTM=

> <s_epik_cmdline>
J2VwaWtfcHl0aG9uJywgJy1waCcsICc3LjAnLCAnLXRuJywgJzgnLCAnLW1hJywgJzIwMCcsICctbWV0YWxfYmluZGluZycsICctaW1hZScsICc8aW5maWxlLm1hZT4nLCAnLW9tYWUnLCAnPG91dGZpbGUubWFlPic=

> <r_lp_tautomer_probability>
1

> <r_epik_Ionization_Penalty>
0.00204179

> <r_epik_Ionization_Penalty_Charging>
0.00203239

> <r_epik_Ionization_Penalty_Neutral>
9.40205e-06

> <r_epik_State_Penalty>
0.00138983

> <r_epik_Charging_Adjusted_Penalty>
0.00342221

> <i_epik_Tot_Q>
1

> <i_epik_Tot_abs_Q>
1

> <r_epik_Metal_State_Penalty>
-0

> <b_epik_Metal_Only>
0

> <s_lp_Force_Field>
OPLS_2005

> <r_lp_Energy>
41.8247

> <b_lp_Chiralities_Consistent>
1

> <s_lp_Variant>
AV-unprocessed.smi:2171-5

> <Gold.Version>
5.8.1

> <Gold.Id.Protein>
6NUR|6NUR_protein|mol2

> <Gold.PLP.Fitness>
43.9089

> <Gold.PLP.PLP>
-35.1724

> <Gold.PLP.part.hbond>
-1.0000

> <Gold.PLP.part.metal>
0.0000

> <Gold.PLP.part.buried>
-5.3024

> <Gold.PLP.part.nonpolar>
-28.7944

> <Gold.PLP.part.repulsive>
0.2829

> <Gold.PLP.ligand.clash>
0.0000

> <Gold.PLP.ligand.torsion>
0.1325

> <Gold.PLP.Chemscore.Hbond>
2.0000

> <Gold.PLP.Chemscore.CHOScore>
1.0000

> <Gold.PLP.Chemscore.Metal>
0.0000

> <Gold.Chemscore.Hbonds>
donor molecule, donor type, donor heavy atom, donor atom, acceptor molecule, acceptor atom, score
      L1  H    13    39       P1  8028  2.00
      L1  C     7    23       P1  8029  1.00

> <Gold.PLP.Chemscore.Internal.Correction>
0.0016

> <Gold.Rescore>
     Score         DG    S(hbond)    S(metal)    S(lipo)     H(rot)  DE(clash)    DE(int)     intcor
     14.18     -14.69       0.99        0.00      82.01       1.44       0.08       0.42       ----

> <Gold.Chemscore.Fitness>
14.1841

> <Gold.Chemscore.DG>
-14.6899

> <Gold.Chemscore.ZeroCoef>
-5.4800

> <Gold.Chemscore.Hbond>
0.9891

> <Gold.Chemscore.Metal>
0.0000

> <Gold.Chemscore.Lipo>
82.0099

> <Gold.Chemscore.Internal_Hbond>
0.0000

> <Gold.Chemscore.DEClash>
0.0811

> <Gold.Chemscore.DEInternal>
0.4247

> <Gold.Chemscore.Rot>
1.4410

> <Gold.Chemscore.Internal.Correction>
   9.000000E+99

> <Gold.Chemscore.Hbonds>
donor molecule, donor type, donor heavy atom, donor atom, acceptor molecule, acceptor atom, score
      L1  H    13    39       P1  8028  0.78

> <Gold.Chemscore.Hbond.Weighted>
-3.3037

> <Gold.Chemscore.Metal.Weighted>
-0.0000

> <Gold.Chemscore.Lipo.Weighted>
-9.5952

> <Gold.Chemscore.Internal_Hbond.Weighted>
0.0000

> <Gold.Chemscore.DEClash.Weighted>
0.0811

> <Gold.Chemscore.DEInternal.Weighted>
0.4247

> <Gold.Chemscore.Rot.Weighted>
3.6889

> <Gold.Chemscore.Internal.Correction.Weighted>
   9.000000E+99

> <Gold.Protein.RotatedTorsions>
[ 6907 6896 6895 6894 ] final  161.10 input  -60.11 | X-H torsion
[ 7974 7965 7964 7962 ] final  -86.44 input  175.53 | X-H torsion
[ 8008 7997 7996 7995 ] final  163.87 input   59.86 | X-H torsion
[ 10167 10162 10161 10158 ] final   52.39 input  -65.29 | X-H torsion
[ 10718 10713 10712 10709 ] final  -86.73 input   66.30 | X-H torsion
[ 10763 10752 10751 10750 ] final    0.52 input  -60.55 | X-H torsion
[ 11005 11000 10999 10996 ] final  132.61 input  -57.11 | X-H torsion

> <Gold.Protein.ActiveResidues>
 VAL166  LYS551  ARG553  GLY616  TRP617  ASP618  TYR619  PRO620  LYS621  CYS622 
 ASP623  PHE694  ASN695  SER759  ASP760  ASP761  ALA762  ILE779  LEU786  VAL792 
 PHE793  MET794  SER795  GLU796  ALA797  LYS798  CYS799  TRP800  GLU811  SER814 

> <Gold.Protein.RotatedAtoms>
  151.9607  133.3694  159.4033 H   0  0  0  0  0  0  0  0  0  0  0  0  # atno 6907 bound_to 6896
  150.6965  134.4244  159.5229 H   0  0  0  0  0  0  0  0  0  0  0  0  # atno 6908 bound_to 6896
  152.1932  134.8654  160.0566 H   0  0  0  0  0  0  0  0  0  0  0  0  # atno 6909 bound_to 6896
  145.4799  140.9557  143.1870 H   0  0  0  0  0  0  0  0  0  0  0  0  # atno 7974 bound_to 7965
  156.1924  140.1712  156.8065 H   0  0  0  0  0  0  0  0  0  0  0  0  # atno 8008 bound_to 7997
  154.5488  140.0722  156.8665 H   0  0  0  0  0  0  0  0  0  0  0  0  # atno 8009 bound_to 7997
  155.3070  140.3365  155.4247 H   0  0  0  0  0  0  0  0  0  0  0  0  # atno 8010 bound_to 7997
  140.2518  144.3470  150.6345 H   0  0  0  0  0  0  0  0  0  0  0  0  # atno 10167 bound_to 10162
  155.9988  130.4775  150.4759 H   0  0  0  0  0  0  0  0  0  0  0  0  # atno 10718 bound_to 10713
  153.3197  135.6968  153.7042 H   0  0  0  0  0  0  0  0  0  0  0  0  # atno 10763 bound_to 10752
  153.5887  135.3484  155.2903 H   0  0  0  0  0  0  0  0  0  0  0  0  # atno 10764 bound_to 10752
  154.8594  135.4312  154.2357 H   0  0  0  0  0  0  0  0  0  0  0  0  # atno 10765 bound_to 10752
  139.9801  134.9551  156.9607 H   0  0  0  0  0  0  0  0  0  0  0  0  # atno 11005 bound_to 11000
  144.7895  139.6358  143.7119 LP  0  0  0  0  0  0  0  0  0  0  0  0  # atno 17320 bound_to 7965
  146.2347  139.5882  142.9532 LP  0  0  0  0  0  0  0  0  0  0  0  0  # atno 17321 bound_to 7965
  140.6034  143.2167  151.7027 LP  0  0  0  0  0  0  0  0  0  0  0  0  # atno 17342 bound_to 10162
  139.5044  144.3756  152.0427 LP  0  0  0  0  0  0  0  0  0  0  0  0  # atno 17343 bound_to 10162
  157.2769  131.0599  151.2223 LP  0  0  0  0  0  0  0  0  0  0  0  0  # atno 17370 bound_to 10713
  157.3283  130.6972  149.6309 LP  0  0  0  0  0  0  0  0  0  0  0  0  # atno 17371 bound_to 10713
  140.5115  134.0998  155.7271 LP  0  0  0  0  0  0  0  0  0  0  0  0  # atno 17394 bound_to 11000
  141.1474  133.9031  157.2183 LP  0  0  0  0  0  0  0  0  0  0  0  0  # atno 17395 bound_to 11000

$$$$
