AV-unprocessed.smi:141|AV-procd|sdf|1187|dock3
  -GOLD-   2262018343D 1   1.00000     0.00000
 Structure written by MMmdl.
 56 59  0  0  0  0  0  0  0  0  1 V2000
  150.3536  136.9185  160.2827 O   0  0  0  0  0  0  0  0  0  0  0  0
  149.8263  137.1560  159.1941 C   0  0  0  0  0  0  0  0  0  0  0  0
  148.6007  136.3254  158.7577 C   0  0  0  0  0  0  0  0  0  0  0  0
  148.1191  135.3826  159.7924 N   0  0  0  0  0  0  0  0  0  0  0  0
  147.5714  135.9076  160.9894 C   0  0  0  0  0  0  0  0  0  0  0  0
  147.5058  137.1222  161.1835 O   0  0  0  0  0  0  0  0  0  0  0  0
  147.0900  134.9193  161.9478 C   0  0  0  0  0  0  0  0  0  0  0  0
  146.5415  135.3257  163.1053 F   0  0  0  0  0  0  0  0  0  0  0  0
  147.1821  133.5989  161.6889 C   0  0  0  0  0  0  0  0  0  0  0  0
  147.7361  133.0990  160.5267 N   0  0  0  0  0  0  0  0  0  0  0  0
  147.7487  131.6051  160.2990 C   0  0  2  0  0  0  0  0  0  0  0  0
  146.3503  130.9605  160.3459 C   0  0  0  0  0  0  0  0  0  0  0  0
  146.4886  129.9296  161.4542 C   0  0  0  0  0  0  0  0  0  0  0  0
  147.9959  129.7144  161.5310 C   0  0  0  0  0  0  0  0  0  0  0  0
  148.5231  131.0102  161.2941 O   0  0  0  0  0  0  0  0  0  0  0  0
  148.1921  133.9931  159.5304 C   0  0  0  0  0  0  0  0  0  0  0  0
  148.6340  133.5769  158.4580 O   0  0  0  0  0  0  0  0  0  0  0  0
  150.2861  138.1281  158.3690 N   0  0  0  0  0  0  0  0  0  0  0  0
  149.6879  138.5136  157.0846 C   0  0  0  0  0  0  0  0  0  0  0  0
  149.0162  139.8881  157.2503 C   0  0  0  0  0  0  0  0  0  0  0  0
  150.0305  140.9476  157.7371 C   0  0  0  0  0  0  0  0  0  0  0  0
  149.3588  142.3151  157.9930 C   0  0  0  0  0  0  0  0  0  0  0  0
  150.3098  143.3261  158.6054 C   0  0  0  0  0  0  0  0  0  0  0  0
  151.5404  143.6129  157.9780 C   0  0  0  0  0  0  0  0  0  0  0  0
  152.4194  144.5567  158.5441 C   0  0  0  0  0  0  0  0  0  0  0  0
  152.0711  145.2163  159.7388 C   0  0  0  0  0  0  0  0  0  0  0  0
  150.8418  144.9345  160.3658 C   0  0  0  0  0  0  0  0  0  0  0  0
  149.9620  143.9913  159.7999 C   0  0  0  0  0  0  0  0  0  0  0  0
  150.7990  140.4382  158.9780 C   0  0  0  0  0  0  0  0  0  0  0  0
  151.3813  139.0323  158.7406 C   0  0  0  0  0  0  0  0  0  0  0  0
  147.7971  137.0047  158.4691 H   0  0  0  0  0  0  0  0  0  0  0  0
  148.8497  135.7922  157.8391 H   0  0  0  0  0  0  0  0  0  0  0  0
  146.8053  132.9090  162.4298 H   0  0  0  0  0  0  0  0  0  0  0  0
  148.2299  131.4520  159.3320 H   0  0  0  0  0  0  0  0  0  0  0  0
  145.5589  131.6865  160.5347 H   0  0  0  0  0  0  0  0  0  0  0  0
  146.1570  130.4815  159.3856 H   0  0  0  0  0  0  0  0  0  0  0  0
  146.1233  130.3389  162.3963 H   0  0  0  0  0  0  0  0  0  0  0  0
  145.9393  129.0099  161.2513 H   0  0  0  0  0  0  0  0  0  0  0  0
  148.3172  129.3183  162.4946 H   0  0  0  0  0  0  0  0  0  0  0  0
  148.3331  129.0339  160.7474 H   0  0  0  0  0  0  0  0  0  0  0  0
  150.4716  138.5726  156.3277 H   0  0  0  0  0  0  0  0  0  0  0  0
  148.9711  137.7922  156.6964 H   0  0  0  0  0  0  0  0  0  0  0  0
  148.5772  140.2017  156.3024 H   0  0  0  0  0  0  0  0  0  0  0  0
  148.1930  139.8048  157.9614 H   0  0  0  0  0  0  0  0  0  0  0  0
  150.7643  141.0653  156.9375 H   0  0  0  0  0  0  0  0  0  0  0  0
  148.9651  142.7314  157.0648 H   0  0  0  0  0  0  0  0  0  0  0  0
  148.4931  142.2065  158.6479 H   0  0  0  0  0  0  0  0  0  0  0  0
  151.8116  143.1118  157.0600 H   0  0  0  0  0  0  0  0  0  0  0  0
  153.3604  144.7747  158.0609 H   0  0  0  0  0  0  0  0  0  0  0  0
  152.7456  145.9395  160.1730 H   0  0  0  0  0  0  0  0  0  0  0  0
  150.5726  145.4420  161.2806 H   0  0  0  0  0  0  0  0  0  0  0  0
  149.0188  143.7813  160.2831 H   0  0  0  0  0  0  0  0  0  0  0  0
  151.6007  141.1329  159.2306 H   0  0  0  0  0  0  0  0  0  0  0  0
  150.1317  140.4077  159.8407 H   0  0  0  0  0  0  0  0  0  0  0  0
  151.9234  138.7014  159.6274 H   0  0  0  0  0  0  0  0  0  0  0  0
  152.1184  139.0596  157.9370 H   0  0  0  0  0  0  0  0  0  0  0  0
  1  2  2  0  0  0  0
  2  3  1  0  0  0  0
  2 18  1  0  0  0  0
  3  4  1  0  0  0  0
  3 31  1  0  0  0  0
  3 32  1  0  0  0  0
  4 16  1  0  0  0  0
  4  5  1  0  0  0  0
  5  6  2  0  0  0  0
  5  7  1  0  0  0  0
  7  8  1  0  0  0  0
  7  9  2  0  0  0  0
  9 10  1  0  0  0  0
  9 33  1  0  0  0  0
 10 11  1  0  0  0  0
 10 16  1  0  0  0  0
 11 15  1  0  0  0  0
 11 12  1  0  0  0  0
 11 34  1  0  0  0  0
 12 13  1  0  0  0  0
 12 35  1  0  0  0  0
 12 36  1  0  0  0  0
 13 14  1  0  0  0  0
 13 37  1  0  0  0  0
 13 38  1  0  0  0  0
 14 15  1  0  0  0  0
 14 39  1  0  0  0  0
 14 40  1  0  0  0  0
 16 17  2  0  0  0  0
 18 30  1  0  0  0  0
 18 19  1  0  0  0  0
 19 20  1  0  0  0  0
 19 41  1  0  0  0  0
 19 42  1  0  0  0  0
 20 21  1  0  0  0  0
 20 43  1  0  0  0  0
 20 44  1  0  0  0  0
 21 22  1  0  0  0  0
 21 29  1  0  0  0  0
 21 45  1  0  0  0  0
 22 23  1  0  0  0  0
 22 46  1  0  0  0  0
 22 47  1  0  0  0  0
 23 28  1  0  0  0  0
 23 24  2  0  0  0  0
 24 25  1  0  0  0  0
 24 48  1  0  0  0  0
 25 26  2  0  0  0  0
 25 49  1  0  0  0  0
 26 27  1  0  0  0  0
 26 50  1  0  0  0  0
 27 28  2  0  0  0  0
 27 51  1  0  0  0  0
 28 52  1  0  0  0  0
 29 30  1  0  0  0  0
 29 53  1  0  0  0  0
 29 54  1  0  0  0  0
 30 55  1  0  0  0  0
 30 56  1  0  0  0  0
M  END
> <s_m_source_file>
AV-unprocessed.smi

> <i_m_source_file_index>
141

> <i_lp_mmshare_version>
43012

> <i_f3d_flags>
0

> <s_epik_input>
W2NIXTFbY0hdW2NIXVtjSF1bY0hdYzFbQ0gyXVtDSF0oW0NIMl1bQ0gyXTIpW0NIMl1bQ0gyXU4yQyg9TylbQ0gyXW4zYyg9TyljKEYpW2NIXW4oYzM9TylbQ0BASF00W0NIMl1bQ0gyXVtDSDJdTzQ=

> <s_epik_cmdline>
J2VwaWtfcHl0aG9uJywgJy1waCcsICc3LjAnLCAnLXRuJywgJzgnLCAnLW1hJywgJzIwMCcsICctbWV0YWxfYmluZGluZycsICctaW1hZScsICc8aW5maWxlLm1hZT4nLCAnLW9tYWUnLCAnPG91dGZpbGUubWFlPic=

> <r_lp_tautomer_probability>
1

> <r_epik_Ionization_Penalty>
3.78313e-08

> <r_epik_Ionization_Penalty_Charging>
4.95074e-09

> <r_epik_Ionization_Penalty_Neutral>
3.28806e-08

> <r_epik_State_Penalty>
-0

> <r_epik_Charging_Adjusted_Penalty>
4.95074e-09

> <i_epik_Tot_Q>
0

> <i_epik_Tot_abs_Q>
0

> <r_epik_Metal_State_Penalty>
-0

> <b_epik_Metal_Only>
0

> <s_epik_Chemistry_Notes>
This compound contains an acetal/aminal-like group ( X-CH(R)-Y where X, Y are N, S, or O) that may be acid/base labile, releasing an aldehyde.

> <s_lp_Force_Field>
OPLS_2005

> <r_lp_Energy>
44.5211

> <b_lp_Chiralities_Consistent>
1

> <s_lp_Variant>
AV-unprocessed.smi:141-1

> <Gold.Version>
5.8.1

> <Gold.Id.Protein>
6NUR|6NUR_protein|mol2

> <Gold.PLP.Fitness>
60.6390

> <Gold.PLP.PLP>
-52.0945

> <Gold.PLP.part.hbond>
-4.4455

> <Gold.PLP.part.metal>
0.0000

> <Gold.PLP.part.buried>
-5.2751

> <Gold.PLP.part.nonpolar>
-42.8243

> <Gold.PLP.part.repulsive>
0.0000

> <Gold.PLP.ligand.clash>
0.0000

> <Gold.PLP.ligand.torsion>
0.1474

> <Gold.PLP.Chemscore.Hbond>
2.9158

> <Gold.PLP.Chemscore.CHOScore>
0.0000

> <Gold.PLP.Chemscore.Metal>
0.0000

> <Gold.Chemscore.Hbonds>
donor molecule, donor type, donor heavy atom, donor atom, acceptor molecule, acceptor atom, score
      P1  H  6896  6907       L1     1  0.94
      P1  H  6896  6909       L1    17  0.07
      P1  H  6931  6943       L1     6  0.93
      P1  H  6934  6947       L1     6  0.96

> <Gold.PLP.Chemscore.Internal.Correction>
0.0920

> <Gold.Rescore>
     Score         DG    S(hbond)    S(metal)    S(lipo)     H(rot)  DE(clash)    DE(int)     intcor
     22.33     -23.07       2.61        0.00     116.16       1.85       0.09       0.65       ----

> <Gold.Chemscore.Fitness>
22.3308

> <Gold.Chemscore.DG>
-23.0689

> <Gold.Chemscore.ZeroCoef>
-5.4800

> <Gold.Chemscore.Hbond>
2.6120

> <Gold.Chemscore.Metal>
0.0000

> <Gold.Chemscore.Lipo>
116.1612

> <Gold.Chemscore.Internal_Hbond>
0.0000

> <Gold.Chemscore.DEClash>
0.0859

> <Gold.Chemscore.DEInternal>
0.6523

> <Gold.Chemscore.Rot>
1.8461

> <Gold.Chemscore.Internal.Correction>
   9.000000E+99

> <Gold.Chemscore.Hbonds>
donor molecule, donor type, donor heavy atom, donor atom, acceptor molecule, acceptor atom, score
      P1  H  6896  6907       L1     1  0.40
      P1  H  6896  6909       L1    17  0.01
      P1  H  6931  6943       L1     6  0.83
      P1  H  6934  6947       L1     6  0.91

> <Gold.Chemscore.Hbond.Weighted>
-8.7241

> <Gold.Chemscore.Metal.Weighted>
-0.0000

> <Gold.Chemscore.Lipo.Weighted>
-13.5909

> <Gold.Chemscore.Internal_Hbond.Weighted>
0.0000

> <Gold.Chemscore.DEClash.Weighted>
0.0859

> <Gold.Chemscore.DEInternal.Weighted>
0.6523

> <Gold.Chemscore.Rot.Weighted>
4.7260

> <Gold.Chemscore.Internal.Correction.Weighted>
   9.000000E+99

> <Gold.Protein.RotatedTorsions>
[ 6907 6896 6895 6894 ] final  -10.54 input  -60.11 | X-H torsion
[ 7974 7965 7964 7962 ] final   85.90 input  175.53 | X-H torsion
[ 8008 7997 7996 7995 ] final  168.43 input   59.86 | X-H torsion
[ 10167 10162 10161 10158 ] final -135.73 input  -65.29 | X-H torsion
[ 10718 10713 10712 10709 ] final   54.62 input   66.30 | X-H torsion
[ 10763 10752 10751 10750 ] final  112.55 input  -60.55 | X-H torsion
[ 11005 11000 10999 10996 ] final  -47.93 input  -57.11 | X-H torsion

> <Gold.Protein.ActiveResidues>
 VAL166  LYS551  ARG553  GLY616  TRP617  ASP618  TYR619  PRO620  LYS621  CYS622 
 ASP623  PHE694  ASN695  SER759  ASP760  ASP761  ALA762  ILE779  LEU786  VAL792 
 PHE793  MET794  SER795  GLU796  ALA797  LYS798  CYS799  TRP800  GLU811  SER814 

> <Gold.Protein.RotatedAtoms>
  151.4003  135.0970  159.9553 H   0  0  0  0  0  0  0  0  0  0  0  0  # atno 6907 bound_to 6896
  152.5052  133.8895  159.7397 H   0  0  0  0  0  0  0  0  0  0  0  0  # atno 6908 bound_to 6896
  150.9367  133.6647  159.2827 H   0  0  0  0  0  0  0  0  0  0  0  0  # atno 6909 bound_to 6896
  145.5794  139.2323  143.2361 H   0  0  0  0  0  0  0  0  0  0  0  0  # atno 7974 bound_to 7965
  156.1548  140.1591  156.8711 H   0  0  0  0  0  0  0  0  0  0  0  0  # atno 8008 bound_to 7997
  154.5104  140.0802  156.8015 H   0  0  0  0  0  0  0  0  0  0  0  0  # atno 8009 bound_to 7997
  155.3825  140.3406  155.4250 H   0  0  0  0  0  0  0  0  0  0  0  0  # atno 8010 bound_to 7997
  139.8749  143.6910  152.2635 H   0  0  0  0  0  0  0  0  0  0  0  0  # atno 10167 bound_to 10162
  157.5273  130.8606  149.8639 H   0  0  0  0  0  0  0  0  0  0  0  0  # atno 10718 bound_to 10713
  153.4794  135.3683  155.2434 H   0  0  0  0  0  0  0  0  0  0  0  0  # atno 10763 bound_to 10752
  154.8755  135.3950  154.3718 H   0  0  0  0  0  0  0  0  0  0  0  0  # atno 10764 bound_to 10752
  153.4319  135.7082  153.6290 H   0  0  0  0  0  0  0  0  0  0  0  0  # atno 10765 bound_to 10752
  141.0670  133.6690  156.3369 H   0  0  0  0  0  0  0  0  0  0  0  0  # atno 11005 bound_to 11000
  146.1727  140.6620  142.9225 LP  0  0  0  0  0  0  0  0  0  0  0  0  # atno 17320 bound_to 7965
  144.7401  140.4918  143.6875 LP  0  0  0  0  0  0  0  0  0  0  0  0  # atno 17321 bound_to 7965
  139.7249  144.7595  151.0895 LP  0  0  0  0  0  0  0  0  0  0  0  0  # atno 17342 bound_to 10162
  140.7754  143.5161  150.9593 LP  0  0  0  0  0  0  0  0  0  0  0  0  # atno 17343 bound_to 10162
  156.0396  130.3742  150.1469 LP  0  0  0  0  0  0  0  0  0  0  0  0  # atno 17370 bound_to 10713
  156.9655  130.9818  151.3470 LP  0  0  0  0  0  0  0  0  0  0  0  0  # atno 17371 bound_to 10713
  140.5751  134.5801  157.5467 LP  0  0  0  0  0  0  0  0  0  0  0  0  # atno 17394 bound_to 11000
  139.9486  134.7657  156.0501 LP  0  0  0  0  0  0  0  0  0  0  0  0  # atno 17395 bound_to 11000

$$$$
