AV-unprocessed.smi:246|AV-procd|sdf|1884|dock1
  -GOLD-   2262020533D 1   1.00000     0.00000
 Structure written by MMmdl.
 57 60  0  0  0  0  0  0  0  0  1 V2000
  153.4307  142.5164  161.9972 C   0  0  0  0  0  0  0  0  0  0  0  0
  152.6688  143.6265  161.2600 C   0  0  0  0  0  0  0  0  0  0  0  0
  152.8172  143.5221  159.8511 O   0  0  0  0  0  0  0  0  0  0  0  0
  152.0456  144.4573  159.1116 C   0  0  0  0  0  0  0  0  0  0  0  0
  152.0029  144.0158  157.6460 C   0  0  0  0  0  0  0  0  0  0  0  0
  151.0080  143.0141  157.5011 O   0  0  0  0  0  0  0  0  0  0  0  0
  151.4342  141.8833  156.7557 C   0  0  1  0  0  0  0  0  0  0  0  0
  151.9493  140.7361  157.6294 C   0  0  0  0  0  0  0  0  0  0  0  0
  151.6917  139.4874  156.7819 C   0  0  0  0  0  0  0  0  0  0  0  0
  150.6024  139.8443  155.8792 N   0  0  0  0  0  0  0  0  0  0  0  0
  149.7363  138.9164  155.3922 C   0  0  0  0  0  0  0  0  0  0  0  0
  150.0453  137.6022  155.5540 N   0  0  0  0  0  0  0  0  0  0  0  0
  149.2280  136.6481  155.1003 C   0  0  0  0  0  0  0  0  0  0  0  0
  148.0659  136.7814  154.4609 N   0  0  0  0  0  0  0  0  0  0  0  0
  147.7501  138.0953  154.2835 C   0  0  0  0  0  0  0  0  0  0  0  0
  148.5199  139.2177  154.7076 C   0  0  0  0  0  0  0  0  0  0  0  0
  147.8693  140.3906  154.3360 N   0  0  0  0  0  0  0  0  0  0  0  0
  146.7813  139.9868  153.7405 C   0  0  0  0  0  0  0  0  0  0  0  0
  146.6261  138.6220  153.6737 N   0  0  0  0  0  0  0  0  0  0  0  0
  145.5115  137.9000  153.0883 C   0  0  0  0  0  0  0  0  0  0  0  0
  145.9323  136.9845  151.9187 C   0  0  2  0  0  0  0  0  0  0  0  0
  146.2941  137.8225  150.8393 O   0  0  0  0  0  0  0  0  0  0  0  0
  144.8356  136.0018  151.4498 C   0  0  1  0  0  0  0  0  0  0  0  0
  145.3567  134.7951  150.6645 C   0  0  0  0  0  0  0  0  0  0  0  0
  144.2958  133.7271  150.8834 C   0  0  0  0  0  0  0  0  0  0  0  0
  143.4580  134.2692  152.0429 C   0  0  0  0  0  0  0  0  0  0  0  0
  144.2096  135.3603  152.5513 O   0  0  0  0  0  0  0  0  0  0  0  0
  150.2472  141.2464  156.0328 C   0  0  0  0  0  0  0  0  0  0  0  0
  152.1907  142.1623  156.0196 H   0  0  0  0  0  0  0  0  0  0  0  0
  153.3818  142.6670  163.0757 H   0  0  0  0  0  0  0  0  0  0  0  0
  154.4824  142.5080  161.7107 H   0  0  0  0  0  0  0  0  0  0  0  0
  153.0171  141.5307  161.7877 H   0  0  0  0  0  0  0  0  0  0  0  0
  151.6154  143.6360  161.5429 H   0  0  0  0  0  0  0  0  0  0  0  0
  153.0780  144.5911  161.5611 H   0  0  0  0  0  0  0  0  0  0  0  0
  151.0327  144.5472  159.5039 H   0  0  0  0  0  0  0  0  0  0  0  0
  152.5124  145.4408  159.1806 H   0  0  0  0  0  0  0  0  0  0  0  0
  151.7476  144.8696  157.0167 H   0  0  0  0  0  0  0  0  0  0  0  0
  152.9827  143.6557  157.3300 H   0  0  0  0  0  0  0  0  0  0  0  0
  152.9968  140.8462  157.9109 H   0  0  0  0  0  0  0  0  0  0  0  0
  151.3590  140.6797  158.5452 H   0  0  0  0  0  0  0  0  0  0  0  0
  152.5706  139.2357  156.1876 H   0  0  0  0  0  0  0  0  0  0  0  0
  151.4523  138.6334  157.4170 H   0  0  0  0  0  0  0  0  0  0  0  0
  149.5515  135.6327  155.2754 H   0  0  0  0  0  0  0  0  0  0  0  0
  146.0528  140.6780  153.3428 H   0  0  0  0  0  0  0  0  0  0  0  0
  145.0316  137.3135  153.8732 H   0  0  0  0  0  0  0  0  0  0  0  0
  144.7751  138.6306  152.7511 H   0  0  0  0  0  0  0  0  0  0  0  0
  146.8202  136.4185  152.2033 H   0  0  0  0  0  0  0  0  0  0  0  0
  145.5282  138.3009  150.5609 H   0  0  0  0  0  0  0  0  0  0  0  0
  144.0780  136.5263  150.8639 H   0  0  0  0  0  0  0  0  0  0  0  0
  145.5184  135.0189  149.6096 H   0  0  0  0  0  0  0  0  0  0  0  0
  146.3049  134.4549  151.0836 H   0  0  0  0  0  0  0  0  0  0  0  0
  143.6790  133.5835  149.9956 H   0  0  0  0  0  0  0  0  0  0  0  0
  144.7559  132.7702  151.1322 H   0  0  0  0  0  0  0  0  0  0  0  0
  142.4945  134.6338  151.6842 H   0  0  0  0  0  0  0  0  0  0  0  0
  143.2742  133.5226  152.8159 H   0  0  0  0  0  0  0  0  0  0  0  0
  149.3434  141.3213  156.6393 H   0  0  0  0  0  0  0  0  0  0  0  0
  150.0640  141.7293  155.0726 H   0  0  0  0  0  0  0  0  0  0  0  0
  1  2  1  0  0  0  0
  1 30  1  0  0  0  0
  1 31  1  0  0  0  0
  1 32  1  0  0  0  0
  2  3  1  0  0  0  0
  2 33  1  0  0  0  0
  2 34  1  0  0  0  0
  3  4  1  0  0  0  0
  4  5  1  0  0  0  0
  4 35  1  0  0  0  0
  4 36  1  0  0  0  0
  5  6  1  0  0  0  0
  5 37  1  0  0  0  0
  5 38  1  0  0  0  0
  6  7  1  0  0  0  0
  7 29  1  0  0  0  0
  7 28  1  0  0  0  0
  7  8  1  0  0  0  0
  8  9  1  0  0  0  0
  8 39  1  0  0  0  0
  8 40  1  0  0  0  0
  9 10  1  0  0  0  0
  9 41  1  0  0  0  0
  9 42  1  0  0  0  0
 10 11  1  0  0  0  0
 10 28  1  0  0  0  0
 11 16  1  0  0  0  0
 11 12  2  0  0  0  0
 12 13  1  0  0  0  0
 13 14  2  0  0  0  0
 13 43  1  0  0  0  0
 14 15  1  0  0  0  0
 15 19  1  0  0  0  0
 15 16  2  0  0  0  0
 16 17  1  0  0  0  0
 17 18  2  0  0  0  0
 18 19  1  0  0  0  0
 18 44  1  0  0  0  0
 19 20  1  0  0  0  0
 20 21  1  0  0  0  0
 20 45  1  0  0  0  0
 20 46  1  0  0  0  0
 21 22  1  0  0  0  0
 21 23  1  0  0  0  0
 21 47  1  0  0  0  0
 22 48  1  0  0  0  0
 23 27  1  0  0  0  0
 23 24  1  0  0  0  0
 23 49  1  0  0  0  0
 24 25  1  0  0  0  0
 24 50  1  0  0  0  0
 24 51  1  0  0  0  0
 25 26  1  0  0  0  0
 25 52  1  0  0  0  0
 25 53  1  0  0  0  0
 26 27  1  0  0  0  0
 26 54  1  0  0  0  0
 26 55  1  0  0  0  0
 28 56  1  0  0  0  0
 28 57  1  0  0  0  0
M  END
> <s_m_source_file>
AV-unprocessed.smi

> <i_m_source_file_index>
246

> <i_lp_mmshare_version>
43012

> <i_f3d_flags>
0

> <s_epik_input>
W0NIM11bQ0gyXU9bQ0gyXVtDSDJdT1tDQEhdMVtDSDJdW0NIMl1OKFtDSDJdMSljKG5bY0hdbjIpYyhjMjMpbltjSF1uM1tDSDJdW0NASF0oW09IXSlbQ0BASF00W0NIMl1bQ0gyXVtDSDJdTzQ=

> <s_epik_cmdline>
J2VwaWtfcHl0aG9uJywgJy1waCcsICc3LjAnLCAnLXRuJywgJzgnLCAnLW1hJywgJzIwMCcsICctbWV0YWxfYmluZGluZycsICctaW1hZScsICc8aW5maWxlLm1hZT4nLCAnLW9tYWUnLCAnPG91dGZpbGUubWFlPic=

> <r_lp_tautomer_probability>
1

> <r_epik_Ionization_Penalty>
0.0024631

> <r_epik_Ionization_Penalty_Charging>
0

> <r_epik_Ionization_Penalty_Neutral>
0.0024631

> <r_epik_State_Penalty>
0.00162428

> <r_epik_Charging_Adjusted_Penalty>
0.00162428

> <i_epik_Tot_Q>
0

> <i_epik_Tot_abs_Q>
0

> <r_epik_Metal_State_Penalty>
-0

> <b_epik_Metal_Only>
0

> <s_lp_Force_Field>
OPLS_2005

> <r_lp_Energy>
49.6926

> <b_lp_Chiralities_Consistent>
1

> <s_lp_Variant>
AV-unprocessed.smi:246-5

> <Gold.Version>
5.8.1

> <Gold.Id.Protein>
6NUR|6NUR_protein|mol2

> <Gold.PLP.Fitness>
54.5359

> <Gold.PLP.PLP>
-47.4740

> <Gold.PLP.part.hbond>
-3.0000

> <Gold.PLP.part.metal>
0.0000

> <Gold.PLP.part.buried>
-7.0992

> <Gold.PLP.part.nonpolar>
-39.4042

> <Gold.PLP.part.repulsive>
0.9663

> <Gold.PLP.ligand.clash>
0.0000

> <Gold.PLP.ligand.torsion>
1.3413

> <Gold.PLP.Chemscore.Hbond>
2.0000

> <Gold.PLP.Chemscore.CHOScore>
0.9068

> <Gold.PLP.Chemscore.Metal>
0.0000

> <Gold.Chemscore.Hbonds>
donor molecule, donor type, donor heavy atom, donor atom, acceptor molecule, acceptor atom, score
      L1  H    22    48       P1 10171  1.00
      P1  H  7954  7966       L1    22  0.84
      L1  C    18    44       P1 10175  1.00

> <Gold.PLP.Chemscore.Internal.Correction>
1.0241

> <Gold.Rescore>
     Score         DG    S(hbond)    S(metal)    S(lipo)     H(rot)  DE(clash)    DE(int)     intcor
     14.11     -16.79       1.89        0.00     110.64       3.10       0.35       2.33       ----

> <Gold.Chemscore.Fitness>
14.1055

> <Gold.Chemscore.DG>
-16.7881

> <Gold.Chemscore.ZeroCoef>
-5.4800

> <Gold.Chemscore.Hbond>
1.8880

> <Gold.Chemscore.Metal>
0.0000

> <Gold.Chemscore.Lipo>
110.6392

> <Gold.Chemscore.Internal_Hbond>
0.0000

> <Gold.Chemscore.DEClash>
0.3516

> <Gold.Chemscore.DEInternal>
2.3310

> <Gold.Chemscore.Rot>
3.1026

> <Gold.Chemscore.Internal.Correction>
   9.000000E+99

> <Gold.Chemscore.Hbonds>
donor molecule, donor type, donor heavy atom, donor atom, acceptor molecule, acceptor atom, score
      L1  H    22    48       P1 10171  0.99
      P1  H  7954  7966       L1    22  0.79

> <Gold.Chemscore.Hbond.Weighted>
-6.3060

> <Gold.Chemscore.Metal.Weighted>
-0.0000

> <Gold.Chemscore.Lipo.Weighted>
-12.9448

> <Gold.Chemscore.Internal_Hbond.Weighted>
0.0000

> <Gold.Chemscore.DEClash.Weighted>
0.3516

> <Gold.Chemscore.DEInternal.Weighted>
2.3310

> <Gold.Chemscore.Rot.Weighted>
7.9426

> <Gold.Chemscore.Internal.Correction.Weighted>
   9.000000E+99

> <Gold.Protein.RotatedTorsions>
[ 6907 6896 6895 6894 ] final  114.59 input  -60.11 | X-H torsion
[ 7974 7965 7964 7962 ] final -169.76 input  175.53 | X-H torsion
[ 8008 7997 7996 7995 ] final -154.23 input   59.86 | X-H torsion
[ 10167 10162 10161 10158 ] final   18.80 input  -65.29 | X-H torsion
[ 10718 10713 10712 10709 ] final -165.17 input   66.30 | X-H torsion
[ 10763 10752 10751 10750 ] final -170.57 input  -60.55 | X-H torsion
[ 11005 11000 10999 10996 ] final    0.01 input  -57.11 | X-H torsion

> <Gold.Protein.ActiveResidues>
 VAL166  LYS551  ARG553  GLY616  TRP617  ASP618  TYR619  PRO620  LYS621  CYS622 
 ASP623  PHE694  ASN695  SER759  ASP760  ASP761  ALA762  ILE779  LEU786  VAL792 
 PHE793  MET794  SER795  GLU796  ALA797  LYS798  CYS799  TRP800  GLU811  SER814 

> <Gold.Protein.RotatedAtoms>
  152.4793  133.8215  159.7055 H   0  0  0  0  0  0  0  0  0  0  0  0  # atno 6907 bound_to 6896
  150.8831  133.7335  159.2932 H   0  0  0  0  0  0  0  0  0  0  0  0  # atno 6908 bound_to 6896
  151.4832  135.1057  159.9835 H   0  0  0  0  0  0  0  0  0  0  0  0  # atno 6909 bound_to 6896
  144.7180  140.2174  143.6320 H   0  0  0  0  0  0  0  0  0  0  0  0  # atno 7974 bound_to 7965
  155.6832  140.0746  157.2477 H   0  0  0  0  0  0  0  0  0  0  0  0  # atno 8008 bound_to 7997
  154.4102  140.1678  156.2057 H   0  0  0  0  0  0  0  0  0  0  0  0  # atno 8009 bound_to 7997
  155.9517  140.3377  155.6416 H   0  0  0  0  0  0  0  0  0  0  0  0  # atno 8010 bound_to 7997
  140.5627  143.9308  150.6654 H   0  0  0  0  0  0  0  0  0  0  0  0  # atno 10167 bound_to 10162
  156.6496  130.9002  151.3011 H   0  0  0  0  0  0  0  0  0  0  0  0  # atno 10718 bound_to 10713
  154.6401  135.2897  155.0114 H   0  0  0  0  0  0  0  0  0  0  0  0  # atno 10763 bound_to 10752
  154.1243  135.6543  153.4913 H   0  0  0  0  0  0  0  0  0  0  0  0  # atno 10764 bound_to 10752
  153.0322  135.5295  154.7264 H   0  0  0  0  0  0  0  0  0  0  0  0  # atno 10765 bound_to 10752
  140.6313  133.9572  155.8276 H   0  0  0  0  0  0  0  0  0  0  0  0  # atno 11005 bound_to 11000
  145.8534  139.2186  143.1759 LP  0  0  0  0  0  0  0  0  0  0  0  0  # atno 17320 bound_to 7965
  146.0240  140.8321  142.9909 LP  0  0  0  0  0  0  0  0  0  0  0  0  # atno 17321 bound_to 7965
  140.2763  143.3421  152.1192 LP  0  0  0  0  0  0  0  0  0  0  0  0  # atno 17342 bound_to 10162
  139.5078  144.6838  151.5941 LP  0  0  0  0  0  0  0  0  0  0  0  0  # atno 17343 bound_to 10162
  157.7145  130.9480  150.1206 LP  0  0  0  0  0  0  0  0  0  0  0  0  # atno 17370 bound_to 10713
  156.2095  130.3665  149.8688 LP  0  0  0  0  0  0  0  0  0  0  0  0  # atno 17371 bound_to 10713
  141.0673  134.0258  157.3576 LP  0  0  0  0  0  0  0  0  0  0  0  0  # atno 17394 bound_to 11000
  139.9115  135.0191  156.7710 LP  0  0  0  0  0  0  0  0  0  0  0  0  # atno 17395 bound_to 11000

$$$$
