AV-unprocessed.smi:1762|AV-procd|sdf|7125|dock3
  -GOLD-   22720 8363D 1   1.00000     0.00000
 Structure written by MMmdl.
 52 53  0  0  0  0  0  0  0  0  3 V2000
  149.1471  141.2060  154.6932 C   0  0  0  0  0  0  0  0  0  0  0  0
  149.5141  139.8033  154.1959 C   0  0  2  0  0  0  0  0  0  0  0  0
  148.5739  138.7236  154.7587 C   0  0  0  0  0  0  0  0  0  0  0  0
  148.9819  137.3605  154.3089 N   0  3  2  0  0  0  0  0  0  0  0  0
  148.0457  136.2810  154.7745 C   0  0  1  0  0  0  0  0  0  0  0  0
  148.2234  136.0145  156.2894 C   0  0  0  0  0  0  0  0  0  0  0  0
  148.8281  134.9960  156.6426 O   0  0  0  0  0  0  0  0  0  0  0  0
  147.6175  136.9784  157.0369 N   0  5  0  0  0  0  0  0  0  0  0  0
  147.0413  136.7444  158.3598 C   0  0  0  0  0  0  0  0  0  0  0  0
  148.1599  136.4456  159.3853 C   0  0  0  0  0  0  0  0  0  0  0  0
  147.6589  135.9002  160.7185 C   0  0  0  0  0  0  0  0  0  0  0  0
  147.1448  134.5867  160.8099 C   0  0  0  0  0  0  0  0  0  0  0  0
  146.7030  134.1204  162.0630 C   0  0  0  0  0  0  0  0  0  0  0  0
  146.7941  134.9767  163.1767 C   0  0  0  0  0  0  0  0  0  0  0  0
  147.3285  136.2665  162.9876 C   0  0  0  0  0  0  0  0  0  0  0  0
  147.7565  136.7234  161.7912 N   0  0  0  0  0  0  0  0  0  0  0  0
  146.5399  136.5236  154.4143 C   0  0  0  0  0  0  0  0  0  0  0  0
  145.6110  135.3248  154.6998 C   0  0  0  0  0  0  0  0  0  0  0  0
  146.3387  137.0148  152.9673 C   0  0  0  0  0  0  0  0  0  0  0  0
  150.4122  137.1411  154.6618 C   0  0  0  0  0  0  0  0  0  0  0  0
  151.3040  138.2731  154.1161 C   0  0  2  0  0  0  0  0  0  0  0  0
  152.7680  138.1097  154.5387 C   0  0  0  0  0  0  0  0  0  0  0  0
  150.8415  139.5205  154.6148 O   0  0  0  0  0  0  0  0  0  0  0  0
  148.1373  141.4793  154.3861 H   0  0  0  0  0  0  0  0  0  0  0  0
  149.8305  141.9535  154.2894 H   0  0  0  0  0  0  0  0  0  0  0  0
  149.1936  141.2652  155.7809 H   0  0  0  0  0  0  0  0  0  0  0  0
  149.4688  139.8005  153.1053 H   0  0  0  0  0  0  0  0  0  0  0  0
  148.5717  138.7583  155.8496 H   0  0  0  0  0  0  0  0  0  0  0  0
  147.5607  138.9618  154.4361 H   0  0  0  0  0  0  0  0  0  0  0  0
  148.3436  135.3876  154.2196 H   0  0  0  0  0  0  0  0  0  0  0  0
  146.4478  137.5920  158.7051 H   0  0  0  0  0  0  0  0  0  0  0  0
  146.3531  135.8992  158.3347 H   0  0  0  0  0  0  0  0  0  0  0  0
  148.8648  135.7283  158.9619 H   0  0  0  0  0  0  0  0  0  0  0  0
  148.7363  137.3516  159.5798 H   0  0  0  0  0  0  0  0  0  0  0  0
  147.0868  133.9522  159.9376 H   0  0  0  0  0  0  0  0  0  0  0  0
  146.3011  133.1234  162.1675 H   0  0  0  0  0  0  0  0  0  0  0  0
  146.4635  134.6531  164.1522 H   0  0  0  0  0  0  0  0  0  0  0  0
  147.4163  136.9491  163.8199 H   0  0  0  0  0  0  0  0  0  0  0  0
  146.1874  137.3547  155.0236 H   0  0  0  0  0  0  0  0  0  0  0  0
  145.7973  134.4967  154.0159 H   0  0  0  0  0  0  0  0  0  0  0  0
  144.5659  135.6102  154.5777 H   0  0  0  0  0  0  0  0  0  0  0  0
  145.7268  134.9471  155.7150 H   0  0  0  0  0  0  0  0  0  0  0  0
  146.5762  136.2419  152.2356 H   0  0  0  0  0  0  0  0  0  0  0  0
  146.9680  137.8794  152.7543 H   0  0  0  0  0  0  0  0  0  0  0  0
  145.3041  137.3143  152.7974 H   0  0  0  0  0  0  0  0  0  0  0  0
  150.5099  137.0687  155.7462 H   0  0  0  0  0  0  0  0  0  0  0  0
  150.7830  136.2086  154.2410 H   0  0  0  0  0  0  0  0  0  0  0  0
  151.2586  138.2825  153.0254 H   0  0  0  0  0  0  0  0  0  0  0  0
  153.1834  137.1733  154.1657 H   0  0  0  0  0  0  0  0  0  0  0  0
  152.8682  138.1115  155.6245 H   0  0  0  0  0  0  0  0  0  0  0  0
  153.3790  138.9232  154.1472 H   0  0  0  0  0  0  0  0  0  0  0  0
  148.9268  137.3588  153.3005 H   0  0  0  0  0  0  0  0  0  0  0  0
  1  2  1  0  0  0  0
  1 24  1  0  0  0  0
  1 25  1  0  0  0  0
  1 26  1  0  0  0  0
  2 23  1  0  0  0  0
  2  3  1  0  0  0  0
  2 27  1  0  0  0  0
  3  4  1  0  0  0  0
  3 28  1  0  0  0  0
  3 29  1  0  0  0  0
  4  5  1  0  0  0  0
  4 20  1  0  0  0  0
  4 52  1  0  0  0  0
  5  6  1  0  0  0  0
  5 17  1  0  0  0  0
  5 30  1  0  0  0  0
  6  7  2  0  0  0  0
  6  8  1  0  0  0  0
  8  9  1  0  0  0  0
  9 10  1  0  0  0  0
  9 31  1  0  0  0  0
  9 32  1  0  0  0  0
 10 11  1  0  0  0  0
 10 33  1  0  0  0  0
 10 34  1  0  0  0  0
 11 16  1  0  0  0  0
 11 12  2  0  0  0  0
 12 13  1  0  0  0  0
 12 35  1  0  0  0  0
 13 14  2  0  0  0  0
 13 36  1  0  0  0  0
 14 15  1  0  0  0  0
 14 37  1  0  0  0  0
 15 16  2  0  0  0  0
 15 38  1  0  0  0  0
 17 18  1  0  0  0  0
 17 19  1  0  0  0  0
 17 39  1  0  0  0  0
 18 40  1  0  0  0  0
 18 41  1  0  0  0  0
 18 42  1  0  0  0  0
 19 43  1  0  0  0  0
 19 44  1  0  0  0  0
 19 45  1  0  0  0  0
 20 21  1  0  0  0  0
 20 46  1  0  0  0  0
 20 47  1  0  0  0  0
 21 22  1  0  0  0  0
 21 23  1  0  0  0  0
 21 48  1  0  0  0  0
 22 49  1  0  0  0  0
 22 50  1  0  0  0  0
 22 51  1  0  0  0  0
M  CHG  1   4   1
M  CHG  1   8  -1
M  END
> <s_m_source_file>
AV-unprocessed.smi

> <i_m_source_file_index>
1762

> <i_lp_mmshare_version>
43012

> <i_f3d_flags>
0

> <s_epik_input>
W0NIM11bQ0BASF0xW0NIMl1OKFtDSDJdW0NASF0oTzEpW0NIM10pW0NAQEhdKFtDSF0oW0NIM10pW0NIM10pQyg9TylbTkhdW0NIMl1bQ0gyXWMyW2NIXVtjSF1bY0hdW2NIXW4y

> <s_epik_cmdline>
J2VwaWtfcHl0aG9uJywgJy1waCcsICc3LjAnLCAnLXRuJywgJzgnLCAnLW1hJywgJzIwMCcsICctbWV0YWxfYmluZGluZycsICctaW1hZScsICc8aW5maWxlLm1hZT4nLCAnLW9tYWUnLCAnPG91dGZpbGUubWFlPic=

> <r_epik_Ionization_Penalty>
7.82966

> <r_epik_Ionization_Penalty_Charging>
7.7461

> <r_epik_Ionization_Penalty_Neutral>
0.0835571

> <r_epik_State_Penalty>
8.52273

> <r_epik_Charging_Adjusted_Penalty>
16.2688

> <i_epik_Tot_Q>
0

> <i_epik_Tot_abs_Q>
2

> <r_epik_Metal_State_Penalty>
4.47451

> <b_epik_Metal_Only>
1

> <s_lp_Force_Field>
OPLS_2005

> <r_lp_Energy>
21.2393

> <b_lp_Chiralities_Consistent>
1

> <s_lp_Variant>
AV-unprocessed.smi:1762-27

> <Gold.Version>
5.8.1

> <Gold.Id.Protein>
6NUR|6NUR_protein|mol2

> <Gold.PLP.Fitness>
46.0304

> <Gold.PLP.PLP>
-34.1539

> <Gold.PLP.part.hbond>
-3.8475

> <Gold.PLP.part.metal>
0.0000

> <Gold.PLP.part.buried>
1.1848

> <Gold.PLP.part.nonpolar>
-30.9565

> <Gold.PLP.part.repulsive>
0.1044

> <Gold.PLP.ligand.clash>
0.0000

> <Gold.PLP.ligand.torsion>
0.8081

> <Gold.PLP.Chemscore.Hbond>
4.3584

> <Gold.PLP.Chemscore.CHOScore>
0.0000

> <Gold.PLP.Chemscore.Metal>
0.0000

> <Gold.Chemscore.Hbonds>
donor molecule, donor type, donor heavy atom, donor atom, acceptor molecule, acceptor atom, score
      L1  H     4    52       P1  7948  1.70
      P1  H  6931  6943       L1    16  1.00
      P1  H  7989  7998       L1    23  0.70

> <Gold.PLP.Chemscore.Internal.Correction>
0.4177

> <Gold.Rescore>
     Score         DG    S(hbond)    S(metal)    S(lipo)     H(rot)  DE(clash)    DE(int)     intcor
     17.37     -20.91       2.24        0.00     103.09       1.60       1.83       1.70       ----

> <Gold.Chemscore.Fitness>
17.3725

> <Gold.Chemscore.DG>
-20.9092

> <Gold.Chemscore.ZeroCoef>
-5.4800

> <Gold.Chemscore.Hbond>
2.2355

> <Gold.Chemscore.Metal>
0.0000

> <Gold.Chemscore.Lipo>
103.0910

> <Gold.Chemscore.Internal_Hbond>
0.0000

> <Gold.Chemscore.DEClash>
1.8330

> <Gold.Chemscore.DEInternal>
1.7037

> <Gold.Chemscore.Rot>
1.6012

> <Gold.Chemscore.Internal.Correction>
   9.000000E+99

> <Gold.Chemscore.Hbonds>
donor molecule, donor type, donor heavy atom, donor atom, acceptor molecule, acceptor atom, score
      L1  H     4    52       P1  7948  0.83
      P1  H  6931  6943       L1    16  0.85
      P1  H  7989  7998       L1    23  0.04

> <Gold.Chemscore.Hbond.Weighted>
-7.4665

> <Gold.Chemscore.Metal.Weighted>
-0.0000

> <Gold.Chemscore.Lipo.Weighted>
-12.0617

> <Gold.Chemscore.Internal_Hbond.Weighted>
0.0000

> <Gold.Chemscore.DEClash.Weighted>
1.8330

> <Gold.Chemscore.DEInternal.Weighted>
1.7037

> <Gold.Chemscore.Rot.Weighted>
4.0990

> <Gold.Chemscore.Internal.Correction.Weighted>
   9.000000E+99

> <Gold.Protein.RotatedTorsions>
[ 6907 6896 6895 6894 ] final  159.07 input  -60.11 | X-H torsion
[ 7974 7965 7964 7962 ] final   33.33 input  175.53 | X-H torsion
[ 8008 7997 7996 7995 ] final  -62.70 input   59.86 | X-H torsion
[ 10167 10162 10161 10158 ] final  -14.93 input  -65.29 | X-H torsion
[ 10718 10713 10712 10709 ] final  -24.17 input   66.30 | X-H torsion
[ 10763 10752 10751 10750 ] final  -33.70 input  -60.55 | X-H torsion
[ 11005 11000 10999 10996 ] final  157.96 input  -57.11 | X-H torsion

> <Gold.Protein.ActiveResidues>
 VAL166  LYS551  ARG553  GLY616  TRP617  ASP618  TYR619  PRO620  LYS621  CYS622 
 ASP623  PHE694  ASN695  SER759  ASP760  ASP761  ALA762  ILE779  LEU786  VAL792 
 PHE793  MET794  SER795  GLU796  ALA797  LYS798  CYS799  TRP800  GLU811  SER814 

> <Gold.Protein.RotatedAtoms>
  151.9910  133.3791  159.4144 H   0  0  0  0  0  0  0  0  0  0  0  0  # atno 6907 bound_to 6896
  150.6922  134.3937  159.5097 H   0  0  0  0  0  0  0  0  0  0  0  0  # atno 6908 bound_to 6896
  152.1670  134.8865  160.0588 H   0  0  0  0  0  0  0  0  0  0  0  0  # atno 6909 bound_to 6896
  146.1427  139.6410  142.9152 H   0  0  0  0  0  0  0  0  0  0  0  0  # atno 7974 bound_to 7965
  154.4514  140.0990  156.6628 H   0  0  0  0  0  0  0  0  0  0  0  0  # atno 8008 bound_to 7997
  155.5274  140.3480  155.4401 H   0  0  0  0  0  0  0  0  0  0  0  0  # atno 8009 bound_to 7997
  156.0688  140.1344  156.9843 H   0  0  0  0  0  0  0  0  0  0  0  0  # atno 8010 bound_to 7997
  140.7210  143.5270  150.9564 H   0  0  0  0  0  0  0  0  0  0  0  0  # atno 10167 bound_to 10162
  156.4812  130.4545  149.6810 H   0  0  0  0  0  0  0  0  0  0  0  0  # atno 10718 bound_to 10713
  153.8346  135.6863  153.4810 H   0  0  0  0  0  0  0  0  0  0  0  0  # atno 10763 bound_to 10752
  153.1490  135.4626  154.9607 H   0  0  0  0  0  0  0  0  0  0  0  0  # atno 10764 bound_to 10752
  154.7872  135.3289  154.7806 H   0  0  0  0  0  0  0  0  0  0  0  0  # atno 10765 bound_to 10752
  140.1819  134.8469  157.2813 H   0  0  0  0  0  0  0  0  0  0  0  0  # atno 11005 bound_to 11000
  145.5009  141.0437  143.2541 LP  0  0  0  0  0  0  0  0  0  0  0  0  # atno 17320 bound_to 7965
  144.7811  139.6524  143.7154 LP  0  0  0  0  0  0  0  0  0  0  0  0  # atno 17321 bound_to 7965
  139.8990  143.6860  152.3134 LP  0  0  0  0  0  0  0  0  0  0  0  0  # atno 17342 bound_to 10162
  139.7202  144.7604  151.0967 LP  0  0  0  0  0  0  0  0  0  0  0  0  # atno 17343 bound_to 10162
  156.3520  130.7437  151.2397 LP  0  0  0  0  0  0  0  0  0  0  0  0  # atno 17370 bound_to 10713
  157.7483  131.0374  150.4456 LP  0  0  0  0  0  0  0  0  0  0  0  0  # atno 17371 bound_to 10713
  140.2258  134.3969  155.7544 LP  0  0  0  0  0  0  0  0  0  0  0  0  # atno 17394 bound_to 11000
  141.2223  133.7189  156.8562 LP  0  0  0  0  0  0  0  0  0  0  0  0  # atno 17395 bound_to 11000

$$$$
