AV-unprocessed.smi:3327|AV-procd|sdf|12787|dock2
  -GOLD-   2272019133D 1   1.00000     0.00000
 Structure written by MMmdl.
 41 42  0  0  0  0  0  0  0  0  2 V2000
  150.9322  142.9687  158.1474 C   0  0  0  0  0  0  0  0  0  0  0  0
  150.7209  141.6230  157.4400 C   0  0  2  0  0  0  0  0  0  0  0  0
  151.8622  140.6314  157.7556 C   0  0  0  0  0  0  0  0  0  0  0  0
  151.7290  139.3226  156.9539 C   0  0  0  0  0  0  0  0  0  0  0  0
  151.5341  139.6153  155.4561 C   0  0  0  0  0  0  0  0  0  0  0  0
  150.3594  140.4830  155.2978 N   0  0  0  0  0  0  0  0  0  0  0  0
  149.1700  140.1084  154.7671 C   0  0  0  0  0  0  0  0  0  0  0  0
  148.2047  140.8727  154.7099 O   0  0  0  0  0  0  0  0  0  0  0  0
  149.0148  138.6812  154.2192 C   0  0  0  0  0  0  0  0  0  0  0  0
  148.3732  138.6546  152.8887 N   0  3  0  0  0  0  0  0  0  0  0  0
  146.9530  139.0583  152.8929 C   0  0  0  0  0  0  0  0  0  0  0  0
  146.0695  138.0010  153.5773 C   0  0  0  0  0  0  0  0  0  0  0  0
  145.8943  136.8033  152.7729 N   0  0  0  0  0  0  0  0  0  0  0  0
  145.5730  136.7109  151.4346 C   0  0  0  0  0  0  0  0  0  0  0  0
  145.5394  135.3838  151.1149 C   0  0  0  0  0  0  0  0  0  0  0  0
  145.8705  134.7328  152.3358 C   0  0  0  0  0  0  0  0  0  0  0  0
  146.0870  135.5853  153.3246 N   0  0  0  0  0  0  0  0  0  0  0  0
  150.5743  141.7993  155.9134 C   0  0  0  0  0  0  0  0  0  0  0  0
  151.8495  143.4534  157.8121 H   0  0  0  0  0  0  0  0  0  0  0  0
  151.0002  142.8374  159.2277 H   0  0  0  0  0  0  0  0  0  0  0  0
  150.1043  143.6504  157.9498 H   0  0  0  0  0  0  0  0  0  0  0  0
  149.7907  141.1960  157.8184 H   0  0  0  0  0  0  0  0  0  0  0  0
  152.8198  141.0956  157.5149 H   0  0  0  0  0  0  0  0  0  0  0  0
  151.8880  140.4118  158.8235 H   0  0  0  0  0  0  0  0  0  0  0  0
  152.6130  138.7024  157.1043 H   0  0  0  0  0  0  0  0  0  0  0  0
  150.8800  138.7487  157.3275 H   0  0  0  0  0  0  0  0  0  0  0  0
  152.4129  140.1271  155.0607 H   0  0  0  0  0  0  0  0  0  0  0  0
  151.4710  138.6813  154.9001 H   0  0  0  0  0  0  0  0  0  0  0  0
  149.9983  138.2150  154.1479 H   0  0  0  0  0  0  0  0  0  0  0  0
  148.4087  138.0923  154.9091 H   0  0  0  0  0  0  0  0  0  0  0  0
  148.8823  139.2808  152.2809 H   0  0  0  0  0  0  0  0  0  0  0  0
  146.8573  140.0093  153.4181 H   0  0  0  0  0  0  0  0  0  0  0  0
  146.6183  139.2291  151.8688 H   0  0  0  0  0  0  0  0  0  0  0  0
  146.4985  137.7172  154.5394 H   0  0  0  0  0  0  0  0  0  0  0  0
  145.0829  138.4173  153.7850 H   0  0  0  0  0  0  0  0  0  0  0  0
  145.3953  137.5863  150.8270 H   0  0  0  0  0  0  0  0  0  0  0  0
  145.3179  134.9445  150.1533 H   0  0  0  0  0  0  0  0  0  0  0  0
  145.9620  133.6744  152.5309 H   0  0  0  0  0  0  0  0  0  0  0  0
  149.7682  142.5010  155.6945 H   0  0  0  0  0  0  0  0  0  0  0  0
  151.4764  142.2494  155.4956 H   0  0  0  0  0  0  0  0  0  0  0  0
  148.4458  137.7182  152.5171 H   0  0  0  0  0  0  0  0  0  0  0  0
  1  2  1  0  0  0  0
  1 19  1  0  0  0  0
  1 20  1  0  0  0  0
  1 21  1  0  0  0  0
  2 18  1  0  0  0  0
  2  3  1  0  0  0  0
  2 22  1  0  0  0  0
  3  4  1  0  0  0  0
  3 23  1  0  0  0  0
  3 24  1  0  0  0  0
  4  5  1  0  0  0  0
  4 25  1  0  0  0  0
  4 26  1  0  0  0  0
  5  6  1  0  0  0  0
  5 27  1  0  0  0  0
  5 28  1  0  0  0  0
  6  7  1  0  0  0  0
  6 18  1  0  0  0  0
  7  8  2  0  0  0  0
  7  9  1  0  0  0  0
  9 10  1  0  0  0  0
  9 29  1  0  0  0  0
  9 30  1  0  0  0  0
 10 11  1  0  0  0  0
 10 31  1  0  0  0  0
 10 41  1  0  0  0  0
 11 12  1  0  0  0  0
 11 32  1  0  0  0  0
 11 33  1  0  0  0  0
 12 13  1  0  0  0  0
 12 34  1  0  0  0  0
 12 35  1  0  0  0  0
 13 17  1  0  0  0  0
 13 14  1  0  0  0  0
 14 15  2  0  0  0  0
 14 36  1  0  0  0  0
 15 16  1  0  0  0  0
 15 37  1  0  0  0  0
 16 17  2  0  0  0  0
 16 38  1  0  0  0  0
 18 39  1  0  0  0  0
 18 40  1  0  0  0  0
M  CHG  1  10   1
M  END
> <s_m_source_file>
AV-unprocessed.smi

> <i_m_source_file_index>
3327

> <i_lp_mmshare_version>
43012

> <i_f3d_flags>
0

> <s_epik_input>
W0NIM11bQ0BASF0xW0NIMl1bQ0gyXVtDSDJdTihbQ0gyXTEpQyg9TylbQ0gyXVtOSF1bQ0gyXVtDSDJdbjJbY0hdW2NIXVtjSF1uMg==

> <s_epik_cmdline>
J2VwaWtfcHl0aG9uJywgJy1waCcsICc3LjAnLCAnLXRuJywgJzgnLCAnLW1hJywgJzIwMCcsICctbWV0YWxfYmluZGluZycsICctaW1hZScsICc8aW5maWxlLm1hZT4nLCAnLW9tYWUnLCAnPG91dGZpbGUubWFlPic=

> <r_lp_tautomer_probability>
1

> <r_epik_Ionization_Penalty>
0.195801

> <r_epik_Ionization_Penalty_Charging>
0.195799

> <r_epik_Ionization_Penalty_Neutral>
2.33113e-06

> <r_epik_State_Penalty>
0.185548

> <r_epik_Charging_Adjusted_Penalty>
0.381347

> <i_epik_Tot_Q>
1

> <i_epik_Tot_abs_Q>
1

> <r_epik_Metal_State_Penalty>
0.186014

> <b_epik_Metal_Only>
0

> <s_lp_Force_Field>
OPLS_2005

> <r_lp_Energy>
21.5547

> <b_lp_Chiralities_Consistent>
1

> <s_lp_Variant>
AV-unprocessed.smi:3327-1

> <Gold.Version>
5.8.1

> <Gold.Id.Protein>
6NUR|6NUR_protein|mol2

> <Gold.PLP.Fitness>
43.3375

> <Gold.PLP.PLP>
-32.0232

> <Gold.PLP.part.hbond>
-1.9682

> <Gold.PLP.part.metal>
0.0000

> <Gold.PLP.part.buried>
-2.3925

> <Gold.PLP.part.nonpolar>
-28.4095

> <Gold.PLP.part.repulsive>
0.2759

> <Gold.PLP.ligand.clash>
0.0000

> <Gold.PLP.ligand.torsion>
0.3727

> <Gold.PLP.Chemscore.Hbond>
2.9913

> <Gold.PLP.Chemscore.CHOScore>
1.0000

> <Gold.PLP.Chemscore.Metal>
0.0000

> <Gold.Chemscore.Hbonds>
donor molecule, donor type, donor heavy atom, donor atom, acceptor molecule, acceptor atom, score
      L1  H    10    31       P1  7957  0.99
      L1  H    10    41       P1  7948  2.00
      L1  C    14    36       P1 10171  1.00

> <Gold.PLP.Chemscore.Internal.Correction>
0.0859

> <Gold.Rescore>
     Score         DG    S(hbond)    S(metal)    S(lipo)     H(rot)  DE(clash)    DE(int)     intcor
     14.16     -15.91       1.97        0.00      72.15       1.80       0.02       1.73       ----

> <Gold.Chemscore.Fitness>
14.1613

> <Gold.Chemscore.DG>
-15.9115

> <Gold.Chemscore.ZeroCoef>
-5.4800

> <Gold.Chemscore.Hbond>
1.9726

> <Gold.Chemscore.Metal>
0.0000

> <Gold.Chemscore.Lipo>
72.1487

> <Gold.Chemscore.Internal_Hbond>
0.0000

> <Gold.Chemscore.DEClash>
0.0217

> <Gold.Chemscore.DEInternal>
1.7286

> <Gold.Chemscore.Rot>
1.7963

> <Gold.Chemscore.Internal.Correction>
   9.000000E+99

> <Gold.Chemscore.Hbonds>
donor molecule, donor type, donor heavy atom, donor atom, acceptor molecule, acceptor atom, score
      L1  H    10    31       P1  7957  0.92
      L1  H    10    41       P1  7948  1.00

> <Gold.Chemscore.Hbond.Weighted>
-6.5886

> <Gold.Chemscore.Metal.Weighted>
-0.0000

> <Gold.Chemscore.Lipo.Weighted>
-8.4414

> <Gold.Chemscore.Internal_Hbond.Weighted>
0.0000

> <Gold.Chemscore.DEClash.Weighted>
0.0217

> <Gold.Chemscore.DEInternal.Weighted>
1.7286

> <Gold.Chemscore.Rot.Weighted>
4.5985

> <Gold.Chemscore.Internal.Correction.Weighted>
   9.000000E+99

> <Gold.Protein.RotatedTorsions>
[ 6907 6896 6895 6894 ] final -111.77 input  -60.11 | X-H torsion
[ 7974 7965 7964 7962 ] final   82.24 input  175.53 | X-H torsion
[ 8008 7997 7996 7995 ] final  -62.21 input   59.86 | X-H torsion
[ 10167 10162 10161 10158 ] final   -1.72 input  -65.29 | X-H torsion
[ 10718 10713 10712 10709 ] final -127.98 input   66.30 | X-H torsion
[ 10763 10752 10751 10750 ] final  103.56 input  -60.55 | X-H torsion
[ 11005 11000 10999 10996 ] final  -12.56 input  -57.11 | X-H torsion

> <Gold.Protein.ActiveResidues>
 VAL166  LYS551  ARG553  GLY616  TRP617  ASP618  TYR619  PRO620  LYS621  CYS622 
 ASP623  PHE694  ASN695  SER759  ASP760  ASP761  ALA762  ILE779  LEU786  VAL792 
 PHE793  MET794  SER795  GLU796  ALA797  LYS798  CYS799  TRP800  GLU811  SER814 

> <Gold.Protein.RotatedAtoms>
  150.7712  133.9187  159.3391 H   0  0  0  0  0  0  0  0  0  0  0  0  # atno 6907 bound_to 6896
  151.7073  135.0917  160.0271 H   0  0  0  0  0  0  0  0  0  0  0  0  # atno 6908 bound_to 6896
  152.3731  133.6407  159.6138 H   0  0  0  0  0  0  0  0  0  0  0  0  # atno 6909 bound_to 6896
  145.6276  139.2398  143.2103 H   0  0  0  0  0  0  0  0  0  0  0  0  # atno 7974 bound_to 7965
  154.4487  140.1001  156.6551 H   0  0  0  0  0  0  0  0  0  0  0  0  # atno 8008 bound_to 7997
  155.5355  140.3482  155.4417 H   0  0  0  0  0  0  0  0  0  0  0  0  # atno 8009 bound_to 7997
  156.0634  140.1332  156.9903 H   0  0  0  0  0  0  0  0  0  0  0  0  # atno 8010 bound_to 7997
  140.6821  143.6742  150.8159 H   0  0  0  0  0  0  0  0  0  0  0  0  # atno 10167 bound_to 10162
  156.1908  130.6794  151.0421 H   0  0  0  0  0  0  0  0  0  0  0  0  # atno 10718 bound_to 10713
  153.3542  135.3973  155.1669 H   0  0  0  0  0  0  0  0  0  0  0  0  # atno 10763 bound_to 10752
  154.8668  135.3664  154.5182 H   0  0  0  0  0  0  0  0  0  0  0  0  # atno 10764 bound_to 10752
  153.5636  135.7080  153.5596 H   0  0  0  0  0  0  0  0  0  0  0  0  # atno 10765 bound_to 10752
  140.7670  133.8469  155.9174 H   0  0  0  0  0  0  0  0  0  0  0  0  # atno 11005 bound_to 11000
  146.1382  140.7094  142.9379 LP  0  0  0  0  0  0  0  0  0  0  0  0  # atno 17320 bound_to 7965
  144.7206  140.4361  143.7011 LP  0  0  0  0  0  0  0  0  0  0  0  0  # atno 17321 bound_to 7965
  140.0444  143.5313  152.2703 LP  0  0  0  0  0  0  0  0  0  0  0  0  # atno 17342 bound_to 10162
  139.6152  144.7618  151.2862 LP  0  0  0  0  0  0  0  0  0  0  0  0  # atno 17343 bound_to 10162
  157.6927  131.0804  150.7059 LP  0  0  0  0  0  0  0  0  0  0  0  0  # atno 17370 bound_to 10713
  156.7115  130.4653  149.5546 LP  0  0  0  0  0  0  0  0  0  0  0  0  # atno 17371 bound_to 10713
  140.9610  134.1656  157.4654 LP  0  0  0  0  0  0  0  0  0  0  0  0  # atno 17394 bound_to 11000
  139.8761  134.9944  156.5694 LP  0  0  0  0  0  0  0  0  0  0  0  0  # atno 17395 bound_to 11000

$$$$
