AV-unprocessed.smi:1841|AV-procd|sdf|7496|dock3
  -GOLD-   22720 9193D 1   1.00000     0.00000
 Structure written by MMmdl.
 40 41  0  0  0  0  0  0  0  0  1 V2000
  144.7832  135.2215  151.3330 C   0  0  0  0  0  0  0  0  0  0  0  0
  145.4016  135.9132  152.4036 O   0  0  0  0  0  0  0  0  0  0  0  0
  145.4624  137.3127  152.1836 C   0  0  0  0  0  0  0  0  0  0  0  0
  146.2580  137.9652  153.3179 C   0  0  0  0  0  0  0  0  0  0  0  0
  146.6311  139.2802  152.9174 O   0  0  0  0  0  0  0  0  0  0  0  0
  147.5083  139.9882  153.7127 C   0  0  0  0  0  0  0  0  0  0  0  0
  148.4593  139.2738  154.4672 C   0  0  0  0  0  0  0  0  0  0  0  0
  149.3630  139.9867  155.2782 C   0  0  0  0  0  0  0  0  0  0  0  0
  149.2843  141.4005  155.3132 C   0  0  0  0  0  0  0  0  0  0  0  0
  150.1347  142.2498  156.0754 N   0  0  0  0  0  0  0  0  0  0  0  0
  150.9604  141.9517  157.0961 C   0  0  0  0  0  0  0  0  0  0  0  0
  151.1061  140.8302  157.5810 O   0  0  0  0  0  0  0  0  0  0  0  0
  151.7536  143.1345  157.6760 C   0  0  2  0  0  0  0  0  0  0  0  0
  152.5327  142.7231  158.9422 C   0  0  0  0  0  0  0  0  0  0  0  0
  151.8534  143.4954  160.0606 C   0  0  0  0  0  0  0  0  0  0  0  0
  152.1473  143.3511  161.2463 O   0  0  0  0  0  0  0  0  0  0  0  0
  150.9187  144.3167  159.5753 N   0  0  0  0  0  0  0  0  0  0  0  0
  150.0649  145.1944  160.3639 C   0  0  0  0  0  0  0  0  0  0  0  0
  150.8397  144.2967  158.1247 C   0  0  0  0  0  0  0  0  0  0  0  0
  148.2950  142.0180  154.5194 C   0  0  0  0  0  0  0  0  0  0  0  0
  147.4269  141.3409  153.7390 N   0  0  0  0  0  0  0  0  0  0  0  0
  144.7573  134.1542  151.5526 H   0  0  0  0  0  0  0  0  0  0  0  0
  145.3351  135.3607  150.4026 H   0  0  0  0  0  0  0  0  0  0  0  0
  143.7566  135.5593  151.1855 H   0  0  0  0  0  0  0  0  0  0  0  0
  145.9608  137.5045  151.2321 H   0  0  0  0  0  0  0  0  0  0  0  0
  144.4618  137.7438  152.1230 H   0  0  0  0  0  0  0  0  0  0  0  0
  145.6643  137.9814  154.2335 H   0  0  0  0  0  0  0  0  0  0  0  0
  147.1563  137.3762  153.5100 H   0  0  0  0  0  0  0  0  0  0  0  0
  148.4985  138.1953  154.4211 H   0  0  0  0  0  0  0  0  0  0  0  0
  150.0917  139.4281  155.8426 H   0  0  0  0  0  0  0  0  0  0  0  0
  150.1081  143.2240  155.8109 H   0  0  0  0  0  0  0  0  0  0  0  0
  152.4528  143.4988  156.9210 H   0  0  0  0  0  0  0  0  0  0  0  0
  152.5033  141.6515  159.1472 H   0  0  0  0  0  0  0  0  0  0  0  0
  153.5785  143.0243  158.8763 H   0  0  0  0  0  0  0  0  0  0  0  0
  150.6666  145.8633  160.9802 H   0  0  0  0  0  0  0  0  0  0  0  0
  149.4192  144.6096  161.0199 H   0  0  0  0  0  0  0  0  0  0  0  0
  149.4306  145.8058  159.7217 H   0  0  0  0  0  0  0  0  0  0  0  0
  151.2013  145.2476  157.7312 H   0  0  0  0  0  0  0  0  0  0  0  0
  149.8044  144.1792  157.7992 H   0  0  0  0  0  0  0  0  0  0  0  0
  148.1951  143.0936  154.5076 H   0  0  0  0  0  0  0  0  0  0  0  0
  1  2  1  0  0  0  0
  1 22  1  0  0  0  0
  1 23  1  0  0  0  0
  1 24  1  0  0  0  0
  2  3  1  0  0  0  0
  3  4  1  0  0  0  0
  3 25  1  0  0  0  0
  3 26  1  0  0  0  0
  4  5  1  0  0  0  0
  4 27  1  0  0  0  0
  4 28  1  0  0  0  0
  5  6  1  0  0  0  0
  6 21  1  0  0  0  0
  6  7  2  0  0  0  0
  7  8  1  0  0  0  0
  7 29  1  0  0  0  0
  8  9  2  0  0  0  0
  8 30  1  0  0  0  0
  9 10  1  0  0  0  0
  9 20  1  0  0  0  0
 10 11  1  0  0  0  0
 10 31  1  0  0  0  0
 11 12  2  0  0  0  0
 11 13  1  0  0  0  0
 13 19  1  0  0  0  0
 13 14  1  0  0  0  0
 13 32  1  0  0  0  0
 14 15  1  0  0  0  0
 14 33  1  0  0  0  0
 14 34  1  0  0  0  0
 15 16  2  0  0  0  0
 15 17  1  0  0  0  0
 17 18  1  0  0  0  0
 17 19  1  0  0  0  0
 18 35  1  0  0  0  0
 18 36  1  0  0  0  0
 18 37  1  0  0  0  0
 19 38  1  0  0  0  0
 19 39  1  0  0  0  0
 20 21  2  0  0  0  0
 20 40  1  0  0  0  0
M  END
> <s_m_source_file>
AV-unprocessed.smi

> <i_m_source_file_index>
1841

> <i_lp_mmshare_version>
43012

> <i_f3d_flags>
0

> <s_epik_input>
W0NIM11PW0NIMl1bQ0gyXU9jMVtjSF1bY0hdYyhbY0hdbjEpW05IXUMoPU8pW0NAQEhdMltDSDJdQyg9TylOKFtDSDNdKVtDSDJdMg==

> <s_epik_cmdline>
J2VwaWtfcHl0aG9uJywgJy1waCcsICc3LjAnLCAnLXRuJywgJzgnLCAnLW1hJywgJzIwMCcsICctbWV0YWxfYmluZGluZycsICctaW1hZScsICc8aW5maWxlLm1hZT4nLCAnLW9tYWUnLCAnPG91dGZpbGUubWFlPic=

> <r_lp_tautomer_probability>
1

> <r_epik_Ionization_Penalty>
1.70347e-05

> <r_epik_Ionization_Penalty_Charging>
0

> <r_epik_Ionization_Penalty_Neutral>
1.70347e-05

> <r_epik_State_Penalty>
-0

> <r_epik_Charging_Adjusted_Penalty>
0

> <i_epik_Tot_Q>
0

> <i_epik_Tot_abs_Q>
0

> <r_epik_Metal_State_Penalty>
-0

> <b_epik_Metal_Only>
0

> <s_lp_Force_Field>
OPLS_2005

> <r_lp_Energy>
17.4372

> <b_lp_Chiralities_Consistent>
1

> <s_lp_Variant>
AV-unprocessed.smi:1841-1

> <Gold.Version>
5.8.1

> <Gold.Id.Protein>
6NUR|6NUR_protein|mol2

> <Gold.PLP.Fitness>
39.5201

> <Gold.PLP.PLP>
-34.6786

> <Gold.PLP.part.hbond>
-1.0000

> <Gold.PLP.part.metal>
0.0000

> <Gold.PLP.part.buried>
-3.2328

> <Gold.PLP.part.nonpolar>
-32.7911

> <Gold.PLP.part.repulsive>
0.8923

> <Gold.PLP.ligand.clash>
0.0000

> <Gold.PLP.ligand.torsion>
0.5795

> <Gold.PLP.Chemscore.Hbond>
0.9920

> <Gold.PLP.Chemscore.CHOScore>
1.0000

> <Gold.PLP.Chemscore.Metal>
0.0000

> <Gold.Chemscore.Hbonds>
donor molecule, donor type, donor heavy atom, donor atom, acceptor molecule, acceptor atom, score
      L1  H    10    31       P1  8028  0.85
      L1  C    20    40       P1  8028  1.00

> <Gold.PLP.Chemscore.Internal.Correction>
0.0245

> <Gold.Rescore>
     Score         DG    S(hbond)    S(metal)    S(lipo)     H(rot)  DE(clash)    DE(int)     intcor
     11.63     -13.35       0.97        0.00      82.06       1.95       0.21       1.51       ----

> <Gold.Chemscore.Fitness>
11.6287

> <Gold.Chemscore.DG>
-13.3470

> <Gold.Chemscore.ZeroCoef>
-5.4800

> <Gold.Chemscore.Hbond>
0.9731

> <Gold.Chemscore.Metal>
0.0000

> <Gold.Chemscore.Lipo>
82.0582

> <Gold.Chemscore.Internal_Hbond>
0.0000

> <Gold.Chemscore.DEClash>
0.2112

> <Gold.Chemscore.DEInternal>
1.5072

> <Gold.Chemscore.Rot>
1.9468

> <Gold.Chemscore.Internal.Correction>
   9.000000E+99

> <Gold.Chemscore.Hbonds>
donor molecule, donor type, donor heavy atom, donor atom, acceptor molecule, acceptor atom, score
      L1  H    10    31       P1  8028  0.83

> <Gold.Chemscore.Hbond.Weighted>
-3.2501

> <Gold.Chemscore.Metal.Weighted>
-0.0000

> <Gold.Chemscore.Lipo.Weighted>
-9.6008

> <Gold.Chemscore.Internal_Hbond.Weighted>
0.0000

> <Gold.Chemscore.DEClash.Weighted>
0.2112

> <Gold.Chemscore.DEInternal.Weighted>
1.5072

> <Gold.Chemscore.Rot.Weighted>
4.9839

> <Gold.Chemscore.Internal.Correction.Weighted>
   9.000000E+99

> <Gold.Protein.RotatedTorsions>
[ 6907 6896 6895 6894 ] final -178.22 input  -60.11 | X-H torsion
[ 7974 7965 7964 7962 ] final -156.92 input  175.53 | X-H torsion
[ 8008 7997 7996 7995 ] final -154.43 input   59.86 | X-H torsion
[ 10167 10162 10161 10158 ] final -155.40 input  -65.29 | X-H torsion
[ 10718 10713 10712 10709 ] final -111.14 input   66.30 | X-H torsion
[ 10763 10752 10751 10750 ] final  -44.35 input  -60.55 | X-H torsion
[ 11005 11000 10999 10996 ] final   25.33 input  -57.11 | X-H torsion

> <Gold.Protein.ActiveResidues>
 VAL166  LYS551  ARG553  GLY616  TRP617  ASP618  TYR619  PRO620  LYS621  CYS622 
 ASP623  PHE694  ASN695  SER759  ASP760  ASP761  ALA762  ILE779  LEU786  VAL792 
 PHE793  MET794  SER795  GLU796  ALA797  LYS798  CYS799  TRP800  GLU811  SER814 

> <Gold.Protein.RotatedAtoms>
  151.6338  133.3330  159.3114 H   0  0  0  0  0  0  0  0  0  0  0  0  # atno 6907 bound_to 6896
  150.8043  134.7161  159.6641 H   0  0  0  0  0  0  0  0  0  0  0  0  # atno 6908 bound_to 6896
  152.4137  134.6083  160.0070 H   0  0  0  0  0  0  0  0  0  0  0  0  # atno 6909 bound_to 6896
  144.7571  140.4042  143.6004 H   0  0  0  0  0  0  0  0  0  0  0  0  # atno 7974 bound_to 7965
  155.6862  140.0750  157.2466 H   0  0  0  0  0  0  0  0  0  0  0  0  # atno 8008 bound_to 7997
  154.4096  140.1673  156.2089 H   0  0  0  0  0  0  0  0  0  0  0  0  # atno 8009 bound_to 7997
  155.9492  140.3378  155.6396 H   0  0  0  0  0  0  0  0  0  0  0  0  # atno 8010 bound_to 7997
  139.6934  143.9382  152.2396 H   0  0  0  0  0  0  0  0  0  0  0  0  # atno 10167 bound_to 10162
  156.0630  130.5852  150.8333 H   0  0  0  0  0  0  0  0  0  0  0  0  # atno 10718 bound_to 10713
  154.0106  135.6682  153.4765 H   0  0  0  0  0  0  0  0  0  0  0  0  # atno 10763 bound_to 10752
  153.0622  135.5021  154.8116 H   0  0  0  0  0  0  0  0  0  0  0  0  # atno 10764 bound_to 10752
  154.6997  135.3076  154.9322 H   0  0  0  0  0  0  0  0  0  0  0  0  # atno 10765 bound_to 10752
  140.3490  134.2250  155.7682 H   0  0  0  0  0  0  0  0  0  0  0  0  # atno 11005 bound_to 11000
  145.6741  139.1605  143.2738 LP  0  0  0  0  0  0  0  0  0  0  0  0  # atno 17320 bound_to 7965
  146.1594  140.6810  142.9284 LP  0  0  0  0  0  0  0  0  0  0  0  0  # atno 17321 bound_to 7965
  139.9204  144.6803  150.8467 LP  0  0  0  0  0  0  0  0  0  0  0  0  # atno 17342 bound_to 10162
  140.7689  143.3379  151.2270 LP  0  0  0  0  0  0  0  0  0  0  0  0  # atno 17343 bound_to 10162
  157.5652  131.0946  150.9500 LP  0  0  0  0  0  0  0  0  0  0  0  0  # atno 17370 bound_to 10713
  156.9728  130.5497  149.5291 LP  0  0  0  0  0  0  0  0  0  0  0  0  # atno 17371 bound_to 10713
  141.2017  133.7955  157.0425 LP  0  0  0  0  0  0  0  0  0  0  0  0  # atno 17394 bound_to 11000
  140.0719  134.9698  157.1481 LP  0  0  0  0  0  0  0  0  0  0  0  0  # atno 17395 bound_to 11000

$$$$
