AV-unprocessed.smi:2801|AV-procd|sdf|10799|dock7
  -GOLD-   2272015233D 1   1.00000     0.00000
 Structure written by MMmdl.
 32 32  0  0  0  0  0  0  0  0  1 V2000
  153.3790  141.6918  160.2873 C   0  0  0  0  0  0  0  0  0  0  0  0
  152.1402  141.7229  159.3897 C   0  0  0  0  0  0  0  0  0  0  0  0
  152.4089  142.5607  158.2721 O   0  0  0  0  0  0  0  0  0  0  0  0
  151.2687  142.9426  157.5054 C   0  0  2  0  0  0  0  0  0  0  0  0
  150.1982  143.4694  158.4799 C   0  0  0  0  0  0  0  0  0  0  0  0
  150.7087  144.6172  159.3598 C   0  0  0  0  0  0  0  0  0  0  0  0
  150.7452  141.7399  156.7027 C   0  0  0  0  0  0  0  0  0  0  0  0
  151.3070  140.6502  156.8085 O   0  0  0  0  0  0  0  0  0  0  0  0
  149.6977  141.9907  155.8953 N   0  0  0  0  0  0  0  0  0  0  0  0
  148.9853  141.1072  155.0358 C   0  0  0  0  0  0  0  0  0  0  0  0
  149.4774  139.8499  154.6079 C   0  0  0  0  0  0  0  0  0  0  0  0
  148.6697  139.0553  153.7704 C   0  0  0  0  0  0  0  0  0  0  0  0
  147.4401  139.4234  153.3543 N   0  0  0  0  0  0  0  0  0  0  0  0
  146.9670  140.6152  153.7730 C   0  0  0  0  0  0  0  0  0  0  0  0
  147.6910  141.4879  154.6112 C   0  0  0  0  0  0  0  0  0  0  0  0
  147.1366  142.6768  154.9952 O   0  0  0  0  0  0  0  0  0  0  0  0
  153.2146  141.0545  161.1562 H   0  0  0  0  0  0  0  0  0  0  0  0
  153.6262  142.6906  160.6477 H   0  0  0  0  0  0  0  0  0  0  0  0
  154.2440  141.3062  159.7472 H   0  0  0  0  0  0  0  0  0  0  0  0
  151.9034  140.7131  159.0516 H   0  0  0  0  0  0  0  0  0  0  0  0
  151.2863  142.0883  159.9612 H   0  0  0  0  0  0  0  0  0  0  0  0
  151.5416  143.7484  156.8208 H   0  0  0  0  0  0  0  0  0  0  0  0
  149.3315  143.8224  157.9190 H   0  0  0  0  0  0  0  0  0  0  0  0
  149.8410  142.6590  159.1169 H   0  0  0  0  0  0  0  0  0  0  0  0
  149.9241  144.9732  160.0274 H   0  0  0  0  0  0  0  0  0  0  0  0
  151.0381  145.4619  158.7542 H   0  0  0  0  0  0  0  0  0  0  0  0
  151.5495  144.2986  159.9765 H   0  0  0  0  0  0  0  0  0  0  0  0
  149.3967  142.9538  155.8560 H   0  0  0  0  0  0  0  0  0  0  0  0
  150.4414  139.4720  154.9092 H   0  0  0  0  0  0  0  0  0  0  0  0
  149.0202  138.0925  153.4297 H   0  0  0  0  0  0  0  0  0  0  0  0
  145.9774  140.8799  153.4305 H   0  0  0  0  0  0  0  0  0  0  0  0
  147.7559  143.3910  154.9903 H   0  0  0  0  0  0  0  0  0  0  0  0
  1  2  1  0  0  0  0
  1 17  1  0  0  0  0
  1 18  1  0  0  0  0
  1 19  1  0  0  0  0
  2  3  1  0  0  0  0
  2 20  1  0  0  0  0
  2 21  1  0  0  0  0
  3  4  1  0  0  0  0
  4  5  1  0  0  0  0
  4  7  1  0  0  0  0
  4 22  1  0  0  0  0
  5  6  1  0  0  0  0
  5 23  1  0  0  0  0
  5 24  1  0  0  0  0
  6 25  1  0  0  0  0
  6 26  1  0  0  0  0
  6 27  1  0  0  0  0
  7  8  2  0  0  0  0
  7  9  1  0  0  0  0
  9 10  1  0  0  0  0
  9 28  1  0  0  0  0
 10 15  1  0  0  0  0
 10 11  2  0  0  0  0
 11 12  1  0  0  0  0
 11 29  1  0  0  0  0
 12 13  2  0  0  0  0
 12 30  1  0  0  0  0
 13 14  1  0  0  0  0
 14 15  2  0  0  0  0
 14 31  1  0  0  0  0
 15 16  1  0  0  0  0
 16 32  1  0  0  0  0
M  END
> <s_m_source_file>
AV-unprocessed.smi

> <i_m_source_file_index>
2801

> <i_lp_mmshare_version>
43012

> <i_f3d_flags>
0

> <s_epik_input>
W0NIM11bQ0gyXU9bQ0BIXShbQ0gyXVtDSDNdKUMoPU8pW05IXWMxW2NIXVtjSF1uW2NIXWMxW09IXQ==

> <s_epik_cmdline>
J2VwaWtfcHl0aG9uJywgJy1waCcsICc3LjAnLCAnLXRuJywgJzgnLCAnLW1hJywgJzIwMCcsICctbWV0YWxfYmluZGluZycsICctaW1hZScsICc8aW5maWxlLm1hZT4nLCAnLW9tYWUnLCAnPG91dGZpbGUubWFlPic=

> <r_lp_tautomer_probability>
0.43658

> <r_epik_Ionization_Penalty>
0.0250035

> <r_epik_Ionization_Penalty_Charging>
0

> <r_epik_Ionization_Penalty_Neutral>
0.0250035

> <r_epik_State_Penalty>
0.520524

> <r_epik_Charging_Adjusted_Penalty>
0.520524

> <i_epik_Tot_Q>
0

> <i_epik_Tot_abs_Q>
0

> <r_epik_Metal_State_Penalty>
0.772586

> <b_epik_Metal_Only>
0

> <s_lp_Force_Field>
OPLS_2005

> <r_lp_Energy>
11.8743

> <b_lp_Chiralities_Consistent>
1

> <s_lp_Variant>
AV-unprocessed.smi:2801-3

> <Gold.Version>
5.8.1

> <Gold.Id.Protein>
6NUR|6NUR_protein|mol2

> <Gold.PLP.Fitness>
40.1604

> <Gold.PLP.PLP>
-28.5819

> <Gold.PLP.part.hbond>
-2.0000

> <Gold.PLP.part.metal>
0.0000

> <Gold.PLP.part.buried>
-2.5355

> <Gold.PLP.part.nonpolar>
-25.0589

> <Gold.PLP.part.repulsive>
0.3820

> <Gold.PLP.ligand.clash>
0.0000

> <Gold.PLP.ligand.torsion>
0.2036

> <Gold.PLP.Chemscore.Hbond>
2.0000

> <Gold.PLP.Chemscore.CHOScore>
1.9911

> <Gold.PLP.Chemscore.Metal>
0.0000

> <Gold.Chemscore.Hbonds>
donor molecule, donor type, donor heavy atom, donor atom, acceptor molecule, acceptor atom, score
      L1  H     9    28       P1  8028  1.00
      L1  H    16    32       P1  8028  1.00
      L1  C    12    30       P1  7948  1.00
      L1  C    14    31       P1 10175  1.00

> <Gold.PLP.Chemscore.Internal.Correction>
0.0123

> <Gold.Rescore>
     Score         DG    S(hbond)    S(metal)    S(lipo)     H(rot)  DE(clash)    DE(int)     intcor
     12.96     -15.45       1.82        0.00      79.48       2.11       0.08       2.41       ----

> <Gold.Chemscore.Fitness>
12.9639

> <Gold.Chemscore.DG>
-15.4485

> <Gold.Chemscore.ZeroCoef>
-5.4800

> <Gold.Chemscore.Hbond>
1.8198

> <Gold.Chemscore.Metal>
0.0000

> <Gold.Chemscore.Lipo>
79.4823

> <Gold.Chemscore.Internal_Hbond>
0.0000

> <Gold.Chemscore.DEClash>
0.0791

> <Gold.Chemscore.DEInternal>
2.4055

> <Gold.Chemscore.Rot>
2.1129

> <Gold.Chemscore.Internal.Correction>
   9.000000E+99

> <Gold.Chemscore.Hbonds>
donor molecule, donor type, donor heavy atom, donor atom, acceptor molecule, acceptor atom, score
      L1  H     9    28       P1  8028  1.00
      L1  H    16    32       P1  8028  0.45

> <Gold.Chemscore.Hbond.Weighted>
-6.0781

> <Gold.Chemscore.Metal.Weighted>
-0.0000

> <Gold.Chemscore.Lipo.Weighted>
-9.2994

> <Gold.Chemscore.Internal_Hbond.Weighted>
0.0000

> <Gold.Chemscore.DEClash.Weighted>
0.0791

> <Gold.Chemscore.DEInternal.Weighted>
2.4055

> <Gold.Chemscore.Rot.Weighted>
5.4089

> <Gold.Chemscore.Internal.Correction.Weighted>
   9.000000E+99

> <Gold.Protein.RotatedTorsions>
[ 6907 6896 6895 6894 ] final  106.87 input  -60.11 | X-H torsion
[ 7974 7965 7964 7962 ] final  -61.91 input  175.53 | X-H torsion
[ 8008 7997 7996 7995 ] final -148.90 input   59.86 | X-H torsion
[ 10167 10162 10161 10158 ] final  -87.14 input  -65.29 | X-H torsion
[ 10718 10713 10712 10709 ] final -119.94 input   66.30 | X-H torsion
[ 10763 10752 10751 10750 ] final   96.20 input  -60.55 | X-H torsion
[ 11005 11000 10999 10996 ] final   92.16 input  -57.11 | X-H torsion

> <Gold.Protein.ActiveResidues>
 VAL166  LYS551  ARG553  GLY616  TRP617  ASP618  TYR619  PRO620  LYS621  CYS622 
 ASP623  PHE694  ASN695  SER759  ASP760  ASP761  ALA762  ILE779  LEU786  VAL792 
 PHE793  MET794  SER795  GLU796  ALA797  LYS798  CYS799  TRP800  GLU811  SER814 

> <Gold.Protein.RotatedAtoms>
  152.5177  133.9318  159.7583 H   0  0  0  0  0  0  0  0  0  0  0  0  # atno 6907 bound_to 6896
  150.9666  133.6379  159.2752 H   0  0  0  0  0  0  0  0  0  0  0  0  # atno 6908 bound_to 6896
  151.3605  135.0908  159.9486 H   0  0  0  0  0  0  0  0  0  0  0  0  # atno 6909 bound_to 6896
  145.7977  140.8673  143.0247 H   0  0  0  0  0  0  0  0  0  0  0  0  # atno 7974 bound_to 7965
  155.5990  140.0660  157.2738 H   0  0  0  0  0  0  0  0  0  0  0  0  # atno 8008 bound_to 7997
  154.4284  140.1822  156.1200 H   0  0  0  0  0  0  0  0  0  0  0  0  # atno 8009 bound_to 7997
  156.0174  140.3320  155.7007 H   0  0  0  0  0  0  0  0  0  0  0  0  # atno 8010 bound_to 7997
  140.3873  143.2721  151.9309 H   0  0  0  0  0  0  0  0  0  0  0  0  # atno 10167 bound_to 10162
  156.1220  130.6330  150.9479 H   0  0  0  0  0  0  0  0  0  0  0  0  # atno 10718 bound_to 10713
  153.2622  135.4227  155.0905 H   0  0  0  0  0  0  0  0  0  0  0  0  # atno 10763 bound_to 10752
  154.8424  135.3452  154.6362 H   0  0  0  0  0  0  0  0  0  0  0  0  # atno 10764 bound_to 10752
  153.6782  135.7040  153.5183 H   0  0  0  0  0  0  0  0  0  0  0  0  # atno 10765 bound_to 10752
  139.8827  134.8717  156.3533 H   0  0  0  0  0  0  0  0  0  0  0  0  # atno 11005 bound_to 11000
  144.6773  140.0214  143.7483 LP  0  0  0  0  0  0  0  0  0  0  0  0  # atno 17320 bound_to 7965
  145.9911  139.3015  143.0984 LP  0  0  0  0  0  0  0  0  0  0  0  0  # atno 17321 bound_to 7965
  139.4791  144.5761  151.8009 LP  0  0  0  0  0  0  0  0  0  0  0  0  # atno 17342 bound_to 10162
  140.4876  144.1358  150.5944 LP  0  0  0  0  0  0  0  0  0  0  0  0  # atno 17343 bound_to 10162
  157.6403  131.0911  150.8265 LP  0  0  0  0  0  0  0  0  0  0  0  0  # atno 17370 bound_to 10713
  156.8360  130.5032  149.5326 LP  0  0  0  0  0  0  0  0  0  0  0  0  # atno 17371 bound_to 10713
  140.9579  133.7408  156.0361 LP  0  0  0  0  0  0  0  0  0  0  0  0  # atno 17394 bound_to 11000
  140.8025  134.3492  157.5435 LP  0  0  0  0  0  0  0  0  0  0  0  0  # atno 17395 bound_to 11000

$$$$
