AV-unprocessed.smi:102|AV-procd|sdf|958|dock1
  -GOLD-   2262017493D 1   1.00000     0.00000
 Structure written by MMmdl.
 44 45  0  0  0  0  0  0  0  0  1 V2000
  147.0938  141.9089  157.1148 C   0  0  0  0  0  0  0  0  0  0  0  0
  146.5630  140.8064  158.0213 C   0  0  0  0  0  0  0  0  0  0  0  0
  145.8623  141.0616  159.0011 O   0  0  0  0  0  0  0  0  0  0  0  0
  146.9486  139.5818  157.6179 O   0  0  0  0  0  0  0  0  0  0  0  0
  146.1341  138.4486  157.8847 C   0  0  0  0  0  0  0  0  0  0  0  0
  146.7313  137.1788  157.2587 C   0  0  1  0  0  0  0  0  0  0  0  0
  147.3690  137.4801  156.0210 O   0  0  0  0  0  0  0  0  0  0  0  0
  148.4537  136.6272  155.8085 C   0  0  1  0  0  0  0  0  0  0  0  0
  149.6834  137.4622  155.5407 N   0  0  0  0  0  0  0  0  0  0  0  0
  149.6682  138.8420  155.7007 C   0  0  0  0  0  0  0  0  0  0  0  0
  150.7540  139.6207  155.4819 C   0  0  0  0  0  0  0  0  0  0  0  0
  150.6638  140.9501  155.6580 F   0  0  0  0  0  0  0  0  0  0  0  0
  152.0218  139.0297  155.0642 C   0  0  0  0  0  0  0  0  0  0  0  0
  153.0580  139.6514  154.8385 O   0  0  0  0  0  0  0  0  0  0  0  0
  151.9941  137.6383  154.9314 N   0  0  0  0  0  0  0  0  0  0  0  0
  150.8832  136.8234  155.1568 C   0  0  0  0  0  0  0  0  0  0  0  0
  150.9792  135.6043  155.0236 O   0  0  0  0  0  0  0  0  0  0  0  0
  148.6573  135.7891  157.0776 C   0  0  2  0  0  0  0  0  0  0  0  0
  148.1185  134.4857  156.8765 O   0  0  0  0  0  0  0  0  0  0  0  0
  148.3432  133.5112  157.7740 C   0  0  0  0  0  0  0  0  0  0  0  0
  147.8145  132.1616  157.3076 C   0  0  0  0  0  0  0  0  0  0  0  0
  148.9074  133.6397  158.8603 O   0  0  0  0  0  0  0  0  0  0  0  0
  147.8488  136.5718  158.1033 C   0  0  2  0  0  0  0  0  0  0  0  0
  147.3442  135.7510  159.1504 O   0  0  0  0  0  0  0  0  0  0  0  0
  147.5941  136.0649  160.4332 C   0  0  0  0  0  0  0  0  0  0  0  0
  147.3171  134.9046  161.3797 C   0  0  0  0  0  0  0  0  0  0  0  0
  148.0096  137.1475  160.8464 O   0  0  0  0  0  0  0  0  0  0  0  0
  152.8520  137.1844  154.6531 H   0  0  0  0  0  0  0  0  0  0  0  0
  146.6993  141.7908  156.1055 H   0  0  0  0  0  0  0  0  0  0  0  0
  148.1825  141.8715  157.0693 H   0  0  0  0  0  0  0  0  0  0  0  0
  146.7969  142.8887  157.4897 H   0  0  0  0  0  0  0  0  0  0  0  0
  145.9590  138.3184  158.9537 H   0  0  0  0  0  0  0  0  0  0  0  0
  145.1600  138.6420  157.4353 H   0  0  0  0  0  0  0  0  0  0  0  0
  145.9572  136.4306  157.0792 H   0  0  0  0  0  0  0  0  0  0  0  0
  148.2657  136.0408  154.9072 H   0  0  0  0  0  0  0  0  0  0  0  0
  148.7594  139.3322  156.0169 H   0  0  0  0  0  0  0  0  0  0  0  0
  149.7110  135.7488  157.3591 H   0  0  0  0  0  0  0  0  0  0  0  0
  146.8251  132.2718  156.8634 H   0  0  0  0  0  0  0  0  0  0  0  0
  147.7402  131.4694  158.1466 H   0  0  0  0  0  0  0  0  0  0  0  0
  148.4835  131.7313  156.5625 H   0  0  0  0  0  0  0  0  0  0  0  0
  148.4611  137.3808  158.5049 H   0  0  0  0  0  0  0  0  0  0  0  0
  146.3732  134.4215  161.1263 H   0  0  0  0  0  0  0  0  0  0  0  0
  147.2583  135.2570  162.4099 H   0  0  0  0  0  0  0  0  0  0  0  0
  148.1155  134.1656  161.3122 H   0  0  0  0  0  0  0  0  0  0  0  0
  1  2  1  0  0  0  0
  1 29  1  0  0  0  0
  1 30  1  0  0  0  0
  1 31  1  0  0  0  0
  2  3  2  0  0  0  0
  2  4  1  0  0  0  0
  4  5  1  0  0  0  0
  5  6  1  0  0  0  0
  5 32  1  0  0  0  0
  5 33  1  0  0  0  0
  6 23  1  0  0  0  0
  6  7  1  0  0  0  0
  6 34  1  0  0  0  0
  7  8  1  0  0  0  0
  8  9  1  0  0  0  0
  8 18  1  0  0  0  0
  8 35  1  0  0  0  0
  9 16  1  0  0  0  0
  9 10  1  0  0  0  0
 10 11  2  0  0  0  0
 10 36  1  0  0  0  0
 11 12  1  0  0  0  0
 11 13  1  0  0  0  0
 13 14  2  0  0  0  0
 13 15  1  0  0  0  0
 15 28  1  0  0  0  0
 15 16  1  0  0  0  0
 16 17  2  0  0  0  0
 18 19  1  0  0  0  0
 18 23  1  0  0  0  0
 18 37  1  0  0  0  0
 19 20  1  0  0  0  0
 20 21  1  0  0  0  0
 20 22  2  0  0  0  0
 21 38  1  0  0  0  0
 21 39  1  0  0  0  0
 21 40  1  0  0  0  0
 23 24  1  0  0  0  0
 23 41  1  0  0  0  0
 24 25  1  0  0  0  0
 25 26  1  0  0  0  0
 25 27  2  0  0  0  0
 26 42  1  0  0  0  0
 26 43  1  0  0  0  0
 26 44  1  0  0  0  0
M  END
> <s_m_source_file>
AV-unprocessed.smi

> <i_m_source_file_index>
102

> <i_lp_mmshare_version>
43012

> <i_f3d_flags>
0

> <s_epik_input>
W0NIM11DKD1PKU9bQ0gyXVtDQEBIXTFPW0NASF0oW0NAQEhdKE9DKD1PKVtDSDNdKVtDQEhdMU9DKD1PKVtDSDNdKW4yW2NIXWMoRiljKD1PKVtuSF1jMj1P

> <s_epik_cmdline>
J2VwaWtfcHl0aG9uJywgJy1waCcsICc3LjAnLCAnLXRuJywgJzgnLCAnLW1hJywgJzIwMCcsICctbWV0YWxfYmluZGluZycsICctaW1hZScsICc8aW5maWxlLm1hZT4nLCAnLW9tYWUnLCAnPG91dGZpbGUubWFlPic=

> <r_lp_tautomer_probability>
0.999537

> <r_epik_Ionization_Penalty>
0.058267

> <r_epik_Ionization_Penalty_Charging>
0.058267

> <r_epik_Ionization_Penalty_Neutral>
6.57791e-16

> <r_epik_State_Penalty>
0.0503774

> <r_epik_Charging_Adjusted_Penalty>
0.108644

> <i_epik_Tot_Q>
0

> <i_epik_Tot_abs_Q>
0

> <r_epik_Metal_State_Penalty>
2.6644

> <b_epik_Metal_Only>
0

> <s_epik_Chemistry_Notes>
This compound has an ester and may undergo hydrolysis at high or low pH. This compound contains an acetal/aminal-like group ( X-CH(R)-Y where X, Y are N, S, or O) that may be acid/base labile, releasing an aldehyde.

> <s_lp_Force_Field>
OPLS_2005

> <r_lp_Energy>
14.1022

> <b_lp_Chiralities_Consistent>
1

> <s_lp_Variant>
AV-unprocessed.smi:102-14

> <Gold.Version>
5.8.1

> <Gold.Id.Protein>
6NUR|6NUR_protein|mol2

> <Gold.PLP.Fitness>
37.6367

> <Gold.PLP.PLP>
-25.6438

> <Gold.PLP.part.hbond>
-7.0000

> <Gold.PLP.part.metal>
0.0000

> <Gold.PLP.part.buried>
-3.0999

> <Gold.PLP.part.nonpolar>
-16.3958

> <Gold.PLP.part.repulsive>
0.7145

> <Gold.PLP.ligand.clash>
0.0000

> <Gold.PLP.ligand.torsion>
1.8229

> <Gold.PLP.Chemscore.Hbond>
5.1284

> <Gold.PLP.Chemscore.CHOScore>
0.0000

> <Gold.PLP.Chemscore.Metal>
0.0000

> <Gold.Chemscore.Hbonds>
donor molecule, donor type, donor heavy atom, donor atom, acceptor molecule, acceptor atom, score
      P1  H  6896  6907       L1    22  1.00
      P1  H  6931  6943       L1    27  0.91
      P1  H  6934  6946       L1     3  0.62
      P1  H  6934  6947       L1    27  0.72
      P1  H  7989  7998       L1    14  0.02
      P1  H  7997  8010       L1    14  1.00
      P1  H 10752 10763       L1    17  0.90

> <Gold.PLP.Chemscore.Internal.Correction>
0.2534

> <Gold.Rescore>
     Score         DG    S(hbond)    S(metal)    S(lipo)     H(rot)  DE(clash)    DE(int)     intcor
      9.01     -13.35       4.66        0.00      22.91       4.05       0.15       4.19       ----

> <Gold.Chemscore.Fitness>
9.0080

> <Gold.Chemscore.DG>
-13.3510

> <Gold.Chemscore.ZeroCoef>
-5.4800

> <Gold.Chemscore.Hbond>
4.6598

> <Gold.Chemscore.Metal>
0.0000

> <Gold.Chemscore.Lipo>
22.9099

> <Gold.Chemscore.Internal_Hbond>
0.0000

> <Gold.Chemscore.DEClash>
0.1534

> <Gold.Chemscore.DEInternal>
4.1896

> <Gold.Chemscore.Rot>
4.0520

> <Gold.Chemscore.Internal.Correction>
   9.000000E+99

> <Gold.Chemscore.Hbonds>
donor molecule, donor type, donor heavy atom, donor atom, acceptor molecule, acceptor atom, score
      P1  H  6896  6907       L1    22  0.96
      P1  H  6931  6943       L1    27  0.88
      P1  H  6934  6946       L1     3  0.45
      P1  H  6934  6947       L1    27  0.69
      P1  H  7997  8010       L1    14  1.00
      P1  H 10752 10763       L1    17  0.17

> <Gold.Chemscore.Hbond.Weighted>
-15.5638

> <Gold.Chemscore.Metal.Weighted>
-0.0000

> <Gold.Chemscore.Lipo.Weighted>
-2.6805

> <Gold.Chemscore.Internal_Hbond.Weighted>
0.0000

> <Gold.Chemscore.DEClash.Weighted>
0.1534

> <Gold.Chemscore.DEInternal.Weighted>
4.1896

> <Gold.Chemscore.Rot.Weighted>
10.3732

> <Gold.Chemscore.Internal.Correction.Weighted>
   9.000000E+99

> <Gold.Protein.RotatedTorsions>
[ 6907 6896 6895 6894 ] final -116.08 input  -60.11 | X-H torsion
[ 7974 7965 7964 7962 ] final  130.69 input  175.53 | X-H torsion
[ 8008 7997 7996 7995 ] final  109.79 input   59.86 | X-H torsion
[ 10167 10162 10161 10158 ] final -146.49 input  -65.29 | X-H torsion
[ 10718 10713 10712 10709 ] final  -65.63 input   66.30 | X-H torsion
[ 10763 10752 10751 10750 ] final   70.63 input  -60.55 | X-H torsion
[ 11005 11000 10999 10996 ] final  117.14 input  -57.11 | X-H torsion

> <Gold.Protein.ActiveResidues>
 VAL166  LYS551  ARG553  GLY616  TRP617  ASP618  TYR619  PRO620  LYS621  CYS622 
 ASP623  PHE694  ASN695  SER759  ASP760  ASP761  ALA762  ILE779  LEU786  VAL792 
 PHE793  MET794  SER795  GLU796  ALA797  LYS798  CYS799  TRP800  GLU811  SER814 

> <Gold.Protein.RotatedAtoms>
  150.8028  133.8567  159.3220 H   0  0  0  0  0  0  0  0  0  0  0  0  # atno 6907 bound_to 6896
  151.6374  135.1014  160.0144 H   0  0  0  0  0  0  0  0  0  0  0  0  # atno 6908 bound_to 6896
  152.4117  133.6933  159.6438 H   0  0  0  0  0  0  0  0  0  0  0  0  # atno 6909 bound_to 6896
  145.0152  139.4183  143.5225 H   0  0  0  0  0  0  0  0  0  0  0  0  # atno 7974 bound_to 7965
  156.2006  140.3051  155.9518 H   0  0  0  0  0  0  0  0  0  0  0  0  # atno 8008 bound_to 7997
  155.2964  140.0444  157.3043 H   0  0  0  0  0  0  0  0  0  0  0  0  # atno 8009 bound_to 7997
  154.5565  140.2307  155.8410 H   0  0  0  0  0  0  0  0  0  0  0  0  # atno 8010 bound_to 7997
  139.7708  143.8240  152.2624 H   0  0  0  0  0  0  0  0  0  0  0  0  # atno 10167 bound_to 10162
  156.0658  130.4250  150.1592 H   0  0  0  0  0  0  0  0  0  0  0  0  # atno 10718 bound_to 10713
  153.0352  135.5167  154.7470 H   0  0  0  0  0  0  0  0  0  0  0  0  # atno 10763 bound_to 10752
  154.6452  135.2917  155.0057 H   0  0  0  0  0  0  0  0  0  0  0  0  # atno 10764 bound_to 10752
  154.0961  135.6643  153.4913 H   0  0  0  0  0  0  0  0  0  0  0  0  # atno 10765 bound_to 10752
  139.9064  134.9606  156.7306 H   0  0  0  0  0  0  0  0  0  0  0  0  # atno 11005 bound_to 11000
  146.3477  139.9619  142.8716 LP  0  0  0  0  0  0  0  0  0  0  0  0  # atno 17320 bound_to 7965
  145.1969  140.9837  143.4178 LP  0  0  0  0  0  0  0  0  0  0  0  0  # atno 17321 bound_to 7965
  139.8274  144.7269  150.9494 LP  0  0  0  0  0  0  0  0  0  0  0  0  # atno 17342 bound_to 10162
  140.7814  143.4102  151.1006 LP  0  0  0  0  0  0  0  0  0  0  0  0  # atno 17343 bound_to 10162
  156.9652  130.9817  151.3471 LP  0  0  0  0  0  0  0  0  0  0  0  0  # atno 17370 bound_to 10713
  157.5699  130.8303  149.8377 LP  0  0  0  0  0  0  0  0  0  0  0  0  # atno 17371 bound_to 10713
  140.6928  133.9375  155.7977 LP  0  0  0  0  0  0  0  0  0  0  0  0  # atno 17394 bound_to 11000
  141.0429  134.0596  157.3880 LP  0  0  0  0  0  0  0  0  0  0  0  0  # atno 17395 bound_to 11000

$$$$
