AV-unprocessed.smi:1205|AV-procd|sdf|5039|dock6
  -GOLD-   22720 4 63D 1   1.00000     0.00000
 Structure written by MMmdl.
 49 50  0  0  0  0  0  0  0  0  2 V2000
  153.0517  138.6341  155.4513 C   0  0  0  0  0  0  0  0  0  0  0  0
  151.6053  138.6088  155.0533 C   0  0  0  0  0  0  0  0  0  0  0  0
  150.8184  137.4816  154.6772 C   0  0  0  0  0  0  0  0  0  0  0  0
  149.5951  138.0395  154.4237 C   0  0  0  0  0  0  0  0  0  0  0  0
  148.4465  137.4343  154.0196 N   0  0  0  0  0  0  0  0  0  0  0  0
  147.2562  137.3901  154.6434 C   0  0  0  0  0  0  0  0  0  0  0  0
  146.9961  137.9115  155.7281 O   0  0  0  0  0  0  0  0  0  0  0  0
  146.3604  136.6905  153.9321 N   0  0  0  0  0  0  0  0  0  0  0  0
  144.9773  136.4537  154.3350 C   0  0  0  0  0  0  0  0  0  0  0  0
  144.0974  135.9332  153.1738 C   0  0  2  0  0  0  0  0  0  0  0  0
  142.7090  135.4483  153.6458 C   0  0  0  0  0  0  0  0  0  0  0  0
  144.8318  134.9100  152.3731 N   0  3  1  0  0  0  0  0  0  0  0  0
  145.5113  133.8475  153.1641 C   0  0  0  0  0  0  0  0  0  0  0  0
  146.4251  133.0011  152.2642 C   0  0  0  0  0  0  0  0  0  0  0  0
  145.6344  132.3937  151.0976 C   0  0  0  0  0  0  0  0  0  0  0  0
  144.9040  133.4973  150.3123 C   0  0  1  0  0  0  0  0  0  0  0  0
  144.0819  132.9132  149.1550 C   0  0  0  0  0  0  0  0  0  0  0  0
  144.0258  134.3375  151.2615 C   0  0  0  0  0  0  0  0  0  0  0  0
  149.6722  139.3976  154.6389 N   0  0  0  0  0  0  0  0  0  0  0  0
  148.6462  140.4128  154.5001 C   0  0  0  0  0  0  0  0  0  0  0  0
  150.9181  139.7451  155.0276 N   0  0  0  0  0  0  0  0  0  0  0  0
  153.4856  137.6344  155.4219 H   0  0  0  0  0  0  0  0  0  0  0  0
  153.1735  139.0182  156.4644 H   0  0  0  0  0  0  0  0  0  0  0  0
  153.6327  139.2674  154.7807 H   0  0  0  0  0  0  0  0  0  0  0  0
  151.1221  136.4479  154.6109 H   0  0  0  0  0  0  0  0  0  0  0  0
  148.5020  136.9601  153.1303 H   0  0  0  0  0  0  0  0  0  0  0  0
  146.6531  136.2983  153.0488 H   0  0  0  0  0  0  0  0  0  0  0  0
  144.9576  135.7518  155.1709 H   0  0  0  0  0  0  0  0  0  0  0  0
  144.5906  137.3971  154.7191 H   0  0  0  0  0  0  0  0  0  0  0  0
  143.9296  136.7837  152.5117 H   0  0  0  0  0  0  0  0  0  0  0  0
  142.1411  136.2624  154.0967 H   0  0  0  0  0  0  0  0  0  0  0  0
  142.7870  134.6581  154.3927 H   0  0  0  0  0  0  0  0  0  0  0  0
  142.1115  135.0692  152.8169 H   0  0  0  0  0  0  0  0  0  0  0  0
  146.1084  134.2865  153.9624 H   0  0  0  0  0  0  0  0  0  0  0  0
  144.7707  133.2021  153.6383 H   0  0  0  0  0  0  0  0  0  0  0  0
  147.2357  133.6202  151.8772 H   0  0  0  0  0  0  0  0  0  0  0  0
  146.8931  132.2080  152.8483 H   0  0  0  0  0  0  0  0  0  0  0  0
  146.3077  131.8424  150.4404 H   0  0  0  0  0  0  0  0  0  0  0  0
  144.9130  131.6708  151.4817 H   0  0  0  0  0  0  0  0  0  0  0  0
  145.6571  134.1570  149.8784 H   0  0  0  0  0  0  0  0  0  0  0  0
  143.3093  132.2353  149.5190 H   0  0  0  0  0  0  0  0  0  0  0  0
  144.7158  132.3552  148.4655 H   0  0  0  0  0  0  0  0  0  0  0  0
  143.5908  133.7021  148.5849 H   0  0  0  0  0  0  0  0  0  0  0  0
  143.2182  133.7266  151.6671 H   0  0  0  0  0  0  0  0  0  0  0  0
  143.5589  135.1430  150.6932 H   0  0  0  0  0  0  0  0  0  0  0  0
  147.7443  140.0992  155.0265 H   0  0  0  0  0  0  0  0  0  0  0  0
  148.4130  140.5543  153.4446 H   0  0  0  0  0  0  0  0  0  0  0  0
  148.9854  141.3609  154.9194 H   0  0  0  0  0  0  0  0  0  0  0  0
  145.5706  135.4247  151.9153 H   0  0  0  0  0  0  0  0  0  0  0  0
  1  2  1  0  0  0  0
  1 22  1  0  0  0  0
  1 23  1  0  0  0  0
  1 24  1  0  0  0  0
  2 21  2  0  0  0  0
  2  3  1  0  0  0  0
  3  4  2  0  0  0  0
  3 25  1  0  0  0  0
  4  5  1  0  0  0  0
  4 19  1  0  0  0  0
  5  6  1  0  0  0  0
  5 26  1  0  0  0  0
  6  7  2  0  0  0  0
  6  8  1  0  0  0  0
  8  9  1  0  0  0  0
  8 27  1  0  0  0  0
  9 10  1  0  0  0  0
  9 28  1  0  0  0  0
  9 29  1  0  0  0  0
 10 11  1  0  0  0  0
 10 12  1  0  0  0  0
 10 30  1  0  0  0  0
 11 31  1  0  0  0  0
 11 32  1  0  0  0  0
 11 33  1  0  0  0  0
 12 18  1  0  0  0  0
 12 13  1  0  0  0  0
 12 49  1  0  0  0  0
 13 14  1  0  0  0  0
 13 34  1  0  0  0  0
 13 35  1  0  0  0  0
 14 15  1  0  0  0  0
 14 36  1  0  0  0  0
 14 37  1  0  0  0  0
 15 16  1  0  0  0  0
 15 38  1  0  0  0  0
 15 39  1  0  0  0  0
 16 17  1  0  0  0  0
 16 18  1  0  0  0  0
 16 40  1  0  0  0  0
 17 41  1  0  0  0  0
 17 42  1  0  0  0  0
 17 43  1  0  0  0  0
 18 44  1  0  0  0  0
 18 45  1  0  0  0  0
 19 20  1  0  0  0  0
 19 21  1  0  0  0  0
 20 46  1  0  0  0  0
 20 47  1  0  0  0  0
 20 48  1  0  0  0  0
M  CHG  1  12   1
M  END
> <s_m_source_file>
AV-unprocessed.smi

> <i_m_source_file_index>
1205

> <i_lp_mmshare_version>
43012

> <i_f3d_flags>
0

> <s_epik_input>
W0NIM11jMVtjSF1jKG4objEpW0NIM10pW05IXUMoPU8pW05IXVtDSDJdW0NASF0oW0NIM10pTjJbQ0gyXVtDSDJdW0NIMl1bQ0BASF0oW0NIM10pW0NIMl0y

> <s_epik_cmdline>
J2VwaWtfcHl0aG9uJywgJy1waCcsICc3LjAnLCAnLXRuJywgJzgnLCAnLW1hJywgJzIwMCcsICctbWV0YWxfYmluZGluZycsICctaW1hZScsICc8aW5maWxlLm1hZT4nLCAnLW9tYWUnLCAnPG91dGZpbGUubWFlPic=

> <r_lp_tautomer_probability>
1

> <r_epik_Ionization_Penalty>
0.0020309

> <r_epik_Ionization_Penalty_Charging>
0.00195276

> <r_epik_Ionization_Penalty_Neutral>
7.81448e-05

> <r_epik_State_Penalty>
0.00133177

> <r_epik_Charging_Adjusted_Penalty>
0.00328452

> <i_epik_Tot_Q>
1

> <i_epik_Tot_abs_Q>
1

> <r_epik_Metal_State_Penalty>
-0

> <b_epik_Metal_Only>
0

> <s_lp_Force_Field>
OPLS_2005

> <r_lp_Energy>
21.646

> <b_lp_Chiralities_Consistent>
1

> <s_lp_Variant>
AV-unprocessed.smi:1205-1

> <Gold.Version>
5.8.1

> <Gold.Id.Protein>
6NUR|6NUR_protein|mol2

> <Gold.PLP.Fitness>
38.5888

> <Gold.PLP.PLP>
-34.2996

> <Gold.PLP.part.hbond>
-1.9273

> <Gold.PLP.part.metal>
0.0000

> <Gold.PLP.part.buried>
-3.6808

> <Gold.PLP.part.nonpolar>
-29.1967

> <Gold.PLP.part.repulsive>
0.0964

> <Gold.PLP.ligand.clash>
0.0000

> <Gold.PLP.ligand.torsion>
0.9143

> <Gold.PLP.Chemscore.Hbond>
2.0000

> <Gold.PLP.Chemscore.CHOScore>
0.0000

> <Gold.PLP.Chemscore.Metal>
0.0000

> <Gold.Chemscore.Hbonds>
donor molecule, donor type, donor heavy atom, donor atom, acceptor molecule, acceptor atom, score
      L1  H     5    26       P1  7948  0.99
      P1  H  7989  7998       L1    21  1.00

> <Gold.PLP.Chemscore.Internal.Correction>
0.1177

> <Gold.Rescore>
     Score         DG    S(hbond)    S(metal)    S(lipo)     H(rot)  DE(clash)    DE(int)     intcor
     15.25     -16.28       1.64        0.00      77.71       1.47       0.10       0.94       ----

> <Gold.Chemscore.Fitness>
15.2496

> <Gold.Chemscore.DG>
-16.2826

> <Gold.Chemscore.ZeroCoef>
-5.4800

> <Gold.Chemscore.Hbond>
1.6358

> <Gold.Chemscore.Metal>
0.0000

> <Gold.Chemscore.Lipo>
77.7073

> <Gold.Chemscore.Internal_Hbond>
0.0000

> <Gold.Chemscore.DEClash>
0.0975

> <Gold.Chemscore.DEInternal>
0.9355

> <Gold.Chemscore.Rot>
1.4658

> <Gold.Chemscore.Internal.Correction>
   9.000000E+99

> <Gold.Chemscore.Hbonds>
donor molecule, donor type, donor heavy atom, donor atom, acceptor molecule, acceptor atom, score
      L1  H     5    26       P1  7948  0.92
      P1  H  7989  7998       L1    21  0.31

> <Gold.Chemscore.Hbond.Weighted>
-5.4634

> <Gold.Chemscore.Metal.Weighted>
-0.0000

> <Gold.Chemscore.Lipo.Weighted>
-9.0918

> <Gold.Chemscore.Internal_Hbond.Weighted>
0.0000

> <Gold.Chemscore.DEClash.Weighted>
0.0975

> <Gold.Chemscore.DEInternal.Weighted>
0.9355

> <Gold.Chemscore.Rot.Weighted>
3.7526

> <Gold.Chemscore.Internal.Correction.Weighted>
   9.000000E+99

> <Gold.Protein.RotatedTorsions>
[ 6907 6896 6895 6894 ] final  100.95 input  -60.11 | X-H torsion
[ 7974 7965 7964 7962 ] final  140.76 input  175.53 | X-H torsion
[ 8008 7997 7996 7995 ] final  -64.48 input   59.86 | X-H torsion
[ 10167 10162 10161 10158 ] final    5.56 input  -65.29 | X-H torsion
[ 10718 10713 10712 10709 ] final  -62.56 input   66.30 | X-H torsion
[ 10763 10752 10751 10750 ] final  -81.08 input  -60.55 | X-H torsion
[ 11005 11000 10999 10996 ] final -122.95 input  -57.11 | X-H torsion

> <Gold.Protein.ActiveResidues>
 VAL166  LYS551  ARG553  GLY616  TRP617  ASP618  TYR619  PRO620  LYS621  CYS622 
 ASP623  PHE694  ASN695  SER759  ASP760  ASP761  ALA762  ILE779  LEU786  VAL792 
 PHE793  MET794  SER795  GLU796  ALA797  LYS798  CYS799  TRP800  GLU811  SER814 

> <Gold.Protein.RotatedAtoms>
  152.5360  134.0199  159.7976 H   0  0  0  0  0  0  0  0  0  0  0  0  # atno 6907 bound_to 6896
  151.0387  133.5717  159.2660 H   0  0  0  0  0  0  0  0  0  0  0  0  # atno 6908 bound_to 6896
  151.2695  135.0687  159.9182 H   0  0  0  0  0  0  0  0  0  0  0  0  # atno 6909 bound_to 6896
  144.9158  139.5233  143.5687 H   0  0  0  0  0  0  0  0  0  0  0  0  # atno 7974 bound_to 7965
  154.4614  140.0953  156.6904 H   0  0  0  0  0  0  0  0  0  0  0  0  # atno 8008 bound_to 7997
  155.4982  140.3473  155.4348 H   0  0  0  0  0  0  0  0  0  0  0  0  # atno 8009 bound_to 7997
  156.0878  140.1389  156.9620 H   0  0  0  0  0  0  0  0  0  0  0  0  # atno 8010 bound_to 7997
  140.6475  143.7626  150.7522 H   0  0  0  0  0  0  0  0  0  0  0  0  # atno 10167 bound_to 10162
  156.0847  130.4210  150.1152 H   0  0  0  0  0  0  0  0  0  0  0  0  # atno 10718 bound_to 10713
  154.5591  135.5639  153.6991 H   0  0  0  0  0  0  0  0  0  0  0  0  # atno 10763 bound_to 10752
  153.0012  135.6269  154.2269 H   0  0  0  0  0  0  0  0  0  0  0  0  # atno 10764 bound_to 10752
  154.2206  135.2870  155.2906 H   0  0  0  0  0  0  0  0  0  0  0  0  # atno 10765 bound_to 10752
  140.9956  134.0477  157.3601 H   0  0  0  0  0  0  0  0  0  0  0  0  # atno 11005 bound_to 11000
  146.3181  139.7999  142.8967 LP  0  0  0  0  0  0  0  0  0  0  0  0  # atno 17320 bound_to 7965
  145.3379  141.0281  143.3409 LP  0  0  0  0  0  0  0  0  0  0  0  0  # atno 17321 bound_to 7965
  140.1270  143.4560  152.2278 LP  0  0  0  0  0  0  0  0  0  0  0  0  # atno 17342 bound_to 10162
  139.5687  144.7450  151.3950 LP  0  0  0  0  0  0  0  0  0  0  0  0  # atno 17343 bound_to 10162
  156.9176  130.9672  151.3553 LP  0  0  0  0  0  0  0  0  0  0  0  0  # atno 17370 bound_to 10713
  157.5977  130.8490  149.8755 LP  0  0  0  0  0  0  0  0  0  0  0  0  # atno 17371 bound_to 10713
  139.9013  135.0165  156.7281 LP  0  0  0  0  0  0  0  0  0  0  0  0  # atno 17394 bound_to 11000
  140.6971  133.9339  155.8001 LP  0  0  0  0  0  0  0  0  0  0  0  0  # atno 17395 bound_to 11000

$$$$
