AV-unprocessed.smi:2718|AV-procd|sdf|10486|dock5
  -GOLD-   2272014533D 1   1.00000     0.00000
 Structure written by MMmdl.
 47 48  0  0  0  0  0  0  0  0  1 V2000
  151.7689  144.0911  160.5622 C   0  0  0  0  0  0  0  0  0  0  0  0
  151.7491  143.5058  159.1642 C   0  0  0  0  0  0  0  0  0  0  0  0
  151.8170  144.5313  158.0459 C   0  0  0  0  0  0  0  0  0  0  0  0
  151.6790  142.1776  158.9531 C   0  0  0  0  0  0  0  0  0  0  0  0
  151.6585  141.4932  157.6337 C   0  0  2  0  0  0  0  0  0  0  0  0
  150.4350  140.7208  157.1727 C   0  0  1  0  0  0  0  0  0  0  0  0
  150.0349  140.7929  155.7324 C   0  0  0  0  0  0  0  0  0  0  0  0
  150.7486  140.4032  154.8074 O   0  0  0  0  0  0  0  0  0  0  0  0
  148.8201  141.3281  155.5423 N   0  0  0  0  0  0  0  0  0  0  0  0
  148.1713  141.5419  154.2507 C   0  0  0  0  0  0  0  0  0  0  0  0
  146.8527  140.7525  154.0737 C   0  0  2  0  0  0  0  0  0  0  0  0
  145.7467  141.2824  154.9975 C   0  0  0  0  0  0  0  0  0  0  0  0
  147.0305  139.2647  154.2211 C   0  0  0  0  0  0  0  0  0  0  0  0
  147.2023  138.6524  155.4004 N   0  0  0  0  0  0  0  0  0  0  0  0
  147.3192  137.3083  155.1107 N   0  0  0  0  0  0  0  0  0  0  0  0
  147.1896  137.2388  153.7870 C   0  0  0  0  0  0  0  0  0  0  0  0
  146.9989  138.4155  153.1721 N   0  0  0  0  0  0  0  0  0  0  0  0
  146.8060  138.6706  151.7581 C   0  0  0  0  0  0  0  0  0  0  0  0
  151.7132  139.9776  157.5427 C   0  0  0  0  0  0  0  0  0  0  0  0
  152.6371  139.3431  156.5116 C   0  0  0  0  0  0  0  0  0  0  0  0
  151.6827  139.1086  158.7911 C   0  0  0  0  0  0  0  0  0  0  0  0
  150.9230  144.7647  160.7022 H   0  0  0  0  0  0  0  0  0  0  0  0
  152.6877  144.6562  160.7211 H   0  0  0  0  0  0  0  0  0  0  0  0
  151.7129  143.3134  161.3246 H   0  0  0  0  0  0  0  0  0  0  0  0
  152.7422  145.1034  158.1176 H   0  0  0  0  0  0  0  0  0  0  0  0
  150.9800  145.2257  158.1228 H   0  0  0  0  0  0  0  0  0  0  0  0
  151.7813  144.0752  157.0571 H   0  0  0  0  0  0  0  0  0  0  0  0
  151.6301  141.5219  159.8102 H   0  0  0  0  0  0  0  0  0  0  0  0
  152.2074  142.0586  156.8823 H   0  0  0  0  0  0  0  0  0  0  0  0
  149.6110  140.6279  157.8791 H   0  0  0  0  0  0  0  0  0  0  0  0
  148.3010  141.6149  156.3597 H   0  0  0  0  0  0  0  0  0  0  0  0
  147.9636  142.6101  154.1810 H   0  0  0  0  0  0  0  0  0  0  0  0
  148.8670  141.3121  153.4423 H   0  0  0  0  0  0  0  0  0  0  0  0
  146.5136  140.9488  153.0573 H   0  0  0  0  0  0  0  0  0  0  0  0
  144.7989  140.7803  154.8007 H   0  0  0  0  0  0  0  0  0  0  0  0
  145.5913  142.3515  154.8508 H   0  0  0  0  0  0  0  0  0  0  0  0
  145.9957  141.1239  156.0474 H   0  0  0  0  0  0  0  0  0  0  0  0
  147.2285  136.3013  153.2520 H   0  0  0  0  0  0  0  0  0  0  0  0
  146.9098  137.7442  151.1920 H   0  0  0  0  0  0  0  0  0  0  0  0
  147.5489  139.3848  151.4040 H   0  0  0  0  0  0  0  0  0  0  0  0
  145.8089  139.0789  151.5924 H   0  0  0  0  0  0  0  0  0  0  0  0
  152.2017  138.4182  156.1336 H   0  0  0  0  0  0  0  0  0  0  0  0
  153.6029  139.1114  156.9613 H   0  0  0  0  0  0  0  0  0  0  0  0
  152.8210  140.0124  155.6722 H   0  0  0  0  0  0  0  0  0  0  0  0
  151.3573  138.0985  158.5412 H   0  0  0  0  0  0  0  0  0  0  0  0
  150.9934  139.5108  159.5338 H   0  0  0  0  0  0  0  0  0  0  0  0
  152.6743  139.0547  159.2412 H   0  0  0  0  0  0  0  0  0  0  0  0
  1  2  1  0  0  0  0
  1 22  1  0  0  0  0
  1 23  1  0  0  0  0
  1 24  1  0  0  0  0
  2  3  1  0  0  0  0
  2  4  2  0  0  0  0
  3 25  1  0  0  0  0
  3 26  1  0  0  0  0
  3 27  1  0  0  0  0
  4  5  1  0  0  0  0
  4 28  1  0  0  0  0
  5 19  1  0  0  0  0
  5  6  1  0  0  0  0
  5 29  1  0  0  0  0
  6  7  1  0  0  0  0
  6 19  1  0  0  0  0
  6 30  1  0  0  0  0
  7  8  2  0  0  0  0
  7  9  1  0  0  0  0
  9 10  1  0  0  0  0
  9 31  1  0  0  0  0
 10 11  1  0  0  0  0
 10 32  1  0  0  0  0
 10 33  1  0  0  0  0
 11 12  1  0  0  0  0
 11 13  1  0  0  0  0
 11 34  1  0  0  0  0
 12 35  1  0  0  0  0
 12 36  1  0  0  0  0
 12 37  1  0  0  0  0
 13 17  1  0  0  0  0
 13 14  2  0  0  0  0
 14 15  1  0  0  0  0
 15 16  2  0  0  0  0
 16 17  1  0  0  0  0
 16 38  1  0  0  0  0
 17 18  1  0  0  0  0
 18 39  1  0  0  0  0
 18 40  1  0  0  0  0
 18 41  1  0  0  0  0
 19 20  1  0  0  0  0
 19 21  1  0  0  0  0
 20 42  1  0  0  0  0
 20 43  1  0  0  0  0
 20 44  1  0  0  0  0
 21 45  1  0  0  0  0
 21 46  1  0  0  0  0
 21 47  1  0  0  0  0
M  END
> <s_m_source_file>
AV-unprocessed.smi

> <i_m_source_file_index>
2718

> <i_lp_mmshare_version>
43012

> <i_f3d_flags>
0

> <s_epik_input>
W0NIM11DKFtDSDNdKT1bQ0hdW0NAQEhdKEMxKFtDSDNdKVtDSDNdKVtDQEhdMUMoPU8pW05IXVtDSDJdW0NASF0oW0NIM10pYzJubltjSF1uMltDSDNd

> <s_epik_cmdline>
J2VwaWtfcHl0aG9uJywgJy1waCcsICc3LjAnLCAnLXRuJywgJzgnLCAnLW1hJywgJzIwMCcsICctbWV0YWxfYmluZGluZycsICctaW1hZScsICc8aW5maWxlLm1hZT4nLCAnLW9tYWUnLCAnPG91dGZpbGUubWFlPic=

> <r_lp_tautomer_probability>
1

> <r_epik_Ionization_Penalty>
0.000449586

> <r_epik_Ionization_Penalty_Charging>
0

> <r_epik_Ionization_Penalty_Neutral>
0.000449586

> <r_epik_State_Penalty>
0.000243372

> <r_epik_Charging_Adjusted_Penalty>
0.000243372

> <i_epik_Tot_Q>
0

> <i_epik_Tot_abs_Q>
0

> <r_epik_Metal_State_Penalty>
-0

> <b_epik_Metal_Only>
0

> <s_lp_Force_Field>
OPLS_2005

> <r_lp_Energy>
15.15

> <b_lp_Chiralities_Consistent>
1

> <s_lp_Variant>
AV-unprocessed.smi:2718-1

> <Gold.Version>
5.8.1

> <Gold.Id.Protein>
6NUR|6NUR_protein|mol2

> <Gold.PLP.Fitness>
44.1972

> <Gold.PLP.PLP>
-40.0918

> <Gold.PLP.part.hbond>
-1.7559

> <Gold.PLP.part.metal>
0.0000

> <Gold.PLP.part.buried>
0.0140

> <Gold.PLP.part.nonpolar>
-38.2954

> <Gold.PLP.part.repulsive>
0.2798

> <Gold.PLP.ligand.clash>
0.0000

> <Gold.PLP.ligand.torsion>
0.3477

> <Gold.PLP.Chemscore.Hbond>
1.0000

> <Gold.PLP.Chemscore.CHOScore>
0.5161

> <Gold.PLP.Chemscore.Metal>
0.0000

> <Gold.Chemscore.Hbonds>
donor molecule, donor type, donor heavy atom, donor atom, acceptor molecule, acceptor atom, score
      P1  H  7989  7998       L1     8  1.00
      L1  C    16    38       P1  7948  0.64

> <Gold.PLP.Chemscore.Internal.Correction>
0.2526

> <Gold.Rescore>
     Score         DG    S(hbond)    S(metal)    S(lipo)     H(rot)  DE(clash)    DE(int)     intcor
     14.08     -16.01       0.99        0.00     104.30       1.95       0.04       1.88       ----

> <Gold.Chemscore.Fitness>
14.0818

> <Gold.Chemscore.DG>
-16.0051

> <Gold.Chemscore.ZeroCoef>
-5.4800

> <Gold.Chemscore.Hbond>
0.9949

> <Gold.Chemscore.Metal>
0.0000

> <Gold.Chemscore.Lipo>
104.2971

> <Gold.Chemscore.Internal_Hbond>
0.0000

> <Gold.Chemscore.DEClash>
0.0399

> <Gold.Chemscore.DEInternal>
1.8834

> <Gold.Chemscore.Rot>
1.9533

> <Gold.Chemscore.Internal.Correction>
   9.000000E+99

> <Gold.Chemscore.Hbonds>
donor molecule, donor type, donor heavy atom, donor atom, acceptor molecule, acceptor atom, score
      P1  H  7989  7998       L1     8  0.98

> <Gold.Chemscore.Hbond.Weighted>
-3.3229

> <Gold.Chemscore.Metal.Weighted>
-0.0000

> <Gold.Chemscore.Lipo.Weighted>
-12.2028

> <Gold.Chemscore.Internal_Hbond.Weighted>
0.0000

> <Gold.Chemscore.DEClash.Weighted>
0.0399

> <Gold.Chemscore.DEInternal.Weighted>
1.8834

> <Gold.Chemscore.Rot.Weighted>
5.0005

> <Gold.Chemscore.Internal.Correction.Weighted>
   9.000000E+99

> <Gold.Protein.RotatedTorsions>
[ 6907 6896 6895 6894 ] final -147.70 input  -60.11 | X-H torsion
[ 7974 7965 7964 7962 ] final  -77.39 input  175.53 | X-H torsion
[ 8008 7997 7996 7995 ] final  115.36 input   59.86 | X-H torsion
[ 10167 10162 10161 10158 ] final  159.01 input  -65.29 | X-H torsion
[ 10718 10713 10712 10709 ] final   44.92 input   66.30 | X-H torsion
[ 10763 10752 10751 10750 ] final -146.21 input  -60.55 | X-H torsion
[ 11005 11000 10999 10996 ] final  -87.38 input  -57.11 | X-H torsion

> <Gold.Protein.ActiveResidues>
 VAL166  LYS551  ARG553  GLY616  TRP617  ASP618  TYR619  PRO620  LYS621  CYS622 
 ASP623  PHE694  ASN695  SER759  ASP760  ASP761  ALA762  ILE779  LEU786  VAL792 
 PHE793  MET794  SER795  GLU796  ALA797  LYS798  CYS799  TRP800  GLU811  SER814 

> <Gold.Protein.RotatedAtoms>
  151.1593  133.4855  159.2594 H   0  0  0  0  0  0  0  0  0  0  0  0  # atno 6907 bound_to 6896
  151.1471  135.0208  159.8661 H   0  0  0  0  0  0  0  0  0  0  0  0  # atno 6908 bound_to 6896
  152.5463  134.1481  159.8560 H   0  0  0  0  0  0  0  0  0  0  0  0  # atno 6909 bound_to 6896
  145.6003  140.9410  143.1244 H   0  0  0  0  0  0  0  0  0  0  0  0  # atno 7974 bound_to 7965
  156.2376  140.2940  156.0356 H   0  0  0  0  0  0  0  0  0  0  0  0  # atno 8008 bound_to 7997
  155.2045  140.0410  157.2940 H   0  0  0  0  0  0  0  0  0  0  0  0  # atno 8009 bound_to 7997
  154.6108  140.2451  155.7678 H   0  0  0  0  0  0  0  0  0  0  0  0  # atno 8010 bound_to 7997
  139.4830  144.4771  151.8496 H   0  0  0  0  0  0  0  0  0  0  0  0  # atno 10167 bound_to 10162
  157.4320  130.8030  149.7612 H   0  0  0  0  0  0  0  0  0  0  0  0  # atno 10718 bound_to 10713
  154.8347  135.3392  154.6626 H   0  0  0  0  0  0  0  0  0  0  0  0  # atno 10763 bound_to 10752
  153.7242  135.6956  153.5009 H   0  0  0  0  0  0  0  0  0  0  0  0  # atno 10764 bound_to 10752
  153.2359  135.4401  155.0598 H   0  0  0  0  0  0  0  0  0  0  0  0  # atno 10765 bound_to 10752
  141.1617  133.7508  156.9299 H   0  0  0  0  0  0  0  0  0  0  0  0  # atno 11005 bound_to 11000
  144.7312  139.7719  143.7346 LP  0  0  0  0  0  0  0  0  0  0  0  0  # atno 17320 bound_to 7965
  146.1581  139.4685  143.0006 LP  0  0  0  0  0  0  0  0  0  0  0  0  # atno 17321 bound_to 7965
  140.4244  144.2200  150.5887 LP  0  0  0  0  0  0  0  0  0  0  0  0  # atno 17342 bound_to 10162
  140.4842  143.2369  151.8912 LP  0  0  0  0  0  0  0  0  0  0  0  0  # atno 17343 bound_to 10162
  155.9916  130.3936  150.2975 LP  0  0  0  0  0  0  0  0  0  0  0  0  # atno 17370 bound_to 10713
  157.1133  131.0227  151.3039 LP  0  0  0  0  0  0  0  0  0  0  0  0  # atno 17371 bound_to 10713
  140.1394  134.9304  157.2446 LP  0  0  0  0  0  0  0  0  0  0  0  0  # atno 17394 bound_to 11000
  140.2856  134.3300  155.7330 LP  0  0  0  0  0  0  0  0  0  0  0  0  # atno 17395 bound_to 11000

$$$$
