AV-unprocessed.smi:342|AV-procd|sdf|2385|dock8
  -GOLD-   2262022313D 1   1.00000     0.00000
 Structure written by MMmdl.
 41 43  0  0  0  0  0  0  0  0  1 V2000
  148.3921  142.3760  157.5618 O   0  0  0  0  0  0  0  0  0  0  0  0
  148.6643  141.3096  156.6738 C   0  0  1  0  0  0  0  0  0  0  0  0
  147.5596  141.2683  155.5983 C   0  0  0  0  0  0  0  0  0  0  0  0
  146.8247  142.5179  155.3949 N   0  0  0  0  0  0  0  0  0  0  0  0
  146.3625  142.6299  154.0152 C   0  0  0  0  0  0  0  0  0  0  0  0
  145.5861  143.9351  153.7707 C   0  0  0  0  0  0  0  0  0  0  0  0
  144.4874  144.0098  154.6727 O   0  0  0  0  0  0  0  0  0  0  0  0
  144.8941  143.9516  156.0356 C   0  0  0  0  0  0  0  0  0  0  0  0
  145.6754  142.6505  156.2896 C   0  0  0  0  0  0  0  0  0  0  0  0
  150.0575  141.5074  156.0422 C   0  0  0  0  0  0  0  0  0  0  0  0
  151.1449  141.1628  156.9502 N   0  0  0  0  0  0  0  0  0  0  0  0
  151.9093  140.0389  156.9731 C   0  0  0  0  0  0  0  0  0  0  0  0
  151.7111  138.9079  156.0017 C   0  0  0  0  0  0  0  0  0  0  0  0
  151.9057  139.3169  154.7469 F   0  0  0  0  0  0  0  0  0  0  0  0
  152.5761  137.9238  156.2477 F   0  0  0  0  0  0  0  0  0  0  0  0
  150.4728  138.4214  156.0808 F   0  0  0  0  0  0  0  0  0  0  0  0
  152.8372  139.9953  157.9322 N   0  0  0  0  0  0  0  0  0  0  0  0
  152.6549  141.1930  158.5933 C   0  0  0  0  0  0  0  0  0  0  0  0
  153.3316  141.7387  159.7074 C   0  0  0  0  0  0  0  0  0  0  0  0
  152.9589  142.9974  160.2227 C   0  0  0  0  0  0  0  0  0  0  0  0
  151.9052  143.7256  159.6336 C   0  0  0  0  0  0  0  0  0  0  0  0
  151.2185  143.1999  158.5224 C   0  0  0  0  0  0  0  0  0  0  0  0
  151.5976  141.9447  158.0089 C   0  0  0  0  0  0  0  0  0  0  0  0
  148.3525  143.1788  157.0650 H   0  0  0  0  0  0  0  0  0  0  0  0
  148.6766  140.3869  157.2506 H   0  0  0  0  0  0  0  0  0  0  0  0
  148.0184  140.9611  154.6569 H   0  0  0  0  0  0  0  0  0  0  0  0
  146.8482  140.4794  155.8478 H   0  0  0  0  0  0  0  0  0  0  0  0
  147.2138  142.5875  153.3349 H   0  0  0  0  0  0  0  0  0  0  0  0
  145.7239  141.7802  153.7684 H   0  0  0  0  0  0  0  0  0  0  0  0
  146.2351  144.8023  153.9027 H   0  0  0  0  0  0  0  0  0  0  0  0
  145.2112  143.9675  152.7477 H   0  0  0  0  0  0  0  0  0  0  0  0
  145.5056  144.8224  156.2773 H   0  0  0  0  0  0  0  0  0  0  0  0
  144.0107  143.9938  156.6730 H   0  0  0  0  0  0  0  0  0  0  0  0
  145.0062  141.7983  156.1614 H   0  0  0  0  0  0  0  0  0  0  0  0
  145.9966  142.6419  157.3300 H   0  0  0  0  0  0  0  0  0  0  0  0
  150.1528  140.8789  155.1562 H   0  0  0  0  0  0  0  0  0  0  0  0
  150.1732  142.5334  155.6960 H   0  0  0  0  0  0  0  0  0  0  0  0
  154.1380  141.1869  160.1671 H   0  0  0  0  0  0  0  0  0  0  0  0
  153.4828  143.4050  161.0748 H   0  0  0  0  0  0  0  0  0  0  0  0
  151.6242  144.6882  160.0351 H   0  0  0  0  0  0  0  0  0  0  0  0
  150.4109  143.7560  158.0703 H   0  0  0  0  0  0  0  0  0  0  0  0
  1  2  1  0  0  0  0
  1 24  1  0  0  0  0
  2  3  1  0  0  0  0
  2 10  1  0  0  0  0
  2 25  1  0  0  0  0
  3  4  1  0  0  0  0
  3 26  1  0  0  0  0
  3 27  1  0  0  0  0
  4  9  1  0  0  0  0
  4  5  1  0  0  0  0
  5  6  1  0  0  0  0
  5 28  1  0  0  0  0
  5 29  1  0  0  0  0
  6  7  1  0  0  0  0
  6 30  1  0  0  0  0
  6 31  1  0  0  0  0
  7  8  1  0  0  0  0
  8  9  1  0  0  0  0
  8 32  1  0  0  0  0
  8 33  1  0  0  0  0
  9 34  1  0  0  0  0
  9 35  1  0  0  0  0
 10 11  1  0  0  0  0
 10 36  1  0  0  0  0
 10 37  1  0  0  0  0
 11 23  1  0  0  0  0
 11 12  1  0  0  0  0
 12 13  1  0  0  0  0
 12 17  2  0  0  0  0
 13 14  1  0  0  0  0
 13 15  1  0  0  0  0
 13 16  1  0  0  0  0
 17 18  1  0  0  0  0
 18 23  2  0  0  0  0
 18 19  1  0  0  0  0
 19 20  2  0  0  0  0
 19 38  1  0  0  0  0
 20 21  1  0  0  0  0
 20 39  1  0  0  0  0
 21 22  2  0  0  0  0
 21 40  1  0  0  0  0
 22 23  1  0  0  0  0
 22 41  1  0  0  0  0
M  END
> <s_m_source_file>
AV-unprocessed.smi

> <i_m_source_file_index>
342

> <i_lp_mmshare_version>
43012

> <i_f3d_flags>
0

> <s_epik_input>
W2NIXTFbY0hdW2NIXVtjSF1jKGMxMiluKGMobjIpQyhGKShGKUYpW0NIMl1bQ0BIXShbT0hdKVtDSDJdTjNbQ0gyXVtDSDJdT1tDSDJdW0NIMl0z

> <s_epik_cmdline>
J2VwaWtfcHl0aG9uJywgJy1waCcsICc3LjAnLCAnLXRuJywgJzgnLCAnLW1hJywgJzIwMCcsICctbWV0YWxfYmluZGluZycsICctaW1hZScsICc8aW5maWxlLm1hZT4nLCAnLW9tYWUnLCAnPG91dGZpbGUubWFlPic=

> <r_epik_Ionization_Penalty>
0.263195

> <r_epik_Ionization_Penalty_Charging>
0

> <r_epik_Ionization_Penalty_Neutral>
0.263195

> <r_epik_State_Penalty>
0.254683

> <r_epik_Charging_Adjusted_Penalty>
0.254683

> <i_epik_Tot_Q>
0

> <i_epik_Tot_abs_Q>
0

> <r_epik_Metal_State_Penalty>
0.254691

> <b_epik_Metal_Only>
0

> <s_lp_Force_Field>
OPLS_2005

> <r_lp_Energy>
34.5572

> <b_lp_Chiralities_Consistent>
1

> <s_lp_Variant>
AV-unprocessed.smi:342-2

> <Gold.Version>
5.8.1

> <Gold.Id.Protein>
6NUR|6NUR_protein|mol2

> <Gold.PLP.Fitness>
46.6117

> <Gold.PLP.PLP>
-43.1531

> <Gold.PLP.part.hbond>
-2.0000

> <Gold.PLP.part.metal>
0.0000

> <Gold.PLP.part.buried>
-6.1374

> <Gold.PLP.part.nonpolar>
-36.2709

> <Gold.PLP.part.repulsive>
0.8119

> <Gold.PLP.ligand.clash>
0.0000

> <Gold.PLP.ligand.torsion>
1.2596

> <Gold.PLP.Chemscore.Hbond>
1.9760

> <Gold.PLP.Chemscore.CHOScore>
0.0000

> <Gold.PLP.Chemscore.Metal>
0.0000

> <Gold.Chemscore.Hbonds>
donor molecule, donor type, donor heavy atom, donor atom, acceptor molecule, acceptor atom, score
      L1  H     1    24       P1  8028  0.69
      P1  H  7997  8010       L1    17  1.00

> <Gold.PLP.Chemscore.Internal.Correction>
0.0498

> <Gold.Rescore>
     Score         DG    S(hbond)    S(metal)    S(lipo)     H(rot)  DE(clash)    DE(int)     intcor
     12.33     -14.65       0.83        0.00     103.78       2.24       0.12       2.20       ----

> <Gold.Chemscore.Fitness>
12.3261

> <Gold.Chemscore.DG>
-14.6464

> <Gold.Chemscore.ZeroCoef>
-5.4800

> <Gold.Chemscore.Hbond>
0.8276

> <Gold.Chemscore.Metal>
0.0000

> <Gold.Chemscore.Lipo>
103.7768

> <Gold.Chemscore.Internal_Hbond>
0.0000

> <Gold.Chemscore.DEClash>
0.1239

> <Gold.Chemscore.DEInternal>
2.1963

> <Gold.Chemscore.Rot>
2.2421

> <Gold.Chemscore.Internal.Correction>
   9.000000E+99

> <Gold.Chemscore.Hbonds>
donor molecule, donor type, donor heavy atom, donor atom, acceptor molecule, acceptor atom, score
      L1  H     1    24       P1  8028  0.16
      P1  H  7997  8010       L1    17  0.34

> <Gold.Chemscore.Hbond.Weighted>
-2.7643

> <Gold.Chemscore.Metal.Weighted>
-0.0000

> <Gold.Chemscore.Lipo.Weighted>
-12.1419

> <Gold.Chemscore.Internal_Hbond.Weighted>
0.0000

> <Gold.Chemscore.DEClash.Weighted>
0.1239

> <Gold.Chemscore.DEInternal.Weighted>
2.1963

> <Gold.Chemscore.Rot.Weighted>
5.7399

> <Gold.Chemscore.Internal.Correction.Weighted>
   9.000000E+99

> <Gold.Protein.RotatedTorsions>
[ 6907 6896 6895 6894 ] final    4.05 input  -60.11 | X-H torsion
[ 7974 7965 7964 7962 ] final   78.47 input  175.53 | X-H torsion
[ 8008 7997 7996 7995 ] final   38.14 input   59.86 | X-H torsion
[ 10167 10162 10161 10158 ] final  146.25 input  -65.29 | X-H torsion
[ 10718 10713 10712 10709 ] final -163.49 input   66.30 | X-H torsion
[ 10763 10752 10751 10750 ] final   42.66 input  -60.55 | X-H torsion
[ 11005 11000 10999 10996 ] final  179.16 input  -57.11 | X-H torsion

> <Gold.Protein.ActiveResidues>
 VAL166  LYS551  ARG553  GLY616  TRP617  ASP618  TYR619  PRO620  LYS621  CYS622 
 ASP623  PHE694  ASN695  SER759  ASP760  ASP761  ALA762  ILE779  LEU786  VAL792 
 PHE793  MET794  SER795  GLU796  ALA797  LYS798  CYS799  TRP800  GLU811  SER814 

> <Gold.Protein.RotatedAtoms>
  151.6350  135.1019  160.0129 H   0  0  0  0  0  0  0  0  0  0  0  0  # atno 6907 bound_to 6896
  152.4085  133.6923  159.6386 H   0  0  0  0  0  0  0  0  0  0  0  0  # atno 6908 bound_to 6896
  150.7978  133.8583  159.3265 H   0  0  0  0  0  0  0  0  0  0  0  0  # atno 6909 bound_to 6896
  145.6768  139.2512  143.1837 H   0  0  0  0  0  0  0  0  0  0  0  0  # atno 7974 bound_to 7965
  155.2152  140.3326  155.4323 H   0  0  0  0  0  0  0  0  0  0  0  0  # atno 8008 bound_to 7997
  156.2355  140.1870  156.7179 H   0  0  0  0  0  0  0  0  0  0  0  0  # atno 8009 bound_to 7997
  154.6051  140.0617  156.9406 H   0  0  0  0  0  0  0  0  0  0  0  0  # atno 8010 bound_to 7997
  139.4911  144.5843  151.6809 H   0  0  0  0  0  0  0  0  0  0  0  0  # atno 10167 bound_to 10162
  156.6255  130.8908  151.2966 H   0  0  0  0  0  0  0  0  0  0  0  0  # atno 10718 bound_to 10713
  152.9878  135.6125  154.2985 H   0  0  0  0  0  0  0  0  0  0  0  0  # atno 10763 bound_to 10752
  154.2707  135.2779  155.2741 H   0  0  0  0  0  0  0  0  0  0  0  0  # atno 10764 bound_to 10752
  154.5125  135.5837  153.6673 H   0  0  0  0  0  0  0  0  0  0  0  0  # atno 10765 bound_to 10752
  140.4031  134.6759  157.4573 H   0  0  0  0  0  0  0  0  0  0  0  0  # atno 11005 bound_to 11000
  146.0999  140.7557  142.9554 LP  0  0  0  0  0  0  0  0  0  0  0  0  # atno 17320 bound_to 7965
  144.7039  140.3770  143.7134 LP  0  0  0  0  0  0  0  0  0  0  0  0  # atno 17321 bound_to 7965
  140.5456  144.0508  150.6106 LP  0  0  0  0  0  0  0  0  0  0  0  0  # atno 17342 bound_to 10162
  140.3545  143.2943  152.0451 LP  0  0  0  0  0  0  0  0  0  0  0  0  # atno 17343 bound_to 10162
  157.7215  130.9565  150.1459 LP  0  0  0  0  0  0  0  0  0  0  0  0  # atno 17370 bound_to 10713
  156.2277  130.3679  149.8481 LP  0  0  0  0  0  0  0  0  0  0  0  0  # atno 17371 bound_to 10713
  140.0322  134.6390  155.9092 LP  0  0  0  0  0  0  0  0  0  0  0  0  # atno 17394 bound_to 11000
  141.1849  133.6554  156.5177 LP  0  0  0  0  0  0  0  0  0  0  0  0  # atno 17395 bound_to 11000

$$$$
