AV-unprocessed.smi:2908|AV-procd|sdf|11168|dock8
  -GOLD-   2272016 53D 1   1.00000     0.00000
 Structure written by MMmdl.
 43 44  0  0  0  0  0  0  0  0  1 V2000
  151.2833  140.8831  155.0325 O   0  0  0  0  0  0  0  0  0  0  0  0
  151.4375  140.3540  156.1341 C   0  0  0  0  0  0  0  0  0  0  0  0
  151.4400  141.0631  157.2735 N   0  0  0  0  0  0  0  0  0  0  0  0
  151.1139  142.4793  157.3915 C   0  0  0  0  0  0  0  0  0  0  0  0
  152.3287  143.2994  157.8643 C   0  0  0  0  0  0  0  0  0  0  0  0
  152.4838  143.3348  159.3768 C   0  0  0  0  0  0  0  0  0  0  0  0
  153.0327  142.2335  160.0670 C   0  0  0  0  0  0  0  0  0  0  0  0
  153.1920  142.3277  161.4631 C   0  0  0  0  0  0  0  0  0  0  0  0
  152.7978  143.5133  162.1127 C   0  0  0  0  0  0  0  0  0  0  0  0
  152.2577  144.5558  161.3342 C   0  0  0  0  0  0  0  0  0  0  0  0
  152.1046  144.4773  159.9948 N   0  0  0  0  0  0  0  0  0  0  0  0
  151.6101  139.0184  156.3027 N   0  0  0  0  0  0  0  0  0  0  0  0
  151.1946  138.2323  157.4752 C   0  0  0  0  0  0  0  0  0  0  0  0
  149.8721  137.5241  157.1354 C   0  0  0  0  0  0  0  0  0  0  0  0
  150.0132  136.6305  155.8778 C   0  0  0  0  0  0  0  0  0  0  0  0
  148.6623  135.9646  155.5061 C   0  0  1  0  0  0  0  0  0  0  0  0
  148.0429  136.6718  154.4478 O   0  0  0  0  0  0  0  0  0  0  0  0
  148.7365  134.4641  155.1460 C   0  0  0  0  0  0  0  0  0  0  0  0
  147.5058  133.9523  155.1149 F   0  0  0  0  0  0  0  0  0  0  0  0
  149.3210  134.2589  153.9659 F   0  0  0  0  0  0  0  0  0  0  0  0
  149.4249  133.8121  156.0830 F   0  0  0  0  0  0  0  0  0  0  0  0
  150.6906  137.4042  154.7162 C   0  0  0  0  0  0  0  0  0  0  0  0
  151.9624  138.1366  155.1855 C   0  0  0  0  0  0  0  0  0  0  0  0
  151.5871  140.5604  158.1368 H   0  0  0  0  0  0  0  0  0  0  0  0
  150.7536  142.8517  156.4323 H   0  0  0  0  0  0  0  0  0  0  0  0
  150.3017  142.6099  158.1089 H   0  0  0  0  0  0  0  0  0  0  0  0
  153.2388  142.8858  157.4268 H   0  0  0  0  0  0  0  0  0  0  0  0
  152.2522  144.3205  157.4889 H   0  0  0  0  0  0  0  0  0  0  0  0
  153.3332  141.3407  159.5384 H   0  0  0  0  0  0  0  0  0  0  0  0
  153.6116  141.5068  162.0253 H   0  0  0  0  0  0  0  0  0  0  0  0
  152.9060  143.6216  163.1816 H   0  0  0  0  0  0  0  0  0  0  0  0
  151.9461  145.4799  161.7978 H   0  0  0  0  0  0  0  0  0  0  0  0
  151.9632  137.4938  157.7081 H   0  0  0  0  0  0  0  0  0  0  0  0
  151.0817  138.8219  158.3850 H   0  0  0  0  0  0  0  0  0  0  0  0
  149.5471  136.9252  157.9867 H   0  0  0  0  0  0  0  0  0  0  0  0
  149.0988  138.2766  156.9754 H   0  0  0  0  0  0  0  0  0  0  0  0
  150.6980  135.8283  156.1562 H   0  0  0  0  0  0  0  0  0  0  0  0
  148.0026  136.0541  156.3704 H   0  0  0  0  0  0  0  0  0  0  0  0
  148.3651  136.3282  153.6287 H   0  0  0  0  0  0  0  0  0  0  0  0
  150.9594  136.7239  153.9092 H   0  0  0  0  0  0  0  0  0  0  0  0
  149.9963  138.1309  154.2923 H   0  0  0  0  0  0  0  0  0  0  0  0
  152.4144  138.6767  154.3525 H   0  0  0  0  0  0  0  0  0  0  0  0
  152.7136  137.4154  155.5104 H   0  0  0  0  0  0  0  0  0  0  0  0
  1  2  2  0  0  0  0
  2  3  1  0  0  0  0
  2 12  1  0  0  0  0
  3  4  1  0  0  0  0
  3 24  1  0  0  0  0
  4  5  1  0  0  0  0
  4 25  1  0  0  0  0
  4 26  1  0  0  0  0
  5  6  1  0  0  0  0
  5 27  1  0  0  0  0
  5 28  1  0  0  0  0
  6 11  1  0  0  0  0
  6  7  2  0  0  0  0
  7  8  1  0  0  0  0
  7 29  1  0  0  0  0
  8  9  2  0  0  0  0
  8 30  1  0  0  0  0
  9 10  1  0  0  0  0
  9 31  1  0  0  0  0
 10 11  2  0  0  0  0
 10 32  1  0  0  0  0
 12 23  1  0  0  0  0
 12 13  1  0  0  0  0
 13 14  1  0  0  0  0
 13 33  1  0  0  0  0
 13 34  1  0  0  0  0
 14 15  1  0  0  0  0
 14 35  1  0  0  0  0
 14 36  1  0  0  0  0
 15 16  1  0  0  0  0
 15 22  1  0  0  0  0
 15 37  1  0  0  0  0
 16 17  1  0  0  0  0
 16 18  1  0  0  0  0
 16 38  1  0  0  0  0
 17 39  1  0  0  0  0
 18 19  1  0  0  0  0
 18 20  1  0  0  0  0
 18 21  1  0  0  0  0
 22 23  1  0  0  0  0
 22 40  1  0  0  0  0
 22 41  1  0  0  0  0
 23 42  1  0  0  0  0
 23 43  1  0  0  0  0
M  END
> <s_m_source_file>
AV-unprocessed.smi

> <i_m_source_file_index>
2908

> <i_lp_mmshare_version>
43012

> <i_f3d_flags>
0

> <s_epik_input>
RkMoRikoRilbQ0BASF0oW09IXSlbQ0hdKFtDSDJdW0NIMl0xKVtDSDJdW0NIMl1OMUMoPU8pW05IXVtDSDJdW0NIMl1jMltjSF1bY0hdW2NIXVtjSF1uMg==

> <s_epik_cmdline>
J2VwaWtfcHl0aG9uJywgJy1waCcsICc3LjAnLCAnLXRuJywgJzgnLCAnLW1hJywgJzIwMCcsICctbWV0YWxfYmluZGluZycsICctaW1hZScsICc8aW5maWxlLm1hZT4nLCAnLW9tYWUnLCAnPG91dGZpbGUubWFlPic=

> <r_epik_Ionization_Penalty>
0.0451198

> <r_epik_Ionization_Penalty_Charging>
0

> <r_epik_Ionization_Penalty_Neutral>
0.0451198

> <r_epik_State_Penalty>
0.0381178

> <r_epik_Charging_Adjusted_Penalty>
0.0381178

> <i_epik_Tot_Q>
0

> <i_epik_Tot_abs_Q>
0

> <r_epik_Metal_State_Penalty>
0.0354176

> <b_epik_Metal_Only>
0

> <s_lp_Force_Field>
OPLS_2005

> <r_lp_Energy>
37.4058

> <b_lp_Chiralities_Consistent>
1

> <s_lp_Variant>
AV-unprocessed.smi:2908-2

> <Gold.Version>
5.8.1

> <Gold.Id.Protein>
6NUR|6NUR_protein|mol2

> <Gold.PLP.Fitness>
46.2232

> <Gold.PLP.PLP>
-43.8292

> <Gold.PLP.part.hbond>
-2.0000

> <Gold.PLP.part.metal>
0.0000

> <Gold.PLP.part.buried>
-6.1121

> <Gold.PLP.part.nonpolar>
-35.0836

> <Gold.PLP.part.repulsive>
0.1867

> <Gold.PLP.ligand.clash>
0.0000

> <Gold.PLP.ligand.torsion>
1.8408

> <Gold.PLP.Chemscore.Hbond>
1.9280

> <Gold.PLP.Chemscore.CHOScore>
0.0000

> <Gold.PLP.Chemscore.Metal>
0.0000

> <Gold.Chemscore.Hbonds>
donor molecule, donor type, donor heavy atom, donor atom, acceptor molecule, acceptor atom, score
      L1  H    17    39       P1  7948  1.00
      P1  H  7989  7998       L1     1  0.72

> <Gold.PLP.Chemscore.Internal.Correction>
0.2916

> <Gold.Rescore>
     Score         DG    S(hbond)    S(metal)    S(lipo)     H(rot)  DE(clash)    DE(int)     intcor
     16.43     -18.28       1.90        0.00     105.55       2.30       0.05       1.80       ----

> <Gold.Chemscore.Fitness>
16.4279

> <Gold.Chemscore.DG>
-18.2814

> <Gold.Chemscore.ZeroCoef>
-5.4800

> <Gold.Chemscore.Hbond>
1.9018

> <Gold.Chemscore.Metal>
0.0000

> <Gold.Chemscore.Lipo>
105.5526

> <Gold.Chemscore.Internal_Hbond>
0.0000

> <Gold.Chemscore.DEClash>
0.0508

> <Gold.Chemscore.DEInternal>
1.8027

> <Gold.Chemscore.Rot>
2.3048

> <Gold.Chemscore.Internal.Correction>
   9.000000E+99

> <Gold.Chemscore.Hbonds>
donor molecule, donor type, donor heavy atom, donor atom, acceptor molecule, acceptor atom, score
      L1  H    17    39       P1  7948  1.00
      P1  H  7989  7998       L1     1  0.69

> <Gold.Chemscore.Hbond.Weighted>
-6.3521

> <Gold.Chemscore.Metal.Weighted>
-0.0000

> <Gold.Chemscore.Lipo.Weighted>
-12.3497

> <Gold.Chemscore.Internal_Hbond.Weighted>
0.0000

> <Gold.Chemscore.DEClash.Weighted>
0.0508

> <Gold.Chemscore.DEInternal.Weighted>
1.8027

> <Gold.Chemscore.Rot.Weighted>
5.9004

> <Gold.Chemscore.Internal.Correction.Weighted>
   9.000000E+99

> <Gold.Protein.RotatedTorsions>
[ 6907 6896 6895 6894 ] final  -83.67 input  -60.11 | X-H torsion
[ 7974 7965 7964 7962 ] final   63.33 input  175.53 | X-H torsion
[ 8008 7997 7996 7995 ] final  -97.62 input   59.86 | X-H torsion
[ 10167 10162 10161 10158 ] final   85.99 input  -65.29 | X-H torsion
[ 10718 10713 10712 10709 ] final  -68.93 input   66.30 | X-H torsion
[ 10763 10752 10751 10750 ] final  119.80 input  -60.55 | X-H torsion
[ 11005 11000 10999 10996 ] final  -12.11 input  -57.11 | X-H torsion

> <Gold.Protein.ActiveResidues>
 VAL166  LYS551  ARG553  GLY616  TRP617  ASP618  TYR619  PRO620  LYS621  CYS622 
 ASP623  PHE694  ASN695  SER759  ASP760  ASP761  ALA762  ILE779  LEU786  VAL792 
 PHE793  MET794  SER795  GLU796  ALA797  LYS798  CYS799  TRP800  GLU811  SER814 

> <Gold.Protein.RotatedAtoms>
  150.6883  134.3476  159.4894 H   0  0  0  0  0  0  0  0  0  0  0  0  # atno 6907 bound_to 6896
  152.1321  134.9124  160.0567 H   0  0  0  0  0  0  0  0  0  0  0  0  # atno 6908 bound_to 6896
  152.0290  133.3895  159.4326 H   0  0  0  0  0  0  0  0  0  0  0  0  # atno 6909 bound_to 6896
  145.8630  139.3327  143.0807 H   0  0  0  0  0  0  0  0  0  0  0  0  # atno 7974 bound_to 7965
  154.7902  140.0461  157.1195 H   0  0  0  0  0  0  0  0  0  0  0  0  # atno 8008 bound_to 7997
  154.9600  140.3076  155.5015 H   0  0  0  0  0  0  0  0  0  0  0  0  # atno 8009 bound_to 7997
  156.2949  140.2272  156.4684 H   0  0  0  0  0  0  0  0  0  0  0  0  # atno 8010 bound_to 7997
  139.8921  144.6379  150.8728 H   0  0  0  0  0  0  0  0  0  0  0  0  # atno 10167 bound_to 10162
  156.0481  130.4303  150.2072 H   0  0  0  0  0  0  0  0  0  0  0  0  # atno 10718 bound_to 10713
  153.5887  135.3470  155.2902 H   0  0  0  0  0  0  0  0  0  0  0  0  # atno 10763 bound_to 10752
  154.8656  135.4199  154.2540 H   0  0  0  0  0  0  0  0  0  0  0  0  # atno 10764 bound_to 10752
  153.3343  135.7046  153.6992 H   0  0  0  0  0  0  0  0  0  0  0  0  # atno 10765 bound_to 10752
  140.7623  133.8505  155.9135 H   0  0  0  0  0  0  0  0  0  0  0  0  # atno 11005 bound_to 11000
  145.9226  140.9105  143.0397 LP  0  0  0  0  0  0  0  0  0  0  0  0  # atno 17320 bound_to 7965
  144.6726  140.1309  143.7444 LP  0  0  0  0  0  0  0  0  0  0  0  0  # atno 17321 bound_to 7965
  140.7724  143.3502  151.2029 LP  0  0  0  0  0  0  0  0  0  0  0  0  # atno 17342 bound_to 10162
  139.7101  143.9391  152.2943 LP  0  0  0  0  0  0  0  0  0  0  0  0  # atno 17343 bound_to 10162
  157.0159  130.9965  151.3353 LP  0  0  0  0  0  0  0  0  0  0  0  0  # atno 17370 bound_to 10713
  157.5378  130.8100  149.7992 LP  0  0  0  0  0  0  0  0  0  0  0  0  # atno 17371 bound_to 10713
  140.9652  134.1604  157.4622 LP  0  0  0  0  0  0  0  0  0  0  0  0  # atno 17394 bound_to 11000
  139.8769  134.9959  156.5767 LP  0  0  0  0  0  0  0  0  0  0  0  0  # atno 17395 bound_to 11000

$$$$
