AV-unprocessed.smi:1024|AV-procd|sdf|4465|dock6
  -GOLD-   22720 2443D 1   1.00000     0.00000
 Structure written by MMmdl.
 47 49  0  0  0  0  0  0  0  0  1 V2000
  151.9187  137.7308  159.7457 O   0  0  0  0  0  0  0  0  0  0  0  0
  152.8788  138.3666  160.1836 C   0  0  0  0  0  0  0  0  0  0  0  0
  153.6654  137.8847  161.1608 N   0  0  0  0  0  0  0  0  0  0  0  0
  153.4871  136.6031  161.8324 C   0  0  0  0  0  0  0  0  0  0  0  0
  153.1406  136.7892  163.3184 C   0  0  0  0  0  0  0  0  0  0  0  0
  154.3345  136.8814  164.1336 N   0  0  0  0  0  0  0  0  0  0  0  0
  154.7134  137.9407  164.9474 C   0  0  0  0  0  0  0  0  0  0  0  0
  155.9135  137.5853  165.5208 C   0  0  0  0  0  0  0  0  0  0  0  0
  156.2895  136.3200  165.0756 N   0  0  0  0  0  0  0  0  0  0  0  0
  155.3063  135.9672  164.2574 C   0  0  0  0  0  0  0  0  0  0  0  0
  153.2464  139.5829  159.7057 N   0  0  0  0  0  0  0  0  0  0  0  0
  154.3557  140.4138  160.1989 C   0  0  0  0  0  0  0  0  0  0  0  0
  153.7717  141.5849  161.0129 C   0  0  0  0  0  0  0  0  0  0  0  0
  152.7671  142.4513  160.2023 C   0  0  0  0  0  0  0  0  0  0  0  0
  152.0383  143.4005  161.1896 C   0  0  0  0  0  0  0  0  0  0  0  0
  151.1493  144.4466  160.4936 C   0  0  0  0  0  0  0  0  0  0  0  0
  151.9570  145.2816  159.4916 C   0  0  0  0  0  0  0  0  0  0  0  0
  152.6694  144.3826  158.4728 C   0  0  0  0  0  0  0  0  0  0  0  0
  153.5415  143.3232  159.1720 C   0  0  0  0  0  0  0  0  0  0  0  0
  151.7423  141.5045  159.5088 C   0  0  0  0  0  0  0  0  0  0  0  0
  152.4098  140.3324  158.7631 C   0  0  0  0  0  0  0  0  0  0  0  0
  154.4434  138.4530  161.4626 H   0  0  0  0  0  0  0  0  0  0  0  0
  152.7161  136.0185  161.3275 H   0  0  0  0  0  0  0  0  0  0  0  0
  154.4161  136.0406  161.7352 H   0  0  0  0  0  0  0  0  0  0  0  0
  152.5518  137.6962  163.4626 H   0  0  0  0  0  0  0  0  0  0  0  0
  152.5370  135.9568  163.6830 H   0  0  0  0  0  0  0  0  0  0  0  0
  154.1152  138.8345  165.0479 H   0  0  0  0  0  0  0  0  0  0  0  0
  156.5305  138.1387  166.2133 H   0  0  0  0  0  0  0  0  0  0  0  0
  155.2932  135.0217  163.7350 H   0  0  0  0  0  0  0  0  0  0  0  0
  155.0751  139.8707  160.8112 H   0  0  0  0  0  0  0  0  0  0  0  0
  154.9329  140.7848  159.3515 H   0  0  0  0  0  0  0  0  0  0  0  0
  153.2707  141.1728  161.8904 H   0  0  0  0  0  0  0  0  0  0  0  0
  154.5824  142.2036  161.3994 H   0  0  0  0  0  0  0  0  0  0  0  0
  151.4356  142.8240  161.8925 H   0  0  0  0  0  0  0  0  0  0  0  0
  152.7772  143.9270  161.7957 H   0  0  0  0  0  0  0  0  0  0  0  0
  150.3194  143.9565  159.9838 H   0  0  0  0  0  0  0  0  0  0  0  0
  150.7014  145.1028  161.2403 H   0  0  0  0  0  0  0  0  0  0  0  0
  151.3019  145.9847  158.9764 H   0  0  0  0  0  0  0  0  0  0  0  0
  152.6941  145.8807  160.0277 H   0  0  0  0  0  0  0  0  0  0  0  0
  151.9361  143.9024  157.8253 H   0  0  0  0  0  0  0  0  0  0  0  0
  153.2912  144.9940  157.8184 H   0  0  0  0  0  0  0  0  0  0  0  0
  154.3544  143.8412  159.6827 H   0  0  0  0  0  0  0  0  0  0  0  0
  154.0216  142.7048  158.4151 H   0  0  0  0  0  0  0  0  0  0  0  0
  151.0717  141.0878  160.2617 H   0  0  0  0  0  0  0  0  0  0  0  0
  151.0997  142.0502  158.8196 H   0  0  0  0  0  0  0  0  0  0  0  0
  153.0237  140.6956  157.9387 H   0  0  0  0  0  0  0  0  0  0  0  0
  151.6444  139.7099  158.2976 H   0  0  0  0  0  0  0  0  0  0  0  0
  1  2  2  0  0  0  0
  2  3  1  0  0  0  0
  2 11  1  0  0  0  0
  3  4  1  0  0  0  0
  3 22  1  0  0  0  0
  4  5  1  0  0  0  0
  4 23  1  0  0  0  0
  4 24  1  0  0  0  0
  5  6  1  0  0  0  0
  5 25  1  0  0  0  0
  5 26  1  0  0  0  0
  6 10  1  0  0  0  0
  6  7  1  0  0  0  0
  7  8  2  0  0  0  0
  7 27  1  0  0  0  0
  8  9  1  0  0  0  0
  8 28  1  0  0  0  0
  9 10  2  0  0  0  0
 10 29  1  0  0  0  0
 11 21  1  0  0  0  0
 11 12  1  0  0  0  0
 12 13  1  0  0  0  0
 12 30  1  0  0  0  0
 12 31  1  0  0  0  0
 13 14  1  0  0  0  0
 13 32  1  0  0  0  0
 13 33  1  0  0  0  0
 14 19  1  0  0  0  0
 14 15  1  0  0  0  0
 14 20  1  0  0  0  0
 15 16  1  0  0  0  0
 15 34  1  0  0  0  0
 15 35  1  0  0  0  0
 16 17  1  0  0  0  0
 16 36  1  0  0  0  0
 16 37  1  0  0  0  0
 17 18  1  0  0  0  0
 17 38  1  0  0  0  0
 17 39  1  0  0  0  0
 18 19  1  0  0  0  0
 18 40  1  0  0  0  0
 18 41  1  0  0  0  0
 19 42  1  0  0  0  0
 19 43  1  0  0  0  0
 20 21  1  0  0  0  0
 20 44  1  0  0  0  0
 20 45  1  0  0  0  0
 21 46  1  0  0  0  0
 21 47  1  0  0  0  0
M  END
> <s_m_source_file>
AV-unprocessed.smi

> <i_m_source_file_index>
1024

> <i_lp_mmshare_version>
43012

> <i_f3d_flags>
0

> <s_epik_input>
W2NIXTFuW2NIXVtjSF1uMVtDSDJdW0NIMl1bTkhdQyg9TylOKFtDSDJdW0NIMl0yKVtDSDJdW0NIMl1DMjNbQ0gyXVtDSDJdW0NIMl1bQ0gyXVtDSDJdMw==

> <s_epik_cmdline>
J2VwaWtfcHl0aG9uJywgJy1waCcsICc3LjAnLCAnLXRuJywgJzgnLCAnLW1hJywgJzIwMCcsICctbWV0YWxfYmluZGluZycsICctaW1hZScsICc8aW5maWxlLm1hZT4nLCAnLW9tYWUnLCAnPG91dGZpbGUubWFlPic=

> <r_lp_tautomer_probability>
1

> <r_epik_Ionization_Penalty>
0.632392

> <r_epik_Ionization_Penalty_Charging>
0.632323

> <r_epik_Ionization_Penalty_Neutral>
6.90503e-05

> <r_epik_State_Penalty>
0.649284

> <r_epik_Charging_Adjusted_Penalty>
1.28161

> <i_epik_Tot_Q>
0

> <i_epik_Tot_abs_Q>
0

> <r_epik_Metal_State_Penalty>
0.309626

> <b_epik_Metal_Only>
0

> <s_lp_Force_Field>
OPLS_2005

> <r_lp_Energy>
42.875

> <b_lp_Chiralities_Consistent>
1

> <s_lp_Variant>
AV-unprocessed.smi:1024-2

> <Gold.Version>
5.8.1

> <Gold.Id.Protein>
6NUR|6NUR_protein|mol2

> <Gold.PLP.Fitness>
49.9767

> <Gold.PLP.PLP>
-50.3483

> <Gold.PLP.part.hbond>
0.0000

> <Gold.PLP.part.metal>
0.0000

> <Gold.PLP.part.buried>
-6.4145

> <Gold.PLP.part.nonpolar>
-43.3236

> <Gold.PLP.part.repulsive>
0.0846

> <Gold.PLP.ligand.clash>
0.0000

> <Gold.PLP.ligand.torsion>
0.2013

> <Gold.PLP.Chemscore.Hbond>
0.0000

> <Gold.PLP.Chemscore.CHOScore>
0.0000

> <Gold.PLP.Chemscore.Metal>
0.0000

> <Gold.PLP.Chemscore.Internal.Correction>
0.0310

> <Gold.Rescore>
     Score         DG    S(hbond)    S(metal)    S(lipo)     H(rot)  DE(clash)    DE(int)     intcor
     19.24     -19.46       0.80        0.00     129.88       1.52       0.06       0.17       ----

> <Gold.Chemscore.Fitness>
19.2391

> <Gold.Chemscore.DG>
-19.4642

> <Gold.Chemscore.ZeroCoef>
-5.4800

> <Gold.Chemscore.Hbond>
0.8044

> <Gold.Chemscore.Metal>
0.0000

> <Gold.Chemscore.Lipo>
129.8757

> <Gold.Chemscore.Internal_Hbond>
0.0000

> <Gold.Chemscore.DEClash>
0.0585

> <Gold.Chemscore.DEInternal>
0.1666

> <Gold.Chemscore.Rot>
1.5227

> <Gold.Chemscore.Internal.Correction>
   9.000000E+99

> <Gold.Chemscore.Hbond.Weighted>
-2.6867

> <Gold.Chemscore.Metal.Weighted>
-0.0000

> <Gold.Chemscore.Lipo.Weighted>
-15.1955

> <Gold.Chemscore.Internal_Hbond.Weighted>
0.0000

> <Gold.Chemscore.DEClash.Weighted>
0.0585

> <Gold.Chemscore.DEInternal.Weighted>
0.1666

> <Gold.Chemscore.Rot.Weighted>
3.8980

> <Gold.Chemscore.Internal.Correction.Weighted>
   9.000000E+99

> <Gold.Protein.RotatedTorsions>
[ 6907 6896 6895 6894 ] final    7.30 input  -60.11 | X-H torsion
[ 7974 7965 7964 7962 ] final  124.19 input  175.53 | X-H torsion
[ 8008 7997 7996 7995 ] final  174.81 input   59.86 | X-H torsion
[ 10167 10162 10161 10158 ] final   49.03 input  -65.29 | X-H torsion
[ 10718 10713 10712 10709 ] final  -21.48 input   66.30 | X-H torsion
[ 10763 10752 10751 10750 ] final  167.86 input  -60.55 | X-H torsion
[ 11005 11000 10999 10996 ] final   86.72 input  -57.11 | X-H torsion

> <Gold.Protein.ActiveResidues>
 VAL166  LYS551  ARG553  GLY616  TRP617  ASP618  TYR619  PRO620  LYS621  CYS622 
 ASP623  PHE694  ASN695  SER759  ASP760  ASP761  ALA762  ILE779  LEU786  VAL792 
 PHE793  MET794  SER795  GLU796  ALA797  LYS798  CYS799  TRP800  GLU811  SER814 

> <Gold.Protein.RotatedAtoms>
  151.6877  135.0951  160.0227 H   0  0  0  0  0  0  0  0  0  0  0  0  # atno 6907 bound_to 6896
  152.3797  133.6525  159.6160 H   0  0  0  0  0  0  0  0  0  0  0  0  # atno 6908 bound_to 6896
  150.7737  133.9050  159.3394 H   0  0  0  0  0  0  0  0  0  0  0  0  # atno 6909 bound_to 6896
  145.0872  139.3613  143.4879 H   0  0  0  0  0  0  0  0  0  0  0  0  # atno 7974 bound_to 7965
  156.0935  140.1425  156.9561 H   0  0  0  0  0  0  0  0  0  0  0  0  # atno 8008 bound_to 7997
  154.4657  140.0927  156.7059 H   0  0  0  0  0  0  0  0  0  0  0  0  # atno 8009 bound_to 7997
  155.4879  140.3447  155.4352 H   0  0  0  0  0  0  0  0  0  0  0  0  # atno 8010 bound_to 7997
  140.2871  144.3089  150.6249 H   0  0  0  0  0  0  0  0  0  0  0  0  # atno 10167 bound_to 10162
  156.5176  130.4624  149.6614 H   0  0  0  0  0  0  0  0  0  0  0  0  # atno 10718 bound_to 10713
  154.3601  135.2753  155.2325 H   0  0  0  0  0  0  0  0  0  0  0  0  # atno 10763 bound_to 10752
  154.4517  135.5929  153.6199 H   0  0  0  0  0  0  0  0  0  0  0  0  # atno 10764 bound_to 10752
  152.9844  135.6043  154.3820 H   0  0  0  0  0  0  0  0  0  0  0  0  # atno 10765 bound_to 10752
  139.8937  134.8374  156.2760 H   0  0  0  0  0  0  0  0  0  0  0  0  # atno 11005 bound_to 11000
  146.3531  140.0690  142.8624 LP  0  0  0  0  0  0  0  0  0  0  0  0  # atno 17320 bound_to 7965
  145.1108  140.9404  143.4657 LP  0  0  0  0  0  0  0  0  0  0  0  0  # atno 17321 bound_to 7965
  140.5763  143.2176  151.7509 LP  0  0  0  0  0  0  0  0  0  0  0  0  # atno 17342 bound_to 10162
  139.4947  144.4144  152.0045 LP  0  0  0  0  0  0  0  0  0  0  0  0  # atno 17343 bound_to 10162
  156.3180  130.7265  151.2172 LP  0  0  0  0  0  0  0  0  0  0  0  0  # atno 17370 bound_to 10713
  157.7441  131.0463  150.4887 LP  0  0  0  0  0  0  0  0  0  0  0  0  # atno 17371 bound_to 10713
  141.0070  133.7118  156.1050 LP  0  0  0  0  0  0  0  0  0  0  0  0  # atno 17394 bound_to 11000
  140.7420  134.4140  157.5553 LP  0  0  0  0  0  0  0  0  0  0  0  0  # atno 17395 bound_to 11000

$$$$
