AV-unprocessed.smi:1473|AV-procd|sdf|5967|dock6
  -GOLD-   22720 6 53D 1   1.00000     0.00000
 Structure written by MMmdl.
 33 34  0  0  0  0  0  0  0  0  2 V2000
  153.4266  138.1312  154.3106 N   0  0  0  0  0  0  0  0  0  0  0  0
  152.2600  138.6788  155.4461 S   0  0  0  0  0  0  0  0  0  0  0  0
  151.7580  139.9590  154.9218 O   0  0  0  0  0  0  0  0  0  0  0  0
  151.3098  137.5676  155.6156 O   0  0  0  0  0  0  0  0  0  0  0  0
  153.2918  138.8439  156.6847 N   0  5  0  0  0  0  0  0  0  0  0  0
  152.8521  138.5204  158.0327 C   0  0  0  0  0  0  0  0  0  0  0  0
  153.1894  139.6159  159.0376 C   0  0  0  0  0  0  0  0  0  0  0  0
  153.9531  139.3279  160.1889 C   0  0  0  0  0  0  0  0  0  0  0  0
  154.2466  140.3798  161.0743 C   0  0  0  0  0  0  0  0  0  0  0  0
  153.8354  141.6495  160.8799 N   0  0  0  0  0  0  0  0  0  0  0  0
  153.1037  141.9458  159.7782 C   0  0  0  0  0  0  0  0  0  0  0  0
  152.7053  143.2948  159.6283 N   0  0  0  0  0  0  0  0  0  0  0  0
  151.9448  143.9238  160.7054 C   0  0  0  0  0  0  0  0  0  0  0  0
  151.8854  145.4481  160.5100 C   0  0  0  0  0  0  0  0  0  0  0  0
  151.3718  145.7503  159.2179 O   0  0  0  0  0  0  0  0  0  0  0  0
  152.2095  145.2373  158.1882 C   0  0  0  0  0  0  0  0  0  0  0  0
  152.2822  143.7042  158.2890 C   0  0  0  0  0  0  0  0  0  0  0  0
  152.7543  140.9462  158.8341 C   0  0  0  0  0  0  0  0  0  0  0  0
  153.0221  137.9667  153.3895 H   0  0  0  0  0  0  0  0  0  0  0  0
  153.9751  137.3496  154.6668 H   0  0  0  0  0  0  0  0  0  0  0  0
  151.7792  138.3274  158.0723 H   0  0  0  0  0  0  0  0  0  0  0  0
  153.3176  137.5990  158.3841 H   0  0  0  0  0  0  0  0  0  0  0  0
  154.3182  138.3317  160.3983 H   0  0  0  0  0  0  0  0  0  0  0  0
  154.8297  140.1969  161.9647 H   0  0  0  0  0  0  0  0  0  0  0  0
  150.9367  143.5076  160.7246 H   0  0  0  0  0  0  0  0  0  0  0  0
  152.4081  143.7146  161.6700 H   0  0  0  0  0  0  0  0  0  0  0  0
  151.2378  145.8967  161.2636 H   0  0  0  0  0  0  0  0  0  0  0  0
  152.8734  145.8945  160.6337 H   0  0  0  0  0  0  0  0  0  0  0  0
  151.8015  145.5298  157.2207 H   0  0  0  0  0  0  0  0  0  0  0  0
  153.2051  145.6786  158.2593 H   0  0  0  0  0  0  0  0  0  0  0  0
  152.9628  143.3384  157.5204 H   0  0  0  0  0  0  0  0  0  0  0  0
  151.3038  143.2688  158.0821 H   0  0  0  0  0  0  0  0  0  0  0  0
  152.1825  141.1894  157.9499 H   0  0  0  0  0  0  0  0  0  0  0  0
  1  2  1  0  0  0  0
  1 19  1  0  0  0  0
  1 20  1  0  0  0  0
  2  3  2  0  0  0  0
  2  4  2  0  0  0  0
  2  5  1  0  0  0  0
  5  6  1  0  0  0  0
  6  7  1  0  0  0  0
  6 21  1  0  0  0  0
  6 22  1  0  0  0  0
  7 18  1  0  0  0  0
  7  8  2  0  0  0  0
  8  9  1  0  0  0  0
  8 23  1  0  0  0  0
  9 10  2  0  0  0  0
  9 24  1  0  0  0  0
 10 11  1  0  0  0  0
 11 12  1  0  0  0  0
 11 18  2  0  0  0  0
 12 17  1  0  0  0  0
 12 13  1  0  0  0  0
 13 14  1  0  0  0  0
 13 25  1  0  0  0  0
 13 26  1  0  0  0  0
 14 15  1  0  0  0  0
 14 27  1  0  0  0  0
 14 28  1  0  0  0  0
 15 16  1  0  0  0  0
 16 17  1  0  0  0  0
 16 29  1  0  0  0  0
 16 30  1  0  0  0  0
 17 31  1  0  0  0  0
 17 32  1  0  0  0  0
 18 33  1  0  0  0  0
M  CHG  1   5  -1
M  END
> <s_m_source_file>
AV-unprocessed.smi

> <i_m_source_file_index>
1473

> <i_lp_mmshare_version>
43012

> <i_f3d_flags>
0

> <s_epik_input>
W05IMl1TKD1PKSg9TylbTkhdW0NIMl1jMVtjSF1bY0hdbmMoW2NIXTEpTjJbQ0gyXVtDSDJdT1tDSDJdW0NIMl0y

> <s_epik_cmdline>
J2VwaWtfcHl0aG9uJywgJy1waCcsICc3LjAnLCAnLXRuJywgJzgnLCAnLW1hJywgJzIwMCcsICctbWV0YWxfYmluZGluZycsICctaW1hZScsICc8aW5maWxlLm1hZT4nLCAnLW9tYWUnLCAnPG91dGZpbGUubWFlPic=

> <r_lp_tautomer_probability>
1

> <r_epik_Ionization_Penalty>
1.02326

> <r_epik_Ionization_Penalty_Charging>
0.789613

> <r_epik_Ionization_Penalty_Neutral>
0.233646

> <r_epik_State_Penalty>
0.93706

> <r_epik_Charging_Adjusted_Penalty>
1.72667

> <i_epik_Tot_Q>
-1

> <i_epik_Tot_abs_Q>
1

> <r_epik_Metal_State_Penalty>
0.736197

> <b_epik_Metal_Only>
0

> <s_lp_Force_Field>
OPLS_2005

> <r_lp_Energy>
11.8177

> <b_lp_Chiralities_Consistent>
1

> <s_lp_Variant>
AV-unprocessed.smi:1473-2

> <Gold.Version>
5.8.1

> <Gold.Id.Protein>
6NUR|6NUR_protein|mol2

> <Gold.PLP.Fitness>
45.3274

> <Gold.PLP.PLP>
-36.8046

> <Gold.PLP.part.hbond>
-4.0277

> <Gold.PLP.part.metal>
0.0000

> <Gold.PLP.part.buried>
-6.8134

> <Gold.PLP.part.nonpolar>
-25.5248

> <Gold.PLP.part.repulsive>
0.2458

> <Gold.PLP.ligand.clash>
0.0000

> <Gold.PLP.ligand.torsion>
0.9237

> <Gold.PLP.Chemscore.Hbond>
3.0000

> <Gold.PLP.Chemscore.CHOScore>
0.0000

> <Gold.PLP.Chemscore.Metal>
0.0000

> <Gold.Chemscore.Hbonds>
donor molecule, donor type, donor heavy atom, donor atom, acceptor molecule, acceptor atom, score
      P1  H  7989  7998       L1     3  0.99
      P1  H  7997  8010       L1     5  2.00

> <Gold.PLP.Chemscore.Internal.Correction>
1.3703

> <Gold.Rescore>
     Score         DG    S(hbond)    S(metal)    S(lipo)     H(rot)  DE(clash)    DE(int)     intcor
     15.59     -16.79       1.90        0.00      83.71       1.88       0.27       0.94       ----

> <Gold.Chemscore.Fitness>
15.5858

> <Gold.Chemscore.DG>
-16.7920

> <Gold.Chemscore.ZeroCoef>
-5.4800

> <Gold.Chemscore.Hbond>
1.8964

> <Gold.Chemscore.Metal>
0.0000

> <Gold.Chemscore.Lipo>
83.7138

> <Gold.Chemscore.Internal_Hbond>
0.0000

> <Gold.Chemscore.DEClash>
0.2657

> <Gold.Chemscore.DEInternal>
0.9404

> <Gold.Chemscore.Rot>
1.8814

> <Gold.Chemscore.Internal.Correction>
   9.000000E+99

> <Gold.Chemscore.Hbonds>
donor molecule, donor type, donor heavy atom, donor atom, acceptor molecule, acceptor atom, score
      P1  H  7989  7998       L1     3  0.94
      P1  H  7997  8010       L1     5  0.86

> <Gold.Chemscore.Hbond.Weighted>
-6.3339

> <Gold.Chemscore.Metal.Weighted>
-0.0000

> <Gold.Chemscore.Lipo.Weighted>
-9.7945

> <Gold.Chemscore.Internal_Hbond.Weighted>
0.0000

> <Gold.Chemscore.DEClash.Weighted>
0.2657

> <Gold.Chemscore.DEInternal.Weighted>
0.9404

> <Gold.Chemscore.Rot.Weighted>
4.8165

> <Gold.Chemscore.Internal.Correction.Weighted>
   9.000000E+99

> <Gold.Protein.RotatedTorsions>
[ 6907 6896 6895 6894 ] final -127.28 input  -60.11 | X-H torsion
[ 7974 7965 7964 7962 ] final  168.55 input  175.53 | X-H torsion
[ 8008 7997 7996 7995 ] final   63.54 input   59.86 | X-H torsion
[ 10167 10162 10161 10158 ] final  -14.27 input  -65.29 | X-H torsion
[ 10718 10713 10712 10709 ] final   29.50 input   66.30 | X-H torsion
[ 10763 10752 10751 10750 ] final   55.64 input  -60.55 | X-H torsion
[ 11005 11000 10999 10996 ] final  -43.82 input  -57.11 | X-H torsion

> <Gold.Protein.ActiveResidues>
 VAL166  LYS551  ARG553  GLY616  TRP617  ASP618  TYR619  PRO620  LYS621  CYS622 
 ASP623  PHE694  ASN695  SER759  ASP760  ASP761  ALA762  ILE779  LEU786  VAL792 
 PHE793  MET794  SER795  GLU796  ALA797  LYS798  CYS799  TRP800  GLU811  SER814 

> <Gold.Protein.RotatedAtoms>
  150.9056  133.7062  159.2867 H   0  0  0  0  0  0  0  0  0  0  0  0  # atno 6907 bound_to 6896
  151.4566  135.1033  159.9722 H   0  0  0  0  0  0  0  0  0  0  0  0  # atno 6908 bound_to 6896
  152.4901  133.8429  159.7217 H   0  0  0  0  0  0  0  0  0  0  0  0  # atno 6909 bound_to 6896
  144.7385  139.8923  143.6404 H   0  0  0  0  0  0  0  0  0  0  0  0  # atno 7974 bound_to 7965
  155.6319  140.3496  155.4685 H   0  0  0  0  0  0  0  0  0  0  0  0  # atno 8008 bound_to 7997
  155.9996  140.1210  157.0583 H   0  0  0  0  0  0  0  0  0  0  0  0  # atno 8009 bound_to 7997
  154.4244  140.1103  156.5665 H   0  0  0  0  0  0  0  0  0  0  0  0  # atno 8010 bound_to 7997
  140.7198  143.5339  150.9487 H   0  0  0  0  0  0  0  0  0  0  0  0  # atno 10167 bound_to 10162
  157.2474  130.7098  149.6388 H   0  0  0  0  0  0  0  0  0  0  0  0  # atno 10718 bound_to 10713
  152.9820  135.5704  154.5099 H   0  0  0  0  0  0  0  0  0  0  0  0  # atno 10763 bound_to 10752
  154.4605  135.2781  155.1718 H   0  0  0  0  0  0  0  0  0  0  0  0  # atno 10764 bound_to 10752
  154.3308  135.6249  153.5604 H   0  0  0  0  0  0  0  0  0  0  0  0  # atno 10765 bound_to 10752
  141.0409  133.6780  156.2787 H   0  0  0  0  0  0  0  0  0  0  0  0  # atno 11005 bound_to 11000
  146.1132  139.4140  143.0274 LP  0  0  0  0  0  0  0  0  0  0  0  0  # atno 17320 bound_to 7965
  145.7412  141.0007  143.1300 LP  0  0  0  0  0  0  0  0  0  0  0  0  # atno 17321 bound_to 7965
  139.9060  143.6778  152.3123 LP  0  0  0  0  0  0  0  0  0  0  0  0  # atno 17342 bound_to 10162
  139.7144  144.7614  151.1058 LP  0  0  0  0  0  0  0  0  0  0  0  0  # atno 17343 bound_to 10162
  155.9667  130.4438  150.5438 LP  0  0  0  0  0  0  0  0  0  0  0  0  # atno 17370 bound_to 10713
  157.3314  131.0700  151.1858 LP  0  0  0  0  0  0  0  0  0  0  0  0  # atno 17371 bound_to 10713
  140.6235  134.5337  157.5550 LP  0  0  0  0  0  0  0  0  0  0  0  0  # atno 17394 bound_to 11000
  139.9275  134.8027  156.1025 LP  0  0  0  0  0  0  0  0  0  0  0  0  # atno 17395 bound_to 11000

$$$$
