AV-unprocessed.smi:927|AV-procd|sdf|4190|dock10
  -GOLD-   22720 2 93D 1   1.00000     0.00000
 Structure written by MMmdl.
 20 20  0  0  0  0  0  0  0  0  1 V2000
  144.8901  137.6673  152.1915 N   0  0  0  0  0  0  0  0  0  0  0  0
  145.2513  136.2525  152.0085 C   0  0  0  0  0  0  0  0  0  0  0  0
  144.6245  135.6331  150.7468 C   0  0  1  0  0  0  0  0  0  0  0  0
  145.2351  136.2174  149.6132 O   0  0  0  0  0  0  0  0  0  0  0  0
  144.7914  134.1212  150.7407 C   0  0  0  0  0  0  0  0  0  0  0  0
  146.0634  133.5260  150.8862 C   0  0  0  0  0  0  0  0  0  0  0  0
  146.1551  132.1200  150.8809 C   0  0  0  0  0  0  0  0  0  0  0  0
  145.0853  131.3077  150.7446 N   0  0  0  0  0  0  0  0  0  0  0  0
  143.8710  131.8818  150.6076 C   0  0  0  0  0  0  0  0  0  0  0  0
  143.6700  133.2768  150.5993 C   0  0  0  0  0  0  0  0  0  0  0  0
  145.6185  138.1572  152.7090 H   0  0  0  0  0  0  0  0  0  0  0  0
  144.8004  138.1315  151.2890 H   0  0  0  0  0  0  0  0  0  0  0  0
  146.3355  136.1345  151.9910 H   0  0  0  0  0  0  0  0  0  0  0  0
  144.9018  135.6965  152.8790 H   0  0  0  0  0  0  0  0  0  0  0  0
  143.5592  135.8664  150.7132 H   0  0  0  0  0  0  0  0  0  0  0  0
  144.7544  136.9978  149.3843 H   0  0  0  0  0  0  0  0  0  0  0  0
  146.9507  134.1313  151.0011 H   0  0  0  0  0  0  0  0  0  0  0  0
  147.1138  131.6350  150.9904 H   0  0  0  0  0  0  0  0  0  0  0  0
  143.0327  131.2092  150.5021 H   0  0  0  0  0  0  0  0  0  0  0  0
  142.6759  133.6840  150.4883 H   0  0  0  0  0  0  0  0  0  0  0  0
  1  2  1  0  0  0  0
  1 11  1  0  0  0  0
  1 12  1  0  0  0  0
  2  3  1  0  0  0  0
  2 13  1  0  0  0  0
  2 14  1  0  0  0  0
  3  4  1  0  0  0  0
  3  5  1  0  0  0  0
  3 15  1  0  0  0  0
  4 16  1  0  0  0  0
  5 10  1  0  0  0  0
  5  6  2  0  0  0  0
  6  7  1  0  0  0  0
  6 17  1  0  0  0  0
  7  8  2  0  0  0  0
  7 18  1  0  0  0  0
  8  9  1  0  0  0  0
  9 10  2  0  0  0  0
  9 19  1  0  0  0  0
 10 20  1  0  0  0  0
M  END
> <s_m_source_file>
AV-unprocessed.smi

> <i_m_source_file_index>
927

> <i_lp_mmshare_version>
43012

> <i_f3d_flags>
0

> <s_epik_input>
W05IMl1bQ0gyXVtDQEhdKFtPSF0pYzFbY0hdW2NIXW5bY0hdW2NIXTE=

> <s_epik_cmdline>
J2VwaWtfcHl0aG9uJywgJy1waCcsICc3LjAnLCAnLXRuJywgJzgnLCAnLW1hJywgJzIwMCcsICctbWV0YWxfYmluZGluZycsICctaW1hZScsICc8aW5maWxlLm1hZT4nLCAnLW9tYWUnLCAnPG91dGZpbGUubWFlPic=

> <r_epik_Ionization_Penalty>
2.24668

> <r_epik_Ionization_Penalty_Charging>
0

> <r_epik_Ionization_Penalty_Neutral>
2.24668

> <r_epik_State_Penalty>
2.36938

> <r_epik_Charging_Adjusted_Penalty>
2.36938

> <i_epik_Tot_Q>
0

> <i_epik_Tot_abs_Q>
0

> <r_epik_Metal_State_Penalty>
2.3492

> <b_epik_Metal_Only>
0

> <s_lp_Force_Field>
OPLS_2005

> <r_lp_Energy>
12.0252

> <b_lp_Chiralities_Consistent>
1

> <s_lp_Variant>
AV-unprocessed.smi:927-4

> <Gold.Version>
5.8.1

> <Gold.Id.Protein>
6NUR|6NUR_protein|mol2

> <Gold.PLP.Fitness>
33.4443

> <Gold.PLP.PLP>
-21.6824

> <Gold.PLP.part.hbond>
-3.9724

> <Gold.PLP.part.metal>
0.0000

> <Gold.PLP.part.buried>
-2.1254

> <Gold.PLP.part.nonpolar>
-16.4851

> <Gold.PLP.part.repulsive>
0.1115

> <Gold.PLP.ligand.clash>
0.0000

> <Gold.PLP.ligand.torsion>
0.1190

> <Gold.PLP.Chemscore.Hbond>
2.0000

> <Gold.PLP.Chemscore.CHOScore>
1.9993

> <Gold.PLP.Chemscore.Metal>
0.0000

> <Gold.Chemscore.Hbonds>
donor molecule, donor type, donor heavy atom, donor atom, acceptor molecule, acceptor atom, score
      L1  H     1    12       P1 10171  1.00
      L1  H     4    16       P1 10171  1.00
      L1  C     7    18       P1 10747  1.00
      L1  C     9    19       P1 10952  0.95

> <Gold.PLP.Chemscore.Internal.Correction>
0.0021

> <Gold.Rescore>
     Score         DG    S(hbond)    S(metal)    S(lipo)     H(rot)  DE(clash)    DE(int)     intcor
     13.57     -13.68       2.00        0.00      53.52       1.85       0.03       0.09       ----

> <Gold.Chemscore.Fitness>
13.5669

> <Gold.Chemscore.DG>
-13.6825

> <Gold.Chemscore.ZeroCoef>
-5.4800

> <Gold.Chemscore.Hbond>
1.9957

> <Gold.Chemscore.Metal>
0.0000

> <Gold.Chemscore.Lipo>
53.5167

> <Gold.Chemscore.Internal_Hbond>
0.0000

> <Gold.Chemscore.DEClash>
0.0291

> <Gold.Chemscore.DEInternal>
0.0865

> <Gold.Chemscore.Rot>
1.8455

> <Gold.Chemscore.Internal.Correction>
   9.000000E+99

> <Gold.Chemscore.Hbonds>
donor molecule, donor type, donor heavy atom, donor atom, acceptor molecule, acceptor atom, score
      L1  H     1    12       P1 10171  0.97
      L1  H     4    16       P1 10171  0.98

> <Gold.Chemscore.Hbond.Weighted>
-6.6655

> <Gold.Chemscore.Metal.Weighted>
-0.0000

> <Gold.Chemscore.Lipo.Weighted>
-6.2615

> <Gold.Chemscore.Internal_Hbond.Weighted>
0.0000

> <Gold.Chemscore.DEClash.Weighted>
0.0291

> <Gold.Chemscore.DEInternal.Weighted>
0.0865

> <Gold.Chemscore.Rot.Weighted>
4.7245

> <Gold.Chemscore.Internal.Correction.Weighted>
   9.000000E+99

> <Gold.Protein.RotatedTorsions>
[ 6907 6896 6895 6894 ] final   74.74 input  -60.11 | X-H torsion
[ 7974 7965 7964 7962 ] final  157.29 input  175.53 | X-H torsion
[ 8008 7997 7996 7995 ] final  -70.40 input   59.86 | X-H torsion
[ 10167 10162 10161 10158 ] final  137.71 input  -65.29 | X-H torsion
[ 10718 10713 10712 10709 ] final -111.02 input   66.30 | X-H torsion
[ 10763 10752 10751 10750 ] final  -96.18 input  -60.55 | X-H torsion
[ 11005 11000 10999 10996 ] final   98.66 input  -57.11 | X-H torsion

> <Gold.Protein.ActiveResidues>
 VAL166  LYS551  ARG553  GLY616  TRP617  ASP618  TYR619  PRO620  LYS621  CYS622 
 ASP623  PHE694  ASN695  SER759  ASP760  ASP761  ALA762  ILE779  LEU786  VAL792 
 PHE793  MET794  SER795  GLU796  ALA797  LYS798  CYS799  TRP800  GLU811  SER814 

> <Gold.Protein.RotatedAtoms>
  152.4991  134.4225  159.9485 H   0  0  0  0  0  0  0  0  0  0  0  0  # atno 6907 bound_to 6896
  151.4199  133.3695  159.2762 H   0  0  0  0  0  0  0  0  0  0  0  0  # atno 6908 bound_to 6896
  150.9230  134.8670  159.7561 H   0  0  0  0  0  0  0  0  0  0  0  0  # atno 6909 bound_to 6896
  144.7912  139.7320  143.6220 H   0  0  0  0  0  0  0  0  0  0  0  0  # atno 7974 bound_to 7965
  154.5009  140.0835  156.7795 H   0  0  0  0  0  0  0  0  0  0  0  0  # atno 8008 bound_to 7997
  155.4005  140.3437  155.4238 H   0  0  0  0  0  0  0  0  0  0  0  0  # atno 8009 bound_to 7997
  156.1455  140.1542  156.8841 H   0  0  0  0  0  0  0  0  0  0  0  0  # atno 8010 bound_to 7997
  139.5135  144.6394  151.5609 H   0  0  0  0  0  0  0  0  0  0  0  0  # atno 10167 bound_to 10162
  156.0623  130.5845  150.8316 H   0  0  0  0  0  0  0  0  0  0  0  0  # atno 10718 bound_to 10713
  154.7216  135.5093  153.8821 H   0  0  0  0  0  0  0  0  0  0  0  0  # atno 10763 bound_to 10752
  153.0867  135.6647  153.9943 H   0  0  0  0  0  0  0  0  0  0  0  0  # atno 10764 bound_to 10752
  153.9764  135.3033  155.3403 H   0  0  0  0  0  0  0  0  0  0  0  0  # atno 10765 bound_to 10752
  139.8772  134.9059  156.4489 H   0  0  0  0  0  0  0  0  0  0  0  0  # atno 11005 bound_to 11000
  146.2164  139.5557  142.9647 LP  0  0  0  0  0  0  0  0  0  0  0  0  # atno 17320 bound_to 7965
  145.5790  141.0385  143.2132 LP  0  0  0  0  0  0  0  0  0  0  0  0  # atno 17321 bound_to 7965
  140.6155  143.9356  150.6486 LP  0  0  0  0  0  0  0  0  0  0  0  0  # atno 17342 bound_to 10162
  140.2612  143.3522  152.1321 LP  0  0  0  0  0  0  0  0  0  0  0  0  # atno 17343 bound_to 10162
  157.5641  131.0946  150.9516 LP  0  0  0  0  0  0  0  0  0  0  0  0  # atno 17370 bound_to 10713
  156.9747  130.5504  149.5292 LP  0  0  0  0  0  0  0  0  0  0  0  0  # atno 17371 bound_to 10713
  140.8946  133.7823  155.9610 LP  0  0  0  0  0  0  0  0  0  0  0  0  # atno 17394 bound_to 11000
  140.8717  134.2719  157.5187 LP  0  0  0  0  0  0  0  0  0  0  0  0  # atno 17395 bound_to 11000

$$$$
