AV-unprocessed.smi:113|AV-procd|sdf|1094|dock1
  -GOLD-   2262018203D 1   1.00000     0.00000
 Structure written by MMmdl.
 52 55  0  0  0  0  0  0  0  0  1 V2000
  152.9960  138.5627  159.2692 C   0  0  0  0  0  0  0  0  0  0  0  0
  152.5458  139.9882  159.0253 C   0  0  0  0  0  0  0  0  0  0  0  0
  151.9142  140.3476  157.8214 C   0  0  0  0  0  0  0  0  0  0  0  0
  151.5149  141.6903  157.6300 C   0  0  0  0  0  0  0  0  0  0  0  0
  150.8231  142.1354  156.3363 C   0  0  0  0  0  0  0  0  0  0  0  0
  149.4278  141.7527  156.1738 N   0  0  0  0  0  0  0  0  0  0  0  0
  149.0153  141.2789  154.9038 C   0  0  0  0  0  0  0  0  0  0  0  0
  149.8105  141.1633  153.9688 O   0  0  0  0  0  0  0  0  0  0  0  0
  147.5881  140.9675  154.7885 C   0  0  0  0  0  0  0  0  0  0  0  0
  147.0702  140.4625  153.4511 C   0  0  0  0  0  0  0  0  0  0  0  0
  146.7727  141.1448  155.8556 C   0  0  0  0  0  0  0  0  0  0  0  0
  147.2063  141.6055  157.0870 N   0  0  0  0  0  0  0  0  0  0  0  0
  146.2360  141.8137  158.2230 C   0  0  1  0  0  0  0  0  0  0  0  0
  146.2103  143.2744  158.6524 C   0  0  0  0  0  0  0  0  0  0  0  0
  144.8124  143.3932  159.2272 C   0  0  2  0  0  0  0  0  0  0  0  0
  144.8260  143.1037  160.6120 O   0  0  0  0  0  0  0  0  0  0  0  0
  144.0005  142.3257  158.4652 C   0  0  1  0  0  0  0  0  0  0  0  0
  143.0599  142.9129  157.4009 C   0  0  0  0  0  0  0  0  0  0  0  0
  143.8031  143.5552  156.3870 O   0  0  0  0  0  0  0  0  0  0  0  0
  144.9512  141.5042  157.7879 O   0  0  0  0  0  0  0  0  0  0  0  0
  148.5608  141.9457  157.2726 C   0  0  0  0  0  0  0  0  0  0  0  0
  148.9583  142.4128  158.3427 O   0  0  0  0  0  0  0  0  0  0  0  0
  151.7777  142.6173  158.6745 C   0  0  0  0  0  0  0  0  0  0  0  0
  151.4137  143.9810  158.5617 C   0  0  0  0  0  0  0  0  0  0  0  0
  151.6834  144.8828  159.6064 C   0  0  0  0  0  0  0  0  0  0  0  0
  152.3184  144.4313  160.7748 C   0  0  0  0  0  0  0  0  0  0  0  0
  152.6834  143.0784  160.8949 C   0  0  0  0  0  0  0  0  0  0  0  0
  152.4241  142.1556  159.8591 C   0  0  0  0  0  0  0  0  0  0  0  0
  152.7947  140.8658  160.0166 N   0  0  0  0  0  0  0  0  0  0  0  0
  152.5225  137.8750  158.5677 H   0  0  0  0  0  0  0  0  0  0  0  0
  152.7385  138.2436  160.2797 H   0  0  0  0  0  0  0  0  0  0  0  0
  154.0767  138.4836  159.1489 H   0  0  0  0  0  0  0  0  0  0  0  0
  151.7476  139.5943  157.0664 H   0  0  0  0  0  0  0  0  0  0  0  0
  150.8760  143.2204  156.2344 H   0  0  0  0  0  0  0  0  0  0  0  0
  151.3670  141.7562  155.4696 H   0  0  0  0  0  0  0  0  0  0  0  0
  145.9983  140.2645  153.4793 H   0  0  0  0  0  0  0  0  0  0  0  0
  147.5730  139.5352  153.1737 H   0  0  0  0  0  0  0  0  0  0  0  0
  147.2526  141.1993  152.6681 H   0  0  0  0  0  0  0  0  0  0  0  0
  145.7224  140.9229  155.7317 H   0  0  0  0  0  0  0  0  0  0  0  0
  146.5030  141.1254  159.0268 H   0  0  0  0  0  0  0  0  0  0  0  0
  147.0164  143.5037  159.3505 H   0  0  0  0  0  0  0  0  0  0  0  0
  146.3076  143.9120  157.7723 H   0  0  0  0  0  0  0  0  0  0  0  0
  144.4135  144.3995  159.0953 H   0  0  0  0  0  0  0  0  0  0  0  0
  144.5032  143.8572  161.0822 H   0  0  0  0  0  0  0  0  0  0  0  0
  143.4294  141.6977  159.1515 H   0  0  0  0  0  0  0  0  0  0  0  0
  142.4314  142.1367  156.9628 H   0  0  0  0  0  0  0  0  0  0  0  0
  142.3951  143.6494  157.8532 H   0  0  0  0  0  0  0  0  0  0  0  0
  144.7145  143.5582  156.6368 H   0  0  0  0  0  0  0  0  0  0  0  0
  150.9245  144.3609  157.6779 H   0  0  0  0  0  0  0  0  0  0  0  0
  151.4025  145.9213  159.5101 H   0  0  0  0  0  0  0  0  0  0  0  0
  152.5266  145.1215  161.5792 H   0  0  0  0  0  0  0  0  0  0  0  0
  153.1721  142.7432  161.7981 H   0  0  0  0  0  0  0  0  0  0  0  0
  1  2  1  0  0  0  0
  1 30  1  0  0  0  0
  1 31  1  0  0  0  0
  1 32  1  0  0  0  0
  2 29  1  0  0  0  0
  2  3  2  0  0  0  0
  3  4  1  0  0  0  0
  3 33  1  0  0  0  0
  4  5  1  0  0  0  0
  4 23  2  0  0  0  0
  5  6  1  0  0  0  0
  5 34  1  0  0  0  0
  5 35  1  0  0  0  0
  6 21  1  0  0  0  0
  6  7  1  0  0  0  0
  7  8  2  0  0  0  0
  7  9  1  0  0  0  0
  9 10  1  0  0  0  0
  9 11  2  0  0  0  0
 10 36  1  0  0  0  0
 10 37  1  0  0  0  0
 10 38  1  0  0  0  0
 11 12  1  0  0  0  0
 11 39  1  0  0  0  0
 12 13  1  0  0  0  0
 12 21  1  0  0  0  0
 13 20  1  0  0  0  0
 13 14  1  0  0  0  0
 13 40  1  0  0  0  0
 14 15  1  0  0  0  0
 14 41  1  0  0  0  0
 14 42  1  0  0  0  0
 15 16  1  0  0  0  0
 15 17  1  0  0  0  0
 15 43  1  0  0  0  0
 16 44  1  0  0  0  0
 17 18  1  0  0  0  0
 17 20  1  0  0  0  0
 17 45  1  0  0  0  0
 18 19  1  0  0  0  0
 18 46  1  0  0  0  0
 18 47  1  0  0  0  0
 19 48  1  0  0  0  0
 21 22  2  0  0  0  0
 23 28  1  0  0  0  0
 23 24  1  0  0  0  0
 24 25  2  0  0  0  0
 24 49  1  0  0  0  0
 25 26  1  0  0  0  0
 25 50  1  0  0  0  0
 26 27  2  0  0  0  0
 26 51  1  0  0  0  0
 27 28  1  0  0  0  0
 27 52  1  0  0  0  0
 28 29  2  0  0  0  0
M  END
> <s_m_source_file>
AV-unprocessed.smi

> <i_m_source_file_index>
113

> <i_lp_mmshare_version>
43012

> <i_f3d_flags>
0

> <s_epik_input>
W2NIXTFbY0hdW2NIXVtjSF1jKGMxMiluYyhbQ0gzXSlbY0hdYzJbQ0gyXW4zYyg9TyljKFtDSDNdKVtjSF1uKGMzPU8pW0NAQEhdNFtDSDJdW0NAQEhdKFtPSF0pW0NASF0oTzQpW0NIMl1bT0hd

> <s_epik_cmdline>
J2VwaWtfcHl0aG9uJywgJy1waCcsICc3LjAnLCAnLXRuJywgJzgnLCAnLW1hJywgJzIwMCcsICctbWV0YWxfYmluZGluZycsICctaW1hZScsICc8aW5maWxlLm1hZT4nLCAnLW9tYWUnLCAnPG91dGZpbGUubWFlPic=

> <r_lp_tautomer_probability>
1

> <r_epik_Ionization_Penalty>
0.214728

> <r_epik_Ionization_Penalty_Charging>
3.04883e-08

> <r_epik_Ionization_Penalty_Neutral>
0.214728

> <r_epik_State_Penalty>
0.204913

> <r_epik_Charging_Adjusted_Penalty>
0.204913

> <i_epik_Tot_Q>
0

> <i_epik_Tot_abs_Q>
0

> <r_epik_Metal_State_Penalty>
0.000244761

> <b_epik_Metal_Only>
0

> <s_epik_Chemistry_Notes>
This compound contains an acetal/aminal-like group ( X-CH(R)-Y where X, Y are N, S, or O) that may be acid/base labile, releasing an aldehyde.

> <s_lp_Force_Field>
OPLS_2005

> <r_lp_Energy>
39.8803

> <b_lp_Chiralities_Consistent>
1

> <s_lp_Variant>
AV-unprocessed.smi:113-4

> <Gold.Version>
5.8.1

> <Gold.Id.Protein>
6NUR|6NUR_protein|mol2

> <Gold.PLP.Fitness>
45.7518

> <Gold.PLP.PLP>
-43.3965

> <Gold.PLP.part.hbond>
-1.9495

> <Gold.PLP.part.metal>
0.0000

> <Gold.PLP.part.buried>
-5.5648

> <Gold.PLP.part.nonpolar>
-36.7108

> <Gold.PLP.part.repulsive>
0.9607

> <Gold.PLP.ligand.clash>
0.0000

> <Gold.PLP.ligand.torsion>
0.4139

> <Gold.PLP.Chemscore.Hbond>
1.0392

> <Gold.PLP.Chemscore.CHOScore>
0.0000

> <Gold.PLP.Chemscore.Metal>
0.0000

> <Gold.Chemscore.Hbonds>
donor molecule, donor type, donor heavy atom, donor atom, acceptor molecule, acceptor atom, score
      P1  H  7989  7998       L1     8  0.37
      P1  H  8011  8017       L1     8  0.75

> <Gold.PLP.Chemscore.Internal.Correction>
0.0654

> <Gold.Rescore>
     Score         DG    S(hbond)    S(metal)    S(lipo)     H(rot)  DE(clash)    DE(int)     intcor
     10.56     -15.76       1.09        0.00     121.12       2.95       1.28       3.92       ----

> <Gold.Chemscore.Fitness>
10.5578

> <Gold.Chemscore.DG>
-15.7616

> <Gold.Chemscore.ZeroCoef>
-5.4800

> <Gold.Chemscore.Hbond>
1.0943

> <Gold.Chemscore.Metal>
0.0000

> <Gold.Chemscore.Lipo>
121.1167

> <Gold.Chemscore.Internal_Hbond>
0.0000

> <Gold.Chemscore.DEClash>
1.2804

> <Gold.Chemscore.DEInternal>
3.9234

> <Gold.Chemscore.Rot>
2.9469

> <Gold.Chemscore.Internal.Correction>
   9.000000E+99

> <Gold.Chemscore.Hbonds>
donor molecule, donor type, donor heavy atom, donor atom, acceptor molecule, acceptor atom, score
      P1  H  7989  7998       L1     8  0.36
      P1  H  8011  8017       L1     8  0.71

> <Gold.Chemscore.Hbond.Weighted>
-3.6549

> <Gold.Chemscore.Metal.Weighted>
-0.0000

> <Gold.Chemscore.Lipo.Weighted>
-14.1707

> <Gold.Chemscore.Internal_Hbond.Weighted>
0.0000

> <Gold.Chemscore.DEClash.Weighted>
1.2804

> <Gold.Chemscore.DEInternal.Weighted>
3.9234

> <Gold.Chemscore.Rot.Weighted>
7.5439

> <Gold.Chemscore.Internal.Correction.Weighted>
   9.000000E+99

> <Gold.Protein.RotatedTorsions>
[ 6907 6896 6895 6894 ] final -129.15 input  -60.11 | X-H torsion
[ 7974 7965 7964 7962 ] final   30.91 input  175.53 | X-H torsion
[ 8008 7997 7996 7995 ] final   51.35 input   59.86 | X-H torsion
[ 10167 10162 10161 10158 ] final  -18.88 input  -65.29 | X-H torsion
[ 10718 10713 10712 10709 ] final   51.35 input   66.30 | X-H torsion
[ 10763 10752 10751 10750 ] final -150.80 input  -60.55 | X-H torsion
[ 11005 11000 10999 10996 ] final -128.95 input  -57.11 | X-H torsion

> <Gold.Protein.ActiveResidues>
 VAL166  LYS551  ARG553  GLY616  TRP617  ASP618  TYR619  PRO620  LYS621  CYS622 
 ASP623  PHE694  ASN695  SER759  ASP760  ASP761  ALA762  ILE779  LEU786  VAL792 
 PHE793  MET794  SER795  GLU796  ALA797  LYS798  CYS799  TRP800  GLU811  SER814 

> <Gold.Protein.RotatedAtoms>
  150.9256  133.6828  159.2822 H   0  0  0  0  0  0  0  0  0  0  0  0  # atno 6907 bound_to 6896
  151.4268  135.1003  159.9640 H   0  0  0  0  0  0  0  0  0  0  0  0  # atno 6908 bound_to 6896
  152.5001  133.8695  159.7346 H   0  0  0  0  0  0  0  0  0  0  0  0  # atno 6909 bound_to 6896
  146.1582  139.6726  142.9051 H   0  0  0  0  0  0  0  0  0  0  0  0  # atno 7974 bound_to 7965
  155.4339  140.3451  155.4283 H   0  0  0  0  0  0  0  0  0  0  0  0  # atno 8008 bound_to 7997
  156.1320  140.1517  156.9082 H   0  0  0  0  0  0  0  0  0  0  0  0  # atno 8009 bound_to 7997
  154.4902  140.0843  156.7557 H   0  0  0  0  0  0  0  0  0  0  0  0  # atno 8010 bound_to 7997
  140.7263  143.4873  151.0038 H   0  0  0  0  0  0  0  0  0  0  0  0  # atno 10167 bound_to 10162
  157.4972  130.8414  149.8273 H   0  0  0  0  0  0  0  0  0  0  0  0  # atno 10718 bound_to 10713
  154.8097  135.3275  154.7338 H   0  0  0  0  0  0  0  0  0  0  0  0  # atno 10763 bound_to 10752
  153.7990  135.6905  153.4863 H   0  0  0  0  0  0  0  0  0  0  0  0  # atno 10764 bound_to 10752
  153.1866  135.4566  155.0043 H   0  0  0  0  0  0  0  0  0  0  0  0  # atno 10765 bound_to 10752
  140.9473  134.1113  157.4096 H   0  0  0  0  0  0  0  0  0  0  0  0  # atno 11005 bound_to 11000
  145.4654  141.0434  143.2728 LP  0  0  0  0  0  0  0  0  0  0  0  0  # atno 17320 bound_to 7965
  144.7992  139.6174  143.7079 LP  0  0  0  0  0  0  0  0  0  0  0  0  # atno 17321 bound_to 7965
  139.8575  143.7358  152.3175 LP  0  0  0  0  0  0  0  0  0  0  0  0  # atno 17342 bound_to 10162
  139.7561  144.7520  151.0433 LP  0  0  0  0  0  0  0  0  0  0  0  0  # atno 17343 bound_to 10162
  156.0207  130.3796  150.1969 LP  0  0  0  0  0  0  0  0  0  0  0  0  # atno 17370 bound_to 10713
  157.0159  130.9965  151.3353 LP  0  0  0  0  0  0  0  0  0  0  0  0  # atno 17371 bound_to 10713
  139.8837  135.0055  156.6318 LP  0  0  0  0  0  0  0  0  0  0  0  0  # atno 17394 bound_to 11000
  140.7652  133.8784  155.8449 LP  0  0  0  0  0  0  0  0  0  0  0  0  # atno 17395 bound_to 11000

$$$$
