AV-unprocessed.smi:1512|AV-procd|sdf|6105|dock2
  -GOLD-   22720 6233D 1   1.00000     0.00000
 Structure written by MMmdl.
 44 46  0  0  0  0  0  0  0  0  3 V2000
  145.5257  142.2662  156.4631 C   0  0  0  0  0  0  0  0  0  0  0  0
  146.5707  142.2634  157.5910 C   0  0  1  0  0  0  0  0  0  0  0  0
  147.9148  142.3046  157.0258 N   0  0  0  0  0  0  0  0  0  0  0  0
  148.8774  141.3819  157.1931 C   0  0  0  0  0  0  0  0  0  0  0  0
  148.6881  140.3146  157.7746 O   0  0  0  0  0  0  0  0  0  0  0  0
  150.2817  141.7056  156.6522 C   0  0  0  0  0  0  0  0  0  0  0  0
  151.2364  142.1837  157.6715 N   0  0  0  0  0  0  0  0  0  0  0  0
  151.0488  143.4913  158.1573 C   0  0  0  0  0  0  0  0  0  0  0  0
  151.8389  144.0152  159.1049 C   0  0  0  0  0  0  0  0  0  0  0  0
  152.8983  143.1957  159.6411 C   0  0  0  0  0  0  0  0  0  0  0  0
  153.0976  141.9359  159.1905 C   0  0  0  0  0  0  0  0  0  0  0  0
  154.1566  141.1583  159.7899 N   0  3  0  0  0  0  0  0  0  0  0  0
  154.5496  141.4610  160.9125 O   0  0  0  0  0  0  0  0  0  0  0  0
  154.6387  140.2309  159.1466 O   0  5  0  0  0  0  0  0  0  0  0  0
  152.2435  141.3728  158.1252 C   0  0  0  0  0  0  0  0  0  0  0  0
  152.4080  140.2415  157.6653 O   0  0  0  0  0  0  0  0  0  0  0  0
  146.4041  143.4636  158.5527 C   0  0  2  0  0  0  0  0  0  0  0  0
  147.3983  143.4973  159.7378 C   0  0  0  0  0  0  0  0  0  0  0  0
  146.4821  143.7467  160.9496 C   0  0  2  0  0  0  0  0  0  0  0  0
  145.7136  142.4520  161.2700 C   0  0  0  0  0  0  0  0  0  0  0  0
  144.6926  142.3724  160.1203 C   0  0  0  0  0  0  0  0  0  0  0  0
  145.0377  143.6108  159.2670 C   0  0  1  0  0  0  0  0  0  0  0  0
  145.3866  144.6240  160.3531 C   0  0  0  0  0  0  0  0  0  0  0  0
  144.5140  142.1927  156.8623 H   0  0  0  0  0  0  0  0  0  0  0  0
  145.6695  141.4213  155.7889 H   0  0  0  0  0  0  0  0  0  0  0  0
  145.5847  143.1792  155.8698 H   0  0  0  0  0  0  0  0  0  0  0  0
  146.4743  141.3362  158.1559 H   0  0  0  0  0  0  0  0  0  0  0  0
  148.1592  143.1443  156.5214 H   0  0  0  0  0  0  0  0  0  0  0  0
  150.6785  140.8152  156.1614 H   0  0  0  0  0  0  0  0  0  0  0  0
  150.1715  142.4406  155.8541 H   0  0  0  0  0  0  0  0  0  0  0  0
  150.2265  144.0353  157.7154 H   0  0  0  0  0  0  0  0  0  0  0  0
  151.6793  145.0208  159.4658 H   0  0  0  0  0  0  0  0  0  0  0  0
  153.5211  143.5983  160.4269 H   0  0  0  0  0  0  0  0  0  0  0  0
  146.5614  144.3721  157.9678 H   0  0  0  0  0  0  0  0  0  0  0  0
  147.9669  142.5730  159.8488 H   0  0  0  0  0  0  0  0  0  0  0  0
  148.1153  144.3097  159.6119 H   0  0  0  0  0  0  0  0  0  0  0  0
  147.0003  144.1720  161.8094 H   0  0  0  0  0  0  0  0  0  0  0  0
  146.3680  141.5802  161.3065 H   0  0  0  0  0  0  0  0  0  0  0  0
  145.2041  142.5280  162.2313 H   0  0  0  0  0  0  0  0  0  0  0  0
  144.7447  141.4338  159.5706 H   0  0  0  0  0  0  0  0  0  0  0  0
  143.6787  142.4557  160.5135 H   0  0  0  0  0  0  0  0  0  0  0  0
  144.2294  143.9229  158.6051 H   0  0  0  0  0  0  0  0  0  0  0  0
  144.5644  144.8200  161.0438 H   0  0  0  0  0  0  0  0  0  0  0  0
  145.7572  145.5732  159.9615 H   0  0  0  0  0  0  0  0  0  0  0  0
  1  2  1  0  0  0  0
  1 24  1  0  0  0  0
  1 25  1  0  0  0  0
  1 26  1  0  0  0  0
  2  3  1  0  0  0  0
  2 17  1  0  0  0  0
  2 27  1  0  0  0  0
  3  4  1  0  0  0  0
  3 28  1  0  0  0  0
  4  5  2  0  0  0  0
  4  6  1  0  0  0  0
  6  7  1  0  0  0  0
  6 29  1  0  0  0  0
  6 30  1  0  0  0  0
  7 15  1  0  0  0  0
  7  8  1  0  0  0  0
  8  9  2  0  0  0  0
  8 31  1  0  0  0  0
  9 10  1  0  0  0  0
  9 32  1  0  0  0  0
 10 11  2  0  0  0  0
 10 33  1  0  0  0  0
 11 12  1  0  0  0  0
 11 15  1  0  0  0  0
 12 13  2  0  0  0  0
 12 14  1  0  0  0  0
 15 16  2  0  0  0  0
 17 22  1  0  0  0  0
 17 18  1  0  0  0  0
 17 34  1  0  0  0  0
 18 19  1  0  0  0  0
 18 35  1  0  0  0  0
 18 36  1  0  0  0  0
 19 23  1  0  0  0  0
 19 20  1  0  0  0  0
 19 37  1  0  0  0  0
 20 21  1  0  0  0  0
 20 38  1  0  0  0  0
 20 39  1  0  0  0  0
 21 22  1  0  0  0  0
 21 40  1  0  0  0  0
 21 41  1  0  0  0  0
 22 23  1  0  0  0  0
 22 42  1  0  0  0  0
 23 43  1  0  0  0  0
 23 44  1  0  0  0  0
M  CHG  1  12   1
M  CHG  1  14  -1
M  END
> <s_m_source_file>
AV-unprocessed.smi

> <i_m_source_file_index>
1512

> <i_lp_mmshare_version>
43012

> <i_f3d_flags>
0

> <s_epik_input>
W0NIMl0xW0NIMl1bQ0BIXShbQ0gyXTIpW0NAQEhdKFtDSDJdW0NAQEhdMTIpW0NASF0oW0NIM10pW05IXUMoPU8pW0NIMl1uM1tjSF1bY0hdW2NIXWMoW04rXSg9TylbTy1dKWMzPU8=

> <s_epik_cmdline>
J2VwaWtfcHl0aG9uJywgJy1waCcsICc3LjAnLCAnLXRuJywgJzgnLCAnLW1hJywgJzIwMCcsICctbWV0YWxfYmluZGluZycsICctaW1hZScsICc8aW5maWxlLm1hZT4nLCAnLW9tYWUnLCAnPG91dGZpbGUubWFlPic=

> <r_lp_tautomer_probability>
1

> <r_epik_Ionization_Penalty>
2.17697e-08

> <r_epik_Ionization_Penalty_Charging>
1.42735e-10

> <r_epik_Ionization_Penalty_Neutral>
2.16269e-08

> <r_epik_State_Penalty>
-0

> <r_epik_Charging_Adjusted_Penalty>
1.42735e-10

> <i_epik_Tot_Q>
0

> <i_epik_Tot_abs_Q>
2

> <r_epik_Metal_State_Penalty>
-0

> <b_epik_Metal_Only>
0

> <s_lp_Force_Field>
OPLS_2005

> <r_lp_Energy>
64.4109

> <b_lp_Chiralities_Consistent>
1

> <s_lp_Variant>
AV-unprocessed.smi:1512-6

> <Gold.Version>
5.8.1

> <Gold.Id.Protein>
6NUR|6NUR_protein|mol2

> <Gold.PLP.Fitness>
46.9653

> <Gold.PLP.PLP>
-39.4779

> <Gold.PLP.part.hbond>
-3.3464

> <Gold.PLP.part.metal>
0.0000

> <Gold.PLP.part.buried>
-4.9189

> <Gold.PLP.part.nonpolar>
-30.9455

> <Gold.PLP.part.repulsive>
0.0315

> <Gold.PLP.ligand.clash>
0.0000

> <Gold.PLP.ligand.torsion>
0.6774

> <Gold.PLP.Chemscore.Hbond>
1.9420

> <Gold.PLP.Chemscore.CHOScore>
1.0000

> <Gold.PLP.Chemscore.Metal>
0.0000

> <Gold.Chemscore.Hbonds>
donor molecule, donor type, donor heavy atom, donor atom, acceptor molecule, acceptor atom, score
      L1  H     3    28       P1  8028  1.00
      P1  H  7997  8008       L1    14  0.91
      L1  C     8    31       P1  8028  1.00

> <Gold.PLP.Chemscore.Internal.Correction>
0.0162

> <Gold.Rescore>
     Score         DG    S(hbond)    S(metal)    S(lipo)     H(rot)  DE(clash)    DE(int)     intcor
     11.71     -15.21       1.53        0.00      77.80       1.75       1.28       2.21       ----

> <Gold.Chemscore.Fitness>
11.7147

> <Gold.Chemscore.DG>
-15.2110

> <Gold.Chemscore.ZeroCoef>
-5.4800

> <Gold.Chemscore.Hbond>
1.5274

> <Gold.Chemscore.Metal>
0.0000

> <Gold.Chemscore.Lipo>
77.8012

> <Gold.Chemscore.Internal_Hbond>
0.0000

> <Gold.Chemscore.DEClash>
1.2821

> <Gold.Chemscore.DEInternal>
2.2141

> <Gold.Chemscore.Rot>
1.7474

> <Gold.Chemscore.Internal.Correction>
   9.000000E+99

> <Gold.Chemscore.Hbonds>
donor molecule, donor type, donor heavy atom, donor atom, acceptor molecule, acceptor atom, score
      L1  H     3    28       P1  8028  0.35
      P1  H  7997  8008       L1    14  0.90

> <Gold.Chemscore.Hbond.Weighted>
-5.1016

> <Gold.Chemscore.Metal.Weighted>
-0.0000

> <Gold.Chemscore.Lipo.Weighted>
-9.1027

> <Gold.Chemscore.Internal_Hbond.Weighted>
0.0000

> <Gold.Chemscore.DEClash.Weighted>
1.2821

> <Gold.Chemscore.DEInternal.Weighted>
2.2141

> <Gold.Chemscore.Rot.Weighted>
4.4733

> <Gold.Chemscore.Internal.Correction.Weighted>
   9.000000E+99

> <Gold.Protein.RotatedTorsions>
[ 6907 6896 6895 6894 ] final  179.67 input  -60.11 | X-H torsion
[ 7974 7965 7964 7962 ] final  -71.30 input  175.53 | X-H torsion
[ 8008 7997 7996 7995 ] final -120.13 input   59.86 | X-H torsion
[ 10167 10162 10161 10158 ] final   79.69 input  -65.29 | X-H torsion
[ 10718 10713 10712 10709 ] final -103.99 input   66.30 | X-H torsion
[ 10763 10752 10751 10750 ] final    3.57 input  -60.55 | X-H torsion
[ 11005 11000 10999 10996 ] final -152.25 input  -57.11 | X-H torsion

> <Gold.Protein.ActiveResidues>
 VAL166  LYS551  ARG553  GLY616  TRP617  ASP618  TYR619  PRO620  LYS621  CYS622 
 ASP623  PHE694  ASN695  SER759  ASP760  ASP761  ALA762  ILE779  LEU786  VAL792 
 PHE793  MET794  SER795  GLU796  ALA797  LYS798  CYS799  TRP800  GLU811  SER814 

> <Gold.Protein.RotatedAtoms>
  151.6679  133.3315  159.3189 H   0  0  0  0  0  0  0  0  0  0  0  0  # atno 6907 bound_to 6896
  150.7882  134.6888  159.6494 H   0  0  0  0  0  0  0  0  0  0  0  0  # atno 6908 bound_to 6896
  152.3956  134.6374  160.0142 H   0  0  0  0  0  0  0  0  0  0  0  0  # atno 6909 bound_to 6896
  145.6798  140.9192  143.0838 H   0  0  0  0  0  0  0  0  0  0  0  0  # atno 7974 bound_to 7965
  155.1269  140.0399  157.2765 H   0  0  0  0  0  0  0  0  0  0  0  0  # atno 8008 bound_to 7997
  154.6572  140.2582  155.7123 H   0  0  0  0  0  0  0  0  0  0  0  0  # atno 8009 bound_to 7997
  156.2603  140.2824  156.1029 H   0  0  0  0  0  0  0  0  0  0  0  0  # atno 8010 bound_to 7997
  139.9577  144.5983  150.8102 H   0  0  0  0  0  0  0  0  0  0  0  0  # atno 10167 bound_to 10162
  156.0287  130.5494  150.7333 H   0  0  0  0  0  0  0  0  0  0  0  0  # atno 10718 bound_to 10713
  153.2817  135.6941  153.7379 H   0  0  0  0  0  0  0  0  0  0  0  0  # atno 10763 bound_to 10752
  153.6363  135.3401  155.3058 H   0  0  0  0  0  0  0  0  0  0  0  0  # atno 10764 bound_to 10752
  154.8497  135.4421  154.1873 H   0  0  0  0  0  0  0  0  0  0  0  0  # atno 10765 bound_to 10752
  140.7209  134.3729  157.5183 H   0  0  0  0  0  0  0  0  0  0  0  0  # atno 11005 bound_to 11000
  144.7030  139.8681  143.7438 LP  0  0  0  0  0  0  0  0  0  0  0  0  # atno 17320 bound_to 7965
  146.0974  139.3967  143.0368 LP  0  0  0  0  0  0  0  0  0  0  0  0  # atno 17321 bound_to 7965
  140.7563  143.3063  151.2953 LP  0  0  0  0  0  0  0  0  0  0  0  0  # atno 17342 bound_to 10162
  139.6579  144.0243  152.2672 LP  0  0  0  0  0  0  0  0  0  0  0  0  # atno 17343 bound_to 10162
  157.4920  131.0911  151.0416 LP  0  0  0  0  0  0  0  0  0  0  0  0  # atno 17370 bound_to 10713
  157.0820  130.5907  149.5422 LP  0  0  0  0  0  0  0  0  0  0  0  0  # atno 17371 bound_to 10713
  139.8848  134.8954  156.2679 LP  0  0  0  0  0  0  0  0  0  0  0  0  # atno 17394 bound_to 11000
  141.0005  133.7154  156.0952 LP  0  0  0  0  0  0  0  0  0  0  0  0  # atno 17395 bound_to 11000

$$$$
