AV-unprocessed.smi:3025|AV-procd|sdf|11507|dock1
  -GOLD-   2272016443D 1   1.00000     0.00000
 Structure written by MMmdl.
 42 43  0  0  0  0  0  0  0  0  2 V2000
  151.5133  144.0196  157.7278 C   0  0  0  0  0  0  0  0  0  0  0  0
  151.5964  142.5232  157.4065 C   0  0  0  0  0  0  0  0  0  0  0  0
  150.7504  142.1372  156.1813 C   0  0  0  0  0  0  0  0  0  0  0  0
  150.6212  140.6165  155.9560 C   0  0  2  0  0  0  0  0  0  0  0  0
  151.9688  139.9530  155.6010 C   0  0  0  0  0  0  0  0  0  0  0  0
  151.8180  138.4432  155.3534 C   0  0  0  0  0  0  0  0  0  0  0  0
  150.7765  138.1473  154.2548 C   0  0  1  0  0  0  0  0  0  0  0  0
  150.5876  136.6925  154.0597 N   0  3  0  0  0  0  0  0  0  0  0  0
  150.1356  135.9496  155.2545 C   0  0  0  0  0  0  0  0  0  0  0  0
  150.2728  134.4356  155.0466 C   0  0  0  0  0  0  0  0  0  0  0  0
  149.1628  133.8833  154.2153 C   0  0  0  0  0  0  0  0  0  0  0  0
  147.8943  134.2268  154.4439 N   0  0  0  0  0  0  0  0  0  0  0  0
  147.2409  133.5574  153.4697 N   0  0  0  0  0  0  0  0  0  0  0  0
  148.1312  132.8918  152.7354 C   0  0  0  0  0  0  0  0  0  0  0  0
  149.3817  133.0596  153.1452 N   0  0  0  0  0  0  0  0  0  0  0  0
  149.4319  138.8031  154.6154 C   0  0  0  0  0  0  0  0  0  0  0  0
  149.5860  140.3134  154.8542 C   0  0  0  0  0  0  0  0  0  0  0  0
  152.1170  144.2630  158.6020 H   0  0  0  0  0  0  0  0  0  0  0  0
  150.4870  144.3218  157.9383 H   0  0  0  0  0  0  0  0  0  0  0  0
  151.8767  144.6218  156.8949 H   0  0  0  0  0  0  0  0  0  0  0  0
  152.6411  142.2601  157.2423 H   0  0  0  0  0  0  0  0  0  0  0  0
  151.2656  141.9523  158.2748 H   0  0  0  0  0  0  0  0  0  0  0  0
  149.7525  142.5575  156.3127 H   0  0  0  0  0  0  0  0  0  0  0  0
  151.1594  142.6095  155.2872 H   0  0  0  0  0  0  0  0  0  0  0  0
  150.2554  140.1712  156.8827 H   0  0  0  0  0  0  0  0  0  0  0  0
  152.3900  140.4262  154.7130 H   0  0  0  0  0  0  0  0  0  0  0  0
  152.6912  140.1044  156.4024 H   0  0  0  0  0  0  0  0  0  0  0  0
  152.7914  138.0347  155.0825 H   0  0  0  0  0  0  0  0  0  0  0  0
  151.5249  137.9521  156.2823 H   0  0  0  0  0  0  0  0  0  0  0  0
  151.1188  138.5765  153.3115 H   0  0  0  0  0  0  0  0  0  0  0  0
  149.9294  136.5475  153.3073 H   0  0  0  0  0  0  0  0  0  0  0  0
  150.7279  136.2599  156.1164 H   0  0  0  0  0  0  0  0  0  0  0  0
  149.0958  136.1935  155.4721 H   0  0  0  0  0  0  0  0  0  0  0  0
  151.2232  134.2088  154.5610 H   0  0  0  0  0  0  0  0  0  0  0  0
  150.2867  133.9226  156.0094 H   0  0  0  0  0  0  0  0  0  0  0  0
  147.8616  132.2806  151.8863 H   0  0  0  0  0  0  0  0  0  0  0  0
  148.7080  138.6337  153.8172 H   0  0  0  0  0  0  0  0  0  0  0  0
  149.0186  138.3364  155.5108 H   0  0  0  0  0  0  0  0  0  0  0  0
  148.6180  140.7362  155.1251 H   0  0  0  0  0  0  0  0  0  0  0  0
  149.8842  140.8000  153.9243 H   0  0  0  0  0  0  0  0  0  0  0  0
  151.4781  136.3034  153.7847 H   0  0  0  0  0  0  0  0  0  0  0  0
  146.2383  133.5893  153.3497 H   0  0  0  0  0  0  0  0  0  0  0  0
  1  2  1  0  0  0  0
  1 18  1  0  0  0  0
  1 19  1  0  0  0  0
  1 20  1  0  0  0  0
  2  3  1  0  0  0  0
  2 21  1  0  0  0  0
  2 22  1  0  0  0  0
  3  4  1  0  0  0  0
  3 23  1  0  0  0  0
  3 24  1  0  0  0  0
  4 17  1  0  0  0  0
  4  5  1  0  0  0  0
  4 25  1  0  0  0  0
  5  6  1  0  0  0  0
  5 26  1  0  0  0  0
  5 27  1  0  0  0  0
  6  7  1  0  0  0  0
  6 28  1  0  0  0  0
  6 29  1  0  0  0  0
  7  8  1  0  0  0  0
  7 16  1  0  0  0  0
  7 30  1  0  0  0  0
  8  9  1  0  0  0  0
  8 31  1  0  0  0  0
  8 41  1  0  0  0  0
  9 10  1  0  0  0  0
  9 32  1  0  0  0  0
  9 33  1  0  0  0  0
 10 34  1  0  0  0  0
 10 35  1  0  0  0  0
 10 11  1  0  0  0  0
 11 15  1  0  0  0  0
 11 12  2  0  0  0  0
 12 13  1  0  0  0  0
 13 14  1  0  0  0  0
 13 42  1  0  0  0  0
 14 15  2  0  0  0  0
 14 36  1  0  0  0  0
 16 17  1  0  0  0  0
 16 37  1  0  0  0  0
 16 38  1  0  0  0  0
 17 39  1  0  0  0  0
 17 40  1  0  0  0  0
M  CHG  1   8   1
M  END
> <s_m_source_file>
AV-unprocessed.smi

> <i_m_source_file_index>
3025

> <i_lp_mmshare_version>
43012

> <i_f3d_flags>
0

> <s_epik_input>
W0NIM11bQ0gyXVtDSDJdW0NAQEhdMVtDSDJdW0NIMl1bQ0BIXShbQ0gyXVtDSDJdMSlbTkhdW0NIMl1bQ0gyXWMybm5bY0hdW25IXTI=

> <s_epik_cmdline>
J2VwaWtfcHl0aG9uJywgJy1waCcsICc3LjAnLCAnLXRuJywgJzgnLCAnLW1hJywgJzIwMCcsICctbWV0YWxfYmluZGluZycsICctaW1hZScsICc8aW5maWxlLm1hZT4nLCAnLW9tYWUnLCAnPG91dGZpbGUubWFlPic=

> <r_epik_Ionization_Penalty>
0.00995411

> <r_epik_Ionization_Penalty_Charging>
0.000442289

> <r_epik_Ionization_Penalty_Neutral>
0.00951182

> <r_epik_State_Penalty>
0.448541

> <r_epik_Charging_Adjusted_Penalty>
0.448983

> <i_epik_Tot_Q>
1

> <i_epik_Tot_abs_Q>
1

> <r_epik_Metal_State_Penalty>
0.682245

> <b_epik_Metal_Only>
0

> <s_lp_Force_Field>
OPLS_2005

> <r_lp_Energy>
10.682

> <b_lp_Chiralities_Consistent>
1

> <s_lp_Variant>
AV-unprocessed.smi:3025-3

> <Gold.Version>
5.8.1

> <Gold.Id.Protein>
6NUR|6NUR_protein|mol2

> <Gold.PLP.Fitness>
40.8995

> <Gold.PLP.PLP>
-32.7538

> <Gold.PLP.part.hbond>
-2.0000

> <Gold.PLP.part.metal>
0.0000

> <Gold.PLP.part.buried>
-3.0297

> <Gold.PLP.part.nonpolar>
-29.2471

> <Gold.PLP.part.repulsive>
0.3693

> <Gold.PLP.ligand.clash>
0.0000

> <Gold.PLP.ligand.torsion>
0.3181

> <Gold.PLP.Chemscore.Hbond>
1.9000

> <Gold.PLP.Chemscore.CHOScore>
1.0000

> <Gold.PLP.Chemscore.Metal>
0.0000

> <Gold.Chemscore.Hbonds>
donor molecule, donor type, donor heavy atom, donor atom, acceptor molecule, acceptor atom, score
      L1  H     8    31       P1  7948  1.60
      L1  H     8    41       P1  7949  0.02
      L1  C    14    36       P1 10747  1.00

> <Gold.PLP.Chemscore.Internal.Correction>
0.0820

> <Gold.Rescore>
     Score         DG    S(hbond)    S(metal)    S(lipo)     H(rot)  DE(clash)    DE(int)     intcor
     10.07     -10.60       0.82        0.00      76.37       2.56       0.25       0.28       ----

> <Gold.Chemscore.Fitness>
10.0713

> <Gold.Chemscore.DG>
-10.6006

> <Gold.Chemscore.ZeroCoef>
-5.4800

> <Gold.Chemscore.Hbond>
0.8203

> <Gold.Chemscore.Metal>
0.0000

> <Gold.Chemscore.Lipo>
76.3668

> <Gold.Chemscore.Internal_Hbond>
0.0000

> <Gold.Chemscore.DEClash>
0.2507

> <Gold.Chemscore.DEInternal>
0.2786

> <Gold.Chemscore.Rot>
2.5602

> <Gold.Chemscore.Internal.Correction>
   9.000000E+99

> <Gold.Chemscore.Hbonds>
donor molecule, donor type, donor heavy atom, donor atom, acceptor molecule, acceptor atom, score
      L1  H     8    31       P1  7948  0.12
      L1  H     8    41       P1  7949  0.02

> <Gold.Chemscore.Hbond.Weighted>
-2.7399

> <Gold.Chemscore.Metal.Weighted>
-0.0000

> <Gold.Chemscore.Lipo.Weighted>
-8.9349

> <Gold.Chemscore.Internal_Hbond.Weighted>
0.0000

> <Gold.Chemscore.DEClash.Weighted>
0.2507

> <Gold.Chemscore.DEInternal.Weighted>
0.2786

> <Gold.Chemscore.Rot.Weighted>
6.5542

> <Gold.Chemscore.Internal.Correction.Weighted>
   9.000000E+99

> <Gold.Protein.RotatedTorsions>
[ 6907 6896 6895 6894 ] final  131.87 input  -60.11 | X-H torsion
[ 7974 7965 7964 7962 ] final  -49.59 input  175.53 | X-H torsion
[ 8008 7997 7996 7995 ] final  163.24 input   59.86 | X-H torsion
[ 10167 10162 10161 10158 ] final   21.75 input  -65.29 | X-H torsion
[ 10718 10713 10712 10709 ] final  -68.88 input   66.30 | X-H torsion
[ 10763 10752 10751 10750 ] final  -53.41 input  -60.55 | X-H torsion
[ 11005 11000 10999 10996 ] final  171.03 input  -57.11 | X-H torsion

> <Gold.Protein.ActiveResidues>
 VAL166  LYS551  ARG553  GLY616  TRP617  ASP618  TYR619  PRO620  LYS621  CYS622 
 ASP623  PHE694  ASN695  SER759  ASP760  ASP761  ALA762  ILE779  LEU786  VAL792 
 PHE793  MET794  SER795  GLU796  ALA797  LYS798  CYS799  TRP800  GLU811  SER814 

> <Gold.Protein.RotatedAtoms>
  152.3382  133.6036  159.5857 H   0  0  0  0  0  0  0  0  0  0  0  0  # atno 6907 bound_to 6896
  150.7462  133.9764  159.3571 H   0  0  0  0  0  0  0  0  0  0  0  0  # atno 6908 bound_to 6896
  151.7631  135.0806  160.0399 H   0  0  0  0  0  0  0  0  0  0  0  0  # atno 6909 bound_to 6896
  145.9390  140.7680  142.9562 H   0  0  0  0  0  0  0  0  0  0  0  0  # atno 7974 bound_to 7965
  156.1972  140.1729  156.7975 H   0  0  0  0  0  0  0  0  0  0  0  0  # atno 8008 bound_to 7997
  154.5544  140.0711  156.8751 H   0  0  0  0  0  0  0  0  0  0  0  0  # atno 8009 bound_to 7997
  155.2966  140.3359  155.4252 H   0  0  0  0  0  0  0  0  0  0  0  0  # atno 8010 bound_to 7997
  140.5402  143.9690  150.6515 H   0  0  0  0  0  0  0  0  0  0  0  0  # atno 10167 bound_to 10162
  156.0483  130.4302  150.2066 H   0  0  0  0  0  0  0  0  0  0  0  0  # atno 10718 bound_to 10713
  154.1584  135.6478  153.4980 H   0  0  0  0  0  0  0  0  0  0  0  0  # atno 10763 bound_to 10752
  153.0117  135.5355  154.6736 H   0  0  0  0  0  0  0  0  0  0  0  0  # atno 10764 bound_to 10752
  154.6043  135.2947  155.0473 H   0  0  0  0  0  0  0  0  0  0  0  0  # atno 10765 bound_to 10752
  140.3147  134.7488  157.4018 H   0  0  0  0  0  0  0  0  0  0  0  0  # atno 11005 bound_to 11000
  144.6776  140.2249  143.7362 LP  0  0  0  0  0  0  0  0  0  0  0  0  # atno 17320 bound_to 7965
  145.8326  139.2093  143.1874 LP  0  0  0  0  0  0  0  0  0  0  0  0  # atno 17321 bound_to 7965
  140.3088  143.3211  152.0899 LP  0  0  0  0  0  0  0  0  0  0  0  0  # atno 17342 bound_to 10162
  139.4986  144.6649  151.6379 LP  0  0  0  0  0  0  0  0  0  0  0  0  # atno 17343 bound_to 10162
  157.0153  130.9963  151.3354 LP  0  0  0  0  0  0  0  0  0  0  0  0  # atno 17370 bound_to 10713
  157.5382  130.8102  149.7997 LP  0  0  0  0  0  0  0  0  0  0  0  0  # atno 17371 bound_to 10713
  140.0994  134.5493  155.8367 LP  0  0  0  0  0  0  0  0  0  0  0  0  # atno 17394 bound_to 11000
  141.2100  133.6690  156.6481 LP  0  0  0  0  0  0  0  0  0  0  0  0  # atno 17395 bound_to 11000

$$$$
