AV-unprocessed.smi:3236|AV-procd|sdf|12362|dock7
  -GOLD-   2272018223D 1   1.00000     0.00000
 Structure written by MMmdl.
 40 41  0  0  0  0  0  0  0  0  1 V2000
  151.0403  141.8700  156.7184 C   0  0  0  0  0  0  0  0  0  0  0  0
  151.1050  140.7849  155.6349 C   0  0  0  0  0  0  0  0  0  0  0  0
  149.7306  140.1181  155.4109 C   0  0  0  0  0  0  0  0  0  0  0  0
  149.8299  138.9673  154.3934 C   0  0  0  0  0  0  0  0  0  0  0  0
  150.8279  138.0001  154.8702 N   0  0  0  0  0  0  0  0  0  0  0  0
  150.5623  136.7519  155.3277 C   0  0  0  0  0  0  0  0  0  0  0  0
  151.4466  136.0138  155.7675 O   0  0  0  0  0  0  0  0  0  0  0  0
  149.1101  136.2441  155.3036 C   0  0  0  0  0  0  0  0  0  0  0  0
  148.8861  135.1812  154.3159 N   0  0  0  0  0  0  0  0  0  0  0  0
  149.6709  133.9980  154.6385 C   0  0  0  0  0  0  0  0  0  0  0  0
  149.3375  132.8555  153.6645 C   0  0  0  0  0  0  0  0  0  0  0  0
  149.6059  131.5462  154.2322 N   0  0  0  0  0  0  0  0  0  0  0  0
  149.2569  130.3086  153.7341 C   0  0  0  0  0  0  0  0  0  0  0  0
  149.7189  129.3718  154.6137 C   0  0  0  0  0  0  0  0  0  0  0  0
  150.3448  130.1439  155.6319 C   0  0  0  0  0  0  0  0  0  0  0  0
  150.2776  131.4452  155.4000 N   0  0  0  0  0  0  0  0  0  0  0  0
  152.1719  138.5907  154.9112 C   0  0  0  0  0  0  0  0  0  0  0  0
  152.1849  139.7276  155.9494 C   0  0  0  0  0  0  0  0  0  0  0  0
  150.7613  141.4495  157.6849 H   0  0  0  0  0  0  0  0  0  0  0  0
  150.3069  142.6354  156.4637 H   0  0  0  0  0  0  0  0  0  0  0  0
  152.0048  142.3646  156.8363 H   0  0  0  0  0  0  0  0  0  0  0  0
  151.3876  141.2720  154.7005 H   0  0  0  0  0  0  0  0  0  0  0  0
  149.3474  139.7315  156.3564 H   0  0  0  0  0  0  0  0  0  0  0  0
  149.0086  140.8577  155.0633 H   0  0  0  0  0  0  0  0  0  0  0  0
  148.8437  138.5378  154.2265 H   0  0  0  0  0  0  0  0  0  0  0  0
  150.1433  139.3550  153.4229 H   0  0  0  0  0  0  0  0  0  0  0  0
  148.8494  135.8707  156.2951 H   0  0  0  0  0  0  0  0  0  0  0  0
  148.4519  137.0838  155.0757 H   0  0  0  0  0  0  0  0  0  0  0  0
  149.1140  135.4919  153.3823 H   0  0  0  0  0  0  0  0  0  0  0  0
  150.7318  134.2403  154.5635 H   0  0  0  0  0  0  0  0  0  0  0  0
  149.4832  133.6853  155.6669 H   0  0  0  0  0  0  0  0  0  0  0  0
  148.2906  132.9005  153.3611 H   0  0  0  0  0  0  0  0  0  0  0  0
  149.9285  132.9606  152.7537 H   0  0  0  0  0  0  0  0  0  0  0  0
  148.7122  130.1995  152.8079 H   0  0  0  0  0  0  0  0  0  0  0  0
  149.6220  128.2990  154.5417 H   0  0  0  0  0  0  0  0  0  0  0  0
  150.8423  129.7995  156.5265 H   0  0  0  0  0  0  0  0  0  0  0  0
  152.9490  137.8637  155.1504 H   0  0  0  0  0  0  0  0  0  0  0  0
  152.4255  138.9802  153.9243 H   0  0  0  0  0  0  0  0  0  0  0  0
  153.1702  140.1943  155.9734 H   0  0  0  0  0  0  0  0  0  0  0  0
  152.0160  139.3101  156.9433 H   0  0  0  0  0  0  0  0  0  0  0  0
  1  2  1  0  0  0  0
  1 19  1  0  0  0  0
  1 20  1  0  0  0  0
  1 21  1  0  0  0  0
  2 18  1  0  0  0  0
  2  3  1  0  0  0  0
  2 22  1  0  0  0  0
  3  4  1  0  0  0  0
  3 23  1  0  0  0  0
  3 24  1  0  0  0  0
  4  5  1  0  0  0  0
  4 25  1  0  0  0  0
  4 26  1  0  0  0  0
  5  6  1  0  0  0  0
  5 17  1  0  0  0  0
  6  7  2  0  0  0  0
  6  8  1  0  0  0  0
  8  9  1  0  0  0  0
  8 27  1  0  0  0  0
  8 28  1  0  0  0  0
  9 10  1  0  0  0  0
  9 29  1  0  0  0  0
 10 11  1  0  0  0  0
 10 30  1  0  0  0  0
 10 31  1  0  0  0  0
 11 12  1  0  0  0  0
 11 32  1  0  0  0  0
 11 33  1  0  0  0  0
 12 16  1  0  0  0  0
 12 13  1  0  0  0  0
 13 14  2  0  0  0  0
 13 34  1  0  0  0  0
 14 15  1  0  0  0  0
 14 35  1  0  0  0  0
 15 16  2  0  0  0  0
 15 36  1  0  0  0  0
 17 18  1  0  0  0  0
 17 37  1  0  0  0  0
 17 38  1  0  0  0  0
 18 39  1  0  0  0  0
 18 40  1  0  0  0  0
M  END
> <s_m_source_file>
AV-unprocessed.smi

> <i_m_source_file_index>
3236

> <i_lp_mmshare_version>
43012

> <i_f3d_flags>
0

> <s_epik_input>
W0NIM11bQ0hdMVtDSDJdW0NIMl1OKFtDSDJdW0NIMl0xKUMoPU8pW0NIMl1bTkhdW0NIMl1bQ0gyXW4yW2NIXVtjSF1bY0hdbjI=

> <s_epik_cmdline>
J2VwaWtfcHl0aG9uJywgJy1waCcsICc3LjAnLCAnLXRuJywgJzgnLCAnLW1hJywgJzIwMCcsICctbWV0YWxfYmluZGluZycsICctaW1hZScsICc8aW5maWxlLm1hZT4nLCAnLW9tYWUnLCAnPG91dGZpbGUubWFlPic=

> <r_lp_tautomer_probability>
1

> <r_epik_Ionization_Penalty>
0.778591

> <r_epik_Ionization_Penalty_Charging>
0

> <r_epik_Ionization_Penalty_Neutral>
0.778591

> <r_epik_State_Penalty>
0.806071

> <r_epik_Charging_Adjusted_Penalty>
0.806071

> <i_epik_Tot_Q>
0

> <i_epik_Tot_abs_Q>
0

> <r_epik_Metal_State_Penalty>
0.80479

> <b_epik_Metal_Only>
0

> <s_lp_Force_Field>
OPLS_2005

> <r_lp_Energy>
26.1059

> <b_lp_Chiralities_Consistent>
1

> <s_lp_Variant>
AV-unprocessed.smi:3236-2

> <Gold.Version>
5.8.1

> <Gold.Id.Protein>
6NUR|6NUR_protein|mol2

> <Gold.PLP.Fitness>
44.4486

> <Gold.PLP.PLP>
-36.0932

> <Gold.PLP.part.hbond>
-2.0000

> <Gold.PLP.part.metal>
0.0000

> <Gold.PLP.part.buried>
-3.5003

> <Gold.PLP.part.nonpolar>
-30.0607

> <Gold.PLP.part.repulsive>
0.0777

> <Gold.PLP.ligand.clash>
0.0000

> <Gold.PLP.ligand.torsion>
0.3368

> <Gold.PLP.Chemscore.Hbond>
2.0000

> <Gold.PLP.Chemscore.CHOScore>
0.9978

> <Gold.PLP.Chemscore.Metal>
0.0000

> <Gold.Chemscore.Hbonds>
donor molecule, donor type, donor heavy atom, donor atom, acceptor molecule, acceptor atom, score
      L1  H     9    29       P1  7948  1.00
      P1  H 10752 10764       L1     7  1.00
      L1  C    13    34       P1 10747  0.84

> <Gold.PLP.Chemscore.Internal.Correction>
0.0356

> <Gold.Rescore>
     Score         DG    S(hbond)    S(metal)    S(lipo)     H(rot)  DE(clash)    DE(int)     intcor
     15.25     -15.73       1.97        0.00      69.24       1.73       0.05       0.42       ----

> <Gold.Chemscore.Fitness>
15.2507

> <Gold.Chemscore.DG>
-15.7278

> <Gold.Chemscore.ZeroCoef>
-5.4800

> <Gold.Chemscore.Hbond>
1.9686

> <Gold.Chemscore.Metal>
0.0000

> <Gold.Chemscore.Lipo>
69.2352

> <Gold.Chemscore.Internal_Hbond>
0.0000

> <Gold.Chemscore.DEClash>
0.0542

> <Gold.Chemscore.DEInternal>
0.4228

> <Gold.Chemscore.Rot>
1.7296

> <Gold.Chemscore.Internal.Correction>
   9.000000E+99

> <Gold.Chemscore.Hbonds>
donor molecule, donor type, donor heavy atom, donor atom, acceptor molecule, acceptor atom, score
      L1  H     9    29       P1  7948  0.50
      P1  H 10752 10764       L1     7  0.99

> <Gold.Chemscore.Hbond.Weighted>
-6.5751

> <Gold.Chemscore.Metal.Weighted>
-0.0000

> <Gold.Chemscore.Lipo.Weighted>
-8.1005

> <Gold.Chemscore.Internal_Hbond.Weighted>
0.0000

> <Gold.Chemscore.DEClash.Weighted>
0.0542

> <Gold.Chemscore.DEInternal.Weighted>
0.4228

> <Gold.Chemscore.Rot.Weighted>
4.4278

> <Gold.Chemscore.Internal.Correction.Weighted>
   9.000000E+99

> <Gold.Protein.RotatedTorsions>
[ 6907 6896 6895 6894 ] final -177.69 input  -60.11 | X-H torsion
[ 7974 7965 7964 7962 ] final  -40.93 input  175.53 | X-H torsion
[ 8008 7997 7996 7995 ] final -114.04 input   59.86 | X-H torsion
[ 10167 10162 10161 10158 ] final  -62.60 input  -65.29 | X-H torsion
[ 10718 10713 10712 10709 ] final -108.35 input   66.30 | X-H torsion
[ 10763 10752 10751 10750 ] final  -46.19 input  -60.55 | X-H torsion
[ 11005 11000 10999 10996 ] final  -35.36 input  -57.11 | X-H torsion

> <Gold.Protein.ActiveResidues>
 VAL166  LYS551  ARG553  GLY616  TRP617  ASP618  TYR619  PRO620  LYS621  CYS622 
 ASP623  PHE694  ASN695  SER759  ASP760  ASP761  ALA762  ILE779  LEU786  VAL792 
 PHE793  MET794  SER795  GLU796  ALA797  LYS798  CYS799  TRP800  GLU811  SER814 

> <Gold.Protein.RotatedAtoms>
  151.6251  133.3336  159.3096 H   0  0  0  0  0  0  0  0  0  0  0  0  # atno 6907 bound_to 6896
  150.8085  134.7230  159.6678 H   0  0  0  0  0  0  0  0  0  0  0  0  # atno 6908 bound_to 6896
  152.4182  134.6009  160.0051 H   0  0  0  0  0  0  0  0  0  0  0  0  # atno 6909 bound_to 6896
  146.0258  140.6793  142.9156 H   0  0  0  0  0  0  0  0  0  0  0  0  # atno 7974 bound_to 7965
  155.0301  140.0393  157.2471 H   0  0  0  0  0  0  0  0  0  0  0  0  # atno 8008 bound_to 7997
  154.7304  140.2729  155.6438 H   0  0  0  0  0  0  0  0  0  0  0  0  # atno 8009 bound_to 7997
  156.2840  140.2685  156.2002 H   0  0  0  0  0  0  0  0  0  0  0  0  # atno 8010 bound_to 7997
  140.5928  143.2345  151.6101 H   0  0  0  0  0  0  0  0  0  0  0  0  # atno 10167 bound_to 10162
  156.0481  130.5708  150.7949 H   0  0  0  0  0  0  0  0  0  0  0  0  # atno 10718 bound_to 10713
  154.0409  135.6644  153.4790 H   0  0  0  0  0  0  0  0  0  0  0  0  # atno 10763 bound_to 10752
  153.0502  135.5089  154.7843 H   0  0  0  0  0  0  0  0  0  0  0  0  # atno 10764 bound_to 10752
  154.6818  135.3046  154.9567 H   0  0  0  0  0  0  0  0  0  0  0  0  # atno 10765 bound_to 10752
  140.9790  133.7067  156.1651 H   0  0  0  0  0  0  0  0  0  0  0  0  # atno 11005 bound_to 11000
  144.7009  140.3648  143.7157 LP  0  0  0  0  0  0  0  0  0  0  0  0  # atno 17320 bound_to 7965
  145.7120  139.1687  143.2533 LP  0  0  0  0  0  0  0  0  0  0  0  0  # atno 17321 bound_to 7965
  139.5238  144.3121  152.0984 LP  0  0  0  0  0  0  0  0  0  0  0  0  # atno 17342 bound_to 10162
  140.2288  144.4390  150.6309 LP  0  0  0  0  0  0  0  0  0  0  0  0  # atno 17343 bound_to 10162
  157.5379  131.0939  150.9867 LP  0  0  0  0  0  0  0  0  0  0  0  0  # atno 17370 bound_to 10713
  157.0157  130.5654  149.5325 LP  0  0  0  0  0  0  0  0  0  0  0  0  # atno 17371 bound_to 10713
  140.7215  134.4353  157.5574 LP  0  0  0  0  0  0  0  0  0  0  0  0  # atno 17394 bound_to 11000
  139.8942  134.8712  156.2187 LP  0  0  0  0  0  0  0  0  0  0  0  0  # atno 17395 bound_to 11000

$$$$
