AV-unprocessed.smi:1793|AV-procd|sdf|7231|dock5
  -GOLD-   22720 8473D 1   1.00000     0.00000
 Structure written by MMmdl.
 47 49  0  0  0  0  0  0  0  0  2 V2000
  148.4815  134.7012  158.6063 C   0  0  0  0  0  0  0  0  0  0  0  0
  148.6555  135.9155  159.5321 C   0  0  1  0  0  0  0  0  0  0  0  0
  148.6453  137.1257  158.7128 N   0  0  0  0  0  0  0  0  0  0  0  0
  149.5582  138.1064  158.7598 C   0  0  0  0  0  0  0  0  0  0  0  0
  150.5300  138.1010  159.5151 O   0  0  0  0  0  0  0  0  0  0  0  0
  149.2582  139.0897  157.8953 N   0  0  0  0  0  0  0  0  0  0  0  0
  149.9423  140.3230  157.7003 C   0  0  0  0  0  0  0  0  0  0  0  0
  151.1350  140.6385  158.4003 C   0  0  0  0  0  0  0  0  0  0  0  0
  151.7961  141.8550  158.1443 C   0  0  0  0  0  0  0  0  0  0  0  0
  151.2617  142.7331  157.1851 C   0  0  0  0  0  0  0  0  0  0  0  0
  150.1340  142.3966  156.5250 N   0  3  0  0  0  0  0  0  0  0  0  0
  149.4555  141.2403  156.7288 C   0  0  0  0  0  0  0  0  0  0  0  0
  148.2724  141.0049  155.9960 N   0  0  0  0  0  0  0  0  0  0  0  0
  147.1819  141.9268  156.3044 C   0  0  0  0  0  0  0  0  0  0  0  0
  146.4479  142.1878  154.9873 C   0  0  0  0  0  0  0  0  0  0  0  0
  147.5249  141.9504  153.9360 C   0  0  0  0  0  0  0  0  0  0  0  0
  148.3379  140.8112  154.5481 C   0  0  0  0  0  0  0  0  0  0  0  0
  147.5529  135.9920  160.6104 C   0  0  1  0  0  0  0  0  0  0  0  0
  147.4305  134.7385  161.4816 C   0  0  0  0  0  0  0  0  0  0  0  0
  146.8493  135.2992  162.7586 C   0  0  0  0  0  0  0  0  0  0  0  0
  147.5960  136.6221  162.8711 C   0  0  0  0  0  0  0  0  0  0  0  0
  147.8122  137.0530  161.5310 O   0  0  0  0  0  0  0  0  0  0  0  0
  148.5538  133.7646  159.1595 H   0  0  0  0  0  0  0  0  0  0  0  0
  149.2532  134.6814  157.8361 H   0  0  0  0  0  0  0  0  0  0  0  0
  147.5125  134.7183  158.1063 H   0  0  0  0  0  0  0  0  0  0  0  0
  149.6246  135.8189  160.0252 H   0  0  0  0  0  0  0  0  0  0  0  0
  147.8781  137.2221  158.0640 H   0  0  0  0  0  0  0  0  0  0  0  0
  148.3829  138.9940  157.4017 H   0  0  0  0  0  0  0  0  0  0  0  0
  151.5649  139.9586  159.1201 H   0  0  0  0  0  0  0  0  0  0  0  0
  152.7038  142.1066  158.6732 H   0  0  0  0  0  0  0  0  0  0  0  0
  151.7001  143.6855  156.9245 H   0  0  0  0  0  0  0  0  0  0  0  0
  146.5101  141.5071  157.0535 H   0  0  0  0  0  0  0  0  0  0  0  0
  147.5816  142.8622  156.6999 H   0  0  0  0  0  0  0  0  0  0  0  0
  145.6435  141.4616  154.8608 H   0  0  0  0  0  0  0  0  0  0  0  0
  146.0125  143.1862  154.9355 H   0  0  0  0  0  0  0  0  0  0  0  0
  147.1187  141.7036  152.9545 H   0  0  0  0  0  0  0  0  0  0  0  0
  148.1475  142.8403  153.8334 H   0  0  0  0  0  0  0  0  0  0  0  0
  149.3463  140.7685  154.1372 H   0  0  0  0  0  0  0  0  0  0  0  0
  147.8652  139.8549  154.3214 H   0  0  0  0  0  0  0  0  0  0  0  0
  146.5863  136.1949  160.1459 H   0  0  0  0  0  0  0  0  0  0  0  0
  146.8054  133.9665  161.0324 H   0  0  0  0  0  0  0  0  0  0  0  0
  148.4135  134.3091  161.6811 H   0  0  0  0  0  0  0  0  0  0  0  0
  145.7798  135.4773  162.6389 H   0  0  0  0  0  0  0  0  0  0  0  0
  146.9971  134.6499  163.6220 H   0  0  0  0  0  0  0  0  0  0  0  0
  147.0466  137.3666  163.4476 H   0  0  0  0  0  0  0  0  0  0  0  0
  148.5658  136.4716  163.3469 H   0  0  0  0  0  0  0  0  0  0  0  0
  149.7688  143.0536  155.8353 H   0  0  0  0  0  0  0  0  0  0  0  0
  1  2  1  0  0  0  0
  1 23  1  0  0  0  0
  1 24  1  0  0  0  0
  1 25  1  0  0  0  0
  2  3  1  0  0  0  0
  2 18  1  0  0  0  0
  2 26  1  0  0  0  0
  3  4  1  0  0  0  0
  3 27  1  0  0  0  0
  4  5  2  0  0  0  0
  4  6  1  0  0  0  0
  6  7  1  0  0  0  0
  6 28  1  0  0  0  0
  7 12  1  0  0  0  0
  7  8  2  0  0  0  0
  8  9  1  0  0  0  0
  8 29  1  0  0  0  0
  9 10  2  0  0  0  0
  9 30  1  0  0  0  0
 10 11  1  0  0  0  0
 10 31  1  0  0  0  0
 11 12  2  0  0  0  0
 11 47  1  0  0  0  0
 12 13  1  0  0  0  0
 13 17  1  0  0  0  0
 13 14  1  0  0  0  0
 14 15  1  0  0  0  0
 14 32  1  0  0  0  0
 14 33  1  0  0  0  0
 15 16  1  0  0  0  0
 15 34  1  0  0  0  0
 15 35  1  0  0  0  0
 16 17  1  0  0  0  0
 16 36  1  0  0  0  0
 16 37  1  0  0  0  0
 17 38  1  0  0  0  0
 17 39  1  0  0  0  0
 18 22  1  0  0  0  0
 18 19  1  0  0  0  0
 18 40  1  0  0  0  0
 19 20  1  0  0  0  0
 19 41  1  0  0  0  0
 19 42  1  0  0  0  0
 20 21  1  0  0  0  0
 20 43  1  0  0  0  0
 20 44  1  0  0  0  0
 21 22  1  0  0  0  0
 21 45  1  0  0  0  0
 21 46  1  0  0  0  0
M  CHG  1  11   1
M  END
> <s_m_source_file>
AV-unprocessed.smi

> <i_m_source_file_index>
1793

> <i_lp_mmshare_version>
43012

> <i_f3d_flags>
0

> <s_epik_input>
TzFbQ0gyXVtDSDJdW0NIMl1bQ0BIXTFbQ0BIXShbQ0gzXSlbTkhdQyg9TylbTkhdYzJbY0hdW2NIXVtjSF1uYzJOM1tDSDJdW0NIMl1bQ0gyXVtDSDJdMw==

> <s_epik_cmdline>
J2VwaWtfcHl0aG9uJywgJy1waCcsICc3LjAnLCAnLXRuJywgJzgnLCAnLW1hJywgJzIwMCcsICctbWV0YWxfYmluZGluZycsICctaW1hZScsICc8aW5maWxlLm1hZT4nLCAnLW9tYWUnLCAnPG91dGZpbGUubWFlPic=

> <r_lp_tautomer_probability>
0.999994

> <r_epik_Ionization_Penalty>
1.11092

> <r_epik_Ionization_Penalty_Charging>
1.1109

> <r_epik_Ionization_Penalty_Neutral>
1.9363e-05

> <r_epik_State_Penalty>
1.16888

> <r_epik_Charging_Adjusted_Penalty>
2.27978

> <i_epik_Tot_Q>
1

> <i_epik_Tot_abs_Q>
1

> <r_epik_Metal_State_Penalty>
1.25472

> <b_epik_Metal_Only>
0

> <s_lp_Force_Field>
OPLS_2005

> <r_lp_Energy>
52.0623

> <b_lp_Chiralities_Consistent>
1

> <s_lp_Variant>
AV-unprocessed.smi:1793-8

> <Gold.Version>
5.8.1

> <Gold.Id.Protein>
6NUR|6NUR_protein|mol2

> <Gold.PLP.Fitness>
47.9301

> <Gold.PLP.PLP>
-38.4887

> <Gold.PLP.part.hbond>
-4.0000

> <Gold.PLP.part.metal>
0.0000

> <Gold.PLP.part.buried>
-6.8494

> <Gold.PLP.part.nonpolar>
-29.3777

> <Gold.PLP.part.repulsive>
0.4148

> <Gold.PLP.ligand.clash>
0.0000

> <Gold.PLP.ligand.torsion>
0.2124

> <Gold.PLP.Chemscore.Hbond>
3.2326

> <Gold.PLP.Chemscore.CHOScore>
0.0000

> <Gold.PLP.Chemscore.Metal>
0.0000

> <Gold.Chemscore.Hbonds>
donor molecule, donor type, donor heavy atom, donor atom, acceptor molecule, acceptor atom, score
      L1  H    11    47       P1  8028  1.73
      P1  H  6931  6943       L1    22  0.80
      P1  H  6934  6947       L1    22  0.53

> <Gold.PLP.Chemscore.Internal.Correction>
0.1686

> <Gold.Rescore>
     Score         DG    S(hbond)    S(metal)    S(lipo)     H(rot)  DE(clash)    DE(int)     intcor
     16.86     -18.56       2.01        0.00      84.73       1.38       0.07       1.63       ----

> <Gold.Chemscore.Fitness>
16.8596

> <Gold.Chemscore.DG>
-18.5610

> <Gold.Chemscore.ZeroCoef>
-5.4800

> <Gold.Chemscore.Hbond>
2.0060

> <Gold.Chemscore.Metal>
0.0000

> <Gold.Chemscore.Lipo>
84.7349

> <Gold.Chemscore.Internal_Hbond>
0.0000

> <Gold.Chemscore.DEClash>
0.0668

> <Gold.Chemscore.DEInternal>
1.6347

> <Gold.Chemscore.Rot>
1.3802

> <Gold.Chemscore.Internal.Correction>
   9.000000E+99

> <Gold.Chemscore.Hbonds>
donor molecule, donor type, donor heavy atom, donor atom, acceptor molecule, acceptor atom, score
      L1  H    11    47       P1  8028  0.85
      P1  H  6931  6943       L1    22  0.12
      P1  H  6934  6947       L1    22  0.48

> <Gold.Chemscore.Hbond.Weighted>
-6.7002

> <Gold.Chemscore.Metal.Weighted>
-0.0000

> <Gold.Chemscore.Lipo.Weighted>
-9.9140

> <Gold.Chemscore.Internal_Hbond.Weighted>
0.0000

> <Gold.Chemscore.DEClash.Weighted>
0.0668

> <Gold.Chemscore.DEInternal.Weighted>
1.6347

> <Gold.Chemscore.Rot.Weighted>
3.5332

> <Gold.Chemscore.Internal.Correction.Weighted>
   9.000000E+99

> <Gold.Protein.RotatedTorsions>
[ 6907 6896 6895 6894 ] final -158.19 input  -60.11 | X-H torsion
[ 7974 7965 7964 7962 ] final -149.08 input  175.53 | X-H torsion
[ 8008 7997 7996 7995 ] final -119.53 input   59.86 | X-H torsion
[ 10167 10162 10161 10158 ] final   75.36 input  -65.29 | X-H torsion
[ 10718 10713 10712 10709 ] final -116.71 input   66.30 | X-H torsion
[ 10763 10752 10751 10750 ] final   52.82 input  -60.55 | X-H torsion
[ 11005 11000 10999 10996 ] final  117.51 input  -57.11 | X-H torsion

> <Gold.Protein.ActiveResidues>
 VAL166  LYS551  ARG553  GLY616  TRP617  ASP618  TYR619  PRO620  LYS621  CYS622 
 ASP623  PHE694  ASN695  SER759  ASP760  ASP761  ALA762  ILE779  LEU786  VAL792 
 PHE793  MET794  SER795  GLU796  ALA797  LYS798  CYS799  TRP800  GLU811  SER814 

> <Gold.Protein.RotatedAtoms>
  151.3144  133.4067  159.2649 H   0  0  0  0  0  0  0  0  0  0  0  0  # atno 6907 bound_to 6896
  151.0087  134.9380  159.8005 H   0  0  0  0  0  0  0  0  0  0  0  0  # atno 6908 bound_to 6896
  152.5295  134.3108  159.9165 H   0  0  0  0  0  0  0  0  0  0  0  0  # atno 6909 bound_to 6896
  144.7989  140.5112  143.5720 H   0  0  0  0  0  0  0  0  0  0  0  0  # atno 7974 bound_to 7965
  155.1172  140.0398  157.2740 H   0  0  0  0  0  0  0  0  0  0  0  0  # atno 8008 bound_to 7997
  154.6640  140.2597  155.7052 H   0  0  0  0  0  0  0  0  0  0  0  0  # atno 8009 bound_to 7997
  156.2631  140.2811  156.1124 H   0  0  0  0  0  0  0  0  0  0  0  0  # atno 8010 bound_to 7997
  140.0038  144.5666  150.7715 H   0  0  0  0  0  0  0  0  0  0  0  0  # atno 10167 bound_to 10162
  156.0983  130.6150  150.9071 H   0  0  0  0  0  0  0  0  0  0  0  0  # atno 10718 bound_to 10713
  152.9791  135.5799  154.4641 H   0  0  0  0  0  0  0  0  0  0  0  0  # atno 10763 bound_to 10752
  154.4213  135.2771  155.1975 H   0  0  0  0  0  0  0  0  0  0  0  0  # atno 10764 bound_to 10752
  154.3723  135.6165  153.5800 H   0  0  0  0  0  0  0  0  0  0  0  0  # atno 10765 bound_to 10752
  139.9077  134.9611  156.7362 H   0  0  0  0  0  0  0  0  0  0  0  0  # atno 11005 bound_to 11000
  145.5602  139.1479  143.3346 LP  0  0  0  0  0  0  0  0  0  0  0  0  # atno 17320 bound_to 7965
  146.2266  140.5738  142.8994 LP  0  0  0  0  0  0  0  0  0  0  0  0  # atno 17321 bound_to 7965
  140.7408  143.2810  151.3599 LP  0  0  0  0  0  0  0  0  0  0  0  0  # atno 17342 bound_to 10162
  139.6253  144.0826  152.2428 LP  0  0  0  0  0  0  0  0  0  0  0  0  # atno 17343 bound_to 10162
  157.6148  131.0934  150.8730 LP  0  0  0  0  0  0  0  0  0  0  0  0  # atno 17370 bound_to 10713
  156.8863  130.5197  149.5288 LP  0  0  0  0  0  0  0  0  0  0  0  0  # atno 17371 bound_to 10713
  140.6886  133.9410  155.7953 LP  0  0  0  0  0  0  0  0  0  0  0  0  # atno 17394 bound_to 11000
  141.0458  134.0556  157.3846 LP  0  0  0  0  0  0  0  0  0  0  0  0  # atno 17395 bound_to 11000

$$$$
