AV-unprocessed.smi:2335|AV-procd|sdf|9323|dock2
  -GOLD-   2272012543D 1   1.00000     0.00000
 Structure written by MMmdl.
 42 43  0  0  0  0  0  0  0  0  1 V2000
  145.4024  143.3701  154.0214 C   0  0  0  0  0  0  0  0  0  0  0  0
  146.7358  142.6201  154.1074 C   0  0  0  0  0  0  0  0  0  0  0  0
  146.5719  141.1418  153.9869 C   0  0  0  0  0  0  0  0  0  0  0  0
  145.8559  140.4196  154.8579 N   0  0  0  0  0  0  0  0  0  0  0  0
  145.8640  139.0659  154.5518 N   0  0  0  0  0  0  0  0  0  0  0  0
  146.6022  138.8042  153.4645 C   0  0  0  0  0  0  0  0  0  0  0  0
  146.7836  137.5022  152.9283 N   0  0  0  0  0  0  0  0  0  0  0  0
  145.9417  136.4551  152.9796 C   0  0  0  0  0  0  0  0  0  0  0  0
  144.8481  136.4470  153.5448 O   0  0  0  0  0  0  0  0  0  0  0  0
  146.4411  135.4017  152.3183 N   0  0  0  0  0  0  0  0  0  0  0  0
  145.7590  134.1224  152.1305 C   0  0  2  0  0  0  0  0  0  0  0  0
  146.5800  133.1744  151.2785 C   0  0  0  0  0  0  0  0  0  0  0  0
  145.5272  132.2236  150.6952 C   0  0  0  0  0  0  0  0  0  0  0  0
  145.8515  131.8106  149.2511 C   0  0  0  0  0  0  0  0  0  0  0  0
  145.3103  130.9889  151.5866 C   0  0  0  0  0  0  0  0  0  0  0  0
  144.3057  132.9610  150.6914 O   0  0  0  0  0  0  0  0  0  0  0  0
  144.4408  134.2284  151.3323 C   0  0  0  0  0  0  0  0  0  0  0  0
  143.2191  134.4270  152.2431 C   0  0  0  0  0  0  0  0  0  0  0  0
  144.4600  135.2870  150.2091 C   0  0  0  0  0  0  0  0  0  0  0  0
  147.3604  140.2034  152.7241 S   0  0  0  0  0  0  0  0  0  0  0  0
  145.5555  144.4459  154.1077 H   0  0  0  0  0  0  0  0  0  0  0  0
  144.7272  143.0642  154.8213 H   0  0  0  0  0  0  0  0  0  0  0  0
  144.9048  143.1795  153.0703 H   0  0  0  0  0  0  0  0  0  0  0  0
  147.4074  142.9661  153.3208 H   0  0  0  0  0  0  0  0  0  0  0  0
  147.2263  142.8409  155.0557 H   0  0  0  0  0  0  0  0  0  0  0  0
  147.6434  137.3607  152.4194 H   0  0  0  0  0  0  0  0  0  0  0  0
  147.3488  135.4977  151.8875 H   0  0  0  0  0  0  0  0  0  0  0  0
  145.5781  133.6407  153.0937 H   0  0  0  0  0  0  0  0  0  0  0  0
  147.0750  133.7274  150.4785 H   0  0  0  0  0  0  0  0  0  0  0  0
  147.3560  132.6598  151.8462 H   0  0  0  0  0  0  0  0  0  0  0  0
  146.7880  131.2544  149.2006 H   0  0  0  0  0  0  0  0  0  0  0  0
  145.9457  132.6816  148.6019 H   0  0  0  0  0  0  0  0  0  0  0  0
  145.0659  131.1780  148.8364 H   0  0  0  0  0  0  0  0  0  0  0  0
  146.2139  130.3816  151.6465 H   0  0  0  0  0  0  0  0  0  0  0  0
  144.5125  130.3570  151.1948 H   0  0  0  0  0  0  0  0  0  0  0  0
  145.0331  131.2727  152.6021 H   0  0  0  0  0  0  0  0  0  0  0  0
  143.2620  135.3854  152.7606 H   0  0  0  0  0  0  0  0  0  0  0  0
  143.1560  133.6430  152.9981 H   0  0  0  0  0  0  0  0  0  0  0  0
  142.2929  134.4032  151.6686 H   0  0  0  0  0  0  0  0  0  0  0  0
  144.5153  136.2989  150.6114 H   0  0  0  0  0  0  0  0  0  0  0  0
  143.5543  135.2283  149.6051 H   0  0  0  0  0  0  0  0  0  0  0  0
  145.3074  135.1477  149.5376 H   0  0  0  0  0  0  0  0  0  0  0  0
  1  2  1  0  0  0  0
  1 21  1  0  0  0  0
  1 22  1  0  0  0  0
  1 23  1  0  0  0  0
  2  3  1  0  0  0  0
  2 24  1  0  0  0  0
  2 25  1  0  0  0  0
  3 20  1  0  0  0  0
  3  4  2  0  0  0  0
  4  5  1  0  0  0  0
  5  6  2  0  0  0  0
  6  7  1  0  0  0  0
  6 20  1  0  0  0  0
  7  8  1  0  0  0  0
  7 26  1  0  0  0  0
  8  9  2  0  0  0  0
  8 10  1  0  0  0  0
 10 11  1  0  0  0  0
 10 27  1  0  0  0  0
 11 17  1  0  0  0  0
 11 12  1  0  0  0  0
 11 28  1  0  0  0  0
 12 13  1  0  0  0  0
 12 29  1  0  0  0  0
 12 30  1  0  0  0  0
 13 14  1  0  0  0  0
 13 15  1  0  0  0  0
 13 16  1  0  0  0  0
 14 31  1  0  0  0  0
 14 32  1  0  0  0  0
 14 33  1  0  0  0  0
 15 34  1  0  0  0  0
 15 35  1  0  0  0  0
 15 36  1  0  0  0  0
 16 17  1  0  0  0  0
 17 18  1  0  0  0  0
 17 19  1  0  0  0  0
 18 37  1  0  0  0  0
 18 38  1  0  0  0  0
 18 39  1  0  0  0  0
 19 40  1  0  0  0  0
 19 41  1  0  0  0  0
 19 42  1  0  0  0  0
M  END
> <s_m_source_file>
AV-unprocessed.smi

> <i_m_source_file_index>
2335

> <i_lp_mmshare_version>
43012

> <i_f3d_flags>
0

> <s_epik_input>
W0NIM11bQ0gyXWMxbm5jKHMxKVtOSF1DKD1PKVtOSF1bQ0BASF0oQyhPMikoW0NIM10pW0NIM10pW0NIMl1DMihbQ0gzXSlbQ0gzXQ==

> <s_epik_cmdline>
J2VwaWtfcHl0aG9uJywgJy1waCcsICc3LjAnLCAnLXRuJywgJzgnLCAnLW1hJywgJzIwMCcsICctbWV0YWxfYmluZGluZycsICctaW1hZScsICc8aW5maWxlLm1hZT4nLCAnLW9tYWUnLCAnPG91dGZpbGUubWFlPic=

> <r_lp_tautomer_probability>
1

> <r_epik_Ionization_Penalty>
0.000542824

> <r_epik_Ionization_Penalty_Charging>
0

> <r_epik_Ionization_Penalty_Neutral>
0.000542824

> <r_epik_State_Penalty>
-0

> <r_epik_Charging_Adjusted_Penalty>
0

> <i_epik_Tot_Q>
0

> <i_epik_Tot_abs_Q>
0

> <r_epik_Metal_State_Penalty>
0.227439

> <b_epik_Metal_Only>
0

> <s_lp_Force_Field>
OPLS_2005

> <r_lp_Energy>
12.6376

> <b_lp_Chiralities_Consistent>
1

> <s_lp_Variant>
AV-unprocessed.smi:2335-1

> <Gold.Version>
5.8.1

> <Gold.Id.Protein>
6NUR|6NUR_protein|mol2

> <Gold.PLP.Fitness>
40.2375

> <Gold.PLP.PLP>
-34.5877

> <Gold.PLP.part.hbond>
-2.0000

> <Gold.PLP.part.metal>
0.0000

> <Gold.PLP.part.buried>
-2.2238

> <Gold.PLP.part.nonpolar>
-31.6030

> <Gold.PLP.part.repulsive>
0.4828

> <Gold.PLP.ligand.clash>
0.0000

> <Gold.PLP.ligand.torsion>
0.1875

> <Gold.PLP.Chemscore.Hbond>
2.0000

> <Gold.PLP.Chemscore.CHOScore>
0.0000

> <Gold.PLP.Chemscore.Metal>
0.0000

> <Gold.Chemscore.Hbonds>
donor molecule, donor type, donor heavy atom, donor atom, acceptor molecule, acceptor atom, score
      L1  H     7    26       P1  7948  0.99
      L1  H    10    27       P1  7948  1.00

> <Gold.PLP.Chemscore.Internal.Correction>
0.0247

> <Gold.Rescore>
     Score         DG    S(hbond)    S(metal)    S(lipo)     H(rot)  DE(clash)    DE(int)     intcor
     15.18     -19.23       1.90        0.00      89.83       1.21       1.48       2.57       ----

> <Gold.Chemscore.Fitness>
15.1829

> <Gold.Chemscore.DG>
-19.2310

> <Gold.Chemscore.ZeroCoef>
-5.4800

> <Gold.Chemscore.Hbond>
1.8954

> <Gold.Chemscore.Metal>
0.0000

> <Gold.Chemscore.Lipo>
89.8273

> <Gold.Chemscore.Internal_Hbond>
0.0000

> <Gold.Chemscore.DEClash>
1.4820

> <Gold.Chemscore.DEInternal>
2.5661

> <Gold.Chemscore.Rot>
1.2068

> <Gold.Chemscore.Internal.Correction>
   9.000000E+99

> <Gold.Chemscore.Hbonds>
donor molecule, donor type, donor heavy atom, donor atom, acceptor molecule, acceptor atom, score
      L1  H     7    26       P1  7948  0.94
      L1  H    10    27       P1  7948  0.96

> <Gold.Chemscore.Hbond.Weighted>
-6.3307

> <Gold.Chemscore.Metal.Weighted>
-0.0000

> <Gold.Chemscore.Lipo.Weighted>
-10.5098

> <Gold.Chemscore.Internal_Hbond.Weighted>
0.0000

> <Gold.Chemscore.DEClash.Weighted>
1.4820

> <Gold.Chemscore.DEInternal.Weighted>
2.5661

> <Gold.Chemscore.Rot.Weighted>
3.0895

> <Gold.Chemscore.Internal.Correction.Weighted>
   9.000000E+99

> <Gold.Protein.RotatedTorsions>
[ 6907 6896 6895 6894 ] final   28.40 input  -60.11 | X-H torsion
[ 7974 7965 7964 7962 ] final  -53.79 input  175.53 | X-H torsion
[ 8008 7997 7996 7995 ] final -158.95 input   59.86 | X-H torsion
[ 10167 10162 10161 10158 ] final  -77.40 input  -65.29 | X-H torsion
[ 10718 10713 10712 10709 ] final  -25.92 input   66.30 | X-H torsion
[ 10763 10752 10751 10750 ] final   82.05 input  -60.55 | X-H torsion
[ 11005 11000 10999 10996 ] final   78.37 input  -57.11 | X-H torsion

> <Gold.Protein.ActiveResidues>
 VAL166  LYS551  ARG553  GLY616  TRP617  ASP618  TYR619  PRO620  LYS621  CYS622 
 ASP623  PHE694  ASN695  SER759  ASP760  ASP761  ALA762  ILE779  LEU786  VAL792 
 PHE793  MET794  SER795  GLU796  ALA797  LYS798  CYS799  TRP800  GLU811  SER814 

> <Gold.Protein.RotatedAtoms>
  152.0164  134.9847  160.0569 H   0  0  0  0  0  0  0  0  0  0  0  0  # atno 6907 bound_to 6896
  152.1380  133.4442  159.4761 H   0  0  0  0  0  0  0  0  0  0  0  0  # atno 6908 bound_to 6896
  150.6862  134.2259  159.4458 H   0  0  0  0  0  0  0  0  0  0  0  0  # atno 6909 bound_to 6896
  145.8928  140.8057  142.9783 H   0  0  0  0  0  0  0  0  0  0  0  0  # atno 7974 bound_to 7965
  155.7553  140.0832  157.2181 H   0  0  0  0  0  0  0  0  0  0  0  0  # atno 8008 bound_to 7997
  154.4008  140.1553  156.2827 H   0  0  0  0  0  0  0  0  0  0  0  0  # atno 8009 bound_to 7997
  155.8891  140.3416  155.5946 H   0  0  0  0  0  0  0  0  0  0  0  0  # atno 8010 bound_to 7997
  140.4773  143.2411  151.8113 H   0  0  0  0  0  0  0  0  0  0  0  0  # atno 10167 bound_to 10162
  156.4580  130.4498  149.6947 H   0  0  0  0  0  0  0  0  0  0  0  0  # atno 10718 bound_to 10713
  153.1169  135.4743  154.9130 H   0  0  0  0  0  0  0  0  0  0  0  0  # atno 10763 bound_to 10752
  154.7537  135.3113  154.8512 H   0  0  0  0  0  0  0  0  0  0  0  0  # atno 10764 bound_to 10752
  153.9086  135.6867  153.4805 H   0  0  0  0  0  0  0  0  0  0  0  0  # atno 10765 bound_to 10752
  139.9215  134.7758  156.1641 H   0  0  0  0  0  0  0  0  0  0  0  0  # atno 11005 bound_to 11000
  144.6731  140.1556  143.7426 LP  0  0  0  0  0  0  0  0  0  0  0  0  # atno 17320 bound_to 7965
  145.8887  139.2363  143.1562 LP  0  0  0  0  0  0  0  0  0  0  0  0  # atno 17321 bound_to 7965
  139.4827  144.4817  151.9298 LP  0  0  0  0  0  0  0  0  0  0  0  0  # atno 17342 bound_to 10162
  140.3902  144.2625  150.5900 LP  0  0  0  0  0  0  0  0  0  0  0  0  # atno 17343 bound_to 10162
  156.3747  130.7548  151.2535 LP  0  0  0  0  0  0  0  0  0  0  0  0  # atno 17370 bound_to 10713
  157.7499  131.0313  150.4175 LP  0  0  0  0  0  0  0  0  0  0  0  0  # atno 17371 bound_to 10713
  141.0740  133.6784  156.2198 LP  0  0  0  0  0  0  0  0  0  0  0  0  # atno 17394 bound_to 11000
  140.6460  134.5117  157.5573 LP  0  0  0  0  0  0  0  0  0  0  0  0  # atno 17395 bound_to 11000

$$$$
