AV-unprocessed.smi:3050|AV-procd|sdf|11631|dock3
  -GOLD-   2272017 23D 1   1.00000     0.00000
 Structure written by MMmdl.
 45 46  0  0  0  0  0  0  0  0  1 V2000
  152.6690  137.4873  159.1162 C   0  0  0  0  0  0  0  0  0  0  0  0
  153.2283  137.2134  160.5180 C   0  0  0  0  0  0  0  0  0  0  0  0
  154.7152  137.5926  160.6520 C   0  0  2  0  0  0  0  0  0  0  0  0
  155.0840  137.4341  162.0217 O   0  0  0  0  0  0  0  0  0  0  0  0
  154.6850  136.2196  162.6506 C   0  0  0  0  0  0  0  0  0  0  0  0
  154.7020  136.3828  164.1691 C   0  0  0  0  0  0  0  0  0  0  0  0
  154.8109  134.9536  164.7080 C   0  0  0  0  0  0  0  0  0  0  0  0
  155.5112  134.1382  163.6093 C   0  0  0  0  0  0  0  0  0  0  0  0
  155.6849  135.0842  162.4147 C   0  0  0  0  0  0  0  0  0  0  0  0
  154.9683  139.0363  160.1874 C   0  0  0  0  0  0  0  0  0  0  0  0
  155.5951  139.2554  159.1506 O   0  0  0  0  0  0  0  0  0  0  0  0
  154.4600  140.0090  160.9598 N   0  0  0  0  0  0  0  0  0  0  0  0
  154.5776  141.4384  160.6983 C   0  0  0  0  0  0  0  0  0  0  0  0
  153.5746  142.2539  161.5299 C   0  0  0  0  0  0  0  0  0  0  0  0
  152.8107  143.2242  160.6737 C   0  0  0  0  0  0  0  0  0  0  0  0
  151.9356  144.2635  161.1005 C   0  0  0  0  0  0  0  0  0  0  0  0
  151.4139  144.9431  160.0924 N   0  0  0  0  0  0  0  0  0  0  0  0
  151.9355  144.3642  158.9914 N   0  0  0  0  0  0  0  0  0  0  0  0
  151.5739  144.8655  157.6829 C   0  0  0  0  0  0  0  0  0  0  0  0
  152.7825  143.3250  159.3114 C   0  0  0  0  0  0  0  0  0  0  0  0
  151.6138  137.2193  159.0606 H   0  0  0  0  0  0  0  0  0  0  0  0
  153.1982  136.9081  158.3591 H   0  0  0  0  0  0  0  0  0  0  0  0
  152.7588  138.5421  158.8555 H   0  0  0  0  0  0  0  0  0  0  0  0
  152.6382  137.7757  161.2432 H   0  0  0  0  0  0  0  0  0  0  0  0
  153.0882  136.1588  160.7602 H   0  0  0  0  0  0  0  0  0  0  0  0
  155.3029  136.9064  160.0384 H   0  0  0  0  0  0  0  0  0  0  0  0
  153.6833  135.9089  162.3472 H   0  0  0  0  0  0  0  0  0  0  0  0
  155.5836  136.9514  164.4688 H   0  0  0  0  0  0  0  0  0  0  0  0
  153.8244  136.9100  164.5447 H   0  0  0  0  0  0  0  0  0  0  0  0
  155.3509  134.9193  165.6545 H   0  0  0  0  0  0  0  0  0  0  0  0
  153.8142  134.5478  164.8852 H   0  0  0  0  0  0  0  0  0  0  0  0
  156.4748  133.7530  163.9446 H   0  0  0  0  0  0  0  0  0  0  0  0
  154.8963  133.2808  163.3322 H   0  0  0  0  0  0  0  0  0  0  0  0
  155.5354  134.5797  161.4612 H   0  0  0  0  0  0  0  0  0  0  0  0
  156.6989  135.4862  162.4171 H   0  0  0  0  0  0  0  0  0  0  0  0
  153.9548  139.7373  161.7907 H   0  0  0  0  0  0  0  0  0  0  0  0
  155.5957  141.7403  160.9454 H   0  0  0  0  0  0  0  0  0  0  0  0
  154.4443  141.6368  159.6332 H   0  0  0  0  0  0  0  0  0  0  0  0
  152.8850  141.5769  162.0351 H   0  0  0  0  0  0  0  0  0  0  0  0
  154.1067  142.7810  162.3227 H   0  0  0  0  0  0  0  0  0  0  0  0
  151.6653  144.5410  162.1088 H   0  0  0  0  0  0  0  0  0  0  0  0
  152.0060  144.2325  156.9074 H   0  0  0  0  0  0  0  0  0  0  0  0
  151.9490  145.8821  157.5614 H   0  0  0  0  0  0  0  0  0  0  0  0
  150.4890  144.8676  157.5739 H   0  0  0  0  0  0  0  0  0  0  0  0
  153.2892  142.7481  158.5518 H   0  0  0  0  0  0  0  0  0  0  0  0
  1  2  1  0  0  0  0
  1 21  1  0  0  0  0
  1 22  1  0  0  0  0
  1 23  1  0  0  0  0
  2  3  1  0  0  0  0
  2 24  1  0  0  0  0
  2 25  1  0  0  0  0
  3  4  1  0  0  0  0
  3 10  1  0  0  0  0
  3 26  1  0  0  0  0
  4  5  1  0  0  0  0
  5  9  1  0  0  0  0
  5  6  1  0  0  0  0
  5 27  1  0  0  0  0
  6  7  1  0  0  0  0
  6 28  1  0  0  0  0
  6 29  1  0  0  0  0
  7  8  1  0  0  0  0
  7 30  1  0  0  0  0
  7 31  1  0  0  0  0
  8  9  1  0  0  0  0
  8 32  1  0  0  0  0
  8 33  1  0  0  0  0
  9 34  1  0  0  0  0
  9 35  1  0  0  0  0
 10 11  2  0  0  0  0
 10 12  1  0  0  0  0
 12 13  1  0  0  0  0
 12 36  1  0  0  0  0
 13 14  1  0  0  0  0
 13 37  1  0  0  0  0
 13 38  1  0  0  0  0
 14 15  1  0  0  0  0
 14 39  1  0  0  0  0
 14 40  1  0  0  0  0
 15 20  2  0  0  0  0
 15 16  1  0  0  0  0
 16 17  2  0  0  0  0
 16 41  1  0  0  0  0
 17 18  1  0  0  0  0
 18 19  1  0  0  0  0
 18 20  1  0  0  0  0
 19 42  1  0  0  0  0
 19 43  1  0  0  0  0
 19 44  1  0  0  0  0
 20 45  1  0  0  0  0
M  END
> <s_m_source_file>
AV-unprocessed.smi

> <i_m_source_file_index>
3050

> <i_lp_mmshare_version>
43012

> <i_f3d_flags>
0

> <s_epik_input>
W0NIMl0xW0NIMl1bQ0gyXVtDSDJdW0NIXTFPW0NAQEhdKFtDSDJdW0NIM10pQyg9TylbTkhdW0NIMl1bQ0gyXWMyW2NIXW5uKFtDSDNdKVtjSF0y

> <s_epik_cmdline>
J2VwaWtfcHl0aG9uJywgJy1waCcsICc3LjAnLCAnLXRuJywgJzgnLCAnLW1hJywgJzIwMCcsICctbWV0YWxfYmluZGluZycsICctaW1hZScsICc8aW5maWxlLm1hZT4nLCAnLW9tYWUnLCAnPG91dGZpbGUubWFlPic=

> <r_lp_tautomer_probability>
1

> <r_epik_Ionization_Penalty>
0.000440265

> <r_epik_Ionization_Penalty_Charging>
0

> <r_epik_Ionization_Penalty_Neutral>
0.000440265

> <r_epik_State_Penalty>
-0

> <r_epik_Charging_Adjusted_Penalty>
0

> <i_epik_Tot_Q>
0

> <i_epik_Tot_abs_Q>
0

> <r_epik_Metal_State_Penalty>
-0

> <b_epik_Metal_Only>
0

> <s_lp_Force_Field>
OPLS_2005

> <r_lp_Energy>
20.5357

> <b_lp_Chiralities_Consistent>
1

> <s_lp_Variant>
AV-unprocessed.smi:3050-1

> <Gold.Version>
5.8.1

> <Gold.Id.Protein>
6NUR|6NUR_protein|mol2

> <Gold.PLP.Fitness>
45.5279

> <Gold.PLP.PLP>
-44.3878

> <Gold.PLP.part.hbond>
-1.0000

> <Gold.PLP.part.metal>
0.0000

> <Gold.PLP.part.buried>
-4.4953

> <Gold.PLP.part.nonpolar>
-39.2355

> <Gold.PLP.part.repulsive>
0.1285

> <Gold.PLP.ligand.clash>
0.0000

> <Gold.PLP.ligand.torsion>
1.0273

> <Gold.PLP.Chemscore.Hbond>
1.0000

> <Gold.PLP.Chemscore.CHOScore>
0.0000

> <Gold.PLP.Chemscore.Metal>
0.0000

> <Gold.Chemscore.Hbonds>
donor molecule, donor type, donor heavy atom, donor atom, acceptor molecule, acceptor atom, score
      P1  H  7997  8008       L1    11  1.00

> <Gold.PLP.Chemscore.Internal.Correction>
0.1948

> <Gold.Rescore>
     Score         DG    S(hbond)    S(metal)    S(lipo)     H(rot)  DE(clash)    DE(int)     intcor
     17.21     -18.37       1.00        0.00     121.72       1.83       0.04       1.12       ----

> <Gold.Chemscore.Fitness>
17.2086

> <Gold.Chemscore.DG>
-18.3692

> <Gold.Chemscore.ZeroCoef>
-5.4800

> <Gold.Chemscore.Hbond>
0.9966

> <Gold.Chemscore.Metal>
0.0000

> <Gold.Chemscore.Lipo>
121.7243

> <Gold.Chemscore.Internal_Hbond>
0.0000

> <Gold.Chemscore.DEClash>
0.0392

> <Gold.Chemscore.DEInternal>
1.1214

> <Gold.Chemscore.Rot>
1.8286

> <Gold.Chemscore.Internal.Correction>
   9.000000E+99

> <Gold.Chemscore.Hbonds>
donor molecule, donor type, donor heavy atom, donor atom, acceptor molecule, acceptor atom, score
      P1  H  7997  8008       L1    11  0.99

> <Gold.Chemscore.Hbond.Weighted>
-3.3286

> <Gold.Chemscore.Metal.Weighted>
-0.0000

> <Gold.Chemscore.Lipo.Weighted>
-14.2417

> <Gold.Chemscore.Internal_Hbond.Weighted>
0.0000

> <Gold.Chemscore.DEClash.Weighted>
0.0392

> <Gold.Chemscore.DEInternal.Weighted>
1.1214

> <Gold.Chemscore.Rot.Weighted>
4.6811

> <Gold.Chemscore.Internal.Correction.Weighted>
   9.000000E+99

> <Gold.Protein.RotatedTorsions>
[ 6907 6896 6895 6894 ] final -140.31 input  -60.11 | X-H torsion
[ 7974 7965 7964 7962 ] final   88.74 input  175.53 | X-H torsion
[ 8008 7997 7996 7995 ] final -136.84 input   59.86 | X-H torsion
[ 10167 10162 10161 10158 ] final  179.61 input  -65.29 | X-H torsion
[ 10718 10713 10712 10709 ] final  -70.63 input   66.30 | X-H torsion
[ 10763 10752 10751 10750 ] final   40.00 input  -60.55 | X-H torsion
[ 11005 11000 10999 10996 ] final -172.64 input  -57.11 | X-H torsion

> <Gold.Protein.ActiveResidues>
 VAL166  LYS551  ARG553  GLY616  TRP617  ASP618  TYR619  PRO620  LYS621  CYS622 
 ASP623  PHE694  ASN695  SER759  ASP760  ASP761  ALA762  ILE779  LEU786  VAL792 
 PHE793  MET794  SER795  GLU796  ALA797  LYS798  CYS799  TRP800  GLU811  SER814 

> <Gold.Protein.RotatedAtoms>
  151.0590  133.5560  159.2635 H   0  0  0  0  0  0  0  0  0  0  0  0  # atno 6907 bound_to 6896
  151.2542  135.0631  159.9083 H   0  0  0  0  0  0  0  0  0  0  0  0  # atno 6908 bound_to 6896
  152.5394  134.0346  159.8094 H   0  0  0  0  0  0  0  0  0  0  0  0  # atno 6909 bound_to 6896
  145.5417  139.2289  143.2562 H   0  0  0  0  0  0  0  0  0  0  0  0  # atno 7974 bound_to 7965
  155.4019  140.0506  157.3036 H   0  0  0  0  0  0  0  0  0  0  0  0  # atno 8008 bound_to 7997
  154.4987  140.2148  155.9353 H   0  0  0  0  0  0  0  0  0  0  0  0  # atno 8009 bound_to 7997
  156.1439  140.3149  155.8544 H   0  0  0  0  0  0  0  0  0  0  0  0  # atno 8010 bound_to 7997
  139.5344  144.2541  152.0761 H   0  0  0  0  0  0  0  0  0  0  0  0  # atno 10167 bound_to 10162
  156.0399  130.4335  150.2324 H   0  0  0  0  0  0  0  0  0  0  0  0  # atno 10718 bound_to 10713
  152.9949  135.6204  154.2556 H   0  0  0  0  0  0  0  0  0  0  0  0  # atno 10763 bound_to 10752
  154.2293  135.2793  155.2897 H   0  0  0  0  0  0  0  0  0  0  0  0  # atno 10764 bound_to 10752
  154.5462  135.5746  153.6940 H   0  0  0  0  0  0  0  0  0  0  0  0  # atno 10765 bound_to 10752
  140.4947  134.5951  157.4967 H   0  0  0  0  0  0  0  0  0  0  0  0  # atno 11005 bound_to 11000
  146.1977  140.6237  142.9117 LP  0  0  0  0  0  0  0  0  0  0  0  0  # atno 17320 bound_to 7965
  144.7574  140.5340  143.6759 LP  0  0  0  0  0  0  0  0  0  0  0  0  # atno 17321 bound_to 7965
  140.2009  144.4659  150.6432 LP  0  0  0  0  0  0  0  0  0  0  0  0  # atno 17342 bound_to 10162
  140.6541  143.2233  151.6008 LP  0  0  0  0  0  0  0  0  0  0  0  0  # atno 17343 bound_to 10162
  157.0420  131.0038  151.3280 LP  0  0  0  0  0  0  0  0  0  0  0  0  # atno 17370 bound_to 10713
  157.5203  130.7993  149.7801 LP  0  0  0  0  0  0  0  0  0  0  0  0  # atno 17371 bound_to 10713
  139.9748  134.7233  155.9970 LP  0  0  0  0  0  0  0  0  0  0  0  0  # atno 17394 bound_to 11000
  141.1466  133.6555  156.3887 LP  0  0  0  0  0  0  0  0  0  0  0  0  # atno 17395 bound_to 11000

$$$$
