AV-unprocessed.smi:102|AV-procd|sdf|974|dock9
  -GOLD-   2262017533D 1   1.00000     0.00000
 Structure written by MMmdl.
 43 44  0  0  0  0  0  0  0  0  2 V2000
  146.7310  134.8687  162.3464 C   0  0  0  0  0  0  0  0  0  0  0  0
  147.5498  135.9708  161.6853 C   0  0  0  0  0  0  0  0  0  0  0  0
  148.1991  136.7755  162.3535 O   0  0  0  0  0  0  0  0  0  0  0  0
  147.4651  135.9434  160.3477 O   0  0  0  0  0  0  0  0  0  0  0  0
  148.2307  136.8532  159.5729 C   0  0  0  0  0  0  0  0  0  0  0  0
  147.4200  137.3607  158.3702 C   0  0  1  0  0  0  0  0  0  0  0  0
  148.1916  138.3244  157.6549 O   0  0  0  0  0  0  0  0  0  0  0  0
  148.3114  137.9341  156.3237 C   0  0  1  0  0  0  0  0  0  0  0  0
  149.6839  138.3433  155.8306 N   0  0  0  0  0  0  0  0  0  0  0  0
  150.8044  137.6276  156.2203 C   0  0  0  0  0  0  0  0  0  0  0  0
  152.0465  138.0116  155.8638 C   0  0  0  0  0  0  0  0  0  0  0  0
  153.1097  137.2918  156.2620 F   0  0  0  0  0  0  0  0  0  0  0  0
  152.2260  139.2206  155.0646 C   0  0  0  0  0  0  0  0  0  0  0  0
  153.3580  139.5510  154.7148 O   0  0  0  0  0  0  0  0  0  0  0  0
  151.1132  139.9416  154.7452 N   0  5  0  0  0  0  0  0  0  0  0  0
  149.8547  139.5654  155.1193 C   0  0  0  0  0  0  0  0  0  0  0  0
  148.8580  140.2392  154.8603 O   0  0  0  0  0  0  0  0  0  0  0  0
  148.0540  136.4274  156.2566 C   0  0  2  0  0  0  0  0  0  0  0  0
  147.5846  136.0437  154.9700 O   0  0  0  0  0  0  0  0  0  0  0  0
  147.7176  134.7723  154.5584 C   0  0  0  0  0  0  0  0  0  0  0  0
  147.1745  134.5580  153.1522 C   0  0  0  0  0  0  0  0  0  0  0  0
  148.2067  133.8473  155.2073 O   0  0  0  0  0  0  0  0  0  0  0  0
  147.0249  136.2603  157.3674 C   0  0  2  0  0  0  0  0  0  0  0  0
  145.7105  136.5074  156.8743 O   0  0  0  0  0  0  0  0  0  0  0  0
  144.6591  136.5105  157.7117 C   0  0  0  0  0  0  0  0  0  0  0  0
  143.3588  136.8731  157.0073 C   0  0  0  0  0  0  0  0  0  0  0  0
  144.6908  136.2627  158.9172 O   0  0  0  0  0  0  0  0  0  0  0  0
  146.4219  134.1192  161.6174 H   0  0  0  0  0  0  0  0  0  0  0  0
  145.8378  135.2897  162.8076 H   0  0  0  0  0  0  0  0  0  0  0  0
  147.3188  134.3732  163.1191 H   0  0  0  0  0  0  0  0  0  0  0  0
  148.5240  137.6954  160.2010 H   0  0  0  0  0  0  0  0  0  0  0  0
  149.1465  136.3725  159.2258 H   0  0  0  0  0  0  0  0  0  0  0  0
  146.5320  137.8628  158.7555 H   0  0  0  0  0  0  0  0  0  0  0  0
  147.5630  138.4699  155.7398 H   0  0  0  0  0  0  0  0  0  0  0  0
  150.7023  136.7510  156.8386 H   0  0  0  0  0  0  0  0  0  0  0  0
  148.9576  135.8830  156.5229 H   0  0  0  0  0  0  0  0  0  0  0  0
  147.5203  135.3487  152.4860 H   0  0  0  0  0  0  0  0  0  0  0  0
  146.0847  134.5664  153.1646 H   0  0  0  0  0  0  0  0  0  0  0  0
  147.5093  133.6000  152.7538 H   0  0  0  0  0  0  0  0  0  0  0  0
  147.0870  135.2599  157.7989 H   0  0  0  0  0  0  0  0  0  0  0  0
  143.2264  136.2592  156.1160 H   0  0  0  0  0  0  0  0  0  0  0  0
  143.3716  137.9212  156.7082 H   0  0  0  0  0  0  0  0  0  0  0  0
  142.5065  136.7117  157.6675 H   0  0  0  0  0  0  0  0  0  0  0  0
  1  2  1  0  0  0  0
  1 28  1  0  0  0  0
  1 29  1  0  0  0  0
  1 30  1  0  0  0  0
  2  3  2  0  0  0  0
  2  4  1  0  0  0  0
  4  5  1  0  0  0  0
  5  6  1  0  0  0  0
  5 31  1  0  0  0  0
  5 32  1  0  0  0  0
  6 23  1  0  0  0  0
  6  7  1  0  0  0  0
  6 33  1  0  0  0  0
  7  8  1  0  0  0  0
  8  9  1  0  0  0  0
  8 18  1  0  0  0  0
  8 34  1  0  0  0  0
  9 16  1  0  0  0  0
  9 10  1  0  0  0  0
 10 11  2  0  0  0  0
 10 35  1  0  0  0  0
 11 12  1  0  0  0  0
 11 13  1  0  0  0  0
 13 14  2  0  0  0  0
 13 15  1  0  0  0  0
 15 16  1  0  0  0  0
 16 17  2  0  0  0  0
 18 19  1  0  0  0  0
 18 23  1  0  0  0  0
 18 36  1  0  0  0  0
 19 20  1  0  0  0  0
 20 21  1  0  0  0  0
 20 22  2  0  0  0  0
 21 37  1  0  0  0  0
 21 38  1  0  0  0  0
 21 39  1  0  0  0  0
 23 24  1  0  0  0  0
 23 40  1  0  0  0  0
 24 25  1  0  0  0  0
 25 26  1  0  0  0  0
 25 27  2  0  0  0  0
 26 41  1  0  0  0  0
 26 42  1  0  0  0  0
 26 43  1  0  0  0  0
M  CHG  1  15  -1
M  END
> <s_m_source_file>
AV-unprocessed.smi

> <i_m_source_file_index>
102

> <i_lp_mmshare_version>
43012

> <i_f3d_flags>
0

> <s_epik_input>
W0NIM11DKD1PKU9bQ0gyXVtDQEBIXTFPW0NASF0oW0NAQEhdKE9DKD1PKVtDSDNdKVtDQEhdMU9DKD1PKVtDSDNdKW4yW2NIXWMoRiljKD1PKVtuSF1jMj1P

> <s_epik_cmdline>
J2VwaWtfcHl0aG9uJywgJy1waCcsICc3LjAnLCAnLXRuJywgJzgnLCAnLW1hJywgJzIwMCcsICctbWV0YWxfYmluZGluZycsICctaW1hZScsICc8aW5maWxlLm1hZT4nLCAnLW9tYWUnLCAnPG91dGZpbGUubWFlPic=

> <r_epik_Ionization_Penalty>
1.40304

> <r_epik_Ionization_Penalty_Charging>
1.43915e-08

> <r_epik_Ionization_Penalty_Neutral>
1.40304

> <r_epik_State_Penalty>
1.48536

> <r_epik_Charging_Adjusted_Penalty>
1.48536

> <i_epik_Tot_Q>
-1

> <i_epik_Tot_abs_Q>
1

> <r_epik_Metal_State_Penalty>
0.00663881

> <b_epik_Metal_Only>
0

> <s_epik_Chemistry_Notes>
This compound has an ester and may undergo hydrolysis at high or low pH. This compound contains an acetal/aminal-like group ( X-CH(R)-Y where X, Y are N, S, or O) that may be acid/base labile, releasing an aldehyde.

> <s_lp_Force_Field>
OPLS_2005

> <r_lp_Energy>
27.5776

> <b_lp_Chiralities_Consistent>
1

> <s_lp_Variant>
AV-unprocessed.smi:102-30

> <Gold.Version>
5.8.1

> <Gold.Id.Protein>
6NUR|6NUR_protein|mol2

> <Gold.PLP.Fitness>
38.8637

> <Gold.PLP.PLP>
-32.0320

> <Gold.PLP.part.hbond>
-4.5451

> <Gold.PLP.part.metal>
0.0000

> <Gold.PLP.part.buried>
-4.9202

> <Gold.PLP.part.nonpolar>
-22.1395

> <Gold.PLP.part.repulsive>
0.4406

> <Gold.PLP.ligand.clash>
0.0000

> <Gold.PLP.ligand.torsion>
1.1267

> <Gold.PLP.Chemscore.Hbond>
2.9500

> <Gold.PLP.Chemscore.CHOScore>
0.0000

> <Gold.PLP.Chemscore.Metal>
0.0000

> <Gold.Chemscore.Hbonds>
donor molecule, donor type, donor heavy atom, donor atom, acceptor molecule, acceptor atom, score
      P1  H  6931  6943       L1     3  1.00
      P1  H  7989  7998       L1    15  1.00
      P1  H  7997  8008       L1    14  1.00

> <Gold.PLP.Chemscore.Internal.Correction>
0.2350

> <Gold.Rescore>
     Score         DG    S(hbond)    S(metal)    S(lipo)     H(rot)  DE(clash)    DE(int)     intcor
      7.82     -10.12       3.29        0.00      33.13       4.00       0.29       2.01       ----

> <Gold.Chemscore.Fitness>
7.8233

> <Gold.Chemscore.DG>
-10.1187

> <Gold.Chemscore.ZeroCoef>
-5.4800

> <Gold.Chemscore.Hbond>
3.2904

> <Gold.Chemscore.Metal>
0.0000

> <Gold.Chemscore.Lipo>
33.1303

> <Gold.Chemscore.Internal_Hbond>
0.0000

> <Gold.Chemscore.DEClash>
0.2887

> <Gold.Chemscore.DEInternal>
2.0067

> <Gold.Chemscore.Rot>
3.9951

> <Gold.Chemscore.Internal.Correction>
   9.000000E+99

> <Gold.Chemscore.Hbonds>
donor molecule, donor type, donor heavy atom, donor atom, acceptor molecule, acceptor atom, score
      P1  H  6931  6943       L1     3  0.99
      P1  H  7989  7998       L1    15  0.35
      P1  H  7997  8008       L1    14  0.94

> <Gold.Chemscore.Hbond.Weighted>
-10.9899

> <Gold.Chemscore.Metal.Weighted>
-0.0000

> <Gold.Chemscore.Lipo.Weighted>
-3.8762

> <Gold.Chemscore.Internal_Hbond.Weighted>
0.0000

> <Gold.Chemscore.DEClash.Weighted>
0.2887

> <Gold.Chemscore.DEInternal.Weighted>
2.0067

> <Gold.Chemscore.Rot.Weighted>
10.2274

> <Gold.Chemscore.Internal.Correction.Weighted>
   9.000000E+99

> <Gold.Protein.RotatedTorsions>
[ 6907 6896 6895 6894 ] final  -27.33 input  -60.11 | X-H torsion
[ 7974 7965 7964 7962 ] final  -89.82 input  175.53 | X-H torsion
[ 8008 7997 7996 7995 ] final  -21.15 input   59.86 | X-H torsion
[ 10167 10162 10161 10158 ] final  133.11 input  -65.29 | X-H torsion
[ 10718 10713 10712 10709 ] final   -9.16 input   66.30 | X-H torsion
[ 10763 10752 10751 10750 ] final   16.81 input  -60.55 | X-H torsion
[ 11005 11000 10999 10996 ] final  147.67 input  -57.11 | X-H torsion

> <Gold.Protein.ActiveResidues>
 VAL166  LYS551  ARG553  GLY616  TRP617  ASP618  TYR619  PRO620  LYS621  CYS622 
 ASP623  PHE694  ASN695  SER759  ASP760  ASP761  ALA762  ILE779  LEU786  VAL792 
 PHE793  MET794  SER795  GLU796  ALA797  LYS798  CYS799  TRP800  GLU811  SER814 

> <Gold.Protein.RotatedAtoms>
  151.1484  135.0214  159.8656 H   0  0  0  0  0  0  0  0  0  0  0  0  # atno 6907 bound_to 6896
  152.5453  134.1418  159.8492 H   0  0  0  0  0  0  0  0  0  0  0  0  # atno 6908 bound_to 6896
  151.1500  133.4868  159.2628 H   0  0  0  0  0  0  0  0  0  0  0  0  # atno 6909 bound_to 6896
  145.4347  140.9557  143.2108 H   0  0  0  0  0  0  0  0  0  0  0  0  # atno 7974 bound_to 7965
  154.4724  140.2042  155.9963 H   0  0  0  0  0  0  0  0  0  0  0  0  # atno 8008 bound_to 7997
  156.1032  140.3240  155.7941 H   0  0  0  0  0  0  0  0  0  0  0  0  # atno 8009 bound_to 7997
  155.4761  140.0535  157.2964 H   0  0  0  0  0  0  0  0  0  0  0  0  # atno 8010 bound_to 7997
  139.5311  144.6631  151.4949 H   0  0  0  0  0  0  0  0  0  0  0  0  # atno 10167 bound_to 10162
  156.6921  130.5068  149.5940 H   0  0  0  0  0  0  0  0  0  0  0  0  # atno 10718 bound_to 10713
  153.1396  135.6757  153.9048 H   0  0  0  0  0  0  0  0  0  0  0  0  # atno 10763 bound_to 10752
  153.8508  135.3093  155.3433 H   0  0  0  0  0  0  0  0  0  0  0  0  # atno 10764 bound_to 10752
  154.7776  135.4906  153.9861 H   0  0  0  0  0  0  0  0  0  0  0  0  # atno 10765 bound_to 10752
  140.0895  134.9049  157.1628 H   0  0  0  0  0  0  0  0  0  0  0  0  # atno 11005 bound_to 11000
  144.8160  139.5876  143.7008 LP  0  0  0  0  0  0  0  0  0  0  0  0  # atno 17320 bound_to 7965
  146.2588  139.6363  142.9376 LP  0  0  0  0  0  0  0  0  0  0  0  0  # atno 17321 bound_to 7965
  140.6489  143.8737  150.6765 LP  0  0  0  0  0  0  0  0  0  0  0  0  # atno 17342 bound_to 10162
  140.2096  143.3894  152.1729 LP  0  0  0  0  0  0  0  0  0  0  0  0  # atno 17343 bound_to 10162
  156.1790  130.6486  151.0928 LP  0  0  0  0  0  0  0  0  0  0  0  0  # atno 17370 bound_to 10713
  157.7005  131.0778  150.6836 LP  0  0  0  0  0  0  0  0  0  0  0  0  # atno 17371 bound_to 10713
  140.3372  134.2744  155.7218 LP  0  0  0  0  0  0  0  0  0  0  0  0  # atno 17394 bound_to 11000
  141.2073  133.7808  157.0125 LP  0  0  0  0  0  0  0  0  0  0  0  0  # atno 17395 bound_to 11000

$$$$
