AV-unprocessed.smi:3334|AV-procd|sdf|12836|dock1
  -GOLD-   2272019213D 1   1.00000     0.00000
 Structure written by MMmdl.
 41 42  0  0  0  0  0  0  0  0  1 V2000
  152.2879  145.4973  159.1511 C   0  0  0  0  0  0  0  0  0  0  0  0
  151.3494  144.3311  159.4932 C   0  0  0  0  0  0  0  0  0  0  0  0
  150.1068  144.7876  160.2686 C   0  0  0  0  0  0  0  0  0  0  0  0
  152.0664  143.2197  160.1954 C   0  0  0  0  0  0  0  0  0  0  0  0
  151.6158  142.6568  161.3192 N   0  0  0  0  0  0  0  0  0  0  0  0
  152.4527  141.6417  161.7944 C   0  0  0  0  0  0  0  0  0  0  0  0
  152.1107  140.9328  163.0753 C   0  0  0  0  0  0  0  0  0  0  0  0
  151.7695  141.8904  164.2330 C   0  0  0  0  0  0  0  0  0  0  0  0
  151.8843  141.2268  165.5283 N   0  0  0  0  0  0  0  0  0  0  0  0
  152.5309  141.7181  166.5947 C   0  0  0  0  0  0  0  0  0  0  0  0
  153.2550  142.7129  166.5521 O   0  0  0  0  0  0  0  0  0  0  0  0
  152.2888  140.9964  167.9244 C   0  0  0  0  0  0  0  0  0  0  0  0
  151.5384  139.6558  167.7586 C   0  0  1  0  0  0  0  0  0  0  0  0
  152.3508  138.5752  167.0839 C   0  0  0  0  0  0  0  0  0  0  0  0
  152.3651  137.4373  167.7731 C   0  0  0  0  0  0  0  0  0  0  0  0
  151.5771  137.5285  169.0500 C   0  0  0  0  0  0  0  0  0  0  0  0
  151.1339  139.0076  169.1072 C   0  0  0  0  0  0  0  0  0  0  0  0
  153.5657  141.4511  161.0144 C   0  0  0  0  0  0  0  0  0  0  0  0
  153.6035  142.5451  159.6584 S   0  0  0  0  0  0  0  0  0  0  0  0
  153.1301  145.1583  158.5469 H   0  0  0  0  0  0  0  0  0  0  0  0
  152.6890  145.9645  160.0509 H   0  0  0  0  0  0  0  0  0  0  0  0
  151.7650  146.2679  158.5845 H   0  0  0  0  0  0  0  0  0  0  0  0
  150.9953  143.9286  158.5430 H   0  0  0  0  0  0  0  0  0  0  0  0
  149.4224  143.9551  160.4353 H   0  0  0  0  0  0  0  0  0  0  0  0
  149.5623  145.5570  159.7212 H   0  0  0  0  0  0  0  0  0  0  0  0
  150.3764  145.2009  161.2406 H   0  0  0  0  0  0  0  0  0  0  0  0
  151.2598  140.2710  162.9080 H   0  0  0  0  0  0  0  0  0  0  0  0
  152.9314  140.2812  163.3762 H   0  0  0  0  0  0  0  0  0  0  0  0
  152.4153  142.7684  164.2082 H   0  0  0  0  0  0  0  0  0  0  0  0
  150.7483  142.2478  164.0909 H   0  0  0  0  0  0  0  0  0  0  0  0
  151.3230  140.3977  165.6606 H   0  0  0  0  0  0  0  0  0  0  0  0
  153.2445  140.8223  168.4221 H   0  0  0  0  0  0  0  0  0  0  0  0
  151.7185  141.6603  168.5746 H   0  0  0  0  0  0  0  0  0  0  0  0
  150.6438  139.8105  167.1534 H   0  0  0  0  0  0  0  0  0  0  0  0
  152.8416  138.7260  166.1333 H   0  0  0  0  0  0  0  0  0  0  0  0
  152.8700  136.5323  167.4694 H   0  0  0  0  0  0  0  0  0  0  0  0
  150.7233  136.8519  169.0066 H   0  0  0  0  0  0  0  0  0  0  0  0
  152.1963  137.2568  169.9054 H   0  0  0  0  0  0  0  0  0  0  0  0
  151.6354  139.5033  169.9395 H   0  0  0  0  0  0  0  0  0  0  0  0
  150.0616  139.0964  169.2849 H   0  0  0  0  0  0  0  0  0  0  0  0
  154.3722  140.7491  161.1652 H   0  0  0  0  0  0  0  0  0  0  0  0
  1  2  1  0  0  0  0
  1 20  1  0  0  0  0
  1 21  1  0  0  0  0
  1 22  1  0  0  0  0
  2  3  1  0  0  0  0
  2  4  1  0  0  0  0
  2 23  1  0  0  0  0
  3 24  1  0  0  0  0
  3 25  1  0  0  0  0
  3 26  1  0  0  0  0
  4 19  1  0  0  0  0
  4  5  2  0  0  0  0
  5  6  1  0  0  0  0
  6  7  1  0  0  0  0
  6 18  2  0  0  0  0
  7  8  1  0  0  0  0
  7 27  1  0  0  0  0
  7 28  1  0  0  0  0
  8  9  1  0  0  0  0
  8 29  1  0  0  0  0
  8 30  1  0  0  0  0
  9 10  1  0  0  0  0
  9 31  1  0  0  0  0
 10 11  2  0  0  0  0
 10 12  1  0  0  0  0
 12 13  1  0  0  0  0
 12 32  1  0  0  0  0
 12 33  1  0  0  0  0
 13 17  1  0  0  0  0
 13 14  1  0  0  0  0
 13 34  1  0  0  0  0
 14 15  2  0  0  0  0
 14 35  1  0  0  0  0
 15 16  1  0  0  0  0
 15 36  1  0  0  0  0
 16 17  1  0  0  0  0
 16 37  1  0  0  0  0
 16 38  1  0  0  0  0
 17 39  1  0  0  0  0
 17 40  1  0  0  0  0
 18 19  1  0  0  0  0
 18 41  1  0  0  0  0
M  END
> <s_m_source_file>
AV-unprocessed.smi

> <i_m_source_file_index>
3334

> <i_lp_mmshare_version>
43012

> <i_f3d_flags>
0

> <s_epik_input>
W0NIM11bQ0hdKFtDSDNdKWMxbmMoW2NIXXMxKVtDSDJdW0NIMl1bTkhdQyg9TylbQ0gyXVtDQEBIXTJbQ0hdPVtDSF1bQ0gyXVtDSDJdMg==

> <s_epik_cmdline>
J2VwaWtfcHl0aG9uJywgJy1waCcsICc3LjAnLCAnLXRuJywgJzgnLCAnLW1hJywgJzIwMCcsICctbWV0YWxfYmluZGluZycsICctaW1hZScsICc8aW5maWxlLm1hZT4nLCAnLW9tYWUnLCAnPG91dGZpbGUubWFlPic=

> <r_epik_Ionization_Penalty>
0.000771592

> <r_epik_Ionization_Penalty_Charging>
0

> <r_epik_Ionization_Penalty_Neutral>
0.000771592

> <r_epik_State_Penalty>
0.000494253

> <r_epik_Charging_Adjusted_Penalty>
0.000494253

> <i_epik_Tot_Q>
0

> <i_epik_Tot_abs_Q>
0

> <r_epik_Metal_State_Penalty>
-0

> <b_epik_Metal_Only>
0

> <s_lp_Force_Field>
OPLS_2005

> <r_lp_Energy>
5.93023

> <b_lp_Chiralities_Consistent>
1

> <s_lp_Variant>
AV-unprocessed.smi:3334-2

> <Gold.Version>
5.8.1

> <Gold.Id.Protein>
6NUR|6NUR_protein|mol2

> <Gold.PLP.Fitness>
49.2606

> <Gold.PLP.PLP>
-50.1426

> <Gold.PLP.part.hbond>
-2.0000

> <Gold.PLP.part.metal>
0.0000

> <Gold.PLP.part.buried>
-5.5088

> <Gold.PLP.part.nonpolar>
-43.0522

> <Gold.PLP.part.repulsive>
0.2418

> <Gold.PLP.ligand.clash>
0.0026

> <Gold.PLP.ligand.torsion>
0.5153

> <Gold.PLP.Chemscore.Hbond>
0.0000

> <Gold.PLP.Chemscore.CHOScore>
0.0000

> <Gold.PLP.Chemscore.Metal>
0.0000

> <Gold.Chemscore.Hbonds>
donor molecule, donor type, donor heavy atom, donor atom, acceptor molecule, acceptor atom, score
      P1  H  6933  6945       L1     5  0.24

> <Gold.PLP.Chemscore.Internal.Correction>
0.1512

> <Gold.Rescore>
     Score         DG    S(hbond)    S(metal)    S(lipo)     H(rot)  DE(clash)    DE(int)     intcor
     14.04     -17.14       0.00        0.00     132.83       1.52       2.16       0.93       ----

> <Gold.Chemscore.Fitness>
14.0420

> <Gold.Chemscore.DG>
-17.1397

> <Gold.Chemscore.ZeroCoef>
-5.4800

> <Gold.Chemscore.Hbond>
0.0000

> <Gold.Chemscore.Metal>
0.0000

> <Gold.Chemscore.Lipo>
132.8310

> <Gold.Chemscore.Internal_Hbond>
0.0000

> <Gold.Chemscore.DEClash>
2.1633

> <Gold.Chemscore.DEInternal>
0.9344

> <Gold.Chemscore.Rot>
1.5162

> <Gold.Chemscore.Internal.Correction>
   9.000000E+99

> <Gold.Chemscore.Hbonds>
donor molecule, donor type, donor heavy atom, donor atom, acceptor molecule, acceptor atom, score
      P1  H  6933  6945       L1     5  0.01

> <Gold.Chemscore.Hbond.Weighted>
-0.0000

> <Gold.Chemscore.Metal.Weighted>
-0.0000

> <Gold.Chemscore.Lipo.Weighted>
-15.5412

> <Gold.Chemscore.Internal_Hbond.Weighted>
0.0000

> <Gold.Chemscore.DEClash.Weighted>
2.1633

> <Gold.Chemscore.DEInternal.Weighted>
0.9344

> <Gold.Chemscore.Rot.Weighted>
3.8815

> <Gold.Chemscore.Internal.Correction.Weighted>
   9.000000E+99

> <Gold.Protein.RotatedTorsions>
[ 6907 6896 6895 6894 ] final   40.30 input  -60.11 | X-H torsion
[ 7974 7965 7964 7962 ] final   68.37 input  175.53 | X-H torsion
[ 8008 7997 7996 7995 ] final  -66.93 input   59.86 | X-H torsion
[ 10167 10162 10161 10158 ] final   94.94 input  -65.29 | X-H torsion
[ 10718 10713 10712 10709 ] final  141.55 input   66.30 | X-H torsion
[ 10763 10752 10751 10750 ] final  -18.96 input  -60.55 | X-H torsion
[ 11005 11000 10999 10996 ] final  -99.36 input  -57.11 | X-H torsion

> <Gold.Protein.ActiveResidues>
 VAL166  LYS551  ARG553  GLY616  TRP617  ASP618  TYR619  PRO620  LYS621  CYS622 
 ASP623  PHE694  ASN695  SER759  ASP760  ASP761  ALA762  ILE779  LEU786  VAL792 
 PHE793  MET794  SER795  GLU796  ALA797  LYS798  CYS799  TRP800  GLU811  SER814 

> <Gold.Protein.RotatedAtoms>
  152.1808  134.8756  160.0526 H   0  0  0  0  0  0  0  0  0  0  0  0  # atno 6907 bound_to 6896
  151.9681  133.3712  159.4069 H   0  0  0  0  0  0  0  0  0  0  0  0  # atno 6908 bound_to 6896
  150.6917  134.4092  159.5198 H   0  0  0  0  0  0  0  0  0  0  0  0  # atno 6909 bound_to 6896
  145.8034  139.2994  143.1141 H   0  0  0  0  0  0  0  0  0  0  0  0  # atno 7974 bound_to 7965
  154.4766  140.0903  156.7277 H   0  0  0  0  0  0  0  0  0  0  0  0  # atno 8008 bound_to 7997
  155.4579  140.3460  155.4291 H   0  0  0  0  0  0  0  0  0  0  0  0  # atno 8009 bound_to 7997
  156.1126  140.1452  156.9305 H   0  0  0  0  0  0  0  0  0  0  0  0  # atno 8010 bound_to 7997
  139.8036  144.6803  150.9732 H   0  0  0  0  0  0  0  0  0  0  0  0  # atno 10167 bound_to 10162
  157.3907  131.1004  151.0649 H   0  0  0  0  0  0  0  0  0  0  0  0  # atno 10718 bound_to 10713
  153.5973  135.7000  153.5398 H   0  0  0  0  0  0  0  0  0  0  0  0  # atno 10763 bound_to 10752
  153.3127  135.4096  155.1349 H   0  0  0  0  0  0  0  0  0  0  0  0  # atno 10764 bound_to 10752
  154.8589  135.3676  154.5507 H   0  0  0  0  0  0  0  0  0  0  0  0  # atno 10765 bound_to 10752
  141.1311  133.8316  157.0961 H   0  0  0  0  0  0  0  0  0  0  0  0  # atno 11005 bound_to 11000
  145.9853  140.8648  143.0093 LP  0  0  0  0  0  0  0  0  0  0  0  0  # atno 17320 bound_to 7965
  144.6766  140.2138  143.7374 LP  0  0  0  0  0  0  0  0  0  0  0  0  # atno 17321 bound_to 7965
  140.7820  143.4256  151.0773 LP  0  0  0  0  0  0  0  0  0  0  0  0  # atno 17342 bound_to 10162
  139.7927  143.8196  152.3154 LP  0  0  0  0  0  0  0  0  0  0  0  0  # atno 17343 bound_to 10162
  157.1683  130.6256  149.5632 LP  0  0  0  0  0  0  0  0  0  0  0  0  # atno 17370 bound_to 10713
  155.9798  130.4794  150.6734 LP  0  0  0  0  0  0  0  0  0  0  0  0  # atno 17371 bound_to 10713
  140.0362  134.9877  157.0875 LP  0  0  0  0  0  0  0  0  0  0  0  0  # atno 17394 bound_to 11000
  140.4207  134.1884  155.7164 LP  0  0  0  0  0  0  0  0  0  0  0  0  # atno 17395 bound_to 11000

$$$$
