AV-unprocessed.smi:555|AV-procd|sdf|2910|dock5
  -GOLD-   2262023403D 1   1.00000     0.00000
 Structure written by MMmdl.
 50 51  0  0  0  0  0  0  0  0  2 V2000
  154.0379  142.8772  163.6763 C   0  0  0  0  0  0  0  0  0  0  0  0
  154.1160  141.8667  162.6867 O   0  0  0  0  0  0  0  0  0  0  0  0
  153.4237  142.2138  161.4977 C   0  0  0  0  0  0  0  0  0  0  0  0
  153.7160  141.1663  160.4107 C   0  0  0  0  0  0  0  0  0  0  0  0
  152.5617  140.9616  159.5286 N   0  0  0  0  0  0  0  0  0  0  0  0
  152.2562  139.6299  159.3022 N   0  0  0  0  0  0  0  0  0  0  0  0
  151.2381  139.3114  158.5704 C   0  0  0  0  0  0  0  0  0  0  0  0
  150.8690  137.8911  158.3157 C   0  0  0  0  0  0  0  0  0  0  0  0
  151.0652  137.0075  159.1517 O   0  0  0  0  0  0  0  0  0  0  0  0
  150.3149  137.6469  157.1143 N   0  0  0  0  0  0  0  0  0  0  0  0
  149.8804  136.3393  156.6339 C   0  0  2  0  0  0  0  0  0  0  0  0
  150.8001  135.8437  155.5029 C   0  0  0  0  0  0  0  0  0  0  0  0
  150.2891  134.5229  154.9030 C   0  0  0  0  0  0  0  0  0  0  0  0
  148.8870  134.6602  154.4276 N   0  3  1  0  0  0  0  0  0  0  0  0
  148.4152  133.4948  153.6240 C   0  0  0  0  0  0  0  0  0  0  0  0
  146.9467  133.6664  153.2008 C   0  0  0  0  0  0  0  0  0  0  0  0
  148.6542  132.1358  154.3107 C   0  0  0  0  0  0  0  0  0  0  0  0
  147.9762  135.0860  155.5251 C   0  0  0  0  0  0  0  0  0  0  0  0
  148.4332  136.4264  156.1232 C   0  0  0  0  0  0  0  0  0  0  0  0
  150.4064  140.3378  157.9654 C   0  0  0  0  0  0  0  0  0  0  0  0
  150.7211  141.6326  158.1889 C   0  0  0  0  0  0  0  0  0  0  0  0
  151.8626  142.0204  159.0194 C   0  0  0  0  0  0  0  0  0  0  0  0
  152.1636  143.1920  159.2455 O   0  0  0  0  0  0  0  0  0  0  0  0
  154.5844  142.5619  164.5650 H   0  0  0  0  0  0  0  0  0  0  0  0
  153.0036  143.0654  163.9669 H   0  0  0  0  0  0  0  0  0  0  0  0
  154.4783  143.8106  163.3232 H   0  0  0  0  0  0  0  0  0  0  0  0
  152.3511  142.2839  161.6861 H   0  0  0  0  0  0  0  0  0  0  0  0
  153.7562  143.1953  161.1565 H   0  0  0  0  0  0  0  0  0  0  0  0
  154.5833  141.4763  159.8252 H   0  0  0  0  0  0  0  0  0  0  0  0
  154.0074  140.2249  160.8796 H   0  0  0  0  0  0  0  0  0  0  0  0
  150.1896  138.4300  156.4885 H   0  0  0  0  0  0  0  0  0  0  0  0
  149.9086  135.6231  157.4576 H   0  0  0  0  0  0  0  0  0  0  0  0
  150.8596  136.5984  154.7173 H   0  0  0  0  0  0  0  0  0  0  0  0
  151.8158  135.7073  155.8764 H   0  0  0  0  0  0  0  0  0  0  0  0
  150.9374  134.2353  154.0745 H   0  0  0  0  0  0  0  0  0  0  0  0
  150.3537  133.7282  155.6471 H   0  0  0  0  0  0  0  0  0  0  0  0
  148.9916  133.4951  152.6979 H   0  0  0  0  0  0  0  0  0  0  0  0
  146.6543  132.8888  152.4944 H   0  0  0  0  0  0  0  0  0  0  0  0
  146.7869  134.6280  152.7119 H   0  0  0  0  0  0  0  0  0  0  0  0
  146.2643  133.6035  154.0483 H   0  0  0  0  0  0  0  0  0  0  0  0
  148.3835  131.3166  153.6439 H   0  0  0  0  0  0  0  0  0  0  0  0
  148.0558  132.0235  155.2151 H   0  0  0  0  0  0  0  0  0  0  0  0
  149.7010  131.9965  154.5796 H   0  0  0  0  0  0  0  0  0  0  0  0
  146.9566  135.1928  155.1569 H   0  0  0  0  0  0  0  0  0  0  0  0
  147.9538  134.3271  156.3084 H   0  0  0  0  0  0  0  0  0  0  0  0
  147.7660  136.7119  156.9376 H   0  0  0  0  0  0  0  0  0  0  0  0
  148.3505  137.2079  155.3658 H   0  0  0  0  0  0  0  0  0  0  0  0
  149.5575  140.0805  157.3486 H   0  0  0  0  0  0  0  0  0  0  0  0
  150.1123  142.4061  157.7442 H   0  0  0  0  0  0  0  0  0  0  0  0
  148.9077  135.4309  153.7749 H   0  0  0  0  0  0  0  0  0  0  0  0
  1  2  1  0  0  0  0
  1 24  1  0  0  0  0
  1 25  1  0  0  0  0
  1 26  1  0  0  0  0
  2  3  1  0  0  0  0
  3  4  1  0  0  0  0
  3 27  1  0  0  0  0
  3 28  1  0  0  0  0
  4  5  1  0  0  0  0
  4 29  1  0  0  0  0
  4 30  1  0  0  0  0
  5 22  1  0  0  0  0
  5  6  1  0  0  0  0
  6  7  2  0  0  0  0
  7  8  1  0  0  0  0
  7 20  1  0  0  0  0
  8  9  2  0  0  0  0
  8 10  1  0  0  0  0
 10 11  1  0  0  0  0
 10 31  1  0  0  0  0
 11 19  1  0  0  0  0
 11 12  1  0  0  0  0
 11 32  1  0  0  0  0
 12 13  1  0  0  0  0
 12 33  1  0  0  0  0
 12 34  1  0  0  0  0
 13 14  1  0  0  0  0
 13 35  1  0  0  0  0
 13 36  1  0  0  0  0
 14 15  1  0  0  0  0
 14 18  1  0  0  0  0
 14 50  1  0  0  0  0
 15 16  1  0  0  0  0
 15 17  1  0  0  0  0
 15 37  1  0  0  0  0
 16 38  1  0  0  0  0
 16 39  1  0  0  0  0
 16 40  1  0  0  0  0
 17 41  1  0  0  0  0
 17 42  1  0  0  0  0
 17 43  1  0  0  0  0
 18 19  1  0  0  0  0
 18 44  1  0  0  0  0
 18 45  1  0  0  0  0
 19 46  1  0  0  0  0
 19 47  1  0  0  0  0
 20 21  2  0  0  0  0
 20 48  1  0  0  0  0
 21 22  1  0  0  0  0
 21 49  1  0  0  0  0
 22 23  2  0  0  0  0
M  CHG  1  14   1
M  END
> <s_m_source_file>
AV-unprocessed.smi

> <i_m_source_file_index>
555

> <i_lp_mmshare_version>
43012

> <i_f3d_flags>
0

> <s_epik_input>
W0NIM11PW0NIMl1bQ0gyXW4xbmMoW2NIXVtjSF1jMT1PKUMoPU8pW05IXVtDSF0yW0NIMl1bQ0gyXU4oW0NIXShbQ0gzXSlbQ0gzXSlbQ0gyXVtDSDJdMg==

> <s_epik_cmdline>
J2VwaWtfcHl0aG9uJywgJy1waCcsICc3LjAnLCAnLXRuJywgJzgnLCAnLW1hJywgJzIwMCcsICctbWV0YWxfYmluZGluZycsICctaW1hZScsICc8aW5maWxlLm1hZT4nLCAnLW9tYWUnLCAnPG91dGZpbGUubWFlPic=

> <r_lp_tautomer_probability>
1

> <r_epik_Ionization_Penalty>
0.00560205

> <r_epik_Ionization_Penalty_Charging>
0.00559911

> <r_epik_Ionization_Penalty_Neutral>
2.94673e-06

> <r_epik_State_Penalty>
0.00410202

> <r_epik_Charging_Adjusted_Penalty>
0.00970113

> <i_epik_Tot_Q>
1

> <i_epik_Tot_abs_Q>
1

> <r_epik_Metal_State_Penalty>
-0

> <b_epik_Metal_Only>
0

> <s_lp_Force_Field>
OPLS_2005

> <r_lp_Energy>
40.4253

> <b_lp_Chiralities_Consistent>
1

> <s_lp_Variant>
AV-unprocessed.smi:555-1

> <Gold.Version>
5.8.1

> <Gold.Id.Protein>
6NUR|6NUR_protein|mol2

> <Gold.PLP.Fitness>
42.6513

> <Gold.PLP.PLP>
-35.7009

> <Gold.PLP.part.hbond>
-3.0000

> <Gold.PLP.part.metal>
0.0000

> <Gold.PLP.part.buried>
-5.6150

> <Gold.PLP.part.nonpolar>
-26.5790

> <Gold.PLP.part.repulsive>
0.0403

> <Gold.PLP.ligand.clash>
0.0000

> <Gold.PLP.ligand.torsion>
1.0546

> <Gold.PLP.Chemscore.Hbond>
2.9750

> <Gold.PLP.Chemscore.CHOScore>
0.0000

> <Gold.PLP.Chemscore.Metal>
0.0000

> <Gold.Chemscore.Hbonds>
donor molecule, donor type, donor heavy atom, donor atom, acceptor molecule, acceptor atom, score
      L1  H    14    50       P1  7948  1.92
      P1  H  6896  6907       L1     9  0.94

> <Gold.PLP.Chemscore.Internal.Correction>
0.1345

> <Gold.Rescore>
     Score         DG    S(hbond)    S(metal)    S(lipo)     H(rot)  DE(clash)    DE(int)     intcor
     13.65     -15.95       1.82        0.00      75.59       1.74       0.01       2.29       ----

> <Gold.Chemscore.Fitness>
13.6463

> <Gold.Chemscore.DG>
-15.9519

> <Gold.Chemscore.ZeroCoef>
-5.4800

> <Gold.Chemscore.Hbond>
1.8240

> <Gold.Chemscore.Metal>
0.0000

> <Gold.Chemscore.Lipo>
75.5899

> <Gold.Chemscore.Internal_Hbond>
0.0000

> <Gold.Chemscore.DEClash>
0.0106

> <Gold.Chemscore.DEInternal>
2.2950

> <Gold.Chemscore.Rot>
1.7438

> <Gold.Chemscore.Internal.Correction>
   9.000000E+99

> <Gold.Chemscore.Hbonds>
donor molecule, donor type, donor heavy atom, donor atom, acceptor molecule, acceptor atom, score
      L1  H    14    50       P1  7948  0.71
      P1  H  6896  6907       L1     9  0.88

> <Gold.Chemscore.Hbond.Weighted>
-6.0921

> <Gold.Chemscore.Metal.Weighted>
-0.0000

> <Gold.Chemscore.Lipo.Weighted>
-8.8440

> <Gold.Chemscore.Internal_Hbond.Weighted>
0.0000

> <Gold.Chemscore.DEClash.Weighted>
0.0106

> <Gold.Chemscore.DEInternal.Weighted>
2.2950

> <Gold.Chemscore.Rot.Weighted>
4.4642

> <Gold.Chemscore.Internal.Correction.Weighted>
   9.000000E+99

> <Gold.Protein.RotatedTorsions>
[ 6907 6896 6895 6894 ] final  -29.28 input  -60.11 | X-H torsion
[ 7974 7965 7964 7962 ] final  177.42 input  175.53 | X-H torsion
[ 8008 7997 7996 7995 ] final  123.00 input   59.86 | X-H torsion
[ 10167 10162 10161 10158 ] final -156.89 input  -65.29 | X-H torsion
[ 10718 10713 10712 10709 ] final   -2.59 input   66.30 | X-H torsion
[ 10763 10752 10751 10750 ] final  155.79 input  -60.55 | X-H torsion
[ 11005 11000 10999 10996 ] final  -83.37 input  -57.11 | X-H torsion

> <Gold.Protein.ActiveResidues>
 VAL166  LYS551  ARG553  GLY616  TRP617  ASP618  TYR619  PRO620  LYS621  CYS622 
 ASP623  PHE694  ASN695  SER759  ASP760  ASP761  ALA762  ILE779  LEU786  VAL792 
 PHE793  MET794  SER795  GLU796  ALA797  LYS798  CYS799  TRP800  GLU811  SER814 

> <Gold.Protein.RotatedAtoms>
  151.1213  135.0081  159.8539 H   0  0  0  0  0  0  0  0  0  0  0  0  # atno 6907 bound_to 6896
  152.5448  134.1719  159.8610 H   0  0  0  0  0  0  0  0  0  0  0  0  # atno 6908 bound_to 6896
  151.1777  133.4699  159.2627 H   0  0  0  0  0  0  0  0  0  0  0  0  # atno 6909 bound_to 6896
  144.7169  140.0245  143.6439 H   0  0  0  0  0  0  0  0  0  0  0  0  # atno 7974 bound_to 7965
  156.2749  140.2773  156.1557 H   0  0  0  0  0  0  0  0  0  0  0  0  # atno 8008 bound_to 7997
  155.0806  140.0388  157.2655 H   0  0  0  0  0  0  0  0  0  0  0  0  # atno 8009 bound_to 7997
  154.6967  140.2640  155.6765 H   0  0  0  0  0  0  0  0  0  0  0  0  # atno 8010 bound_to 7997
  139.6814  143.9574  152.2339 H   0  0  0  0  0  0  0  0  0  0  0  0  # atno 10167 bound_to 10162
  156.7885  130.5354  149.5739 H   0  0  0  0  0  0  0  0  0  0  0  0  # atno 10718 bound_to 10713
  154.1739  135.2803  155.3072 H   0  0  0  0  0  0  0  0  0  0  0  0  # atno 10763 bound_to 10752
  154.6054  135.5516  153.7420 H   0  0  0  0  0  0  0  0  0  0  0  0  # atno 10764 bound_to 10752
  153.0157  135.6402  154.1879 H   0  0  0  0  0  0  0  0  0  0  0  0  # atno 10765 bound_to 10752
  141.1658  133.7291  156.8710 H   0  0  0  0  0  0  0  0  0  0  0  0  # atno 11005 bound_to 11000
  146.0153  139.3205  143.0845 LP  0  0  0  0  0  0  0  0  0  0  0  0  # atno 17320 bound_to 7965
  145.8633  140.9463  143.0689 LP  0  0  0  0  0  0  0  0  0  0  0  0  # atno 17321 bound_to 7965
  139.9365  144.6708  150.8309 LP  0  0  0  0  0  0  0  0  0  0  0  0  # atno 17342 bound_to 10162
  140.7653  143.3273  151.2488 LP  0  0  0  0  0  0  0  0  0  0  0  0  # atno 17343 bound_to 10162
  156.1174  130.6085  151.0141 LP  0  0  0  0  0  0  0  0  0  0  0  0  # atno 17370 bound_to 10713
  157.6612  131.0880  150.7834 LP  0  0  0  0  0  0  0  0  0  0  0  0  # atno 17371 bound_to 10713
  140.1781  134.9052  157.2916 LP  0  0  0  0  0  0  0  0  0  0  0  0  # atno 17394 bound_to 11000
  140.2425  134.3778  155.7474 LP  0  0  0  0  0  0  0  0  0  0  0  0  # atno 17395 bound_to 11000

$$$$
