AV-unprocessed.smi:3346|AV-procd|sdf|12909|dock1
  -GOLD-   2272019323D 1   1.00000     0.00000
 Structure written by MMmdl.
 47 48  0  0  0  0  0  0  0  0  1 V2000
  148.3578  128.9488  154.2025 C   0  0  0  0  0  0  0  0  0  0  0  0
  149.2120  130.1680  153.8241 C   0  0  0  0  0  0  0  0  0  0  0  0
  150.6159  130.0472  154.4408 C   0  0  0  0  0  0  0  0  0  0  0  0
  148.4975  131.4783  154.2252 C   0  0  0  0  0  0  0  0  0  0  0  0
  148.9070  132.7277  153.4155 C   0  0  2  0  0  0  0  0  0  0  0  0
  148.7205  134.0051  154.2537 C   0  0  0  0  0  0  0  0  0  0  0  0
  148.0798  132.8043  152.2163 N   0  0  0  0  0  0  0  0  0  0  0  0
  146.6583  132.8246  152.5288 C   0  0  0  0  0  0  0  0  0  0  0  0
  145.7948  132.9419  151.2832 C   0  0  0  0  0  0  0  0  0  0  0  0
  145.8865  131.9470  150.2872 C   0  0  0  0  0  0  0  0  0  0  0  0
  145.0749  132.0438  149.1425 C   0  0  0  0  0  0  0  0  0  0  0  0
  144.1980  133.1389  149.0391 C   0  0  0  0  0  0  0  0  0  0  0  0
  144.1011  134.1000  149.9810 N   0  0  0  0  0  0  0  0  0  0  0  0
  144.8822  134.0115  151.0856 C   0  0  0  0  0  0  0  0  0  0  0  0
  144.7782  135.0416  152.0360 N   0  0  0  0  0  0  0  0  0  0  0  0
  145.3145  136.3096  151.5605 C   0  0  0  0  0  0  0  0  0  0  0  0
  145.3704  137.3202  152.7190 C   0  0  0  0  0  0  0  0  0  0  0  0
  144.0739  137.4611  153.2938 O   0  0  0  0  0  0  0  0  0  0  0  0
  143.5831  136.2294  153.8170 C   0  0  0  0  0  0  0  0  0  0  0  0
  143.4808  135.1929  152.6847 C   0  0  0  0  0  0  0  0  0  0  0  0
  148.1985  128.8949  155.2799 H   0  0  0  0  0  0  0  0  0  0  0  0
  148.8365  128.0204  153.8896 H   0  0  0  0  0  0  0  0  0  0  0  0
  147.3796  128.9889  153.7224 H   0  0  0  0  0  0  0  0  0  0  0  0
  149.3207  130.1517  152.7403 H   0  0  0  0  0  0  0  0  0  0  0  0
  150.5769  130.0971  155.5292 H   0  0  0  0  0  0  0  0  0  0  0  0
  151.2801  130.8376  154.0927 H   0  0  0  0  0  0  0  0  0  0  0  0
  151.0810  129.0992  154.1691 H   0  0  0  0  0  0  0  0  0  0  0  0
  147.4175  131.3432  154.1442 H   0  0  0  0  0  0  0  0  0  0  0  0
  148.6894  131.6605  155.2835 H   0  0  0  0  0  0  0  0  0  0  0  0
  149.9566  132.6433  153.1349 H   0  0  0  0  0  0  0  0  0  0  0  0
  149.2926  133.9475  155.1802 H   0  0  0  0  0  0  0  0  0  0  0  0
  147.6743  134.1564  154.5224 H   0  0  0  0  0  0  0  0  0  0  0  0
  149.0614  134.8952  153.7256 H   0  0  0  0  0  0  0  0  0  0  0  0
  148.2954  132.0363  151.5969 H   0  0  0  0  0  0  0  0  0  0  0  0
  146.3777  131.9100  153.0504 H   0  0  0  0  0  0  0  0  0  0  0  0
  146.4417  133.6479  153.2104 H   0  0  0  0  0  0  0  0  0  0  0  0
  146.5685  131.1171  150.4000 H   0  0  0  0  0  0  0  0  0  0  0  0
  145.1221  131.2963  148.3646 H   0  0  0  0  0  0  0  0  0  0  0  0
  143.5578  133.2473  148.1760 H   0  0  0  0  0  0  0  0  0  0  0  0
  146.3075  136.1665  151.1359 H   0  0  0  0  0  0  0  0  0  0  0  0
  144.6791  136.6933  150.7613 H   0  0  0  0  0  0  0  0  0  0  0  0
  146.0810  136.9974  153.4810 H   0  0  0  0  0  0  0  0  0  0  0  0
  145.7092  138.2911  152.3576 H   0  0  0  0  0  0  0  0  0  0  0  0
  144.2400  135.8733  154.6124 H   0  0  0  0  0  0  0  0  0  0  0  0
  142.6031  136.3971  154.2637 H   0  0  0  0  0  0  0  0  0  0  0  0
  142.7359  135.5173  151.9566 H   0  0  0  0  0  0  0  0  0  0  0  0
  143.1517  134.2321  153.0819 H   0  0  0  0  0  0  0  0  0  0  0  0
  1  2  1  0  0  0  0
  1 21  1  0  0  0  0
  1 22  1  0  0  0  0
  1 23  1  0  0  0  0
  2  3  1  0  0  0  0
  2  4  1  0  0  0  0
  2 24  1  0  0  0  0
  3 25  1  0  0  0  0
  3 26  1  0  0  0  0
  3 27  1  0  0  0  0
  4  5  1  0  0  0  0
  4 28  1  0  0  0  0
  4 29  1  0  0  0  0
  5  6  1  0  0  0  0
  5  7  1  0  0  0  0
  5 30  1  0  0  0  0
  6 31  1  0  0  0  0
  6 32  1  0  0  0  0
  6 33  1  0  0  0  0
  7  8  1  0  0  0  0
  7 34  1  0  0  0  0
  8  9  1  0  0  0  0
  8 35  1  0  0  0  0
  8 36  1  0  0  0  0
  9 14  1  0  0  0  0
  9 10  2  0  0  0  0
 10 11  1  0  0  0  0
 10 37  1  0  0  0  0
 11 12  2  0  0  0  0
 11 38  1  0  0  0  0
 12 13  1  0  0  0  0
 12 39  1  0  0  0  0
 13 14  2  0  0  0  0
 14 15  1  0  0  0  0
 15 20  1  0  0  0  0
 15 16  1  0  0  0  0
 16 17  1  0  0  0  0
 16 40  1  0  0  0  0
 16 41  1  0  0  0  0
 17 18  1  0  0  0  0
 17 42  1  0  0  0  0
 17 43  1  0  0  0  0
 18 19  1  0  0  0  0
 19 20  1  0  0  0  0
 19 44  1  0  0  0  0
 19 45  1  0  0  0  0
 20 46  1  0  0  0  0
 20 47  1  0  0  0  0
M  END
> <s_m_source_file>
AV-unprocessed.smi

> <i_m_source_file_index>
3346

> <i_lp_mmshare_version>
43012

> <i_f3d_flags>
0

> <s_epik_input>
W0NIM11bQ0hdKFtDSDNdKVtDSDJdW0NASF0oW0NIM10pW05IXVtDSDJdYzFbY0hdW2NIXVtjSF1uYzFOMltDSDJdW0NIMl1PW0NIMl1bQ0gyXTI=

> <s_epik_cmdline>
J2VwaWtfcHl0aG9uJywgJy1waCcsICc3LjAnLCAnLXRuJywgJzgnLCAnLW1hJywgJzIwMCcsICctbWV0YWxfYmluZGluZycsICctaW1hZScsICc8aW5maWxlLm1hZT4nLCAnLW9tYWUnLCAnPG91dGZpbGUubWFlPic=

> <r_lp_tautomer_probability>
1

> <r_epik_Ionization_Penalty>
2.09752

> <r_epik_Ionization_Penalty_Charging>
0

> <r_epik_Ionization_Penalty_Neutral>
2.09752

> <r_epik_State_Penalty>
2.22589

> <r_epik_Charging_Adjusted_Penalty>
2.22589

> <i_epik_Tot_Q>
0

> <i_epik_Tot_abs_Q>
0

> <r_epik_Metal_State_Penalty>
2.21996

> <b_epik_Metal_Only>
0

> <s_lp_Force_Field>
OPLS_2005

> <r_lp_Energy>
25.807

> <b_lp_Chiralities_Consistent>
1

> <s_lp_Variant>
AV-unprocessed.smi:3346-3

> <Gold.Version>
5.8.1

> <Gold.Id.Protein>
6NUR|6NUR_protein|mol2

> <Gold.PLP.Fitness>
36.4676

> <Gold.PLP.PLP>
-34.4885

> <Gold.PLP.part.hbond>
-1.0000

> <Gold.PLP.part.metal>
0.0000

> <Gold.PLP.part.buried>
-3.7480

> <Gold.PLP.part.nonpolar>
-30.6355

> <Gold.PLP.part.repulsive>
0.5036

> <Gold.PLP.ligand.clash>
0.0000

> <Gold.PLP.ligand.torsion>
0.6677

> <Gold.PLP.Chemscore.Hbond>
1.0000

> <Gold.PLP.Chemscore.CHOScore>
0.0000

> <Gold.PLP.Chemscore.Metal>
0.0000

> <Gold.Chemscore.Hbonds>
donor molecule, donor type, donor heavy atom, donor atom, acceptor molecule, acceptor atom, score
      L1  H     7    34       P1 10747  1.00

> <Gold.PLP.Chemscore.Internal.Correction>
0.3146

> <Gold.Rescore>
     Score         DG    S(hbond)    S(metal)    S(lipo)     H(rot)  DE(clash)    DE(int)     intcor
     15.15     -15.57       0.98        0.00      92.13       1.55       0.18       0.24       ----

> <Gold.Chemscore.Fitness>
15.1533

> <Gold.Chemscore.DG>
-15.5711

> <Gold.Chemscore.ZeroCoef>
-5.4800

> <Gold.Chemscore.Hbond>
0.9831

> <Gold.Chemscore.Metal>
0.0000

> <Gold.Chemscore.Lipo>
92.1288

> <Gold.Chemscore.Internal_Hbond>
0.0000

> <Gold.Chemscore.DEClash>
0.1806

> <Gold.Chemscore.DEInternal>
0.2372

> <Gold.Chemscore.Rot>
1.5514

> <Gold.Chemscore.Internal.Correction>
   9.000000E+99

> <Gold.Chemscore.Hbonds>
donor molecule, donor type, donor heavy atom, donor atom, acceptor molecule, acceptor atom, score
      L1  H     7    34       P1 10747  1.00

> <Gold.Chemscore.Hbond.Weighted>
-3.2836

> <Gold.Chemscore.Metal.Weighted>
-0.0000

> <Gold.Chemscore.Lipo.Weighted>
-10.7791

> <Gold.Chemscore.Internal_Hbond.Weighted>
0.0000

> <Gold.Chemscore.DEClash.Weighted>
0.1806

> <Gold.Chemscore.DEInternal.Weighted>
0.2372

> <Gold.Chemscore.Rot.Weighted>
3.9715

> <Gold.Chemscore.Internal.Correction.Weighted>
   9.000000E+99

> <Gold.Protein.RotatedTorsions>
[ 6907 6896 6895 6894 ] final -169.98 input  -60.11 | X-H torsion
[ 7974 7965 7964 7962 ] final   93.13 input  175.53 | X-H torsion
[ 8008 7997 7996 7995 ] final   43.00 input   59.86 | X-H torsion
[ 10167 10162 10161 10158 ] final  104.41 input  -65.29 | X-H torsion
[ 10718 10713 10712 10709 ] final  164.57 input   66.30 | X-H torsion
[ 10763 10752 10751 10750 ] final   86.75 input  -60.55 | X-H torsion
[ 11005 11000 10999 10996 ] final   41.97 input  -57.11 | X-H torsion

> <Gold.Protein.ActiveResidues>
 VAL166  LYS551  ARG553  GLY616  TRP617  ASP618  TYR619  PRO620  LYS621  CYS622 
 ASP623  PHE694  ASN695  SER759  ASP760  ASP761  ALA762  ILE779  LEU786  VAL792 
 PHE793  MET794  SER795  GLU796  ALA797  LYS798  CYS799  TRP800  GLU811  SER814 

> <Gold.Protein.RotatedAtoms>
  151.5003  133.3506  159.2867 H   0  0  0  0  0  0  0  0  0  0  0  0  # atno 6907 bound_to 6896
  150.8777  134.8165  159.7213 H   0  0  0  0  0  0  0  0  0  0  0  0  # atno 6908 bound_to 6896
  152.4742  134.4897  159.9743 H   0  0  0  0  0  0  0  0  0  0  0  0  # atno 6909 bound_to 6896
  145.4831  139.2278  143.2871 H   0  0  0  0  0  0  0  0  0  0  0  0  # atno 7974 bound_to 7965
  155.2956  140.3381  155.4250 H   0  0  0  0  0  0  0  0  0  0  0  0  # atno 8008 bound_to 7997
  156.2026  140.1738  156.7908 H   0  0  0  0  0  0  0  0  0  0  0  0  # atno 8009 bound_to 7997
  154.5578  140.0693  156.8756 H   0  0  0  0  0  0  0  0  0  0  0  0  # atno 8010 bound_to 7997
  139.7179  144.7064  151.0920 H   0  0  0  0  0  0  0  0  0  0  0  0  # atno 10167 bound_to 10162
  157.0925  131.0421  151.2531 H   0  0  0  0  0  0  0  0  0  0  0  0  # atno 10718 bound_to 10713
  153.1600  135.4569  154.9759 H   0  0  0  0  0  0  0  0  0  0  0  0  # atno 10763 bound_to 10752
  154.7891  135.3214  154.7822 H   0  0  0  0  0  0  0  0  0  0  0  0  # atno 10764 bound_to 10752
  153.8313  135.6938  153.4868 H   0  0  0  0  0  0  0  0  0  0  0  0  # atno 10765 bound_to 10752
  140.1783  134.4135  155.8215 H   0  0  0  0  0  0  0  0  0  0  0  0  # atno 11005 bound_to 11000
  146.2329  140.5619  142.8967 LP  0  0  0  0  0  0  0  0  0  0  0  0  # atno 17320 bound_to 7965
  144.7877  140.5970  143.6562 LP  0  0  0  0  0  0  0  0  0  0  0  0  # atno 17321 bound_to 7965
  140.7747  143.5205  150.9542 LP  0  0  0  0  0  0  0  0  0  0  0  0  # atno 17342 bound_to 10162
  139.8891  143.6975  152.3147 LP  0  0  0  0  0  0  0  0  0  0  0  0  # atno 17343 bound_to 10162
  157.4709  130.7708  149.7323 LP  0  0  0  0  0  0  0  0  0  0  0  0  # atno 17370 bound_to 10713
  155.9894  130.3952  150.3073 LP  0  0  0  0  0  0  0  0  0  0  0  0  # atno 17371 bound_to 10713
  141.2221  133.6988  156.7886 LP  0  0  0  0  0  0  0  0  0  0  0  0  # atno 17394 bound_to 11000
  140.2297  134.8695  157.3463 LP  0  0  0  0  0  0  0  0  0  0  0  0  # atno 17395 bound_to 11000

$$$$
