AV-unprocessed.smi:2124|AV-procd|sdf|8661|dock10
  -GOLD-   2272011413D 1   1.00000     0.00000
 Structure written by MMmdl.
 47 49  0  0  0  0  0  0  0  0  1 V2000
  145.8679  137.6473  152.2041 C   0  0  0  0  0  0  0  0  0  0  0  0
  146.8138  138.6112  152.8868 C   0  0  0  0  0  0  0  0  0  0  0  0
  146.2694  139.8669  153.1007 N   0  0  0  0  0  0  0  0  0  0  0  0
  147.0591  140.8168  153.7241 C   0  0  0  0  0  0  0  0  0  0  0  0
  146.3886  142.1654  153.9200 C   0  0  0  0  0  0  0  0  0  0  0  0
  148.3279  140.5306  154.1121 C   0  0  0  0  0  0  0  0  0  0  0  0
  149.2343  141.5528  154.7976 C   0  0  0  0  0  0  0  0  0  0  0  0
  149.6211  141.2490  156.2475 C   0  0  0  0  0  0  0  0  0  0  0  0
  149.6878  140.0871  156.6498 O   0  0  0  0  0  0  0  0  0  0  0  0
  149.8775  142.3140  157.0225 N   0  0  0  0  0  0  0  0  0  0  0  0
  150.2570  142.2644  158.4335 C   0  0  1  0  0  0  0  0  0  0  0  0
  151.4525  141.3071  158.5960 C   0  0  0  0  0  0  0  0  0  0  0  0
  150.5620  143.6960  158.9406 C   0  0  1  0  0  0  0  0  0  0  0  0
  150.5095  143.8384  160.4836 C   0  0  0  0  0  0  0  0  0  0  0  0
  151.8709  144.4656  160.8306 C   0  0  2  0  0  0  0  0  0  0  0  0
  151.9188  145.9170  160.3197 C   0  0  0  0  0  0  0  0  0  0  0  0
  152.0314  145.7343  158.7948 C   0  0  0  0  0  0  0  0  0  0  0  0
  151.9942  144.2023  158.6316 C   0  0  1  0  0  0  0  0  0  0  0  0
  152.7914  143.7505  159.8516 C   0  0  0  0  0  0  0  0  0  0  0  0
  148.8573  139.1716  153.8498 C   0  0  0  0  0  0  0  0  0  0  0  0
  150.0035  138.8549  154.1655 O   0  0  0  0  0  0  0  0  0  0  0  0
  148.0131  138.2425  153.2204 N   0  0  0  0  0  0  0  0  0  0  0  0
  145.3315  140.1220  152.8266 H   0  0  0  0  0  0  0  0  0  0  0  0
  146.3565  136.6909  152.0126 H   0  0  0  0  0  0  0  0  0  0  0  0
  145.5320  138.0546  151.2500 H   0  0  0  0  0  0  0  0  0  0  0  0
  144.9946  137.4653  152.8310 H   0  0  0  0  0  0  0  0  0  0  0  0
  146.9637  142.9523  153.4315 H   0  0  0  0  0  0  0  0  0  0  0  0
  146.3122  142.4021  154.9813 H   0  0  0  0  0  0  0  0  0  0  0  0
  145.3813  142.1784  153.5019 H   0  0  0  0  0  0  0  0  0  0  0  0
  148.7868  142.5465  154.7596 H   0  0  0  0  0  0  0  0  0  0  0  0
  150.1535  141.6404  154.2180 H   0  0  0  0  0  0  0  0  0  0  0  0
  149.7957  143.2306  156.6070 H   0  0  0  0  0  0  0  0  0  0  0  0
  149.4191  141.8683  159.0094 H   0  0  0  0  0  0  0  0  0  0  0  0
  151.7192  141.1649  159.6423 H   0  0  0  0  0  0  0  0  0  0  0  0
  152.3341  141.6815  158.0749 H   0  0  0  0  0  0  0  0  0  0  0  0
  151.2240  140.3202  158.1918 H   0  0  0  0  0  0  0  0  0  0  0  0
  149.8328  144.3723  158.4910 H   0  0  0  0  0  0  0  0  0  0  0  0
  149.6721  144.4533  160.8153 H   0  0  0  0  0  0  0  0  0  0  0  0
  150.4190  142.8682  160.9742 H   0  0  0  0  0  0  0  0  0  0  0  0
  152.1444  144.3618  161.8810 H   0  0  0  0  0  0  0  0  0  0  0  0
  151.0336  146.4851  160.6074 H   0  0  0  0  0  0  0  0  0  0  0  0
  152.7941  146.4390  160.7086 H   0  0  0  0  0  0  0  0  0  0  0  0
  151.2273  146.2337  158.2529 H   0  0  0  0  0  0  0  0  0  0  0  0
  152.9771  146.1379  158.4311 H   0  0  0  0  0  0  0  0  0  0  0  0
  152.4009  143.8719  157.6769 H   0  0  0  0  0  0  0  0  0  0  0  0
  153.8148  144.1294  159.8653 H   0  0  0  0  0  0  0  0  0  0  0  0
  152.8108  142.6680  159.9867 H   0  0  0  0  0  0  0  0  0  0  0  0
  1 24  1  0  0  0  0
  1 25  1  0  0  0  0
  1 26  1  0  0  0  0
  1  2  1  0  0  0  0
  2  3  1  0  0  0  0
  2 22  2  0  0  0  0
  3  4  1  0  0  0  0
  3 23  1  0  0  0  0
  4  6  2  0  0  0  0
  4  5  1  0  0  0  0
  5 27  1  0  0  0  0
  5 28  1  0  0  0  0
  5 29  1  0  0  0  0
  6 20  1  0  0  0  0
  6  7  1  0  0  0  0
  7  8  1  0  0  0  0
  7 30  1  0  0  0  0
  7 31  1  0  0  0  0
  8  9  2  0  0  0  0
  8 10  1  0  0  0  0
 10 11  1  0  0  0  0
 10 32  1  0  0  0  0
 11 12  1  0  0  0  0
 11 13  1  0  0  0  0
 11 33  1  0  0  0  0
 12 34  1  0  0  0  0
 12 35  1  0  0  0  0
 12 36  1  0  0  0  0
 13 18  1  0  0  0  0
 13 14  1  0  0  0  0
 13 37  1  0  0  0  0
 14 15  1  0  0  0  0
 14 38  1  0  0  0  0
 14 39  1  0  0  0  0
 15 19  1  0  0  0  0
 15 16  1  0  0  0  0
 15 40  1  0  0  0  0
 16 17  1  0  0  0  0
 16 41  1  0  0  0  0
 16 42  1  0  0  0  0
 17 18  1  0  0  0  0
 17 43  1  0  0  0  0
 17 44  1  0  0  0  0
 18 19  1  0  0  0  0
 18 45  1  0  0  0  0
 19 46  1  0  0  0  0
 19 47  1  0  0  0  0
 20 21  2  0  0  0  0
 20 22  1  0  0  0  0
M  END
> <s_m_source_file>
AV-unprocessed.smi

> <i_m_source_file_index>
2124

> <i_lp_mmshare_version>
43012

> <i_f3d_flags>
0

> <s_epik_input>
W0NIM11jMW5jKFtDSDNdKWMoYyg9TylbbkhdMSlbQ0gyXUMoPU8pW05IXVtDQEhdKFtDSDNdKVtDQEhdKFtDSDJdW0NASF0yMylbQ0BIXShbQ0gyXTMpW0NIMl1bQ0gyXTI=

> <s_epik_cmdline>
J2VwaWtfcHl0aG9uJywgJy1waCcsICc3LjAnLCAnLXRuJywgJzgnLCAnLW1hJywgJzIwMCcsICctbWV0YWxfYmluZGluZycsICctaW1hZScsICc8aW5maWxlLm1hZT4nLCAnLW9tYWUnLCAnPG91dGZpbGUubWFlPic=

> <r_lp_tautomer_probability>
0.156392

> <r_epik_Ionization_Penalty>
0.0139374

> <r_epik_Ionization_Penalty_Charging>
0.0138122

> <r_epik_Ionization_Penalty_Neutral>
0.000125146

> <r_epik_State_Penalty>
1.15342

> <r_epik_Charging_Adjusted_Penalty>
1.16723

> <i_epik_Tot_Q>
0

> <i_epik_Tot_abs_Q>
0

> <r_epik_Metal_State_Penalty>
1.3173

> <b_epik_Metal_Only>
0

> <s_lp_Force_Field>
OPLS_2005

> <r_lp_Energy>
56.04

> <b_lp_Chiralities_Consistent>
1

> <s_lp_Variant>
AV-unprocessed.smi:2124-12

> <Gold.Version>
5.8.1

> <Gold.Id.Protein>
6NUR|6NUR_protein|mol2

> <Gold.PLP.Fitness>
44.1405

> <Gold.PLP.PLP>
-39.7950

> <Gold.PLP.part.hbond>
-2.0000

> <Gold.PLP.part.metal>
0.0000

> <Gold.PLP.part.buried>
-2.5061

> <Gold.PLP.part.nonpolar>
-39.5964

> <Gold.PLP.part.repulsive>
3.4290

> <Gold.PLP.ligand.clash>
0.0000

> <Gold.PLP.ligand.torsion>
0.8398

> <Gold.PLP.Chemscore.Hbond>
2.0000

> <Gold.PLP.Chemscore.CHOScore>
0.0000

> <Gold.PLP.Chemscore.Metal>
0.0000

> <Gold.Chemscore.Hbonds>
donor molecule, donor type, donor heavy atom, donor atom, acceptor molecule, acceptor atom, score
      L1  H     3    23       P1 10175  1.00
      L1  H    10    32       P1  8028  1.00

> <Gold.PLP.Chemscore.Internal.Correction>
0.0251

> <Gold.Rescore>
     Score         DG    S(hbond)    S(metal)    S(lipo)     H(rot)  DE(clash)    DE(int)     intcor
     14.73     -22.61       1.88        0.00     128.94       1.65       4.10       3.78       ----

> <Gold.Chemscore.Fitness>
14.7297

> <Gold.Chemscore.DG>
-22.6142

> <Gold.Chemscore.ZeroCoef>
-5.4800

> <Gold.Chemscore.Hbond>
1.8804

> <Gold.Chemscore.Metal>
0.0000

> <Gold.Chemscore.Lipo>
128.9418

> <Gold.Chemscore.Internal_Hbond>
0.0000

> <Gold.Chemscore.DEClash>
4.0999

> <Gold.Chemscore.DEInternal>
3.7846

> <Gold.Chemscore.Rot>
1.6534

> <Gold.Chemscore.Internal.Correction>
   9.000000E+99

> <Gold.Chemscore.Hbonds>
donor molecule, donor type, donor heavy atom, donor atom, acceptor molecule, acceptor atom, score
      L1  H     3    23       P1 10175  0.98
      L1  H    10    32       P1  8028  0.96

> <Gold.Chemscore.Hbond.Weighted>
-6.2806

> <Gold.Chemscore.Metal.Weighted>
-0.0000

> <Gold.Chemscore.Lipo.Weighted>
-15.0862

> <Gold.Chemscore.Internal_Hbond.Weighted>
0.0000

> <Gold.Chemscore.DEClash.Weighted>
4.0999

> <Gold.Chemscore.DEInternal.Weighted>
3.7846

> <Gold.Chemscore.Rot.Weighted>
4.2326

> <Gold.Chemscore.Internal.Correction.Weighted>
   9.000000E+99

> <Gold.Protein.RotatedTorsions>
[ 6907 6896 6895 6894 ] final  -80.95 input  -60.11 | X-H torsion
[ 7974 7965 7964 7962 ] final   33.37 input  175.53 | X-H torsion
[ 8008 7997 7996 7995 ] final  -88.98 input   59.86 | X-H torsion
[ 10167 10162 10161 10158 ] final -132.40 input  -65.29 | X-H torsion
[ 10718 10713 10712 10709 ] final   86.87 input   66.30 | X-H torsion
[ 10763 10752 10751 10750 ] final -152.65 input  -60.55 | X-H torsion
[ 11005 11000 10999 10996 ] final -177.29 input  -57.11 | X-H torsion

> <Gold.Protein.ActiveResidues>
 VAL166  LYS551  ARG553  GLY616  TRP617  ASP618  TYR619  PRO620  LYS621  CYS622 
 ASP623  PHE694  ASN695  SER759  ASP760  ASP761  ALA762  ILE779  LEU786  VAL792 
 PHE793  MET794  SER795  GLU796  ALA797  LYS798  CYS799  TRP800  GLU811  SER814 

> <Gold.Protein.RotatedAtoms>
  150.6920  134.3891  159.5068 H   0  0  0  0  0  0  0  0  0  0  0  0  # atno 6907 bound_to 6896
  152.1682  134.8853  160.0545 H   0  0  0  0  0  0  0  0  0  0  0  0  # atno 6908 bound_to 6896
  151.9889  133.3749  159.4173 H   0  0  0  0  0  0  0  0  0  0  0  0  # atno 6909 bound_to 6896
  146.1425  139.6406  142.9153 H   0  0  0  0  0  0  0  0  0  0  0  0  # atno 7974 bound_to 7965
  154.6811  140.0547  157.0267 H   0  0  0  0  0  0  0  0  0  0  0  0  # atno 8008 bound_to 7997
  155.0950  140.3223  155.4544 H   0  0  0  0  0  0  0  0  0  0  0  0  # atno 8009 bound_to 7997
  156.2694  140.2041  156.6076 H   0  0  0  0  0  0  0  0  0  0  0  0  # atno 8010 bound_to 7997
  139.9089  143.6518  152.2579 H   0  0  0  0  0  0  0  0  0  0  0  0  # atno 10167 bound_to 10162
  157.6934  131.0233  150.3037 H   0  0  0  0  0  0  0  0  0  0  0  0  # atno 10718 bound_to 10713
  154.7980  135.3231  154.7620 H   0  0  0  0  0  0  0  0  0  0  0  0  # atno 10763 bound_to 10752
  153.8294  135.6880  153.4821 H   0  0  0  0  0  0  0  0  0  0  0  0  # atno 10764 bound_to 10752
  153.1681  135.4634  154.9808 H   0  0  0  0  0  0  0  0  0  0  0  0  # atno 10765 bound_to 10752
  140.4426  134.6417  157.4764 H   0  0  0  0  0  0  0  0  0  0  0  0  # atno 11005 bound_to 11000
  145.5014  141.0437  143.2538 LP  0  0  0  0  0  0  0  0  0  0  0  0  # atno 17320 bound_to 7965
  144.7808  139.6529  143.7155 LP  0  0  0  0  0  0  0  0  0  0  0  0  # atno 17321 bound_to 7965
  139.6960  144.7641  151.1356 LP  0  0  0  0  0  0  0  0  0  0  0  0  # atno 17342 bound_to 10162
  140.7690  143.5523  150.9190 LP  0  0  0  0  0  0  0  0  0  0  0  0  # atno 17343 bound_to 10162
  156.3549  130.3837  149.7298 LP  0  0  0  0  0  0  0  0  0  0  0  0  # atno 17370 bound_to 10713
  156.4764  130.8020  151.3036 LP  0  0  0  0  0  0  0  0  0  0  0  0  # atno 17371 bound_to 10713
  140.0060  134.6764  155.9455 LP  0  0  0  0  0  0  0  0  0  0  0  0  # atno 17394 bound_to 11000
  141.1699  133.6537  156.4613 LP  0  0  0  0  0  0  0  0  0  0  0  0  # atno 17395 bound_to 11000

$$$$
