AV-unprocessed.smi:1545|AV-procd|sdf|6217|dock1
  -GOLD-   22720 6393D 1   1.00000     0.00000
 Structure written by MMmdl.
 41 43  0  0  0  0  0  0  0  0  1 V2000
  146.7110  131.9464  149.6554 O   0  0  0  0  0  0  0  0  0  0  0  0
  145.9334  132.7131  150.5492 C   0  0  0  0  0  0  0  0  0  0  0  0
  146.8310  133.3784  151.6028 C   0  0  0  0  0  0  0  0  0  0  0  0
  146.3318  134.6820  152.0006 N   0  0  0  0  0  0  0  0  0  0  0  0
  145.0755  135.1153  152.4089 C   0  0  0  0  0  0  0  0  0  0  0  0
  144.0097  134.3236  152.5108 N   0  0  0  0  0  0  0  0  0  0  0  0
  143.0307  135.2028  152.9340 C   0  0  0  0  0  0  0  0  0  0  0  0
  141.6648  134.9841  153.2242 C   0  0  0  0  0  0  0  0  0  0  0  0
  140.8437  136.0518  153.6423 C   0  0  0  0  0  0  0  0  0  0  0  0
  141.3747  137.3512  153.7761 C   0  0  0  0  0  0  0  0  0  0  0  0
  142.7332  137.5915  153.4940 C   0  0  0  0  0  0  0  0  0  0  0  0
  143.5496  136.5226  153.0780 C   0  0  0  0  0  0  0  0  0  0  0  0
  144.8923  136.4186  152.7265 N   0  0  0  0  0  0  0  0  0  0  0  0
  145.8728  137.4962  152.7023 C   0  0  0  0  0  0  0  0  0  0  0  0
  146.6963  137.5741  154.0032 C   0  0  1  0  0  0  0  0  0  0  0  0
  147.5605  136.4576  154.0920 O   0  0  0  0  0  0  0  0  0  0  0  0
  147.4511  138.8901  154.1034 C   0  0  0  0  0  0  0  0  0  0  0  0
  148.8539  138.9026  154.2682 C   0  0  0  0  0  0  0  0  0  0  0  0
  149.5476  140.1254  154.3544 C   0  0  0  0  0  0  0  0  0  0  0  0
  148.8430  141.3420  154.2756 C   0  0  0  0  0  0  0  0  0  0  0  0
  147.4450  141.3355  154.1075 C   0  0  0  0  0  0  0  0  0  0  0  0
  146.7673  142.5052  154.0279 F   0  0  0  0  0  0  0  0  0  0  0  0
  146.7510  140.1130  154.0202 C   0  0  0  0  0  0  0  0  0  0  0  0
  147.5463  131.7680  150.0593 H   0  0  0  0  0  0  0  0  0  0  0  0
  145.4298  133.4818  149.9627 H   0  0  0  0  0  0  0  0  0  0  0  0
  145.1566  132.0993  151.0068 H   0  0  0  0  0  0  0  0  0  0  0  0
  146.9618  132.7370  152.4752 H   0  0  0  0  0  0  0  0  0  0  0  0
  147.8231  133.5353  151.1793 H   0  0  0  0  0  0  0  0  0  0  0  0
  147.0211  135.4155  151.9254 H   0  0  0  0  0  0  0  0  0  0  0  0
  141.2478  133.9932  153.1231 H   0  0  0  0  0  0  0  0  0  0  0  0
  139.8008  135.8732  153.8599 H   0  0  0  0  0  0  0  0  0  0  0  0
  140.7379  138.1636  154.0944 H   0  0  0  0  0  0  0  0  0  0  0  0
  143.1416  138.5864  153.5921 H   0  0  0  0  0  0  0  0  0  0  0  0
  146.5288  137.3520  151.8430 H   0  0  0  0  0  0  0  0  0  0  0  0
  145.3500  138.4374  152.5278 H   0  0  0  0  0  0  0  0  0  0  0  0
  146.0161  137.5065  154.8533 H   0  0  0  0  0  0  0  0  0  0  0  0
  147.8367  136.2222  153.2196 H   0  0  0  0  0  0  0  0  0  0  0  0
  149.4024  137.9736  154.3265 H   0  0  0  0  0  0  0  0  0  0  0  0
  150.6204  140.1299  154.4804 H   0  0  0  0  0  0  0  0  0  0  0  0
  149.3746  142.2799  154.3423 H   0  0  0  0  0  0  0  0  0  0  0  0
  145.6790  140.1186  153.8884 H   0  0  0  0  0  0  0  0  0  0  0  0
  1  2  1  0  0  0  0
  1 24  1  0  0  0  0
  2  3  1  0  0  0  0
  2 25  1  0  0  0  0
  2 26  1  0  0  0  0
  3  4  1  0  0  0  0
  3 27  1  0  0  0  0
  3 28  1  0  0  0  0
  4  5  1  0  0  0  0
  4 29  1  0  0  0  0
  5 13  1  0  0  0  0
  5  6  2  0  0  0  0
  6  7  1  0  0  0  0
  7 12  2  0  0  0  0
  7  8  1  0  0  0  0
  8  9  2  0  0  0  0
  8 30  1  0  0  0  0
  9 10  1  0  0  0  0
  9 31  1  0  0  0  0
 10 11  2  0  0  0  0
 10 32  1  0  0  0  0
 11 12  1  0  0  0  0
 11 33  1  0  0  0  0
 12 13  1  0  0  0  0
 13 14  1  0  0  0  0
 14 15  1  0  0  0  0
 14 34  1  0  0  0  0
 14 35  1  0  0  0  0
 15 16  1  0  0  0  0
 15 17  1  0  0  0  0
 15 36  1  0  0  0  0
 16 37  1  0  0  0  0
 17 23  1  0  0  0  0
 17 18  2  0  0  0  0
 18 19  1  0  0  0  0
 18 38  1  0  0  0  0
 19 20  2  0  0  0  0
 19 39  1  0  0  0  0
 20 21  1  0  0  0  0
 20 40  1  0  0  0  0
 21 22  1  0  0  0  0
 21 23  2  0  0  0  0
 23 41  1  0  0  0  0
M  END
> <s_m_source_file>
AV-unprocessed.smi

> <i_m_source_file_index>
1545

> <i_lp_mmshare_version>
43012

> <i_f3d_flags>
0

> <s_epik_input>
W09IXVtDSDJdW0NIMl1bTkhdYyhuMSluKGMoYzEyKVtjSF1bY0hdW2NIXVtjSF0yKVtDSDJdW0NASF0oW09IXSljM1tjSF1bY0hdW2NIXWMoRilbY0hdMw==

> <s_epik_cmdline>
J2VwaWtfcHl0aG9uJywgJy1waCcsICc3LjAnLCAnLXRuJywgJzgnLCAnLW1hJywgJzIwMCcsICctbWV0YWxfYmluZGluZycsICctaW1hZScsICc8aW5maWxlLm1hZT4nLCAnLW9tYWUnLCAnPG91dGZpbGUubWFlPic=

> <r_epik_Ionization_Penalty>
1.30972

> <r_epik_Ionization_Penalty_Charging>
0

> <r_epik_Ionization_Penalty_Neutral>
1.30972

> <r_epik_State_Penalty>
1.38438

> <r_epik_Charging_Adjusted_Penalty>
1.38438

> <i_epik_Tot_Q>
0

> <i_epik_Tot_abs_Q>
0

> <r_epik_Metal_State_Penalty>
0.00551145

> <b_epik_Metal_Only>
0

> <s_lp_Force_Field>
OPLS_2005

> <r_lp_Energy>
10.2352

> <b_lp_Chiralities_Consistent>
1

> <s_lp_Variant>
AV-unprocessed.smi:1545-4

> <Gold.Version>
5.8.1

> <Gold.Id.Protein>
6NUR|6NUR_protein|mol2

> <Gold.PLP.Fitness>
50.7012

> <Gold.PLP.PLP>
-42.9988

> <Gold.PLP.part.hbond>
-3.0000

> <Gold.PLP.part.metal>
0.0000

> <Gold.PLP.part.buried>
-6.6922

> <Gold.PLP.part.nonpolar>
-33.6647

> <Gold.PLP.part.repulsive>
0.1307

> <Gold.PLP.ligand.clash>
0.0000

> <Gold.PLP.ligand.torsion>
0.7131

> <Gold.PLP.Chemscore.Hbond>
3.0000

> <Gold.PLP.Chemscore.CHOScore>
0.0000

> <Gold.PLP.Chemscore.Metal>
0.0000

> <Gold.Chemscore.Hbonds>
donor molecule, donor type, donor heavy atom, donor atom, acceptor molecule, acceptor atom, score
      L1  H     1    24       P1 10747  1.00
      L1  H     4    29       P1  7948  0.91
      L1  H    16    37       P1  7948  1.00

> <Gold.PLP.Chemscore.Internal.Correction>
0.1287

> <Gold.Rescore>
     Score         DG    S(hbond)    S(metal)    S(lipo)     H(rot)  DE(clash)    DE(int)     intcor
     17.11     -17.93       2.91        0.00      90.75       3.08       0.09       0.73       ----

> <Gold.Chemscore.Fitness>
17.1143

> <Gold.Chemscore.DG>
-17.9321

> <Gold.Chemscore.ZeroCoef>
-5.4800

> <Gold.Chemscore.Hbond>
2.9107

> <Gold.Chemscore.Metal>
0.0000

> <Gold.Chemscore.Lipo>
90.7527

> <Gold.Chemscore.Internal_Hbond>
0.0000

> <Gold.Chemscore.DEClash>
0.0852

> <Gold.Chemscore.DEInternal>
0.7327

> <Gold.Chemscore.Rot>
3.0812

> <Gold.Chemscore.Internal.Correction>
   9.000000E+99

> <Gold.Chemscore.Hbonds>
donor molecule, donor type, donor heavy atom, donor atom, acceptor molecule, acceptor atom, score
      L1  H     1    24       P1 10747  0.97
      L1  H     4    29       P1  7948  0.87
      L1  H    16    37       P1  7948  0.98

> <Gold.Chemscore.Hbond.Weighted>
-9.7219

> <Gold.Chemscore.Metal.Weighted>
-0.0000

> <Gold.Chemscore.Lipo.Weighted>
-10.6181

> <Gold.Chemscore.Internal_Hbond.Weighted>
0.0000

> <Gold.Chemscore.DEClash.Weighted>
0.0852

> <Gold.Chemscore.DEInternal.Weighted>
0.7327

> <Gold.Chemscore.Rot.Weighted>
7.8878

> <Gold.Chemscore.Internal.Correction.Weighted>
   9.000000E+99

> <Gold.Protein.RotatedTorsions>
[ 6907 6896 6895 6894 ] final  -36.78 input  -60.11 | X-H torsion
[ 7974 7965 7964 7962 ] final   57.63 input  175.53 | X-H torsion
[ 8008 7997 7996 7995 ] final -115.96 input   59.86 | X-H torsion
[ 10167 10162 10161 10158 ] final  153.20 input  -65.29 | X-H torsion
[ 10718 10713 10712 10709 ] final   75.16 input   66.30 | X-H torsion
[ 10763 10752 10751 10750 ] final  -16.14 input  -60.55 | X-H torsion
[ 11005 11000 10999 10996 ] final  -34.90 input  -57.11 | X-H torsion

> <Gold.Protein.ActiveResidues>
 VAL166  LYS551  ARG553  GLY616  TRP617  ASP618  TYR619  PRO620  LYS621  CYS622 
 ASP623  PHE694  ASN695  SER759  ASP760  ASP761  ALA762  ILE779  LEU786  VAL792 
 PHE793  MET794  SER795  GLU796  ALA797  LYS798  CYS799  TRP800  GLU811  SER814 

> <Gold.Protein.RotatedAtoms>
  151.0229  134.9482  159.8069 H   0  0  0  0  0  0  0  0  0  0  0  0  # atno 6907 bound_to 6896
  152.5329  134.2880  159.9042 H   0  0  0  0  0  0  0  0  0  0  0  0  # atno 6908 bound_to 6896
  151.2887  133.4133  159.2666 H   0  0  0  0  0  0  0  0  0  0  0  0  # atno 6909 bound_to 6896
  145.9270  139.3776  143.0444 H   0  0  0  0  0  0  0  0  0  0  0  0  # atno 7974 bound_to 7965
  155.0603  140.0393  157.2574 H   0  0  0  0  0  0  0  0  0  0  0  0  # atno 8008 bound_to 7997
  154.7065  140.2684  155.6645 H   0  0  0  0  0  0  0  0  0  0  0  0  # atno 8009 bound_to 7997
  156.2776  140.2730  156.1693 H   0  0  0  0  0  0  0  0  0  0  0  0  # atno 8010 bound_to 7997
  139.4828  144.5293  151.7749 H   0  0  0  0  0  0  0  0  0  0  0  0  # atno 10167 bound_to 10162
  157.6623  130.9713  150.1314 H   0  0  0  0  0  0  0  0  0  0  0  0  # atno 10718 bound_to 10713
  153.5541  135.7011  153.5577 H   0  0  0  0  0  0  0  0  0  0  0  0  # atno 10763 bound_to 10752
  153.3488  135.4001  155.1630 H   0  0  0  0  0  0  0  0  0  0  0  0  # atno 10764 bound_to 10752
  154.8657  135.3760  154.5054 H   0  0  0  0  0  0  0  0  0  0  0  0  # atno 10765 bound_to 10752
  140.9753  133.7086  156.1592 H   0  0  0  0  0  0  0  0  0  0  0  0  # atno 11005 bound_to 11000
  145.8476  140.9546  143.0766 LP  0  0  0  0  0  0  0  0  0  0  0  0  # atno 17320 bound_to 7965
  144.6760  140.0365  143.7481 LP  0  0  0  0  0  0  0  0  0  0  0  0  # atno 17321 bound_to 7965
  140.4817  144.1440  150.5934 LP  0  0  0  0  0  0  0  0  0  0  0  0  # atno 17342 bound_to 10162
  140.4270  143.2585  151.9643 LP  0  0  0  0  0  0  0  0  0  0  0  0  # atno 17343 bound_to 10162
  156.2160  130.3670  149.8613 LP  0  0  0  0  0  0  0  0  0  0  0  0  # atno 17370 bound_to 10713
  156.6479  130.8731  151.3526 LP  0  0  0  0  0  0  0  0  0  0  0  0  # atno 17371 bound_to 10713
  140.7268  134.4298  157.5570 LP  0  0  0  0  0  0  0  0  0  0  0  0  # atno 17394 bound_to 11000
  139.8928  134.8746  156.2253 LP  0  0  0  0  0  0  0  0  0  0  0  0  # atno 17395 bound_to 11000

$$$$
