AV-unprocessed.smi:1615|AV-procd|sdf|6481|dock9
  -GOLD-   22720 7143D 1   1.00000     0.00000
 Structure written by MMmdl.
 32 33  0  0  0  0  0  0  0  0  1 V2000
  152.2438  140.6942  157.4928 O   0  0  0  0  0  0  0  0  0  0  0  0
  151.3803  141.4727  157.0897 C   0  0  0  0  0  0  0  0  0  0  0  0
  150.4249  141.0412  155.9767 C   0  0  0  0  0  0  0  0  0  0  0  0
  150.6781  139.6686  155.5757 N   0  0  0  0  0  0  0  0  0  0  0  0
  150.5614  138.5206  156.3367 C   0  0  0  0  0  0  0  0  0  0  0  0
  150.9165  137.4994  155.5097 C   0  0  0  0  0  0  0  0  0  0  0  0
  150.9704  135.6485  155.9455 Br  0  0  0  0  0  0  0  0  0  0  0  0
  151.2392  138.0881  154.2608 C   0  0  0  0  0  0  0  0  0  0  0  0
  151.0911  139.4039  154.3090 N   0  0  0  0  0  0  0  0  0  0  0  0
  151.2065  142.7121  157.5755 N   0  0  0  0  0  0  0  0  0  0  0  0
  151.9701  143.3237  158.6592 C   0  0  0  0  0  0  0  0  0  0  0  0
  152.1893  142.2905  159.7806 C   0  0  0  0  0  0  0  0  0  0  0  0
  152.9086  142.9131  160.9880 C   0  0  0  0  0  0  0  0  0  0  0  0
  152.1535  144.1445  161.5122 C   0  0  0  0  0  0  0  0  0  0  0  0
  151.9464  145.1815  160.3972 C   0  0  0  0  0  0  0  0  0  0  0  0
  151.2248  144.5643  159.1880 C   0  0  0  0  0  0  0  0  0  0  0  0
  149.3905  141.1266  156.3129 H   0  0  0  0  0  0  0  0  0  0  0  0
  150.5362  141.6990  155.1131 H   0  0  0  0  0  0  0  0  0  0  0  0
  150.2471  138.5317  157.3700 H   0  0  0  0  0  0  0  0  0  0  0  0
  151.5670  137.6189  153.3450 H   0  0  0  0  0  0  0  0  0  0  0  0
  150.4727  143.2752  157.1710 H   0  0  0  0  0  0  0  0  0  0  0  0
  152.9496  143.6449  158.3004 H   0  0  0  0  0  0  0  0  0  0  0  0
  151.2294  141.8852  160.1037 H   0  0  0  0  0  0  0  0  0  0  0  0
  152.7688  141.4471  159.4026 H   0  0  0  0  0  0  0  0  0  0  0  0
  153.0104  142.1731  161.7822 H   0  0  0  0  0  0  0  0  0  0  0  0
  153.9211  143.2005  160.7015 H   0  0  0  0  0  0  0  0  0  0  0  0
  151.1861  143.8383  161.9123 H   0  0  0  0  0  0  0  0  0  0  0  0
  152.7027  144.5932  162.3405 H   0  0  0  0  0  0  0  0  0  0  0  0
  151.3754  146.0286  160.7782 H   0  0  0  0  0  0  0  0  0  0  0  0
  152.9131  145.5769  160.0825 H   0  0  0  0  0  0  0  0  0  0  0  0
  151.1315  145.3092  158.3966 H   0  0  0  0  0  0  0  0  0  0  0  0
  150.2089  144.2909  159.4767 H   0  0  0  0  0  0  0  0  0  0  0  0
  1  2  2  0  0  0  0
  2  3  1  0  0  0  0
  2 10  1  0  0  0  0
  3  4  1  0  0  0  0
  3 17  1  0  0  0  0
  3 18  1  0  0  0  0
  4  9  1  0  0  0  0
  4  5  1  0  0  0  0
  5  6  2  0  0  0  0
  5 19  1  0  0  0  0
  6  7  1  0  0  0  0
  6  8  1  0  0  0  0
  8  9  2  0  0  0  0
  8 20  1  0  0  0  0
 10 11  1  0  0  0  0
 10 21  1  0  0  0  0
 11 16  1  0  0  0  0
 11 12  1  0  0  0  0
 11 22  1  0  0  0  0
 12 13  1  0  0  0  0
 12 23  1  0  0  0  0
 12 24  1  0  0  0  0
 13 14  1  0  0  0  0
 13 25  1  0  0  0  0
 13 26  1  0  0  0  0
 14 15  1  0  0  0  0
 14 27  1  0  0  0  0
 14 28  1  0  0  0  0
 15 16  1  0  0  0  0
 15 29  1  0  0  0  0
 15 30  1  0  0  0  0
 16 31  1  0  0  0  0
 16 32  1  0  0  0  0
M  END
> <s_m_source_file>
AV-unprocessed.smi

> <i_m_source_file_index>
1615

> <i_lp_mmshare_version>
43012

> <i_f3d_flags>
0

> <s_epik_input>
bjFbY0hdYyhCcilbY0hdbjFbQ0gyXUMoPU8pW05IXVtDSF0yW0NIMl1bQ0gyXVtDSDJdW0NIMl1bQ0gyXTI=

> <s_epik_cmdline>
J2VwaWtfcHl0aG9uJywgJy1waCcsICc3LjAnLCAnLXRuJywgJzgnLCAnLW1hJywgJzIwMCcsICctbWV0YWxfYmluZGluZycsICctaW1hZScsICc8aW5maWxlLm1hZT4nLCAnLW9tYWUnLCAnPG91dGZpbGUubWFlPic=

> <r_lp_tautomer_probability>
1

> <r_epik_Ionization_Penalty>
2.45271e-07

> <r_epik_Ionization_Penalty_Charging>
0

> <r_epik_Ionization_Penalty_Neutral>
2.45271e-07

> <r_epik_State_Penalty>
-0

> <r_epik_Charging_Adjusted_Penalty>
0

> <i_epik_Tot_Q>
0

> <i_epik_Tot_abs_Q>
0

> <r_epik_Metal_State_Penalty>
-0

> <b_epik_Metal_Only>
0

> <s_lp_Force_Field>
OPLS_2005

> <r_lp_Energy>
11.9835

> <b_lp_Chiralities_Consistent>
1

> <s_lp_Variant>
AV-unprocessed.smi:1615-1

> <Gold.Version>
5.8.1

> <Gold.Id.Protein>
6NUR|6NUR_protein|mol2

> <Gold.PLP.Fitness>
41.5372

> <Gold.PLP.PLP>
-36.0238

> <Gold.PLP.part.hbond>
-1.4123

> <Gold.PLP.part.metal>
0.0000

> <Gold.PLP.part.buried>
-3.8898

> <Gold.PLP.part.nonpolar>
-30.2574

> <Gold.PLP.part.repulsive>
0.1702

> <Gold.PLP.ligand.clash>
0.0000

> <Gold.PLP.ligand.torsion>
0.2448

> <Gold.PLP.Chemscore.Hbond>
1.0000

> <Gold.PLP.Chemscore.CHOScore>
1.0000

> <Gold.PLP.Chemscore.Metal>
0.0000

> <Gold.Chemscore.Hbonds>
donor molecule, donor type, donor heavy atom, donor atom, acceptor molecule, acceptor atom, score
      P1  H  7989  7998       L1     9  1.00
      L1  C     8    20       P1  7949  1.00

> <Gold.PLP.Chemscore.Internal.Correction>
0.0030

> <Gold.Rescore>
     Score         DG    S(hbond)    S(metal)    S(lipo)     H(rot)  DE(clash)    DE(int)     intcor
     15.37     -17.03       1.07        0.00      98.69       1.40       0.12       1.54       ----

> <Gold.Chemscore.Fitness>
15.3655

> <Gold.Chemscore.DG>
-17.0292

> <Gold.Chemscore.ZeroCoef>
-5.4800

> <Gold.Chemscore.Hbond>
1.0709

> <Gold.Chemscore.Metal>
0.0000

> <Gold.Chemscore.Lipo>
98.6920

> <Gold.Chemscore.Internal_Hbond>
0.0000

> <Gold.Chemscore.DEClash>
0.1200

> <Gold.Chemscore.DEInternal>
1.5437

> <Gold.Chemscore.Rot>
1.3963

> <Gold.Chemscore.Internal.Correction>
   9.000000E+99

> <Gold.Chemscore.Hbonds>
donor molecule, donor type, donor heavy atom, donor atom, acceptor molecule, acceptor atom, score
      P1  H  7989  7998       L1     9  0.82

> <Gold.Chemscore.Hbond.Weighted>
-3.5768

> <Gold.Chemscore.Metal.Weighted>
-0.0000

> <Gold.Chemscore.Lipo.Weighted>
-11.5470

> <Gold.Chemscore.Internal_Hbond.Weighted>
0.0000

> <Gold.Chemscore.DEClash.Weighted>
0.1200

> <Gold.Chemscore.DEInternal.Weighted>
1.5437

> <Gold.Chemscore.Rot.Weighted>
3.5746

> <Gold.Chemscore.Internal.Correction.Weighted>
   9.000000E+99

> <Gold.Protein.RotatedTorsions>
[ 6907 6896 6895 6894 ] final  106.82 input  -60.11 | X-H torsion
[ 7974 7965 7964 7962 ] final -140.72 input  175.53 | X-H torsion
[ 8008 7997 7996 7995 ] final -151.60 input   59.86 | X-H torsion
[ 10167 10162 10161 10158 ] final   43.15 input  -65.29 | X-H torsion
[ 10718 10713 10712 10709 ] final -166.94 input   66.30 | X-H torsion
[ 10763 10752 10751 10750 ] final  173.27 input  -60.55 | X-H torsion
[ 11005 11000 10999 10996 ] final  148.34 input  -57.11 | X-H torsion

> <Gold.Protein.ActiveResidues>
 VAL166  LYS551  ARG553  GLY616  TRP617  ASP618  TYR619  PRO620  LYS621  CYS622 
 ASP623  PHE694  ASN695  SER759  ASP760  ASP761  ALA762  ILE779  LEU786  VAL792 
 PHE793  MET794  SER795  GLU796  ALA797  LYS798  CYS799  TRP800  GLU811  SER814 

> <Gold.Protein.RotatedAtoms>
  152.5179  133.9324  159.7586 H   0  0  0  0  0  0  0  0  0  0  0  0  # atno 6907 bound_to 6896
  150.9672  133.6374  159.2751 H   0  0  0  0  0  0  0  0  0  0  0  0  # atno 6908 bound_to 6896
  151.3598  135.0907  159.9483 H   0  0  0  0  0  0  0  0  0  0  0  0  # atno 6909 bound_to 6896
  144.8575  140.6166  143.5350 H   0  0  0  0  0  0  0  0  0  0  0  0  # atno 7974 bound_to 7965
  155.6419  140.0702  157.2615 H   0  0  0  0  0  0  0  0  0  0  0  0  # atno 8008 bound_to 7997
  154.4182  140.1749  156.1631 H   0  0  0  0  0  0  0  0  0  0  0  0  # atno 8009 bound_to 7997
  155.9848  140.3350  155.6700 H   0  0  0  0  0  0  0  0  0  0  0  0  # atno 8010 bound_to 7997
  140.3473  144.2395  150.6149 H   0  0  0  0  0  0  0  0  0  0  0  0  # atno 10167 bound_to 10162
  156.6752  130.9100  151.3049 H   0  0  0  0  0  0  0  0  0  0  0  0  # atno 10718 bound_to 10713
  154.4377  135.2761  155.1869 H   0  0  0  0  0  0  0  0  0  0  0  0  # atno 10763 bound_to 10752
  154.3748  135.6100  153.5763 H   0  0  0  0  0  0  0  0  0  0  0  0  # atno 10764 bound_to 10752
  152.9839  135.5866  154.4700 H   0  0  0  0  0  0  0  0  0  0  0  0  # atno 10765 bound_to 10752
  140.0951  134.9017  157.1711 H   0  0  0  0  0  0  0  0  0  0  0  0  # atno 11005 bound_to 11000
  145.4377  139.1540  143.3987 LP  0  0  0  0  0  0  0  0  0  0  0  0  # atno 17320 bound_to 7965
  146.2834  140.4497  142.8767 LP  0  0  0  0  0  0  0  0  0  0  0  0  # atno 17321 bound_to 7965
  140.5252  143.2256  151.8325 LP  0  0  0  0  0  0  0  0  0  0  0  0  # atno 17342 bound_to 10162
  139.4831  144.4788  151.9333 LP  0  0  0  0  0  0  0  0  0  0  0  0  # atno 17343 bound_to 10162
  157.7063  130.9389  150.0942 LP  0  0  0  0  0  0  0  0  0  0  0  0  # atno 17370 bound_to 10713
  156.1909  130.3654  149.8912 LP  0  0  0  0  0  0  0  0  0  0  0  0  # atno 17371 bound_to 10713
  140.3297  134.2823  155.7230 LP  0  0  0  0  0  0  0  0  0  0  0  0  # atno 17394 bound_to 11000
  141.2089  133.7763  157.0027 LP  0  0  0  0  0  0  0  0  0  0  0  0  # atno 17395 bound_to 11000

$$$$
