AV-unprocessed.smi:2147|AV-procd|sdf|8744|dock8
  -GOLD-   2272011523D 1   1.00000     0.00000
 Structure written by MMmdl.
 42 44  0  0  0  0  0  0  0  0  2 V2000
  149.3383  131.2000  153.9320 C   0  0  0  0  0  0  0  0  0  0  0  0
  148.3176  132.2863  154.2672 C   0  0  0  0  0  0  0  0  0  0  0  0
  147.1194  132.0159  154.1893 O   0  0  0  0  0  0  0  0  0  0  0  0
  148.8343  133.6242  154.6739 C   0  0  0  0  0  0  0  0  0  0  0  0
  150.2194  133.8864  154.7857 C   0  0  0  0  0  0  0  0  0  0  0  0
  150.6754  135.1618  155.1702 C   0  0  0  0  0  0  0  0  0  0  0  0
  149.7682  136.2022  155.4505 C   0  0  0  0  0  0  0  0  0  0  0  0
  150.3029  137.4186  155.8169 O   0  0  0  0  0  0  0  0  0  0  0  0
  151.5778  137.7767  155.3000 C   0  0  0  0  0  0  0  0  0  0  0  0
  151.7607  139.2957  155.4344 C   0  0  2  0  0  0  0  0  0  0  0  0
  152.9687  139.6579  154.7954 O   0  0  0  0  0  0  0  0  0  0  0  0
  151.7782  139.7557  156.9063 C   0  0  0  0  0  0  0  0  0  0  0  0
  151.3993  141.1664  157.0704 N   0  0  0  0  0  0  0  0  0  0  0  0
  150.5724  141.9360  156.3119 C   0  0  0  0  0  0  0  0  0  0  0  0
  150.5354  143.1767  156.8722 N   0  3  0  0  0  0  0  0  0  0  0  0
  151.3518  143.2017  158.0048 C   0  0  0  0  0  0  0  0  0  0  0  0
  151.6362  144.2286  158.8998 C   0  0  0  0  0  0  0  0  0  0  0  0
  152.5202  143.9217  159.9550 C   0  0  0  0  0  0  0  0  0  0  0  0
  153.0843  142.6366  160.0904 C   0  0  0  0  0  0  0  0  0  0  0  0
  152.7874  141.6027  159.1782 C   0  0  0  0  0  0  0  0  0  0  0  0
  151.9118  141.9132  158.1379 C   0  0  0  0  0  0  0  0  0  0  0  0
  148.3805  135.9407  155.3407 C   0  0  0  0  0  0  0  0  0  0  0  0
  147.9222  134.6658  154.9560 C   0  0  0  0  0  0  0  0  0  0  0  0
  149.9624  131.5076  153.0928 H   0  0  0  0  0  0  0  0  0  0  0  0
  148.8338  130.2729  153.6594 H   0  0  0  0  0  0  0  0  0  0  0  0
  149.9782  130.9994  154.7913 H   0  0  0  0  0  0  0  0  0  0  0  0
  150.9540  133.1224  154.5802 H   0  0  0  0  0  0  0  0  0  0  0  0
  151.7372  135.3434  155.2495 H   0  0  0  0  0  0  0  0  0  0  0  0
  152.3744  137.2563  155.8346 H   0  0  0  0  0  0  0  0  0  0  0  0
  151.6324  137.4905  154.2480 H   0  0  0  0  0  0  0  0  0  0  0  0
  150.9498  139.7994  154.9066 H   0  0  0  0  0  0  0  0  0  0  0  0
  153.0720  139.1231  154.0228 H   0  0  0  0  0  0  0  0  0  0  0  0
  151.0665  139.1674  157.4869 H   0  0  0  0  0  0  0  0  0  0  0  0
  152.7534  139.5888  157.3641 H   0  0  0  0  0  0  0  0  0  0  0  0
  150.0402  141.6186  155.4268 H   0  0  0  0  0  0  0  0  0  0  0  0
  151.2064  145.2142  158.7980 H   0  0  0  0  0  0  0  0  0  0  0  0
  152.7719  144.6878  160.6741 H   0  0  0  0  0  0  0  0  0  0  0  0
  153.7601  142.4391  160.9099 H   0  0  0  0  0  0  0  0  0  0  0  0
  153.2299  140.6237  159.2881 H   0  0  0  0  0  0  0  0  0  0  0  0
  147.6436  136.7019  155.5462 H   0  0  0  0  0  0  0  0  0  0  0  0
  146.8572  134.4990  154.8804 H   0  0  0  0  0  0  0  0  0  0  0  0
  149.9920  143.9481  156.5064 H   0  0  0  0  0  0  0  0  0  0  0  0
  1  2  1  0  0  0  0
  1 24  1  0  0  0  0
  1 25  1  0  0  0  0
  1 26  1  0  0  0  0
  2  3  2  0  0  0  0
  2  4  1  0  0  0  0
  4 23  1  0  0  0  0
  4  5  2  0  0  0  0
  5  6  1  0  0  0  0
  5 27  1  0  0  0  0
  6  7  2  0  0  0  0
  6 28  1  0  0  0  0
  7  8  1  0  0  0  0
  7 22  1  0  0  0  0
  8  9  1  0  0  0  0
  9 10  1  0  0  0  0
  9 29  1  0  0  0  0
  9 30  1  0  0  0  0
 10 11  1  0  0  0  0
 10 12  1  0  0  0  0
 10 31  1  0  0  0  0
 11 32  1  0  0  0  0
 12 13  1  0  0  0  0
 12 33  1  0  0  0  0
 12 34  1  0  0  0  0
 13 21  1  0  0  0  0
 13 14  1  0  0  0  0
 14 15  2  0  0  0  0
 14 35  1  0  0  0  0
 15 16  1  0  0  0  0
 15 42  1  0  0  0  0
 16 21  2  0  0  0  0
 16 17  1  0  0  0  0
 17 18  2  0  0  0  0
 17 36  1  0  0  0  0
 18 19  1  0  0  0  0
 18 37  1  0  0  0  0
 19 20  2  0  0  0  0
 19 38  1  0  0  0  0
 20 21  1  0  0  0  0
 20 39  1  0  0  0  0
 22 23  2  0  0  0  0
 22 40  1  0  0  0  0
 23 41  1  0  0  0  0
M  CHG  1  15   1
M  END
> <s_m_source_file>
AV-unprocessed.smi

> <i_m_source_file_index>
2147

> <i_lp_mmshare_version>
43012

> <i_f3d_flags>
0

> <s_epik_input>
W0NIM11DKD1PKWMxW2NIXVtjSF1jKFtjSF1bY0hdMSlPW0NIMl1bQ0BIXShbT0hdKVtDSDJdbihbY0hdbjIpYyhjMjMpW2NIXVtjSF1bY0hdW2NIXTM=

> <s_epik_cmdline>
J2VwaWtfcHl0aG9uJywgJy1waCcsICc3LjAnLCAnLXRuJywgJzgnLCAnLW1hJywgJzIwMCcsICctbWV0YWxfYmluZGluZycsICctaW1hZScsICc8aW5maWxlLm1hZT4nLCAnLW9tYWUnLCAnPG91dGZpbGUubWFlPic=

> <r_lp_tautomer_probability>
0.99995

> <r_epik_Ionization_Penalty>
1.40272

> <r_epik_Ionization_Penalty_Charging>
1.40272

> <r_epik_Ionization_Penalty_Neutral>
2.3993e-06

> <r_epik_State_Penalty>
1.48501

> <r_epik_Charging_Adjusted_Penalty>
2.88772

> <i_epik_Tot_Q>
1

> <i_epik_Tot_abs_Q>
1

> <r_epik_Metal_State_Penalty>
5.5274

> <b_epik_Metal_Only>
0

> <s_lp_Force_Field>
OPLS_2005

> <r_lp_Energy>
26.2273

> <b_lp_Chiralities_Consistent>
1

> <s_lp_Variant>
AV-unprocessed.smi:2147-3

> <Gold.Version>
5.8.1

> <Gold.Id.Protein>
6NUR|6NUR_protein|mol2

> <Gold.PLP.Fitness>
53.7261

> <Gold.PLP.PLP>
-46.8131

> <Gold.PLP.part.hbond>
-3.0000

> <Gold.PLP.part.metal>
0.0000

> <Gold.PLP.part.buried>
-6.3359

> <Gold.PLP.part.nonpolar>
-38.1711

> <Gold.PLP.part.repulsive>
0.1855

> <Gold.PLP.ligand.clash>
0.0000

> <Gold.PLP.ligand.torsion>
1.0904

> <Gold.PLP.Chemscore.Hbond>
3.0000

> <Gold.PLP.Chemscore.CHOScore>
0.0000

> <Gold.PLP.Chemscore.Metal>
0.0000

> <Gold.Chemscore.Hbonds>
donor molecule, donor type, donor heavy atom, donor atom, acceptor molecule, acceptor atom, score
      L1  H    15    42       P1  8028  2.00
      P1  H  7989  7998       L1    11  0.01
      P1  H  7997  8008       L1    11  1.00

> <Gold.PLP.Chemscore.Internal.Correction>
0.0938

> <Gold.Rescore>
     Score         DG    S(hbond)    S(metal)    S(lipo)     H(rot)  DE(clash)    DE(int)     intcor
     18.40     -19.50       1.98        0.00     117.80       2.48       0.01       1.09       ----

> <Gold.Chemscore.Fitness>
18.4014

> <Gold.Chemscore.DG>
-19.5039

> <Gold.Chemscore.ZeroCoef>
-5.4800

> <Gold.Chemscore.Hbond>
1.9762

> <Gold.Chemscore.Metal>
0.0000

> <Gold.Chemscore.Lipo>
117.8006

> <Gold.Chemscore.Internal_Hbond>
0.0000

> <Gold.Chemscore.DEClash>
0.0085

> <Gold.Chemscore.DEInternal>
1.0939

> <Gold.Chemscore.Rot>
2.4842

> <Gold.Chemscore.Internal.Correction>
   9.000000E+99

> <Gold.Chemscore.Hbonds>
donor molecule, donor type, donor heavy atom, donor atom, acceptor molecule, acceptor atom, score
      L1  H    15    42       P1  8028  0.97
      P1  H  7997  8008       L1    11  0.96

> <Gold.Chemscore.Hbond.Weighted>
-6.6006

> <Gold.Chemscore.Metal.Weighted>
-0.0000

> <Gold.Chemscore.Lipo.Weighted>
-13.7827

> <Gold.Chemscore.Internal_Hbond.Weighted>
0.0000

> <Gold.Chemscore.DEClash.Weighted>
0.0085

> <Gold.Chemscore.DEInternal.Weighted>
1.0939

> <Gold.Chemscore.Rot.Weighted>
6.3594

> <Gold.Chemscore.Internal.Correction.Weighted>
   9.000000E+99

> <Gold.Protein.RotatedTorsions>
[ 6907 6896 6895 6894 ] final -138.37 input  -60.11 | X-H torsion
[ 7974 7965 7964 7962 ] final  -14.77 input  175.53 | X-H torsion
[ 8008 7997 7996 7995 ] final  -13.74 input   59.86 | X-H torsion
[ 10167 10162 10161 10158 ] final   63.05 input  -65.29 | X-H torsion
[ 10718 10713 10712 10709 ] final   98.16 input   66.30 | X-H torsion
[ 10763 10752 10751 10750 ] final -178.24 input  -60.55 | X-H torsion
[ 11005 11000 10999 10996 ] final  -43.72 input  -57.11 | X-H torsion

> <Gold.Protein.ActiveResidues>
 VAL166  LYS551  ARG553  GLY616  TRP617  ASP618  TYR619  PRO620  LYS621  CYS622 
 ASP623  PHE694  ASN695  SER759  ASP760  ASP761  ALA762  ILE779  LEU786  VAL792 
 PHE793  MET794  SER795  GLU796  ALA797  LYS798  CYS799  TRP800  GLU811  SER814 

> <Gold.Protein.RotatedAtoms>
  151.0341  133.5764  159.2657 H   0  0  0  0  0  0  0  0  0  0  0  0  # atno 6907 bound_to 6896
  151.2834  135.0720  159.9187 H   0  0  0  0  0  0  0  0  0  0  0  0  # atno 6908 bound_to 6896
  152.5351  134.0052  159.7967 H   0  0  0  0  0  0  0  0  0  0  0  0  # atno 6909 bound_to 6896
  146.2060  140.3396  142.8407 H   0  0  0  0  0  0  0  0  0  0  0  0  # atno 7974 bound_to 7965
  154.5267  140.2241  155.8877 H   0  0  0  0  0  0  0  0  0  0  0  0  # atno 8008 bound_to 7997
  156.1721  140.3119  155.8957 H   0  0  0  0  0  0  0  0  0  0  0  0  # atno 8009 bound_to 7997
  155.3536  140.0457  157.3037 H   0  0  0  0  0  0  0  0  0  0  0  0  # atno 8010 bound_to 7997
  140.1372  144.4587  150.6831 H   0  0  0  0  0  0  0  0  0  0  0  0  # atno 10167 bound_to 10162
  157.6900  131.0631  150.4754 H   0  0  0  0  0  0  0  0  0  0  0  0  # atno 10718 bound_to 10713
  154.5501  135.2812  155.1016 H   0  0  0  0  0  0  0  0  0  0  0  0  # atno 10763 bound_to 10752
  154.2465  135.6347  153.5229 H   0  0  0  0  0  0  0  0  0  0  0  0  # atno 10764 bound_to 10752
  153.0001  135.5572  154.6065 H   0  0  0  0  0  0  0  0  0  0  0  0  # atno 10765 bound_to 10752
  141.0403  133.6783  156.2772 H   0  0  0  0  0  0  0  0  0  0  0  0  # atno 11005 bound_to 11000
  144.8794  140.7380  143.5996 LP  0  0  0  0  0  0  0  0  0  0  0  0  # atno 17320 bound_to 7965
  145.3317  139.1758  143.4533 LP  0  0  0  0  0  0  0  0  0  0  0  0  # atno 17321 bound_to 7965
  140.6782  143.2314  151.5453 LP  0  0  0  0  0  0  0  0  0  0  0  0  # atno 17342 bound_to 10162
  139.5490  144.2446  152.1495 LP  0  0  0  0  0  0  0  0  0  0  0  0  # atno 17343 bound_to 10162
  156.5089  130.4134  149.6312 LP  0  0  0  0  0  0  0  0  0  0  0  0  # atno 17370 bound_to 10713
  156.3259  130.7305  151.2226 LP  0  0  0  0  0  0  0  0  0  0  0  0  # atno 17371 bound_to 10713
  140.6247  134.5325  157.5552 LP  0  0  0  0  0  0  0  0  0  0  0  0  # atno 17394 bound_to 11000
  139.9270  134.8036  156.1038 LP  0  0  0  0  0  0  0  0  0  0  0  0  # atno 17395 bound_to 11000

$$$$
