AV-unprocessed.smi:1627|AV-procd|sdf|6516|dock6
  -GOLD-   22720 7183D 1   1.00000     0.00000
 Structure written by MMmdl.
 43 44  0  0  0  0  0  0  0  0  1 V2000
  144.1176  137.2540  152.5516 C   0  0  0  0  0  0  0  0  0  0  0  0
  145.6470  137.1644  152.4437 C   0  0  2  0  0  0  0  0  0  0  0  0
  146.0120  135.8050  152.6689 O   0  0  0  0  0  0  0  0  0  0  0  0
  145.8940  134.9426  151.5417 C   0  0  0  0  0  0  0  0  0  0  0  0
  144.9369  133.7936  151.8814 C   0  0  0  0  0  0  0  0  0  0  0  0
  143.7217  134.2880  152.1156 F   0  0  0  0  0  0  0  0  0  0  0  0
  144.8622  132.9401  150.8606 F   0  0  0  0  0  0  0  0  0  0  0  0
  145.3549  133.1522  152.9723 F   0  0  0  0  0  0  0  0  0  0  0  0
  146.3328  138.0792  153.4715 C   0  0  0  0  0  0  0  0  0  0  0  0
  145.6475  138.7916  154.2048 O   0  0  0  0  0  0  0  0  0  0  0  0
  147.6779  138.0346  153.4897 N   0  0  0  0  0  0  0  0  0  0  0  0
  148.5731  138.7265  154.3490 C   0  0  0  0  0  0  0  0  0  0  0  0
  148.1552  138.9922  155.6686 C   0  0  0  0  0  0  0  0  0  0  0  0
  149.0124  139.7012  156.5311 C   0  0  0  0  0  0  0  0  0  0  0  0
  150.2624  140.1312  156.0410 C   0  0  0  0  0  0  0  0  0  0  0  0
  151.1214  140.8408  156.8920 N   0  0  0  0  0  0  0  0  0  0  0  0
  151.5216  140.0764  158.0710 C   0  0  0  0  0  0  0  0  0  0  0  0
  152.6196  140.8159  158.8551 C   0  0  0  0  0  0  0  0  0  0  0  0
  152.1749  142.2447  159.2072 C   0  0  0  0  0  0  0  0  0  0  0  0
  151.7345  142.9924  157.9383 C   0  0  0  0  0  0  0  0  0  0  0  0
  150.6592  142.1970  157.1775 C   0  0  0  0  0  0  0  0  0  0  0  0
  150.6679  139.8937  154.7713 N   0  0  0  0  0  0  0  0  0  0  0  0
  149.8416  139.2127  153.9491 C   0  0  0  0  0  0  0  0  0  0  0  0
  143.7693  138.2773  152.4071 H   0  0  0  0  0  0  0  0  0  0  0  0
  143.7622  136.9123  153.5245 H   0  0  0  0  0  0  0  0  0  0  0  0
  143.6407  136.6339  151.7923 H   0  0  0  0  0  0  0  0  0  0  0  0
  145.9376  137.4542  151.4320 H   0  0  0  0  0  0  0  0  0  0  0  0
  145.5117  135.5011  150.6862 H   0  0  0  0  0  0  0  0  0  0  0  0
  146.8641  134.5338  151.2562 H   0  0  0  0  0  0  0  0  0  0  0  0
  148.1120  137.4784  152.7674 H   0  0  0  0  0  0  0  0  0  0  0  0
  147.1905  138.6561  156.0200 H   0  0  0  0  0  0  0  0  0  0  0  0
  148.7135  139.9124  157.5476 H   0  0  0  0  0  0  0  0  0  0  0  0
  150.6539  139.9154  158.7126 H   0  0  0  0  0  0  0  0  0  0  0  0
  151.8814  139.0925  157.7669 H   0  0  0  0  0  0  0  0  0  0  0  0
  152.8658  140.2646  159.7629 H   0  0  0  0  0  0  0  0  0  0  0  0
  153.5313  140.8542  158.2575 H   0  0  0  0  0  0  0  0  0  0  0  0
  151.3468  142.2067  159.9160 H   0  0  0  0  0  0  0  0  0  0  0  0
  152.9854  142.7819  159.7003 H   0  0  0  0  0  0  0  0  0  0  0  0
  151.3544  143.9809  158.1975 H   0  0  0  0  0  0  0  0  0  0  0  0
  152.5974  143.1510  157.2902 H   0  0  0  0  0  0  0  0  0  0  0  0
  150.4114  142.7060  156.2451 H   0  0  0  0  0  0  0  0  0  0  0  0
  149.7443  142.1531  157.7704 H   0  0  0  0  0  0  0  0  0  0  0  0
  150.2110  139.0844  152.9437 H   0  0  0  0  0  0  0  0  0  0  0  0
  1  2  1  0  0  0  0
  1 24  1  0  0  0  0
  1 25  1  0  0  0  0
  1 26  1  0  0  0  0
  2  3  1  0  0  0  0
  2  9  1  0  0  0  0
  2 27  1  0  0  0  0
  3  4  1  0  0  0  0
  4  5  1  0  0  0  0
  4 28  1  0  0  0  0
  4 29  1  0  0  0  0
  5  6  1  0  0  0  0
  5  7  1  0  0  0  0
  5  8  1  0  0  0  0
  9 10  2  0  0  0  0
  9 11  1  0  0  0  0
 11 12  1  0  0  0  0
 11 30  1  0  0  0  0
 12 23  1  0  0  0  0
 12 13  2  0  0  0  0
 13 14  1  0  0  0  0
 13 31  1  0  0  0  0
 14 15  2  0  0  0  0
 14 32  1  0  0  0  0
 15 16  1  0  0  0  0
 15 22  1  0  0  0  0
 16 21  1  0  0  0  0
 16 17  1  0  0  0  0
 17 18  1  0  0  0  0
 17 33  1  0  0  0  0
 17 34  1  0  0  0  0
 18 19  1  0  0  0  0
 18 35  1  0  0  0  0
 18 36  1  0  0  0  0
 19 20  1  0  0  0  0
 19 37  1  0  0  0  0
 19 38  1  0  0  0  0
 20 21  1  0  0  0  0
 20 39  1  0  0  0  0
 20 40  1  0  0  0  0
 21 41  1  0  0  0  0
 21 42  1  0  0  0  0
 22 23  2  0  0  0  0
 23 43  1  0  0  0  0
M  END
> <s_m_source_file>
AV-unprocessed.smi

> <i_m_source_file_index>
1627

> <i_lp_mmshare_version>
43012

> <i_f3d_flags>
0

> <s_epik_input>
RkMoRikoRilbQ0gyXU9bQ0BASF0oW0NIM10pQyg9TylbTkhdYzFbY0hdW2NIXWMobltjSF0xKU4yW0NIMl1bQ0gyXVtDSDJdW0NIMl1bQ0gyXTI=

> <s_epik_cmdline>
J2VwaWtfcHl0aG9uJywgJy1waCcsICc3LjAnLCAnLXRuJywgJzgnLCAnLW1hJywgJzIwMCcsICctbWV0YWxfYmluZGluZycsICctaW1hZScsICc8aW5maWxlLm1hZT4nLCAnLW9tYWUnLCAnPG91dGZpbGUubWFlPic=

> <r_lp_tautomer_probability>
1

> <r_epik_Ionization_Penalty>
0.0254771

> <r_epik_Ionization_Penalty_Charging>
0

> <r_epik_Ionization_Penalty_Neutral>
0.0254771

> <r_epik_State_Penalty>
0.0187406

> <r_epik_Charging_Adjusted_Penalty>
0.0187406

> <i_epik_Tot_Q>
0

> <i_epik_Tot_abs_Q>
0

> <r_epik_Metal_State_Penalty>
0.017939

> <b_epik_Metal_Only>
0

> <s_lp_Force_Field>
OPLS_2005

> <r_lp_Energy>
26.2479

> <b_lp_Chiralities_Consistent>
1

> <s_lp_Variant>
AV-unprocessed.smi:1627-1

> <Gold.Version>
5.8.1

> <Gold.Id.Protein>
6NUR|6NUR_protein|mol2

> <Gold.PLP.Fitness>
38.5332

> <Gold.PLP.PLP>
-31.2918

> <Gold.PLP.part.hbond>
-2.0000

> <Gold.PLP.part.metal>
0.0000

> <Gold.PLP.part.buried>
-3.7463

> <Gold.PLP.part.nonpolar>
-26.5153

> <Gold.PLP.part.repulsive>
0.8442

> <Gold.PLP.ligand.clash>
0.0000

> <Gold.PLP.ligand.torsion>
0.9777

> <Gold.PLP.Chemscore.Hbond>
2.0000

> <Gold.PLP.Chemscore.CHOScore>
1.0000

> <Gold.PLP.Chemscore.Metal>
0.0000

> <Gold.Chemscore.Hbonds>
donor molecule, donor type, donor heavy atom, donor atom, acceptor molecule, acceptor atom, score
      L1  H    11    30       P1  7948  1.00
      P1  H  7989  7998       L1    22  0.95
      L1  C    23    43       P1  7957  1.00

> <Gold.PLP.Chemscore.Internal.Correction>
0.1969

> <Gold.Rescore>
     Score         DG    S(hbond)    S(metal)    S(lipo)     H(rot)  DE(clash)    DE(int)     intcor
     11.53     -14.45       1.64        0.00      70.59       1.87       0.59       2.34       ----

> <Gold.Chemscore.Fitness>
11.5281

> <Gold.Chemscore.DG>
-14.4503

> <Gold.Chemscore.ZeroCoef>
-5.4800

> <Gold.Chemscore.Hbond>
1.6438

> <Gold.Chemscore.Metal>
0.0000

> <Gold.Chemscore.Lipo>
70.5857

> <Gold.Chemscore.Internal_Hbond>
0.0000

> <Gold.Chemscore.DEClash>
0.5872

> <Gold.Chemscore.DEInternal>
2.3350

> <Gold.Chemscore.Rot>
1.8665

> <Gold.Chemscore.Internal.Correction>
   9.000000E+99

> <Gold.Chemscore.Hbonds>
donor molecule, donor type, donor heavy atom, donor atom, acceptor molecule, acceptor atom, score
      L1  H    11    30       P1  7948  1.00
      P1  H  7989  7998       L1    22  0.22

> <Gold.Chemscore.Hbond.Weighted>
-5.4901

> <Gold.Chemscore.Metal.Weighted>
-0.0000

> <Gold.Chemscore.Lipo.Weighted>
-8.2585

> <Gold.Chemscore.Internal_Hbond.Weighted>
0.0000

> <Gold.Chemscore.DEClash.Weighted>
0.5872

> <Gold.Chemscore.DEInternal.Weighted>
2.3350

> <Gold.Chemscore.Rot.Weighted>
4.7783

> <Gold.Chemscore.Internal.Correction.Weighted>
   9.000000E+99

> <Gold.Protein.RotatedTorsions>
[ 6907 6896 6895 6894 ] final  158.91 input  -60.11 | X-H torsion
[ 7974 7965 7964 7962 ] final  -97.33 input  175.53 | X-H torsion
[ 8008 7997 7996 7995 ] final   24.31 input   59.86 | X-H torsion
[ 10167 10162 10161 10158 ] final  -30.46 input  -65.29 | X-H torsion
[ 10718 10713 10712 10709 ] final   74.45 input   66.30 | X-H torsion
[ 10763 10752 10751 10750 ] final  176.70 input  -60.55 | X-H torsion
[ 11005 11000 10999 10996 ] final   64.97 input  -57.11 | X-H torsion

> <Gold.Protein.ActiveResidues>
 VAL166  LYS551  ARG553  GLY616  TRP617  ASP618  TYR619  PRO620  LYS621  CYS622 
 ASP623  PHE694  ASN695  SER759  ASP760  ASP761  ALA762  ILE779  LEU786  VAL792 
 PHE793  MET794  SER795  GLU796  ALA797  LYS798  CYS799  TRP800  GLU811  SER814 

> <Gold.Protein.RotatedAtoms>
  151.9933  133.3799  159.4152 H   0  0  0  0  0  0  0  0  0  0  0  0  # atno 6907 bound_to 6896
  150.6919  134.3913  159.5087 H   0  0  0  0  0  0  0  0  0  0  0  0  # atno 6908 bound_to 6896
  152.1649  134.8881  160.0589 H   0  0  0  0  0  0  0  0  0  0  0  0  # atno 6909 bound_to 6896
  145.3352  140.9449  143.2639 H   0  0  0  0  0  0  0  0  0  0  0  0  # atno 7974 bound_to 7965
  154.9943  140.3117  155.4893 H   0  0  0  0  0  0  0  0  0  0  0  0  # atno 8008 bound_to 7997
  156.2935  140.2243  156.4990 H   0  0  0  0  0  0  0  0  0  0  0  0  # atno 8009 bound_to 7997
  154.7675  140.0454  157.1012 H   0  0  0  0  0  0  0  0  0  0  0  0  # atno 8010 bound_to 7997
  140.7249  143.3847  151.1536 H   0  0  0  0  0  0  0  0  0  0  0  0  # atno 10167 bound_to 10162
  157.6592  130.9678  150.1212 H   0  0  0  0  0  0  0  0  0  0  0  0  # atno 10718 bound_to 10713
  154.4846  135.2776  155.1544 H   0  0  0  0  0  0  0  0  0  0  0  0  # atno 10763 bound_to 10752
  154.3240  135.6204  153.5524 H   0  0  0  0  0  0  0  0  0  0  0  0  # atno 10764 bound_to 10752
  152.9879  135.5749  154.5254 H   0  0  0  0  0  0  0  0  0  0  0  0  # atno 10765 bound_to 10752
  139.9924  134.6570  156.0068 H   0  0  0  0  0  0  0  0  0  0  0  0  # atno 11005 bound_to 11000
  144.8833  139.4874  143.6712 LP  0  0  0  0  0  0  0  0  0  0  0  0  # atno 17320 bound_to 7965
  146.3030  139.7487  142.9077 LP  0  0  0  0  0  0  0  0  0  0  0  0  # atno 17321 bound_to 7965
  139.7442  143.8877  152.3059 LP  0  0  0  0  0  0  0  0  0  0  0  0  # atno 17342 bound_to 10162
  139.8709  144.7069  150.8989 LP  0  0  0  0  0  0  0  0  0  0  0  0  # atno 17343 bound_to 10162
  156.2083  130.3665  149.8702 LP  0  0  0  0  0  0  0  0  0  0  0  0  # atno 17370 bound_to 10713
  156.6587  130.8773  151.3544 LP  0  0  0  0  0  0  0  0  0  0  0  0  # atno 17371 bound_to 10713
  141.1577  133.6541  156.4215 LP  0  0  0  0  0  0  0  0  0  0  0  0  # atno 17394 bound_to 11000
  140.4883  134.6600  157.5200 LP  0  0  0  0  0  0  0  0  0  0  0  0  # atno 17395 bound_to 11000

$$$$
