AV-unprocessed.smi:917|AV-procd|sdf|4162|dock6
  -GOLD-   22720 2 63D 1   1.00000     0.00000
 Structure written by MMmdl.
 43 44  0  0  0  0  0  0  0  0  1 V2000
  146.6034  139.1454  152.7765 C   0  0  0  0  0  0  0  0  0  0  0  0
  146.4645  139.5951  154.2026 C   0  0  0  0  0  0  0  0  0  0  0  0
  145.5768  139.0108  154.9896 N   0  0  0  0  0  0  0  0  0  0  0  0
  145.6931  139.6415  156.2319 O   0  0  0  0  0  0  0  0  0  0  0  0
  146.6565  140.5931  156.1429 C   0  0  0  0  0  0  0  0  0  0  0  0
  146.9316  141.3773  157.3812 C   0  0  0  0  0  0  0  0  0  0  0  0
  147.1844  140.6201  154.8808 C   0  0  0  0  0  0  0  0  0  0  0  0
  148.2695  141.5079  154.3277 C   0  0  0  0  0  0  0  0  0  0  0  0
  149.5596  141.2928  155.1193 C   0  0  0  0  0  0  0  0  0  0  0  0
  150.3872  140.4663  154.7349 O   0  0  0  0  0  0  0  0  0  0  0  0
  149.7092  142.0284  156.2314 N   0  0  0  0  0  0  0  0  0  0  0  0
  150.8293  141.9266  157.1583 C   0  0  0  0  0  0  0  0  0  0  0  0
  150.6231  142.8358  158.3802 C   0  0  0  0  0  0  0  0  0  0  0  0
  151.9501  143.2525  159.0328 C   0  0  0  0  0  0  0  0  0  0  0  0
  152.4551  142.2435  160.0794 C   0  0  0  0  0  0  0  0  0  0  0  0
  152.6608  142.8553  161.4665 C   0  0  0  0  0  0  0  0  0  0  0  0
  153.5645  141.8607  162.1998 C   0  0  0  0  0  0  0  0  0  0  0  0
  154.3697  141.1354  161.1111 C   0  0  0  0  0  0  0  0  0  0  0  0
  153.8248  141.6318  159.7655 C   0  0  0  0  0  0  0  0  0  0  0  0
  147.6514  138.9994  152.5142 H   0  0  0  0  0  0  0  0  0  0  0  0
  146.1909  139.8878  152.0934 H   0  0  0  0  0  0  0  0  0  0  0  0
  146.0844  138.2027  152.5970 H   0  0  0  0  0  0  0  0  0  0  0  0
  147.8949  141.8829  157.3196 H   0  0  0  0  0  0  0  0  0  0  0  0
  146.9506  140.7266  158.2557 H   0  0  0  0  0  0  0  0  0  0  0  0
  146.1621  142.1333  157.5376 H   0  0  0  0  0  0  0  0  0  0  0  0
  148.4671  141.2899  153.2777 H   0  0  0  0  0  0  0  0  0  0  0  0
  147.9794  142.5587  154.3671 H   0  0  0  0  0  0  0  0  0  0  0  0
  148.9794  142.6849  156.4681 H   0  0  0  0  0  0  0  0  0  0  0  0
  150.9707  140.8903  157.4696 H   0  0  0  0  0  0  0  0  0  0  0  0
  151.7360  142.2171  156.6269 H   0  0  0  0  0  0  0  0  0  0  0  0
  150.0696  143.7265  158.0797 H   0  0  0  0  0  0  0  0  0  0  0  0
  150.0029  142.3206  159.1145 H   0  0  0  0  0  0  0  0  0  0  0  0
  152.7080  143.3962  158.2615 H   0  0  0  0  0  0  0  0  0  0  0  0
  151.8188  144.2223  159.5142 H   0  0  0  0  0  0  0  0  0  0  0  0
  151.7291  141.4343  160.1736 H   0  0  0  0  0  0  0  0  0  0  0  0
  153.1732  143.8147  161.3783 H   0  0  0  0  0  0  0  0  0  0  0  0
  151.7213  143.0298  161.9918 H   0  0  0  0  0  0  0  0  0  0  0  0
  154.2074  142.3583  162.9266 H   0  0  0  0  0  0  0  0  0  0  0  0
  152.9536  141.1391  162.7440 H   0  0  0  0  0  0  0  0  0  0  0  0
  155.4380  141.3376  161.1970 H   0  0  0  0  0  0  0  0  0  0  0  0
  154.2348  140.0570  161.2049 H   0  0  0  0  0  0  0  0  0  0  0  0
  153.7649  140.8332  159.0256 H   0  0  0  0  0  0  0  0  0  0  0  0
  154.4914  142.3982  159.3669 H   0  0  0  0  0  0  0  0  0  0  0  0
  1  2  1  0  0  0  0
  1 20  1  0  0  0  0
  1 21  1  0  0  0  0
  1 22  1  0  0  0  0
  2  7  1  0  0  0  0
  2  3  2  0  0  0  0
  3  4  1  0  0  0  0
  4  5  1  0  0  0  0
  5  6  1  0  0  0  0
  5  7  2  0  0  0  0
  6 23  1  0  0  0  0
  6 24  1  0  0  0  0
  6 25  1  0  0  0  0
  7  8  1  0  0  0  0
  8  9  1  0  0  0  0
  8 26  1  0  0  0  0
  8 27  1  0  0  0  0
  9 10  2  0  0  0  0
  9 11  1  0  0  0  0
 11 12  1  0  0  0  0
 11 28  1  0  0  0  0
 12 13  1  0  0  0  0
 12 29  1  0  0  0  0
 12 30  1  0  0  0  0
 13 14  1  0  0  0  0
 13 31  1  0  0  0  0
 13 32  1  0  0  0  0
 14 15  1  0  0  0  0
 14 33  1  0  0  0  0
 14 34  1  0  0  0  0
 15 19  1  0  0  0  0
 15 16  1  0  0  0  0
 15 35  1  0  0  0  0
 16 17  1  0  0  0  0
 16 36  1  0  0  0  0
 16 37  1  0  0  0  0
 17 18  1  0  0  0  0
 17 38  1  0  0  0  0
 17 39  1  0  0  0  0
 18 19  1  0  0  0  0
 18 40  1  0  0  0  0
 18 41  1  0  0  0  0
 19 42  1  0  0  0  0
 19 43  1  0  0  0  0
M  END
> <s_m_source_file>
AV-unprocessed.smi

> <i_m_source_file_index>
917

> <i_lp_mmshare_version>
43012

> <i_f3d_flags>
0

> <s_epik_input>
W0NIM11jMW5vYyhbQ0gzXSljMVtDSDJdQyg9TylbTkhdW0NIMl1bQ0gyXVtDSDJdW0NIXTJbQ0gyXVtDSDJdW0NIMl1bQ0gyXTI=

> <s_epik_cmdline>
J2VwaWtfcHl0aG9uJywgJy1waCcsICc3LjAnLCAnLXRuJywgJzgnLCAnLW1hJywgJzIwMCcsICctbWV0YWxfYmluZGluZycsICctaW1hZScsICc8aW5maWxlLm1hZT4nLCAnLW9tYWUnLCAnPG91dGZpbGUubWFlPic=

> <r_lp_tautomer_probability>
1

> <r_epik_Ionization_Penalty>
1.90047e-08

> <r_epik_Ionization_Penalty_Charging>
0

> <r_epik_Ionization_Penalty_Neutral>
1.90047e-08

> <r_epik_State_Penalty>
-0

> <r_epik_Charging_Adjusted_Penalty>
0

> <i_epik_Tot_Q>
0

> <i_epik_Tot_abs_Q>
0

> <r_epik_Metal_State_Penalty>
-0

> <b_epik_Metal_Only>
0

> <s_lp_Force_Field>
OPLS_2005

> <r_lp_Energy>
14.8475

> <b_lp_Chiralities_Consistent>
1

> <s_lp_Variant>
AV-unprocessed.smi:917-1

> <Gold.Version>
5.8.1

> <Gold.Id.Protein>
6NUR|6NUR_protein|mol2

> <Gold.PLP.Fitness>
46.4714

> <Gold.PLP.PLP>
-43.3391

> <Gold.PLP.part.hbond>
-2.0000

> <Gold.PLP.part.metal>
0.0000

> <Gold.PLP.part.buried>
-3.8441

> <Gold.PLP.part.nonpolar>
-37.8395

> <Gold.PLP.part.repulsive>
0.3192

> <Gold.PLP.ligand.clash>
0.0000

> <Gold.PLP.ligand.torsion>
1.4291

> <Gold.PLP.Chemscore.Hbond>
1.9760

> <Gold.PLP.Chemscore.CHOScore>
0.0000

> <Gold.PLP.Chemscore.Metal>
0.0000

> <Gold.Chemscore.Hbonds>
donor molecule, donor type, donor heavy atom, donor atom, acceptor molecule, acceptor atom, score
      L1  H    11    28       P1  8028  0.29
      P1  H  7989  7998       L1    10  1.00

> <Gold.PLP.Chemscore.Internal.Correction>
0.0626

> <Gold.Rescore>
     Score         DG    S(hbond)    S(metal)    S(lipo)     H(rot)  DE(clash)    DE(int)     intcor
     17.77     -19.14       1.56        0.00     108.31       1.65       0.01       1.36       ----

> <Gold.Chemscore.Fitness>
17.7679

> <Gold.Chemscore.DG>
-19.1404

> <Gold.Chemscore.ZeroCoef>
-5.4800

> <Gold.Chemscore.Hbond>
1.5602

> <Gold.Chemscore.Metal>
0.0000

> <Gold.Chemscore.Lipo>
108.3094

> <Gold.Chemscore.Internal_Hbond>
0.0000

> <Gold.Chemscore.DEClash>
0.0106

> <Gold.Chemscore.DEInternal>
1.3619

> <Gold.Chemscore.Rot>
1.6495

> <Gold.Chemscore.Internal.Correction>
   9.000000E+99

> <Gold.Chemscore.Hbonds>
donor molecule, donor type, donor heavy atom, donor atom, acceptor molecule, acceptor atom, score
      L1  H    11    28       P1  8028  0.29
      P1  H  7989  7998       L1    10  0.93

> <Gold.Chemscore.Hbond.Weighted>
-5.2110

> <Gold.Chemscore.Metal.Weighted>
-0.0000

> <Gold.Chemscore.Lipo.Weighted>
-12.6722

> <Gold.Chemscore.Internal_Hbond.Weighted>
0.0000

> <Gold.Chemscore.DEClash.Weighted>
0.0106

> <Gold.Chemscore.DEInternal.Weighted>
1.3619

> <Gold.Chemscore.Rot.Weighted>
4.2228

> <Gold.Chemscore.Internal.Correction.Weighted>
   9.000000E+99

> <Gold.Protein.RotatedTorsions>
[ 6907 6896 6895 6894 ] final   77.25 input  -60.11 | X-H torsion
[ 7974 7965 7964 7962 ] final  -36.58 input  175.53 | X-H torsion
[ 8008 7997 7996 7995 ] final  142.18 input   59.86 | X-H torsion
[ 10167 10162 10161 10158 ] final   25.83 input  -65.29 | X-H torsion
[ 10718 10713 10712 10709 ] final  174.35 input   66.30 | X-H torsion
[ 10763 10752 10751 10750 ] final  -31.71 input  -60.55 | X-H torsion
[ 11005 11000 10999 10996 ] final   38.19 input  -57.11 | X-H torsion

> <Gold.Protein.ActiveResidues>
 VAL166  LYS551  ARG553  GLY616  TRP617  ASP618  TYR619  PRO620  LYS621  CYS622 
 ASP623  PHE694  ASN695  SER759  ASP760  ASP761  ALA762  ILE779  LEU786  VAL792 
 PHE793  MET794  SER795  GLU796  ALA797  LYS798  CYS799  TRP800  GLU811  SER814 

> <Gold.Protein.RotatedAtoms>
  152.5109  134.3846  159.9362 H   0  0  0  0  0  0  0  0  0  0  0  0  # atno 6907 bound_to 6896
  151.3804  133.3817  159.2717 H   0  0  0  0  0  0  0  0  0  0  0  0  # atno 6908 bound_to 6896
  150.9509  134.8929  159.7730 H   0  0  0  0  0  0  0  0  0  0  0  0  # atno 6909 bound_to 6896
  146.0649  140.6295  142.8980 H   0  0  0  0  0  0  0  0  0  0  0  0  # atno 7974 bound_to 7965
  156.2954  140.2295  156.4686 H   0  0  0  0  0  0  0  0  0  0  0  0  # atno 8008 bound_to 7997
  154.7955  140.0451  157.1254 H   0  0  0  0  0  0  0  0  0  0  0  0  # atno 8009 bound_to 7997
  154.9595  140.3052  155.5041 H   0  0  0  0  0  0  0  0  0  0  0  0  # atno 8010 bound_to 7997
  140.5073  144.0217  150.6357 H   0  0  0  0  0  0  0  0  0  0  0  0  # atno 10167 bound_to 10162
  156.9509  131.0031  151.2949 H   0  0  0  0  0  0  0  0  0  0  0  0  # atno 10718 bound_to 10713
  153.8018  135.6889  153.4854 H   0  0  0  0  0  0  0  0  0  0  0  0  # atno 10763 bound_to 10752
  153.1683  135.4552  154.9866 H   0  0  0  0  0  0  0  0  0  0  0  0  # atno 10764 bound_to 10752
  154.8003  135.3335  154.7506 H   0  0  0  0  0  0  0  0  0  0  0  0  # atno 10765 bound_to 10752
  140.2151  134.3708  155.8030 H   0  0  0  0  0  0  0  0  0  0  0  0  # atno 11005 bound_to 11000
  144.7196  140.4329  143.7018 LP  0  0  0  0  0  0  0  0  0  0  0  0  # atno 17320 bound_to 7965
  145.6495  139.1562  143.2870 LP  0  0  0  0  0  0  0  0  0  0  0  0  # atno 17321 bound_to 7965
  140.3530  143.2952  152.0466 LP  0  0  0  0  0  0  0  0  0  0  0  0  # atno 17342 bound_to 10162
  139.4887  144.6360  151.6975 LP  0  0  0  0  0  0  0  0  0  0  0  0  # atno 17343 bound_to 10162
  157.5722  130.8318  149.8407 LP  0  0  0  0  0  0  0  0  0  0  0  0  # atno 17370 bound_to 10713
  156.0363  130.3750  150.1552 LP  0  0  0  0  0  0  0  0  0  0  0  0  # atno 17371 bound_to 10713
  141.2225  133.7163  156.8483 LP  0  0  0  0  0  0  0  0  0  0  0  0  # atno 17394 bound_to 11000
  140.1909  134.8966  157.3059 LP  0  0  0  0  0  0  0  0  0  0  0  0  # atno 17395 bound_to 11000

$$$$
