AV-unprocessed.smi:576|AV-procd|sdf|2978|dock3
  -GOLD-   2262023483D 1   1.00000     0.00000
 Structure written by MMmdl.
 35 36  0  0  0  0  0  0  0  0  1 V2000
  146.4326  143.0152  157.5052 C   0  0  0  0  0  0  0  0  0  0  0  0
  147.0426  141.8895  156.6541 C   0  0  2  0  0  0  0  0  0  0  0  0
  148.4798  142.1000  156.5113 N   0  0  0  0  0  0  0  0  0  0  0  0
  149.3385  141.2533  155.9224 C   0  0  0  0  0  0  0  0  0  0  0  0
  148.9936  140.1842  155.4171 O   0  0  0  0  0  0  0  0  0  0  0  0
  150.8069  141.7001  155.8884 C   0  0  0  0  0  0  0  0  0  0  0  0
  151.4053  141.8253  157.2280 N   0  0  0  0  0  0  0  0  0  0  0  0
  151.1525  143.0169  157.9360 C   0  0  0  0  0  0  0  0  0  0  0  0
  151.6342  143.2515  159.1717 C   0  0  0  0  0  0  0  0  0  0  0  0
  151.3951  144.5728  159.8859 C   0  0  0  0  0  0  0  0  0  0  0  0
  150.0875  144.7685  160.0496 F   0  0  0  0  0  0  0  0  0  0  0  0
  151.9702  144.5797  161.0887 F   0  0  0  0  0  0  0  0  0  0  0  0
  151.8825  145.5958  159.1827 F   0  0  0  0  0  0  0  0  0  0  0  0
  152.4697  142.2151  159.7459 C   0  0  0  0  0  0  0  0  0  0  0  0
  152.7318  141.0752  159.0771 C   0  0  0  0  0  0  0  0  0  0  0  0
  152.1869  140.8279  157.7403 C   0  0  0  0  0  0  0  0  0  0  0  0
  152.4191  139.7902  157.1194 O   0  0  0  0  0  0  0  0  0  0  0  0
  146.3371  141.7838  155.3152 C   0  0  0  0  0  0  0  0  0  0  0  0
  147.0507  142.1264  154.0292 C   0  0  0  0  0  0  0  0  0  0  0  0
  145.9413  143.0180  154.5410 C   0  0  0  0  0  0  0  0  0  0  0  0
  145.3637  142.8592  157.6519 H   0  0  0  0  0  0  0  0  0  0  0  0
  146.5643  143.9877  157.0296 H   0  0  0  0  0  0  0  0  0  0  0  0
  146.8932  143.0626  158.4926 H   0  0  0  0  0  0  0  0  0  0  0  0
  146.8823  140.9456  157.1788 H   0  0  0  0  0  0  0  0  0  0  0  0
  148.8515  142.9574  156.8942 H   0  0  0  0  0  0  0  0  0  0  0  0
  151.3650  140.9831  155.2847 H   0  0  0  0  0  0  0  0  0  0  0  0
  150.8884  142.6475  155.3519 H   0  0  0  0  0  0  0  0  0  0  0  0
  150.5477  143.7361  157.4028 H   0  0  0  0  0  0  0  0  0  0  0  0
  152.8909  142.3529  160.7308 H   0  0  0  0  0  0  0  0  0  0  0  0
  153.3572  140.3238  159.5367 H   0  0  0  0  0  0  0  0  0  0  0  0
  145.6443  140.9462  155.2553 H   0  0  0  0  0  0  0  0  0  0  0  0
  148.0689  142.5041  154.0976 H   0  0  0  0  0  0  0  0  0  0  0  0
  146.8397  141.5085  153.1589 H   0  0  0  0  0  0  0  0  0  0  0  0
  144.9912  142.9946  154.0114 H   0  0  0  0  0  0  0  0  0  0  0  0
  146.2229  143.9858  154.9512 H   0  0  0  0  0  0  0  0  0  0  0  0
  1  2  1  0  0  0  0
  1 21  1  0  0  0  0
  1 22  1  0  0  0  0
  1 23  1  0  0  0  0
  2  3  1  0  0  0  0
  2 18  1  0  0  0  0
  2 24  1  0  0  0  0
  3  4  1  0  0  0  0
  3 25  1  0  0  0  0
  4  5  2  0  0  0  0
  4  6  1  0  0  0  0
  6  7  1  0  0  0  0
  6 26  1  0  0  0  0
  6 27  1  0  0  0  0
  7 16  1  0  0  0  0
  7  8  1  0  0  0  0
  8  9  2  0  0  0  0
  8 28  1  0  0  0  0
  9 10  1  0  0  0  0
  9 14  1  0  0  0  0
 10 11  1  0  0  0  0
 10 12  1  0  0  0  0
 10 13  1  0  0  0  0
 14 15  2  0  0  0  0
 14 29  1  0  0  0  0
 15 16  1  0  0  0  0
 15 30  1  0  0  0  0
 16 17  2  0  0  0  0
 18 20  1  0  0  0  0
 18 19  1  0  0  0  0
 18 31  1  0  0  0  0
 19 20  1  0  0  0  0
 19 32  1  0  0  0  0
 19 33  1  0  0  0  0
 20 34  1  0  0  0  0
 20 35  1  0  0  0  0
M  END
> <s_m_source_file>
AV-unprocessed.smi

> <i_m_source_file_index>
576

> <i_lp_mmshare_version>
43012

> <i_f3d_flags>
0

> <s_epik_input>
W0NIMl0xW0NIMl1bQ0hdMVtDQEhdKFtDSDNdKVtOSF1DKD1PKVtDSDJdbjJbY0hdYyhDKEYpKEYpRilbY0hdW2NIXWMyPU8=

> <s_epik_cmdline>
J2VwaWtfcHl0aG9uJywgJy1waCcsICc3LjAnLCAnLXRuJywgJzgnLCAnLW1hJywgJzIwMCcsICctbWV0YWxfYmluZGluZycsICctaW1hZScsICc8aW5maWxlLm1hZT4nLCAnLW9tYWUnLCAnPG91dGZpbGUubWFlPic=

> <r_lp_tautomer_probability>
1

> <r_epik_Ionization_Penalty>
3.84201e-08

> <r_epik_Ionization_Penalty_Charging>
1.91184e-08

> <r_epik_Ionization_Penalty_Neutral>
1.93017e-08

> <r_epik_State_Penalty>
-0

> <r_epik_Charging_Adjusted_Penalty>
1.91184e-08

> <i_epik_Tot_Q>
0

> <i_epik_Tot_abs_Q>
0

> <r_epik_Metal_State_Penalty>
-0

> <b_epik_Metal_Only>
0

> <s_lp_Force_Field>
OPLS_2005

> <r_lp_Energy>
24.7521

> <b_lp_Chiralities_Consistent>
1

> <s_lp_Variant>
AV-unprocessed.smi:576-1

> <Gold.Version>
5.8.1

> <Gold.Id.Protein>
6NUR|6NUR_protein|mol2

> <Gold.PLP.Fitness>
48.4327

> <Gold.PLP.PLP>
-43.3965

> <Gold.PLP.part.hbond>
-2.0000

> <Gold.PLP.part.metal>
0.0000

> <Gold.PLP.part.buried>
-5.3500

> <Gold.PLP.part.nonpolar>
-35.2507

> <Gold.PLP.part.repulsive>
0.0605

> <Gold.PLP.ligand.clash>
0.0000

> <Gold.PLP.ligand.torsion>
1.2606

> <Gold.PLP.Chemscore.Hbond>
1.2600

> <Gold.PLP.Chemscore.CHOScore>
0.8808

> <Gold.PLP.Chemscore.Metal>
0.0000

> <Gold.Chemscore.Hbonds>
donor molecule, donor type, donor heavy atom, donor atom, acceptor molecule, acceptor atom, score
      L1  H     3    25       P1  8028  0.27
      P1  H  7997  8009       L1    17  0.90
      L1  C     8    28       P1  8028  0.87

> <Gold.PLP.Chemscore.Internal.Correction>
1.1350

> <Gold.Rescore>
     Score         DG    S(hbond)    S(metal)    S(lipo)     H(rot)  DE(clash)    DE(int)     intcor
     11.92     -14.00       1.20        0.00      77.10       1.77       0.84       1.24       ----

> <Gold.Chemscore.Fitness>
11.9213

> <Gold.Chemscore.DG>
-14.0017

> <Gold.Chemscore.ZeroCoef>
-5.4800

> <Gold.Chemscore.Hbond>
1.2036

> <Gold.Chemscore.Metal>
0.0000

> <Gold.Chemscore.Lipo>
77.1007

> <Gold.Chemscore.Internal_Hbond>
0.0000

> <Gold.Chemscore.DEClash>
0.8449

> <Gold.Chemscore.DEInternal>
1.2355

> <Gold.Chemscore.Rot>
1.7653

> <Gold.Chemscore.Internal.Correction>
   9.000000E+99

> <Gold.Chemscore.Hbonds>
donor molecule, donor type, donor heavy atom, donor atom, acceptor molecule, acceptor atom, score
      L1  H     3    25       P1  8028  0.24
      P1  H  7997  8009       L1    17  0.19

> <Gold.Chemscore.Hbond.Weighted>
-4.0201

> <Gold.Chemscore.Metal.Weighted>
-0.0000

> <Gold.Chemscore.Lipo.Weighted>
-9.0208

> <Gold.Chemscore.Internal_Hbond.Weighted>
0.0000

> <Gold.Chemscore.DEClash.Weighted>
0.8449

> <Gold.Chemscore.DEInternal.Weighted>
1.2355

> <Gold.Chemscore.Rot.Weighted>
4.5191

> <Gold.Chemscore.Internal.Correction.Weighted>
   9.000000E+99

> <Gold.Protein.RotatedTorsions>
[ 6907 6896 6895 6894 ] final  -80.11 input  -60.11 | X-H torsion
[ 7974 7965 7964 7962 ] final -101.55 input  175.53 | X-H torsion
[ 8008 7997 7996 7995 ] final  171.01 input   59.86 | X-H torsion
[ 10167 10162 10161 10158 ] final   52.67 input  -65.29 | X-H torsion
[ 10718 10713 10712 10709 ] final   91.25 input   66.30 | X-H torsion
[ 10763 10752 10751 10750 ] final   35.78 input  -60.55 | X-H torsion
[ 11005 11000 10999 10996 ] final    8.76 input  -57.11 | X-H torsion

> <Gold.Protein.ActiveResidues>
 VAL166  LYS551  ARG553  GLY616  TRP617  ASP618  TYR619  PRO620  LYS621  CYS622 
 ASP623  PHE694  ASN695  SER759  ASP760  ASP761  ALA762  ILE779  LEU786  VAL792 
 PHE793  MET794  SER795  GLU796  ALA797  LYS798  CYS799  TRP800  GLU811  SER814 

> <Gold.Protein.RotatedAtoms>
  150.6936  134.4020  159.5122 H   0  0  0  0  0  0  0  0  0  0  0  0  # atno 6907 bound_to 6896
  152.1792  134.8766  160.0537 H   0  0  0  0  0  0  0  0  0  0  0  0  # atno 6908 bound_to 6896
  151.9763  133.3708  159.4127 H   0  0  0  0  0  0  0  0  0  0  0  0  # atno 6909 bound_to 6896
  145.2802  140.9324  143.2936 H   0  0  0  0  0  0  0  0  0  0  0  0  # atno 7974 bound_to 7965
  156.1312  140.1523  156.9063 H   0  0  0  0  0  0  0  0  0  0  0  0  # atno 8008 bound_to 7997
  154.4910  140.0851  156.7635 H   0  0  0  0  0  0  0  0  0  0  0  0  # atno 8009 bound_to 7997
  155.4253  140.3425  155.4277 H   0  0  0  0  0  0  0  0  0  0  0  0  # atno 8010 bound_to 7997
  140.2489  144.3501  150.6355 H   0  0  0  0  0  0  0  0  0  0  0  0  # atno 10167 bound_to 10162
  157.6960  131.0400  150.3701 H   0  0  0  0  0  0  0  0  0  0  0  0  # atno 10718 bound_to 10713
  153.0104  135.6324  154.1881 H   0  0  0  0  0  0  0  0  0  0  0  0  # atno 10763 bound_to 10752
  154.1624  135.2823  155.3106 H   0  0  0  0  0  0  0  0  0  0  0  0  # atno 10764 bound_to 10752
  154.5972  135.5599  153.7397 H   0  0  0  0  0  0  0  0  0  0  0  0  # atno 10765 bound_to 10752
  140.5333  134.0445  155.7880 H   0  0  0  0  0  0  0  0  0  0  0  0  # atno 11005 bound_to 11000
  144.9260  139.4355  143.6518 LP  0  0  0  0  0  0  0  0  0  0  0  0  # atno 17320 bound_to 7965
  146.3219  139.8145  142.8939 LP  0  0  0  0  0  0  0  0  0  0  0  0  # atno 17321 bound_to 7965
  140.6056  143.2167  151.6987 LP  0  0  0  0  0  0  0  0  0  0  0  0  # atno 17342 bound_to 10162
  139.5053  144.3724  152.0457 LP  0  0  0  0  0  0  0  0  0  0  0  0  # atno 17343 bound_to 10162
  156.4127  130.3937  149.6880 LP  0  0  0  0  0  0  0  0  0  0  0  0  # atno 17370 bound_to 10713
  156.4159  130.7745  151.2760 LP  0  0  0  0  0  0  0  0  0  0  0  0  # atno 17371 bound_to 10713
  141.1269  133.9368  157.2617 LP  0  0  0  0  0  0  0  0  0  0  0  0  # atno 17394 bound_to 11000
  139.9542  135.0169  156.9082 LP  0  0  0  0  0  0  0  0  0  0  0  0  # atno 17395 bound_to 11000

$$$$
