AV-unprocessed.smi:2715|AV-procd|sdf|10482|dock3
  -GOLD-   2272014523D 1   1.00000     0.00000
 Structure written by MMmdl.
 38 39  0  0  0  0  0  0  0  0  1 V2000
  145.3434  143.4265  157.3586 C   0  0  0  0  0  0  0  0  0  0  0  0
  145.8232  143.1239  155.9807 C   0  0  0  0  0  0  0  0  0  0  0  0
  146.8998  142.3775  155.7211 N   0  0  0  0  0  0  0  0  0  0  0  0
  147.1456  142.2436  154.3500 C   0  0  0  0  0  0  0  0  0  0  0  0
  148.3209  141.4399  153.8729 C   0  0  0  0  0  0  0  0  0  0  0  0
  149.2321  141.0754  155.0461 C   0  0  0  0  0  0  0  0  0  0  0  0
  149.5912  139.9089  155.2043 O   0  0  0  0  0  0  0  0  0  0  0  0
  149.5856  142.0799  155.8641 N   0  0  0  0  0  0  0  0  0  0  0  0
  150.4243  141.9607  157.0533 C   0  0  0  0  0  0  0  0  0  0  0  0
  151.2372  143.2432  157.3086 C   0  0  0  0  0  0  0  0  0  0  0  0
  151.6931  143.3977  158.7512 C   0  0  0  0  0  0  0  0  0  0  0  0
  151.3929  144.4899  159.4811 C   0  0  0  0  0  0  0  0  0  0  0  0
  151.7863  144.6769  160.9357 C   0  0  0  0  0  0  0  0  0  0  0  0
  152.2465  143.3625  161.5879 C   0  0  0  0  0  0  0  0  0  0  0  0
  153.1860  142.5848  160.6582 C   0  0  0  0  0  0  0  0  0  0  0  0
  152.4949  142.2359  159.3279 C   0  0  0  0  0  0  0  0  0  0  0  0
  146.2241  142.8985  153.5702 C   0  0  0  0  0  0  0  0  0  0  0  0
  145.0210  143.7140  154.5304 S   0  0  0  0  0  0  0  0  0  0  0  0
  146.1060  143.1722  158.0955 H   0  0  0  0  0  0  0  0  0  0  0  0
  144.4427  142.8513  157.5733 H   0  0  0  0  0  0  0  0  0  0  0  0
  145.1118  144.4879  157.4490 H   0  0  0  0  0  0  0  0  0  0  0  0
  147.9949  140.5250  153.3763 H   0  0  0  0  0  0  0  0  0  0  0  0
  148.8928  142.0029  153.1342 H   0  0  0  0  0  0  0  0  0  0  0  0
  149.2401  143.0034  155.6458 H   0  0  0  0  0  0  0  0  0  0  0  0
  149.8354  141.6933  157.9321 H   0  0  0  0  0  0  0  0  0  0  0  0
  151.1094  141.1291  156.8886 H   0  0  0  0  0  0  0  0  0  0  0  0
  152.1179  143.2545  156.6658 H   0  0  0  0  0  0  0  0  0  0  0  0
  150.6423  144.1105  157.0187 H   0  0  0  0  0  0  0  0  0  0  0  0
  150.8353  145.2994  159.0329 H   0  0  0  0  0  0  0  0  0  0  0  0
  152.5823  145.4208  160.9787 H   0  0  0  0  0  0  0  0  0  0  0  0
  150.9387  145.0855  161.4863 H   0  0  0  0  0  0  0  0  0  0  0  0
  152.7367  143.5692  162.5396 H   0  0  0  0  0  0  0  0  0  0  0  0
  151.3766  142.7443  161.8147 H   0  0  0  0  0  0  0  0  0  0  0  0
  154.0732  143.1879  160.4602 H   0  0  0  0  0  0  0  0  0  0  0  0
  153.5352  141.6740  161.1452 H   0  0  0  0  0  0  0  0  0  0  0  0
  151.8203  141.3928  159.4761 H   0  0  0  0  0  0  0  0  0  0  0  0
  153.2438  141.9140  158.6038 H   0  0  0  0  0  0  0  0  0  0  0  0
  146.1834  142.9528  152.4923 H   0  0  0  0  0  0  0  0  0  0  0  0
  1  2  1  0  0  0  0
  1 19  1  0  0  0  0
  1 20  1  0  0  0  0
  1 21  1  0  0  0  0
  2 18  1  0  0  0  0
  2  3  2  0  0  0  0
  3  4  1  0  0  0  0
  4  5  1  0  0  0  0
  4 17  2  0  0  0  0
  5  6  1  0  0  0  0
  5 22  1  0  0  0  0
  5 23  1  0  0  0  0
  6  7  2  0  0  0  0
  6  8  1  0  0  0  0
  8  9  1  0  0  0  0
  8 24  1  0  0  0  0
  9 10  1  0  0  0  0
  9 25  1  0  0  0  0
  9 26  1  0  0  0  0
 10 11  1  0  0  0  0
 10 27  1  0  0  0  0
 10 28  1  0  0  0  0
 11 16  1  0  0  0  0
 11 12  2  0  0  0  0
 12 13  1  0  0  0  0
 12 29  1  0  0  0  0
 13 14  1  0  0  0  0
 13 30  1  0  0  0  0
 13 31  1  0  0  0  0
 14 15  1  0  0  0  0
 14 32  1  0  0  0  0
 14 33  1  0  0  0  0
 15 16  1  0  0  0  0
 15 34  1  0  0  0  0
 15 35  1  0  0  0  0
 16 36  1  0  0  0  0
 16 37  1  0  0  0  0
 17 18  1  0  0  0  0
 17 38  1  0  0  0  0
M  END
> <s_m_source_file>
AV-unprocessed.smi

> <i_m_source_file_index>
2715

> <i_lp_mmshare_version>
43012

> <i_f3d_flags>
0

> <s_epik_input>
W0NIM11jMW5jKFtjSF1zMSlbQ0gyXUMoPU8pW05IXVtDSDJdW0NIMl1DMj1bQ0hdW0NIMl1bQ0gyXVtDSDJdW0NIMl0y

> <s_epik_cmdline>
J2VwaWtfcHl0aG9uJywgJy1waCcsICc3LjAnLCAnLXRuJywgJzgnLCAnLW1hJywgJzIwMCcsICctbWV0YWxfYmluZGluZycsICctaW1hZScsICc8aW5maWxlLm1hZT4nLCAnLW9tYWUnLCAnPG91dGZpbGUubWFlPic=

> <r_lp_tautomer_probability>
1

> <r_epik_Ionization_Penalty>
5.73492e-05

> <r_epik_Ionization_Penalty_Charging>
0

> <r_epik_Ionization_Penalty_Neutral>
5.73492e-05

> <r_epik_State_Penalty>
-0

> <r_epik_Charging_Adjusted_Penalty>
0

> <i_epik_Tot_Q>
0

> <i_epik_Tot_abs_Q>
0

> <r_epik_Metal_State_Penalty>
-0

> <b_epik_Metal_Only>
0

> <s_lp_Force_Field>
OPLS_2005

> <r_lp_Energy>
6.36926

> <b_lp_Chiralities_Consistent>
1

> <s_lp_Variant>
AV-unprocessed.smi:2715-1

> <Gold.Version>
5.8.1

> <Gold.Id.Protein>
6NUR|6NUR_protein|mol2

> <Gold.PLP.Fitness>
47.5878

> <Gold.PLP.PLP>
-45.5414

> <Gold.PLP.part.hbond>
-1.0000

> <Gold.PLP.part.metal>
0.0000

> <Gold.PLP.part.buried>
-5.4279

> <Gold.PLP.part.nonpolar>
-39.6782

> <Gold.PLP.part.repulsive>
0.5936

> <Gold.PLP.ligand.clash>
0.0000

> <Gold.PLP.ligand.torsion>
0.5063

> <Gold.PLP.Chemscore.Hbond>
1.0000

> <Gold.PLP.Chemscore.CHOScore>
0.0000

> <Gold.PLP.Chemscore.Metal>
0.0000

> <Gold.Chemscore.Hbonds>
donor molecule, donor type, donor heavy atom, donor atom, acceptor molecule, acceptor atom, score
      L1  H     8    24       P1  8028  1.00

> <Gold.PLP.Chemscore.Internal.Correction>
0.0589

> <Gold.Rescore>
     Score         DG    S(hbond)    S(metal)    S(lipo)     H(rot)  DE(clash)    DE(int)     intcor
     18.32     -18.98       0.99        0.00     119.91       1.50       0.09       0.57       ----

> <Gold.Chemscore.Fitness>
18.3199

> <Gold.Chemscore.DG>
-18.9782

> <Gold.Chemscore.ZeroCoef>
-5.4800

> <Gold.Chemscore.Hbond>
0.9881

> <Gold.Chemscore.Metal>
0.0000

> <Gold.Chemscore.Lipo>
119.9054

> <Gold.Chemscore.Internal_Hbond>
0.0000

> <Gold.Chemscore.DEClash>
0.0869

> <Gold.Chemscore.DEInternal>
0.5714

> <Gold.Chemscore.Rot>
1.4965

> <Gold.Chemscore.Internal.Correction>
   9.000000E+99

> <Gold.Chemscore.Hbonds>
donor molecule, donor type, donor heavy atom, donor atom, acceptor molecule, acceptor atom, score
      L1  H     8    24       P1  8028  1.00

> <Gold.Chemscore.Hbond.Weighted>
-3.3003

> <Gold.Chemscore.Metal.Weighted>
-0.0000

> <Gold.Chemscore.Lipo.Weighted>
-14.0289

> <Gold.Chemscore.Internal_Hbond.Weighted>
0.0000

> <Gold.Chemscore.DEClash.Weighted>
0.0869

> <Gold.Chemscore.DEInternal.Weighted>
0.5714

> <Gold.Chemscore.Rot.Weighted>
3.8311

> <Gold.Chemscore.Internal.Correction.Weighted>
   9.000000E+99

> <Gold.Protein.RotatedTorsions>
[ 6907 6896 6895 6894 ] final   42.93 input  -60.11 | X-H torsion
[ 7974 7965 7964 7962 ] final  169.31 input  175.53 | X-H torsion
[ 8008 7997 7996 7995 ] final  107.25 input   59.86 | X-H torsion
[ 10167 10162 10161 10158 ] final   76.12 input  -65.29 | X-H torsion
[ 10718 10713 10712 10709 ] final  -51.30 input   66.30 | X-H torsion
[ 10763 10752 10751 10750 ] final  -35.93 input  -60.55 | X-H torsion
[ 11005 11000 10999 10996 ] final   45.73 input  -57.11 | X-H torsion

> <Gold.Protein.ActiveResidues>
 VAL166  LYS551  ARG553  GLY616  TRP617  ASP618  TYR619  PRO620  LYS621  CYS622 
 ASP623  PHE694  ASN695  SER759  ASP760  ASP761  ALA762  ILE779  LEU786  VAL792 
 PHE793  MET794  SER795  GLU796  ALA797  LYS798  CYS799  TRP800  GLU811  SER814 

> <Gold.Protein.RotatedAtoms>
  152.2140  134.8475  160.0493 H   0  0  0  0  0  0  0  0  0  0  0  0  # atno 6907 bound_to 6896
  151.9282  133.3599  159.3929 H   0  0  0  0  0  0  0  0  0  0  0  0  # atno 6908 bound_to 6896
  150.6983  134.4489  159.5371 H   0  0  0  0  0  0  0  0  0  0  0  0  # atno 6909 bound_to 6896
  144.7359  139.9035  143.6411 H   0  0  0  0  0  0  0  0  0  0  0  0  # atno 7974 bound_to 7965
  156.1809  140.3098  155.9147 H   0  0  0  0  0  0  0  0  0  0  0  0  # atno 8008 bound_to 7997
  155.3386  140.0464  157.3061 H   0  0  0  0  0  0  0  0  0  0  0  0  # atno 8009 bound_to 7997
  154.5341  140.2240  155.8762 H   0  0  0  0  0  0  0  0  0  0  0  0  # atno 8010 bound_to 7997
  139.9956  144.5724  150.7781 H   0  0  0  0  0  0  0  0  0  0  0  0  # atno 10167 bound_to 10162
  156.1722  130.4149  149.9630 H   0  0  0  0  0  0  0  0  0  0  0  0  # atno 10718 bound_to 10713
  153.8714  135.6830  153.4774 H   0  0  0  0  0  0  0  0  0  0  0  0  # atno 10763 bound_to 10752
  153.1285  135.4708  154.9309 H   0  0  0  0  0  0  0  0  0  0  0  0  # atno 10764 bound_to 10752
  154.7712  135.3239  154.8135 H   0  0  0  0  0  0  0  0  0  0  0  0  # atno 10765 bound_to 10752
  140.1433  134.4555  155.8434 H   0  0  0  0  0  0  0  0  0  0  0  0  # atno 11005 bound_to 11000
  146.1054  139.4053  143.0321 LP  0  0  0  0  0  0  0  0  0  0  0  0  # atno 17320 bound_to 7965
  145.7519  140.9969  143.1246 LP  0  0  0  0  0  0  0  0  0  0  0  0  # atno 17321 bound_to 7965
  140.7438  143.2852  151.3485 LP  0  0  0  0  0  0  0  0  0  0  0  0  # atno 17342 bound_to 10162
  139.6308  144.0724  152.2475 LP  0  0  0  0  0  0  0  0  0  0  0  0  # atno 17343 bound_to 10162
  156.7426  130.9085  151.3633 LP  0  0  0  0  0  0  0  0  0  0  0  0  # atno 17370 bound_to 10713
  157.6811  130.9140  150.0269 LP  0  0  0  0  0  0  0  0  0  0  0  0  # atno 17371 bound_to 10713
  141.2189  133.6842  156.7287 LP  0  0  0  0  0  0  0  0  0  0  0  0  # atno 17394 bound_to 11000
  140.2695  134.8403  157.3834 LP  0  0  0  0  0  0  0  0  0  0  0  0  # atno 17395 bound_to 11000

$$$$
