AV-unprocessed.smi:1419|AV-procd|sdf|5779|dock9
  -GOLD-   22720 5423D 1   1.00000     0.00000
 Structure written by MMmdl.
 42 43  0  0  0  0  0  0  0  0  2 V2000
  152.8030  142.9801  162.0981 C   0  0  0  0  0  0  0  0  0  0  0  0
  153.0540  142.0192  160.9247 C   0  0  1  0  0  0  0  0  0  0  0  0
  153.4490  142.7471  159.6204 C   0  0  0  0  0  0  0  0  0  0  0  0
  152.4014  143.6443  159.1256 N   0  0  0  0  0  0  0  0  0  0  0  0
  151.9533  144.8039  159.7045 C   0  0  0  0  0  0  0  0  0  0  0  0
  150.9727  145.2969  158.8825 C   0  0  0  0  0  0  0  0  0  0  0  0
  150.8664  144.4197  157.8363 N   0  3  0  0  0  0  0  0  0  0  0  0
  151.7382  143.4169  157.9847 C   0  0  0  0  0  0  0  0  0  0  0  0
  154.0899  141.0636  161.3044 N   0  0  0  0  0  0  0  0  0  0  0  0
  154.7046  140.2046  160.4730 C   0  0  0  0  0  0  0  0  0  0  0  0
  154.4341  140.1502  159.2723 O   0  0  0  0  0  0  0  0  0  0  0  0
  155.6414  139.4194  161.0600 N   0  0  0  0  0  0  0  0  0  0  0  0
  156.6381  138.5756  160.3877 C   0  0  0  0  0  0  0  0  0  0  0  0
  156.2597  137.1009  160.6249 C   0  0  1  0  0  0  0  0  0  0  0  0
  157.2863  136.1381  160.0183 C   0  0  0  0  0  0  0  0  0  0  0  0
  156.1930  136.8456  162.0304 O   0  0  0  0  0  0  0  0  0  0  0  0
  155.3215  137.7008  162.7779 C   0  0  2  0  0  0  0  0  0  0  0  0
  153.8427  137.3569  162.5219 C   0  0  0  0  0  0  0  0  0  0  0  0
  155.6779  139.1775  162.5041 C   0  0  0  0  0  0  0  0  0  0  0  0
  151.9699  143.6530  161.8942 H   0  0  0  0  0  0  0  0  0  0  0  0
  153.6824  143.5910  162.3049 H   0  0  0  0  0  0  0  0  0  0  0  0
  152.5579  142.4313  163.0082 H   0  0  0  0  0  0  0  0  0  0  0  0
  152.1281  141.4672  160.7517 H   0  0  0  0  0  0  0  0  0  0  0  0
  154.3521  143.3401  159.7715 H   0  0  0  0  0  0  0  0  0  0  0  0
  153.6708  142.0331  158.8257 H   0  0  0  0  0  0  0  0  0  0  0  0
  152.3529  145.1806  160.6349 H   0  0  0  0  0  0  0  0  0  0  0  0
  150.3591  146.1826  158.9617 H   0  0  0  0  0  0  0  0  0  0  0  0
  151.8777  142.5856  157.3163 H   0  0  0  0  0  0  0  0  0  0  0  0
  154.3634  141.0508  162.2763 H   0  0  0  0  0  0  0  0  0  0  0  0
  156.7324  138.7688  159.3192 H   0  0  0  0  0  0  0  0  0  0  0  0
  157.6234  138.7828  160.8082 H   0  0  0  0  0  0  0  0  0  0  0  0
  155.2903  136.8949  160.1698 H   0  0  0  0  0  0  0  0  0  0  0  0
  157.3718  136.2820  158.9411 H   0  0  0  0  0  0  0  0  0  0  0  0
  156.9984  135.1012  160.1931 H   0  0  0  0  0  0  0  0  0  0  0  0
  158.2739  136.2877  160.4557 H   0  0  0  0  0  0  0  0  0  0  0  0
  155.5203  137.4978  163.8306 H   0  0  0  0  0  0  0  0  0  0  0  0
  153.1921  137.9528  163.1623 H   0  0  0  0  0  0  0  0  0  0  0  0
  153.6462  136.3066  162.7386 H   0  0  0  0  0  0  0  0  0  0  0  0
  153.5428  137.5446  161.4914 H   0  0  0  0  0  0  0  0  0  0  0  0
  156.6813  139.3919  162.8750 H   0  0  0  0  0  0  0  0  0  0  0  0
  155.0110  139.8343  163.0642 H   0  0  0  0  0  0  0  0  0  0  0  0
  150.2225  144.5144  157.0606 H   0  0  0  0  0  0  0  0  0  0  0  0
  1  2  1  0  0  0  0
  1 20  1  0  0  0  0
  1 21  1  0  0  0  0
  1 22  1  0  0  0  0
  2  3  1  0  0  0  0
  2  9  1  0  0  0  0
  2 23  1  0  0  0  0
  3  4  1  0  0  0  0
  3 24  1  0  0  0  0
  3 25  1  0  0  0  0
  4  8  1  0  0  0  0
  4  5  1  0  0  0  0
  5  6  2  0  0  0  0
  5 26  1  0  0  0  0
  6  7  1  0  0  0  0
  6 27  1  0  0  0  0
  7  8  2  0  0  0  0
  7 42  1  0  0  0  0
  8 28  1  0  0  0  0
  9 10  1  0  0  0  0
  9 29  1  0  0  0  0
 10 11  2  0  0  0  0
 10 12  1  0  0  0  0
 12 19  1  0  0  0  0
 12 13  1  0  0  0  0
 13 14  1  0  0  0  0
 13 30  1  0  0  0  0
 13 31  1  0  0  0  0
 14 15  1  0  0  0  0
 14 16  1  0  0  0  0
 14 32  1  0  0  0  0
 15 33  1  0  0  0  0
 15 34  1  0  0  0  0
 15 35  1  0  0  0  0
 16 17  1  0  0  0  0
 17 18  1  0  0  0  0
 17 19  1  0  0  0  0
 17 36  1  0  0  0  0
 18 37  1  0  0  0  0
 18 38  1  0  0  0  0
 18 39  1  0  0  0  0
 19 40  1  0  0  0  0
 19 41  1  0  0  0  0
M  CHG  1   7   1
M  END
> <s_m_source_file>
AV-unprocessed.smi

> <i_m_source_file_index>
1419

> <i_lp_mmshare_version>
43012

> <i_f3d_flags>
0

> <s_epik_input>
W2NIXTFuW2NIXVtjSF1uMVtDSDJdW0NAQEhdKFtDSDNdKVtOSF1DKD1PKU4yW0NIMl1bQ0BASF0oW0NIM10pT1tDQEBIXShbQ0gzXSlbQ0gyXTI=

> <s_epik_cmdline>
J2VwaWtfcHl0aG9uJywgJy1waCcsICc3LjAnLCAnLXRuJywgJzgnLCAnLW1hJywgJzIwMCcsICctbWV0YWxfYmluZGluZycsICctaW1hZScsICc8aW5maWxlLm1hZT4nLCAnLW9tYWUnLCAnPG91dGZpbGUubWFlPic=

> <r_lp_tautomer_probability>
1

> <r_epik_Ionization_Penalty>
0.253607

> <r_epik_Ionization_Penalty_Charging>
0

> <r_epik_Ionization_Penalty_Neutral>
0.253607

> <r_epik_State_Penalty>
0.245018

> <r_epik_Charging_Adjusted_Penalty>
0.245018

> <i_epik_Tot_Q>
1

> <i_epik_Tot_abs_Q>
1

> <r_epik_Metal_State_Penalty>
0.535379

> <b_epik_Metal_Only>
0

> <s_lp_Force_Field>
OPLS_2005

> <r_lp_Energy>
32.7532

> <b_lp_Chiralities_Consistent>
1

> <s_lp_Variant>
AV-unprocessed.smi:1419-6

> <Gold.Version>
5.8.1

> <Gold.Id.Protein>
6NUR|6NUR_protein|mol2

> <Gold.PLP.Fitness>
47.8249

> <Gold.PLP.PLP>
-39.9869

> <Gold.PLP.part.hbond>
-2.0000

> <Gold.PLP.part.metal>
0.0000

> <Gold.PLP.part.buried>
-4.4350

> <Gold.PLP.part.nonpolar>
-33.0554

> <Gold.PLP.part.repulsive>
0.0683

> <Gold.PLP.ligand.clash>
0.2935

> <Gold.PLP.ligand.torsion>
0.3196

> <Gold.PLP.Chemscore.Hbond>
2.9120

> <Gold.PLP.Chemscore.CHOScore>
0.0000

> <Gold.PLP.Chemscore.Metal>
0.0000

> <Gold.Chemscore.Hbonds>
donor molecule, donor type, donor heavy atom, donor atom, acceptor molecule, acceptor atom, score
      L1  H     7    42       P1  8028  2.00
      P1  H  7997  8009       L1    11  0.87

> <Gold.PLP.Chemscore.Internal.Correction>
0.0347

> <Gold.Rescore>
     Score         DG    S(hbond)    S(metal)    S(lipo)     H(rot)  DE(clash)    DE(int)     intcor
     15.55     -17.17       1.88        0.00      81.90       1.63       0.02       1.60       ----

> <Gold.Chemscore.Fitness>
15.5542

> <Gold.Chemscore.DG>
-17.1728

> <Gold.Chemscore.ZeroCoef>
-5.4800

> <Gold.Chemscore.Hbond>
1.8793

> <Gold.Chemscore.Metal>
0.0000

> <Gold.Chemscore.Lipo>
81.8960

> <Gold.Chemscore.Internal_Hbond>
0.0000

> <Gold.Chemscore.DEClash>
0.0202

> <Gold.Chemscore.DEInternal>
1.5983

> <Gold.Chemscore.Rot>
1.6273

> <Gold.Chemscore.Internal.Correction>
   9.000000E+99

> <Gold.Chemscore.Hbonds>
donor molecule, donor type, donor heavy atom, donor atom, acceptor molecule, acceptor atom, score
      L1  H     7    42       P1  8028  0.65
      P1  H  7997  8009       L1    11  0.81

> <Gold.Chemscore.Hbond.Weighted>
-6.2768

> <Gold.Chemscore.Metal.Weighted>
-0.0000

> <Gold.Chemscore.Lipo.Weighted>
-9.5818

> <Gold.Chemscore.Internal_Hbond.Weighted>
0.0000

> <Gold.Chemscore.DEClash.Weighted>
0.0202

> <Gold.Chemscore.DEInternal.Weighted>
1.5983

> <Gold.Chemscore.Rot.Weighted>
4.1658

> <Gold.Chemscore.Internal.Correction.Weighted>
   9.000000E+99

> <Gold.Protein.RotatedTorsions>
[ 6907 6896 6895 6894 ] final  146.86 input  -60.11 | X-H torsion
[ 7974 7965 7964 7962 ] final  -33.46 input  175.53 | X-H torsion
[ 8008 7997 7996 7995 ] final  115.58 input   59.86 | X-H torsion
[ 10167 10162 10161 10158 ] final -128.09 input  -65.29 | X-H torsion
[ 10718 10713 10712 10709 ] final  -70.58 input   66.30 | X-H torsion
[ 10763 10752 10751 10750 ] final    0.32 input  -60.55 | X-H torsion
[ 11005 11000 10999 10996 ] final -128.52 input  -57.11 | X-H torsion

> <Gold.Protein.ActiveResidues>
 VAL166  LYS551  ARG553  GLY616  TRP617  ASP618  TYR619  PRO620  LYS621  CYS622 
 ASP623  PHE694  ASN695  SER759  ASP760  ASP761  ALA762  ILE779  LEU786  VAL792 
 PHE793  MET794  SER795  GLU796  ALA797  LYS798  CYS799  TRP800  GLU811  SER814 

> <Gold.Protein.RotatedAtoms>
  152.1623  133.4590  159.4867 H   0  0  0  0  0  0  0  0  0  0  0  0  # atno 6907 bound_to 6896
  150.6908  134.2056  159.4348 H   0  0  0  0  0  0  0  0  0  0  0  0  # atno 6908 bound_to 6896
  151.9958  134.9954  160.0614 H   0  0  0  0  0  0  0  0  0  0  0  0  # atno 6909 bound_to 6896
  146.0909  140.5919  142.8865 H   0  0  0  0  0  0  0  0  0  0  0  0  # atno 7974 bound_to 7965
  156.2390  140.2935  156.0391 H   0  0  0  0  0  0  0  0  0  0  0  0  # atno 8008 bound_to 7997
  155.2007  140.0409  157.2934 H   0  0  0  0  0  0  0  0  0  0  0  0  # atno 8009 bound_to 7997
  154.6132  140.2457  155.7649 H   0  0  0  0  0  0  0  0  0  0  0  0  # atno 8010 bound_to 7997
  139.9539  143.6025  152.2467 H   0  0  0  0  0  0  0  0  0  0  0  0  # atno 10167 bound_to 10162
  156.0401  130.4334  150.2316 H   0  0  0  0  0  0  0  0  0  0  0  0  # atno 10718 bound_to 10713
  153.3221  135.6970  153.7021 H   0  0  0  0  0  0  0  0  0  0  0  0  # atno 10763 bound_to 10752
  153.5857  135.3489  155.2892 H   0  0  0  0  0  0  0  0  0  0  0  0  # atno 10764 bound_to 10752
  154.8600  135.4305  154.2388 H   0  0  0  0  0  0  0  0  0  0  0  0  # atno 10765 bound_to 10752
  140.9509  134.1066  157.4063 H   0  0  0  0  0  0  0  0  0  0  0  0  # atno 11005 bound_to 11000
  144.7359  140.4807  143.6904 LP  0  0  0  0  0  0  0  0  0  0  0  0  # atno 17320 bound_to 7965
  145.6041  139.1506  143.3112 LP  0  0  0  0  0  0  0  0  0  0  0  0  # atno 17321 bound_to 7965
  139.6607  144.7662  151.1969 LP  0  0  0  0  0  0  0  0  0  0  0  0  # atno 17342 bound_to 10162
  140.7574  143.6015  150.8695 LP  0  0  0  0  0  0  0  0  0  0  0  0  # atno 17343 bound_to 10162
  157.0412  131.0035  151.3283 LP  0  0  0  0  0  0  0  0  0  0  0  0  # atno 17370 bound_to 10713
  157.5208  130.7997  149.7807 LP  0  0  0  0  0  0  0  0  0  0  0  0  # atno 17371 bound_to 10713
  139.8847  135.0065  156.6388 LP  0  0  0  0  0  0  0  0  0  0  0  0  # atno 17394 bound_to 11000
  140.7603  133.8823  155.8413 LP  0  0  0  0  0  0  0  0  0  0  0  0  # atno 17395 bound_to 11000

$$$$
