AV-unprocessed.smi:221|AV-procd|sdf|1698|dock5
  -GOLD-   2262020153D 1   1.00000     0.00000
 Structure written by MMmdl.
 50 53  0  0  0  0  0  0  0  0  1 V2000
  141.9262  134.1393  154.3301 N   0  0  0  0  0  0  0  0  0  0  0  0
  142.0851  135.0302  153.3486 C   0  0  0  0  0  0  0  0  0  0  0  0
  141.5225  136.1238  153.3612 O   0  0  0  0  0  0  0  0  0  0  0  0
  143.0262  134.6344  152.2015 C   0  0  2  0  0  0  0  0  0  0  0  0
  142.6723  133.2604  151.6170 C   0  0  0  0  0  0  0  0  0  0  0  0
  143.9851  132.8050  150.9903 C   0  0  1  0  0  0  0  0  0  0  0  0
  144.1297  133.3739  149.7925 F   0  0  0  0  0  0  0  0  0  0  0  0
  145.0397  133.3596  151.9497 C   0  0  0  0  0  0  0  0  0  0  0  0
  144.4130  134.4798  152.6481 N   0  0  0  0  0  0  0  0  0  0  0  0
  145.1385  135.6190  152.7093 C   0  0  0  0  0  0  0  0  0  0  0  0
  145.2685  136.4031  151.6068 N   0  0  0  0  0  0  0  0  0  0  0  0
  145.9801  137.5327  151.6735 C   0  0  0  0  0  0  0  0  0  0  0  0
  146.6285  138.0507  152.7192 N   0  0  0  0  0  0  0  0  0  0  0  0
  146.4978  137.2622  153.8249 C   0  0  0  0  0  0  0  0  0  0  0  0
  145.7748  136.0400  153.9055 C   0  0  0  0  0  0  0  0  0  0  0  0
  145.8609  135.5163  155.1890 N   0  0  0  0  0  0  0  0  0  0  0  0
  146.5960  136.3812  155.8333 C   0  0  0  0  0  0  0  0  0  0  0  0
  147.0285  137.4553  155.0883 N   0  0  0  0  0  0  0  0  0  0  0  0
  147.8611  138.5517  155.5519 C   0  0  0  0  0  0  0  0  0  0  0  0
  149.2902  138.5266  154.9546 C   0  0  1  0  0  0  0  0  0  0  0  0
  149.3555  139.1298  153.5299 C   0  0  0  0  0  0  0  0  0  0  0  0
  149.6064  140.5198  153.5682 O   0  0  0  0  0  0  0  0  0  0  0  0
  150.3219  139.1758  155.9114 C   0  0  1  0  0  0  0  0  0  0  0  0
  150.4439  138.5087  157.2701 C   0  0  0  0  0  0  0  0  0  0  0  0
  151.7857  139.0375  157.7632 C   0  0  0  0  0  0  0  0  0  0  0  0
  152.5918  139.1700  156.5984 O   0  0  0  0  0  0  0  0  0  0  0  0
  151.7763  139.1029  155.4319 C   0  0  0  0  0  0  0  0  0  0  0  0
  142.9698  135.3835  151.4086 H   0  0  0  0  0  0  0  0  0  0  0  0
  144.0504  131.7254  150.8524 H   0  0  0  0  0  0  0  0  0  0  0  0
  141.3163  134.3531  155.1057 H   0  0  0  0  0  0  0  0  0  0  0  0
  142.4138  133.2559  154.2938 H   0  0  0  0  0  0  0  0  0  0  0  0
  142.3853  132.5627  152.4061 H   0  0  0  0  0  0  0  0  0  0  0  0
  141.8551  133.3049  150.8965 H   0  0  0  0  0  0  0  0  0  0  0  0
  145.2915  132.6085  152.6991 H   0  0  0  0  0  0  0  0  0  0  0  0
  145.9648  133.6173  151.4305 H   0  0  0  0  0  0  0  0  0  0  0  0
  146.0373  138.1034  150.7585 H   0  0  0  0  0  0  0  0  0  0  0  0
  146.8506  136.2559  156.8759 H   0  0  0  0  0  0  0  0  0  0  0  0
  147.3665  139.4932  155.3100 H   0  0  0  0  0  0  0  0  0  0  0  0
  147.8994  138.4958  156.6399 H   0  0  0  0  0  0  0  0  0  0  0  0
  149.5666  137.4761  154.8523 H   0  0  0  0  0  0  0  0  0  0  0  0
  150.1383  138.6518  152.9413 H   0  0  0  0  0  0  0  0  0  0  0  0
  148.4267  138.9567  152.9865 H   0  0  0  0  0  0  0  0  0  0  0  0
  149.2488  140.8687  154.3703 H   0  0  0  0  0  0  0  0  0  0  0  0
  150.0618  140.2237  156.0716 H   0  0  0  0  0  0  0  0  0  0  0  0
  149.6263  138.7560  157.9476 H   0  0  0  0  0  0  0  0  0  0  0  0
  150.4852  137.4237  157.1626 H   0  0  0  0  0  0  0  0  0  0  0  0
  151.6629  140.0230  158.2141 H   0  0  0  0  0  0  0  0  0  0  0  0
  152.2499  138.3822  158.5005 H   0  0  0  0  0  0  0  0  0  0  0  0
  151.9742  138.1521  154.9352 H   0  0  0  0  0  0  0  0  0  0  0  0
  152.0241  139.9039  154.7354 H   0  0  0  0  0  0  0  0  0  0  0  0
  1  2  1  0  0  0  0
  1 30  1  0  0  0  0
  1 31  1  0  0  0  0
  2  3  2  0  0  0  0
  2  4  1  0  0  0  0
  4 28  1  0  0  0  0
  4  9  1  0  0  0  0
  4  5  1  0  0  0  0
  5  6  1  0  0  0  0
  5 32  1  0  0  0  0
  5 33  1  0  0  0  0
  6 29  1  0  0  0  0
  6  7  1  0  0  0  0
  6  8  1  0  0  0  0
  8  9  1  0  0  0  0
  8 34  1  0  0  0  0
  8 35  1  0  0  0  0
  9 10  1  0  0  0  0
 10 15  1  0  0  0  0
 10 11  2  0  0  0  0
 11 12  1  0  0  0  0
 12 13  2  0  0  0  0
 12 36  1  0  0  0  0
 13 14  1  0  0  0  0
 14 18  1  0  0  0  0
 14 15  2  0  0  0  0
 15 16  1  0  0  0  0
 16 17  2  0  0  0  0
 17 18  1  0  0  0  0
 17 37  1  0  0  0  0
 18 19  1  0  0  0  0
 19 20  1  0  0  0  0
 19 38  1  0  0  0  0
 19 39  1  0  0  0  0
 20 21  1  0  0  0  0
 20 23  1  0  0  0  0
 20 40  1  0  0  0  0
 21 22  1  0  0  0  0
 21 41  1  0  0  0  0
 21 42  1  0  0  0  0
 22 43  1  0  0  0  0
 23 27  1  0  0  0  0
 23 24  1  0  0  0  0
 23 44  1  0  0  0  0
 24 25  1  0  0  0  0
 24 45  1  0  0  0  0
 24 46  1  0  0  0  0
 25 26  1  0  0  0  0
 25 47  1  0  0  0  0
 25 48  1  0  0  0  0
 26 27  1  0  0  0  0
 27 49  1  0  0  0  0
 27 50  1  0  0  0  0
M  END
> <s_m_source_file>
AV-unprocessed.smi

> <i_m_source_file_index>
221

> <i_lp_mmshare_version>
43012

> <i_f3d_flags>
0

> <s_epik_input>
W05IMl1DKD1PKVtDQEBIXTFbQ0gyXVtDQEBIXShGKVtDSDJdTjFjKG5bY0hdbjIpYyhjMjMpbltjSF1uM1tDSDJdW0NASF0oW0NIMl1bT0hdKVtDQEBIXTRbQ0gyXVtDSDJdT1tDSDJdNA==

> <s_epik_cmdline>
J2VwaWtfcHl0aG9uJywgJy1waCcsICc3LjAnLCAnLXRuJywgJzgnLCAnLW1hJywgJzIwMCcsICctbWV0YWxfYmluZGluZycsICctaW1hZScsICc8aW5maWxlLm1hZT4nLCAnLW9tYWUnLCAnPG91dGZpbGUubWFlPic=

> <r_lp_tautomer_probability>
1

> <r_epik_Ionization_Penalty>
0.000818822

> <r_epik_Ionization_Penalty_Charging>
0

> <r_epik_Ionization_Penalty_Neutral>
0.000818822

> <r_epik_State_Penalty>
0.000440551

> <r_epik_Charging_Adjusted_Penalty>
0.000440551

> <i_epik_Tot_Q>
0

> <i_epik_Tot_abs_Q>
0

> <r_epik_Metal_State_Penalty>
-0

> <b_epik_Metal_Only>
0

> <s_lp_Force_Field>
OPLS_2005

> <r_lp_Energy>
50.4935

> <b_lp_Chiralities_Consistent>
1

> <s_lp_Variant>
AV-unprocessed.smi:221-13

> <Gold.Version>
5.8.1

> <Gold.Id.Protein>
6NUR|6NUR_protein|mol2

> <Gold.PLP.Fitness>
43.8024

> <Gold.PLP.PLP>
-30.5915

> <Gold.PLP.part.hbond>
-5.7695

> <Gold.PLP.part.metal>
0.0000

> <Gold.PLP.part.buried>
0.7499

> <Gold.PLP.part.nonpolar>
-27.4376

> <Gold.PLP.part.repulsive>
0.8133

> <Gold.PLP.ligand.clash>
0.0000

> <Gold.PLP.ligand.torsion>
0.9912

> <Gold.PLP.Chemscore.Hbond>
4.3352

> <Gold.PLP.Chemscore.CHOScore>
0.6528

> <Gold.PLP.Chemscore.Metal>
0.0000

> <Gold.Chemscore.Hbonds>
donor molecule, donor type, donor heavy atom, donor atom, acceptor molecule, acceptor atom, score
      L1  H     1    30       P1 11000  1.00
      L1  H     1    31       P1 10957  1.00
      P1  H  7989  7998       L1    22  0.48
      P1  H  7997  8009       L1    26  1.00
      P1  H  8011  8017       L1    22  0.41
      L1  C    12    36       P1 10171  0.68

> <Gold.PLP.Chemscore.Internal.Correction>
0.2294

> <Gold.Rescore>
     Score         DG    S(hbond)    S(metal)    S(lipo)     H(rot)  DE(clash)    DE(int)     intcor
     12.36     -15.65       3.80        0.00      59.81       3.72       2.04       1.25       ----

> <Gold.Chemscore.Fitness>
12.3628

> <Gold.Chemscore.DG>
-15.6531

> <Gold.Chemscore.ZeroCoef>
-5.4800

> <Gold.Chemscore.Hbond>
3.8020

> <Gold.Chemscore.Metal>
0.0000

> <Gold.Chemscore.Lipo>
59.8127

> <Gold.Chemscore.Internal_Hbond>
0.0000

> <Gold.Chemscore.DEClash>
2.0434

> <Gold.Chemscore.DEInternal>
1.2469

> <Gold.Chemscore.Rot>
3.7202

> <Gold.Chemscore.Internal.Correction>
   9.000000E+99

> <Gold.Chemscore.Hbonds>
donor molecule, donor type, donor heavy atom, donor atom, acceptor molecule, acceptor atom, score
      L1  H     1    30       P1 11000  0.97
      L1  H     1    31       P1 10957  0.93
      P1  H  7989  7998       L1    22  0.28
      P1  H  7997  8009       L1    26  0.92
      P1  H  8011  8017       L1    22  0.12

> <Gold.Chemscore.Hbond.Weighted>
-12.6987

> <Gold.Chemscore.Metal.Weighted>
-0.0000

> <Gold.Chemscore.Lipo.Weighted>
-6.9981

> <Gold.Chemscore.Internal_Hbond.Weighted>
0.0000

> <Gold.Chemscore.DEClash.Weighted>
2.0434

> <Gold.Chemscore.DEInternal.Weighted>
1.2469

> <Gold.Chemscore.Rot.Weighted>
9.5237

> <Gold.Chemscore.Internal.Correction.Weighted>
   9.000000E+99

> <Gold.Protein.RotatedTorsions>
[ 6907 6896 6895 6894 ] final -160.93 input  -60.11 | X-H torsion
[ 7974 7965 7964 7962 ] final   80.30 input  175.53 | X-H torsion
[ 8008 7997 7996 7995 ] final -167.13 input   59.86 | X-H torsion
[ 10167 10162 10161 10158 ] final -146.15 input  -65.29 | X-H torsion
[ 10718 10713 10712 10709 ] final  162.89 input   66.30 | X-H torsion
[ 10763 10752 10751 10750 ] final  115.06 input  -60.55 | X-H torsion
[ 11005 11000 10999 10996 ] final -161.64 input  -57.11 | X-H torsion

> <Gold.Protein.ActiveResidues>
 VAL166  LYS551  ARG553  GLY616  TRP617  ASP618  TYR619  PRO620  LYS621  CYS622 
 ASP623  PHE694  ASN695  SER759  ASP760  ASP761  ALA762  ILE779  LEU786  VAL792 
 PHE793  MET794  SER795  GLU796  ALA797  LYS798  CYS799  TRP800  GLU811  SER814 

> <Gold.Protein.RotatedAtoms>
  151.3567  133.3905  159.2685 H   0  0  0  0  0  0  0  0  0  0  0  0  # atno 6907 bound_to 6896
  150.9758  134.9123  159.7825 H   0  0  0  0  0  0  0  0  0  0  0  0  # atno 6908 bound_to 6896
  152.5200  134.3530  159.9310 H   0  0  0  0  0  0  0  0  0  0  0  0  # atno 6909 bound_to 6896
  145.6530  139.2452  143.1966 H   0  0  0  0  0  0  0  0  0  0  0  0  # atno 7974 bound_to 7965
  155.8734  140.0997  157.1535 H   0  0  0  0  0  0  0  0  0  0  0  0  # atno 8008 bound_to 7997
  154.3999  140.1343  156.4169 H   0  0  0  0  0  0  0  0  0  0  0  0  # atno 8009 bound_to 7997
  155.7725  140.3460  155.5257 H   0  0  0  0  0  0  0  0  0  0  0  0  # atno 8010 bound_to 7997
  139.7740  143.8197  152.2629 H   0  0  0  0  0  0  0  0  0  0  0  0  # atno 10167 bound_to 10162
  157.1162  131.0480  151.2435 H   0  0  0  0  0  0  0  0  0  0  0  0  # atno 10718 bound_to 10713
  153.5165  135.3607  155.2612 H   0  0  0  0  0  0  0  0  0  0  0  0  # atno 10763 bound_to 10752
  154.8738  135.4035  154.3309 H   0  0  0  0  0  0  0  0  0  0  0  0  # atno 10764 bound_to 10752
  153.3971  135.7074  153.6519 H   0  0  0  0  0  0  0  0  0  0  0  0  # atno 10765 bound_to 10752
  140.6181  134.4779  157.5221 H   0  0  0  0  0  0  0  0  0  0  0  0  # atno 11005 bound_to 11000
  146.1188  140.7335  142.9467 LP  0  0  0  0  0  0  0  0  0  0  0  0  # atno 17320 bound_to 7965
  144.7116  140.4059  143.7076 LP  0  0  0  0  0  0  0  0  0  0  0  0  # atno 17321 bound_to 7965
  139.8240  144.7283  150.9536 LP  0  0  0  0  0  0  0  0  0  0  0  0  # atno 17342 bound_to 10162
  140.7815  143.4132  151.0959 LP  0  0  0  0  0  0  0  0  0  0  0  0  # atno 17343 bound_to 10162
  157.4516  130.7602  149.7157 LP  0  0  0  0  0  0  0  0  0  0  0  0  # atno 17370 bound_to 10713
  155.9839  130.3996  150.3340 LP  0  0  0  0  0  0  0  0  0  0  0  0  # atno 17371 bound_to 10713
  139.9164  134.8237  156.1351 LP  0  0  0  0  0  0  0  0  0  0  0  0  # atno 17394 bound_to 11000
  141.0761  133.6775  156.2240 LP  0  0  0  0  0  0  0  0  0  0  0  0  # atno 17395 bound_to 11000

$$$$
