AV-unprocessed.smi:49|AV-procd|sdf|463|dock3
  -GOLD-   2262016333D 1   1.00000     0.00000
 Structure written by MMmdl.
 28 29  0  0  0  0  0  0  0  0  2 V2000
  151.9231  145.6360  160.0826 C   0  0  0  0  0  0  0  0  0  0  0  0
  152.2242  144.9962  158.7230 C   0  0  0  0  0  0  0  0  0  0  0  0
  151.6179  143.6387  158.5801 C   0  0  0  0  0  0  0  0  0  0  0  0
  150.7118  143.2961  157.6704 N   0  0  0  0  0  0  0  0  0  0  0  0
  150.5437  141.9747  157.9770 C   0  0  0  0  0  0  0  0  0  0  0  0
  149.5571  141.1079  157.2540 C   0  0  2  0  0  0  0  0  0  0  0  0
  150.2375  140.0976  156.3154 C   0  0  0  0  0  0  0  0  0  0  0  0
  150.0652  140.7067  154.9260 C   0  0  1  0  0  0  0  0  0  0  0  0
  150.0884  139.7293  153.9078 O   0  0  0  0  0  0  0  0  0  0  0  0
  148.7084  141.4002  155.0299 C   0  0  0  0  0  0  0  0  0  0  0  0
  148.6440  141.9120  156.4104 N   0  3  0  0  0  0  0  0  0  0  0  0
  151.2639  141.5202  159.0041 N   0  0  0  0  0  0  0  0  0  0  0  0
  151.9609  142.6173  159.3674 N   0  0  0  0  0  0  0  0  0  0  0  0
  148.9607  140.5726  157.9940 H   0  0  0  0  0  0  0  0  0  0  0  0
  150.8478  141.4451  154.7443 H   0  0  0  0  0  0  0  0  0  0  0  0
  152.6248  142.6244  160.1291 H   0  0  0  0  0  0  0  0  0  0  0  0
  152.3788  146.6236  160.1566 H   0  0  0  0  0  0  0  0  0  0  0  0
  152.3130  145.0278  160.8992 H   0  0  0  0  0  0  0  0  0  0  0  0
  150.8494  145.7523  160.2337 H   0  0  0  0  0  0  0  0  0  0  0  0
  151.8562  145.6378  157.9215 H   0  0  0  0  0  0  0  0  0  0  0  0
  153.3027  144.9132  158.5838 H   0  0  0  0  0  0  0  0  0  0  0  0
  151.2770  139.8887  156.5722 H   0  0  0  0  0  0  0  0  0  0  0  0
  149.6942  139.1522  156.3638 H   0  0  0  0  0  0  0  0  0  0  0  0
  149.9433  140.1541  153.0757 H   0  0  0  0  0  0  0  0  0  0  0  0
  148.5799  142.1957  154.2956 H   0  0  0  0  0  0  0  0  0  0  0  0
  147.8992  140.6803  154.8970 H   0  0  0  0  0  0  0  0  0  0  0  0
  147.6985  141.8831  156.7637 H   0  0  0  0  0  0  0  0  0  0  0  0
  148.9809  142.8646  156.4172 H   0  0  0  0  0  0  0  0  0  0  0  0
  1  2  1  0  0  0  0
  1 17  1  0  0  0  0
  1 18  1  0  0  0  0
  1 19  1  0  0  0  0
  2  3  1  0  0  0  0
  2 20  1  0  0  0  0
  2 21  1  0  0  0  0
  3 13  1  0  0  0  0
  3  4  2  0  0  0  0
  4  5  1  0  0  0  0
  5  6  1  0  0  0  0
  5 12  2  0  0  0  0
  6 14  1  0  0  0  0
  6 11  1  0  0  0  0
  6  7  1  0  0  0  0
  7  8  1  0  0  0  0
  7 22  1  0  0  0  0
  7 23  1  0  0  0  0
  8 15  1  0  0  0  0
  8  9  1  0  0  0  0
  8 10  1  0  0  0  0
  9 24  1  0  0  0  0
 10 11  1  0  0  0  0
 10 25  1  0  0  0  0
 10 26  1  0  0  0  0
 11 27  1  0  0  0  0
 11 28  1  0  0  0  0
 12 13  1  0  0  0  0
 13 16  1  0  0  0  0
M  CHG  1  11   1
M  END
> <s_m_source_file>
AV-unprocessed.smi

> <i_m_source_file_index>
49

> <i_lp_mmshare_version>
43012

> <i_f3d_flags>
0

> <s_epik_input>
W0NIM11bQ0gyXWMxbmMobltuSF0xKVtDQEBIXTJbQ0gyXVtDQEBIXShbT0hdKVtDSDJdW05IXTI=

> <s_epik_cmdline>
J2VwaWtfcHl0aG9uJywgJy1waCcsICc3LjAnLCAnLXRuJywgJzgnLCAnLW1hJywgJzIwMCcsICctbWV0YWxfYmluZGluZycsICctaW1hZScsICc8aW5maWxlLm1hZT4nLCAnLW9tYWUnLCAnPG91dGZpbGUubWFlPic=

> <r_lp_tautomer_probability>
0.948284

> <r_epik_Ionization_Penalty>
0.045643

> <r_epik_Ionization_Penalty_Charging>
0.0371552

> <r_epik_Ionization_Penalty_Neutral>
0.00848778

> <r_epik_State_Penalty>
0.283309

> <r_epik_Charging_Adjusted_Penalty>
0.320465

> <i_epik_Tot_Q>
1

> <i_epik_Tot_abs_Q>
1

> <r_epik_Metal_State_Penalty>
0.558162

> <b_epik_Metal_Only>
0

> <s_lp_Force_Field>
OPLS_2005

> <r_lp_Energy>
17.5806

> <b_lp_Chiralities_Consistent>
1

> <s_lp_Variant>
AV-unprocessed.smi:49-1

> <Gold.Version>
5.8.1

> <Gold.Id.Protein>
6NUR|6NUR_protein|mol2

> <Gold.PLP.Fitness>
34.2168

> <Gold.PLP.PLP>
-25.9898

> <Gold.PLP.part.hbond>
-3.0000

> <Gold.PLP.part.metal>
0.0000

> <Gold.PLP.part.buried>
-3.7675

> <Gold.PLP.part.nonpolar>
-20.0526

> <Gold.PLP.part.repulsive>
0.7480

> <Gold.PLP.ligand.clash>
0.0000

> <Gold.PLP.ligand.torsion>
0.3209

> <Gold.PLP.Chemscore.Hbond>
2.9520

> <Gold.PLP.Chemscore.CHOScore>
0.0000

> <Gold.PLP.Chemscore.Metal>
0.0000

> <Gold.Chemscore.Hbonds>
donor molecule, donor type, donor heavy atom, donor atom, acceptor molecule, acceptor atom, score
      L1  H     9    24       P1  7957  1.00
      L1  H    11    28       P1  8028  1.92

> <Gold.PLP.Chemscore.Internal.Correction>
0.0128

> <Gold.Rescore>
     Score         DG    S(hbond)    S(metal)    S(lipo)     H(rot)  DE(clash)    DE(int)     intcor
     12.17     -12.77       1.89        0.00      49.58       1.89       0.30       0.31       ----

> <Gold.Chemscore.Fitness>
12.1656

> <Gold.Chemscore.DG>
-12.7717

> <Gold.Chemscore.ZeroCoef>
-5.4800

> <Gold.Chemscore.Hbond>
1.8938

> <Gold.Chemscore.Metal>
0.0000

> <Gold.Chemscore.Lipo>
49.5753

> <Gold.Chemscore.Internal_Hbond>
0.0000

> <Gold.Chemscore.DEClash>
0.2998

> <Gold.Chemscore.DEInternal>
0.3063

> <Gold.Chemscore.Rot>
1.8883

> <Gold.Chemscore.Internal.Correction>
   9.000000E+99

> <Gold.Chemscore.Hbonds>
donor molecule, donor type, donor heavy atom, donor atom, acceptor molecule, acceptor atom, score
      L1  H     9    24       P1  7957  0.94
      L1  H    11    28       P1  8028  0.88

> <Gold.Chemscore.Hbond.Weighted>
-6.3254

> <Gold.Chemscore.Metal.Weighted>
-0.0000

> <Gold.Chemscore.Lipo.Weighted>
-5.8003

> <Gold.Chemscore.Internal_Hbond.Weighted>
0.0000

> <Gold.Chemscore.DEClash.Weighted>
0.2998

> <Gold.Chemscore.DEInternal.Weighted>
0.3063

> <Gold.Chemscore.Rot.Weighted>
4.8340

> <Gold.Chemscore.Internal.Correction.Weighted>
   9.000000E+99

> <Gold.Protein.RotatedTorsions>
[ 6907 6896 6895 6894 ] final  -97.85 input  -60.11 | X-H torsion
[ 7974 7965 7964 7962 ] final -108.38 input  175.53 | X-H torsion
[ 8008 7997 7996 7995 ] final  -51.23 input   59.86 | X-H torsion
[ 10167 10162 10161 10158 ] final   75.07 input  -65.29 | X-H torsion
[ 10718 10713 10712 10709 ] final -156.50 input   66.30 | X-H torsion
[ 10763 10752 10751 10750 ] final  156.25 input  -60.55 | X-H torsion
[ 11005 11000 10999 10996 ] final  -76.95 input  -57.11 | X-H torsion

> <Gold.Protein.ActiveResidues>
 VAL166  LYS551  ARG553  GLY616  TRP617  ASP618  TYR619  PRO620  LYS621  CYS622 
 ASP623  PHE694  ASN695  SER759  ASP760  ASP761  ALA762  ILE779  LEU786  VAL792 
 PHE793  MET794  SER795  GLU796  ALA797  LYS798  CYS799  TRP800  GLU811  SER814 

> <Gold.Protein.RotatedAtoms>
  150.7028  134.1285  159.4060 H   0  0  0  0  0  0  0  0  0  0  0  0  # atno 6907 bound_to 6896
  151.9271  135.0270  160.0536 H   0  0  0  0  0  0  0  0  0  0  0  0  # atno 6908 bound_to 6896
  152.2207  133.4946  159.5197 H   0  0  0  0  0  0  0  0  0  0  0  0  # atno 6909 bound_to 6896
  145.1936  140.9025  143.3410 H   0  0  0  0  0  0  0  0  0  0  0  0  # atno 7974 bound_to 7965
  154.4078  140.1253  156.4794 H   0  0  0  0  0  0  0  0  0  0  0  0  # atno 8008 bound_to 7997
  155.7100  140.3494  155.4950 H   0  0  0  0  0  0  0  0  0  0  0  0  # atno 8009 bound_to 7997
  155.9309  140.1069  157.1123 H   0  0  0  0  0  0  0  0  0  0  0  0  # atno 8010 bound_to 7997
  140.0069  144.5644  150.7691 H   0  0  0  0  0  0  0  0  0  0  0  0  # atno 10167 bound_to 10162
  156.5273  130.8505  151.2704 H   0  0  0  0  0  0  0  0  0  0  0  0  # atno 10718 bound_to 10713
  154.1814  135.2799  155.3051 H   0  0  0  0  0  0  0  0  0  0  0  0  # atno 10763 bound_to 10752
  154.5999  135.5533  153.7367 H   0  0  0  0  0  0  0  0  0  0  0  0  # atno 10764 bound_to 10752
  153.0137  135.6389  154.1953 H   0  0  0  0  0  0  0  0  0  0  0  0  # atno 10765 bound_to 10752
  141.1657  133.7003  156.7747 H   0  0  0  0  0  0  0  0  0  0  0  0  # atno 11005 bound_to 11000
  145.0017  139.3592  143.6164 LP  0  0  0  0  0  0  0  0  0  0  0  0  # atno 17320 bound_to 7965
  146.3431  139.9243  142.8762 LP  0  0  0  0  0  0  0  0  0  0  0  0  # atno 17321 bound_to 7965
  140.7397  143.2794  151.3643 LP  0  0  0  0  0  0  0  0  0  0  0  0  # atno 17342 bound_to 10162
  139.6232  144.0865  152.2410 LP  0  0  0  0  0  0  0  0  0  0  0  0  # atno 17343 bound_to 10162
  157.7427  130.9897  150.2538 LP  0  0  0  0  0  0  0  0  0  0  0  0  # atno 17370 bound_to 10713
  156.3092  130.3769  149.7677 LP  0  0  0  0  0  0  0  0  0  0  0  0  # atno 17371 bound_to 10713
  140.2439  134.8593  157.3600 LP  0  0  0  0  0  0  0  0  0  0  0  0  # atno 17394 bound_to 11000
  140.1769  134.4538  155.7796 LP  0  0  0  0  0  0  0  0  0  0  0  0  # atno 17395 bound_to 11000

$$$$
