AV-unprocessed.smi:44|AV-procd|sdf|403|dock6
  -GOLD-   2262016253D 1   1.00000     0.00000
 Structure written by MMmdl.
 28 30  0  0  0  0  0  0  0  0  2 V2000
  150.8390  139.4649  154.4634 O   0  0  0  0  0  0  0  0  0  0  0  0
  151.4395  139.5439  155.5333 C   0  0  0  0  0  0  0  0  0  0  0  0
  152.2347  138.5638  156.0692 N   0  5  0  0  0  0  0  0  0  0  0  0
  152.8606  138.7777  157.2957 C   0  0  0  0  0  0  0  0  0  0  0  0
  152.7959  139.8285  158.0407 N   0  0  0  0  0  0  0  0  0  0  0  0
  152.0034  140.8315  157.5222 C   0  0  0  0  0  0  0  0  0  0  0  0
  151.3166  140.7916  156.3390 C   0  0  0  0  0  0  0  0  0  0  0  0
  150.6158  141.9718  156.1247 N   0  0  0  0  0  0  0  0  0  0  0  0
  150.9226  142.6799  157.2118 C   0  0  0  0  0  0  0  0  0  0  0  0
  151.7511  142.0741  158.0892 N   0  0  0  0  0  0  0  0  0  0  0  0
  152.2807  142.5940  159.3906 C   0  0  1  0  0  0  0  0  0  0  0  0
  153.0379  143.9009  159.1513 C   0  0  0  0  0  0  0  0  0  0  0  0
  151.9184  144.9123  159.2522 C   0  0  0  0  0  0  0  0  0  0  0  0
  151.0817  144.3218  160.3871 C   0  0  1  0  0  0  0  0  0  0  0  0
  149.6115  144.7659  160.3564 C   0  0  0  0  0  0  0  0  0  0  0  0
  148.9610  144.3692  161.5441 O   0  0  0  0  0  0  0  0  0  0  0  0
  151.1931  142.9070  160.2139 O   0  0  0  0  0  0  0  0  0  0  0  0
  152.8890  141.7808  159.7878 H   0  0  0  0  0  0  0  0  0  0  0  0
  151.5475  144.5926  161.3366 H   0  0  0  0  0  0  0  0  0  0  0  0
  153.4592  137.9160  157.6013 H   0  0  0  0  0  0  0  0  0  0  0  0
  150.5282  143.6716  157.3693 H   0  0  0  0  0  0  0  0  0  0  0  0
  153.7604  144.0413  159.9562 H   0  0  0  0  0  0  0  0  0  0  0  0
  153.5634  143.9095  158.1956 H   0  0  0  0  0  0  0  0  0  0  0  0
  152.2723  145.9212  159.4655 H   0  0  0  0  0  0  0  0  0  0  0  0
  151.3496  144.9394  158.3214 H   0  0  0  0  0  0  0  0  0  0  0  0
  149.5517  145.8533  160.3007 H   0  0  0  0  0  0  0  0  0  0  0  0
  149.0889  144.3695  159.4863 H   0  0  0  0  0  0  0  0  0  0  0  0
  148.4868  145.1100  161.8894 H   0  0  0  0  0  0  0  0  0  0  0  0
  1  2  2  0  0  0  0
  2  7  1  0  0  0  0
  2  3  1  0  0  0  0
  3  4  1  0  0  0  0
  4  5  2  0  0  0  0
  4 20  1  0  0  0  0
  5  6  1  0  0  0  0
  6 10  1  0  0  0  0
  6  7  2  0  0  0  0
  7  8  1  0  0  0  0
  8  9  2  0  0  0  0
  9 10  1  0  0  0  0
  9 21  1  0  0  0  0
 10 11  1  0  0  0  0
 11 18  1  0  0  0  0
 11 17  1  0  0  0  0
 11 12  1  0  0  0  0
 12 13  1  0  0  0  0
 12 22  1  0  0  0  0
 12 23  1  0  0  0  0
 13 14  1  0  0  0  0
 13 24  1  0  0  0  0
 13 25  1  0  0  0  0
 14 19  1  0  0  0  0
 14 15  1  0  0  0  0
 14 17  1  0  0  0  0
 15 16  1  0  0  0  0
 15 26  1  0  0  0  0
 15 27  1  0  0  0  0
 16 28  1  0  0  0  0
M  CHG  1   3  -1
M  END
> <s_m_source_file>
AV-unprocessed.smi

> <i_m_source_file_index>
44

> <i_lp_mmshare_version>
43012

> <i_f3d_flags>
0

> <s_epik_input>
bjFbY0hdW25IXWMoPU8pYyhjMTIpbltjSF1uMltDQEhdM1tDSDJdW0NIMl1bQ0BIXShPMylbQ0gyXVtPSF0=

> <s_epik_cmdline>
J2VwaWtfcHl0aG9uJywgJy1waCcsICc3LjAnLCAnLXRuJywgJzgnLCAnLW1hJywgJzIwMCcsICctbWV0YWxfYmluZGluZycsICctaW1hZScsICc8aW5maWxlLm1hZT4nLCAnLW9tYWUnLCAnPG91dGZpbGUubWFlPic=

> <r_lp_tautomer_probability>
0.85571

> <r_epik_Ionization_Penalty>
2.55863

> <r_epik_Ionization_Penalty_Charging>
1.36424e-10

> <r_epik_Ionization_Penalty_Neutral>
2.55863

> <r_epik_State_Penalty>
2.63326

> <r_epik_Charging_Adjusted_Penalty>
2.63326

> <i_epik_Tot_Q>
-1

> <i_epik_Tot_abs_Q>
1

> <r_epik_Metal_State_Penalty>
0.475154

> <b_epik_Metal_Only>
1

> <s_epik_Chemistry_Notes>
This compound contains an acetal/aminal-like group ( X-CH(R)-Y where X, Y are N, S, or O) that may be acid/base labile, releasing an aldehyde.

> <s_lp_Force_Field>
OPLS_2005

> <r_lp_Energy>
44.8595

> <b_lp_Chiralities_Consistent>
1

> <s_lp_Variant>
AV-unprocessed.smi:44-9

> <Gold.Version>
5.8.1

> <Gold.Id.Protein>
6NUR|6NUR_protein|mol2

> <Gold.PLP.Fitness>
42.4661

> <Gold.PLP.PLP>
-35.3792

> <Gold.PLP.part.hbond>
-4.8252

> <Gold.PLP.part.metal>
0.0000

> <Gold.PLP.part.buried>
-5.0595

> <Gold.PLP.part.nonpolar>
-26.0286

> <Gold.PLP.part.repulsive>
0.2681

> <Gold.PLP.ligand.clash>
0.0000

> <Gold.PLP.ligand.torsion>
0.0716

> <Gold.PLP.Chemscore.Hbond>
1.5868

> <Gold.PLP.Chemscore.CHOScore>
0.8167

> <Gold.PLP.Chemscore.Metal>
0.0000

> <Gold.Chemscore.Hbonds>
donor molecule, donor type, donor heavy atom, donor atom, acceptor molecule, acceptor atom, score
      P1  H  6933  6944       L1    16  0.57
      P1  H  7989  7998       L1     1  1.00
      L1  C     9    21       P1  8028  0.74

> <Gold.PLP.Chemscore.Internal.Correction>
0.0196

> <Gold.Rescore>
     Score         DG    S(hbond)    S(metal)    S(lipo)     H(rot)  DE(clash)    DE(int)     intcor
     11.61     -11.68       1.96        0.00      46.43       2.26       0.01       0.06       ----

> <Gold.Chemscore.Fitness>
11.6145

> <Gold.Chemscore.DG>
-11.6809

> <Gold.Chemscore.ZeroCoef>
-5.4800

> <Gold.Chemscore.Hbond>
1.9615

> <Gold.Chemscore.Metal>
0.0000

> <Gold.Chemscore.Lipo>
46.4279

> <Gold.Chemscore.Internal_Hbond>
0.0000

> <Gold.Chemscore.DEClash>
0.0053

> <Gold.Chemscore.DEInternal>
0.0611

> <Gold.Chemscore.Rot>
2.2588

> <Gold.Chemscore.Internal.Correction>
   9.000000E+99

> <Gold.Chemscore.Hbonds>
donor molecule, donor type, donor heavy atom, donor atom, acceptor molecule, acceptor atom, score
      P1  H  6933  6944       L1    16  0.40
      P1  H  7989  7998       L1     1  0.35

> <Gold.Chemscore.Hbond.Weighted>
-6.5513

> <Gold.Chemscore.Metal.Weighted>
-0.0000

> <Gold.Chemscore.Lipo.Weighted>
-5.4321

> <Gold.Chemscore.Internal_Hbond.Weighted>
0.0000

> <Gold.Chemscore.DEClash.Weighted>
0.0053

> <Gold.Chemscore.DEInternal.Weighted>
0.0611

> <Gold.Chemscore.Rot.Weighted>
5.7825

> <Gold.Chemscore.Internal.Correction.Weighted>
   9.000000E+99

> <Gold.Protein.RotatedTorsions>
[ 6907 6896 6895 6894 ] final  109.28 input  -60.11 | X-H torsion
[ 7974 7965 7964 7962 ] final   -7.51 input  175.53 | X-H torsion
[ 8008 7997 7996 7995 ] final  -77.59 input   59.86 | X-H torsion
[ 10167 10162 10161 10158 ] final  -70.28 input  -65.29 | X-H torsion
[ 10718 10713 10712 10709 ] final -107.06 input   66.30 | X-H torsion
[ 10763 10752 10751 10750 ] final  -90.53 input  -60.55 | X-H torsion
[ 11005 11000 10999 10996 ] final  140.53 input  -57.11 | X-H torsion

> <Gold.Protein.ActiveResidues>
 VAL166  LYS551  ARG553  GLY616  TRP617  ASP618  TYR619  PRO620  LYS621  CYS622 
 ASP623  PHE694  ASN695  SER759  ASP760  ASP761  ALA762  ILE779  LEU786  VAL792 
 PHE793  MET794  SER795  GLU796  ALA797  LYS798  CYS799  TRP800  GLU811  SER814 

> <Gold.Protein.RotatedAtoms>
  152.5074  133.8967  159.7420 H   0  0  0  0  0  0  0  0  0  0  0  0  # atno 6907 bound_to 6896
  150.9393  133.6666  159.2801 H   0  0  0  0  0  0  0  0  0  0  0  0  # atno 6908 bound_to 6896
  151.3984  135.0972  159.9600 H   0  0  0  0  0  0  0  0  0  0  0  0  # atno 6909 bound_to 6896
  146.2305  140.2330  142.8341 H   0  0  0  0  0  0  0  0  0  0  0  0  # atno 7974 bound_to 7965
  154.5610  140.0708  156.8819 H   0  0  0  0  0  0  0  0  0  0  0  0  # atno 8008 bound_to 7997
  155.2811  140.3371  155.4240 H   0  0  0  0  0  0  0  0  0  0  0  0  # atno 8009 bound_to 7997
  156.2042  140.1733  156.7820 H   0  0  0  0  0  0  0  0  0  0  0  0  # atno 8010 bound_to 7997
  140.5364  143.2317  151.7169 H   0  0  0  0  0  0  0  0  0  0  0  0  # atno 10167 bound_to 10162
  156.0419  130.5644  150.7768 H   0  0  0  0  0  0  0  0  0  0  0  0  # atno 10718 bound_to 10713
  154.6667  135.5301  153.8087 H   0  0  0  0  0  0  0  0  0  0  0  0  # atno 10763 bound_to 10752
  153.0476  135.6519  154.0787 H   0  0  0  0  0  0  0  0  0  0  0  0  # atno 10764 bound_to 10752
  154.0690  135.2955  155.3291 H   0  0  0  0  0  0  0  0  0  0  0  0  # atno 10765 bound_to 10752
  140.0334  134.9340  157.0707 H   0  0  0  0  0  0  0  0  0  0  0  0  # atno 11005 bound_to 11000
  144.9543  140.8210  143.5553 LP  0  0  0  0  0  0  0  0  0  0  0  0  # atno 17320 bound_to 7965
  145.2294  139.2122  143.5051 LP  0  0  0  0  0  0  0  0  0  0  0  0  # atno 17321 bound_to 7965
  139.4972  144.4036  152.0156 LP  0  0  0  0  0  0  0  0  0  0  0  0  # atno 17342 bound_to 10162
  140.3141  144.3503  150.6026 LP  0  0  0  0  0  0  0  0  0  0  0  0  # atno 17343 bound_to 10162
  157.5247  131.0933  151.0033 LP  0  0  0  0  0  0  0  0  0  0  0  0  # atno 17370 bound_to 10713
  157.0355  130.5728  149.5349 LP  0  0  0  0  0  0  0  0  0  0  0  0  # atno 17371 bound_to 10713
  140.4187  134.1903  155.7164 LP  0  0  0  0  0  0  0  0  0  0  0  0  # atno 17394 bound_to 11000
  141.1844  133.8345  157.1142 LP  0  0  0  0  0  0  0  0  0  0  0  0  # atno 17395 bound_to 11000

$$$$
