AV-unprocessed.smi:539|AV-procd|sdf|2868|dock9
  -GOLD-   2262023363D 1   1.00000     0.00000
 Structure written by MMmdl.
 39 41  0  0  0  0  0  0  0  0  2 V2000
  147.7104  141.8511  153.7175 C   0  0  0  0  0  0  0  0  0  0  0  0
  149.0862  141.8870  154.0502 O   0  0  0  0  0  0  0  0  0  0  0  0
  149.3416  141.4407  155.3717 C   0  0  0  0  0  0  0  0  0  0  0  0
  150.6628  142.0386  155.8791 C   0  0  0  0  0  0  0  0  0  0  0  0
  151.3195  141.1694  156.8561 N   0  0  0  0  0  0  0  0  0  0  0  0
  151.8033  141.4829  158.0958 C   0  0  0  0  0  0  0  0  0  0  0  0
  151.7278  142.7562  158.6816 N   0  0  0  0  0  0  0  0  0  0  0  0
  151.8120  143.1689  160.0836 C   0  0  0  0  0  0  0  0  0  0  0  0
  152.0244  144.6802  160.1338 C   0  0  0  0  0  0  0  0  0  0  0  0
  151.3511  145.1391  158.8594 C   0  0  0  0  0  0  0  0  0  0  0  0
  151.6902  143.9968  157.9089 C   0  0  0  0  0  0  0  0  0  0  0  0
  152.3972  140.4640  158.7217 N   0  0  0  0  0  0  0  0  0  0  0  0
  152.2787  139.4175  157.8251 C   0  0  0  0  0  0  0  0  0  0  0  0
  151.6435  139.8135  156.6903 C   0  0  0  0  0  0  0  0  0  0  0  0
  151.4056  138.9129  155.5349 C   0  0  0  0  0  0  0  0  0  0  0  0
  150.8602  139.3138  154.5093 O   0  0  0  0  0  0  0  0  0  0  0  0
  151.8612  137.6408  155.7644 N   0  5  0  0  0  0  0  0  0  0  0  0
  152.4964  137.2002  156.9041 C   0  0  0  0  0  0  0  0  0  0  0  0
  152.8700  136.0333  157.0309 O   0  0  0  0  0  0  0  0  0  0  0  0
  152.7248  138.0724  157.9346 N   0  0  0  0  0  0  0  0  0  0  0  0
  153.4067  137.6354  159.1564 C   0  0  0  0  0  0  0  0  0  0  0  0
  147.5732  142.2007  152.6943 H   0  0  0  0  0  0  0  0  0  0  0  0
  147.1290  142.4983  154.3755 H   0  0  0  0  0  0  0  0  0  0  0  0
  147.3149  140.8369  153.7831 H   0  0  0  0  0  0  0  0  0  0  0  0
  148.5187  141.7383  156.0229 H   0  0  0  0  0  0  0  0  0  0  0  0
  149.3972  140.3514  155.3934 H   0  0  0  0  0  0  0  0  0  0  0  0
  151.3362  142.2541  155.0561 H   0  0  0  0  0  0  0  0  0  0  0  0
  150.4841  143.0183  156.3132 H   0  0  0  0  0  0  0  0  0  0  0  0
  150.8790  142.9174  160.5868 H   0  0  0  0  0  0  0  0  0  0  0  0
  152.6280  142.6570  160.5940 H   0  0  0  0  0  0  0  0  0  0  0  0
  151.6083  145.1402  161.0305 H   0  0  0  0  0  0  0  0  0  0  0  0
  153.0903  144.9099  160.0951 H   0  0  0  0  0  0  0  0  0  0  0  0
  150.2717  145.2008  159.0055 H   0  0  0  0  0  0  0  0  0  0  0  0
  151.7076  146.1076  158.5078 H   0  0  0  0  0  0  0  0  0  0  0  0
  152.6720  144.1555  157.4606 H   0  0  0  0  0  0  0  0  0  0  0  0
  150.9634  143.9311  157.0983 H   0  0  0  0  0  0  0  0  0  0  0  0
  154.3714  137.1839  158.9193 H   0  0  0  0  0  0  0  0  0  0  0  0
  152.8032  136.8945  159.6825 H   0  0  0  0  0  0  0  0  0  0  0  0
  153.5975  138.4554  159.8486 H   0  0  0  0  0  0  0  0  0  0  0  0
  1  2  1  0  0  0  0
  1 22  1  0  0  0  0
  1 23  1  0  0  0  0
  1 24  1  0  0  0  0
  2  3  1  0  0  0  0
  3  4  1  0  0  0  0
  3 25  1  0  0  0  0
  3 26  1  0  0  0  0
  4  5  1  0  0  0  0
  4 27  1  0  0  0  0
  4 28  1  0  0  0  0
  5 14  1  0  0  0  0
  5  6  1  0  0  0  0
  6  7  1  0  0  0  0
  6 12  2  0  0  0  0
  7 11  1  0  0  0  0
  7  8  1  0  0  0  0
  8  9  1  0  0  0  0
  8 29  1  0  0  0  0
  8 30  1  0  0  0  0
  9 10  1  0  0  0  0
  9 31  1  0  0  0  0
  9 32  1  0  0  0  0
 10 11  1  0  0  0  0
 10 33  1  0  0  0  0
 10 34  1  0  0  0  0
 11 35  1  0  0  0  0
 11 36  1  0  0  0  0
 12 13  1  0  0  0  0
 13 20  1  0  0  0  0
 13 14  2  0  0  0  0
 14 15  1  0  0  0  0
 15 16  2  0  0  0  0
 15 17  1  0  0  0  0
 17 18  1  0  0  0  0
 18 19  2  0  0  0  0
 18 20  1  0  0  0  0
 20 21  1  0  0  0  0
 21 37  1  0  0  0  0
 21 38  1  0  0  0  0
 21 39  1  0  0  0  0
M  CHG  1  17  -1
M  END
> <s_m_source_file>
AV-unprocessed.smi

> <i_m_source_file_index>
539

> <i_lp_mmshare_version>
43012

> <i_f3d_flags>
0

> <s_epik_input>
W0NIM11uMWMoPU8pW25IXWMoPU8pYyhjMTIpbihbQ0gyXVtDSDJdT1tDSDNdKWMobjIpTjNbQ0gyXVtDSDJdW0NIMl1bQ0gyXTM=

> <s_epik_cmdline>
J2VwaWtfcHl0aG9uJywgJy1waCcsICc3LjAnLCAnLXRuJywgJzgnLCAnLW1hJywgJzIwMCcsICctbWV0YWxfYmluZGluZycsICctaW1hZScsICc8aW5maWxlLm1hZT4nLCAnLW9tYWUnLCAnPG91dGZpbGUubWFlPic=

> <r_lp_tautomer_probability>
1

> <r_epik_Ionization_Penalty>
6.13244

> <r_epik_Ionization_Penalty_Charging>
0.078064

> <r_epik_Ionization_Penalty_Neutral>
6.05438

> <r_epik_State_Penalty>
6.05106

> <r_epik_Charging_Adjusted_Penalty>
6.12912

> <i_epik_Tot_Q>
-1

> <i_epik_Tot_abs_Q>
1

> <r_epik_Metal_State_Penalty>
2.00027

> <b_epik_Metal_Only>
1

> <s_lp_Force_Field>
OPLS_2005

> <r_lp_Energy>
49.7723

> <b_lp_Chiralities_Consistent>
1

> <s_lp_Variant>
AV-unprocessed.smi:539-2

> <Gold.Version>
5.8.1

> <Gold.Id.Protein>
6NUR|6NUR_protein|mol2

> <Gold.PLP.Fitness>
48.1435

> <Gold.PLP.PLP>
-41.8280

> <Gold.PLP.part.hbond>
-3.5664

> <Gold.PLP.part.metal>
0.0000

> <Gold.PLP.part.buried>
-6.7181

> <Gold.PLP.part.nonpolar>
-31.5820

> <Gold.PLP.part.repulsive>
0.3389

> <Gold.PLP.ligand.clash>
0.0000

> <Gold.PLP.ligand.torsion>
0.6461

> <Gold.PLP.Chemscore.Hbond>
2.5280

> <Gold.PLP.Chemscore.CHOScore>
0.0000

> <Gold.PLP.Chemscore.Metal>
0.0000

> <Gold.Chemscore.Hbonds>
donor molecule, donor type, donor heavy atom, donor atom, acceptor molecule, acceptor atom, score
      P1  H  7989  7998       L1    16  1.00
      P1  H  8011  8017       L1     2  0.46
      P1  H 10752 10764       L1    19  0.94

> <Gold.PLP.Chemscore.Internal.Correction>
0.0236

> <Gold.Rescore>
     Score         DG    S(hbond)    S(metal)    S(lipo)     H(rot)  DE(clash)    DE(int)     intcor
     15.09     -18.15       2.16        0.00      79.26       1.50       0.08       2.98       ----

> <Gold.Chemscore.Fitness>
15.0935

> <Gold.Chemscore.DG>
-18.1489

> <Gold.Chemscore.ZeroCoef>
-5.4800

> <Gold.Chemscore.Hbond>
2.1631

> <Gold.Chemscore.Metal>
0.0000

> <Gold.Chemscore.Lipo>
79.2579

> <Gold.Chemscore.Internal_Hbond>
0.0000

> <Gold.Chemscore.DEClash>
0.0775

> <Gold.Chemscore.DEInternal>
2.9778

> <Gold.Chemscore.Rot>
1.4957

> <Gold.Chemscore.Internal.Correction>
   9.000000E+99

> <Gold.Chemscore.Hbonds>
donor molecule, donor type, donor heavy atom, donor atom, acceptor molecule, acceptor atom, score
      P1  H  7989  7998       L1    16  0.94
      P1  H  8011  8017       L1     2  0.10
      P1  H 10752 10764       L1    19  0.72

> <Gold.Chemscore.Hbond.Weighted>
-7.2247

> <Gold.Chemscore.Metal.Weighted>
-0.0000

> <Gold.Chemscore.Lipo.Weighted>
-9.2732

> <Gold.Chemscore.Internal_Hbond.Weighted>
0.0000

> <Gold.Chemscore.DEClash.Weighted>
0.0775

> <Gold.Chemscore.DEInternal.Weighted>
2.9778

> <Gold.Chemscore.Rot.Weighted>
3.8290

> <Gold.Chemscore.Internal.Correction.Weighted>
   9.000000E+99

> <Gold.Protein.RotatedTorsions>
[ 6907 6896 6895 6894 ] final  -38.55 input  -60.11 | X-H torsion
[ 7974 7965 7964 7962 ] final  -23.55 input  175.53 | X-H torsion
[ 8008 7997 7996 7995 ] final   89.11 input   59.86 | X-H torsion
[ 10167 10162 10161 10158 ] final  -63.20 input  -65.29 | X-H torsion
[ 10718 10713 10712 10709 ] final  -87.01 input   66.30 | X-H torsion
[ 10763 10752 10751 10750 ] final   19.47 input  -60.55 | X-H torsion
[ 11005 11000 10999 10996 ] final -172.07 input  -57.11 | X-H torsion

> <Gold.Protein.ActiveResidues>
 VAL166  LYS551  ARG553  GLY616  TRP617  ASP618  TYR619  PRO620  LYS621  CYS622 
 ASP623  PHE694  ASN695  SER759  ASP760  ASP761  ALA762  ILE779  LEU786  VAL792 
 PHE793  MET794  SER795  GLU796  ALA797  LYS798  CYS799  TRP800  GLU811  SER814 

> <Gold.Protein.RotatedAtoms>
  151.0010  134.9322  159.7953 H   0  0  0  0  0  0  0  0  0  0  0  0  # atno 6907 bound_to 6896
  152.5278  134.3154  159.9139 H   0  0  0  0  0  0  0  0  0  0  0  0  # atno 6908 bound_to 6896
  151.3159  133.4019  159.2685 H   0  0  0  0  0  0  0  0  0  0  0  0  # atno 6909 bound_to 6896
  146.1609  140.4631  142.8572 H   0  0  0  0  0  0  0  0  0  0  0  0  # atno 7974 bound_to 7965
  155.9959  140.3364  155.6798 H   0  0  0  0  0  0  0  0  0  0  0  0  # atno 8008 bound_to 7997
  155.6357  140.0690  157.2653 H   0  0  0  0  0  0  0  0  0  0  0  0  # atno 8009 bound_to 7997
  154.4234  140.1752  156.1506 H   0  0  0  0  0  0  0  0  0  0  0  0  # atno 8010 bound_to 7997
  140.5887  143.2338  151.6187 H   0  0  0  0  0  0  0  0  0  0  0  0  # atno 10167 bound_to 10162
  155.9987  130.4785  150.4801 H   0  0  0  0  0  0  0  0  0  0  0  0  # atno 10718 bound_to 10713
  153.1159  135.6708  153.9418 H   0  0  0  0  0  0  0  0  0  0  0  0  # atno 10763 bound_to 10752
  153.8948  135.3043  155.3449 H   0  0  0  0  0  0  0  0  0  0  0  0  # atno 10764 bound_to 10752
  154.7576  135.5004  153.9481 H   0  0  0  0  0  0  0  0  0  0  0  0  # atno 10765 bound_to 10752
  140.5011  134.5892  157.4988 H   0  0  0  0  0  0  0  0  0  0  0  0  # atno 11005 bound_to 11000
  144.8026  140.6241  143.6468 LP  0  0  0  0  0  0  0  0  0  0  0  0  # atno 17320 bound_to 7965
  145.4590  139.1515  143.3876 LP  0  0  0  0  0  0  0  0  0  0  0  0  # atno 17321 bound_to 7965
  139.5213  144.3195  152.0922 LP  0  0  0  0  0  0  0  0  0  0  0  0  # atno 17342 bound_to 10162
  140.2356  144.4322  150.6281 LP  0  0  0  0  0  0  0  0  0  0  0  0  # atno 17343 bound_to 10162
  157.2808  131.0606  151.2199 LP  0  0  0  0  0  0  0  0  0  0  0  0  # atno 17370 bound_to 10713
  157.3246  130.6954  149.6289 LP  0  0  0  0  0  0  0  0  0  0  0  0  # atno 17371 bound_to 10713
  139.9713  134.7289  156.0037 LP  0  0  0  0  0  0  0  0  0  0  0  0  # atno 17394 bound_to 11000
  141.1435  133.6560  156.3798 LP  0  0  0  0  0  0  0  0  0  0  0  0  # atno 17395 bound_to 11000

$$$$
