AV-unprocessed.smi:2884|AV-procd|sdf|11085|dock10
  -GOLD-   2272015553D 1   1.00000     0.00000
 Structure written by MMmdl.
 41 42  0  0  0  0  0  0  0  0  2 V2000
  152.2075  143.9382  158.4388 C   0  0  0  0  0  0  0  0  0  0  0  0
  151.2886  142.7098  158.4628 C   0  0  0  0  0  0  0  0  0  0  0  0
  150.6330  142.4272  157.1054 C   0  0  0  0  0  0  0  0  0  0  0  0
  149.6595  141.4066  157.2928 O   0  0  0  0  0  0  0  0  0  0  0  0
  148.6095  141.2279  156.3354 C   0  0  0  0  0  0  0  0  0  0  0  0
  148.2071  139.7460  156.5525 C   0  0  0  0  0  0  0  0  0  0  0  0
  149.3006  138.8193  156.2886 N   0  0  0  0  0  0  0  0  0  0  0  0
  150.1593  138.1963  157.1877 C   0  0  0  0  0  0  0  0  0  0  0  0
  150.0647  138.3926  158.6564 C   0  0  0  0  0  0  0  0  0  0  0  0
  150.8498  137.8121  159.4753 N   0  0  0  0  0  0  0  0  0  0  0  0
  151.8855  136.9176  159.0089 N   0  5  0  0  0  0  0  0  0  0  0  0
  152.0347  136.6795  157.6706 C   0  0  0  0  0  0  0  0  0  0  0  0
  152.8994  135.9221  157.2332 O   0  0  0  0  0  0  0  0  0  0  0  0
  151.1260  137.3565  156.7378 C   0  0  0  0  0  0  0  0  0  0  0  0
  151.3090  137.0491  155.0411 Cl  0  0  0  0  0  0  0  0  0  0  0  0
  147.4188  142.1964  156.5812 C   0  0  0  0  0  0  0  0  0  0  0  0
  146.3113  142.0414  155.5235 C   0  0  0  0  0  0  0  0  0  0  0  0
  146.8693  142.2331  154.1039 C   0  0  0  0  0  0  0  0  0  0  0  0
  148.0480  141.2862  153.8253 C   0  0  0  0  0  0  0  0  0  0  0  0
  149.1480  141.4281  154.8945 C   0  0  0  0  0  0  0  0  0  0  0  0
  152.6684  144.0972  159.4138 H   0  0  0  0  0  0  0  0  0  0  0  0
  151.6553  144.8430  158.1849 H   0  0  0  0  0  0  0  0  0  0  0  0
  153.0068  143.8189  157.7071 H   0  0  0  0  0  0  0  0  0  0  0  0
  151.8702  141.8393  158.7669 H   0  0  0  0  0  0  0  0  0  0  0  0
  150.5169  142.8450  159.2215 H   0  0  0  0  0  0  0  0  0  0  0  0
  150.1969  143.3483  156.7225 H   0  0  0  0  0  0  0  0  0  0  0  0
  151.3990  142.1024  156.4024 H   0  0  0  0  0  0  0  0  0  0  0  0
  147.8954  139.5778  157.5819 H   0  0  0  0  0  0  0  0  0  0  0  0
  147.3388  139.4946  155.9452 H   0  0  0  0  0  0  0  0  0  0  0  0
  149.3800  138.5284  155.3250 H   0  0  0  0  0  0  0  0  0  0  0  0
  149.2786  139.0623  159.0109 H   0  0  0  0  0  0  0  0  0  0  0  0
  147.0054  142.0600  157.5807 H   0  0  0  0  0  0  0  0  0  0  0  0
  147.7556  143.2309  156.5375 H   0  0  0  0  0  0  0  0  0  0  0  0
  145.8412  141.0616  155.6095 H   0  0  0  0  0  0  0  0  0  0  0  0
  145.5225  142.7708  155.7090 H   0  0  0  0  0  0  0  0  0  0  0  0
  146.0802  142.0711  153.3690 H   0  0  0  0  0  0  0  0  0  0  0  0
  147.1979  143.2661  153.9804 H   0  0  0  0  0  0  0  0  0  0  0  0
  147.6924  140.2568  153.7825 H   0  0  0  0  0  0  0  0  0  0  0  0
  148.4647  141.5007  152.8408 H   0  0  0  0  0  0  0  0  0  0  0  0
  149.5761  142.4239  154.7860 H   0  0  0  0  0  0  0  0  0  0  0  0
  149.9568  140.7251  154.6926 H   0  0  0  0  0  0  0  0  0  0  0  0
  1  2  1  0  0  0  0
  1 21  1  0  0  0  0
  1 22  1  0  0  0  0
  1 23  1  0  0  0  0
  2  3  1  0  0  0  0
  2 24  1  0  0  0  0
  2 25  1  0  0  0  0
  3  4  1  0  0  0  0
  3 26  1  0  0  0  0
  3 27  1  0  0  0  0
  4  5  1  0  0  0  0
  5 20  1  0  0  0  0
  5  6  1  0  0  0  0
  5 16  1  0  0  0  0
  6  7  1  0  0  0  0
  6 28  1  0  0  0  0
  6 29  1  0  0  0  0
  7  8  1  0  0  0  0
  7 30  1  0  0  0  0
  8 14  2  0  0  0  0
  8  9  1  0  0  0  0
  9 10  2  0  0  0  0
  9 31  1  0  0  0  0
 10 11  1  0  0  0  0
 11 12  1  0  0  0  0
 12 13  2  0  0  0  0
 12 14  1  0  0  0  0
 14 15  1  0  0  0  0
 16 17  1  0  0  0  0
 16 32  1  0  0  0  0
 16 33  1  0  0  0  0
 17 18  1  0  0  0  0
 17 34  1  0  0  0  0
 17 35  1  0  0  0  0
 18 19  1  0  0  0  0
 18 36  1  0  0  0  0
 18 37  1  0  0  0  0
 19 20  1  0  0  0  0
 19 38  1  0  0  0  0
 19 39  1  0  0  0  0
 20 40  1  0  0  0  0
 20 41  1  0  0  0  0
M  CHG  1  11  -1
M  END
> <s_m_source_file>
AV-unprocessed.smi

> <i_m_source_file_index>
2884

> <i_lp_mmshare_version>
43012

> <i_f3d_flags>
0

> <s_epik_input>
W0NIMl0xW0NIMl1bQ0gyXVtDSDJdW0NIMl1DMShPW0NIMl1bQ0gyXVtDSDNdKVtDSDJdW05IXWMyW2NIXW5bbkhdYyg9TyljMkNs

> <s_epik_cmdline>
J2VwaWtfcHl0aG9uJywgJy1waCcsICc3LjAnLCAnLXRuJywgJzgnLCAnLW1hJywgJzIwMCcsICctbWV0YWxfYmluZGluZycsICctaW1hZScsICc8aW5maWxlLm1hZT4nLCAnLW9tYWUnLCAnPG91dGZpbGUubWFlPic=

> <r_lp_tautomer_probability>
0.986175

> <r_epik_Ionization_Penalty>
3.75229

> <r_epik_Ionization_Penalty_Charging>
0.0129106

> <r_epik_Ionization_Penalty_Neutral>
3.73938

> <r_epik_State_Penalty>
3.73863

> <r_epik_Charging_Adjusted_Penalty>
3.75154

> <i_epik_Tot_Q>
-1

> <i_epik_Tot_abs_Q>
1

> <r_epik_Metal_State_Penalty>
0.55642

> <b_epik_Metal_Only>
1

> <s_lp_Force_Field>
OPLS_2005

> <r_lp_Energy>
41.2708

> <b_lp_Chiralities_Consistent>
1

> <s_lp_Variant>
AV-unprocessed.smi:2884-3

> <Gold.Version>
5.8.1

> <Gold.Id.Protein>
6NUR|6NUR_protein|mol2

> <Gold.PLP.Fitness>
35.9907

> <Gold.PLP.PLP>
-28.7267

> <Gold.PLP.part.hbond>
-2.2549

> <Gold.PLP.part.metal>
0.0000

> <Gold.PLP.part.buried>
-2.9326

> <Gold.PLP.part.nonpolar>
-24.1641

> <Gold.PLP.part.repulsive>
0.0696

> <Gold.PLP.ligand.clash>
0.0000

> <Gold.PLP.ligand.torsion>
0.6141

> <Gold.PLP.Chemscore.Hbond>
2.8240

> <Gold.PLP.Chemscore.CHOScore>
0.0000

> <Gold.PLP.Chemscore.Metal>
0.0000

> <Gold.Chemscore.Hbonds>
donor molecule, donor type, donor heavy atom, donor atom, acceptor molecule, acceptor atom, score
      P1  H  6896  6908       L1    11  1.95
      P1  H 10752 10765       L1    13  0.67

> <Gold.PLP.Chemscore.Internal.Correction>
0.0202

> <Gold.Rescore>
     Score         DG    S(hbond)    S(metal)    S(lipo)     H(rot)  DE(clash)    DE(int)     intcor
     14.42     -15.24       1.43        0.00      79.88       1.71       0.38       0.45       ----

> <Gold.Chemscore.Fitness>
14.4211

> <Gold.Chemscore.DG>
-15.2448

> <Gold.Chemscore.ZeroCoef>
-5.4800

> <Gold.Chemscore.Hbond>
1.4336

> <Gold.Chemscore.Metal>
0.0000

> <Gold.Chemscore.Lipo>
79.8801

> <Gold.Chemscore.Internal_Hbond>
0.0000

> <Gold.Chemscore.DEClash>
0.3782

> <Gold.Chemscore.DEInternal>
0.4454

> <Gold.Chemscore.Rot>
1.7068

> <Gold.Chemscore.Internal.Correction>
   9.000000E+99

> <Gold.Chemscore.Hbonds>
donor molecule, donor type, donor heavy atom, donor atom, acceptor molecule, acceptor atom, score
      P1  H  6896  6908       L1    11  0.34
      P1  H 10752 10765       L1    13  0.63

> <Gold.Chemscore.Hbond.Weighted>
-4.7882

> <Gold.Chemscore.Metal.Weighted>
-0.0000

> <Gold.Chemscore.Lipo.Weighted>
-9.3460

> <Gold.Chemscore.Internal_Hbond.Weighted>
0.0000

> <Gold.Chemscore.DEClash.Weighted>
0.3782

> <Gold.Chemscore.DEInternal.Weighted>
0.4454

> <Gold.Chemscore.Rot.Weighted>
4.3694

> <Gold.Chemscore.Internal.Correction.Weighted>
   9.000000E+99

> <Gold.Protein.RotatedTorsions>
[ 6907 6896 6895 6894 ] final -120.66 input  -60.11 | X-H torsion
[ 7974 7965 7964 7962 ] final  -47.82 input  175.53 | X-H torsion
[ 8008 7997 7996 7995 ] final   55.13 input   59.86 | X-H torsion
[ 10167 10162 10161 10158 ] final   -5.41 input  -65.29 | X-H torsion
[ 10718 10713 10712 10709 ] final  126.28 input   66.30 | X-H torsion
[ 10763 10752 10751 10750 ] final -143.80 input  -60.55 | X-H torsion
[ 11005 11000 10999 10996 ] final   88.06 input  -57.11 | X-H torsion

> <Gold.Protein.ActiveResidues>
 VAL166  LYS551  ARG553  GLY616  TRP617  ASP618  TYR619  PRO620  LYS621  CYS622 
 ASP623  PHE694  ASN695  SER759  ASP760  ASP761  ALA762  ILE779  LEU786  VAL792 
 PHE793  MET794  SER795  GLU796  ALA797  LYS798  CYS799  TRP800  GLU811  SER814 

> <Gold.Protein.RotatedAtoms>
  150.8413  133.7932  159.3059 H   0  0  0  0  0  0  0  0  0  0  0  0  # atno 6907 bound_to 6896
  151.5632  135.1063  159.9987 H   0  0  0  0  0  0  0  0  0  0  0  0  # atno 6908 bound_to 6896
  152.4476  133.7524  159.6757 H   0  0  0  0  0  0  0  0  0  0  0  0  # atno 6909 bound_to 6896
  145.9576  140.7511  142.9473 H   0  0  0  0  0  0  0  0  0  0  0  0  # atno 7974 bound_to 7965
  155.4960  140.3473  155.4363 H   0  0  0  0  0  0  0  0  0  0  0  0  # atno 8008 bound_to 7997
  156.0945  140.1419  156.9576 H   0  0  0  0  0  0  0  0  0  0  0  0  # atno 8009 bound_to 7997
  154.4655  140.0919  156.6986 H   0  0  0  0  0  0  0  0  0  0  0  0  # atno 8010 bound_to 7997
  140.6962  143.6311  150.8522 H   0  0  0  0  0  0  0  0  0  0  0  0  # atno 10167 bound_to 10162
  157.5432  131.1096  150.8825 H   0  0  0  0  0  0  0  0  0  0  0  0  # atno 10718 bound_to 10713
  154.8455  135.3458  154.6246 H   0  0  0  0  0  0  0  0  0  0  0  0  # atno 10763 bound_to 10752
  153.6855  135.6978  153.5110 H   0  0  0  0  0  0  0  0  0  0  0  0  # atno 10764 bound_to 10752
  153.2635  135.4315  155.0873 H   0  0  0  0  0  0  0  0  0  0  0  0  # atno 10765 bound_to 10752
  139.8905  134.8463  156.2948 H   0  0  0  0  0  0  0  0  0  0  0  0  # atno 11005 bound_to 11000
  144.6808  140.2537  143.7328 LP  0  0  0  0  0  0  0  0  0  0  0  0  # atno 17320 bound_to 7965
  145.8085  139.1993  143.2007 LP  0  0  0  0  0  0  0  0  0  0  0  0  # atno 17321 bound_to 7965
  140.0029  143.5724  152.2868 LP  0  0  0  0  0  0  0  0  0  0  0  0  # atno 17342 bound_to 10162
  139.6420  144.7655  151.2319 LP  0  0  0  0  0  0  0  0  0  0  0  0  # atno 17343 bound_to 10162
  156.9371  130.5371  149.5279 LP  0  0  0  0  0  0  0  0  0  0  0  0  # atno 17370 bound_to 10713
  156.0514  130.5582  150.8996 LP  0  0  0  0  0  0  0  0  0  0  0  0  # atno 17371 bound_to 10713
  140.9952  133.7184  156.0875 LP  0  0  0  0  0  0  0  0  0  0  0  0  # atno 17394 bound_to 11000
  140.7571  134.3980  157.5532 LP  0  0  0  0  0  0  0  0  0  0  0  0  # atno 17395 bound_to 11000

$$$$
