AV-unprocessed.smi:2988|AV-procd|sdf|11387|dock10
  -GOLD-   2272016313D 1   1.00000     0.00000
 Structure written by MMmdl.
 37 38  0  0  0  0  0  0  0  0  1 V2000
  150.9615  143.4409  157.8017 C   0  0  0  0  0  0  0  0  0  0  0  0
  151.5152  142.5230  158.9070 C   0  0  2  0  0  0  0  0  0  0  0  0
  152.2545  143.3527  159.9769 C   0  0  0  0  0  0  0  0  0  0  0  0
  152.8080  142.4707  161.1064 C   0  0  0  0  0  0  0  0  0  0  0  0
  153.7262  141.3741  160.5501 C   0  0  0  0  0  0  0  0  0  0  0  0
  152.9973  140.5301  159.4947 C   0  0  0  0  0  0  0  0  0  0  0  0
  152.4369  141.4040  158.3554 C   0  0  1  0  0  0  0  0  0  0  0  0
  151.7159  140.5471  157.4150 N   0  0  0  0  0  0  0  0  0  0  0  0
  152.2468  139.5467  156.6948 C   0  0  0  0  0  0  0  0  0  0  0  0
  153.4303  139.2123  156.7651 O   0  0  0  0  0  0  0  0  0  0  0  0
  151.2822  138.8060  155.7579 C   0  0  0  0  0  0  0  0  0  0  0  0
  149.9597  139.4435  155.6752 N   0  0  0  0  0  0  0  0  0  0  0  0
  149.9964  140.7758  155.3030 N   0  0  0  0  0  0  0  0  0  0  0  0
  148.8960  141.4404  155.2163 C   0  0  0  0  0  0  0  0  0  0  0  0
  147.6092  140.8400  155.4908 C   0  0  0  0  0  0  0  0  0  0  0  0
  146.1664  141.7824  155.3575 Cl  0  0  0  0  0  0  0  0  0  0  0  0
  147.5839  139.5315  155.8483 C   0  0  0  0  0  0  0  0  0  0  0  0
  146.0821  138.7427  156.1902 Cl  0  0  0  0  0  0  0  0  0  0  0  0
  148.8185  138.7423  155.9580 C   0  0  0  0  0  0  0  0  0  0  0  0
  148.8375  137.5527  156.2775 O   0  0  0  0  0  0  0  0  0  0  0  0
  151.7676  143.9063  157.2339 H   0  0  0  0  0  0  0  0  0  0  0  0
  150.3491  144.2378  158.2242 H   0  0  0  0  0  0  0  0  0  0  0  0
  150.3332  142.8930  157.0995 H   0  0  0  0  0  0  0  0  0  0  0  0
  150.6610  142.0487  159.3929 H   0  0  0  0  0  0  0  0  0  0  0  0
  153.0743  143.9032  159.5131 H   0  0  0  0  0  0  0  0  0  0  0  0
  151.5828  144.1010  160.3991 H   0  0  0  0  0  0  0  0  0  0  0  0
  153.3544  143.0841  161.8235 H   0  0  0  0  0  0  0  0  0  0  0  0
  151.9824  142.0151  161.6547 H   0  0  0  0  0  0  0  0  0  0  0  0
  154.6136  141.8282  160.1074 H   0  0  0  0  0  0  0  0  0  0  0  0
  154.0768  140.7348  161.3611 H   0  0  0  0  0  0  0  0  0  0  0  0
  153.6810  139.7825  159.0899 H   0  0  0  0  0  0  0  0  0  0  0  0
  152.1858  139.9789  159.9722 H   0  0  0  0  0  0  0  0  0  0  0  0
  153.2851  141.8753  157.8554 H   0  0  0  0  0  0  0  0  0  0  0  0
  150.7333  140.7433  157.2908 H   0  0  0  0  0  0  0  0  0  0  0  0
  151.7439  138.7567  154.7702 H   0  0  0  0  0  0  0  0  0  0  0  0
  151.1727  137.7691  156.0819 H   0  0  0  0  0  0  0  0  0  0  0  0
  148.8759  142.4922  154.9306 H   0  0  0  0  0  0  0  0  0  0  0  0
  1  2  1  0  0  0  0
  1 21  1  0  0  0  0
  1 22  1  0  0  0  0
  1 23  1  0  0  0  0
  2  7  1  0  0  0  0
  2  3  1  0  0  0  0
  2 24  1  0  0  0  0
  3  4  1  0  0  0  0
  3 25  1  0  0  0  0
  3 26  1  0  0  0  0
  4  5  1  0  0  0  0
  4 27  1  0  0  0  0
  4 28  1  0  0  0  0
  5  6  1  0  0  0  0
  5 29  1  0  0  0  0
  5 30  1  0  0  0  0
  6  7  1  0  0  0  0
  6 31  1  0  0  0  0
  6 32  1  0  0  0  0
  7  8  1  0  0  0  0
  7 33  1  0  0  0  0
  8  9  1  0  0  0  0
  8 34  1  0  0  0  0
  9 10  2  0  0  0  0
  9 11  1  0  0  0  0
 11 12  1  0  0  0  0
 11 35  1  0  0  0  0
 11 36  1  0  0  0  0
 12 19  1  0  0  0  0
 12 13  1  0  0  0  0
 13 14  2  0  0  0  0
 14 15  1  0  0  0  0
 14 37  1  0  0  0  0
 15 16  1  0  0  0  0
 15 17  2  0  0  0  0
 17 18  1  0  0  0  0
 17 19  1  0  0  0  0
 19 20  2  0  0  0  0
M  END
> <s_m_source_file>
AV-unprocessed.smi

> <i_m_source_file_index>
2988

> <i_lp_mmshare_version>
43012

> <i_f3d_flags>
0

> <s_epik_input>
W0NIM11bQ0BASF0xW0NIMl1bQ0gyXVtDSDJdW0NIMl1bQ0BIXTFbTkhdQyg9TylbQ0gyXW4ybltjSF1jKENsKWMoQ2wpYzI9Tw==

> <s_epik_cmdline>
J2VwaWtfcHl0aG9uJywgJy1waCcsICc3LjAnLCAnLXRuJywgJzgnLCAnLW1hJywgJzIwMCcsICctbWV0YWxfYmluZGluZycsICctaW1hZScsICc8aW5maWxlLm1hZT4nLCAnLW9tYWUnLCAnPG91dGZpbGUubWFlPic=

> <r_lp_tautomer_probability>
1

> <r_epik_Ionization_Penalty>
1.90782e-08

> <r_epik_Ionization_Penalty_Charging>
3.13143e-11

> <r_epik_Ionization_Penalty_Neutral>
1.90469e-08

> <r_epik_State_Penalty>
-0

> <r_epik_Charging_Adjusted_Penalty>
3.13143e-11

> <i_epik_Tot_Q>
0

> <i_epik_Tot_abs_Q>
0

> <r_epik_Metal_State_Penalty>
-0

> <b_epik_Metal_Only>
0

> <s_lp_Force_Field>
OPLS_2005

> <r_lp_Energy>
24.1537

> <b_lp_Chiralities_Consistent>
1

> <s_lp_Variant>
AV-unprocessed.smi:2988-1

> <Gold.Version>
5.8.1

> <Gold.Id.Protein>
6NUR|6NUR_protein|mol2

> <Gold.PLP.Fitness>
43.0417

> <Gold.PLP.PLP>
-35.1723

> <Gold.PLP.part.hbond>
-2.0000

> <Gold.PLP.part.metal>
0.0000

> <Gold.PLP.part.buried>
-2.1104

> <Gold.PLP.part.nonpolar>
-30.2590

> <Gold.PLP.part.repulsive>
0.2102

> <Gold.PLP.ligand.clash>
0.0000

> <Gold.PLP.ligand.torsion>
0.0882

> <Gold.PLP.Chemscore.Hbond>
1.8000

> <Gold.PLP.Chemscore.CHOScore>
0.8804

> <Gold.PLP.Chemscore.Metal>
0.0000

> <Gold.Chemscore.Hbonds>
donor molecule, donor type, donor heavy atom, donor atom, acceptor molecule, acceptor atom, score
      P1  H  7997  8008       L1    10  0.39
      L1  C    14    37       P1  8028  1.00

> <Gold.PLP.Chemscore.Internal.Correction>
0.0047

> <Gold.Rescore>
     Score         DG    S(hbond)    S(metal)    S(lipo)     H(rot)  DE(clash)    DE(int)     intcor
     15.58     -18.53       1.52        0.00     100.91       1.50       0.28       2.66       ----

> <Gold.Chemscore.Fitness>
15.5842

> <Gold.Chemscore.DG>
-18.5303

> <Gold.Chemscore.ZeroCoef>
-5.4800

> <Gold.Chemscore.Hbond>
1.5205

> <Gold.Chemscore.Metal>
0.0000

> <Gold.Chemscore.Lipo>
100.9057

> <Gold.Chemscore.Internal_Hbond>
0.0000

> <Gold.Chemscore.DEClash>
0.2842

> <Gold.Chemscore.DEInternal>
2.6619

> <Gold.Chemscore.Rot>
1.4977

> <Gold.Chemscore.Internal.Correction>
   9.000000E+99

> <Gold.Chemscore.Hbonds>
donor molecule, donor type, donor heavy atom, donor atom, acceptor molecule, acceptor atom, score
      P1  H  7989  7998       L1    13  0.03
      P1  H  7997  8008       L1    10  0.39

> <Gold.Chemscore.Hbond.Weighted>
-5.0785

> <Gold.Chemscore.Metal.Weighted>
-0.0000

> <Gold.Chemscore.Lipo.Weighted>
-11.8060

> <Gold.Chemscore.Internal_Hbond.Weighted>
0.0000

> <Gold.Chemscore.DEClash.Weighted>
0.2842

> <Gold.Chemscore.DEInternal.Weighted>
2.6619

> <Gold.Chemscore.Rot.Weighted>
3.8341

> <Gold.Chemscore.Internal.Correction.Weighted>
   9.000000E+99

> <Gold.Protein.RotatedTorsions>
[ 6907 6896 6895 6894 ] final  131.35 input  -60.11 | X-H torsion
[ 7974 7965 7964 7962 ] final  -74.65 input  175.53 | X-H torsion
[ 8008 7997 7996 7995 ] final  -61.86 input   59.86 | X-H torsion
[ 10167 10162 10161 10158 ] final -148.07 input  -65.29 | X-H torsion
[ 10718 10713 10712 10709 ] final  -33.15 input   66.30 | X-H torsion
[ 10763 10752 10751 10750 ] final  -12.71 input  -60.55 | X-H torsion
[ 11005 11000 10999 10996 ] final  -95.82 input  -57.11 | X-H torsion

> <Gold.Protein.ActiveResidues>
 VAL166  LYS551  ARG553  GLY616  TRP617  ASP618  TYR619  PRO620  LYS621  CYS622 
 ASP623  PHE694  ASN695  SER759  ASP760  ASP761  ALA762  ILE779  LEU786  VAL792 
 PHE793  MET794  SER795  GLU796  ALA797  LYS798  CYS799  TRP800  GLU811  SER814 

> <Gold.Protein.RotatedAtoms>
  152.3434  133.6094  159.5892 H   0  0  0  0  0  0  0  0  0  0  0  0  # atno 6907 bound_to 6896
  150.7493  133.9686  159.3547 H   0  0  0  0  0  0  0  0  0  0  0  0  # atno 6908 bound_to 6896
  151.7547  135.0825  160.0387 H   0  0  0  0  0  0  0  0  0  0  0  0  # atno 6909 bound_to 6896
  145.6363  140.9323  143.1059 H   0  0  0  0  0  0  0  0  0  0  0  0  # atno 7974 bound_to 7965
  154.4470  140.1008  156.6497 H   0  0  0  0  0  0  0  0  0  0  0  0  # atno 8008 bound_to 7997
  155.5411  140.3483  155.4428 H   0  0  0  0  0  0  0  0  0  0  0  0  # atno 8009 bound_to 7997
  156.0597  140.1323  156.9945 H   0  0  0  0  0  0  0  0  0  0  0  0  # atno 8010 bound_to 7997
  139.7564  143.8441  152.2598 H   0  0  0  0  0  0  0  0  0  0  0  0  # atno 10167 bound_to 10162
  156.3661  130.4332  149.7583 H   0  0  0  0  0  0  0  0  0  0  0  0  # atno 10718 bound_to 10713
  153.5025  135.7017  153.5824 H   0  0  0  0  0  0  0  0  0  0  0  0  # atno 10763 bound_to 10752
  153.3949  135.3886  155.1948 H   0  0  0  0  0  0  0  0  0  0  0  0  # atno 10764 bound_to 10752
  154.8709  135.3867  154.4497 H   0  0  0  0  0  0  0  0  0  0  0  0  # atno 10765 bound_to 10752
  141.1430  133.8054  157.0488 H   0  0  0  0  0  0  0  0  0  0  0  0  # atno 11005 bound_to 11000
  144.7174  139.8148  143.7394 LP  0  0  0  0  0  0  0  0  0  0  0  0  # atno 17320 bound_to 7965
  146.1316  139.4353  143.0165 LP  0  0  0  0  0  0  0  0  0  0  0  0  # atno 17321 bound_to 7965
  139.8434  144.7199  150.9302 LP  0  0  0  0  0  0  0  0  0  0  0  0  # atno 17342 bound_to 10162
  140.7803  143.3963  151.1225 LP  0  0  0  0  0  0  0  0  0  0  0  0  # atno 17343 bound_to 10162
  156.4728  130.8005  151.3022 LP  0  0  0  0  0  0  0  0  0  0  0  0  # atno 17370 bound_to 10713
  157.7479  131.0030  150.3022 LP  0  0  0  0  0  0  0  0  0  0  0  0  # atno 17371 bound_to 10713
  140.0645  134.9736  157.1362 LP  0  0  0  0  0  0  0  0  0  0  0  0  # atno 17394 bound_to 11000
  140.3800  134.2298  155.7171 LP  0  0  0  0  0  0  0  0  0  0  0  0  # atno 17395 bound_to 11000

$$$$
