AV-unprocessed.smi:243|AV-procd|sdf|1849|dock8
  -GOLD-   2262020473D 1   1.00000     0.00000
 Structure written by MMmdl.
 58 61  0  0  0  0  0  0  0  0  2 V2000
  146.0666  132.2863  149.4086 C   0  0  0  0  0  0  0  0  0  0  0  0
  146.0363  131.0855  150.3656 C   0  0  0  0  0  0  0  0  0  0  0  0
  147.0158  131.2117  151.4749 N   0  3  1  0  0  0  0  0  0  0  0  0
  147.1931  132.6232  151.9013 C   0  0  0  0  0  0  0  0  0  0  0  0
  148.2864  132.7700  152.9781 C   0  0  0  0  0  0  0  0  0  0  0  0
  148.1529  131.7920  154.1644 C   0  0  1  0  0  0  0  0  0  0  0  0
  147.2654  132.2765  155.2380 N   0  0  0  0  0  0  0  0  0  0  0  0
  145.8333  131.9995  155.3076 C   0  0  0  0  0  0  0  0  0  0  0  0
  147.8382  132.8278  156.3389 C   0  0  0  0  0  0  0  0  0  0  0  0
  149.0720  133.3836  156.2157 N   0  0  0  0  0  0  0  0  0  0  0  0
  149.6679  133.9455  157.2714 C   0  0  0  0  0  0  0  0  0  0  0  0
  149.2173  134.0571  158.5219 N   0  0  0  0  0  0  0  0  0  0  0  0
  147.9821  133.4947  158.6556 C   0  0  0  0  0  0  0  0  0  0  0  0
  147.2247  132.8687  157.6250 C   0  0  0  0  0  0  0  0  0  0  0  0
  146.0165  132.4126  158.1408 N   0  0  0  0  0  0  0  0  0  0  0  0
  146.0524  132.7606  159.3975 C   0  0  0  0  0  0  0  0  0  0  0  0
  147.2020  133.4039  159.7955 N   0  0  0  0  0  0  0  0  0  0  0  0
  147.5069  133.8941  161.1304 C   0  0  0  0  0  0  0  0  0  0  0  0
  146.5721  135.0333  161.6111 C   0  0  1  0  0  0  0  0  0  0  0  0
  145.2628  134.5314  161.7995 O   0  0  0  0  0  0  0  0  0  0  0  0
  147.0634  135.6694  162.9014 C   0  0  0  0  0  0  0  0  0  0  0  0
  148.0597  136.7185  162.4103 C   0  0  0  0  0  0  0  0  0  0  0  0
  147.6587  137.0566  161.0851 O   0  0  0  0  0  0  0  0  0  0  0  0
  146.5460  136.2608  160.6922 C   0  0  0  0  0  0  0  0  0  0  0  0
  147.8514  130.3571  153.6674 C   0  0  1  0  0  0  0  0  0  0  0  0
  147.6455  129.3438  154.8065 C   0  0  0  0  0  0  0  0  0  0  0  0
  146.7160  130.3198  152.6258 C   0  0  0  0  0  0  0  0  0  0  0  0
  145.2667  132.2072  148.6720 H   0  0  0  0  0  0  0  0  0  0  0  0
  147.0043  132.3502  148.8576 H   0  0  0  0  0  0  0  0  0  0  0  0
  145.9260  133.2238  149.9474 H   0  0  0  0  0  0  0  0  0  0  0  0
  145.0298  131.0221  150.7817 H   0  0  0  0  0  0  0  0  0  0  0  0
  146.2029  130.1545  149.8215 H   0  0  0  0  0  0  0  0  0  0  0  0
  147.4806  133.2240  151.0378 H   0  0  0  0  0  0  0  0  0  0  0  0
  146.2412  133.0273  152.2381 H   0  0  0  0  0  0  0  0  0  0  0  0
  149.2477  132.5825  152.4980 H   0  0  0  0  0  0  0  0  0  0  0  0
  148.3331  133.7992  153.3363 H   0  0  0  0  0  0  0  0  0  0  0  0
  149.1542  131.7252  154.5912 H   0  0  0  0  0  0  0  0  0  0  0  0
  145.3393  132.6688  156.0132 H   0  0  0  0  0  0  0  0  0  0  0  0
  145.6514  130.9763  155.6352 H   0  0  0  0  0  0  0  0  0  0  0  0
  145.3437  132.1472  154.3505 H   0  0  0  0  0  0  0  0  0  0  0  0
  150.6459  134.3659  157.0886 H   0  0  0  0  0  0  0  0  0  0  0  0
  145.2389  132.5484  160.0762 H   0  0  0  0  0  0  0  0  0  0  0  0
  147.4564  133.0513  161.8210 H   0  0  0  0  0  0  0  0  0  0  0  0
  148.5455  134.2268  161.1358 H   0  0  0  0  0  0  0  0  0  0  0  0
  145.2500  133.6214  161.5454 H   0  0  0  0  0  0  0  0  0  0  0  0
  146.2421  136.1738  163.4136 H   0  0  0  0  0  0  0  0  0  0  0  0
  147.5015  134.9571  163.6012 H   0  0  0  0  0  0  0  0  0  0  0  0
  148.0788  137.5983  163.0539 H   0  0  0  0  0  0  0  0  0  0  0  0
  149.0685  136.3066  162.3740 H   0  0  0  0  0  0  0  0  0  0  0  0
  146.5688  136.0267  159.6293 H   0  0  0  0  0  0  0  0  0  0  0  0
  145.6460  136.8511  160.8723 H   0  0  0  0  0  0  0  0  0  0  0  0
  148.7486  130.0288  153.1395 H   0  0  0  0  0  0  0  0  0  0  0  0
  146.7265  129.5353  155.3598 H   0  0  0  0  0  0  0  0  0  0  0  0
  148.4732  129.3775  155.5154 H   0  0  0  0  0  0  0  0  0  0  0  0
  147.5869  128.3263  154.4191 H   0  0  0  0  0  0  0  0  0  0  0  0
  145.7601  130.5964  153.0689 H   0  0  0  0  0  0  0  0  0  0  0  0
  146.6051  129.2945  152.2753 H   0  0  0  0  0  0  0  0  0  0  0  0
  147.9077  130.9181  151.1025 H   0  0  0  0  0  0  0  0  0  0  0  0
  1  2  1  0  0  0  0
  1 28  1  0  0  0  0
  1 29  1  0  0  0  0
  1 30  1  0  0  0  0
  2  3  1  0  0  0  0
  2 31  1  0  0  0  0
  2 32  1  0  0  0  0
  3 27  1  0  0  0  0
  3  4  1  0  0  0  0
  3 58  1  0  0  0  0
  4  5  1  0  0  0  0
  4 33  1  0  0  0  0
  4 34  1  0  0  0  0
  5  6  1  0  0  0  0
  5 35  1  0  0  0  0
  5 36  1  0  0  0  0
  6  7  1  0  0  0  0
  6 25  1  0  0  0  0
  6 37  1  0  0  0  0
  7  8  1  0  0  0  0
  7  9  1  0  0  0  0
  8 38  1  0  0  0  0
  8 39  1  0  0  0  0
  8 40  1  0  0  0  0
  9 14  1  0  0  0  0
  9 10  2  0  0  0  0
 10 11  1  0  0  0  0
 11 12  2  0  0  0  0
 11 41  1  0  0  0  0
 12 13  1  0  0  0  0
 13 17  1  0  0  0  0
 13 14  2  0  0  0  0
 14 15  1  0  0  0  0
 15 16  2  0  0  0  0
 16 17  1  0  0  0  0
 16 42  1  0  0  0  0
 17 18  1  0  0  0  0
 18 19  1  0  0  0  0
 18 43  1  0  0  0  0
 18 44  1  0  0  0  0
 19 24  1  0  0  0  0
 19 20  1  0  0  0  0
 19 21  1  0  0  0  0
 20 45  1  0  0  0  0
 21 22  1  0  0  0  0
 21 46  1  0  0  0  0
 21 47  1  0  0  0  0
 22 23  1  0  0  0  0
 22 48  1  0  0  0  0
 22 49  1  0  0  0  0
 23 24  1  0  0  0  0
 24 50  1  0  0  0  0
 24 51  1  0  0  0  0
 25 26  1  0  0  0  0
 25 27  1  0  0  0  0
 25 52  1  0  0  0  0
 26 53  1  0  0  0  0
 26 54  1  0  0  0  0
 26 55  1  0  0  0  0
 27 56  1  0  0  0  0
 27 57  1  0  0  0  0
M  CHG  1   3   1
M  END
> <s_m_source_file>
AV-unprocessed.smi

> <i_m_source_file_index>
243

> <i_lp_mmshare_version>
43012

> <i_f3d_flags>
0

> <s_epik_input>
W0NIM11bQ0gyXU4xW0NIMl1bQ0gyXVtDQEhdKFtDQEBIXShbQ0gzXSlbQ0gyXTEpTihbQ0gzXSljKG5bY0hdbjIpYyhjMjMpbltjSF1uM1tDSDJdW0NAQF00KFtPSF0pW0NIMl1bQ0gyXU9bQ0gyXTQ=

> <s_epik_cmdline>
J2VwaWtfcHl0aG9uJywgJy1waCcsICc3LjAnLCAnLXRuJywgJzgnLCAnLW1hJywgJzIwMCcsICctbWV0YWxfYmluZGluZycsICctaW1hZScsICc8aW5maWxlLm1hZT4nLCAnLW9tYWUnLCAnPG91dGZpbGUubWFlPic=

> <r_lp_tautomer_probability>
1

> <r_epik_Ionization_Penalty>
0.00253099

> <r_epik_Ionization_Penalty_Charging>
0.00137877

> <r_epik_Ionization_Penalty_Neutral>
0.00115221

> <r_epik_State_Penalty>
-0

> <r_epik_Charging_Adjusted_Penalty>
0.00137877

> <i_epik_Tot_Q>
1

> <i_epik_Tot_abs_Q>
1

> <r_epik_Metal_State_Penalty>
-0

> <b_epik_Metal_Only>
0

> <s_lp_Force_Field>
OPLS_2005

> <r_lp_Energy>
52.4655

> <b_lp_Chiralities_Consistent>
1

> <s_lp_Variant>
AV-unprocessed.smi:243-2

> <Gold.Version>
5.8.1

> <Gold.Id.Protein>
6NUR|6NUR_protein|mol2

> <Gold.PLP.Fitness>
43.4393

> <Gold.PLP.PLP>
-36.2136

> <Gold.PLP.part.hbond>
-3.9877

> <Gold.PLP.part.metal>
0.0000

> <Gold.PLP.part.buried>
-0.7151

> <Gold.PLP.part.nonpolar>
-30.6232

> <Gold.PLP.part.repulsive>
0.0197

> <Gold.PLP.ligand.clash>
0.0000

> <Gold.PLP.ligand.torsion>
1.0194

> <Gold.PLP.Chemscore.Hbond>
2.9920

> <Gold.PLP.Chemscore.CHOScore>
0.0000

> <Gold.PLP.Chemscore.Metal>
0.0000

> <Gold.Chemscore.Hbonds>
donor molecule, donor type, donor heavy atom, donor atom, acceptor molecule, acceptor atom, score
      L1  H     3    58       P1 10747  0.55
      P1  H  6896  6907       L1    12  1.00
      P1  H  6934  6947       L1    23  0.91

> <Gold.PLP.Chemscore.Internal.Correction>
0.2884

> <Gold.Rescore>
     Score         DG    S(hbond)    S(metal)    S(lipo)     H(rot)  DE(clash)    DE(int)     intcor
     15.80     -19.54       2.53        0.00      96.94       2.24       0.48       3.26       ----

> <Gold.Chemscore.Fitness>
15.7986

> <Gold.Chemscore.DG>
-19.5353

> <Gold.Chemscore.ZeroCoef>
-5.4800

> <Gold.Chemscore.Hbond>
2.5277

> <Gold.Chemscore.Metal>
0.0000

> <Gold.Chemscore.Lipo>
96.9396

> <Gold.Chemscore.Internal_Hbond>
0.0000

> <Gold.Chemscore.DEClash>
0.4767

> <Gold.Chemscore.DEInternal>
3.2601

> <Gold.Chemscore.Rot>
2.2379

> <Gold.Chemscore.Internal.Correction>
   9.000000E+99

> <Gold.Chemscore.Hbonds>
donor molecule, donor type, donor heavy atom, donor atom, acceptor molecule, acceptor atom, score
      L1  H     3    58       P1 10747  0.54
      P1  H  6896  6907       L1    12  0.40
      P1  H  6934  6947       L1    23  0.49

> <Gold.Chemscore.Hbond.Weighted>
-8.4425

> <Gold.Chemscore.Metal.Weighted>
-0.0000

> <Gold.Chemscore.Lipo.Weighted>
-11.3419

> <Gold.Chemscore.Internal_Hbond.Weighted>
0.0000

> <Gold.Chemscore.DEClash.Weighted>
0.4767

> <Gold.Chemscore.DEInternal.Weighted>
3.2601

> <Gold.Chemscore.Rot.Weighted>
5.7291

> <Gold.Chemscore.Internal.Correction.Weighted>
   9.000000E+99

> <Gold.Protein.RotatedTorsions>
[ 6907 6896 6895 6894 ] final  -87.98 input  -60.11 | X-H torsion
[ 7974 7965 7964 7962 ] final -135.35 input  175.53 | X-H torsion
[ 8008 7997 7996 7995 ] final  -76.62 input   59.86 | X-H torsion
[ 10167 10162 10161 10158 ] final  -47.63 input  -65.29 | X-H torsion
[ 10718 10713 10712 10709 ] final   87.12 input   66.30 | X-H torsion
[ 10763 10752 10751 10750 ] final -177.71 input  -60.55 | X-H torsion
[ 11005 11000 10999 10996 ] final   15.70 input  -57.11 | X-H torsion

> <Gold.Protein.ActiveResidues>
 VAL166  LYS551  ARG553  GLY616  TRP617  ASP618  TYR619  PRO620  LYS621  CYS622 
 ASP623  PHE694  ASN695  SER759  ASP760  ASP761  ALA762  ILE779  LEU786  VAL792 
 PHE793  MET794  SER795  GLU796  ALA797  LYS798  CYS799  TRP800  GLU811  SER814 

> <Gold.Protein.RotatedAtoms>
  150.6867  134.2812  159.4627 H   0  0  0  0  0  0  0  0  0  0  0  0  # atno 6907 bound_to 6896
  152.0726  134.9521  160.0583 H   0  0  0  0  0  0  0  0  0  0  0  0  # atno 6908 bound_to 6896
  152.0905  133.4163  159.4578 H   0  0  0  0  0  0  0  0  0  0  0  0  # atno 6909 bound_to 6896
  144.9022  140.6786  143.5078 H   0  0  0  0  0  0  0  0  0  0  0  0  # atno 7974 bound_to 7965
  154.5522  140.0724  156.8685 H   0  0  0  0  0  0  0  0  0  0  0  0  # atno 8008 bound_to 7997
  155.2972  140.3382  155.4231 H   0  0  0  0  0  0  0  0  0  0  0  0  # atno 8009 bound_to 7997
  156.1971  140.1707  156.7962 H   0  0  0  0  0  0  0  0  0  0  0  0  # atno 8010 bound_to 7997
  140.6766  143.2776  151.3954 H   0  0  0  0  0  0  0  0  0  0  0  0  # atno 10167 bound_to 10162
  157.6936  131.0243  150.3075 H   0  0  0  0  0  0  0  0  0  0  0  0  # atno 10718 bound_to 10713
  154.5567  135.2817  155.0958 H   0  0  0  0  0  0  0  0  0  0  0  0  # atno 10763 bound_to 10752
  154.2382  135.6361  153.5202 H   0  0  0  0  0  0  0  0  0  0  0  0  # atno 10764 bound_to 10752
  153.0017  135.5553  154.6149 H   0  0  0  0  0  0  0  0  0  0  0  0  # atno 10765 bound_to 10752
  140.4554  134.1181  155.7708 H   0  0  0  0  0  0  0  0  0  0  0  0  # atno 11005 bound_to 11000
  145.3597  139.1685  143.4390 LP  0  0  0  0  0  0  0  0  0  0  0  0  # atno 17320 bound_to 7965
  146.3114  140.3658  142.8669 LP  0  0  0  0  0  0  0  0  0  0  0  0  # atno 17321 bound_to 7965
  139.6063  144.1190  152.2252 LP  0  0  0  0  0  0  0  0  0  0  0  0  # atno 17342 bound_to 10162
  140.0590  144.5871  150.7277 LP  0  0  0  0  0  0  0  0  0  0  0  0  # atno 17343 bound_to 10162
  156.3582  130.3842  149.7273 LP  0  0  0  0  0  0  0  0  0  0  0  0  # atno 17370 bound_to 10713
  156.4728  130.8004  151.3022 LP  0  0  0  0  0  0  0  0  0  0  0  0  # atno 17371 bound_to 10713
  141.1645  133.8729  157.1753 LP  0  0  0  0  0  0  0  0  0  0  0  0  # atno 17394 bound_to 11000
  139.9979  135.0039  157.0125 LP  0  0  0  0  0  0  0  0  0  0  0  0  # atno 17395 bound_to 11000

$$$$
