AV-unprocessed.smi:1417|AV-procd|sdf|5769|dock7
  -GOLD-   22720 5413D 1   1.00000     0.00000
 Structure written by MMmdl.
 39 40  0  0  0  0  0  0  0  0  3 V2000
  153.1238  142.6942  160.8964 C   0  0  0  0  0  0  0  0  0  0  0  0
  152.9638  141.6803  159.8156 C   0  0  0  0  0  0  0  0  0  0  0  0
  152.0376  141.5207  158.8242 C   0  0  0  0  0  0  0  0  0  0  0  0
  152.4760  140.3451  158.1561 C   0  0  0  0  0  0  0  0  0  0  0  0
  151.8884  139.7806  157.0899 N   0  5  0  0  0  0  0  0  0  0  0  0
  151.1132  138.6828  157.2424 C   0  0  0  0  0  0  0  0  0  0  0  0
  150.7767  138.1666  158.3107 O   0  0  0  0  0  0  0  0  0  0  0  0
  150.7019  138.1499  156.0830 N   0  0  0  0  0  0  0  0  0  0  0  0
  149.8608  136.9661  155.9363 C   0  0  2  0  0  0  0  0  0  0  0  0
  150.5788  135.8883  155.1047 C   0  0  0  0  0  0  0  0  0  0  0  0
  149.6639  134.6788  154.8579 C   0  0  0  0  0  0  0  0  0  0  0  0
  148.3944  135.0917  154.2018 N   0  3  1  0  0  0  0  0  0  0  0  0
  147.5336  133.9413  153.8261 C   0  0  0  0  0  0  0  0  0  0  0  0
  148.2850  132.8703  153.0292 C   0  0  0  0  0  0  0  0  0  0  0  0
  147.9288  132.7071  151.7532 N   0  0  0  0  0  0  0  0  0  0  0  0
  149.1834  132.2105  153.5487 O   0  0  0  0  0  0  0  0  0  0  0  0
  147.6665  136.1047  155.0077 C   0  0  0  0  0  0  0  0  0  0  0  0
  148.5380  137.3468  155.2539 C   0  0  0  0  0  0  0  0  0  0  0  0
  153.5810  139.8454  158.6839 N   0  0  0  0  0  0  0  0  0  0  0  0
  153.8967  140.6924  159.7532 O   0  0  0  0  0  0  0  0  0  0  0  0
  153.1638  143.7000  160.4785 H   0  0  0  0  0  0  0  0  0  0  0  0
  154.0409  142.5263  161.4614 H   0  0  0  0  0  0  0  0  0  0  0  0
  152.2857  142.6498  161.5919 H   0  0  0  0  0  0  0  0  0  0  0  0
  151.1806  142.1425  158.6128 H   0  0  0  0  0  0  0  0  0  0  0  0
  151.0024  138.6070  155.2344 H   0  0  0  0  0  0  0  0  0  0  0  0
  149.6305  136.5634  156.9247 H   0  0  0  0  0  0  0  0  0  0  0  0
  150.8938  136.3063  154.1473 H   0  0  0  0  0  0  0  0  0  0  0  0
  151.4872  135.5623  155.6128 H   0  0  0  0  0  0  0  0  0  0  0  0
  150.1911  133.9554  154.2356 H   0  0  0  0  0  0  0  0  0  0  0  0
  149.4421  134.1792  155.8023 H   0  0  0  0  0  0  0  0  0  0  0  0
  147.0764  133.5089  154.7178 H   0  0  0  0  0  0  0  0  0  0  0  0
  146.7163  134.2855  153.1909 H   0  0  0  0  0  0  0  0  0  0  0  0
  148.3896  132.0140  151.1811 H   0  0  0  0  0  0  0  0  0  0  0  0
  147.1939  133.2792  151.3614 H   0  0  0  0  0  0  0  0  0  0  0  0
  146.7566  136.4058  154.4871 H   0  0  0  0  0  0  0  0  0  0  0  0
  147.3594  135.6647  155.9579 H   0  0  0  0  0  0  0  0  0  0  0  0
  147.9926  138.0642  155.8684 H   0  0  0  0  0  0  0  0  0  0  0  0
  148.7384  137.8433  154.3030 H   0  0  0  0  0  0  0  0  0  0  0  0
  148.6468  135.5473  153.3360 H   0  0  0  0  0  0  0  0  0  0  0  0
  1  2  1  0  0  0  0
  1 21  1  0  0  0  0
  1 22  1  0  0  0  0
  1 23  1  0  0  0  0
  2 20  1  0  0  0  0
  2  3  2  0  0  0  0
  3  4  1  0  0  0  0
  3 24  1  0  0  0  0
  4  5  1  0  0  0  0
  4 19  2  0  0  0  0
  5  6  1  0  0  0  0
  6  7  2  0  0  0  0
  6  8  1  0  0  0  0
  8  9  1  0  0  0  0
  8 25  1  0  0  0  0
  9 18  1  0  0  0  0
  9 10  1  0  0  0  0
  9 26  1  0  0  0  0
 10 11  1  0  0  0  0
 10 27  1  0  0  0  0
 10 28  1  0  0  0  0
 11 12  1  0  0  0  0
 11 29  1  0  0  0  0
 11 30  1  0  0  0  0
 12 13  1  0  0  0  0
 12 17  1  0  0  0  0
 12 39  1  0  0  0  0
 13 14  1  0  0  0  0
 13 31  1  0  0  0  0
 13 32  1  0  0  0  0
 14 15  1  0  0  0  0
 14 16  2  0  0  0  0
 15 33  1  0  0  0  0
 15 34  1  0  0  0  0
 17 18  1  0  0  0  0
 17 35  1  0  0  0  0
 17 36  1  0  0  0  0
 18 37  1  0  0  0  0
 18 38  1  0  0  0  0
 19 20  1  0  0  0  0
M  CHG  1   5  -1
M  CHG  1  12   1
M  END
> <s_m_source_file>
AV-unprocessed.smi

> <i_m_source_file_index>
1417

> <i_lp_mmshare_version>
43012

> <i_f3d_flags>
0

> <s_epik_input>
W0NIM11jMVtjSF1jKG5vMSlbTkhdQyg9TylbTkhdW0NIXTJbQ0gyXVtDSDJdTihbQ0gyXVtDSDJdMilbQ0gyXUMoPU8pW05IMl0=

> <s_epik_cmdline>
J2VwaWtfcHl0aG9uJywgJy1waCcsICc3LjAnLCAnLXRuJywgJzgnLCAnLW1hJywgJzIwMCcsICctbWV0YWxfYmluZGluZycsICctaW1hZScsICc8aW5maWxlLm1hZT4nLCAnLW9tYWUnLCAnPG91dGZpbGUubWFlPic=

> <r_epik_Ionization_Penalty>
7.07562

> <r_epik_Ionization_Penalty_Charging>
7.07548

> <r_epik_Ionization_Penalty_Neutral>
0.00013758

> <r_epik_State_Penalty>
7.16607

> <r_epik_Charging_Adjusted_Penalty>
14.2416

> <i_epik_Tot_Q>
0

> <i_epik_Tot_abs_Q>
2

> <r_epik_Metal_State_Penalty>
3.11438

> <b_epik_Metal_Only>
1

> <s_lp_Force_Field>
OPLS_2005

> <r_lp_Energy>
-1.46184

> <b_lp_Chiralities_Consistent>
1

> <s_lp_Variant>
AV-unprocessed.smi:1417-5

> <Gold.Version>
5.8.1

> <Gold.Id.Protein>
6NUR|6NUR_protein|mol2

> <Gold.PLP.Fitness>
37.0367

> <Gold.PLP.PLP>
-26.6006

> <Gold.PLP.part.hbond>
-3.0000

> <Gold.PLP.part.metal>
0.0000

> <Gold.PLP.part.buried>
-4.0374

> <Gold.PLP.part.nonpolar>
-18.7623

> <Gold.PLP.part.repulsive>
0.1955

> <Gold.PLP.ligand.clash>
0.0000

> <Gold.PLP.ligand.torsion>
0.8034

> <Gold.PLP.Chemscore.Hbond>
4.0000

> <Gold.PLP.Chemscore.CHOScore>
0.0000

> <Gold.PLP.Chemscore.Metal>
0.0000

> <Gold.Chemscore.Hbonds>
donor molecule, donor type, donor heavy atom, donor atom, acceptor molecule, acceptor atom, score
      L1  H    12    39       P1  7948  2.00
      L1  H    15    33       P1 10747  1.00
      P1  H  7997  8008       L1    19  1.00

> <Gold.PLP.Chemscore.Internal.Correction>
0.0428

> <Gold.Rescore>
     Score         DG    S(hbond)    S(metal)    S(lipo)     H(rot)  DE(clash)    DE(int)     intcor
     12.90     -15.04       2.70        0.00      48.95       2.02       0.02       2.11       ----

> <Gold.Chemscore.Fitness>
12.8994

> <Gold.Chemscore.DG>
-15.0365

> <Gold.Chemscore.ZeroCoef>
-5.4800

> <Gold.Chemscore.Hbond>
2.6964

> <Gold.Chemscore.Metal>
0.0000

> <Gold.Chemscore.Lipo>
48.9528

> <Gold.Chemscore.Internal_Hbond>
0.0000

> <Gold.Chemscore.DEClash>
0.0234

> <Gold.Chemscore.DEInternal>
2.1137

> <Gold.Chemscore.Rot>
2.0222

> <Gold.Chemscore.Internal.Correction>
   9.000000E+99

> <Gold.Chemscore.Hbonds>
donor molecule, donor type, donor heavy atom, donor atom, acceptor molecule, acceptor atom, score
      L1  H    12    39       P1  7948  0.96
      L1  H    15    33       P1 10747  0.97
      P1  H  7997  8008       L1    19  0.32

> <Gold.Chemscore.Hbond.Weighted>
-9.0059

> <Gold.Chemscore.Metal.Weighted>
-0.0000

> <Gold.Chemscore.Lipo.Weighted>
-5.7275

> <Gold.Chemscore.Internal_Hbond.Weighted>
0.0000

> <Gold.Chemscore.DEClash.Weighted>
0.0234

> <Gold.Chemscore.DEInternal.Weighted>
2.1137

> <Gold.Chemscore.Rot.Weighted>
5.1769

> <Gold.Chemscore.Internal.Correction.Weighted>
   9.000000E+99

> <Gold.Protein.RotatedTorsions>
[ 6907 6896 6895 6894 ] final   70.65 input  -60.11 | X-H torsion
[ 7974 7965 7964 7962 ] final -121.07 input  175.53 | X-H torsion
[ 8008 7997 7996 7995 ] final -108.71 input   59.86 | X-H torsion
[ 10167 10162 10161 10158 ] final   34.61 input  -65.29 | X-H torsion
[ 10718 10713 10712 10709 ] final  126.85 input   66.30 | X-H torsion
[ 10763 10752 10751 10750 ] final -109.77 input  -60.55 | X-H torsion
[ 11005 11000 10999 10996 ] final -162.24 input  -57.11 | X-H torsion

> <Gold.Protein.ActiveResidues>
 VAL166  LYS551  ARG553  GLY616  TRP617  ASP618  TYR619  PRO620  LYS621  CYS622 
 ASP623  PHE694  ASN695  SER759  ASP760  ASP761  ALA762  ILE779  LEU786  VAL792 
 PHE793  MET794  SER795  GLU796  ALA797  LYS798  CYS799  TRP800  GLU811  SER814 

> <Gold.Protein.RotatedAtoms>
  152.4762  134.4836  159.9673 H   0  0  0  0  0  0  0  0  0  0  0  0  # atno 6907 bound_to 6896
  151.4852  133.3531  159.2852 H   0  0  0  0  0  0  0  0  0  0  0  0  # atno 6908 bound_to 6896
  150.8803  134.8220  159.7281 H   0  0  0  0  0  0  0  0  0  0  0  0  # atno 6909 bound_to 6896
  145.0443  140.8169  143.4247 H   0  0  0  0  0  0  0  0  0  0  0  0  # atno 7974 bound_to 7965
  154.9484  140.0401  157.2132 H   0  0  0  0  0  0  0  0  0  0  0  0  # atno 8008 bound_to 7997
  154.8002  140.2850  155.5905 H   0  0  0  0  0  0  0  0  0  0  0  0  # atno 8009 bound_to 7997
  156.2960  140.2556  156.2868 H   0  0  0  0  0  0  0  0  0  0  0  0  # atno 8010 bound_to 7997
  140.4299  144.1340  150.6158 H   0  0  0  0  0  0  0  0  0  0  0  0  # atno 10167 bound_to 10162
  157.5384  131.1097  150.8899 H   0  0  0  0  0  0  0  0  0  0  0  0  # atno 10718 bound_to 10713
  154.8212  135.4588  154.0784 H   0  0  0  0  0  0  0  0  0  0  0  0  # atno 10763 bound_to 10752
  153.2136  135.6885  153.8091 H   0  0  0  0  0  0  0  0  0  0  0  0  # atno 10764 bound_to 10752
  153.7533  135.3295  155.3301 H   0  0  0  0  0  0  0  0  0  0  0  0  # atno 10765 bound_to 10752
  140.6115  134.4844  157.5216 H   0  0  0  0  0  0  0  0  0  0  0  0  # atno 11005 bound_to 11000
  145.1607  139.2460  143.5393 LP  0  0  0  0  0  0  0  0  0  0  0  0  # atno 17320 bound_to 7965
  146.3512  140.1334  142.8596 LP  0  0  0  0  0  0  0  0  0  0  0  0  # atno 17321 bound_to 7965
  140.4439  143.2515  151.9436 LP  0  0  0  0  0  0  0  0  0  0  0  0  # atno 17342 bound_to 10162
  139.4784  144.5628  151.8213 LP  0  0  0  0  0  0  0  0  0  0  0  0  # atno 17343 bound_to 10162
  156.9459  130.5402  149.5281 LP  0  0  0  0  0  0  0  0  0  0  0  0  # atno 17370 bound_to 10713
  156.0477  130.5551  150.8918 LP  0  0  0  0  0  0  0  0  0  0  0  0  # atno 17371 bound_to 10713
  139.9190  134.8187  156.1271 LP  0  0  0  0  0  0  0  0  0  0  0  0  # atno 17394 bound_to 11000
  141.0805  133.6756  156.2326 LP  0  0  0  0  0  0  0  0  0  0  0  0  # atno 17395 bound_to 11000

$$$$
