AV-unprocessed.smi:1698|AV-procd|sdf|6814|dock3
  -GOLD-   22720 7593D 1   1.00000     0.00000
 Structure written by MMmdl.
 28 29  0  0  0  0  0  0  0  0  1 V2000
  146.9184  132.1780  153.0537 O   0  0  0  0  0  0  0  0  0  0  0  0
  147.4018  133.2002  152.5710 C   0  0  0  0  0  0  0  0  0  0  0  0
  146.9239  133.8277  151.4796 N   0  0  0  0  0  0  0  0  0  0  0  0
  145.8102  133.4550  150.6860 C   0  0  0  0  0  0  0  0  0  0  0  0
  145.8480  132.4905  149.6427 C   0  0  0  0  0  0  0  0  0  0  0  0
  144.6594  132.3462  149.0743 N   0  0  0  0  0  0  0  0  0  0  0  0
  143.8635  133.2095  149.7450 N   0  0  0  0  0  0  0  0  0  0  0  0
  144.5210  133.9062  150.7348 C   0  0  0  0  0  0  0  0  0  0  0  0
  148.4850  133.7832  153.1158 N   0  0  0  0  0  0  0  0  0  0  0  0
  149.2446  133.3637  154.2946 C   0  0  1  0  0  0  0  0  0  0  0  0
  150.4780  132.5359  153.8878 C   0  0  0  0  0  0  0  0  0  0  0  0
  151.4193  132.4256  155.0942 C   0  0  0  0  0  0  0  0  0  0  0  0
  151.1765  133.9573  156.0718 S   0  0  0  0  0  0  0  0  0  0  0  0
  150.7398  133.5913  157.4276 O   0  0  0  0  0  0  0  0  0  0  0  0
  152.3145  134.8648  155.8615 O   0  0  0  0  0  0  0  0  0  0  0  0
  149.7388  134.5667  155.1146 C   0  0  0  0  0  0  0  0  0  0  0  0
  142.8844  133.3109  149.5180 H   0  0  0  0  0  0  0  0  0  0  0  0
  147.4145  134.6588  151.1841 H   0  0  0  0  0  0  0  0  0  0  0  0
  146.6808  131.9021  149.2867 H   0  0  0  0  0  0  0  0  0  0  0  0
  144.0228  134.6330  151.3590 H   0  0  0  0  0  0  0  0  0  0  0  0
  148.8282  134.6097  152.6477 H   0  0  0  0  0  0  0  0  0  0  0  0
  148.6247  132.7317  154.9333 H   0  0  0  0  0  0  0  0  0  0  0  0
  150.1996  131.5526  153.5072 H   0  0  0  0  0  0  0  0  0  0  0  0
  151.0051  133.0497  153.0822 H   0  0  0  0  0  0  0  0  0  0  0  0
  151.1446  131.5791  155.7238 H   0  0  0  0  0  0  0  0  0  0  0  0
  152.4662  132.3220  154.8087 H   0  0  0  0  0  0  0  0  0  0  0  0
  150.0888  135.3699  154.4650 H   0  0  0  0  0  0  0  0  0  0  0  0
  148.9837  134.9703  155.7894 H   0  0  0  0  0  0  0  0  0  0  0  0
  1  2  2  0  0  0  0
  2  3  1  0  0  0  0
  2  9  1  0  0  0  0
  3  4  1  0  0  0  0
  3 18  1  0  0  0  0
  4  8  2  0  0  0  0
  4  5  1  0  0  0  0
  5  6  2  0  0  0  0
  5 19  1  0  0  0  0
  6  7  1  0  0  0  0
  7 17  1  0  0  0  0
  7  8  1  0  0  0  0
  8 20  1  0  0  0  0
  9 10  1  0  0  0  0
  9 21  1  0  0  0  0
 10 16  1  0  0  0  0
 10 11  1  0  0  0  0
 10 22  1  0  0  0  0
 11 12  1  0  0  0  0
 11 23  1  0  0  0  0
 11 24  1  0  0  0  0
 12 13  1  0  0  0  0
 12 25  1  0  0  0  0
 12 26  1  0  0  0  0
 13 14  2  0  0  0  0
 13 15  2  0  0  0  0
 13 16  1  0  0  0  0
 16 27  1  0  0  0  0
 16 28  1  0  0  0  0
M  END
> <s_m_source_file>
AV-unprocessed.smi

> <i_m_source_file_index>
1698

> <i_lp_mmshare_version>
43012

> <i_f3d_flags>
0

> <s_epik_input>
Tz1TMSg9TylbQ0gyXVtDSDJdW0NASF0oW0NIMl0xKVtOSF1DKD1PKVtOSF1jMltjSF1uW25IXVtjSF0y

> <s_epik_cmdline>
J2VwaWtfcHl0aG9uJywgJy1waCcsICc3LjAnLCAnLXRuJywgJzgnLCAnLW1hJywgJzIwMCcsICctbWV0YWxfYmluZGluZycsICctaW1hZScsICc8aW5maWxlLm1hZT4nLCAnLW9tYWUnLCAnPG91dGZpbGUubWFlPic=

> <r_lp_tautomer_probability>
1

> <r_epik_Ionization_Penalty>
3.85517e-05

> <r_epik_Ionization_Penalty_Charging>
0

> <r_epik_Ionization_Penalty_Neutral>
3.85517e-05

> <r_epik_State_Penalty>
-0

> <r_epik_Charging_Adjusted_Penalty>
0

> <i_epik_Tot_Q>
0

> <i_epik_Tot_abs_Q>
0

> <r_epik_Metal_State_Penalty>
-0

> <b_epik_Metal_Only>
0

> <s_lp_Force_Field>
OPLS_2005

> <r_lp_Energy>
17.454

> <b_lp_Chiralities_Consistent>
1

> <s_lp_Variant>
AV-unprocessed.smi:1698-2

> <Gold.Version>
5.8.1

> <Gold.Id.Protein>
6NUR|6NUR_protein|mol2

> <Gold.PLP.Fitness>
36.5991

> <Gold.PLP.PLP>
-24.0418

> <Gold.PLP.part.hbond>
-4.8648

> <Gold.PLP.part.metal>
0.0000

> <Gold.PLP.part.buried>
-5.1432

> <Gold.PLP.part.nonpolar>
-15.5327

> <Gold.PLP.part.repulsive>
0.4233

> <Gold.PLP.ligand.clash>
0.0000

> <Gold.PLP.ligand.torsion>
1.0711

> <Gold.PLP.Chemscore.Hbond>
4.0970

> <Gold.PLP.Chemscore.CHOScore>
0.8027

> <Gold.PLP.Chemscore.Metal>
0.0000

> <Gold.Chemscore.Hbonds>
donor molecule, donor type, donor heavy atom, donor atom, acceptor molecule, acceptor atom, score
      L1  H     3    18       P1  7948  0.39
      L1  H     7    17       P1 10186  0.63
      L1  H     9    21       P1  7948  0.45
      P1  H  6896  6909       L1    14  0.58
      P1  H 10752 10764       L1    15  0.28
      L1  C     5    19       P1 10747  0.62

> <Gold.PLP.Chemscore.Internal.Correction>
0.0001

> <Gold.Rescore>
     Score         DG    S(hbond)    S(metal)    S(lipo)     H(rot)  DE(clash)    DE(int)     intcor
     18.16     -19.15       3.39        0.00      41.99       1.00       0.00       0.99       ----

> <Gold.Chemscore.Fitness>
18.1609

> <Gold.Chemscore.DG>
-19.1516

> <Gold.Chemscore.ZeroCoef>
-5.4800

> <Gold.Chemscore.Hbond>
3.3888

> <Gold.Chemscore.Metal>
0.0000

> <Gold.Chemscore.Lipo>
41.9901

> <Gold.Chemscore.Internal_Hbond>
0.0000

> <Gold.Chemscore.DEClash>
0.0000

> <Gold.Chemscore.DEInternal>
0.9907

> <Gold.Chemscore.Rot>
1.0000

> <Gold.Chemscore.Internal.Correction>
   9.000000E+99

> <Gold.Chemscore.Hbonds>
donor molecule, donor type, donor heavy atom, donor atom, acceptor molecule, acceptor atom, score
      L1  H     3    18       P1  7948  0.07
      L1  H     7    17       P1 10186  0.60
      L1  H     9    21       P1  7948  0.02
      P1  H  6896  6909       L1    14  0.58
      P1  H 10752 10764       L1    15  0.29

> <Gold.Chemscore.Hbond.Weighted>
-11.3187

> <Gold.Chemscore.Metal.Weighted>
-0.0000

> <Gold.Chemscore.Lipo.Weighted>
-4.9128

> <Gold.Chemscore.Internal_Hbond.Weighted>
0.0000

> <Gold.Chemscore.DEClash.Weighted>
0.0000

> <Gold.Chemscore.DEInternal.Weighted>
0.9907

> <Gold.Chemscore.Rot.Weighted>
2.5600

> <Gold.Chemscore.Internal.Correction.Weighted>
   9.000000E+99

> <Gold.Protein.RotatedTorsions>
[ 6907 6896 6895 6894 ] final   10.61 input  -60.11 | X-H torsion
[ 7974 7965 7964 7962 ] final  -44.91 input  175.53 | X-H torsion
[ 8008 7997 7996 7995 ] final  -56.06 input   59.86 | X-H torsion
[ 10167 10162 10161 10158 ] final    9.17 input  -65.29 | X-H torsion
[ 10718 10713 10712 10709 ] final   47.95 input   66.30 | X-H torsion
[ 10763 10752 10751 10750 ] final  -26.58 input  -60.55 | X-H torsion
[ 11005 11000 10999 10996 ] final   -8.34 input  -57.11 | X-H torsion

> <Gold.Protein.ActiveResidues>
 VAL166  LYS551  ARG553  GLY616  TRP617  ASP618  TYR619  PRO620  LYS621  CYS622 
 ASP623  PHE694  ASN695  SER759  ASP760  ASP761  ALA762  ILE779  LEU786  VAL792 
 PHE793  MET794  SER795  GLU796  ALA797  LYS798  CYS799  TRP800  GLU811  SER814 

> <Gold.Protein.RotatedAtoms>
  151.7409  135.0854  160.0315 H   0  0  0  0  0  0  0  0  0  0  0  0  # atno 6907 bound_to 6896
  152.3480  133.6141  159.5932 H   0  0  0  0  0  0  0  0  0  0  0  0  # atno 6908 bound_to 6896
  150.7521  133.9535  159.3535 H   0  0  0  0  0  0  0  0  0  0  0  0  # atno 6909 bound_to 6896
  145.9873  140.7219  142.9334 H   0  0  0  0  0  0  0  0  0  0  0  0  # atno 7974 bound_to 7965
  154.4216  140.1138  156.5577 H   0  0  0  0  0  0  0  0  0  0  0  0  # atno 8008 bound_to 7997
  155.6344  140.3496  155.4674 H   0  0  0  0  0  0  0  0  0  0  0  0  # atno 8009 bound_to 7997
  155.9922  140.1182  157.0617 H   0  0  0  0  0  0  0  0  0  0  0  0  # atno 8010 bound_to 7997
  140.6271  143.8077  150.7247 H   0  0  0  0  0  0  0  0  0  0  0  0  # atno 10167 bound_to 10162
  157.4637  130.8212  149.7913 H   0  0  0  0  0  0  0  0  0  0  0  0  # atno 10718 bound_to 10713
  153.7183  135.6946  153.5019 H   0  0  0  0  0  0  0  0  0  0  0  0  # atno 10763 bound_to 10752
  153.2222  135.4366  155.0501 H   0  0  0  0  0  0  0  0  0  0  0  0  # atno 10764 bound_to 10752
  154.8293  135.3463  154.6717 H   0  0  0  0  0  0  0  0  0  0  0  0  # atno 10765 bound_to 10752
  140.7225  133.8817  155.8831 H   0  0  0  0  0  0  0  0  0  0  0  0  # atno 11005 bound_to 11000
  144.6878  140.3010  143.7263 LP  0  0  0  0  0  0  0  0  0  0  0  0  # atno 17320 bound_to 7965
  145.7682  139.1848  143.2228 LP  0  0  0  0  0  0  0  0  0  0  0  0  # atno 17321 bound_to 7965
  140.1680  143.4219  152.2021 LP  0  0  0  0  0  0  0  0  0  0  0  0  # atno 17342 bound_to 10162
  139.5490  144.7322  151.4494 LP  0  0  0  0  0  0  0  0  0  0  0  0  # atno 17343 bound_to 10162
  156.0040  130.3865  150.2498 LP  0  0  0  0  0  0  0  0  0  0  0  0  # atno 17370 bound_to 10713
  157.0677  131.0108  151.3201 LP  0  0  0  0  0  0  0  0  0  0  0  0  # atno 17371 bound_to 10713
  140.9991  134.1174  157.4334 LP  0  0  0  0  0  0  0  0  0  0  0  0  # atno 17394 bound_to 11000
  139.8845  135.0063  156.6372 LP  0  0  0  0  0  0  0  0  0  0  0  0  # atno 17395 bound_to 11000

$$$$
