AV-unprocessed.smi:101|AV-procd|sdf|916|dock4
  -GOLD-   2262017413D 1   1.00000     0.00000
 Structure written by MMmdl.
 44 46  0  0  0  0  0  0  0  0  1 V2000
  144.6549  141.5563  158.3232 C   0  0  0  0  0  0  0  0  0  0  0  0
  144.9069  142.1596  156.9512 C   0  0  0  0  0  0  0  0  0  0  0  0
  145.9474  141.7755  156.1679 C   0  0  0  0  0  0  0  0  0  0  0  0
  146.2029  142.3093  154.9109 N   0  0  0  0  0  0  0  0  0  0  0  0
  147.3727  141.8541  154.0596 C   0  0  1  0  0  0  0  0  0  0  0  0
  148.4964  141.6675  154.8724 O   0  0  0  0  0  0  0  0  0  0  0  0
  148.8414  140.2872  154.9109 C   0  0  2  0  0  0  0  0  0  0  0  0
  150.3286  140.1158  155.2499 C   0  0  0  0  0  0  0  0  0  0  0  0
  150.6615  140.8854  156.3946 O   0  0  0  0  0  0  0  0  0  0  0  0
  151.8276  140.6786  157.0342 C   0  0  0  0  0  0  0  0  0  0  0  0
  152.6301  139.7961  156.7232 O   0  0  0  0  0  0  0  0  0  0  0  0
  152.0456  141.6310  158.1609 C   0  0  0  0  0  0  0  0  0  0  0  0
  152.9212  141.2724  159.2124 C   0  0  0  0  0  0  0  0  0  0  0  0
  153.1446  142.1506  160.2906 C   0  0  0  0  0  0  0  0  0  0  0  0
  152.4950  143.3979  160.3310 C   0  0  0  0  0  0  0  0  0  0  0  0
  151.6215  143.7666  159.2914 C   0  0  0  0  0  0  0  0  0  0  0  0
  151.3971  142.8901  158.2118 C   0  0  0  0  0  0  0  0  0  0  0  0
  148.4093  139.7705  153.5396 C   0  0  1  0  0  0  0  0  0  0  0  0
  148.2726  138.3623  153.4960 O   0  0  0  0  0  0  0  0  0  0  0  0
  147.1007  140.5217  153.3169 C   0  0  1  0  0  0  0  0  0  0  0  0
  145.9818  139.8087  153.8244 O   0  0  0  0  0  0  0  0  0  0  0  0
  145.3389  143.2945  154.3912 C   0  0  0  0  0  0  0  0  0  0  0  0
  145.4909  143.7916  153.2759 O   0  0  0  0  0  0  0  0  0  0  0  0
  144.2730  143.6916  155.1958 N   0  0  0  0  0  0  0  0  0  0  0  0
  143.9847  143.1908  156.4677 C   0  0  0  0  0  0  0  0  0  0  0  0
  143.0120  143.6225  157.0842 O   0  0  0  0  0  0  0  0  0  0  0  0
  143.6536  144.3986  154.8275 H   0  0  0  0  0  0  0  0  0  0  0  0
  145.3906  140.7906  158.5700 H   0  0  0  0  0  0  0  0  0  0  0  0
  143.6675  141.0951  158.3626 H   0  0  0  0  0  0  0  0  0  0  0  0
  144.7044  142.3275  159.0928 H   0  0  0  0  0  0  0  0  0  0  0  0
  146.6024  141.0096  156.5537 H   0  0  0  0  0  0  0  0  0  0  0  0
  147.6017  142.6834  153.3876 H   0  0  0  0  0  0  0  0  0  0  0  0
  148.2388  139.8088  155.6846 H   0  0  0  0  0  0  0  0  0  0  0  0
  150.5485  139.0639  155.4369 H   0  0  0  0  0  0  0  0  0  0  0  0
  150.9406  140.4328  154.4042 H   0  0  0  0  0  0  0  0  0  0  0  0
  153.4313  140.3199  159.2038 H   0  0  0  0  0  0  0  0  0  0  0  0
  153.8154  141.8657  161.0876 H   0  0  0  0  0  0  0  0  0  0  0  0
  152.6669  144.0709  161.1582 H   0  0  0  0  0  0  0  0  0  0  0  0
  151.1218  144.7237  159.3215 H   0  0  0  0  0  0  0  0  0  0  0  0
  150.7204  143.2041  157.4305 H   0  0  0  0  0  0  0  0  0  0  0  0
  149.1254  140.0797  152.7774 H   0  0  0  0  0  0  0  0  0  0  0  0
  148.8010  138.0314  152.7856 H   0  0  0  0  0  0  0  0  0  0  0  0
  146.9274  140.7223  152.2591 H   0  0  0  0  0  0  0  0  0  0  0  0
  145.3051  139.8079  153.1646 H   0  0  0  0  0  0  0  0  0  0  0  0
  1  2  1  0  0  0  0
  1 28  1  0  0  0  0
  1 29  1  0  0  0  0
  1 30  1  0  0  0  0
  2 25  1  0  0  0  0
  2  3  2  0  0  0  0
  3  4  1  0  0  0  0
  3 31  1  0  0  0  0
  4  5  1  0  0  0  0
  4 22  1  0  0  0  0
  5 20  1  0  0  0  0
  5  6  1  0  0  0  0
  5 32  1  0  0  0  0
  6  7  1  0  0  0  0
  7  8  1  0  0  0  0
  7 18  1  0  0  0  0
  7 33  1  0  0  0  0
  8  9  1  0  0  0  0
  8 34  1  0  0  0  0
  8 35  1  0  0  0  0
  9 10  1  0  0  0  0
 10 11  2  0  0  0  0
 10 12  1  0  0  0  0
 12 17  1  0  0  0  0
 12 13  2  0  0  0  0
 13 14  1  0  0  0  0
 13 36  1  0  0  0  0
 14 15  2  0  0  0  0
 14 37  1  0  0  0  0
 15 16  1  0  0  0  0
 15 38  1  0  0  0  0
 16 17  2  0  0  0  0
 16 39  1  0  0  0  0
 17 40  1  0  0  0  0
 18 19  1  0  0  0  0
 18 20  1  0  0  0  0
 18 41  1  0  0  0  0
 19 42  1  0  0  0  0
 20 21  1  0  0  0  0
 20 43  1  0  0  0  0
 21 44  1  0  0  0  0
 22 23  2  0  0  0  0
 22 24  1  0  0  0  0
 24 27  1  0  0  0  0
 24 25  1  0  0  0  0
 25 26  2  0  0  0  0
M  END
> <s_m_source_file>
AV-unprocessed.smi

> <i_m_source_file_index>
101

> <i_lp_mmshare_version>
43012

> <i_f3d_flags>
0

> <s_epik_input>
Tz1jMVtuSF1jKD1PKW4oW2NIXWMxW0NIM10pW0NAQEhdMk9bQ0BIXShbQ0BASF0oW09IXSlbQ0BIXTJbT0hdKVtDSDJdT0MoPU8pYzNbY0hdW2NIXVtjSF1bY0hdW2NIXTM=

> <s_epik_cmdline>
J2VwaWtfcHl0aG9uJywgJy1waCcsICc3LjAnLCAnLXRuJywgJzgnLCAnLW1hJywgJzIwMCcsICctbWV0YWxfYmluZGluZycsICctaW1hZScsICc8aW5maWxlLm1hZT4nLCAnLW9tYWUnLCAnPG91dGZpbGUubWFlPic=

> <r_lp_tautomer_probability>
0.999537

> <r_epik_Ionization_Penalty>
0.00263537

> <r_epik_Ionization_Penalty_Charging>
0.00263428

> <r_epik_Ionization_Penalty_Neutral>
1.09111e-06

> <r_epik_State_Penalty>
0.00183335

> <r_epik_Charging_Adjusted_Penalty>
0.00446763

> <i_epik_Tot_Q>
0

> <i_epik_Tot_abs_Q>
0

> <r_epik_Metal_State_Penalty>
1.00528

> <b_epik_Metal_Only>
0

> <s_epik_Chemistry_Notes>
This compound has an ester and may undergo hydrolysis at high or low pH. This compound contains an acetal/aminal-like group ( X-CH(R)-Y where X, Y are N, S, or O) that may be acid/base labile, releasing an aldehyde.

> <s_lp_Force_Field>
OPLS_2005

> <r_lp_Energy>
40.9392

> <b_lp_Chiralities_Consistent>
1

> <s_lp_Variant>
AV-unprocessed.smi:101-4

> <Gold.Version>
5.8.1

> <Gold.Id.Protein>
6NUR|6NUR_protein|mol2

> <Gold.PLP.Fitness>
51.3246

> <Gold.PLP.PLP>
-44.1208

> <Gold.PLP.part.hbond>
-4.0000

> <Gold.PLP.part.metal>
0.0000

> <Gold.PLP.part.buried>
-3.7521

> <Gold.PLP.part.nonpolar>
-37.7337

> <Gold.PLP.part.repulsive>
0.4408

> <Gold.PLP.ligand.clash>
0.0000

> <Gold.PLP.ligand.torsion>
0.9293

> <Gold.PLP.Chemscore.Hbond>
2.9920

> <Gold.PLP.Chemscore.CHOScore>
0.0000

> <Gold.PLP.Chemscore.Metal>
0.0000

> <Gold.Chemscore.Hbonds>
donor molecule, donor type, donor heavy atom, donor atom, acceptor molecule, acceptor atom, score
      L1  H    19    42       P1  7948  0.70
      L1  H    21    44       P1 10175  1.00
      P1  H  7997  8008       L1    11  1.00

> <Gold.PLP.Chemscore.Internal.Correction>
0.0865

> <Gold.Rescore>
     Score         DG    S(hbond)    S(metal)    S(lipo)     H(rot)  DE(clash)    DE(int)     intcor
     15.45     -17.52       2.92        0.00      92.08       3.32       1.20       0.87       ----

> <Gold.Chemscore.Fitness>
15.4455

> <Gold.Chemscore.DG>
-17.5159

> <Gold.Chemscore.ZeroCoef>
-5.4800

> <Gold.Chemscore.Hbond>
2.9204

> <Gold.Chemscore.Metal>
0.0000

> <Gold.Chemscore.Lipo>
92.0850

> <Gold.Chemscore.Internal_Hbond>
0.0000

> <Gold.Chemscore.DEClash>
1.1961

> <Gold.Chemscore.DEInternal>
0.8743

> <Gold.Chemscore.Rot>
3.3172

> <Gold.Chemscore.Internal.Correction>
   9.000000E+99

> <Gold.Chemscore.Hbonds>
donor molecule, donor type, donor heavy atom, donor atom, acceptor molecule, acceptor atom, score
      L1  H    19    42       P1  7948  0.69
      L1  H    21    44       P1 10175  0.95
      P1  H  7997  8008       L1    11  0.99

> <Gold.Chemscore.Hbond.Weighted>
-9.7540

> <Gold.Chemscore.Metal.Weighted>
-0.0000

> <Gold.Chemscore.Lipo.Weighted>
-10.7739

> <Gold.Chemscore.Internal_Hbond.Weighted>
0.0000

> <Gold.Chemscore.DEClash.Weighted>
1.1961

> <Gold.Chemscore.DEInternal.Weighted>
0.8743

> <Gold.Chemscore.Rot.Weighted>
8.4920

> <Gold.Chemscore.Internal.Correction.Weighted>
   9.000000E+99

> <Gold.Protein.RotatedTorsions>
[ 6907 6896 6895 6894 ] final  -92.74 input  -60.11 | X-H torsion
[ 7974 7965 7964 7962 ] final  -96.72 input  175.53 | X-H torsion
[ 8008 7997 7996 7995 ] final  -44.13 input   59.86 | X-H torsion
[ 10167 10162 10161 10158 ] final -107.11 input  -65.29 | X-H torsion
[ 10718 10713 10712 10709 ] final  109.45 input   66.30 | X-H torsion
[ 10763 10752 10751 10750 ] final  123.04 input  -60.55 | X-H torsion
[ 11005 11000 10999 10996 ] final   50.07 input  -57.11 | X-H torsion

> <Gold.Protein.ActiveResidues>
 VAL166  LYS551  ARG553  GLY616  TRP617  ASP618  TYR619  PRO620  LYS621  CYS622 
 ASP623  PHE694  ASN695  SER759  ASP760  ASP761  ALA762  ILE779  LEU786  VAL792 
 PHE793  MET794  SER795  GLU796  ALA797  LYS798  CYS799  TRP800  GLU811  SER814 

> <Gold.Protein.RotatedAtoms>
  150.6911  134.2075  159.4346 H   0  0  0  0  0  0  0  0  0  0  0  0  # atno 6907 bound_to 6896
  152.0038  134.9911  160.0575 H   0  0  0  0  0  0  0  0  0  0  0  0  # atno 6908 bound_to 6896
  152.1553  133.4512  159.4870 H   0  0  0  0  0  0  0  0  0  0  0  0  # atno 6909 bound_to 6896
  145.3431  140.9463  143.2596 H   0  0  0  0  0  0  0  0  0  0  0  0  # atno 7974 bound_to 7965
  154.3997  140.1430  156.3633 H   0  0  0  0  0  0  0  0  0  0  0  0  # atno 8008 bound_to 7997
  155.8161  140.3471  155.5465 H   0  0  0  0  0  0  0  0  0  0  0  0  # atno 8009 bound_to 7997
  155.8336  140.0916  157.1768 H   0  0  0  0  0  0  0  0  0  0  0  0  # atno 8010 bound_to 7997
  140.1805  143.3971  152.1285 H   0  0  0  0  0  0  0  0  0  0  0  0  # atno 10167 bound_to 10162
  157.6541  131.0914  150.6455 H   0  0  0  0  0  0  0  0  0  0  0  0  # atno 10718 bound_to 10713
  153.6392  135.3382  155.3066 H   0  0  0  0  0  0  0  0  0  0  0  0  # atno 10763 bound_to 10752
  154.8563  135.4314  154.2023 H   0  0  0  0  0  0  0  0  0  0  0  0  # atno 10764 bound_to 10752
  153.2938  135.7019  153.7342 H   0  0  0  0  0  0  0  0  0  0  0  0  # atno 10765 bound_to 10752
  140.1049  134.5031  155.8729 H   0  0  0  0  0  0  0  0  0  0  0  0  # atno 11005 bound_to 11000
  144.8775  139.4951  143.6739 LP  0  0  0  0  0  0  0  0  0  0  0  0  # atno 17320 bound_to 7965
  146.2999  139.7394  142.9099 LP  0  0  0  0  0  0  0  0  0  0  0  0  # atno 17321 bound_to 7965
  139.5298  144.7146  151.5096 LP  0  0  0  0  0  0  0  0  0  0  0  0  # atno 17342 bound_to 10162
  140.6523  143.8671  150.6798 LP  0  0  0  0  0  0  0  0  0  0  0  0  # atno 17343 bound_to 10162
  156.6763  130.4554  149.5641 LP  0  0  0  0  0  0  0  0  0  0  0  0  # atno 17370 bound_to 10713
  156.1961  130.6590  151.1115 LP  0  0  0  0  0  0  0  0  0  0  0  0  # atno 17371 bound_to 10713
  141.2115  133.6708  156.6591 LP  0  0  0  0  0  0  0  0  0  0  0  0  # atno 17394 bound_to 11000
  140.3169  134.8040  157.4221 LP  0  0  0  0  0  0  0  0  0  0  0  0  # atno 17395 bound_to 11000

$$$$
