AV-unprocessed.smi:3105|AV-procd|sdf|11819|dock8
  -GOLD-   2272017193D 1   1.00000     0.00000
 Structure written by MMmdl.
 34 34  0  0  0  0  0  0  0  0  2 V2000
  150.7314  135.7036  155.1169 C   0  0  0  0  0  0  0  0  0  0  0  0
  149.8477  136.9632  155.0267 C   0  0  2  0  0  0  0  0  0  0  0  0
  148.5597  136.6292  154.3743 N   0  3  0  0  0  0  0  0  0  0  0  0
  147.7750  135.5560  155.0243 C   0  0  0  0  0  0  0  0  0  0  0  0
  147.2076  134.5565  153.9971 C   0  0  0  0  0  0  0  0  0  0  0  0
  146.0752  133.6673  154.5297 C   0  0  0  0  0  0  0  0  0  0  0  0
  144.9467  133.6485  153.8171 N   0  0  0  0  0  0  0  0  0  0  0  0
  146.2073  133.0077  155.5594 O   0  0  0  0  0  0  0  0  0  0  0  0
  150.5431  138.1194  154.2560 C   0  0  2  0  0  0  0  0  0  0  0  0
  152.0237  138.3038  154.6379 C   0  0  0  0  0  0  0  0  0  0  0  0
  149.8386  139.3862  154.4262 N   0  0  0  0  0  0  0  0  0  0  0  0
  148.5324  139.6852  154.0972 C   0  0  0  0  0  0  0  0  0  0  0  0
  148.3192  140.9954  154.4168 C   0  0  0  0  0  0  0  0  0  0  0  0
  149.5734  141.4267  154.9308 C   0  0  0  0  0  0  0  0  0  0  0  0
  150.4804  140.4639  154.9327 N   0  0  0  0  0  0  0  0  0  0  0  0
  151.6535  135.8972  155.6636 H   0  0  0  0  0  0  0  0  0  0  0  0
  151.0014  135.3372  154.1261 H   0  0  0  0  0  0  0  0  0  0  0  0
  150.2282  134.8922  155.6418 H   0  0  0  0  0  0  0  0  0  0  0  0
  149.6362  137.3071  156.0405 H   0  0  0  0  0  0  0  0  0  0  0  0
  147.9893  137.4629  154.3884 H   0  0  0  0  0  0  0  0  0  0  0  0
  148.3866  135.0281  155.7560 H   0  0  0  0  0  0  0  0  0  0  0  0
  146.9508  136.0105  155.5752 H   0  0  0  0  0  0  0  0  0  0  0  0
  146.8236  135.1106  153.1394 H   0  0  0  0  0  0  0  0  0  0  0  0
  148.0085  133.9196  153.6189 H   0  0  0  0  0  0  0  0  0  0  0  0
  144.1680  133.0780  154.1139 H   0  0  0  0  0  0  0  0  0  0  0  0
  144.8761  134.2033  152.9756 H   0  0  0  0  0  0  0  0  0  0  0  0
  150.5075  137.8822  153.1914 H   0  0  0  0  0  0  0  0  0  0  0  0
  152.6256  137.4400  154.3579 H   0  0  0  0  0  0  0  0  0  0  0  0
  152.1423  138.4627  155.7103 H   0  0  0  0  0  0  0  0  0  0  0  0
  152.4531  139.1662  154.1268 H   0  0  0  0  0  0  0  0  0  0  0  0
  147.8687  138.9491  153.6676 H   0  0  0  0  0  0  0  0  0  0  0  0
  147.4080  141.5620  154.2954 H   0  0  0  0  0  0  0  0  0  0  0  0
  149.8500  142.4042  155.2981 H   0  0  0  0  0  0  0  0  0  0  0  0
  148.7357  136.3770  153.4119 H   0  0  0  0  0  0  0  0  0  0  0  0
  1  2  1  0  0  0  0
  1 16  1  0  0  0  0
  1 17  1  0  0  0  0
  1 18  1  0  0  0  0
  2  3  1  0  0  0  0
  2  9  1  0  0  0  0
  2 19  1  0  0  0  0
  3  4  1  0  0  0  0
  3 20  1  0  0  0  0
  3 34  1  0  0  0  0
  4  5  1  0  0  0  0
  4 21  1  0  0  0  0
  4 22  1  0  0  0  0
  5  6  1  0  0  0  0
  5 23  1  0  0  0  0
  5 24  1  0  0  0  0
  6  7  1  0  0  0  0
  6  8  2  0  0  0  0
  7 25  1  0  0  0  0
  7 26  1  0  0  0  0
  9 10  1  0  0  0  0
  9 11  1  0  0  0  0
  9 27  1  0  0  0  0
 10 28  1  0  0  0  0
 10 29  1  0  0  0  0
 10 30  1  0  0  0  0
 11 15  1  0  0  0  0
 11 12  1  0  0  0  0
 12 13  2  0  0  0  0
 12 31  1  0  0  0  0
 13 14  1  0  0  0  0
 13 32  1  0  0  0  0
 14 15  2  0  0  0  0
 14 33  1  0  0  0  0
M  CHG  1   3   1
M  END
> <s_m_source_file>
AV-unprocessed.smi

> <i_m_source_file_index>
3105

> <i_lp_mmshare_version>
43012

> <i_f3d_flags>
0

> <s_epik_input>
W05IMl1DKD1PKVtDSDJdW0NIMl1bTkhdW0NAQEhdKFtDSDNdKVtDQEhdKFtDSDNdKW4xW2NIXVtjSF1bY0hdbjE=

> <s_epik_cmdline>
J2VwaWtfcHl0aG9uJywgJy1waCcsICc3LjAnLCAnLXRuJywgJzgnLCAnLW1hJywgJzIwMCcsICctbWV0YWxfYmluZGluZycsICctaW1hZScsICc8aW5maWxlLm1hZT4nLCAnLW9tYWUnLCAnPG91dGZpbGUubWFlPic=

> <r_lp_tautomer_probability>
1

> <r_epik_Ionization_Penalty>
0.00475669

> <r_epik_Ionization_Penalty_Charging>
0.00474654

> <r_epik_Ionization_Penalty_Neutral>
1.01546e-05

> <r_epik_State_Penalty>
-0

> <r_epik_Charging_Adjusted_Penalty>
0.00474654

> <i_epik_Tot_Q>
1

> <i_epik_Tot_abs_Q>
1

> <r_epik_Metal_State_Penalty>
-0

> <b_epik_Metal_Only>
0

> <s_lp_Force_Field>
OPLS_2005

> <r_lp_Energy>
5.41696

> <b_lp_Chiralities_Consistent>
1

> <s_lp_Variant>
AV-unprocessed.smi:3105-1

> <Gold.Version>
5.8.1

> <Gold.Id.Protein>
6NUR|6NUR_protein|mol2

> <Gold.PLP.Fitness>
38.0999

> <Gold.PLP.PLP>
-24.2845

> <Gold.PLP.part.hbond>
-3.0000

> <Gold.PLP.part.metal>
0.0000

> <Gold.PLP.part.buried>
-2.2045

> <Gold.PLP.part.nonpolar>
-19.5439

> <Gold.PLP.part.repulsive>
0.1605

> <Gold.PLP.ligand.clash>
0.0000

> <Gold.PLP.ligand.torsion>
0.6380

> <Gold.PLP.Chemscore.Hbond>
4.0000

> <Gold.PLP.Chemscore.CHOScore>
1.0000

> <Gold.PLP.Chemscore.Metal>
0.0000

> <Gold.Chemscore.Hbonds>
donor molecule, donor type, donor heavy atom, donor atom, acceptor molecule, acceptor atom, score
      L1  H     3    34       P1  7948  2.00
      L1  H     7    25       P1 10957  0.83
      P1  H  7989  7998       L1    15  1.00
      L1  C    14    33       P1  8028  1.00

> <Gold.PLP.Chemscore.Internal.Correction>
0.0913

> <Gold.Rescore>
     Score         DG    S(hbond)    S(metal)    S(lipo)     H(rot)  DE(clash)    DE(int)     intcor
     12.43     -13.28       2.70        0.00      51.78       2.85       0.05       0.80       ----

> <Gold.Chemscore.Fitness>
12.4302

> <Gold.Chemscore.DG>
-13.2799

> <Gold.Chemscore.ZeroCoef>
-5.4800

> <Gold.Chemscore.Hbond>
2.7037

> <Gold.Chemscore.Metal>
0.0000

> <Gold.Chemscore.Lipo>
51.7847

> <Gold.Chemscore.Internal_Hbond>
0.0000

> <Gold.Chemscore.DEClash>
0.0508

> <Gold.Chemscore.DEInternal>
0.7989

> <Gold.Chemscore.Rot>
2.8473

> <Gold.Chemscore.Internal.Correction>
   9.000000E+99

> <Gold.Chemscore.Hbonds>
donor molecule, donor type, donor heavy atom, donor atom, acceptor molecule, acceptor atom, score
      L1  H     3    34       P1  7948  0.96
      L1  H     7    25       P1 10957  0.80
      P1  H  7989  7998       L1    15  0.14

> <Gold.Chemscore.Hbond.Weighted>
-9.0303

> <Gold.Chemscore.Metal.Weighted>
-0.0000

> <Gold.Chemscore.Lipo.Weighted>
-6.0588

> <Gold.Chemscore.Internal_Hbond.Weighted>
0.0000

> <Gold.Chemscore.DEClash.Weighted>
0.0508

> <Gold.Chemscore.DEInternal.Weighted>
0.7989

> <Gold.Chemscore.Rot.Weighted>
7.2892

> <Gold.Chemscore.Internal.Correction.Weighted>
   9.000000E+99

> <Gold.Protein.RotatedTorsions>
[ 6907 6896 6895 6894 ] final -164.85 input  -60.11 | X-H torsion
[ 7974 7965 7964 7962 ] final  -68.86 input  175.53 | X-H torsion
[ 8008 7997 7996 7995 ] final -141.85 input   59.86 | X-H torsion
[ 10167 10162 10161 10158 ] final   89.80 input  -65.29 | X-H torsion
[ 10718 10713 10712 10709 ] final  175.29 input   66.30 | X-H torsion
[ 10763 10752 10751 10750 ] final   79.51 input  -60.55 | X-H torsion
[ 11005 11000 10999 10996 ] final   78.41 input  -57.11 | X-H torsion

> <Gold.Protein.ActiveResidues>
 VAL166  LYS551  ARG553  GLY616  TRP617  ASP618  TYR619  PRO620  LYS621  CYS622 
 ASP623  PHE694  ASN695  SER759  ASP760  ASP761  ALA762  ILE779  LEU786  VAL792 
 PHE793  MET794  SER795  GLU796  ALA797  LYS798  CYS799  TRP800  GLU811  SER814 

> <Gold.Protein.RotatedAtoms>
  151.4184  133.3706  159.2752 H   0  0  0  0  0  0  0  0  0  0  0  0  # atno 6907 bound_to 6896
  150.9312  134.8728  159.7563 H   0  0  0  0  0  0  0  0  0  0  0  0  # atno 6908 bound_to 6896
  152.5029  134.4128  159.9506 H   0  0  0  0  0  0  0  0  0  0  0  0  # atno 6909 bound_to 6896
  145.7111  140.9078  143.0680 H   0  0  0  0  0  0  0  0  0  0  0  0  # atno 7974 bound_to 7965
  155.4845  140.0563  157.2962 H   0  0  0  0  0  0  0  0  0  0  0  0  # atno 8008 bound_to 7997
  154.4647  140.2013  156.0102 H   0  0  0  0  0  0  0  0  0  0  0  0  # atno 8009 bound_to 7997
  156.0953  140.3227  155.7874 H   0  0  0  0  0  0  0  0  0  0  0  0  # atno 8010 bound_to 7997
  139.8536  144.6580  150.9140 H   0  0  0  0  0  0  0  0  0  0  0  0  # atno 10167 bound_to 10162
  156.9371  130.9989  151.2976 H   0  0  0  0  0  0  0  0  0  0  0  0  # atno 10718 bound_to 10713
  153.0958  135.4837  154.8776 H   0  0  0  0  0  0  0  0  0  0  0  0  # atno 10763 bound_to 10752
  154.7323  135.3063  154.8873 H   0  0  0  0  0  0  0  0  0  0  0  0  # atno 10764 bound_to 10752
  153.9505  135.6824  153.4797 H   0  0  0  0  0  0  0  0  0  0  0  0  # atno 10765 bound_to 10752
  139.9214  134.7761  156.1646 H   0  0  0  0  0  0  0  0  0  0  0  0  # atno 11005 bound_to 11000
  144.6941  139.9076  143.7462 LP  0  0  0  0  0  0  0  0  0  0  0  0  # atno 17320 bound_to 7965
  146.0711  139.3700  143.0522 LP  0  0  0  0  0  0  0  0  0  0  0  0  # atno 17321 bound_to 7965
  140.7784  143.3805  151.1485 LP  0  0  0  0  0  0  0  0  0  0  0  0  # atno 17342 bound_to 10162
  139.7441  143.8879  152.3058 LP  0  0  0  0  0  0  0  0  0  0  0  0  # atno 17343 bound_to 10162
  157.5809  130.8376  149.8521 LP  0  0  0  0  0  0  0  0  0  0  0  0  # atno 17370 bound_to 10713
  156.0421  130.3736  150.1409 LP  0  0  0  0  0  0  0  0  0  0  0  0  # atno 17371 bound_to 10713
  141.0737  133.6785  156.2193 LP  0  0  0  0  0  0  0  0  0  0  0  0  # atno 17394 bound_to 11000
  140.6464  134.5113  157.5574 LP  0  0  0  0  0  0  0  0  0  0  0  0  # atno 17395 bound_to 11000

$$$$
