AV-unprocessed.smi:3160|AV-procd|sdf|12051|dock10
  -GOLD-   2272017483D 1   1.00000     0.00000
 Structure written by MMmdl.
 40 41  0  0  0  0  0  0  0  0  2 V2000
  150.2191  135.7449  155.1331 C   0  0  0  0  0  0  0  0  0  0  0  0
  150.2560  137.2413  155.0149 C   0  0  0  0  0  0  0  0  0  0  0  0
  150.9886  138.0271  154.0810 C   0  0  0  0  0  0  0  0  0  0  0  0
  150.8016  139.3266  154.2443 N   0  0  0  0  0  0  0  0  0  0  0  0
  149.9470  139.4193  155.2855 N   0  0  0  0  0  0  0  0  0  0  0  0
  149.5081  140.7303  155.7465 C   0  0  2  0  0  0  0  0  0  0  0  0
  149.0564  141.5783  154.5434 C   0  0  0  0  0  0  0  0  0  0  0  0
  150.5911  141.4303  156.6093 C   0  0  2  0  0  0  0  0  0  0  0  0
  151.1955  140.5129  157.6880 C   0  0  0  0  0  0  0  0  0  0  0  0
  150.0267  142.6305  157.2684 N   0  3  0  0  0  0  0  0  0  0  0  0
  150.8702  143.2316  158.3244 C   0  0  0  0  0  0  0  0  0  0  0  0
  150.0816  144.1093  159.2999 C   0  0  0  0  0  0  0  0  0  0  0  0
  151.1311  145.0363  159.9245 C   0  0  0  0  0  0  0  0  0  0  0  0
  152.3094  145.0810  158.9377 C   0  0  0  0  0  0  0  0  0  0  0  0
  151.9098  144.1950  157.7527 C   0  0  0  0  0  0  0  0  0  0  0  0
  149.6002  138.1730  155.7680 C   0  0  0  0  0  0  0  0  0  0  0  0
  151.0816  135.2799  154.6552 H   0  0  0  0  0  0  0  0  0  0  0  0
  149.3276  135.3268  154.6653 H   0  0  0  0  0  0  0  0  0  0  0  0
  150.2180  135.4227  156.1746 H   0  0  0  0  0  0  0  0  0  0  0  0
  151.6469  137.6924  153.2930 H   0  0  0  0  0  0  0  0  0  0  0  0
  148.6314  140.5733  156.3785 H   0  0  0  0  0  0  0  0  0  0  0  0
  148.6012  142.5160  154.8620 H   0  0  0  0  0  0  0  0  0  0  0  0
  148.3124  141.0467  153.9490 H   0  0  0  0  0  0  0  0  0  0  0  0
  149.8929  141.8204  153.8874 H   0  0  0  0  0  0  0  0  0  0  0  0
  151.4101  141.7296  155.9534 H   0  0  0  0  0  0  0  0  0  0  0  0
  151.7219  139.6639  157.2515 H   0  0  0  0  0  0  0  0  0  0  0  0
  150.4247  140.1210  158.3524 H   0  0  0  0  0  0  0  0  0  0  0  0
  151.9181  141.0534  158.3004 H   0  0  0  0  0  0  0  0  0  0  0  0
  149.8663  143.3260  156.5538 H   0  0  0  0  0  0  0  0  0  0  0  0
  151.3896  142.4460  158.8760 H   0  0  0  0  0  0  0  0  0  0  0  0
  149.3488  144.7071  158.7555 H   0  0  0  0  0  0  0  0  0  0  0  0
  149.5420  143.5301  160.0495 H   0  0  0  0  0  0  0  0  0  0  0  0
  150.7208  146.0289  160.1146 H   0  0  0  0  0  0  0  0  0  0  0  0
  151.4673  144.6350  160.8811 H   0  0  0  0  0  0  0  0  0  0  0  0
  152.5354  146.0981  158.6157 H   0  0  0  0  0  0  0  0  0  0  0  0
  153.2057  144.6850  159.4171 H   0  0  0  0  0  0  0  0  0  0  0  0
  152.7628  143.6783  157.3112 H   0  0  0  0  0  0  0  0  0  0  0  0
  151.4593  144.8148  156.9756 H   0  0  0  0  0  0  0  0  0  0  0  0
  148.9211  138.0522  156.5990 H   0  0  0  0  0  0  0  0  0  0  0  0
  149.1369  142.3855  157.6783 H   0  0  0  0  0  0  0  0  0  0  0  0
  1  2  1  0  0  0  0
  1 17  1  0  0  0  0
  1 18  1  0  0  0  0
  1 19  1  0  0  0  0
  2 16  2  0  0  0  0
  2  3  1  0  0  0  0
  3  4  2  0  0  0  0
  3 20  1  0  0  0  0
  4  5  1  0  0  0  0
  5  6  1  0  0  0  0
  5 16  1  0  0  0  0
  6  7  1  0  0  0  0
  6  8  1  0  0  0  0
  6 21  1  0  0  0  0
  7 22  1  0  0  0  0
  7 23  1  0  0  0  0
  7 24  1  0  0  0  0
  8  9  1  0  0  0  0
  8 10  1  0  0  0  0
  8 25  1  0  0  0  0
  9 26  1  0  0  0  0
  9 27  1  0  0  0  0
  9 28  1  0  0  0  0
 10 11  1  0  0  0  0
 10 29  1  0  0  0  0
 10 40  1  0  0  0  0
 11 15  1  0  0  0  0
 11 12  1  0  0  0  0
 11 30  1  0  0  0  0
 12 13  1  0  0  0  0
 12 31  1  0  0  0  0
 12 32  1  0  0  0  0
 13 14  1  0  0  0  0
 13 33  1  0  0  0  0
 13 34  1  0  0  0  0
 14 15  1  0  0  0  0
 14 35  1  0  0  0  0
 14 36  1  0  0  0  0
 15 37  1  0  0  0  0
 15 38  1  0  0  0  0
 16 39  1  0  0  0  0
M  CHG  1  10   1
M  END
> <s_m_source_file>
AV-unprocessed.smi

> <i_m_source_file_index>
3160

> <i_lp_mmshare_version>
43012

> <i_f3d_flags>
0

> <s_epik_input>
W0NIM11jMVtjSF1ubihbY0hdMSlbQ0BIXShbQ0gzXSlbQ0BIXShbQ0gzXSlbTkhdW0NIXTJbQ0gyXVtDSDJdW0NIMl1bQ0gyXTI=

> <s_epik_cmdline>
J2VwaWtfcHl0aG9uJywgJy1waCcsICc3LjAnLCAnLXRuJywgJzgnLCAnLW1hJywgJzIwMCcsICctbWV0YWxfYmluZGluZycsICctaW1hZScsICc8aW5maWxlLm1hZT4nLCAnLW9tYWUnLCAnPG91dGZpbGUubWFlPic=

> <r_lp_tautomer_probability>
1

> <r_epik_Ionization_Penalty>
0.00117636

> <r_epik_Ionization_Penalty_Charging>
0.00115264

> <r_epik_Ionization_Penalty_Neutral>
2.37123e-05

> <r_epik_State_Penalty>
-0

> <r_epik_Charging_Adjusted_Penalty>
0.00115264

> <i_epik_Tot_Q>
1

> <i_epik_Tot_abs_Q>
1

> <r_epik_Metal_State_Penalty>
-0

> <b_epik_Metal_Only>
0

> <s_lp_Force_Field>
OPLS_2005

> <r_lp_Energy>
32.1139

> <b_lp_Chiralities_Consistent>
1

> <s_lp_Variant>
AV-unprocessed.smi:3160-1

> <Gold.Version>
5.8.1

> <Gold.Id.Protein>
6NUR|6NUR_protein|mol2

> <Gold.PLP.Fitness>
46.2027

> <Gold.PLP.PLP>
-35.9209

> <Gold.PLP.part.hbond>
-2.0000

> <Gold.PLP.part.metal>
0.0000

> <Gold.PLP.part.buried>
-5.7132

> <Gold.PLP.part.nonpolar>
-29.9418

> <Gold.PLP.part.repulsive>
0.1792

> <Gold.PLP.ligand.clash>
0.0000

> <Gold.PLP.ligand.torsion>
0.7983

> <Gold.PLP.Chemscore.Hbond>
3.0000

> <Gold.PLP.Chemscore.CHOScore>
0.9339

> <Gold.PLP.Chemscore.Metal>
0.0000

> <Gold.Chemscore.Hbonds>
donor molecule, donor type, donor heavy atom, donor atom, acceptor molecule, acceptor atom, score
      L1  H    10    29       P1  8028  2.00
      P1  H  7989  7998       L1     4  1.00
      L1  C     3    20       P1  7949  0.97

> <Gold.PLP.Chemscore.Internal.Correction>
0.0768

> <Gold.Rescore>
     Score         DG    S(hbond)    S(metal)    S(lipo)     H(rot)  DE(clash)    DE(int)     intcor
     20.51     -20.80       1.99        0.00     104.07       1.37       0.02       0.27       ----

> <Gold.Chemscore.Fitness>
20.5061

> <Gold.Chemscore.DG>
-20.7993

> <Gold.Chemscore.ZeroCoef>
-5.4800

> <Gold.Chemscore.Hbond>
1.9918

> <Gold.Chemscore.Metal>
0.0000

> <Gold.Chemscore.Lipo>
104.0713

> <Gold.Chemscore.Internal_Hbond>
0.0000

> <Gold.Chemscore.DEClash>
0.0241

> <Gold.Chemscore.DEInternal>
0.2690

> <Gold.Chemscore.Rot>
1.3709

> <Gold.Chemscore.Internal.Correction>
   9.000000E+99

> <Gold.Chemscore.Hbonds>
donor molecule, donor type, donor heavy atom, donor atom, acceptor molecule, acceptor atom, score
      L1  H    10    29       P1  8028  0.98
      P1  H  7989  7998       L1     4  0.99

> <Gold.Chemscore.Hbond.Weighted>
-6.6525

> <Gold.Chemscore.Metal.Weighted>
-0.0000

> <Gold.Chemscore.Lipo.Weighted>
-12.1763

> <Gold.Chemscore.Internal_Hbond.Weighted>
0.0000

> <Gold.Chemscore.DEClash.Weighted>
0.0241

> <Gold.Chemscore.DEInternal.Weighted>
0.2690

> <Gold.Chemscore.Rot.Weighted>
3.5095

> <Gold.Chemscore.Internal.Correction.Weighted>
   9.000000E+99

> <Gold.Protein.RotatedTorsions>
[ 6907 6896 6895 6894 ] final  -24.48 input  -60.11 | X-H torsion
[ 7974 7965 7964 7962 ] final  -17.02 input  175.53 | X-H torsion
[ 8008 7997 7996 7995 ] final   61.71 input   59.86 | X-H torsion
[ 10167 10162 10161 10158 ] final  102.87 input  -65.29 | X-H torsion
[ 10718 10713 10712 10709 ] final  -38.28 input   66.30 | X-H torsion
[ 10763 10752 10751 10750 ] final   66.17 input  -60.55 | X-H torsion
[ 11005 11000 10999 10996 ] final  -65.17 input  -57.11 | X-H torsion

> <Gold.Protein.ActiveResidues>
 VAL166  LYS551  ARG553  GLY616  TRP617  ASP618  TYR619  PRO620  LYS621  CYS622 
 ASP623  PHE694  ASN695  SER759  ASP760  ASP761  ALA762  ILE779  LEU786  VAL792 
 PHE793  MET794  SER795  GLU796  ALA797  LYS798  CYS799  TRP800  GLU811  SER814 

> <Gold.Protein.RotatedAtoms>
  151.1890  135.0394  159.8824 H   0  0  0  0  0  0  0  0  0  0  0  0  # atno 6907 bound_to 6896
  152.5440  134.0978  159.8315 H   0  0  0  0  0  0  0  0  0  0  0  0  # atno 6908 bound_to 6896
  151.1104  133.5130  159.2638 H   0  0  0  0  0  0  0  0  0  0  0  0  # atno 6909 bound_to 6896
  146.1960  140.3720  142.8440 H   0  0  0  0  0  0  0  0  0  0  0  0  # atno 7974 bound_to 7965
  155.6026  140.3494  155.4598 H   0  0  0  0  0  0  0  0  0  0  0  0  # atno 8008 bound_to 7997
  156.0216  140.1255  157.0376 H   0  0  0  0  0  0  0  0  0  0  0  0  # atno 8009 bound_to 7997
  154.4317  140.1061  156.5958 H   0  0  0  0  0  0  0  0  0  0  0  0  # atno 8010 bound_to 7997
  139.7312  144.7035  151.0719 H   0  0  0  0  0  0  0  0  0  0  0  0  # atno 10167 bound_to 10162
  156.3056  130.4245  149.8101 H   0  0  0  0  0  0  0  0  0  0  0  0  # atno 10718 bound_to 10713
  153.0128  135.5330  154.6783 H   0  0  0  0  0  0  0  0  0  0  0  0  # atno 10763 bound_to 10752
  154.5949  135.2862  155.0599 H   0  0  0  0  0  0  0  0  0  0  0  0  # atno 10764 bound_to 10752
  154.1677  135.6537  153.5054 H   0  0  0  0  0  0  0  0  0  0  0  0  # atno 10765 bound_to 10752
  141.1446  133.6677  156.5944 H   0  0  0  0  0  0  0  0  0  0  0  0  # atno 11005 bound_to 11000
  144.8582  140.7101  143.6124 LP  0  0  0  0  0  0  0  0  0  0  0  0  # atno 17320 bound_to 7965
  145.3640  139.1674  143.4368 LP  0  0  0  0  0  0  0  0  0  0  0  0  # atno 17321 bound_to 7965
  140.7771  143.5041  150.9734 LP  0  0  0  0  0  0  0  0  0  0  0  0  # atno 17342 bound_to 10162
  139.8729  143.7169  152.3164 LP  0  0  0  0  0  0  0  0  0  0  0  0  # atno 17343 bound_to 10162
  156.5463  130.8322  151.3285 LP  0  0  0  0  0  0  0  0  0  0  0  0  # atno 17370 bound_to 10713
  157.7378  130.9803  150.2218 LP  0  0  0  0  0  0  0  0  0  0  0  0  # atno 17371 bound_to 10713
  140.3737  134.7583  157.4616 LP  0  0  0  0  0  0  0  0  0  0  0  0  # atno 17394 bound_to 11000
  140.0690  134.5888  155.8662 LP  0  0  0  0  0  0  0  0  0  0  0  0  # atno 17395 bound_to 11000

$$$$
