AV-unprocessed.smi:1046|AV-procd|sdf|4557|dock2
  -GOLD-   22720 2593D 1   1.00000     0.00000
 Structure written by MMmdl.
 54 56  0  0  0  0  0  0  0  0  3 V2000
  153.5520  129.1528  157.1746 C   0  0  0  0  0  0  0  0  0  0  0  0
  152.6266  130.2312  156.6393 C   0  0  0  0  0  0  0  0  0  0  0  0
  152.6011  131.4929  157.2754 C   0  0  0  0  0  0  0  0  0  0  0  0
  151.7555  132.5224  156.8084 C   0  0  0  0  0  0  0  0  0  0  0  0
  151.5670  133.8121  157.2743 N   0  0  0  0  0  0  0  0  0  0  0  0
  150.6548  134.2745  156.4251 C   0  0  0  0  0  0  0  0  0  0  0  0
  150.2199  133.4315  155.4686 N   0  0  0  0  0  0  0  0  0  0  0  0
  149.2242  133.7092  154.4499 C   0  0  0  0  0  0  0  0  0  0  0  0
  148.2558  134.8333  154.8669 C   0  0  1  0  0  0  0  0  0  0  0  0
  148.7459  136.0474  154.3353 O   0  0  0  0  0  0  0  0  0  0  0  0
  146.8087  134.6215  154.3691 C   0  0  0  0  0  0  0  0  0  0  0  0
  146.7029  134.6784  152.8887 N   0  3  2  0  0  0  0  0  0  0  0  0
  145.4462  135.3119  152.4117 C   0  0  0  0  0  0  0  0  0  0  0  0
  145.4297  135.4206  150.8755 C   0  0  0  0  0  0  0  0  0  0  0  0
  145.6262  134.1001  150.2270 N   0  3  2  0  0  0  0  0  0  0  0  0
  144.4132  133.2386  150.2521 C   0  0  0  0  0  0  0  0  0  0  0  0
  144.0481  132.6966  148.8596 C   0  0  0  0  0  0  0  0  0  0  0  0
  143.6107  133.7539  148.0325 O   0  0  0  0  0  0  0  0  0  0  0  0
  146.8673  133.4452  150.7171 C   0  0  0  0  0  0  0  0  0  0  0  0
  146.9102  133.3513  152.2566 C   0  0  0  0  0  0  0  0  0  0  0  0
  150.9295  132.2535  155.6780 C   0  0  0  0  0  0  0  0  0  0  0  0
  150.9460  131.0023  155.0362 C   0  0  0  0  0  0  0  0  0  0  0  0
  151.7966  129.9847  155.5162 C   0  0  0  0  0  0  0  0  0  0  0  0
  151.8093  128.6375  154.8158 C   0  0  0  0  0  0  0  0  0  0  0  0
  154.1268  129.5094  158.0299 H   0  0  0  0  0  0  0  0  0  0  0  0
  154.2577  128.8383  156.4054 H   0  0  0  0  0  0  0  0  0  0  0  0
  152.9792  128.2828  157.4963 H   0  0  0  0  0  0  0  0  0  0  0  0
  153.2339  131.6809  158.1305 H   0  0  0  0  0  0  0  0  0  0  0  0
  150.2740  135.2821  156.5073 H   0  0  0  0  0  0  0  0  0  0  0  0
  149.7457  133.9807  153.5307 H   0  0  0  0  0  0  0  0  0  0  0  0
  148.6773  132.7898  154.2366 H   0  0  0  0  0  0  0  0  0  0  0  0
  148.2765  134.9135  155.9532 H   0  0  0  0  0  0  0  0  0  0  0  0
  148.5369  136.0826  153.4137 H   0  0  0  0  0  0  0  0  0  0  0  0
  146.4581  133.6535  154.7313 H   0  0  0  0  0  0  0  0  0  0  0  0
  146.1316  135.3642  154.7921 H   0  0  0  0  0  0  0  0  0  0  0  0
  144.5888  134.7332  152.7590 H   0  0  0  0  0  0  0  0  0  0  0  0
  145.3403  136.3096  152.8356 H   0  0  0  0  0  0  0  0  0  0  0  0
  144.5028  135.8808  150.5311 H   0  0  0  0  0  0  0  0  0  0  0  0
  146.2333  136.0838  150.5524 H   0  0  0  0  0  0  0  0  0  0  0  0
  144.5488  132.4136  150.9513 H   0  0  0  0  0  0  0  0  0  0  0  0
  143.5630  133.8111  150.6259 H   0  0  0  0  0  0  0  0  0  0  0  0
  144.8813  132.1784  148.3858 H   0  0  0  0  0  0  0  0  0  0  0  0
  143.2368  131.9732  148.9465 H   0  0  0  0  0  0  0  0  0  0  0  0
  144.3657  134.1508  147.6236 H   0  0  0  0  0  0  0  0  0  0  0  0
  146.9909  132.4584  150.2726 H   0  0  0  0  0  0  0  0  0  0  0  0
  147.7168  134.0364  150.3723 H   0  0  0  0  0  0  0  0  0  0  0  0
  147.8781  132.9513  152.5612 H   0  0  0  0  0  0  0  0  0  0  0  0
  146.1563  132.6524  152.6211 H   0  0  0  0  0  0  0  0  0  0  0  0
  150.3112  130.8268  154.1804 H   0  0  0  0  0  0  0  0  0  0  0  0
  151.0993  128.6120  153.9887 H   0  0  0  0  0  0  0  0  0  0  0  0
  151.5415  127.8415  155.5109 H   0  0  0  0  0  0  0  0  0  0  0  0
  152.8002  128.4267  154.4126 H   0  0  0  0  0  0  0  0  0  0  0  0
  147.4669  135.2624  152.5770 H   0  0  0  0  0  0  0  0  0  0  0  0
  145.7739  134.2987  149.2469 H   0  0  0  0  0  0  0  0  0  0  0  0
  1  2  1  0  0  0  0
  1 25  1  0  0  0  0
  1 26  1  0  0  0  0
  1 27  1  0  0  0  0
  2 23  1  0  0  0  0
  2  3  2  0  0  0  0
  3  4  1  0  0  0  0
  3 28  1  0  0  0  0
  4 21  2  0  0  0  0
  4  5  1  0  0  0  0
  5  6  2  0  0  0  0
  6  7  1  0  0  0  0
  6 29  1  0  0  0  0
  7  8  1  0  0  0  0
  7 21  1  0  0  0  0
  8  9  1  0  0  0  0
  8 30  1  0  0  0  0
  8 31  1  0  0  0  0
  9 10  1  0  0  0  0
  9 11  1  0  0  0  0
  9 32  1  0  0  0  0
 10 33  1  0  0  0  0
 11 12  1  0  0  0  0
 11 34  1  0  0  0  0
 11 35  1  0  0  0  0
 12 20  1  0  0  0  0
 12 13  1  0  0  0  0
 12 53  1  0  0  0  0
 13 14  1  0  0  0  0
 13 36  1  0  0  0  0
 13 37  1  0  0  0  0
 14 15  1  0  0  0  0
 14 38  1  0  0  0  0
 14 39  1  0  0  0  0
 15 16  1  0  0  0  0
 15 19  1  0  0  0  0
 15 54  1  0  0  0  0
 16 17  1  0  0  0  0
 16 40  1  0  0  0  0
 16 41  1  0  0  0  0
 17 18  1  0  0  0  0
 17 42  1  0  0  0  0
 17 43  1  0  0  0  0
 18 44  1  0  0  0  0
 19 20  1  0  0  0  0
 19 45  1  0  0  0  0
 19 46  1  0  0  0  0
 20 47  1  0  0  0  0
 20 48  1  0  0  0  0
 21 22  1  0  0  0  0
 22 23  2  0  0  0  0
 22 49  1  0  0  0  0
 23 24  1  0  0  0  0
 24 50  1  0  0  0  0
 24 51  1  0  0  0  0
 24 52  1  0  0  0  0
M  CHG  1  12   1
M  CHG  1  15   1
M  END
> <s_m_source_file>
AV-unprocessed.smi

> <i_m_source_file_index>
1046

> <i_lp_mmshare_version>
43012

> <i_f3d_flags>
0

> <s_epik_input>
W0NIM11jKFtjSF0xKWMoW0NIM10pW2NIXWMoYzEyKW4oW2NIXW4yKVtDSDJdW0NASF0oW09IXSlbQ0gyXU4zW0NIMl1bQ0gyXU4oW0NIMl1bQ0gyXTMpW0NIMl1bQ0gyXVtPSF0=

> <s_epik_cmdline>
J2VwaWtfcHl0aG9uJywgJy1waCcsICc3LjAnLCAnLXRuJywgJzgnLCAnLW1hJywgJzIwMCcsICctbWV0YWxfYmluZGluZycsICctaW1hZScsICc8aW5maWxlLm1hZT4nLCAnLW9tYWUnLCAnPG91dGZpbGUubWFlPic=

> <r_epik_Ionization_Penalty>
3.17398

> <r_epik_Ionization_Penalty_Charging>
3.09061

> <r_epik_Ionization_Penalty_Neutral>
0.0833726

> <r_epik_State_Penalty>
2.17606

> <r_epik_Charging_Adjusted_Penalty>
5.26667

> <i_epik_Tot_Q>
2

> <i_epik_Tot_abs_Q>
2

> <r_epik_Metal_State_Penalty>
2.08587

> <b_epik_Metal_Only>
0

> <s_lp_Force_Field>
OPLS_2005

> <r_lp_Energy>
29.1343

> <b_lp_Chiralities_Consistent>
1

> <s_lp_Variant>
AV-unprocessed.smi:1046-10

> <Gold.Version>
5.8.1

> <Gold.Id.Protein>
6NUR|6NUR_protein|mol2

> <Gold.PLP.Fitness>
57.1721

> <Gold.PLP.PLP>
-41.3459

> <Gold.PLP.part.hbond>
-7.2395

> <Gold.PLP.part.metal>
0.0000

> <Gold.PLP.part.buried>
-4.4921

> <Gold.PLP.part.nonpolar>
-29.7050

> <Gold.PLP.part.repulsive>
0.0843

> <Gold.PLP.ligand.clash>
0.0000

> <Gold.PLP.ligand.torsion>
1.9314

> <Gold.PLP.Chemscore.Hbond>
6.4814

> <Gold.PLP.Chemscore.CHOScore>
0.0000

> <Gold.PLP.Chemscore.Metal>
0.0000

> <Gold.Chemscore.Hbonds>
donor molecule, donor type, donor heavy atom, donor atom, acceptor molecule, acceptor atom, score
      L1  H    10    33       P1  7948  1.00
      L1  H    12    53       P1  7948  2.00
      L1  H    15    54       P1  7921  1.00
      L1  H    18    44       P1  7921  1.00
      P1  H  6896  6908       L1     5  0.31
      P1  H 10192 10197       L1    18  0.28

> <Gold.PLP.Chemscore.Internal.Correction>
0.2450

> <Gold.Rescore>
     Score         DG    S(hbond)    S(metal)    S(lipo)     H(rot)  DE(clash)    DE(int)     intcor
     22.89     -25.25       5.45        0.00      85.16       3.28       0.38       1.97       ----

> <Gold.Chemscore.Fitness>
22.8937

> <Gold.Chemscore.DG>
-25.2477

> <Gold.Chemscore.ZeroCoef>
-5.4800

> <Gold.Chemscore.Hbond>
5.4516

> <Gold.Chemscore.Metal>
0.0000

> <Gold.Chemscore.Lipo>
85.1570

> <Gold.Chemscore.Internal_Hbond>
0.0000

> <Gold.Chemscore.DEClash>
0.3809

> <Gold.Chemscore.DEInternal>
1.9732

> <Gold.Chemscore.Rot>
3.2828

> <Gold.Chemscore.Internal.Correction>
   9.000000E+99

> <Gold.Chemscore.Hbonds>
donor molecule, donor type, donor heavy atom, donor atom, acceptor molecule, acceptor atom, score
      L1  H    10    33       P1  7948  0.94
      L1  H    12    53       P1  7948  1.00
      L1  H    15    54       P1  7921  0.65
      L1  H    18    44       P1  7921  0.98
      P1  H  6896  6908       L1     5  0.05
      P1  H 10192 10197       L1    18  0.05

> <Gold.Chemscore.Hbond.Weighted>
-18.2083

> <Gold.Chemscore.Metal.Weighted>
-0.0000

> <Gold.Chemscore.Lipo.Weighted>
-9.9634

> <Gold.Chemscore.Internal_Hbond.Weighted>
0.0000

> <Gold.Chemscore.DEClash.Weighted>
0.3809

> <Gold.Chemscore.DEInternal.Weighted>
1.9732

> <Gold.Chemscore.Rot.Weighted>
8.4039

> <Gold.Chemscore.Internal.Correction.Weighted>
   9.000000E+99

> <Gold.Protein.RotatedTorsions>
[ 6907 6896 6895 6894 ] final   66.22 input  -60.11 | X-H torsion
[ 7974 7965 7964 7962 ] final -134.04 input  175.53 | X-H torsion
[ 8008 7997 7996 7995 ] final  -77.36 input   59.86 | X-H torsion
[ 10167 10162 10161 10158 ] final   42.56 input  -65.29 | X-H torsion
[ 10718 10713 10712 10709 ] final  -28.27 input   66.30 | X-H torsion
[ 10763 10752 10751 10750 ] final   87.95 input  -60.55 | X-H torsion
[ 11005 11000 10999 10996 ] final  155.42 input  -57.11 | X-H torsion

> <Gold.Protein.ActiveResidues>
 VAL166  LYS551  ARG553  GLY616  TRP617  ASP618  TYR619  PRO620  LYS621  CYS622 
 ASP623  PHE694  ASN695  SER759  ASP760  ASP761  ALA762  ILE779  LEU786  VAL792 
 PHE793  MET794  SER795  GLU796  ALA797  LYS798  CYS799  TRP800  GLU811  SER814 

> <Gold.Protein.RotatedAtoms>
  152.4465  134.5484  159.9859 H   0  0  0  0  0  0  0  0  0  0  0  0  # atno 6907 bound_to 6896
  151.5568  133.3403  159.2971 H   0  0  0  0  0  0  0  0  0  0  0  0  # atno 6908 bound_to 6896
  150.8382  134.7696  159.6974 H   0  0  0  0  0  0  0  0  0  0  0  0  # atno 6909 bound_to 6896
  144.9138  140.6929  143.5008 H   0  0  0  0  0  0  0  0  0  0  0  0  # atno 7974 bound_to 7965
  154.5589  140.0712  156.8787 H   0  0  0  0  0  0  0  0  0  0  0  0  # atno 8008 bound_to 7997
  155.2850  140.3374  155.4238 H   0  0  0  0  0  0  0  0  0  0  0  0  # atno 8009 bound_to 7997
  156.2025  140.1727  156.7855 H   0  0  0  0  0  0  0  0  0  0  0  0  # atno 8010 bound_to 7997
  140.3531  144.2324  150.6144 H   0  0  0  0  0  0  0  0  0  0  0  0  # atno 10167 bound_to 10162
  156.4274  130.4438  149.7141 H   0  0  0  0  0  0  0  0  0  0  0  0  # atno 10718 bound_to 10713
  153.1720  135.4524  154.9915 H   0  0  0  0  0  0  0  0  0  0  0  0  # atno 10763 bound_to 10752
  154.7972  135.3242  154.7640 H   0  0  0  0  0  0  0  0  0  0  0  0  # atno 10764 bound_to 10752
  153.8115  135.6954  153.4895 H   0  0  0  0  0  0  0  0  0  0  0  0  # atno 10765 bound_to 10752
  140.1580  134.8629  157.2539 H   0  0  0  0  0  0  0  0  0  0  0  0  # atno 11005 bound_to 11000
  145.3410  139.1732  143.4486 LP  0  0  0  0  0  0  0  0  0  0  0  0  # atno 17320 bound_to 7965
  146.3172  140.3451  142.8651 LP  0  0  0  0  0  0  0  0  0  0  0  0  # atno 17321 bound_to 7965
  140.5199  143.2268  151.8405 LP  0  0  0  0  0  0  0  0  0  0  0  0  # atno 17342 bound_to 10162
  139.4823  144.4849  151.9260 LP  0  0  0  0  0  0  0  0  0  0  0  0  # atno 17343 bound_to 10162
  156.4058  130.7697  151.2708 LP  0  0  0  0  0  0  0  0  0  0  0  0  # atno 17370 bound_to 10713
  157.7508  131.0226  150.3800 LP  0  0  0  0  0  0  0  0  0  0  0  0  # atno 17371 bound_to 10713
  140.2524  134.3667  155.7437 LP  0  0  0  0  0  0  0  0  0  0  0  0  # atno 17394 bound_to 11000
  141.2206  133.7324  156.8955 LP  0  0  0  0  0  0  0  0  0  0  0  0  # atno 17395 bound_to 11000

$$$$
