AV-unprocessed.smi:1945|AV-procd|sdf|7859|dock1
  -GOLD-   2272010 03D 1   1.00000     0.00000
 Structure written by MMmdl.
 47 48  0  0  0  0  0  0  0  0  1 V2000
  146.6808  134.2175  162.1394 C   0  0  0  0  0  0  0  0  0  0  0  0
  146.8713  135.2363  161.0550 C   0  0  0  0  0  0  0  0  0  0  0  0
  148.0952  135.7066  160.4973 C   0  0  0  0  0  0  0  0  0  0  0  0
  147.6726  136.6139  159.5644 C   0  0  0  0  0  0  0  0  0  0  0  0
  148.4184  137.3764  158.7217 N   0  0  0  0  0  0  0  0  0  0  0  0
  149.7431  137.3246  158.5013 C   0  0  0  0  0  0  0  0  0  0  0  0
  150.5076  136.4698  158.9493 O   0  0  0  0  0  0  0  0  0  0  0  0
  150.1470  138.3534  157.7419 N   0  0  0  0  0  0  0  0  0  0  0  0
  151.5401  138.6927  157.4697 C   0  0  0  0  0  0  0  0  0  0  0  0
  151.6485  140.0856  156.8310 C   0  0  0  0  0  0  0  0  0  0  0  0
  152.2855  140.9633  157.7468 O   0  0  0  0  0  0  0  0  0  0  0  0
  151.4181  141.5999  158.6764 C   0  0  2  0  0  0  0  0  0  0  0  0
  150.5004  142.5445  157.8781 C   0  0  0  0  0  0  0  0  0  0  0  0
  151.2872  143.6961  157.2288 C   0  0  0  0  0  0  0  0  0  0  0  0
  152.1046  144.4724  158.2722 C   0  0  0  0  0  0  0  0  0  0  0  0
  153.0311  143.5369  159.0647 C   0  0  0  0  0  0  0  0  0  0  0  0
  152.2428  142.3875  159.7247 C   0  0  2  0  0  0  0  0  0  0  0  0
  153.1557  141.4870  160.5708 C   0  0  0  0  0  0  0  0  0  0  0  0
  146.2948  136.6591  159.5799 N   0  0  0  0  0  0  0  0  0  0  0  0
  145.3740  137.4529  158.7887 C   0  0  0  0  0  0  0  0  0  0  0  0
  145.8052  135.8059  160.5048 N   0  0  0  0  0  0  0  0  0  0  0  0
  147.6391  133.8580  162.5148 H   0  0  0  0  0  0  0  0  0  0  0  0
  146.1236  133.3548  161.7736 H   0  0  0  0  0  0  0  0  0  0  0  0
  146.1318  134.6384  162.9818 H   0  0  0  0  0  0  0  0  0  0  0  0
  149.1025  135.4135  160.7527 H   0  0  0  0  0  0  0  0  0  0  0  0
  147.9247  138.1381  158.2810 H   0  0  0  0  0  0  0  0  0  0  0  0
  149.4487  138.9987  157.4032 H   0  0  0  0  0  0  0  0  0  0  0  0
  152.1445  138.6344  158.3763 H   0  0  0  0  0  0  0  0  0  0  0  0
  151.9380  137.9453  156.7832 H   0  0  0  0  0  0  0  0  0  0  0  0
  152.2359  140.0377  155.9133 H   0  0  0  0  0  0  0  0  0  0  0  0
  150.6554  140.4482  156.5621 H   0  0  0  0  0  0  0  0  0  0  0  0
  150.7879  140.8656  159.1823 H   0  0  0  0  0  0  0  0  0  0  0  0
  149.9637  141.9831  157.1128 H   0  0  0  0  0  0  0  0  0  0  0  0
  149.7412  142.9576  158.5432 H   0  0  0  0  0  0  0  0  0  0  0  0
  151.9560  143.2992  156.4638 H   0  0  0  0  0  0  0  0  0  0  0  0
  150.6014  144.3716  156.7171 H   0  0  0  0  0  0  0  0  0  0  0  0
  152.6924  145.2486  157.7811 H   0  0  0  0  0  0  0  0  0  0  0  0
  151.4288  144.9843  158.9585 H   0  0  0  0  0  0  0  0  0  0  0  0
  153.7957  143.1322  158.4009 H   0  0  0  0  0  0  0  0  0  0  0  0
  153.5613  144.1110  159.8253 H   0  0  0  0  0  0  0  0  0  0  0  0
  151.5301  142.8410  160.4153 H   0  0  0  0  0  0  0  0  0  0  0  0
  153.9348  141.0244  159.9659 H   0  0  0  0  0  0  0  0  0  0  0  0
  152.5865  140.6910  161.0514 H   0  0  0  0  0  0  0  0  0  0  0  0
  153.6485  142.0597  161.3567 H   0  0  0  0  0  0  0  0  0  0  0  0
  145.9145  138.1670  158.1675 H   0  0  0  0  0  0  0  0  0  0  0  0
  144.7017  138.0025  159.4483 H   0  0  0  0  0  0  0  0  0  0  0  0
  144.7860  136.7983  158.1451 H   0  0  0  0  0  0  0  0  0  0  0  0
  1  2  1  0  0  0  0
  1 22  1  0  0  0  0
  1 23  1  0  0  0  0
  1 24  1  0  0  0  0
  2 21  2  0  0  0  0
  2  3  1  0  0  0  0
  3  4  2  0  0  0  0
  3 25  1  0  0  0  0
  4  5  1  0  0  0  0
  4 19  1  0  0  0  0
  5  6  1  0  0  0  0
  5 26  1  0  0  0  0
  6  7  2  0  0  0  0
  6  8  1  0  0  0  0
  8  9  1  0  0  0  0
  8 27  1  0  0  0  0
  9 10  1  0  0  0  0
  9 28  1  0  0  0  0
  9 29  1  0  0  0  0
 10 11  1  0  0  0  0
 10 30  1  0  0  0  0
 10 31  1  0  0  0  0
 11 12  1  0  0  0  0
 12 17  1  0  0  0  0
 12 13  1  0  0  0  0
 12 32  1  0  0  0  0
 13 14  1  0  0  0  0
 13 33  1  0  0  0  0
 13 34  1  0  0  0  0
 14 15  1  0  0  0  0
 14 35  1  0  0  0  0
 14 36  1  0  0  0  0
 15 16  1  0  0  0  0
 15 37  1  0  0  0  0
 15 38  1  0  0  0  0
 16 17  1  0  0  0  0
 16 39  1  0  0  0  0
 16 40  1  0  0  0  0
 17 18  1  0  0  0  0
 17 41  1  0  0  0  0
 18 42  1  0  0  0  0
 18 43  1  0  0  0  0
 18 44  1  0  0  0  0
 19 20  1  0  0  0  0
 19 21  1  0  0  0  0
 20 45  1  0  0  0  0
 20 46  1  0  0  0  0
 20 47  1  0  0  0  0
M  END
> <s_m_source_file>
AV-unprocessed.smi

> <i_m_source_file_index>
1945

> <i_lp_mmshare_version>
43012

> <i_f3d_flags>
0

> <s_epik_input>
W0NIM11jMVtjSF1jKG4objEpW0NIM10pW05IXUMoPU8pW05IXVtDSDJdW0NIMl1PW0NAQEhdMltDSDJdW0NIMl1bQ0gyXVtDSDJdW0NASF0yW0NIM10=

> <s_epik_cmdline>
J2VwaWtfcHl0aG9uJywgJy1waCcsICc3LjAnLCAnLXRuJywgJzgnLCAnLW1hJywgJzIwMCcsICctbWV0YWxfYmluZGluZycsICctaW1hZScsICc8aW5maWxlLm1hZT4nLCAnLW9tYWUnLCAnPG91dGZpbGUubWFlPic=

> <r_lp_tautomer_probability>
1

> <r_epik_Ionization_Penalty>
9.47735e-05

> <r_epik_Ionization_Penalty_Charging>
0

> <r_epik_Ionization_Penalty_Neutral>
9.47735e-05

> <r_epik_State_Penalty>
-0

> <r_epik_Charging_Adjusted_Penalty>
0

> <i_epik_Tot_Q>
0

> <i_epik_Tot_abs_Q>
0

> <r_epik_Metal_State_Penalty>
-0

> <b_epik_Metal_Only>
0

> <s_lp_Force_Field>
OPLS_2005

> <r_lp_Energy>
12.3815

> <b_lp_Chiralities_Consistent>
1

> <s_lp_Variant>
AV-unprocessed.smi:1945-3

> <Gold.Version>
5.8.1

> <Gold.Id.Protein>
6NUR|6NUR_protein|mol2

> <Gold.PLP.Fitness>
42.0237

> <Gold.PLP.PLP>
-40.0628

> <Gold.PLP.part.hbond>
-1.5139

> <Gold.PLP.part.metal>
0.0000

> <Gold.PLP.part.buried>
-3.3205

> <Gold.PLP.part.nonpolar>
-34.5206

> <Gold.PLP.part.repulsive>
0.2757

> <Gold.PLP.ligand.clash>
0.0000

> <Gold.PLP.ligand.torsion>
0.6237

> <Gold.PLP.Chemscore.Hbond>
1.0000

> <Gold.PLP.Chemscore.CHOScore>
0.0000

> <Gold.PLP.Chemscore.Metal>
0.0000

> <Gold.Chemscore.Hbonds>
donor molecule, donor type, donor heavy atom, donor atom, acceptor molecule, acceptor atom, score
      P1  H  6896  6907       L1     7  1.00

> <Gold.PLP.Chemscore.Internal.Correction>
0.2083

> <Gold.Rescore>
     Score         DG    S(hbond)    S(metal)    S(lipo)     H(rot)  DE(clash)    DE(int)     intcor
     15.52     -17.37       0.99        0.00     109.05       1.63       0.08       1.77       ----

> <Gold.Chemscore.Fitness>
15.5234

> <Gold.Chemscore.DG>
-17.3658

> <Gold.Chemscore.ZeroCoef>
-5.4800

> <Gold.Chemscore.Hbond>
0.9893

> <Gold.Chemscore.Metal>
0.0000

> <Gold.Chemscore.Lipo>
109.0469

> <Gold.Chemscore.Internal_Hbond>
0.0000

> <Gold.Chemscore.DEClash>
0.0751

> <Gold.Chemscore.DEInternal>
1.7673

> <Gold.Chemscore.Rot>
1.6316

> <Gold.Chemscore.Internal.Correction>
   9.000000E+99

> <Gold.Chemscore.Hbonds>
donor molecule, donor type, donor heavy atom, donor atom, acceptor molecule, acceptor atom, score
      P1  H  6896  6907       L1     7  0.95

> <Gold.Chemscore.Hbond.Weighted>
-3.3041

> <Gold.Chemscore.Metal.Weighted>
-0.0000

> <Gold.Chemscore.Lipo.Weighted>
-12.7585

> <Gold.Chemscore.Internal_Hbond.Weighted>
0.0000

> <Gold.Chemscore.DEClash.Weighted>
0.0751

> <Gold.Chemscore.DEInternal.Weighted>
1.7673

> <Gold.Chemscore.Rot.Weighted>
4.1768

> <Gold.Chemscore.Internal.Correction.Weighted>
   9.000000E+99

> <Gold.Protein.RotatedTorsions>
[ 6907 6896 6895 6894 ] final  -47.84 input  -60.11 | X-H torsion
[ 7974 7965 7964 7962 ] final    9.80 input  175.53 | X-H torsion
[ 8008 7997 7996 7995 ] final -114.95 input   59.86 | X-H torsion
[ 10167 10162 10161 10158 ] final   32.03 input  -65.29 | X-H torsion
[ 10718 10713 10712 10709 ] final   49.69 input   66.30 | X-H torsion
[ 10763 10752 10751 10750 ] final   -1.92 input  -60.55 | X-H torsion
[ 11005 11000 10999 10996 ] final  -18.17 input  -57.11 | X-H torsion

> <Gold.Protein.ActiveResidues>
 VAL166  LYS551  ARG553  GLY616  TRP617  ASP618  TYR619  PRO620  LYS621  CYS622 
 ASP623  PHE694  ASN695  SER759  ASP760  ASP761  ALA762  ILE779  LEU786  VAL792 
 PHE793  MET794  SER795  GLU796  ALA797  LYS798  CYS799  TRP800  GLU811  SER814 

> <Gold.Protein.RotatedAtoms>
  150.8966  134.8375  159.7330 H   0  0  0  0  0  0  0  0  0  0  0  0  # atno 6907 bound_to 6896
  152.4868  134.4566  159.9601 H   0  0  0  0  0  0  0  0  0  0  0  0  # atno 6908 bound_to 6896
  151.4622  133.3551  159.2846 H   0  0  0  0  0  0  0  0  0  0  0  0  # atno 6909 bound_to 6896
  146.2398  139.9730  142.8445 H   0  0  0  0  0  0  0  0  0  0  0  0  # atno 7974 bound_to 7965
  155.0443  140.0392  157.2521 H   0  0  0  0  0  0  0  0  0  0  0  0  # atno 8008 bound_to 7997
  154.7190  140.2708  155.6535 H   0  0  0  0  0  0  0  0  0  0  0  0  # atno 8009 bound_to 7997
  156.2811  140.2706  156.1856 H   0  0  0  0  0  0  0  0  0  0  0  0  # atno 8010 bound_to 7997
  140.4536  144.1012  150.6197 H   0  0  0  0  0  0  0  0  0  0  0  0  # atno 10167 bound_to 10162
  157.4812  130.8316  149.8095 H   0  0  0  0  0  0  0  0  0  0  0  0  # atno 10718 bound_to 10713
  153.3512  135.6986  153.6787 H   0  0  0  0  0  0  0  0  0  0  0  0  # atno 10763 bound_to 10752
  153.5513  135.3553  155.2761 H   0  0  0  0  0  0  0  0  0  0  0  0  # atno 10764 bound_to 10752
  154.8653  135.4227  154.2748 H   0  0  0  0  0  0  0  0  0  0  0  0  # atno 10765 bound_to 10752
  140.8241  133.8046  155.9690 H   0  0  0  0  0  0  0  0  0  0  0  0  # atno 11005 bound_to 11000
  145.1663  140.9698  143.4347 LP  0  0  0  0  0  0  0  0  0  0  0  0  # atno 17320 bound_to 7965
  145.0069  139.3546  143.6139 LP  0  0  0  0  0  0  0  0  0  0  0  0  # atno 17321 bound_to 7965
  140.4178  143.2626  151.9753 LP  0  0  0  0  0  0  0  0  0  0  0  0  # atno 17342 bound_to 10162
  139.4799  144.5858  151.7856 LP  0  0  0  0  0  0  0  0  0  0  0  0  # atno 17343 bound_to 10162
  156.0122  130.3828  150.2226 LP  0  0  0  0  0  0  0  0  0  0  0  0  # atno 17370 bound_to 10713
  157.0412  131.0036  151.3283 LP  0  0  0  0  0  0  0  0  0  0  0  0  # atno 17371 bound_to 10713
  140.9067  134.2311  157.5010 LP  0  0  0  0  0  0  0  0  0  0  0  0  # atno 17394 bound_to 11000
  139.8707  134.9731  156.4799 LP  0  0  0  0  0  0  0  0  0  0  0  0  # atno 17395 bound_to 11000

$$$$
