AV-unprocessed.smi:850|AV-procd|sdf|3947|dock1
  -GOLD-   22720 1413D 1   1.00000     0.00000
 Structure written by MMmdl.
 40 42  0  0  0  0  0  0  0  0  1 V2000
  154.1254  140.9646  160.8146 C   0  0  0  0  0  0  0  0  0  0  0  0
  153.1479  141.1626  159.7512 N   0  0  0  0  0  0  0  0  0  0  0  0
  152.6145  140.2149  158.9454 C   0  0  0  0  0  0  0  0  0  0  0  0
  152.8686  139.0109  158.9745 O   0  0  0  0  0  0  0  0  0  0  0  0
  151.7533  140.8237  158.0955 N   0  0  0  0  0  0  0  0  0  0  0  0
  150.9540  140.1763  157.0568 C   0  0  0  0  0  0  0  0  0  0  0  0
  151.8024  139.2206  156.1939 C   0  0  2  0  0  0  0  0  0  0  0  0
  152.9734  139.8993  155.7865 O   0  0  0  0  0  0  0  0  0  0  0  0
  151.0632  138.7818  154.9209 C   0  0  0  0  0  0  0  0  0  0  0  0
  150.4591  139.9236  154.3269 O   0  0  0  0  0  0  0  0  0  0  0  0
  149.0985  140.0908  154.4658 C   0  0  0  0  0  0  0  0  0  0  0  0
  148.6114  141.4142  154.4394 C   0  0  0  0  0  0  0  0  0  0  0  0
  147.2346  141.6784  154.5712 C   0  0  0  0  0  0  0  0  0  0  0  0
  146.3269  140.6158  154.7322 C   0  0  0  0  0  0  0  0  0  0  0  0
  146.7988  139.2904  154.7617 C   0  0  0  0  0  0  0  0  0  0  0  0
  148.1762  139.0261  154.6304 C   0  0  0  0  0  0  0  0  0  0  0  0
  151.7413  142.2006  158.3615 C   0  0  0  0  0  0  0  0  0  0  0  0
  151.0330  143.2561  157.7602 C   0  0  0  0  0  0  0  0  0  0  0  0
  151.2513  144.5561  158.2739 C   0  0  0  0  0  0  0  0  0  0  0  0
  152.1505  144.7718  159.3506 C   0  0  0  0  0  0  0  0  0  0  0  0
  152.8525  143.6917  159.9355 C   0  0  0  0  0  0  0  0  0  0  0  0
  152.6175  142.4117  159.4052 C   0  0  0  0  0  0  0  0  0  0  0  0
  154.4268  139.9204  160.9074 H   0  0  0  0  0  0  0  0  0  0  0  0
  153.7095  141.2813  161.7714 H   0  0  0  0  0  0  0  0  0  0  0  0
  155.0196  141.5565  160.6181 H   0  0  0  0  0  0  0  0  0  0  0  0
  150.1625  139.6151  157.5563 H   0  0  0  0  0  0  0  0  0  0  0  0
  150.4388  140.9130  156.4394 H   0  0  0  0  0  0  0  0  0  0  0  0
  152.0914  138.3333  156.7592 H   0  0  0  0  0  0  0  0  0  0  0  0
  153.0071  139.8968  154.8421 H   0  0  0  0  0  0  0  0  0  0  0  0
  151.7603  138.3049  154.2296 H   0  0  0  0  0  0  0  0  0  0  0  0
  150.2870  138.0574  155.1746 H   0  0  0  0  0  0  0  0  0  0  0  0
  149.3017  142.2357  154.3152 H   0  0  0  0  0  0  0  0  0  0  0  0
  146.8757  142.6969  154.5486 H   0  0  0  0  0  0  0  0  0  0  0  0
  145.2705  140.8171  154.8333 H   0  0  0  0  0  0  0  0  0  0  0  0
  146.1032  138.4736  154.8857 H   0  0  0  0  0  0  0  0  0  0  0  0
  148.5001  137.9968  154.6594 H   0  0  0  0  0  0  0  0  0  0  0  0
  150.3511  143.0882  156.9399 H   0  0  0  0  0  0  0  0  0  0  0  0
  150.7268  145.3951  157.8410 H   0  0  0  0  0  0  0  0  0  0  0  0
  152.3013  145.7727  159.7275 H   0  0  0  0  0  0  0  0  0  0  0  0
  153.5396  143.8470  160.7541 H   0  0  0  0  0  0  0  0  0  0  0  0
  1  2  1  0  0  0  0
  1 23  1  0  0  0  0
  1 24  1  0  0  0  0
  1 25  1  0  0  0  0
  2 22  1  0  0  0  0
  2  3  1  0  0  0  0
  3  4  2  0  0  0  0
  3  5  1  0  0  0  0
  5  6  1  0  0  0  0
  5 17  1  0  0  0  0
  6  7  1  0  0  0  0
  6 26  1  0  0  0  0
  6 27  1  0  0  0  0
  7  8  1  0  0  0  0
  7  9  1  0  0  0  0
  7 28  1  0  0  0  0
  8 29  1  0  0  0  0
  9 10  1  0  0  0  0
  9 30  1  0  0  0  0
  9 31  1  0  0  0  0
 10 11  1  0  0  0  0
 11 16  1  0  0  0  0
 11 12  2  0  0  0  0
 12 13  1  0  0  0  0
 12 32  1  0  0  0  0
 13 14  2  0  0  0  0
 13 33  1  0  0  0  0
 14 15  1  0  0  0  0
 14 34  1  0  0  0  0
 15 16  2  0  0  0  0
 15 35  1  0  0  0  0
 16 36  1  0  0  0  0
 17 22  2  0  0  0  0
 17 18  1  0  0  0  0
 18 19  2  0  0  0  0
 18 37  1  0  0  0  0
 19 20  1  0  0  0  0
 19 38  1  0  0  0  0
 20 21  2  0  0  0  0
 20 39  1  0  0  0  0
 21 22  1  0  0  0  0
 21 40  1  0  0  0  0
M  END
> <s_m_source_file>
AV-unprocessed.smi

> <i_m_source_file_index>
850

> <i_lp_mmshare_version>
43012

> <i_f3d_flags>
0

> <s_epik_input>
W2NIXTFbY0hdW2NIXVtjSF1jKGMxMiluKFtDSDNdKWMoPU8pbjJbQ0gyXVtDQEhdKFtPSF0pW0NIMl1PYzNbY0hdW2NIXVtjSF1bY0hdW2NIXTM=

> <s_epik_cmdline>
J2VwaWtfcHl0aG9uJywgJy1waCcsICc3LjAnLCAnLXRuJywgJzgnLCAnLW1hJywgJzIwMCcsICctbWV0YWxfYmluZGluZycsICctaW1hZScsICc8aW5maWxlLm1hZT4nLCAnLW9tYWUnLCAnPG91dGZpbGUubWFlPic=

> <r_lp_tautomer_probability>
1

> <r_epik_Ionization_Penalty>
2.40205e-06

> <r_epik_Ionization_Penalty_Charging>
2.75209e-09

> <r_epik_Ionization_Penalty_Neutral>
2.3993e-06

> <r_epik_State_Penalty>
-0

> <r_epik_Charging_Adjusted_Penalty>
2.75209e-09

> <i_epik_Tot_Q>
0

> <i_epik_Tot_abs_Q>
0

> <r_epik_Metal_State_Penalty>
-0

> <b_epik_Metal_Only>
0

> <s_lp_Force_Field>
OPLS_2005

> <r_lp_Energy>
46.059

> <b_lp_Chiralities_Consistent>
1

> <s_lp_Variant>
AV-unprocessed.smi:850-1

> <Gold.Version>
5.8.1

> <Gold.Id.Protein>
6NUR|6NUR_protein|mol2

> <Gold.PLP.Fitness>
54.2376

> <Gold.PLP.PLP>
-50.1109

> <Gold.PLP.part.hbond>
-1.8203

> <Gold.PLP.part.metal>
0.0000

> <Gold.PLP.part.buried>
-4.9011

> <Gold.PLP.part.nonpolar>
-42.5740

> <Gold.PLP.part.repulsive>
0.1331

> <Gold.PLP.ligand.clash>
0.0000

> <Gold.PLP.ligand.torsion>
0.9848

> <Gold.PLP.Chemscore.Hbond>
2.0000

> <Gold.PLP.Chemscore.CHOScore>
0.0000

> <Gold.PLP.Chemscore.Metal>
0.0000

> <Gold.Chemscore.Hbonds>
donor molecule, donor type, donor heavy atom, donor atom, acceptor molecule, acceptor atom, score
      P1  H  7989  7998       L1    10  1.00
      P1  H  7997  8009       L1     8  0.83

> <Gold.PLP.Chemscore.Internal.Correction>
0.0963

> <Gold.Rescore>
     Score         DG    S(hbond)    S(metal)    S(lipo)     H(rot)  DE(clash)    DE(int)     intcor
     19.36     -21.56       1.77        0.00     133.33       2.12       0.17       2.03       ----

> <Gold.Chemscore.Fitness>
19.3592

> <Gold.Chemscore.DG>
-21.5550

> <Gold.Chemscore.ZeroCoef>
-5.4800

> <Gold.Chemscore.Hbond>
1.7659

> <Gold.Chemscore.Metal>
0.0000

> <Gold.Chemscore.Lipo>
133.3346

> <Gold.Chemscore.Internal_Hbond>
0.0000

> <Gold.Chemscore.DEClash>
0.1681

> <Gold.Chemscore.DEInternal>
2.0278

> <Gold.Chemscore.Rot>
2.1184

> <Gold.Chemscore.Internal.Correction>
   9.000000E+99

> <Gold.Chemscore.Hbonds>
donor molecule, donor type, donor heavy atom, donor atom, acceptor molecule, acceptor atom, score
      P1  H  7989  7998       L1    10  0.78
      P1  H  7997  8009       L1     8  0.73

> <Gold.Chemscore.Hbond.Weighted>
-5.8980

> <Gold.Chemscore.Metal.Weighted>
-0.0000

> <Gold.Chemscore.Lipo.Weighted>
-15.6001

> <Gold.Chemscore.Internal_Hbond.Weighted>
0.0000

> <Gold.Chemscore.DEClash.Weighted>
0.1681

> <Gold.Chemscore.DEInternal.Weighted>
2.0278

> <Gold.Chemscore.Rot.Weighted>
5.4231

> <Gold.Chemscore.Internal.Correction.Weighted>
   9.000000E+99

> <Gold.Protein.RotatedTorsions>
[ 6907 6896 6895 6894 ] final   34.27 input  -60.11 | X-H torsion
[ 7974 7965 7964 7962 ] final -132.55 input  175.53 | X-H torsion
[ 8008 7997 7996 7995 ] final -175.40 input   59.86 | X-H torsion
[ 10167 10162 10161 10158 ] final  -58.10 input  -65.29 | X-H torsion
[ 10718 10713 10712 10709 ] final  -14.06 input   66.30 | X-H torsion
[ 10763 10752 10751 10750 ] final   65.96 input  -60.55 | X-H torsion
[ 11005 11000 10999 10996 ] final  -78.73 input  -57.11 | X-H torsion

> <Gold.Protein.ActiveResidues>
 VAL166  LYS551  ARG553  GLY616  TRP617  ASP618  TYR619  PRO620  LYS621  CYS622 
 ASP623  PHE694  ASN695  SER759  ASP760  ASP761  ALA762  ILE779  LEU786  VAL792 
 PHE793  MET794  SER795  GLU796  ALA797  LYS798  CYS799  TRP800  GLU811  SER814 

> <Gold.Protein.RotatedAtoms>
  152.1001  134.9347  160.0569 H   0  0  0  0  0  0  0  0  0  0  0  0  # atno 6907 bound_to 6896
  152.0565  133.4038  159.4408 H   0  0  0  0  0  0  0  0  0  0  0  0  # atno 6908 bound_to 6896
  150.6839  134.3169  159.4813 H   0  0  0  0  0  0  0  0  0  0  0  0  # atno 6909 bound_to 6896
  144.9275  140.7089  143.4927 H   0  0  0  0  0  0  0  0  0  0  0  0  # atno 7974 bound_to 7965
  155.9821  140.1184  157.0716 H   0  0  0  0  0  0  0  0  0  0  0  0  # atno 8008 bound_to 7997
  154.4186  140.1142  156.5518 H   0  0  0  0  0  0  0  0  0  0  0  0  # atno 8009 bound_to 7997
  155.6456  140.3473  155.4732 H   0  0  0  0  0  0  0  0  0  0  0  0  # atno 8010 bound_to 7997
  140.6218  143.2422  151.5462 H   0  0  0  0  0  0  0  0  0  0  0  0  # atno 10167 bound_to 10162
  156.6213  130.4876  149.6163 H   0  0  0  0  0  0  0  0  0  0  0  0  # atno 10718 bound_to 10713
  153.0119  135.5338  154.6748 H   0  0  0  0  0  0  0  0  0  0  0  0  # atno 10763 bound_to 10752
  154.5924  135.2860  155.0624 H   0  0  0  0  0  0  0  0  0  0  0  0  # atno 10764 bound_to 10752
  154.1712  135.6531  153.5062 H   0  0  0  0  0  0  0  0  0  0  0  0  # atno 10765 bound_to 10752
  141.1665  133.7076  156.8016 H   0  0  0  0  0  0  0  0  0  0  0  0  # atno 11005 bound_to 11000
  145.3196  139.1793  143.4595 LP  0  0  0  0  0  0  0  0  0  0  0  0  # atno 17320 bound_to 7965
  146.3232  140.3211  142.8633 LP  0  0  0  0  0  0  0  0  0  0  0  0  # atno 17321 bound_to 7965
  139.5445  144.2558  152.1416 LP  0  0  0  0  0  0  0  0  0  0  0  0  # atno 17342 bound_to 10162
  140.1779  144.4872  150.6544 LP  0  0  0  0  0  0  0  0  0  0  0  0  # atno 17343 bound_to 10162
  156.2309  130.6794  151.1462 LP  0  0  0  0  0  0  0  0  0  0  0  0  # atno 17370 bound_to 10713
  157.7227  131.0671  150.6068 LP  0  0  0  0  0  0  0  0  0  0  0  0  # atno 17371 bound_to 10713
  140.2252  134.8727  157.3419 LP  0  0  0  0  0  0  0  0  0  0  0  0  # atno 17394 bound_to 11000
  140.1947  134.4328  155.7696 LP  0  0  0  0  0  0  0  0  0  0  0  0  # atno 17395 bound_to 11000

$$$$
