AV-unprocessed.smi:1063|AV-procd|sdf|4663|dock3
  -GOLD-   22720 3173D 1   1.00000     0.00000
 Structure written by MMmdl.
 38 39  0  0  0  0  0  0  0  0  1 V2000
  153.1396  142.1807  159.1498 C   0  0  0  0  0  0  0  0  0  0  0  0
  152.3566  140.9877  158.5960 C   0  0  0  0  0  0  0  0  0  0  0  0
  151.5804  141.3819  157.0021 S   0  0  0  0  0  0  0  0  0  0  0  0
  151.1386  139.8502  156.2380 C   0  0  0  0  0  0  0  0  0  0  0  0
  151.5796  138.6298  156.7842 C   0  0  0  0  0  0  0  0  0  0  0  0
  151.1966  137.4374  156.1411 C   0  0  0  0  0  0  0  0  0  0  0  0
  150.4001  137.5073  154.9792 C   0  0  0  0  0  0  0  0  0  0  0  0
  150.0073  136.2879  154.3648 N   0  0  0  0  0  0  0  0  0  0  0  0
  150.3300  135.0327  154.7201 C   0  0  0  0  0  0  0  0  0  0  0  0
  150.9803  134.7214  155.7173 O   0  0  0  0  0  0  0  0  0  0  0  0
  149.8342  134.1411  153.8505 N   0  0  0  0  0  0  0  0  0  0  0  0
  150.0064  132.6941  153.9312 C   0  0  0  0  0  0  0  0  0  0  0  0
  149.0275  131.9491  153.0069 C   0  0  1  0  0  0  0  0  0  0  0  0
  148.9023  130.4469  153.2616 C   0  0  0  0  0  0  0  0  0  0  0  0
  147.5193  130.1103  152.7271 C   0  0  0  0  0  0  0  0  0  0  0  0
  146.8260  131.4703  152.5986 C   0  0  0  0  0  0  0  0  0  0  0  0
  147.7007  132.4000  153.2240 O   0  0  0  0  0  0  0  0  0  0  0  0
  150.0047  138.7902  154.5238 C   0  0  0  0  0  0  0  0  0  0  0  0
  150.3658  139.9388  155.1348 N   0  0  0  0  0  0  0  0  0  0  0  0
  153.5955  141.9333  160.1086 H   0  0  0  0  0  0  0  0  0  0  0  0
  152.4890  143.0418  159.3029 H   0  0  0  0  0  0  0  0  0  0  0  0
  153.9373  142.4775  158.4685 H   0  0  0  0  0  0  0  0  0  0  0  0
  153.0230  140.1346  158.4663 H   0  0  0  0  0  0  0  0  0  0  0  0
  151.5825  140.6898  159.3035 H   0  0  0  0  0  0  0  0  0  0  0  0
  152.1930  138.6067  157.6728 H   0  0  0  0  0  0  0  0  0  0  0  0
  151.5138  136.4831  156.5357 H   0  0  0  0  0  0  0  0  0  0  0  0
  149.3822  136.3806  153.5776 H   0  0  0  0  0  0  0  0  0  0  0  0
  149.3056  134.4895  153.0641 H   0  0  0  0  0  0  0  0  0  0  0  0
  151.0369  132.4082  153.7129 H   0  0  0  0  0  0  0  0  0  0  0  0
  149.8221  132.3986  154.9642 H   0  0  0  0  0  0  0  0  0  0  0  0
  149.2865  132.1296  151.9616 H   0  0  0  0  0  0  0  0  0  0  0  0
  149.6947  129.8697  152.7842 H   0  0  0  0  0  0  0  0  0  0  0  0
  148.9358  130.2431  154.3328 H   0  0  0  0  0  0  0  0  0  0  0  0
  147.5769  129.6164  151.7565 H   0  0  0  0  0  0  0  0  0  0  0  0
  146.9884  129.4468  153.4104 H   0  0  0  0  0  0  0  0  0  0  0  0
  146.7066  131.7409  151.5486 H   0  0  0  0  0  0  0  0  0  0  0  0
  145.8416  131.4844  153.0669 H   0  0  0  0  0  0  0  0  0  0  0  0
  149.3646  138.9205  153.6654 H   0  0  0  0  0  0  0  0  0  0  0  0
  1  2  1  0  0  0  0
  1 20  1  0  0  0  0
  1 21  1  0  0  0  0
  1 22  1  0  0  0  0
  2  3  1  0  0  0  0
  2 23  1  0  0  0  0
  2 24  1  0  0  0  0
  3  4  1  0  0  0  0
  4 19  1  0  0  0  0
  4  5  2  0  0  0  0
  5  6  1  0  0  0  0
  5 25  1  0  0  0  0
  6  7  2  0  0  0  0
  6 26  1  0  0  0  0
  7  8  1  0  0  0  0
  7 18  1  0  0  0  0
  8  9  1  0  0  0  0
  8 27  1  0  0  0  0
  9 10  2  0  0  0  0
  9 11  1  0  0  0  0
 11 12  1  0  0  0  0
 11 28  1  0  0  0  0
 12 13  1  0  0  0  0
 12 29  1  0  0  0  0
 12 30  1  0  0  0  0
 13 17  1  0  0  0  0
 13 14  1  0  0  0  0
 13 31  1  0  0  0  0
 14 15  1  0  0  0  0
 14 32  1  0  0  0  0
 14 33  1  0  0  0  0
 15 16  1  0  0  0  0
 15 34  1  0  0  0  0
 15 35  1  0  0  0  0
 16 17  1  0  0  0  0
 16 36  1  0  0  0  0
 16 37  1  0  0  0  0
 18 19  2  0  0  0  0
 18 38  1  0  0  0  0
M  END
> <s_m_source_file>
AV-unprocessed.smi

> <i_m_source_file_index>
1063

> <i_lp_mmshare_version>
43012

> <i_f3d_flags>
0

> <s_epik_input>
W0NIM11bQ0gyXVNjMVtjSF1bY0hdYyhbY0hdbjEpW05IXUMoPU8pW05IXVtDSDJdW0NAQEhdMltDSDJdW0NIMl1bQ0gyXU8y

> <s_epik_cmdline>
J2VwaWtfcHl0aG9uJywgJy1waCcsICc3LjAnLCAnLXRuJywgJzgnLCAnLW1hJywgJzIwMCcsICctbWV0YWxfYmluZGluZycsICctaW1hZScsICc8aW5maWxlLm1hZT4nLCAnLW9tYWUnLCAnPG91dGZpbGUubWFlPic=

> <r_lp_tautomer_probability>
1

> <r_epik_Ionization_Penalty>
0.000426617

> <r_epik_Ionization_Penalty_Charging>
0

> <r_epik_Ionization_Penalty_Neutral>
0.000426617

> <r_epik_State_Penalty>
0.000241115

> <r_epik_Charging_Adjusted_Penalty>
0.000241115

> <i_epik_Tot_Q>
0

> <i_epik_Tot_abs_Q>
0

> <r_epik_Metal_State_Penalty>
-0

> <b_epik_Metal_Only>
0

> <s_lp_Force_Field>
OPLS_2005

> <r_lp_Energy>
18.8486

> <b_lp_Chiralities_Consistent>
1

> <s_lp_Variant>
AV-unprocessed.smi:1063-2

> <Gold.Version>
5.8.1

> <Gold.Id.Protein>
6NUR|6NUR_protein|mol2

> <Gold.PLP.Fitness>
41.9251

> <Gold.PLP.PLP>
-32.0743

> <Gold.PLP.part.hbond>
-3.1816

> <Gold.PLP.part.metal>
0.0000

> <Gold.PLP.part.buried>
-4.3085

> <Gold.PLP.part.nonpolar>
-24.9928

> <Gold.PLP.part.repulsive>
0.3064

> <Gold.PLP.ligand.clash>
0.0000

> <Gold.PLP.ligand.torsion>
0.3113

> <Gold.PLP.Chemscore.Hbond>
2.4776

> <Gold.PLP.Chemscore.CHOScore>
1.0000

> <Gold.PLP.Chemscore.Metal>
0.0000

> <Gold.Chemscore.Hbonds>
donor molecule, donor type, donor heavy atom, donor atom, acceptor molecule, acceptor atom, score
      L1  H     8    27       P1  7948  1.00
      L1  H    11    28       P1  7948  0.15
      P1  H  7989  7998       L1    19  0.41
      P1  H 10752 10765       L1    10  0.01
      L1  C    18    38       P1  7957  0.45

> <Gold.PLP.Chemscore.Internal.Correction>
0.0407

> <Gold.Rescore>
     Score         DG    S(hbond)    S(metal)    S(lipo)     H(rot)  DE(clash)    DE(int)     intcor
     15.22     -16.92       1.78        0.00      79.03       1.47       0.03       1.68       ----

> <Gold.Chemscore.Fitness>
15.2165

> <Gold.Chemscore.DG>
-16.9243

> <Gold.Chemscore.ZeroCoef>
-5.4800

> <Gold.Chemscore.Hbond>
1.7834

> <Gold.Chemscore.Metal>
0.0000

> <Gold.Chemscore.Lipo>
79.0259

> <Gold.Chemscore.Internal_Hbond>
0.0000

> <Gold.Chemscore.DEClash>
0.0285

> <Gold.Chemscore.DEInternal>
1.6793

> <Gold.Chemscore.Rot>
1.4681

> <Gold.Chemscore.Internal.Correction>
   9.000000E+99

> <Gold.Chemscore.Hbonds>
donor molecule, donor type, donor heavy atom, donor atom, acceptor molecule, acceptor atom, score
      L1  H     8    27       P1  7948  0.79
      P1  H  7989  7998       L1    19  0.06

> <Gold.Chemscore.Hbond.Weighted>
-5.9567

> <Gold.Chemscore.Metal.Weighted>
-0.0000

> <Gold.Chemscore.Lipo.Weighted>
-9.2460

> <Gold.Chemscore.Internal_Hbond.Weighted>
0.0000

> <Gold.Chemscore.DEClash.Weighted>
0.0285

> <Gold.Chemscore.DEInternal.Weighted>
1.6793

> <Gold.Chemscore.Rot.Weighted>
3.7584

> <Gold.Chemscore.Internal.Correction.Weighted>
   9.000000E+99

> <Gold.Protein.RotatedTorsions>
[ 6907 6896 6895 6894 ] final -168.51 input  -60.11 | X-H torsion
[ 7974 7965 7964 7962 ] final  149.28 input  175.53 | X-H torsion
[ 8008 7997 7996 7995 ] final -166.20 input   59.86 | X-H torsion
[ 10167 10162 10161 10158 ] final   89.58 input  -65.29 | X-H torsion
[ 10718 10713 10712 10709 ] final   30.15 input   66.30 | X-H torsion
[ 10763 10752 10751 10750 ] final  176.60 input  -60.55 | X-H torsion
[ 11005 11000 10999 10996 ] final   34.87 input  -57.11 | X-H torsion

> <Gold.Protein.ActiveResidues>
 VAL166  LYS551  ARG553  GLY616  TRP617  ASP618  TYR619  PRO620  LYS621  CYS622 
 ASP623  PHE694  ASN695  SER759  ASP760  ASP761  ALA762  ILE779  LEU786  VAL792 
 PHE793  MET794  SER795  GLU796  ALA797  LYS798  CYS799  TRP800  GLU811  SER814 

> <Gold.Protein.RotatedAtoms>
  151.4768  133.3556  159.2831 H   0  0  0  0  0  0  0  0  0  0  0  0  # atno 6907 bound_to 6896
  150.8924  134.8331  159.7313 H   0  0  0  0  0  0  0  0  0  0  0  0  # atno 6908 bound_to 6896
  152.4831  134.4679  159.9678 H   0  0  0  0  0  0  0  0  0  0  0  0  # atno 6909 bound_to 6896
  144.8450  139.6261  143.5999 H   0  0  0  0  0  0  0  0  0  0  0  0  # atno 7974 bound_to 7965
  155.8606  140.0977  157.1616 H   0  0  0  0  0  0  0  0  0  0  0  0  # atno 8008 bound_to 7997
  154.3990  140.1366  156.4018 H   0  0  0  0  0  0  0  0  0  0  0  0  # atno 8009 bound_to 7997
  155.7861  140.3457  155.5326 H   0  0  0  0  0  0  0  0  0  0  0  0  # atno 8010 bound_to 7997
  139.8558  144.6570  150.9116 H   0  0  0  0  0  0  0  0  0  0  0  0  # atno 10167 bound_to 10162
  157.2559  130.7137  149.6429 H   0  0  0  0  0  0  0  0  0  0  0  0  # atno 10718 bound_to 10713
  154.4834  135.2776  155.1553 H   0  0  0  0  0  0  0  0  0  0  0  0  # atno 10763 bound_to 10752
  154.3254  135.6201  153.5530 H   0  0  0  0  0  0  0  0  0  0  0  0  # atno 10764 bound_to 10752
  152.9878  135.5753  154.5239 H   0  0  0  0  0  0  0  0  0  0  0  0  # atno 10765 bound_to 10752
  140.2484  134.3332  155.7899 H   0  0  0  0  0  0  0  0  0  0  0  0  # atno 11005 bound_to 11000
  146.2736  139.6696  142.9279 LP  0  0  0  0  0  0  0  0  0  0  0  0  # atno 17320 bound_to 7965
  145.4616  141.0433  143.2748 LP  0  0  0  0  0  0  0  0  0  0  0  0  # atno 17321 bound_to 7965
  140.7781  143.3787  151.1516 LP  0  0  0  0  0  0  0  0  0  0  0  0  # atno 17342 bound_to 10162
  139.7421  143.8909  152.3053 LP  0  0  0  0  0  0  0  0  0  0  0  0  # atno 17343 bound_to 10162
  155.9665  130.4413  150.5334 LP  0  0  0  0  0  0  0  0  0  0  0  0  # atno 17370 bound_to 10713
  157.3228  131.0685  151.1919 LP  0  0  0  0  0  0  0  0  0  0  0  0  # atno 17371 bound_to 10713
  141.2204  133.7339  156.8998 LP  0  0  0  0  0  0  0  0  0  0  0  0  # atno 17394 bound_to 11000
  140.1582  134.9183  157.2681 LP  0  0  0  0  0  0  0  0  0  0  0  0  # atno 17395 bound_to 11000

$$$$
