AV-unprocessed.smi:1809|AV-procd|sdf|7328|dock7
  -GOLD-   22720 8583D 1   1.00000     0.00000
 Structure written by MMmdl.
 39 41  0  0  0  0  0  0  0  0  3 V2000
  148.7679  140.7690  153.8594 C   0  0  0  0  0  0  0  0  0  0  0  0
  149.7618  139.6827  153.6289 C   0  0  0  0  0  0  0  0  0  0  0  0
  151.0237  139.9239  153.2654 N   0  0  0  0  0  0  0  0  0  0  0  0
  151.7567  138.7554  153.1144 N   0  0  0  0  0  0  0  0  0  0  0  0
  151.0444  137.6504  153.3769 C   0  0  0  0  0  0  0  0  0  0  0  0
  151.5692  136.4166  153.2904 N   0  5  0  0  0  0  0  0  0  0  0  0
  151.0197  135.3997  153.9918 C   0  0  0  0  0  0  0  0  0  0  0  0
  151.5178  134.8260  154.9632 O   0  0  0  0  0  0  0  0  0  0  0  0
  149.8161  135.0237  153.5423 N   0  0  0  0  0  0  0  0  0  0  0  0
  149.0050  133.9585  154.1158 C   0  0  0  0  0  0  0  0  0  0  0  0
  148.3538  133.1160  153.0110 C   0  0  1  0  0  0  0  0  0  0  0  0
  148.1565  131.6468  153.4535 C   0  0  0  0  0  0  0  0  0  0  0  0
  147.4175  130.9384  152.3929 N   0  3  1  0  0  0  0  0  0  0  0  0
  147.1244  129.5070  152.5806 C   0  0  0  0  0  0  0  0  0  0  0  0
  145.8863  129.2384  151.7010 C   0  0  0  0  0  0  0  0  0  0  0  0
  145.4530  130.6126  151.1584 C   0  0  0  0  0  0  0  0  0  0  0  0
  146.1334  131.5859  152.1152 C   0  0  2  0  0  0  0  0  0  0  0  0
  146.3909  133.0198  151.6356 C   0  0  0  0  0  0  0  0  0  0  0  0
  147.0880  133.7007  152.6800 O   0  0  0  0  0  0  0  0  0  0  0  0
  149.3695  137.9820  153.8179 S   0  0  0  0  0  0  0  0  0  0  0  0
  148.9782  141.2722  154.8031 H   0  0  0  0  0  0  0  0  0  0  0  0
  147.7592  140.3576  153.8986 H   0  0  0  0  0  0  0  0  0  0  0  0
  148.8147  141.5001  153.0520 H   0  0  0  0  0  0  0  0  0  0  0  0
  149.4383  135.5183  152.7475 H   0  0  0  0  0  0  0  0  0  0  0  0
  149.6437  133.3297  154.7379 H   0  0  0  0  0  0  0  0  0  0  0  0
  148.2385  134.3837  154.7658 H   0  0  0  0  0  0  0  0  0  0  0  0
  148.9920  133.1384  152.1255 H   0  0  0  0  0  0  0  0  0  0  0  0
  149.1195  131.1618  153.6173 H   0  0  0  0  0  0  0  0  0  0  0  0
  147.6009  131.5968  154.3915 H   0  0  0  0  0  0  0  0  0  0  0  0
  147.9803  128.8938  152.2975 H   0  0  0  0  0  0  0  0  0  0  0  0
  146.8924  129.3062  153.6278 H   0  0  0  0  0  0  0  0  0  0  0  0
  146.1095  128.5490  150.8860 H   0  0  0  0  0  0  0  0  0  0  0  0
  145.0920  128.7917  152.3005 H   0  0  0  0  0  0  0  0  0  0  0  0
  145.8361  130.7493  150.1461 H   0  0  0  0  0  0  0  0  0  0  0  0
  144.3699  130.7354  151.1291 H   0  0  0  0  0  0  0  0  0  0  0  0
  145.5516  131.6206  153.0393 H   0  0  0  0  0  0  0  0  0  0  0  0
  146.9742  133.0373  150.7137 H   0  0  0  0  0  0  0  0  0  0  0  0
  145.4498  133.5332  151.4376 H   0  0  0  0  0  0  0  0  0  0  0  0
  147.9628  131.0110  151.5457 H   0  0  0  0  0  0  0  0  0  0  0  0
  1  2  1  0  0  0  0
  1 21  1  0  0  0  0
  1 22  1  0  0  0  0
  1 23  1  0  0  0  0
  2 20  1  0  0  0  0
  2  3  2  0  0  0  0
  3  4  1  0  0  0  0
  4  5  2  0  0  0  0
  5  6  1  0  0  0  0
  5 20  1  0  0  0  0
  6  7  1  0  0  0  0
  7  8  2  0  0  0  0
  7  9  1  0  0  0  0
  9 10  1  0  0  0  0
  9 24  1  0  0  0  0
 10 11  1  0  0  0  0
 10 25  1  0  0  0  0
 10 26  1  0  0  0  0
 11 19  1  0  0  0  0
 11 12  1  0  0  0  0
 11 27  1  0  0  0  0
 12 13  1  0  0  0  0
 12 28  1  0  0  0  0
 12 29  1  0  0  0  0
 13 17  1  0  0  0  0
 13 14  1  0  0  0  0
 13 39  1  0  0  0  0
 14 15  1  0  0  0  0
 14 30  1  0  0  0  0
 14 31  1  0  0  0  0
 15 16  1  0  0  0  0
 15 32  1  0  0  0  0
 15 33  1  0  0  0  0
 16 17  1  0  0  0  0
 16 34  1  0  0  0  0
 16 35  1  0  0  0  0
 17 18  1  0  0  0  0
 17 36  1  0  0  0  0
 18 19  1  0  0  0  0
 18 37  1  0  0  0  0
 18 38  1  0  0  0  0
M  CHG  1   6  -1
M  CHG  1  13   1
M  END
> <s_m_source_file>
AV-unprocessed.smi

> <i_m_source_file_index>
1809

> <i_lp_mmshare_version>
43012

> <i_f3d_flags>
0

> <s_epik_input>
W0NIM11jMW5uYyhzMSlbTkhdQyg9TylbTkhdW0NIMl1bQ0BIXShbQ0gyXTIpT1tDSDJdW0NAQEhdKE4yMylbQ0gyXVtDSDJdW0NIMl0z

> <s_epik_cmdline>
J2VwaWtfcHl0aG9uJywgJy1waCcsICc3LjAnLCAnLXRuJywgJzgnLCAnLW1hJywgJzIwMCcsICctbWV0YWxfYmluZGluZycsICctaW1hZScsICc8aW5maWxlLm1hZT4nLCAnLW9tYWUnLCAnPG91dGZpbGUubWFlPic=

> <r_lp_tautomer_probability>
1

> <r_epik_Ionization_Penalty>
3.2601

> <r_epik_Ionization_Penalty_Charging>
3.1406

> <r_epik_Ionization_Penalty_Neutral>
0.119497

> <r_epik_State_Penalty>
3.08894

> <r_epik_Charging_Adjusted_Penalty>
6.22954

> <i_epik_Tot_Q>
0

> <i_epik_Tot_abs_Q>
2

> <r_epik_Metal_State_Penalty>
0.510807

> <b_epik_Metal_Only>
1

> <s_lp_Force_Field>
OPLS_2005

> <r_lp_Energy>
29.8237

> <b_lp_Chiralities_Consistent>
1

> <s_lp_Variant>
AV-unprocessed.smi:1809-20

> <Gold.Version>
5.8.1

> <Gold.Id.Protein>
6NUR|6NUR_protein|mol2

> <Gold.PLP.Fitness>
46.3961

> <Gold.PLP.PLP>
-33.9425

> <Gold.PLP.part.hbond>
-4.0000

> <Gold.PLP.part.metal>
0.0000

> <Gold.PLP.part.buried>
-6.9982

> <Gold.PLP.part.nonpolar>
-25.6321

> <Gold.PLP.part.repulsive>
0.5216

> <Gold.PLP.ligand.clash>
0.0000

> <Gold.PLP.ligand.torsion>
1.2892

> <Gold.PLP.Chemscore.Hbond>
5.0000

> <Gold.PLP.Chemscore.CHOScore>
0.0000

> <Gold.PLP.Chemscore.Metal>
0.0000

> <Gold.Chemscore.Hbonds>
donor molecule, donor type, donor heavy atom, donor atom, acceptor molecule, acceptor atom, score
      L1  H     9    24       P1  7948  0.03
      L1  H    13    39       P1 10747  1.00
      P1  H 10752 10763       L1     8  0.43

> <Gold.PLP.Chemscore.Internal.Correction>
0.0321

> <Gold.Rescore>
     Score         DG    S(hbond)    S(metal)    S(lipo)     H(rot)  DE(clash)    DE(int)     intcor
     19.66     -22.04       3.42        0.00      72.93       1.32       1.31       1.08       ----

> <Gold.Chemscore.Fitness>
19.6561

> <Gold.Chemscore.DG>
-22.0417

> <Gold.Chemscore.ZeroCoef>
-5.4800

> <Gold.Chemscore.Hbond>
3.4191

> <Gold.Chemscore.Metal>
0.0000

> <Gold.Chemscore.Lipo>
72.9306

> <Gold.Chemscore.Internal_Hbond>
0.0000

> <Gold.Chemscore.DEClash>
1.3104

> <Gold.Chemscore.DEInternal>
1.0752

> <Gold.Chemscore.Rot>
1.3246

> <Gold.Chemscore.Internal.Correction>
   9.000000E+99

> <Gold.Chemscore.Hbonds>
donor molecule, donor type, donor heavy atom, donor atom, acceptor molecule, acceptor atom, score
      L1  H    13    39       P1 10747  0.99
      P1  H  7989  7998       L1     3  0.03
      P1  H 10752 10763       L1     8  0.04

> <Gold.Chemscore.Hbond.Weighted>
-11.4198

> <Gold.Chemscore.Metal.Weighted>
-0.0000

> <Gold.Chemscore.Lipo.Weighted>
-8.5329

> <Gold.Chemscore.Internal_Hbond.Weighted>
0.0000

> <Gold.Chemscore.DEClash.Weighted>
1.3104

> <Gold.Chemscore.DEInternal.Weighted>
1.0752

> <Gold.Chemscore.Rot.Weighted>
3.3910

> <Gold.Chemscore.Internal.Correction.Weighted>
   9.000000E+99

> <Gold.Protein.RotatedTorsions>
[ 6907 6896 6895 6894 ] final  151.86 input  -60.11 | X-H torsion
[ 7974 7965 7964 7962 ] final -167.91 input  175.53 | X-H torsion
[ 8008 7997 7996 7995 ] final  129.94 input   59.86 | X-H torsion
[ 10167 10162 10161 10158 ] final   94.34 input  -65.29 | X-H torsion
[ 10718 10713 10712 10709 ] final -145.92 input   66.30 | X-H torsion
[ 10763 10752 10751 10750 ] final   68.78 input  -60.55 | X-H torsion
[ 11005 11000 10999 10996 ] final  133.90 input  -57.11 | X-H torsion

> <Gold.Protein.ActiveResidues>
 VAL166  LYS551  ARG553  GLY616  TRP617  ASP618  TYR619  PRO620  LYS621  CYS622 
 ASP623  PHE694  ASN695  SER759  ASP760  ASP761  ALA762  ILE779  LEU786  VAL792 
 PHE793  MET794  SER795  GLU796  ALA797  LYS798  CYS799  TRP800  GLU811  SER814 

> <Gold.Protein.RotatedAtoms>
  152.0948  133.4219  159.4559 H   0  0  0  0  0  0  0  0  0  0  0  0  # atno 6907 bound_to 6896
  150.6863  134.2829  159.4644 H   0  0  0  0  0  0  0  0  0  0  0  0  # atno 6908 bound_to 6896
  152.0684  134.9549  160.0625 H   0  0  0  0  0  0  0  0  0  0  0  0  # atno 6909 bound_to 6896
  144.7213  140.2448  143.6286 H   0  0  0  0  0  0  0  0  0  0  0  0  # atno 7974 bound_to 7965
  156.2945  140.2608  156.2680 H   0  0  0  0  0  0  0  0  0  0  0  0  # atno 8008 bound_to 7997
  154.9723  140.0391  157.2258 H   0  0  0  0  0  0  0  0  0  0  0  0  # atno 8009 bound_to 7997
  154.7847  140.2801  155.6041 H   0  0  0  0  0  0  0  0  0  0  0  0  # atno 8010 bound_to 7997
  139.8093  144.6780  150.9661 H   0  0  0  0  0  0  0  0  0  0  0  0  # atno 10167 bound_to 10162
  156.3885  130.7873  151.2073 H   0  0  0  0  0  0  0  0  0  0  0  0  # atno 10718 bound_to 10713
  153.0253  135.5234  154.7188 H   0  0  0  0  0  0  0  0  0  0  0  0  # atno 10763 bound_to 10752
  154.6249  135.2893  155.0286 H   0  0  0  0  0  0  0  0  0  0  0  0  # atno 10764 bound_to 10752
  154.1259  135.6600  153.4964 H   0  0  0  0  0  0  0  0  0  0  0  0  # atno 10765 bound_to 10752
  139.9880  134.9525  156.9790 H   0  0  0  0  0  0  0  0  0  0  0  0  # atno 11005 bound_to 11000
  145.8285  139.2075  143.1897 LP  0  0  0  0  0  0  0  0  0  0  0  0  # atno 17320 bound_to 7965
  146.0452  140.8125  142.9809 LP  0  0  0  0  0  0  0  0  0  0  0  0  # atno 17321 bound_to 7965
  140.7818  143.4201  151.0854 LP  0  0  0  0  0  0  0  0  0  0  0  0  # atno 17342 bound_to 10162
  139.7869  143.8275  152.3146 LP  0  0  0  0  0  0  0  0  0  0  0  0  # atno 17343 bound_to 10162
  157.7497  131.0323  150.4219 LP  0  0  0  0  0  0  0  0  0  0  0  0  # atno 17370 bound_to 10713
  156.4476  130.4004  149.6657 LP  0  0  0  0  0  0  0  0  0  0  0  0  # atno 17371 bound_to 10713
  140.4963  134.1142  155.7242 LP  0  0  0  0  0  0  0  0  0  0  0  0  # atno 17394 bound_to 11000
  141.1542  133.8914  157.2021 LP  0  0  0  0  0  0  0  0  0  0  0  0  # atno 17395 bound_to 11000

$$$$
