AV-unprocessed.smi:3062|AV-procd|sdf|11683|dock9
  -GOLD-   2272017 93D 1   1.00000     0.00000
 Structure written by MMmdl.
 39 40  0  0  0  0  0  0  0  0  1 V2000
  146.6685  137.3349  162.7909 C   0  0  0  0  0  0  0  0  0  0  0  0
  147.2919  136.5419  161.6740 C   0  0  0  0  0  0  0  0  0  0  0  0
  148.0233  137.1978  160.8341 N   0  0  0  0  0  0  0  0  0  0  0  0
  148.6415  136.5669  159.7731 N   0  0  0  0  0  0  0  0  0  0  0  0
  149.4354  137.4662  158.9277 C   0  0  0  0  0  0  0  0  0  0  0  0
  148.5472  138.4239  158.1043 C   0  0  2  0  0  0  0  0  0  0  0  0
  147.5905  137.6949  157.3616 O   0  0  0  0  0  0  0  0  0  0  0  0
  149.3505  139.2907  157.1211 C   0  0  0  0  0  0  0  0  0  0  0  0
  149.7699  140.4917  157.7585 O   0  0  0  0  0  0  0  0  0  0  0  0
  150.9681  140.3600  158.5113 C   0  0  0  0  0  0  0  0  0  0  0  0
  151.6046  141.7092  158.6484 C   0  0  0  0  0  0  0  0  0  0  0  0
  152.6808  142.0423  159.4308 C   0  0  0  0  0  0  0  0  0  0  0  0
  153.0311  143.4222  159.3482 C   0  0  0  0  0  0  0  0  0  0  0  0
  152.2120  144.1288  158.5087 C   0  0  0  0  0  0  0  0  0  0  0  0
  150.9864  143.1104  157.8048 S   0  0  0  0  0  0  0  0  0  0  0  0
  148.5558  135.2324  159.5054 C   0  0  0  0  0  0  0  0  0  0  0  0
  149.1337  134.7095  158.5513 O   0  0  0  0  0  0  0  0  0  0  0  0
  147.7236  134.4951  160.4591 C   0  0  0  0  0  0  0  0  0  0  0  0
  147.6047  133.0938  160.2149 C   0  0  0  0  0  0  0  0  0  0  0  0
  147.5215  131.9536  160.0327 N   0  0  0  0  0  0  0  0  0  0  0  0
  147.1096  135.1039  161.5044 C   0  0  0  0  0  0  0  0  0  0  0  0
  146.2371  134.3845  162.5240 C   0  0  0  0  0  0  0  0  0  0  0  0
  146.9597  136.9338  163.7620 H   0  0  0  0  0  0  0  0  0  0  0  0
  145.5806  137.3062  162.7246 H   0  0  0  0  0  0  0  0  0  0  0  0
  146.9727  138.3825  162.7647 H   0  0  0  0  0  0  0  0  0  0  0  0
  150.1056  138.0459  159.5653 H   0  0  0  0  0  0  0  0  0  0  0  0
  150.0972  136.8996  158.2695 H   0  0  0  0  0  0  0  0  0  0  0  0
  147.9997  139.0945  158.7672 H   0  0  0  0  0  0  0  0  0  0  0  0
  147.1170  137.1323  157.9550 H   0  0  0  0  0  0  0  0  0  0  0  0
  150.2081  138.7422  156.7281 H   0  0  0  0  0  0  0  0  0  0  0  0
  148.7119  139.5331  156.2703 H   0  0  0  0  0  0  0  0  0  0  0  0
  150.7134  139.9789  159.5001 H   0  0  0  0  0  0  0  0  0  0  0  0
  151.6483  139.6391  158.0551 H   0  0  0  0  0  0  0  0  0  0  0  0
  153.2259  141.3480  160.0531 H   0  0  0  0  0  0  0  0  0  0  0  0
  153.8584  143.8424  159.9011 H   0  0  0  0  0  0  0  0  0  0  0  0
  152.2503  145.1805  158.2655 H   0  0  0  0  0  0  0  0  0  0  0  0
  146.1316  133.3230  162.3021 H   0  0  0  0  0  0  0  0  0  0  0  0
  145.2354  134.8152  162.5441 H   0  0  0  0  0  0  0  0  0  0  0  0
  146.6682  134.4696  163.5220 H   0  0  0  0  0  0  0  0  0  0  0  0
  1  2  1  0  0  0  0
  1 23  1  0  0  0  0
  1 24  1  0  0  0  0
  1 25  1  0  0  0  0
  2 21  1  0  0  0  0
  2  3  2  0  0  0  0
  3  4  1  0  0  0  0
  4  5  1  0  0  0  0
  4 16  1  0  0  0  0
  5  6  1  0  0  0  0
  5 26  1  0  0  0  0
  5 27  1  0  0  0  0
  6  7  1  0  0  0  0
  6  8  1  0  0  0  0
  6 28  1  0  0  0  0
  7 29  1  0  0  0  0
  8  9  1  0  0  0  0
  8 30  1  0  0  0  0
  8 31  1  0  0  0  0
  9 10  1  0  0  0  0
 10 11  1  0  0  0  0
 10 32  1  0  0  0  0
 10 33  1  0  0  0  0
 11 15  1  0  0  0  0
 11 12  2  0  0  0  0
 12 13  1  0  0  0  0
 12 34  1  0  0  0  0
 13 14  2  0  0  0  0
 13 35  1  0  0  0  0
 14 15  1  0  0  0  0
 14 36  1  0  0  0  0
 16 17  2  0  0  0  0
 16 18  1  0  0  0  0
 18 19  1  0  0  0  0
 18 21  2  0  0  0  0
 19 20  3  0  0  0  0
 21 22  1  0  0  0  0
 22 37  1  0  0  0  0
 22 38  1  0  0  0  0
 22 39  1  0  0  0  0
M  END
> <s_m_source_file>
AV-unprocessed.smi

> <i_m_source_file_index>
3062

> <i_lp_mmshare_version>
43012

> <i_f3d_flags>
0

> <s_epik_input>
TiNDYyhjMVtDSDNdKWMoPU8pbihuYzFbQ0gzXSlbQ0gyXVtDQEhdKFtPSF0pW0NIMl1PW0NIMl1jMltjSF1bY0hdW2NIXXMy

> <s_epik_cmdline>
J2VwaWtfcHl0aG9uJywgJy1waCcsICc3LjAnLCAnLXRuJywgJzgnLCAnLW1hJywgJzIwMCcsICctbWV0YWxfYmluZGluZycsICctaW1hZScsICc8aW5maWxlLm1hZT4nLCAnLW9tYWUnLCAnPG91dGZpbGUubWFlPic=

> <r_lp_tautomer_probability>
1

> <r_epik_Ionization_Penalty>
6.86395e-08

> <r_epik_Ionization_Penalty_Charging>
2.24757e-10

> <r_epik_Ionization_Penalty_Neutral>
6.84147e-08

> <r_epik_State_Penalty>
-0

> <r_epik_Charging_Adjusted_Penalty>
2.24757e-10

> <i_epik_Tot_Q>
0

> <i_epik_Tot_abs_Q>
0

> <r_epik_Metal_State_Penalty>
-0

> <b_epik_Metal_Only>
0

> <s_lp_Force_Field>
OPLS_2005

> <r_lp_Energy>
26.0533

> <b_lp_Chiralities_Consistent>
1

> <s_lp_Variant>
AV-unprocessed.smi:3062-1

> <Gold.Version>
5.8.1

> <Gold.Id.Protein>
6NUR|6NUR_protein|mol2

> <Gold.PLP.Fitness>
47.6847

> <Gold.PLP.PLP>
-41.4492

> <Gold.PLP.part.hbond>
-3.0000

> <Gold.PLP.part.metal>
0.0000

> <Gold.PLP.part.buried>
-2.4117

> <Gold.PLP.part.nonpolar>
-36.1855

> <Gold.PLP.part.repulsive>
0.0087

> <Gold.PLP.ligand.clash>
0.0000

> <Gold.PLP.ligand.torsion>
0.7945

> <Gold.PLP.Chemscore.Hbond>
2.5840

> <Gold.PLP.Chemscore.CHOScore>
0.0000

> <Gold.PLP.Chemscore.Metal>
0.0000

> <Gold.Chemscore.Hbonds>
donor molecule, donor type, donor heavy atom, donor atom, acceptor molecule, acceptor atom, score
      P1  H  6896  6909       L1    17  1.00
      P1  H  6931  6943       L1     3  0.88
      P1  H  6934  6947       L1     3  0.74

> <Gold.PLP.Chemscore.Internal.Correction>
0.0727

> <Gold.Rescore>
     Score         DG    S(hbond)    S(metal)    S(lipo)     H(rot)  DE(clash)    DE(int)     intcor
     16.44     -17.11       1.88        0.00     100.69       2.51       0.02       0.66       ----

> <Gold.Chemscore.Fitness>
16.4356

> <Gold.Chemscore.DG>
-17.1113

> <Gold.Chemscore.ZeroCoef>
-5.4800

> <Gold.Chemscore.Hbond>
1.8807

> <Gold.Chemscore.Metal>
0.0000

> <Gold.Chemscore.Lipo>
100.6864

> <Gold.Chemscore.Internal_Hbond>
0.0000

> <Gold.Chemscore.DEClash>
0.0184

> <Gold.Chemscore.DEInternal>
0.6573

> <Gold.Chemscore.Rot>
2.5119

> <Gold.Chemscore.Internal.Correction>
   9.000000E+99

> <Gold.Chemscore.Hbonds>
donor molecule, donor type, donor heavy atom, donor atom, acceptor molecule, acceptor atom, score
      P1  H  6896  6909       L1    17  0.38
      P1  H  6931  6943       L1     3  0.37
      P1  H  6934  6947       L1     3  0.25

> <Gold.Chemscore.Hbond.Weighted>
-6.2814

> <Gold.Chemscore.Metal.Weighted>
-0.0000

> <Gold.Chemscore.Lipo.Weighted>
-11.7803

> <Gold.Chemscore.Internal_Hbond.Weighted>
0.0000

> <Gold.Chemscore.DEClash.Weighted>
0.0184

> <Gold.Chemscore.DEInternal.Weighted>
0.6573

> <Gold.Chemscore.Rot.Weighted>
6.4305

> <Gold.Chemscore.Internal.Correction.Weighted>
   9.000000E+99

> <Gold.Protein.RotatedTorsions>
[ 6907 6896 6895 6894 ] final   13.32 input  -60.11 | X-H torsion
[ 7974 7965 7964 7962 ] final   43.39 input  175.53 | X-H torsion
[ 8008 7997 7996 7995 ] final  127.02 input   59.86 | X-H torsion
[ 10167 10162 10161 10158 ] final    3.30 input  -65.29 | X-H torsion
[ 10718 10713 10712 10709 ] final  102.57 input   66.30 | X-H torsion
[ 10763 10752 10751 10750 ] final -173.69 input  -60.55 | X-H torsion
[ 11005 11000 10999 10996 ] final -167.21 input  -57.11 | X-H torsion

> <Gold.Protein.ActiveResidues>
 VAL166  LYS551  ARG553  GLY616  TRP617  ASP618  TYR619  PRO620  LYS621  CYS622 
 ASP623  PHE694  ASN695  SER759  ASP760  ASP761  ALA762  ILE779  LEU786  VAL792 
 PHE793  MET794  SER795  GLU796  ALA797  LYS798  CYS799  TRP800  GLU811  SER814 

> <Gold.Protein.RotatedAtoms>
  151.7844  135.0753  160.0378 H   0  0  0  0  0  0  0  0  0  0  0  0  # atno 6907 bound_to 6896
  152.3201  133.5840  159.5747 H   0  0  0  0  0  0  0  0  0  0  0  0  # atno 6908 bound_to 6896
  150.7365  133.9940  159.3658 H   0  0  0  0  0  0  0  0  0  0  0  0  # atno 6909 bound_to 6896
  146.0659  139.5192  142.9628 H   0  0  0  0  0  0  0  0  0  0  0  0  # atno 7974 bound_to 7965
  156.2880  140.2679  156.2205 H   0  0  0  0  0  0  0  0  0  0  0  0  # atno 8008 bound_to 7997
  155.0173  140.0387  157.2441 H   0  0  0  0  0  0  0  0  0  0  0  0  # atno 8009 bound_to 7997
  154.7466  140.2735  155.6333 H   0  0  0  0  0  0  0  0  0  0  0  0  # atno 8010 bound_to 7997
  140.6592  143.7347  150.7708 H   0  0  0  0  0  0  0  0  0  0  0  0  # atno 10167 bound_to 10162
  157.6798  131.0756  150.5424 H   0  0  0  0  0  0  0  0  0  0  0  0  # atno 10718 bound_to 10713
  154.6049  135.2858  155.0495 H   0  0  0  0  0  0  0  0  0  0  0  0  # atno 10763 bound_to 10752
  154.1746  135.6467  153.5022 H   0  0  0  0  0  0  0  0  0  0  0  0  # atno 10764 bound_to 10752
  153.0171  135.5409  154.6781 H   0  0  0  0  0  0  0  0  0  0  0  0  # atno 10765 bound_to 10752
  140.5558  134.5382  157.5132 H   0  0  0  0  0  0  0  0  0  0  0  0  # atno 11005 bound_to 11000
  145.6478  141.0270  143.1777 LP  0  0  0  0  0  0  0  0  0  0  0  0  # atno 17320 bound_to 7965
  144.7202  139.8056  143.7384 LP  0  0  0  0  0  0  0  0  0  0  0  0  # atno 17321 bound_to 7965
  140.1013  143.4785  152.2423 LP  0  0  0  0  0  0  0  0  0  0  0  0  # atno 17342 bound_to 10162
  139.5822  144.7515  151.3611 LP  0  0  0  0  0  0  0  0  0  0  0  0  # atno 17343 bound_to 10162
  156.5730  130.4285  149.6011 LP  0  0  0  0  0  0  0  0  0  0  0  0  # atno 17370 bound_to 10713
  156.2724  130.7024  151.1826 LP  0  0  0  0  0  0  0  0  0  0  0  0  # atno 17371 bound_to 10713
  139.9432  134.7749  156.0626 LP  0  0  0  0  0  0  0  0  0  0  0  0  # atno 17394 bound_to 11000
  141.1144  133.6632  156.3058 LP  0  0  0  0  0  0  0  0  0  0  0  0  # atno 17395 bound_to 11000

$$$$
