AV-unprocessed.smi:1241|AV-procd|sdf|5215|dock6
  -GOLD-   22720 4313D 1   1.00000     0.00000
 Structure written by MMmdl.
 38 39  0  0  0  0  0  0  0  0  1 V2000
  151.1107  140.0972  157.8699 C   0  0  0  0  0  0  0  0  0  0  0  0
  150.7894  140.9649  156.2801 S   0  0  0  0  0  0  0  0  0  0  0  0
  151.0035  142.4048  156.4917 O   0  0  0  0  0  0  0  0  0  0  0  0
  151.5288  140.2664  155.2175 O   0  0  0  0  0  0  0  0  0  0  0  0
  149.0902  140.7156  155.9987 N   0  0  0  0  0  0  0  0  0  0  0  0
  148.4814  141.1472  154.7239 C   0  0  0  0  0  0  0  0  0  0  0  0
  148.2630  139.9638  153.7644 C   0  0  0  0  0  0  0  0  0  0  0  0
  147.4640  138.8350  154.4369 C   0  0  0  0  0  0  0  0  0  0  0  0
  147.3272  137.6896  153.5412 N   0  0  0  0  0  0  0  0  0  0  0  0
  146.2040  136.9778  153.3656 C   0  0  0  0  0  0  0  0  0  0  0  0
  145.1479  137.2233  153.9493 O   0  0  0  0  0  0  0  0  0  0  0  0
  146.3895  135.9851  152.4772 N   0  0  0  0  0  0  0  0  0  0  0  0
  145.4569  134.9994  152.0560 C   0  0  0  0  0  0  0  0  0  0  0  0
  145.7390  134.4020  150.8065 C   0  0  0  0  0  0  0  0  0  0  0  0
  144.8773  133.4079  150.3034 C   0  0  0  0  0  0  0  0  0  0  0  0
  143.7549  133.0353  151.0643 C   0  0  0  0  0  0  0  0  0  0  0  0
  143.5466  133.6795  152.2978 C   0  0  0  0  0  0  0  0  0  0  0  0
  144.3705  134.6330  152.7813 N   0  0  0  0  0  0  0  0  0  0  0  0
  148.1782  138.4085  155.7274 C   0  0  0  0  0  0  0  0  0  0  0  0
  148.3877  139.6049  156.6722 C   0  0  0  0  0  0  0  0  0  0  0  0
  152.1683  140.1876  158.1162 H   0  0  0  0  0  0  0  0  0  0  0  0
  150.8594  139.0424  157.7749 H   0  0  0  0  0  0  0  0  0  0  0  0
  150.5227  140.5511  158.6657 H   0  0  0  0  0  0  0  0  0  0  0  0
  147.5224  141.6178  154.9436 H   0  0  0  0  0  0  0  0  0  0  0  0
  149.0953  141.9113  154.2480 H   0  0  0  0  0  0  0  0  0  0  0  0
  147.7387  140.3146  152.8747 H   0  0  0  0  0  0  0  0  0  0  0  0
  149.2235  139.5833  153.4183 H   0  0  0  0  0  0  0  0  0  0  0  0
  146.4720  139.2067  154.7011 H   0  0  0  0  0  0  0  0  0  0  0  0
  148.1483  137.4196  153.0200 H   0  0  0  0  0  0  0  0  0  0  0  0
  147.3064  135.9202  152.0611 H   0  0  0  0  0  0  0  0  0  0  0  0
  146.6066  134.6991  150.2352 H   0  0  0  0  0  0  0  0  0  0  0  0
  145.0756  132.9392  149.3508 H   0  0  0  0  0  0  0  0  0  0  0  0
  143.0720  132.2764  150.7126 H   0  0  0  0  0  0  0  0  0  0  0  0
  142.6976  133.4219  152.9137 H   0  0  0  0  0  0  0  0  0  0  0  0
  147.5955  137.6414  156.2389 H   0  0  0  0  0  0  0  0  0  0  0  0
  149.1378  137.9514  155.4881 H   0  0  0  0  0  0  0  0  0  0  0  0
  148.9338  139.2937  157.5622 H   0  0  0  0  0  0  0  0  0  0  0  0
  147.4198  139.9697  157.0179 H   0  0  0  0  0  0  0  0  0  0  0  0
  1  2  1  0  0  0  0
  1 21  1  0  0  0  0
  1 22  1  0  0  0  0
  1 23  1  0  0  0  0
  2  3  2  0  0  0  0
  2  4  2  0  0  0  0
  2  5  1  0  0  0  0
  5 20  1  0  0  0  0
  5  6  1  0  0  0  0
  6  7  1  0  0  0  0
  6 24  1  0  0  0  0
  6 25  1  0  0  0  0
  7  8  1  0  0  0  0
  7 26  1  0  0  0  0
  7 27  1  0  0  0  0
  8  9  1  0  0  0  0
  8 19  1  0  0  0  0
  8 28  1  0  0  0  0
  9 10  1  0  0  0  0
  9 29  1  0  0  0  0
 10 11  2  0  0  0  0
 10 12  1  0  0  0  0
 12 13  1  0  0  0  0
 12 30  1  0  0  0  0
 13 18  1  0  0  0  0
 13 14  2  0  0  0  0
 14 15  1  0  0  0  0
 14 31  1  0  0  0  0
 15 16  2  0  0  0  0
 15 32  1  0  0  0  0
 16 17  1  0  0  0  0
 16 33  1  0  0  0  0
 17 18  2  0  0  0  0
 17 34  1  0  0  0  0
 19 20  1  0  0  0  0
 19 35  1  0  0  0  0
 19 36  1  0  0  0  0
 20 37  1  0  0  0  0
 20 38  1  0  0  0  0
M  END
> <s_m_source_file>
AV-unprocessed.smi

> <i_m_source_file_index>
1241

> <i_lp_mmshare_version>
43012

> <i_f3d_flags>
0

> <s_epik_input>
W0NIM11TKD1PKSg9TylOMVtDSDJdW0NIMl1bQ0hdKFtDSDJdW0NIMl0xKVtOSF1DKD1PKVtOSF1jMltjSF1bY0hdW2NIXVtjSF1uMg==

> <s_epik_cmdline>
J2VwaWtfcHl0aG9uJywgJy1waCcsICc3LjAnLCAnLXRuJywgJzgnLCAnLW1hJywgJzIwMCcsICctbWV0YWxfYmluZGluZycsICctaW1hZScsICc8aW5maWxlLm1hZT4nLCAnLW9tYWUnLCAnPG91dGZpbGUubWFlPic=

> <r_lp_tautomer_probability>
1

> <r_epik_Ionization_Penalty>
4.62702e-05

> <r_epik_Ionization_Penalty_Charging>
0

> <r_epik_Ionization_Penalty_Neutral>
4.62702e-05

> <r_epik_State_Penalty>
-0

> <r_epik_Charging_Adjusted_Penalty>
0

> <i_epik_Tot_Q>
0

> <i_epik_Tot_abs_Q>
0

> <r_epik_Metal_State_Penalty>
-0

> <b_epik_Metal_Only>
0

> <s_lp_Force_Field>
OPLS_2005

> <r_lp_Energy>
3.28241

> <b_lp_Chiralities_Consistent>
1

> <s_lp_Variant>
AV-unprocessed.smi:1241-1

> <Gold.Version>
5.8.1

> <Gold.Id.Protein>
6NUR|6NUR_protein|mol2

> <Gold.PLP.Fitness>
35.1003

> <Gold.PLP.PLP>
-24.5828

> <Gold.PLP.part.hbond>
-3.0000

> <Gold.PLP.part.metal>
0.0000

> <Gold.PLP.part.buried>
-1.9914

> <Gold.PLP.part.nonpolar>
-19.8437

> <Gold.PLP.part.repulsive>
0.3480

> <Gold.PLP.ligand.clash>
0.0000

> <Gold.PLP.ligand.torsion>
1.5710

> <Gold.PLP.Chemscore.Hbond>
2.9520

> <Gold.PLP.Chemscore.CHOScore>
0.9169

> <Gold.PLP.Chemscore.Metal>
0.0000

> <Gold.Chemscore.Hbonds>
donor molecule, donor type, donor heavy atom, donor atom, acceptor molecule, acceptor atom, score
      L1  H     9    29       P1  7948  0.98
      L1  H    12    30       P1  7948  1.00
      P1  H  7989  7998       L1     4  0.96
      L1  C    17    34       P1 10957  0.94

> <Gold.PLP.Chemscore.Internal.Correction>
2.0529

> <Gold.Rescore>
     Score         DG    S(hbond)    S(metal)    S(lipo)     H(rot)  DE(clash)    DE(int)     intcor
     15.68     -18.57       2.92        0.00      50.30       1.00       0.21       2.67       ----

> <Gold.Chemscore.Fitness>
15.6834

> <Gold.Chemscore.DG>
-18.5700

> <Gold.Chemscore.ZeroCoef>
-5.4800

> <Gold.Chemscore.Hbond>
2.9235

> <Gold.Chemscore.Metal>
0.0000

> <Gold.Chemscore.Lipo>
50.3041

> <Gold.Chemscore.Internal_Hbond>
0.0000

> <Gold.Chemscore.DEClash>
0.2122

> <Gold.Chemscore.DEInternal>
2.6744

> <Gold.Chemscore.Rot>
1.0000

> <Gold.Chemscore.Internal.Correction>
   9.000000E+99

> <Gold.Chemscore.Hbonds>
donor molecule, donor type, donor heavy atom, donor atom, acceptor molecule, acceptor atom, score
      L1  H     9    29       P1  7948  0.93
      L1  H    12    30       P1  7948  0.99
      P1  H  7989  7998       L1     4  0.92

> <Gold.Chemscore.Hbond.Weighted>
-9.7644

> <Gold.Chemscore.Metal.Weighted>
-0.0000

> <Gold.Chemscore.Lipo.Weighted>
-5.8856

> <Gold.Chemscore.Internal_Hbond.Weighted>
0.0000

> <Gold.Chemscore.DEClash.Weighted>
0.2122

> <Gold.Chemscore.DEInternal.Weighted>
2.6744

> <Gold.Chemscore.Rot.Weighted>
2.5600

> <Gold.Chemscore.Internal.Correction.Weighted>
   9.000000E+99

> <Gold.Protein.RotatedTorsions>
[ 6907 6896 6895 6894 ] final  -56.69 input  -60.11 | X-H torsion
[ 7974 7965 7964 7962 ] final   72.18 input  175.53 | X-H torsion
[ 8008 7997 7996 7995 ] final  -61.87 input   59.86 | X-H torsion
[ 10167 10162 10161 10158 ] final   65.33 input  -65.29 | X-H torsion
[ 10718 10713 10712 10709 ] final   63.42 input   66.30 | X-H torsion
[ 10763 10752 10751 10750 ] final   20.86 input  -60.55 | X-H torsion
[ 11005 11000 10999 10996 ] final -121.90 input  -57.11 | X-H torsion

> <Gold.Protein.ActiveResidues>
 VAL166  LYS551  ARG553  GLY616  TRP617  ASP618  TYR619  PRO620  LYS621  CYS622 
 ASP623  PHE694  ASN695  SER759  ASP760  ASP761  ALA762  ILE779  LEU786  VAL792 
 PHE793  MET794  SER795  GLU796  ALA797  LYS798  CYS799  TRP800  GLU811  SER814 

> <Gold.Protein.RotatedAtoms>
  150.8147  134.7322  159.6718 H   0  0  0  0  0  0  0  0  0  0  0  0  # atno 6907 bound_to 6896
  152.4266  134.5854  159.9969 H   0  0  0  0  0  0  0  0  0  0  0  0  # atno 6908 bound_to 6896
  151.6054  133.3315  159.3092 H   0  0  0  0  0  0  0  0  0  0  0  0  # atno 6909 bound_to 6896
  145.7566  139.2782  143.1400 H   0  0  0  0  0  0  0  0  0  0  0  0  # atno 7974 bound_to 7965
  154.4470  140.1008  156.6498 H   0  0  0  0  0  0  0  0  0  0  0  0  # atno 8008 bound_to 7997
  155.5410  140.3483  155.4428 H   0  0  0  0  0  0  0  0  0  0  0  0  # atno 8009 bound_to 7997
  156.0597  140.1323  156.9944 H   0  0  0  0  0  0  0  0  0  0  0  0  # atno 8010 bound_to 7997
  140.1124  144.4806  150.6969 H   0  0  0  0  0  0  0  0  0  0  0  0  # atno 10167 bound_to 10162
  157.5970  130.9104  149.9714 H   0  0  0  0  0  0  0  0  0  0  0  0  # atno 10718 bound_to 10713
  153.1042  135.6680  153.9616 H   0  0  0  0  0  0  0  0  0  0  0  0  # atno 10763 bound_to 10752
  153.9178  135.3018  155.3449 H   0  0  0  0  0  0  0  0  0  0  0  0  # atno 10764 bound_to 10752
  154.7464  135.5056  153.9287 H   0  0  0  0  0  0  0  0  0  0  0  0  # atno 10765 bound_to 10752
  141.0036  134.0367  157.3506 H   0  0  0  0  0  0  0  0  0  0  0  0  # atno 11005 bound_to 11000
  146.0305  140.8262  142.9878 LP  0  0  0  0  0  0  0  0  0  0  0  0  # atno 17320 bound_to 7965
  144.6839  140.2762  143.7299 LP  0  0  0  0  0  0  0  0  0  0  0  0  # atno 17321 bound_to 7965
  140.6918  143.2380  151.5110 LP  0  0  0  0  0  0  0  0  0  0  0  0  # atno 17342 bound_to 10162
  139.5612  144.2152  152.1694 LP  0  0  0  0  0  0  0  0  0  0  0  0  # atno 17343 bound_to 10162
  156.1035  130.3654  150.0176 LP  0  0  0  0  0  0  0  0  0  0  0  0  # atno 17370 bound_to 10713
  156.8287  130.9385  151.3638 LP  0  0  0  0  0  0  0  0  0  0  0  0  # atno 17371 bound_to 10713
  139.9051  135.0177  156.7450 LP  0  0  0  0  0  0  0  0  0  0  0  0  # atno 17394 bound_to 11000
  140.6849  133.9441  155.7932 LP  0  0  0  0  0  0  0  0  0  0  0  0  # atno 17395 bound_to 11000

$$$$
