AV-unprocessed.smi:266|AV-procd|sdf|2038|dock3
  -GOLD-   2262021253D 1   1.00000     0.00000
 Structure written by MMmdl.
 52 55  0  0  0  0  0  0  0  0  1 V2000
  144.8467  135.5749  151.6046 C   0  0  0  0  0  0  0  0  0  0  0  0
  144.5528  134.1395  152.0672 C   0  0  1  0  0  0  0  0  0  0  0  0
  144.3008  133.3615  150.8986 O   0  0  0  0  0  0  0  0  0  0  0  0
  144.7637  132.0396  151.1112 C   0  0  0  0  0  0  0  0  0  0  0  0
  146.0548  132.2632  151.8830 C   0  0  0  0  0  0  0  0  0  0  0  0
  145.6919  133.4041  152.8289 C   0  0  2  0  0  0  0  0  0  0  0  0
  145.1272  132.8320  153.9977 O   0  0  0  0  0  0  0  0  0  0  0  0
  146.9060  134.2667  153.2645 C   0  0  0  0  0  0  0  0  0  0  0  0
  147.9272  133.5070  153.9702 N   0  0  0  0  0  0  0  0  0  0  0  0
  148.5597  132.3646  153.5318 C   0  0  0  0  0  0  0  0  0  0  0  0
  149.4551  131.8751  154.3461 N   0  0  0  0  0  0  0  0  0  0  0  0
  149.4303  132.7410  155.4321 C   0  0  0  0  0  0  0  0  0  0  0  0
  150.1421  132.8146  156.6612 C   0  0  0  0  0  0  0  0  0  0  0  0
  151.1060  131.9502  157.0358 N   0  0  0  0  0  0  0  0  0  0  0  0
  150.8321  131.2908  158.3057 C   0  0  0  0  0  0  0  0  0  0  0  0
  151.5954  131.1252  155.9356 C   0  0  0  0  0  0  0  0  0  0  0  0
  152.9216  130.4242  156.2750 C   0  0  1  0  0  0  0  0  0  0  0  0
  153.3861  129.4862  155.1444 C   0  0  0  0  0  0  0  0  0  0  0  0
  154.8325  129.0652  155.4212 C   0  0  0  0  0  0  0  0  0  0  0  0
  155.6237  130.5180  156.2060 S   0  0  0  0  0  0  0  0  0  0  0  0
  156.2476  130.0997  157.4704 O   0  0  0  0  0  0  0  0  0  0  0  0
  156.3869  131.2661  155.1956 O   0  0  0  0  0  0  0  0  0  0  0  0
  154.0642  131.4151  156.5574 C   0  0  0  0  0  0  0  0  0  0  0  0
  149.8525  133.8305  157.5099 N   0  0  0  0  0  0  0  0  0  0  0  0
  148.9161  134.7255  157.1804 C   0  0  0  0  0  0  0  0  0  0  0  0
  148.1735  134.7879  156.0726 N   0  0  0  0  0  0  0  0  0  0  0  0
  148.4695  133.7677  155.2164 C   0  0  0  0  0  0  0  0  0  0  0  0
  145.0420  136.2347  152.4499 H   0  0  0  0  0  0  0  0  0  0  0  0
  143.9949  135.9849  151.0618 H   0  0  0  0  0  0  0  0  0  0  0  0
  145.7066  135.6111  150.9351 H   0  0  0  0  0  0  0  0  0  0  0  0
  143.6389  134.1510  152.6641 H   0  0  0  0  0  0  0  0  0  0  0  0
  144.0382  131.4846  151.7080 H   0  0  0  0  0  0  0  0  0  0  0  0
  144.9187  131.5101  150.1710 H   0  0  0  0  0  0  0  0  0  0  0  0
  146.4162  131.3667  152.3889 H   0  0  0  0  0  0  0  0  0  0  0  0
  146.8275  132.5858  151.1844 H   0  0  0  0  0  0  0  0  0  0  0  0
  145.8230  132.6612  154.6139 H   0  0  0  0  0  0  0  0  0  0  0  0
  147.3808  134.7257  152.3973 H   0  0  0  0  0  0  0  0  0  0  0  0
  146.5830  135.0861  153.9083 H   0  0  0  0  0  0  0  0  0  0  0  0
  148.3413  131.9079  152.5773 H   0  0  0  0  0  0  0  0  0  0  0  0
  150.3249  131.9626  159.0001 H   0  0  0  0  0  0  0  0  0  0  0  0
  151.7628  130.9728  158.7747 H   0  0  0  0  0  0  0  0  0  0  0  0
  150.2045  130.4110  158.1600 H   0  0  0  0  0  0  0  0  0  0  0  0
  150.8376  130.3784  155.6944 H   0  0  0  0  0  0  0  0  0  0  0  0
  151.7260  131.7313  155.0371 H   0  0  0  0  0  0  0  0  0  0  0  0
  152.7854  129.8070  157.1639 H   0  0  0  0  0  0  0  0  0  0  0  0
  152.7316  128.6200  155.0437 H   0  0  0  0  0  0  0  0  0  0  0  0
  153.3515  130.0229  154.1955 H   0  0  0  0  0  0  0  0  0  0  0  0
  154.8661  128.2381  156.1305 H   0  0  0  0  0  0  0  0  0  0  0  0
  155.3758  128.7775  154.5209 H   0  0  0  0  0  0  0  0  0  0  0  0
  154.0154  132.2736  155.8866 H   0  0  0  0  0  0  0  0  0  0  0  0
  154.0639  131.7808  157.5843 H   0  0  0  0  0  0  0  0  0  0  0  0
  148.7392  135.5053  157.9064 H   0  0  0  0  0  0  0  0  0  0  0  0
  1  2  1  0  0  0  0
  1 28  1  0  0  0  0
  1 29  1  0  0  0  0
  1 30  1  0  0  0  0
  2  6  1  0  0  0  0
  2  3  1  0  0  0  0
  2 31  1  0  0  0  0
  3  4  1  0  0  0  0
  4  5  1  0  0  0  0
  4 32  1  0  0  0  0
  4 33  1  0  0  0  0
  5  6  1  0  0  0  0
  5 34  1  0  0  0  0
  5 35  1  0  0  0  0
  6  7  1  0  0  0  0
  6  8  1  0  0  0  0
  7 36  1  0  0  0  0
  8  9  1  0  0  0  0
  8 37  1  0  0  0  0
  8 38  1  0  0  0  0
  9 27  1  0  0  0  0
  9 10  1  0  0  0  0
 10 11  2  0  0  0  0
 10 39  1  0  0  0  0
 11 12  1  0  0  0  0
 12 27  2  0  0  0  0
 12 13  1  0  0  0  0
 13 14  1  0  0  0  0
 13 24  2  0  0  0  0
 14 15  1  0  0  0  0
 14 16  1  0  0  0  0
 15 40  1  0  0  0  0
 15 41  1  0  0  0  0
 15 42  1  0  0  0  0
 16 17  1  0  0  0  0
 16 43  1  0  0  0  0
 16 44  1  0  0  0  0
 17 23  1  0  0  0  0
 17 18  1  0  0  0  0
 17 45  1  0  0  0  0
 18 19  1  0  0  0  0
 18 46  1  0  0  0  0
 18 47  1  0  0  0  0
 19 20  1  0  0  0  0
 19 48  1  0  0  0  0
 19 49  1  0  0  0  0
 20 21  2  0  0  0  0
 20 22  2  0  0  0  0
 20 23  1  0  0  0  0
 23 50  1  0  0  0  0
 23 51  1  0  0  0  0
 24 25  1  0  0  0  0
 25 26  2  0  0  0  0
 25 52  1  0  0  0  0
 26 27  1  0  0  0  0
M  END
> <s_m_source_file>
AV-unprocessed.smi

> <i_m_source_file_index>
266

> <i_lp_mmshare_version>
43012

> <i_f3d_flags>
0

> <s_epik_input>
W0NIMl0xW0NIMl1PW0NAQEhdKFtDSDNdKVtDQEBdMShbT0hdKVtDSDJdbihbY0hdbjIpYyhjMjMpbltjSF1uYzNOKFtDSDNdKVtDSDJdW0NAQEhdKFtDSDJdNClbQ0gyXVtDSDJdUzQoPU8pPU8=

> <s_epik_cmdline>
J2VwaWtfcHl0aG9uJywgJy1waCcsICc3LjAnLCAnLXRuJywgJzgnLCAnLW1hJywgJzIwMCcsICctbWV0YWxfYmluZGluZycsICctaW1hZScsICc8aW5maWxlLm1hZT4nLCAnLW9tYWUnLCAnPG91dGZpbGUubWFlPic=

> <r_lp_tautomer_probability>
1

> <r_epik_Ionization_Penalty>
0.00155497

> <r_epik_Ionization_Penalty_Charging>
0

> <r_epik_Ionization_Penalty_Neutral>
0.00155497

> <r_epik_State_Penalty>
-0

> <r_epik_Charging_Adjusted_Penalty>
0

> <i_epik_Tot_Q>
0

> <i_epik_Tot_abs_Q>
0

> <r_epik_Metal_State_Penalty>
-0

> <b_epik_Metal_Only>
0

> <s_lp_Force_Field>
OPLS_2005

> <r_lp_Energy>
32.9828

> <b_lp_Chiralities_Consistent>
1

> <s_lp_Variant>
AV-unprocessed.smi:266-8

> <Gold.Version>
5.8.1

> <Gold.Id.Protein>
6NUR|6NUR_protein|mol2

> <Gold.PLP.Fitness>
39.6845

> <Gold.PLP.PLP>
-33.8913

> <Gold.PLP.part.hbond>
-2.0000

> <Gold.PLP.part.metal>
0.0000

> <Gold.PLP.part.buried>
-4.0615

> <Gold.PLP.part.nonpolar>
-27.9845

> <Gold.PLP.part.repulsive>
0.2190

> <Gold.PLP.ligand.clash>
0.0675

> <Gold.PLP.ligand.torsion>
0.2848

> <Gold.PLP.Chemscore.Hbond>
1.0000

> <Gold.PLP.Chemscore.CHOScore>
1.0000

> <Gold.PLP.Chemscore.Metal>
0.0000

> <Gold.Chemscore.Hbonds>
donor molecule, donor type, donor heavy atom, donor atom, acceptor molecule, acceptor atom, score
      P1  H  6896  6909       L1    24  1.00
      L1  C    10    39       P1 10747  0.84

> <Gold.PLP.Chemscore.Internal.Correction>
0.4304

> <Gold.Rescore>
     Score         DG    S(hbond)    S(metal)    S(lipo)     H(rot)  DE(clash)    DE(int)     intcor
      7.38      -9.12       0.93        0.00      64.99       2.76       0.00       1.74       ----

> <Gold.Chemscore.Fitness>
7.3849

> <Gold.Chemscore.DG>
-9.1229

> <Gold.Chemscore.ZeroCoef>
-5.4800

> <Gold.Chemscore.Hbond>
0.9325

> <Gold.Chemscore.Metal>
0.0000

> <Gold.Chemscore.Lipo>
64.9855

> <Gold.Chemscore.Internal_Hbond>
0.0000

> <Gold.Chemscore.DEClash>
0.0015

> <Gold.Chemscore.DEInternal>
1.7365

> <Gold.Chemscore.Rot>
2.7637

> <Gold.Chemscore.Internal.Correction>
   9.000000E+99

> <Gold.Chemscore.Hbonds>
donor molecule, donor type, donor heavy atom, donor atom, acceptor molecule, acceptor atom, score
      P1  H  6896  6909       L1    24  0.83

> <Gold.Chemscore.Hbond.Weighted>
-3.1146

> <Gold.Chemscore.Metal.Weighted>
-0.0000

> <Gold.Chemscore.Lipo.Weighted>
-7.6033

> <Gold.Chemscore.Internal_Hbond.Weighted>
0.0000

> <Gold.Chemscore.DEClash.Weighted>
0.0015

> <Gold.Chemscore.DEInternal.Weighted>
1.7365

> <Gold.Chemscore.Rot.Weighted>
7.0750

> <Gold.Chemscore.Internal.Correction.Weighted>
   9.000000E+99

> <Gold.Protein.RotatedTorsions>
[ 6907 6896 6895 6894 ] final   -3.96 input  -60.11 | X-H torsion
[ 7974 7965 7964 7962 ] final   24.23 input  175.53 | X-H torsion
[ 8008 7997 7996 7995 ] final   78.63 input   59.86 | X-H torsion
[ 10167 10162 10161 10158 ] final -139.76 input  -65.29 | X-H torsion
[ 10718 10713 10712 10709 ] final  104.50 input   66.30 | X-H torsion
[ 10763 10752 10751 10750 ] final   87.71 input  -60.55 | X-H torsion
[ 11005 11000 10999 10996 ] final  -58.67 input  -57.11 | X-H torsion

> <Gold.Protein.ActiveResidues>
 VAL166  LYS551  ARG553  GLY616  TRP617  ASP618  TYR619  PRO620  LYS621  CYS622 
 ASP623  PHE694  ASN695  SER759  ASP760  ASP761  ALA762  ILE779  LEU786  VAL792 
 PHE793  MET794  SER795  GLU796  ALA797  LYS798  CYS799  TRP800  GLU811  SER814 

> <Gold.Protein.RotatedAtoms>
  151.5054  135.1063  159.9839 H   0  0  0  0  0  0  0  0  0  0  0  0  # atno 6907 bound_to 6896
  152.4684  133.7970  159.6943 H   0  0  0  0  0  0  0  0  0  0  0  0  # atno 6908 bound_to 6896
  150.8680  133.7483  159.2996 H   0  0  0  0  0  0  0  0  0  0  0  0  # atno 6909 bound_to 6896
  146.1947  139.7634  142.8806 H   0  0  0  0  0  0  0  0  0  0  0  0  # atno 7974 bound_to 7965
  155.8584  140.3455  155.5740 H   0  0  0  0  0  0  0  0  0  0  0  0  # atno 8008 bound_to 7997
  155.7960  140.0878  157.2002 H   0  0  0  0  0  0  0  0  0  0  0  0  # atno 8009 bound_to 7997
  154.4010  140.1474  156.3206 H   0  0  0  0  0  0  0  0  0  0  0  0  # atno 8010 bound_to 7997
  139.8347  143.7400  152.2665 H   0  0  0  0  0  0  0  0  0  0  0  0  # atno 10167 bound_to 10162
  157.6738  131.0805  150.5716 H   0  0  0  0  0  0  0  0  0  0  0  0  # atno 10718 bound_to 10713
  153.1695  135.4534  154.9883 H   0  0  0  0  0  0  0  0  0  0  0  0  # atno 10763 bound_to 10752
  154.7956  135.3236  154.7678 H   0  0  0  0  0  0  0  0  0  0  0  0  # atno 10764 bound_to 10752
  153.8156  135.6951  153.4889 H   0  0  0  0  0  0  0  0  0  0  0  0  # atno 10765 bound_to 10752
  141.1217  133.6613  156.4955 H   0  0  0  0  0  0  0  0  0  0  0  0  # atno 11005 bound_to 11000
  145.3680  141.0338  143.3247 LP  0  0  0  0  0  0  0  0  0  0  0  0  # atno 17320 bound_to 7965
  144.8557  139.5253  143.6836 LP  0  0  0  0  0  0  0  0  0  0  0  0  # atno 17321 bound_to 7965
  139.7619  144.7504  151.0352 LP  0  0  0  0  0  0  0  0  0  0  0  0  # atno 17342 bound_to 10162
  140.7803  143.4742  151.0105 LP  0  0  0  0  0  0  0  0  0  0  0  0  # atno 17343 bound_to 10162
  156.6017  130.4356  149.5894 LP  0  0  0  0  0  0  0  0  0  0  0  0  # atno 17370 bound_to 10713
  156.2501  130.6902  151.1637 LP  0  0  0  0  0  0  0  0  0  0  0  0  # atno 17371 bound_to 10713
  140.4488  134.6948  157.5029 LP  0  0  0  0  0  0  0  0  0  0  0  0  # atno 17394 bound_to 11000
  140.0179  134.6591  155.9282 LP  0  0  0  0  0  0  0  0  0  0  0  0  # atno 17395 bound_to 11000

$$$$
