AV-unprocessed.smi:2467|AV-procd|sdf|9728|dock10
  -GOLD-   2272013373D 1   1.00000     0.00000
 Structure written by MMmdl.
 46 47  0  0  0  0  0  0  0  0  1 V2000
  152.9962  138.3180  155.0400 C   0  0  0  0  0  0  0  0  0  0  0  0
  151.5261  138.0090  154.7167 C   0  0  0  0  0  0  0  0  0  0  0  0
  150.5736  139.2338  154.7473 C   0  0  0  0  0  0  0  0  0  0  0  0
  150.5815  139.8844  156.1576 C   0  0  0  0  0  0  0  0  0  0  0  0
  150.0999  141.3394  156.2314 C   0  0  0  0  0  0  0  0  0  0  0  0
  149.1300  138.8629  154.2926 C   0  0  1  0  0  0  0  0  0  0  0  0
  148.3699  137.9976  155.3297 C   0  0  0  0  0  0  0  0  0  0  0  0
  146.9681  137.6175  154.8278 C   0  0  2  0  0  0  0  0  0  0  0  0
  147.0854  136.6664  153.7264 N   0  0  0  0  0  0  0  0  0  0  0  0
  146.1069  135.9009  153.2201 C   0  0  0  0  0  0  0  0  0  0  0  0
  144.9528  135.9293  153.6440 O   0  0  0  0  0  0  0  0  0  0  0  0
  146.4599  135.0862  152.2019 N   0  0  0  0  0  0  0  0  0  0  0  0
  145.7021  134.1514  151.4333 C   0  0  0  0  0  0  0  0  0  0  0  0
  146.4801  133.2070  150.7255 C   0  0  0  0  0  0  0  0  0  0  0  0
  145.8427  132.2351  149.9299 C   0  0  0  0  0  0  0  0  0  0  0  0
  144.4384  132.2300  149.8600 C   0  0  0  0  0  0  0  0  0  0  0  0
  143.7359  133.2027  150.5935 C   0  0  0  0  0  0  0  0  0  0  0  0
  144.3462  134.1340  151.3561 N   0  0  0  0  0  0  0  0  0  0  0  0
  146.2167  138.8906  154.4027 C   0  0  0  0  0  0  0  0  0  0  0  0
  147.0746  139.7569  153.4663 C   0  0  0  0  0  0  0  0  0  0  0  0
  148.3338  140.0287  154.0745 O   0  0  0  0  0  0  0  0  0  0  0  0
  153.6196  137.4437  154.8522 H   0  0  0  0  0  0  0  0  0  0  0  0
  153.1377  138.5905  156.0852 H   0  0  0  0  0  0  0  0  0  0  0  0
  153.3750  139.1312  154.4205 H   0  0  0  0  0  0  0  0  0  0  0  0
  151.5210  137.5700  153.7189 H   0  0  0  0  0  0  0  0  0  0  0  0
  151.1590  137.2345  155.3915 H   0  0  0  0  0  0  0  0  0  0  0  0
  150.9761  139.9563  154.0358 H   0  0  0  0  0  0  0  0  0  0  0  0
  149.9843  139.2805  156.8421 H   0  0  0  0  0  0  0  0  0  0  0  0
  151.5947  139.8734  156.5561 H   0  0  0  0  0  0  0  0  0  0  0  0
  150.2547  141.7423  157.2324 H   0  0  0  0  0  0  0  0  0  0  0  0
  149.0348  141.4229  156.0169 H   0  0  0  0  0  0  0  0  0  0  0  0
  150.6459  141.9740  155.5332 H   0  0  0  0  0  0  0  0  0  0  0  0
  149.2040  138.3359  153.3397 H   0  0  0  0  0  0  0  0  0  0  0  0
  148.9197  137.0945  155.5868 H   0  0  0  0  0  0  0  0  0  0  0  0
  148.2742  138.5595  156.2598 H   0  0  0  0  0  0  0  0  0  0  0  0
  146.4250  137.1344  155.6419 H   0  0  0  0  0  0  0  0  0  0  0  0
  148.0016  136.5747  153.3100 H   0  0  0  0  0  0  0  0  0  0  0  0
  147.4306  135.1552  151.9324 H   0  0  0  0  0  0  0  0  0  0  0  0
  147.5587  133.2232  150.7888 H   0  0  0  0  0  0  0  0  0  0  0  0
  146.4223  131.5062  149.3830 H   0  0  0  0  0  0  0  0  0  0  0  0
  143.9137  131.5006  149.2610 H   0  0  0  0  0  0  0  0  0  0  0  0
  142.6567  133.2360  150.5688 H   0  0  0  0  0  0  0  0  0  0  0  0
  145.2654  138.6445  153.9295 H   0  0  0  0  0  0  0  0  0  0  0  0
  145.9726  139.4718  155.2927 H   0  0  0  0  0  0  0  0  0  0  0  0
  147.2190  139.2682  152.5015 H   0  0  0  0  0  0  0  0  0  0  0  0
  146.5696  140.7022  153.2679 H   0  0  0  0  0  0  0  0  0  0  0  0
  1  2  1  0  0  0  0
  1 22  1  0  0  0  0
  1 23  1  0  0  0  0
  1 24  1  0  0  0  0
  2  3  1  0  0  0  0
  2 25  1  0  0  0  0
  2 26  1  0  0  0  0
  3  4  1  0  0  0  0
  3  6  1  0  0  0  0
  3 27  1  0  0  0  0
  4  5  1  0  0  0  0
  4 28  1  0  0  0  0
  4 29  1  0  0  0  0
  5 30  1  0  0  0  0
  5 31  1  0  0  0  0
  5 32  1  0  0  0  0
  6 21  1  0  0  0  0
  6  7  1  0  0  0  0
  6 33  1  0  0  0  0
  7  8  1  0  0  0  0
  7 34  1  0  0  0  0
  7 35  1  0  0  0  0
  8  9  1  0  0  0  0
  8 19  1  0  0  0  0
  8 36  1  0  0  0  0
  9 10  1  0  0  0  0
  9 37  1  0  0  0  0
 10 11  2  0  0  0  0
 10 12  1  0  0  0  0
 12 13  1  0  0  0  0
 12 38  1  0  0  0  0
 13 18  1  0  0  0  0
 13 14  2  0  0  0  0
 14 15  1  0  0  0  0
 14 39  1  0  0  0  0
 15 16  2  0  0  0  0
 15 40  1  0  0  0  0
 16 17  1  0  0  0  0
 16 41  1  0  0  0  0
 17 18  2  0  0  0  0
 17 42  1  0  0  0  0
 19 20  1  0  0  0  0
 19 43  1  0  0  0  0
 19 44  1  0  0  0  0
 20 21  1  0  0  0  0
 20 45  1  0  0  0  0
 20 46  1  0  0  0  0
M  END
> <s_m_source_file>
AV-unprocessed.smi

> <i_m_source_file_index>
2467

> <i_lp_mmshare_version>
43012

> <i_f3d_flags>
0

> <s_epik_input>
W0NIM11bQ0gyXVtDSF0oW0NIMl1bQ0gzXSlbQ0BASF0xW0NIMl1bQ0BIXShbQ0gyXVtDSDJdTzEpW05IXUMoPU8pW05IXWMyW2NIXVtjSF1bY0hdW2NIXW4y

> <s_epik_cmdline>
J2VwaWtfcHl0aG9uJywgJy1waCcsICc3LjAnLCAnLXRuJywgJzgnLCAnLW1hJywgJzIwMCcsICctbWV0YWxfYmluZGluZycsICctaW1hZScsICc8aW5maWxlLm1hZT4nLCAnLW9tYWUnLCAnPG91dGZpbGUubWFlPic=

> <r_lp_tautomer_probability>
1

> <r_epik_Ionization_Penalty>
4.80427e-05

> <r_epik_Ionization_Penalty_Charging>
0

> <r_epik_Ionization_Penalty_Neutral>
4.80427e-05

> <r_epik_State_Penalty>
-0

> <r_epik_Charging_Adjusted_Penalty>
0

> <i_epik_Tot_Q>
0

> <i_epik_Tot_abs_Q>
0

> <r_epik_Metal_State_Penalty>
-0

> <b_epik_Metal_Only>
0

> <s_lp_Force_Field>
OPLS_2005

> <r_lp_Energy>
20.8854

> <b_lp_Chiralities_Consistent>
1

> <s_lp_Variant>
AV-unprocessed.smi:2467-4

> <Gold.Version>
5.8.1

> <Gold.Id.Protein>
6NUR|6NUR_protein|mol2

> <Gold.PLP.Fitness>
45.2345

> <Gold.PLP.PLP>
-37.2768

> <Gold.PLP.part.hbond>
-2.0000

> <Gold.PLP.part.metal>
0.0000

> <Gold.PLP.part.buried>
-3.4769

> <Gold.PLP.part.nonpolar>
-32.7569

> <Gold.PLP.part.repulsive>
0.9182

> <Gold.PLP.ligand.clash>
0.0000

> <Gold.PLP.ligand.torsion>
0.4949

> <Gold.PLP.Chemscore.Hbond>
1.9680

> <Gold.PLP.Chemscore.CHOScore>
1.0000

> <Gold.PLP.Chemscore.Metal>
0.0000

> <Gold.Chemscore.Hbonds>
donor molecule, donor type, donor heavy atom, donor atom, acceptor molecule, acceptor atom, score
      L1  H     9    37       P1  7948  0.96
      L1  H    12    38       P1  7948  0.96
      L1  C    17    42       P1 10186  1.00

> <Gold.PLP.Chemscore.Internal.Correction>
0.0435

> <Gold.Rescore>
     Score         DG    S(hbond)    S(metal)    S(lipo)     H(rot)  DE(clash)    DE(int)     intcor
     16.58     -18.93       1.82        0.00      95.39       1.49       0.73       1.62       ----

> <Gold.Chemscore.Fitness>
16.5792

> <Gold.Chemscore.DG>
-18.9263

> <Gold.Chemscore.ZeroCoef>
-5.4800

> <Gold.Chemscore.Hbond>
1.8230

> <Gold.Chemscore.Metal>
0.0000

> <Gold.Chemscore.Lipo>
95.3884

> <Gold.Chemscore.Internal_Hbond>
0.0000

> <Gold.Chemscore.DEClash>
0.7285

> <Gold.Chemscore.DEInternal>
1.6186

> <Gold.Chemscore.Rot>
1.4856

> <Gold.Chemscore.Internal.Correction>
   9.000000E+99

> <Gold.Chemscore.Hbonds>
donor molecule, donor type, donor heavy atom, donor atom, acceptor molecule, acceptor atom, score
      L1  H     9    37       P1  7948  0.92
      L1  H    12    38       P1  7948  0.88

> <Gold.Chemscore.Hbond.Weighted>
-6.0889

> <Gold.Chemscore.Metal.Weighted>
-0.0000

> <Gold.Chemscore.Lipo.Weighted>
-11.1604

> <Gold.Chemscore.Internal_Hbond.Weighted>
0.0000

> <Gold.Chemscore.DEClash.Weighted>
0.7285

> <Gold.Chemscore.DEInternal.Weighted>
1.6186

> <Gold.Chemscore.Rot.Weighted>
3.8031

> <Gold.Chemscore.Internal.Correction.Weighted>
   9.000000E+99

> <Gold.Protein.RotatedTorsions>
[ 6907 6896 6895 6894 ] final   74.03 input  -60.11 | X-H torsion
[ 7974 7965 7964 7962 ] final  -91.38 input  175.53 | X-H torsion
[ 8008 7997 7996 7995 ] final   62.65 input   59.86 | X-H torsion
[ 10167 10162 10161 10158 ] final  -36.61 input  -65.29 | X-H torsion
[ 10718 10713 10712 10709 ] final  -89.75 input   66.30 | X-H torsion
[ 10763 10752 10751 10750 ] final  -62.66 input  -60.55 | X-H torsion
[ 11005 11000 10999 10996 ] final -132.35 input  -57.11 | X-H torsion

> <Gold.Protein.ActiveResidues>
 VAL166  LYS551  ARG553  GLY616  TRP617  ASP618  TYR619  PRO620  LYS621  CYS622 
 ASP623  PHE694  ASN695  SER759  ASP760  ASP761  ALA762  ILE779  LEU786  VAL792 
 PHE793  MET794  SER795  GLU796  ALA797  LYS798  CYS799  TRP800  GLU811  SER814 

> <Gold.Protein.RotatedAtoms>
  152.4954  134.4333  159.9519 H   0  0  0  0  0  0  0  0  0  0  0  0  # atno 6907 bound_to 6896
  151.4313  133.3663  159.2777 H   0  0  0  0  0  0  0  0  0  0  0  0  # atno 6908 bound_to 6896
  150.9153  134.8593  159.7512 H   0  0  0  0  0  0  0  0  0  0  0  0  # atno 6909 bound_to 6896
  145.4139  140.9547  143.2219 H   0  0  0  0  0  0  0  0  0  0  0  0  # atno 7974 bound_to 7965
  155.6177  140.3495  155.4642 H   0  0  0  0  0  0  0  0  0  0  0  0  # atno 8008 bound_to 7997
  156.0104  140.1232  157.0483 H   0  0  0  0  0  0  0  0  0  0  0  0  # atno 8009 bound_to 7997
  154.4279  140.1083  156.5807 H   0  0  0  0  0  0  0  0  0  0  0  0  # atno 8010 bound_to 7997
  140.7138  143.3397  151.2384 H   0  0  0  0  0  0  0  0  0  0  0  0  # atno 10167 bound_to 10162
  155.9985  130.4884  150.5219 H   0  0  0  0  0  0  0  0  0  0  0  0  # atno 10718 bound_to 10713
  154.3033  135.6230  153.5434 H   0  0  0  0  0  0  0  0  0  0  0  0  # atno 10763 bound_to 10752
  152.9838  135.5683  154.5260 H   0  0  0  0  0  0  0  0  0  0  0  0  # atno 10764 bound_to 10752
  154.4895  135.2866  155.1484 H   0  0  0  0  0  0  0  0  0  0  0  0  # atno 10765 bound_to 10752
  140.9178  134.1484  157.4339 H   0  0  0  0  0  0  0  0  0  0  0  0  # atno 11005 bound_to 11000
  144.8291  139.5660  143.6952 LP  0  0  0  0  0  0  0  0  0  0  0  0  # atno 17320 bound_to 7965
  146.2691  139.6591  142.9308 LP  0  0  0  0  0  0  0  0  0  0  0  0  # atno 17321 bound_to 7965
  139.6901  143.9706  152.2855 LP  0  0  0  0  0  0  0  0  0  0  0  0  # atno 17342 bound_to 10162
  139.9365  144.6709  150.8310 LP  0  0  0  0  0  0  0  0  0  0  0  0  # atno 17343 bound_to 10162
  157.3179  131.0676  151.1953 LP  0  0  0  0  0  0  0  0  0  0  0  0  # atno 17370 bound_to 10713
  157.2876  130.6780  149.6098 LP  0  0  0  0  0  0  0  0  0  0  0  0  # atno 17371 bound_to 10713
  139.8769  134.9960  156.5772 LP  0  0  0  0  0  0  0  0  0  0  0  0  # atno 17394 bound_to 11000
  140.8027  133.8492  155.8741 LP  0  0  0  0  0  0  0  0  0  0  0  0  # atno 17395 bound_to 11000

$$$$
