AV-unprocessed.smi:1893|AV-procd|sdf|7671|dock1
  -GOLD-   22720 9403D 1   1.00000     0.00000
 Structure written by MMmdl.
 43 44  0  0  0  0  0  0  0  0  2 V2000
  151.7417  144.4997  157.9837 C   0  0  0  0  0  0  0  0  0  0  0  0
  151.7520  143.2503  158.8908 C   0  0  2  0  0  0  0  0  0  0  0  0
  153.1472  143.1390  159.5464 C   0  0  0  0  0  0  0  0  0  0  0  0
  153.2588  141.9217  160.4664 C   0  0  0  0  0  0  0  0  0  0  0  0
  152.9082  140.6614  159.6771 C   0  0  0  0  0  0  0  0  0  0  0  0
  151.5123  140.7909  159.0528 C   0  0  0  0  0  0  0  0  0  0  0  0
  151.4004  141.9845  158.1643 N   0  3  1  0  0  0  0  0  0  0  0  0
  150.0812  142.0251  157.4697 C   0  0  0  0  0  0  0  0  0  0  0  0
  149.7542  140.7195  156.7141 C   0  0  0  0  0  0  0  0  0  0  0  0
  148.6428  140.9097  155.7897 N   0  0  0  0  0  0  0  0  0  0  0  0
  148.7668  141.0748  154.4629 C   0  0  0  0  0  0  0  0  0  0  0  0
  149.8542  141.0475  153.8849 O   0  0  0  0  0  0  0  0  0  0  0  0
  147.4652  141.3195  153.6823 C   0  0  2  0  0  0  0  0  0  0  0  0
  146.2957  141.7588  154.5867 C   0  0  0  0  0  0  0  0  0  0  0  0
  147.1277  140.1453  152.8868 N   0  0  0  0  0  0  0  0  0  0  0  0
  147.2103  139.9479  151.5693 C   0  0  0  0  0  0  0  0  0  0  0  0
  146.8606  138.7288  151.1841 N   0  0  0  0  0  0  0  0  0  0  0  0
  146.5546  138.1845  152.3990 C   0  0  0  0  0  0  0  0  0  0  0  0
  146.7084  138.9858  153.4531 N   0  0  0  0  0  0  0  0  0  0  0  0
  152.1803  145.3561  158.4969 H   0  0  0  0  0  0  0  0  0  0  0  0
  150.7348  144.8066  157.7037 H   0  0  0  0  0  0  0  0  0  0  0  0
  152.3173  144.3361  157.0721 H   0  0  0  0  0  0  0  0  0  0  0  0
  151.0148  143.3993  159.6817 H   0  0  0  0  0  0  0  0  0  0  0  0
  153.9137  143.0773  158.7722 H   0  0  0  0  0  0  0  0  0  0  0  0
  153.3645  144.0410  160.1201 H   0  0  0  0  0  0  0  0  0  0  0  0
  154.2675  141.8456  160.8735 H   0  0  0  0  0  0  0  0  0  0  0  0
  152.5833  142.0318  161.3159 H   0  0  0  0  0  0  0  0  0  0  0  0
  153.6496  140.4934  158.8945 H   0  0  0  0  0  0  0  0  0  0  0  0
  152.9446  139.7904  160.3322 H   0  0  0  0  0  0  0  0  0  0  0  0
  151.3113  139.8758  158.4990 H   0  0  0  0  0  0  0  0  0  0  0  0
  150.7584  140.8521  159.8393 H   0  0  0  0  0  0  0  0  0  0  0  0
  149.2944  142.2618  158.1875 H   0  0  0  0  0  0  0  0  0  0  0  0
  150.0633  142.8212  156.7305 H   0  0  0  0  0  0  0  0  0  0  0  0
  150.6317  140.3572  156.1754 H   0  0  0  0  0  0  0  0  0  0  0  0
  149.4585  139.9264  157.3989 H   0  0  0  0  0  0  0  0  0  0  0  0
  147.7150  140.9399  156.1879 H   0  0  0  0  0  0  0  0  0  0  0  0
  147.6574  142.1364  152.9843 H   0  0  0  0  0  0  0  0  0  0  0  0
  146.5438  142.6665  155.1380 H   0  0  0  0  0  0  0  0  0  0  0  0
  146.0300  140.9918  155.3153 H   0  0  0  0  0  0  0  0  0  0  0  0
  145.4056  141.9715  153.9939 H   0  0  0  0  0  0  0  0  0  0  0  0
  147.5388  140.7099  150.8776 H   0  0  0  0  0  0  0  0  0  0  0  0
  146.2159  137.1649  152.5107 H   0  0  0  0  0  0  0  0  0  0  0  0
  152.0981  141.8778  157.4417 H   0  0  0  0  0  0  0  0  0  0  0  0
  1  2  1  0  0  0  0
  1 20  1  0  0  0  0
  1 21  1  0  0  0  0
  1 22  1  0  0  0  0
  2  7  1  0  0  0  0
  2  3  1  0  0  0  0
  2 23  1  0  0  0  0
  3  4  1  0  0  0  0
  3 24  1  0  0  0  0
  3 25  1  0  0  0  0
  4  5  1  0  0  0  0
  4 26  1  0  0  0  0
  4 27  1  0  0  0  0
  5  6  1  0  0  0  0
  5 28  1  0  0  0  0
  5 29  1  0  0  0  0
  6  7  1  0  0  0  0
  6 30  1  0  0  0  0
  6 31  1  0  0  0  0
  7  8  1  0  0  0  0
  7 43  1  0  0  0  0
  8  9  1  0  0  0  0
  8 32  1  0  0  0  0
  8 33  1  0  0  0  0
  9 10  1  0  0  0  0
  9 34  1  0  0  0  0
  9 35  1  0  0  0  0
 10 11  1  0  0  0  0
 10 36  1  0  0  0  0
 11 12  2  0  0  0  0
 11 13  1  0  0  0  0
 13 14  1  0  0  0  0
 13 15  1  0  0  0  0
 13 37  1  0  0  0  0
 14 38  1  0  0  0  0
 14 39  1  0  0  0  0
 14 40  1  0  0  0  0
 15 19  1  0  0  0  0
 15 16  1  0  0  0  0
 16 17  2  0  0  0  0
 16 41  1  0  0  0  0
 17 18  1  0  0  0  0
 18 19  2  0  0  0  0
 18 42  1  0  0  0  0
M  CHG  1   7   1
M  END
> <s_m_source_file>
AV-unprocessed.smi

> <i_m_source_file_index>
1893

> <i_lp_mmshare_version>
43012

> <i_f3d_flags>
0

> <s_epik_input>
W0NIM11bQ0BASF0xW0NIMl1bQ0gyXVtDSDJdW0NIMl1OMVtDSDJdW0NIMl1bTkhdQyg9TylbQ0BIXShbQ0gzXSluMltjSF1uW2NIXW4y

> <s_epik_cmdline>
J2VwaWtfcHl0aG9uJywgJy1waCcsICc3LjAnLCAnLXRuJywgJzgnLCAnLW1hJywgJzIwMCcsICctbWV0YWxfYmluZGluZycsICctaW1hZScsICc8aW5maWxlLm1hZT4nLCAnLW9tYWUnLCAnPG91dGZpbGUubWFlPic=

> <r_lp_tautomer_probability>
1

> <r_epik_Ionization_Penalty>
0.00266409

> <r_epik_Ionization_Penalty_Charging>
0.00265606

> <r_epik_Ionization_Penalty_Neutral>
8.02794e-06

> <r_epik_State_Penalty>
0.00184955

> <r_epik_Charging_Adjusted_Penalty>
0.00450561

> <i_epik_Tot_Q>
1

> <i_epik_Tot_abs_Q>
1

> <r_epik_Metal_State_Penalty>
-0

> <b_epik_Metal_Only>
0

> <s_lp_Force_Field>
OPLS_2005

> <r_lp_Energy>
24.7489

> <b_lp_Chiralities_Consistent>
1

> <s_lp_Variant>
AV-unprocessed.smi:1893-1

> <Gold.Version>
5.8.1

> <Gold.Id.Protein>
6NUR|6NUR_protein|mol2

> <Gold.PLP.Fitness>
43.2601

> <Gold.PLP.PLP>
-37.4310

> <Gold.PLP.part.hbond>
-2.7391

> <Gold.PLP.part.metal>
0.0000

> <Gold.PLP.part.buried>
1.0718

> <Gold.PLP.part.nonpolar>
-36.8448

> <Gold.PLP.part.repulsive>
2.8680

> <Gold.PLP.ligand.clash>
0.0000

> <Gold.PLP.ligand.torsion>
0.7132

> <Gold.PLP.Chemscore.Hbond>
2.1338

> <Gold.PLP.Chemscore.CHOScore>
0.2324

> <Gold.PLP.Chemscore.Metal>
0.0000

> <Gold.Chemscore.Hbonds>
donor molecule, donor type, donor heavy atom, donor atom, acceptor molecule, acceptor atom, score
      P1  H  7954  7966       L1    17  0.99
      P1  H  7989  7998       L1    12  0.38
      P1  H  8011  8017       L1    12  0.79
      L1  C    16    41       P1  7957  0.21

> <Gold.PLP.Chemscore.Internal.Correction>
0.1568

> <Gold.Rescore>
     Score         DG    S(hbond)    S(metal)    S(lipo)     H(rot)  DE(clash)    DE(int)     intcor
     10.73     -13.35       1.18        0.00      89.18       2.54       1.94       0.69       ----

> <Gold.Chemscore.Fitness>
10.7297

> <Gold.Chemscore.DG>
-13.3544

> <Gold.Chemscore.ZeroCoef>
-5.4800

> <Gold.Chemscore.Hbond>
1.1788

> <Gold.Chemscore.Metal>
0.0000

> <Gold.Chemscore.Lipo>
89.1773

> <Gold.Chemscore.Internal_Hbond>
0.0000

> <Gold.Chemscore.DEClash>
1.9383

> <Gold.Chemscore.DEInternal>
0.6864

> <Gold.Chemscore.Rot>
2.5377

> <Gold.Chemscore.Internal.Correction>
   9.000000E+99

> <Gold.Chemscore.Hbonds>
donor molecule, donor type, donor heavy atom, donor atom, acceptor molecule, acceptor atom, score
      P1  H  7954  7966       L1    17  0.75
      P1  H  7989  7998       L1    12  0.40
      P1  H  8011  8017       L1    12  0.53

> <Gold.Chemscore.Hbond.Weighted>
-3.9372

> <Gold.Chemscore.Metal.Weighted>
-0.0000

> <Gold.Chemscore.Lipo.Weighted>
-10.4337

> <Gold.Chemscore.Internal_Hbond.Weighted>
0.0000

> <Gold.Chemscore.DEClash.Weighted>
1.9383

> <Gold.Chemscore.DEInternal.Weighted>
0.6864

> <Gold.Chemscore.Rot.Weighted>
6.4966

> <Gold.Chemscore.Internal.Correction.Weighted>
   9.000000E+99

> <Gold.Protein.RotatedTorsions>
[ 6907 6896 6895 6894 ] final -103.07 input  -60.11 | X-H torsion
[ 7974 7965 7964 7962 ] final  174.96 input  175.53 | X-H torsion
[ 8008 7997 7996 7995 ] final  128.40 input   59.86 | X-H torsion
[ 10167 10162 10161 10158 ] final  -82.19 input  -65.29 | X-H torsion
[ 10718 10713 10712 10709 ] final -131.60 input   66.30 | X-H torsion
[ 10763 10752 10751 10750 ] final -173.85 input  -60.55 | X-H torsion
[ 11005 11000 10999 10996 ] final -114.86 input  -57.11 | X-H torsion

> <Gold.Protein.ActiveResidues>
 VAL166  LYS551  ARG553  GLY616  TRP617  ASP618  TYR619  PRO620  LYS621  CYS622 
 ASP623  PHE694  ASN695  SER759  ASP760  ASP761  ALA762  ILE779  LEU786  VAL792 
 PHE793  MET794  SER795  GLU796  ALA797  LYS798  CYS799  TRP800  GLU811  SER814 

> <Gold.Protein.RotatedAtoms>
  150.7224  134.0485  159.3789 H   0  0  0  0  0  0  0  0  0  0  0  0  # atno 6907 bound_to 6896
  151.8461  135.0571  160.0463 H   0  0  0  0  0  0  0  0  0  0  0  0  # atno 6908 bound_to 6896
  152.2826  133.5448  159.5543 H   0  0  0  0  0  0  0  0  0  0  0  0  # atno 6909 bound_to 6896
  144.7211  139.9875  143.6439 H   0  0  0  0  0  0  0  0  0  0  0  0  # atno 7974 bound_to 7965
  156.2914  140.2646  156.2429 H   0  0  0  0  0  0  0  0  0  0  0  0  # atno 8008 bound_to 7997
  154.9959  140.0388  157.2358 H   0  0  0  0  0  0  0  0  0  0  0  0  # atno 8009 bound_to 7997
  154.7645  140.2766  155.6192 H   0  0  0  0  0  0  0  0  0  0  0  0  # atno 8010 bound_to 7997
  140.4342  143.2537  151.8716 H   0  0  0  0  0  0  0  0  0  0  0  0  # atno 10167 bound_to 10162
  156.2261  130.7008  151.0808 H   0  0  0  0  0  0  0  0  0  0  0  0  # atno 10718 bound_to 10713
  154.6031  135.2856  155.0514 H   0  0  0  0  0  0  0  0  0  0  0  0  # atno 10763 bound_to 10752
  154.1771  135.6463  153.5028 H   0  0  0  0  0  0  0  0  0  0  0  0  # atno 10764 bound_to 10752
  153.0165  135.5415  154.6757 H   0  0  0  0  0  0  0  0  0  0  0  0  # atno 10765 bound_to 10752
  141.0525  133.9665  157.2812 H   0  0  0  0  0  0  0  0  0  0  0  0  # atno 11005 bound_to 11000
  146.0438  139.3447  143.0681 LP  0  0  0  0  0  0  0  0  0  0  0  0  # atno 17320 bound_to 7965
  145.8301  140.9635  143.0853 LP  0  0  0  0  0  0  0  0  0  0  0  0  # atno 17321 bound_to 7965
  139.4786  144.5301  151.8679 LP  0  0  0  0  0  0  0  0  0  0  0  0  # atno 17342 bound_to 10162
  140.4392  144.2010  150.5890 LP  0  0  0  0  0  0  0  0  0  0  0  0  # atno 17343 bound_to 10162
  157.7111  131.0733  150.6497 LP  0  0  0  0  0  0  0  0  0  0  0  0  # atno 17370 bound_to 10713
  156.6563  130.4499  149.5702 LP  0  0  0  0  0  0  0  0  0  0  0  0  # atno 17371 bound_to 10713
  139.9362  135.0196  156.8563 LP  0  0  0  0  0  0  0  0  0  0  0  0  # atno 17394 bound_to 11000
  140.6028  134.0156  155.7544 LP  0  0  0  0  0  0  0  0  0  0  0  0  # atno 17395 bound_to 11000

$$$$
