AV-unprocessed.smi:1037|AV-procd|sdf|4520|dock3
  -GOLD-   22720 2533D 1   1.00000     0.00000
 Structure written by MMmdl.
 29 29  0  0  0  0  0  0  0  0  1 V2000
  145.2707  141.8126  154.6242 N   0  0  0  0  0  0  0  0  0  0  0  0
  146.5951  141.9465  154.7243 C   0  0  0  0  0  0  0  0  0  0  0  0
  147.3311  141.9126  153.7392 O   0  0  0  0  0  0  0  0  0  0  0  0
  147.1584  142.1706  156.1337 C   0  0  0  0  0  0  0  0  0  0  0  0
  148.6181  142.2201  156.1637 N   0  0  0  0  0  0  0  0  0  0  0  0
  149.4280  141.1500  156.1842 C   0  0  0  0  0  0  0  0  0  0  0  0
  149.0127  139.9907  156.2167 O   0  0  0  0  0  0  0  0  0  0  0  0
  150.9348  141.4431  156.1875 C   0  0  0  0  0  0  0  0  0  0  0  0
  151.4224  141.9345  157.4875 N   0  0  0  0  0  0  0  0  0  0  0  0
  150.9379  143.1818  157.9204 C   0  0  0  0  0  0  0  0  0  0  0  0
  151.3135  143.7172  159.0897 C   0  0  0  0  0  0  0  0  0  0  0  0
  152.2409  142.9787  159.9117 C   0  0  0  0  0  0  0  0  0  0  0  0
  152.7221  141.7751  159.5233 C   0  0  0  0  0  0  0  0  0  0  0  0
  153.7018  140.9788  160.3823 C   0  0  0  0  0  0  0  0  0  0  0  0
  153.2982  139.7136  160.5048 F   0  0  0  0  0  0  0  0  0  0  0  0
  154.9153  140.9776  159.8292 F   0  0  0  0  0  0  0  0  0  0  0  0
  153.8139  141.4909  161.6089 F   0  0  0  0  0  0  0  0  0  0  0  0
  152.2998  141.1930  158.2329 C   0  0  0  0  0  0  0  0  0  0  0  0
  152.7092  140.1003  157.8368 O   0  0  0  0  0  0  0  0  0  0  0  0
  144.8509  141.6571  153.7192 H   0  0  0  0  0  0  0  0  0  0  0  0
  144.6940  141.8608  155.4515 H   0  0  0  0  0  0  0  0  0  0  0  0
  146.7766  143.1189  156.5121 H   0  0  0  0  0  0  0  0  0  0  0  0
  146.7959  141.3944  156.8100 H   0  0  0  0  0  0  0  0  0  0  0  0
  149.0423  143.1358  156.1376 H   0  0  0  0  0  0  0  0  0  0  0  0
  151.4849  140.5460  155.8964 H   0  0  0  0  0  0  0  0  0  0  0  0
  151.1393  142.1692  155.3996 H   0  0  0  0  0  0  0  0  0  0  0  0
  150.2421  143.6657  157.2505 H   0  0  0  0  0  0  0  0  0  0  0  0
  150.9288  144.6741  159.4105 H   0  0  0  0  0  0  0  0  0  0  0  0
  152.5456  143.4088  160.8540 H   0  0  0  0  0  0  0  0  0  0  0  0
  1  2  1  0  0  0  0
  1 20  1  0  0  0  0
  1 21  1  0  0  0  0
  2  3  2  0  0  0  0
  2  4  1  0  0  0  0
  4  5  1  0  0  0  0
  4 22  1  0  0  0  0
  4 23  1  0  0  0  0
  5  6  1  0  0  0  0
  5 24  1  0  0  0  0
  6  7  2  0  0  0  0
  6  8  1  0  0  0  0
  8  9  1  0  0  0  0
  8 25  1  0  0  0  0
  8 26  1  0  0  0  0
  9 18  1  0  0  0  0
  9 10  1  0  0  0  0
 10 11  2  0  0  0  0
 10 27  1  0  0  0  0
 11 12  1  0  0  0  0
 11 28  1  0  0  0  0
 12 13  2  0  0  0  0
 12 29  1  0  0  0  0
 13 14  1  0  0  0  0
 13 18  1  0  0  0  0
 14 15  1  0  0  0  0
 14 16  1  0  0  0  0
 14 17  1  0  0  0  0
 18 19  2  0  0  0  0
M  END
> <s_m_source_file>
AV-unprocessed.smi

> <i_m_source_file_index>
1037

> <i_lp_mmshare_version>
43012

> <i_f3d_flags>
0

> <s_epik_input>
W05IMl1DKD1PKVtDSDJdW05IXUMoPU8pW0NIMl1uMVtjSF1bY0hdW2NIXWMoQyhGKShGKUYpYzE9Tw==

> <s_epik_cmdline>
J2VwaWtfcHl0aG9uJywgJy1waCcsICc3LjAnLCAnLXRuJywgJzgnLCAnLW1hJywgJzIwMCcsICctbWV0YWxfYmluZGluZycsICctaW1hZScsICc8aW5maWxlLm1hZT4nLCAnLW9tYWUnLCAnPG91dGZpbGUubWFlPic=

> <r_lp_tautomer_probability>
1

> <r_epik_Ionization_Penalty>
9.73018e-08

> <r_epik_Ionization_Penalty_Charging>
1.58095e-09

> <r_epik_Ionization_Penalty_Neutral>
9.57208e-08

> <r_epik_State_Penalty>
-0

> <r_epik_Charging_Adjusted_Penalty>
1.58095e-09

> <i_epik_Tot_Q>
0

> <i_epik_Tot_abs_Q>
0

> <r_epik_Metal_State_Penalty>
-0

> <b_epik_Metal_Only>
0

> <s_lp_Force_Field>
OPLS_2005

> <r_lp_Energy>
7.91729

> <b_lp_Chiralities_Consistent>
1

> <s_lp_Variant>
AV-unprocessed.smi:1037-1

> <Gold.Version>
5.8.1

> <Gold.Id.Protein>
6NUR|6NUR_protein|mol2

> <Gold.PLP.Fitness>
46.8127

> <Gold.PLP.PLP>
-35.9197

> <Gold.PLP.part.hbond>
-3.0000

> <Gold.PLP.part.metal>
0.0000

> <Gold.PLP.part.buried>
-3.7954

> <Gold.PLP.part.nonpolar>
-28.6390

> <Gold.PLP.part.repulsive>
0.2132

> <Gold.PLP.ligand.clash>
0.0000

> <Gold.PLP.ligand.torsion>
0.7224

> <Gold.PLP.Chemscore.Hbond>
2.9920

> <Gold.PLP.Chemscore.CHOScore>
1.0000

> <Gold.PLP.Chemscore.Metal>
0.0000

> <Gold.Chemscore.Hbonds>
donor molecule, donor type, donor heavy atom, donor atom, acceptor molecule, acceptor atom, score
      L1  H     1    20       P1 10175  0.67
      L1  H     5    24       P1  8028  0.91
      P1  H  7997  8009       L1    19  1.00
      L1  C    10    27       P1  8028  1.00

> <Gold.PLP.Chemscore.Internal.Correction>
0.3618

> <Gold.Rescore>
     Score         DG    S(hbond)    S(metal)    S(lipo)     H(rot)  DE(clash)    DE(int)     intcor
     13.05     -15.43       2.91        0.00      61.91       2.74       0.08       2.29       ----

> <Gold.Chemscore.Fitness>
13.0504

> <Gold.Chemscore.DG>
-15.4269

> <Gold.Chemscore.ZeroCoef>
-5.4800

> <Gold.Chemscore.Hbond>
2.9123

> <Gold.Chemscore.Metal>
0.0000

> <Gold.Chemscore.Lipo>
61.9090

> <Gold.Chemscore.Internal_Hbond>
0.0000

> <Gold.Chemscore.DEClash>
0.0826

> <Gold.Chemscore.DEInternal>
2.2939

> <Gold.Chemscore.Rot>
2.7435

> <Gold.Chemscore.Internal.Correction>
   9.000000E+99

> <Gold.Chemscore.Hbonds>
donor molecule, donor type, donor heavy atom, donor atom, acceptor molecule, acceptor atom, score
      L1  H     1    20       P1 10175  0.06
      L1  H     5    24       P1  8028  0.89
      P1  H  7997  8009       L1    19  0.87

> <Gold.Chemscore.Hbond.Weighted>
-9.7269

> <Gold.Chemscore.Metal.Weighted>
-0.0000

> <Gold.Chemscore.Lipo.Weighted>
-7.2434

> <Gold.Chemscore.Internal_Hbond.Weighted>
0.0000

> <Gold.Chemscore.DEClash.Weighted>
0.0826

> <Gold.Chemscore.DEInternal.Weighted>
2.2939

> <Gold.Chemscore.Rot.Weighted>
7.0234

> <Gold.Chemscore.Internal.Correction.Weighted>
   9.000000E+99

> <Gold.Protein.RotatedTorsions>
[ 6907 6896 6895 6894 ] final -100.87 input  -60.11 | X-H torsion
[ 7974 7965 7964 7962 ] final   92.12 input  175.53 | X-H torsion
[ 8008 7997 7996 7995 ] final  168.26 input   59.86 | X-H torsion
[ 10167 10162 10161 10158 ] final   13.79 input  -65.29 | X-H torsion
[ 10718 10713 10712 10709 ] final   49.57 input   66.30 | X-H torsion
[ 10763 10752 10751 10750 ] final   81.89 input  -60.55 | X-H torsion
[ 11005 11000 10999 10996 ] final  -45.71 input  -57.11 | X-H torsion

> <Gold.Protein.ActiveResidues>
 VAL166  LYS551  ARG553  GLY616  TRP617  ASP618  TYR619  PRO620  LYS621  CYS622 
 ASP623  PHE694  ASN695  SER759  ASP760  ASP761  ALA762  ILE779  LEU786  VAL792 
 PHE793  MET794  SER795  GLU796  ALA797  LYS798  CYS799  TRP800  GLU811  SER814 

> <Gold.Protein.RotatedAtoms>
  150.7132  134.0820  159.3901 H   0  0  0  0  0  0  0  0  0  0  0  0  # atno 6907 bound_to 6896
  151.8805  135.0453  160.0497 H   0  0  0  0  0  0  0  0  0  0  0  0  # atno 6908 bound_to 6896
  152.2572  133.5230  159.5396 H   0  0  0  0  0  0  0  0  0  0  0  0  # atno 6909 bound_to 6896
  145.4965  139.2276  143.2801 H   0  0  0  0  0  0  0  0  0  0  0  0  # atno 7974 bound_to 7965
  156.1563  140.1595  156.8687 H   0  0  0  0  0  0  0  0  0  0  0  0  # atno 8008 bound_to 7997
  154.5118  140.0799  156.8040 H   0  0  0  0  0  0  0  0  0  0  0  0  # atno 8009 bound_to 7997
  155.3797  140.3404  155.4248 H   0  0  0  0  0  0  0  0  0  0  0  0  # atno 8010 bound_to 7997
  140.5979  143.8664  150.6936 H   0  0  0  0  0  0  0  0  0  0  0  0  # atno 10167 bound_to 10162
  157.4799  130.8308  149.8081 H   0  0  0  0  0  0  0  0  0  0  0  0  # atno 10718 bound_to 10713
  153.1155  135.4749  154.9108 H   0  0  0  0  0  0  0  0  0  0  0  0  # atno 10763 bound_to 10752
  154.7524  135.3109  154.8535 H   0  0  0  0  0  0  0  0  0  0  0  0  # atno 10764 bound_to 10752
  153.9113  135.6865  153.4804 H   0  0  0  0  0  0  0  0  0  0  0  0  # atno 10765 bound_to 10752
  141.0532  133.6735  156.3051 H   0  0  0  0  0  0  0  0  0  0  0  0  # atno 11005 bound_to 11000
  146.2252  140.5763  142.8999 LP  0  0  0  0  0  0  0  0  0  0  0  0  # atno 17320 bound_to 7965
  144.7804  140.5828  143.6609 LP  0  0  0  0  0  0  0  0  0  0  0  0  # atno 17321 bound_to 7965
  140.2203  143.3814  152.1648 LP  0  0  0  0  0  0  0  0  0  0  0  0  # atno 17342 bound_to 10162
  139.5271  144.7115  151.5191 LP  0  0  0  0  0  0  0  0  0  0  0  0  # atno 17343 bound_to 10162
  156.0116  130.3831  150.2246 LP  0  0  0  0  0  0  0  0  0  0  0  0  # atno 17370 bound_to 10713
  157.0431  131.0041  151.3277 LP  0  0  0  0  0  0  0  0  0  0  0  0  # atno 17371 bound_to 10713
  140.6014  134.5551  157.5518 LP  0  0  0  0  0  0  0  0  0  0  0  0  # atno 17394 bound_to 11000
  139.9368  134.7860  156.0781 LP  0  0  0  0  0  0  0  0  0  0  0  0  # atno 17395 bound_to 11000

$$$$
