AV-unprocessed.smi:1702|AV-procd|sdf|6847|dock3
  -GOLD-   22720 8 23D 1   1.00000     0.00000
 Structure written by MMmdl.
 44 46  0  0  0  0  0  0  0  0  2 V2000
  144.3484  132.6875  151.1844 C   0  0  0  0  0  0  0  0  0  0  0  0
  145.6422  133.3605  150.6942 C   0  0  2  0  0  0  0  0  0  0  0  0
  146.7641  133.3308  151.7484 C   0  0  0  0  0  0  0  0  0  0  0  0
  146.5195  134.3344  152.8900 C   0  0  0  0  0  0  0  0  0  0  0  0
  146.3335  135.7108  152.3635 N   0  3  2  0  0  0  0  0  0  0  0  0
  146.2462  136.7248  153.4461 C   0  0  0  0  0  0  0  0  0  0  0  0
  146.1883  138.1658  152.9014 C   0  0  2  0  0  0  0  0  0  0  0  0
  147.3123  138.3821  152.0691 O   0  0  0  0  0  0  0  0  0  0  0  0
  146.1831  139.2079  154.0368 C   0  0  0  0  0  0  0  0  0  0  0  0
  147.4338  139.9412  154.1248 N   0  0  0  0  0  0  0  0  0  0  0  0
  147.6272  141.2454  153.8491 C   0  0  0  0  0  0  0  0  0  0  0  0
  148.8597  141.7227  153.9932 N   0  0  0  0  0  0  0  0  0  0  0  0
  149.5480  140.5981  154.4145 C   0  0  0  0  0  0  0  0  0  0  0  0
  150.9112  140.4281  154.7457 C   0  0  0  0  0  0  0  0  0  0  0  0
  151.3954  139.1690  155.1570 C   0  0  0  0  0  0  0  0  0  0  0  0
  152.7045  139.0234  155.4711 F   0  0  0  0  0  0  0  0  0  0  0  0
  150.5249  138.0622  155.2427 C   0  0  0  0  0  0  0  0  0  0  0  0
  150.9973  136.8566  155.6387 F   0  0  0  0  0  0  0  0  0  0  0  0
  149.1627  138.2071  154.9171 C   0  0  0  0  0  0  0  0  0  0  0  0
  148.6837  139.4654  154.5081 C   0  0  0  0  0  0  0  0  0  0  0  0
  145.2027  135.7777  151.4002 C   0  0  0  0  0  0  0  0  0  0  0  0
  145.4197  134.8094  150.2235 C   0  0  0  0  0  0  0  0  0  0  0  0
  143.9265  133.1897  152.0545 H   0  0  0  0  0  0  0  0  0  0  0  0
  144.5306  131.6486  151.4611 H   0  0  0  0  0  0  0  0  0  0  0  0
  143.5880  132.6879  150.4031 H   0  0  0  0  0  0  0  0  0  0  0  0
  145.9824  132.7833  149.8334 H   0  0  0  0  0  0  0  0  0  0  0  0
  146.8780  132.3242  152.1521 H   0  0  0  0  0  0  0  0  0  0  0  0
  147.7126  133.5705  151.2658 H   0  0  0  0  0  0  0  0  0  0  0  0
  145.6481  134.0445  153.4784 H   0  0  0  0  0  0  0  0  0  0  0  0
  147.3752  134.3131  153.5659 H   0  0  0  0  0  0  0  0  0  0  0  0
  145.3739  136.5127  154.0665 H   0  0  0  0  0  0  0  0  0  0  0  0
  147.1118  136.6415  154.1054 H   0  0  0  0  0  0  0  0  0  0  0  0
  145.2912  138.3079  152.2995 H   0  0  0  0  0  0  0  0  0  0  0  0
  147.8410  137.5984  152.0615 H   0  0  0  0  0  0  0  0  0  0  0  0
  145.3790  139.9285  153.8815 H   0  0  0  0  0  0  0  0  0  0  0  0
  145.9889  138.7294  154.9976 H   0  0  0  0  0  0  0  0  0  0  0  0
  146.8167  141.8798  153.5213 H   0  0  0  0  0  0  0  0  0  0  0  0
  151.5871  141.2679  154.6836 H   0  0  0  0  0  0  0  0  0  0  0  0
  148.4966  137.3600  154.9821 H   0  0  0  0  0  0  0  0  0  0  0  0
  144.2684  135.5487  151.9145 H   0  0  0  0  0  0  0  0  0  0  0  0
  145.0991  136.7879  151.0066 H   0  0  0  0  0  0  0  0  0  0  0  0
  146.2903  135.1369  149.6536 H   0  0  0  0  0  0  0  0  0  0  0  0
  144.5744  134.8584  149.5362 H   0  0  0  0  0  0  0  0  0  0  0  0
  147.1741  135.9268  151.8460 H   0  0  0  0  0  0  0  0  0  0  0  0
  1  2  1  0  0  0  0
  1 23  1  0  0  0  0
  1 24  1  0  0  0  0
  1 25  1  0  0  0  0
  2 22  1  0  0  0  0
  2  3  1  0  0  0  0
  2 26  1  0  0  0  0
  3  4  1  0  0  0  0
  3 27  1  0  0  0  0
  3 28  1  0  0  0  0
  4  5  1  0  0  0  0
  4 29  1  0  0  0  0
  4 30  1  0  0  0  0
  5  6  1  0  0  0  0
  5 21  1  0  0  0  0
  5 44  1  0  0  0  0
  6  7  1  0  0  0  0
  6 31  1  0  0  0  0
  6 32  1  0  0  0  0
  7  8  1  0  0  0  0
  7  9  1  0  0  0  0
  7 33  1  0  0  0  0
  8 34  1  0  0  0  0
  9 10  1  0  0  0  0
  9 35  1  0  0  0  0
  9 36  1  0  0  0  0
 10 20  1  0  0  0  0
 10 11  1  0  0  0  0
 11 12  2  0  0  0  0
 11 37  1  0  0  0  0
 12 13  1  0  0  0  0
 13 20  2  0  0  0  0
 13 14  1  0  0  0  0
 14 15  2  0  0  0  0
 14 38  1  0  0  0  0
 15 16  1  0  0  0  0
 15 17  1  0  0  0  0
 17 18  1  0  0  0  0
 17 19  2  0  0  0  0
 19 20  1  0  0  0  0
 19 39  1  0  0  0  0
 21 22  1  0  0  0  0
 21 40  1  0  0  0  0
 21 41  1  0  0  0  0
 22 42  1  0  0  0  0
 22 43  1  0  0  0  0
M  CHG  1   5   1
M  END
> <s_m_source_file>
AV-unprocessed.smi

> <i_m_source_file_index>
1702

> <i_lp_mmshare_version>
43012

> <i_f3d_flags>
0

> <s_epik_input>
W0NIM11bQ0hdMVtDSDJdW0NIMl1OKFtDSDJdW0NIMl0xKVtDSDJdW0NASF0oW09IXSlbQ0gyXW4oW2NIXW4yKWMoYzIzKVtjSF1jKEYpYyhGKVtjSF0z

> <s_epik_cmdline>
J2VwaWtfcHl0aG9uJywgJy1waCcsICc3LjAnLCAnLXRuJywgJzgnLCAnLW1hJywgJzIwMCcsICctbWV0YWxfYmluZGluZycsICctaW1hZScsICc8aW5maWxlLm1hZT4nLCAnLW9tYWUnLCAnPG91dGZpbGUubWFlPic=

> <r_epik_Ionization_Penalty>
0.0135195

> <r_epik_Ionization_Penalty_Charging>
0.00181365

> <r_epik_Ionization_Penalty_Neutral>
0.0117059

> <r_epik_State_Penalty>
0.00902283

> <r_epik_Charging_Adjusted_Penalty>
0.0108365

> <i_epik_Tot_Q>
1

> <i_epik_Tot_abs_Q>
1

> <r_epik_Metal_State_Penalty>
9.09181e-06

> <b_epik_Metal_Only>
0

> <s_lp_Force_Field>
OPLS_2005

> <r_lp_Energy>
24.0829

> <b_lp_Chiralities_Consistent>
1

> <s_lp_Variant>
AV-unprocessed.smi:1702-3

> <Gold.Version>
5.8.1

> <Gold.Id.Protein>
6NUR|6NUR_protein|mol2

> <Gold.PLP.Fitness>
47.7096

> <Gold.PLP.PLP>
-38.1951

> <Gold.PLP.part.hbond>
-5.0685

> <Gold.PLP.part.metal>
0.0000

> <Gold.PLP.part.buried>
2.5082

> <Gold.PLP.part.nonpolar>
-36.0500

> <Gold.PLP.part.repulsive>
0.2052

> <Gold.PLP.ligand.clash>
0.0000

> <Gold.PLP.ligand.torsion>
0.7677

> <Gold.PLP.Chemscore.Hbond>
3.6560

> <Gold.PLP.Chemscore.CHOScore>
0.0000

> <Gold.PLP.Chemscore.Metal>
0.0000

> <Gold.Chemscore.Hbonds>
donor molecule, donor type, donor heavy atom, donor atom, acceptor molecule, acceptor atom, score
      L1  H     5    44       P1  7948  1.98
      L1  H     8    34       P1  7948  1.00
      P1  H  8011  8017       L1    12  0.58

> <Gold.PLP.Chemscore.Internal.Correction>
0.0820

> <Gold.Rescore>
     Score         DG    S(hbond)    S(metal)    S(lipo)     H(rot)  DE(clash)    DE(int)     intcor
     14.42     -16.89       2.30        0.00      81.33       2.26       1.67       0.80       ----

> <Gold.Chemscore.Fitness>
14.4217

> <Gold.Chemscore.DG>
-16.8936

> <Gold.Chemscore.ZeroCoef>
-5.4800

> <Gold.Chemscore.Hbond>
2.3021

> <Gold.Chemscore.Metal>
0.0000

> <Gold.Chemscore.Lipo>
81.3254

> <Gold.Chemscore.Internal_Hbond>
0.0000

> <Gold.Chemscore.DEClash>
1.6710

> <Gold.Chemscore.DEInternal>
0.8009

> <Gold.Chemscore.Rot>
2.2619

> <Gold.Chemscore.Internal.Correction>
   9.000000E+99

> <Gold.Chemscore.Hbonds>
donor molecule, donor type, donor heavy atom, donor atom, acceptor molecule, acceptor atom, score
      L1  H     5    44       P1  7948  0.94
      L1  H     8    34       P1  7948  1.00
      P1  H  8011  8017       L1    12  0.33

> <Gold.Chemscore.Hbond.Weighted>
-7.6890

> <Gold.Chemscore.Metal.Weighted>
-0.0000

> <Gold.Chemscore.Lipo.Weighted>
-9.5151

> <Gold.Chemscore.Internal_Hbond.Weighted>
0.0000

> <Gold.Chemscore.DEClash.Weighted>
1.6710

> <Gold.Chemscore.DEInternal.Weighted>
0.8009

> <Gold.Chemscore.Rot.Weighted>
5.7904

> <Gold.Chemscore.Internal.Correction.Weighted>
   9.000000E+99

> <Gold.Protein.RotatedTorsions>
[ 6907 6896 6895 6894 ] final   79.64 input  -60.11 | X-H torsion
[ 7974 7965 7964 7962 ] final  -95.74 input  175.53 | X-H torsion
[ 8008 7997 7996 7995 ] final  -79.21 input   59.86 | X-H torsion
[ 10167 10162 10161 10158 ] final   40.01 input  -65.29 | X-H torsion
[ 10718 10713 10712 10709 ] final   72.57 input   66.30 | X-H torsion
[ 10763 10752 10751 10750 ] final  -94.11 input  -60.55 | X-H torsion
[ 11005 11000 10999 10996 ] final  178.39 input  -57.11 | X-H torsion

> <Gold.Protein.ActiveResidues>
 VAL166  LYS551  ARG553  GLY616  TRP617  ASP618  TYR619  PRO620  LYS621  CYS622 
 ASP623  PHE694  ASN695  SER759  ASP760  ASP761  ALA762  ILE779  LEU786  VAL792 
 PHE793  MET794  SER795  GLU796  ALA797  LYS798  CYS799  TRP800  GLU811  SER814 

> <Gold.Protein.RotatedAtoms>
  152.5206  134.3481  159.9240 H   0  0  0  0  0  0  0  0  0  0  0  0  # atno 6907 bound_to 6896
  151.3431  133.3948  159.2681 H   0  0  0  0  0  0  0  0  0  0  0  0  # atno 6908 bound_to 6896
  150.9787  134.9165  159.7889 H   0  0  0  0  0  0  0  0  0  0  0  0  # atno 6909 bound_to 6896
  145.3561  140.9484  143.2527 H   0  0  0  0  0  0  0  0  0  0  0  0  # atno 7974 bound_to 7965
  154.5763  140.0682  156.9039 H   0  0  0  0  0  0  0  0  0  0  0  0  # atno 8008 bound_to 7997
  155.2542  140.3354  155.4261 H   0  0  0  0  0  0  0  0  0  0  0  0  # atno 8009 bound_to 7997
  156.2157  140.1777  156.7580 H   0  0  0  0  0  0  0  0  0  0  0  0  # atno 8010 bound_to 7997
  140.3784  144.2013  150.6131 H   0  0  0  0  0  0  0  0  0  0  0  0  # atno 10167 bound_to 10162
  157.6507  130.9585  150.0947 H   0  0  0  0  0  0  0  0  0  0  0  0  # atno 10718 bound_to 10713
  154.7024  135.5169  153.8545 H   0  0  0  0  0  0  0  0  0  0  0  0  # atno 10763 bound_to 10752
  153.0714  135.6602  154.0248 H   0  0  0  0  0  0  0  0  0  0  0  0  # atno 10764 bound_to 10752
  154.0105  135.3002  155.3372 H   0  0  0  0  0  0  0  0  0  0  0  0  # atno 10765 bound_to 10752
  140.3946  134.6832  157.4527 H   0  0  0  0  0  0  0  0  0  0  0  0  # atno 11005 bound_to 11000
  144.8681  139.5078  143.6780 LP  0  0  0  0  0  0  0  0  0  0  0  0  # atno 17320 bound_to 7965
  146.2947  139.7243  142.9135 LP  0  0  0  0  0  0  0  0  0  0  0  0  # atno 17321 bound_to 7965
  140.4963  143.2331  151.8745 LP  0  0  0  0  0  0  0  0  0  0  0  0  # atno 17342 bound_to 10162
  139.4797  144.5110  151.8933 LP  0  0  0  0  0  0  0  0  0  0  0  0  # atno 17343 bound_to 10162
  156.1886  130.3653  149.8939 LP  0  0  0  0  0  0  0  0  0  0  0  0  # atno 17370 bound_to 10713
  156.6873  130.8882  151.3584 LP  0  0  0  0  0  0  0  0  0  0  0  0  # atno 17371 bound_to 10713
  140.0381  134.6307  155.9016 LP  0  0  0  0  0  0  0  0  0  0  0  0  # atno 17394 bound_to 11000
  141.1879  133.6561  156.5300 LP  0  0  0  0  0  0  0  0  0  0  0  0  # atno 17395 bound_to 11000

$$$$
