AV-unprocessed.smi:2822|AV-procd|sdf|10868|dock4
  -GOLD-   2272015313D 1   1.00000     0.00000
 Structure written by MMmdl.
 40 42  0  0  0  0  0  0  0  0  2 V2000
  148.9500  137.1711  155.1368 Cl  0  0  0  0  0  0  0  0  0  0  0  0
  148.8630  138.8739  154.8469 C   0  0  0  0  0  0  0  0  0  0  0  0
  147.7458  139.4129  154.1768 C   0  0  0  0  0  0  0  0  0  0  0  0
  147.6016  140.7279  153.9104 N   0  0  0  0  0  0  0  0  0  0  0  0
  148.5837  141.5613  154.3111 C   0  0  0  0  0  0  0  0  0  0  0  0
  149.7418  141.1282  154.9875 C   0  0  0  0  0  0  0  0  0  0  0  0
  149.8915  139.7490  155.2660 C   0  0  0  0  0  0  0  0  0  0  0  0
  151.0092  139.2297  155.9369 N   0  0  0  0  0  0  0  0  0  0  0  0
  152.1110  140.0909  156.3383 C   0  0  0  0  0  0  0  0  0  0  0  0
  151.9515  140.5669  157.7890 C   0  0  2  0  0  0  0  0  0  0  0  0
  151.8785  142.1021  157.8821 C   0  0  0  0  0  0  0  0  0  0  0  0
  151.7936  142.5348  159.2963 N   0  3  2  0  0  0  0  0  0  0  0  0
  151.6801  144.0091  159.4326 C   0  0  0  0  0  0  0  0  0  0  0  0
  151.4983  144.4165  160.9038 C   0  0  0  0  0  0  0  0  0  0  0  0
  152.6415  143.8685  161.7677 C   0  0  0  0  0  0  0  0  0  0  0  0
  152.7554  142.3488  161.5867 C   0  0  0  0  0  0  0  0  0  0  0  0
  152.9132  141.9728  160.0999 C   0  0  1  0  0  0  0  0  0  0  0  0
  152.9803  140.4446  159.9127 C   0  0  0  0  0  0  0  0  0  0  0  0
  153.0859  140.1303  158.5301 O   0  0  0  0  0  0  0  0  0  0  0  0
  146.9445  138.7693  153.8445 H   0  0  0  0  0  0  0  0  0  0  0  0
  148.4427  142.6082  154.0861 H   0  0  0  0  0  0  0  0  0  0  0  0
  150.4849  141.8552  155.2780 H   0  0  0  0  0  0  0  0  0  0  0  0
  151.1494  138.2292  155.9472 H   0  0  0  0  0  0  0  0  0  0  0  0
  153.0574  139.5628  156.2157 H   0  0  0  0  0  0  0  0  0  0  0  0
  152.1318  140.9559  155.6745 H   0  0  0  0  0  0  0  0  0  0  0  0
  151.0423  140.1334  158.2111 H   0  0  0  0  0  0  0  0  0  0  0  0
  152.7572  142.5502  157.4148 H   0  0  0  0  0  0  0  0  0  0  0  0
  151.0059  142.4660  157.3380 H   0  0  0  0  0  0  0  0  0  0  0  0
  152.5716  144.4843  159.0204 H   0  0  0  0  0  0  0  0  0  0  0  0
  150.8311  144.3660  158.8481 H   0  0  0  0  0  0  0  0  0  0  0  0
  151.4558  145.5029  160.9879 H   0  0  0  0  0  0  0  0  0  0  0  0
  150.5444  144.0392  161.2746 H   0  0  0  0  0  0  0  0  0  0  0  0
  153.5805  144.3458  161.4840 H   0  0  0  0  0  0  0  0  0  0  0  0
  152.4719  144.1116  162.8172 H   0  0  0  0  0  0  0  0  0  0  0  0
  153.6039  141.9735  162.1602 H   0  0  0  0  0  0  0  0  0  0  0  0
  151.8673  141.8668  161.9984 H   0  0  0  0  0  0  0  0  0  0  0  0
  153.8446  142.4039  159.7282 H   0  0  0  0  0  0  0  0  0  0  0  0
  153.8518  140.0404  160.4284 H   0  0  0  0  0  0  0  0  0  0  0  0
  152.1036  139.9550  160.3404 H   0  0  0  0  0  0  0  0  0  0  0  0
  150.9417  142.1417  159.6706 H   0  0  0  0  0  0  0  0  0  0  0  0
  1  2  1  0  0  0  0
  2  7  1  0  0  0  0
  2  3  2  0  0  0  0
  3  4  1  0  0  0  0
  3 20  1  0  0  0  0
  4  5  2  0  0  0  0
  5  6  1  0  0  0  0
  5 21  1  0  0  0  0
  6  7  2  0  0  0  0
  6 22  1  0  0  0  0
  7  8  1  0  0  0  0
  8  9  1  0  0  0  0
  8 23  1  0  0  0  0
  9 10  1  0  0  0  0
  9 24  1  0  0  0  0
  9 25  1  0  0  0  0
 10 19  1  0  0  0  0
 10 11  1  0  0  0  0
 10 26  1  0  0  0  0
 11 12  1  0  0  0  0
 11 27  1  0  0  0  0
 11 28  1  0  0  0  0
 12 17  1  0  0  0  0
 12 13  1  0  0  0  0
 12 40  1  0  0  0  0
 13 14  1  0  0  0  0
 13 29  1  0  0  0  0
 13 30  1  0  0  0  0
 14 15  1  0  0  0  0
 14 31  1  0  0  0  0
 14 32  1  0  0  0  0
 15 16  1  0  0  0  0
 15 33  1  0  0  0  0
 15 34  1  0  0  0  0
 16 17  1  0  0  0  0
 16 35  1  0  0  0  0
 16 36  1  0  0  0  0
 17 18  1  0  0  0  0
 17 37  1  0  0  0  0
 18 19  1  0  0  0  0
 18 38  1  0  0  0  0
 18 39  1  0  0  0  0
M  CHG  1  12   1
M  END
> <s_m_source_file>
AV-unprocessed.smi

> <i_m_source_file_index>
2822

> <i_lp_mmshare_version>
43012

> <i_f3d_flags>
0

> <s_epik_input>
Q2xjMVtjSF1uW2NIXVtjSF1jMVtOSF1bQ0gyXVtDQEhdKFtDSDJdMilPW0NIMl1bQ0BASF0oTjIzKVtDSDJdW0NIMl1bQ0gyXVtDSDJdMw==

> <s_epik_cmdline>
J2VwaWtfcHl0aG9uJywgJy1waCcsICc3LjAnLCAnLXRuJywgJzgnLCAnLW1hJywgJzIwMCcsICctbWV0YWxfYmluZGluZycsICctaW1hZScsICc8aW5maWxlLm1hZT4nLCAnLW9tYWUnLCAnPG91dGZpbGUubWFlPic=

> <r_lp_tautomer_probability>
0.999999

> <r_epik_Ionization_Penalty>
0.88937

> <r_epik_Ionization_Penalty_Charging>
0.0803403

> <r_epik_Ionization_Penalty_Neutral>
0.80903

> <r_epik_State_Penalty>
0.931884

> <r_epik_Charging_Adjusted_Penalty>
1.01222

> <i_epik_Tot_Q>
1

> <i_epik_Tot_abs_Q>
1

> <r_epik_Metal_State_Penalty>
0.0782275

> <b_epik_Metal_Only>
0

> <s_lp_Force_Field>
OPLS_2005

> <r_lp_Energy>
28.742

> <b_lp_Chiralities_Consistent>
1

> <s_lp_Variant>
AV-unprocessed.smi:2822-9

> <Gold.Version>
5.8.1

> <Gold.Id.Protein>
6NUR|6NUR_protein|mol2

> <Gold.PLP.Fitness>
40.7544

> <Gold.PLP.PLP>
-36.8603

> <Gold.PLP.part.hbond>
-1.0000

> <Gold.PLP.part.metal>
0.0000

> <Gold.PLP.part.buried>
-5.2991

> <Gold.PLP.part.nonpolar>
-30.3323

> <Gold.PLP.part.repulsive>
0.2996

> <Gold.PLP.ligand.clash>
0.0000

> <Gold.PLP.ligand.torsion>
0.9274

> <Gold.PLP.Chemscore.Hbond>
0.9675

> <Gold.PLP.Chemscore.CHOScore>
0.9487

> <Gold.PLP.Chemscore.Metal>
0.0000

> <Gold.Chemscore.Hbonds>
donor molecule, donor type, donor heavy atom, donor atom, acceptor molecule, acceptor atom, score
      P1  H  7997  8009       L1    19  0.76
      L1  C     5    21       P1  8028  0.73

> <Gold.PLP.Chemscore.Internal.Correction>
0.0003

> <Gold.Rescore>
     Score         DG    S(hbond)    S(metal)    S(lipo)     H(rot)  DE(clash)    DE(int)     intcor
     18.27     -19.28       0.89        0.00     118.14       1.17       0.09       0.92       ----

> <Gold.Chemscore.Fitness>
18.2710

> <Gold.Chemscore.DG>
-19.2757

> <Gold.Chemscore.ZeroCoef>
-5.4800

> <Gold.Chemscore.Hbond>
0.8884

> <Gold.Chemscore.Metal>
0.0000

> <Gold.Chemscore.Lipo>
118.1360

> <Gold.Chemscore.Internal_Hbond>
0.0000

> <Gold.Chemscore.DEClash>
0.0871

> <Gold.Chemscore.DEInternal>
0.9176

> <Gold.Chemscore.Rot>
1.1693

> <Gold.Chemscore.Internal.Correction>
   9.000000E+99

> <Gold.Chemscore.Hbonds>
donor molecule, donor type, donor heavy atom, donor atom, acceptor molecule, acceptor atom, score
      P1  H  7997  8009       L1    19  0.22

> <Gold.Chemscore.Hbond.Weighted>
-2.9671

> <Gold.Chemscore.Metal.Weighted>
-0.0000

> <Gold.Chemscore.Lipo.Weighted>
-13.8219

> <Gold.Chemscore.Internal_Hbond.Weighted>
0.0000

> <Gold.Chemscore.DEClash.Weighted>
0.0871

> <Gold.Chemscore.DEInternal.Weighted>
0.9176

> <Gold.Chemscore.Rot.Weighted>
2.9934

> <Gold.Chemscore.Internal.Correction.Weighted>
   9.000000E+99

> <Gold.Protein.RotatedTorsions>
[ 6907 6896 6895 6894 ] final -108.03 input  -60.11 | X-H torsion
[ 7974 7965 7964 7962 ] final   74.65 input  175.53 | X-H torsion
[ 8008 7997 7996 7995 ] final  156.55 input   59.86 | X-H torsion
[ 10167 10162 10161 10158 ] final   98.18 input  -65.29 | X-H torsion
[ 10718 10713 10712 10709 ] final -142.63 input   66.30 | X-H torsion
[ 10763 10752 10751 10750 ] final -147.51 input  -60.55 | X-H torsion
[ 11005 11000 10999 10996 ] final -153.61 input  -57.11 | X-H torsion

> <Gold.Protein.ActiveResidues>
 VAL166  LYS551  ARG553  GLY616  TRP617  ASP618  TYR619  PRO620  LYS621  CYS622 
 ASP623  PHE694  ASN695  SER759  ASP760  ASP761  ALA762  ILE779  LEU786  VAL792 
 PHE793  MET794  SER795  GLU796  ALA797  LYS798  CYS799  TRP800  GLU811  SER814 

> <Gold.Protein.RotatedAtoms>
  150.7478  133.9738  159.3553 H   0  0  0  0  0  0  0  0  0  0  0  0  # atno 6907 bound_to 6896
  151.7673  135.0793  160.0364 H   0  0  0  0  0  0  0  0  0  0  0  0  # atno 6908 bound_to 6896
  152.3363  133.5978  159.5880 H   0  0  0  0  0  0  0  0  0  0  0  0  # atno 6909 bound_to 6896
  145.7256  139.2664  143.1571 H   0  0  0  0  0  0  0  0  0  0  0  0  # atno 7974 bound_to 7965
  156.2416  140.1909  156.6972 H   0  0  0  0  0  0  0  0  0  0  0  0  # atno 8008 bound_to 7997
  154.6208  140.0609  156.9639 H   0  0  0  0  0  0  0  0  0  0  0  0  # atno 8009 bound_to 7997
  155.1864  140.3281  155.4368 H   0  0  0  0  0  0  0  0  0  0  0  0  # atno 8010 bound_to 7997
  139.7732  144.6915  151.0126 H   0  0  0  0  0  0  0  0  0  0  0  0  # atno 10167 bound_to 10162
  156.3482  130.7674  151.1822 H   0  0  0  0  0  0  0  0  0  0  0  0  # atno 10718 bound_to 10713
  154.8282  135.3358  154.6829 H   0  0  0  0  0  0  0  0  0  0  0  0  # atno 10763 bound_to 10752
  153.7452  135.6943  153.4962 H   0  0  0  0  0  0  0  0  0  0  0  0  # atno 10764 bound_to 10752
  153.2215  135.4447  155.0446 H   0  0  0  0  0  0  0  0  0  0  0  0  # atno 10765 bound_to 10752
  140.7063  134.3882  157.5203 H   0  0  0  0  0  0  0  0  0  0  0  0  # atno 11005 bound_to 11000
  146.0585  140.7995  142.9746 LP  0  0  0  0  0  0  0  0  0  0  0  0  # atno 17320 bound_to 7965
  144.6906  140.3161  143.7240 LP  0  0  0  0  0  0  0  0  0  0  0  0  # atno 17321 bound_to 7965
  140.7815  143.4565  151.0338 LP  0  0  0  0  0  0  0  0  0  0  0  0  # atno 17342 bound_to 10162
  139.8248  143.7771  152.3178 LP  0  0  0  0  0  0  0  0  0  0  0  0  # atno 17343 bound_to 10162
  157.7457  131.0435  150.4747 LP  0  0  0  0  0  0  0  0  0  0  0  0  # atno 17370 bound_to 10713
  156.4938  130.4101  149.6391 LP  0  0  0  0  0  0  0  0  0  0  0  0  # atno 17371 bound_to 10713
  139.8883  134.8859  156.2480 LP  0  0  0  0  0  0  0  0  0  0  0  0  # atno 17394 bound_to 11000
  141.0122  133.7089  156.1129 LP  0  0  0  0  0  0  0  0  0  0  0  0  # atno 17395 bound_to 11000

$$$$
