AV-unprocessed.smi:671|AV-procd|sdf|3284|dock5
  -GOLD-   22720 0243D 1   1.00000     0.00000
 Structure written by MMmdl.
 50 51  0  0  0  0  0  0  0  0  2 V2000
  147.1541  142.1501  154.1065 C   0  0  0  0  0  0  0  0  0  0  0  0
  148.4175  141.6505  154.7222 C   0  0  0  0  0  0  0  0  0  0  0  0
  149.0680  142.2655  155.7461 N   0  3  0  0  0  0  0  0  0  0  0  0
  150.1710  141.5778  156.0746 N   0  0  0  0  0  0  0  0  0  0  0  0
  151.0145  142.0726  157.1630 C   0  0  0  0  0  0  0  0  0  0  0  0
  150.2928  140.4765  155.2805 C   0  0  0  0  0  0  0  0  0  0  0  0
  151.4035  139.4819  155.3725 C   0  0  0  0  0  0  0  0  0  0  0  0
  149.1841  140.5176  154.4254 C   0  0  0  0  0  0  0  0  0  0  0  0
  148.8689  139.5072  153.3577 C   0  0  0  0  0  0  0  0  0  0  0  0
  147.3791  139.0993  153.3225 C   0  0  1  0  0  0  0  0  0  0  0  0
  146.5831  139.8584  152.2491 C   0  0  0  0  0  0  0  0  0  0  0  0
  147.2555  137.6619  153.0704 N   0  0  0  0  0  0  0  0  0  0  0  0
  146.1478  136.8985  153.1036 C   0  0  0  0  0  0  0  0  0  0  0  0
  145.0460  137.3698  153.3771 O   0  0  0  0  0  0  0  0  0  0  0  0
  146.3518  135.5992  152.8251 N   0  0  0  0  0  0  0  0  0  0  0  0
  145.3200  134.5625  152.7812 C   0  0  1  0  0  0  0  0  0  0  0  0
  144.2336  134.9605  151.7726 C   0  0  0  0  0  0  0  0  0  0  0  0
  144.6020  134.2309  150.4842 C   0  0  0  0  0  0  0  0  0  0  0  0
  145.1703  132.8959  150.9578 C   0  0  0  0  0  0  0  0  0  0  0  0
  145.8412  133.1734  152.3153 C   0  0  1  0  0  0  0  0  0  0  0  0
  147.3716  133.0014  152.2570 C   0  0  0  0  0  0  0  0  0  0  0  0
  147.3335  142.4498  153.0738 H   0  0  0  0  0  0  0  0  0  0  0  0
  146.7715  143.0102  154.6569 H   0  0  0  0  0  0  0  0  0  0  0  0
  146.3947  141.3680  154.1154 H   0  0  0  0  0  0  0  0  0  0  0  0
  152.0521  141.7960  156.9751 H   0  0  0  0  0  0  0  0  0  0  0  0
  150.6818  141.6274  158.1008 H   0  0  0  0  0  0  0  0  0  0  0  0
  150.9404  143.1591  157.2255 H   0  0  0  0  0  0  0  0  0  0  0  0
  151.3458  138.7637  154.5562 H   0  0  0  0  0  0  0  0  0  0  0  0
  151.3443  138.9386  156.3155 H   0  0  0  0  0  0  0  0  0  0  0  0
  152.3693  139.9840  155.3166 H   0  0  0  0  0  0  0  0  0  0  0  0
  149.1609  139.8891  152.3787 H   0  0  0  0  0  0  0  0  0  0  0  0
  149.4891  138.6239  153.5130 H   0  0  0  0  0  0  0  0  0  0  0  0
  146.9199  139.3309  154.2847 H   0  0  0  0  0  0  0  0  0  0  0  0
  146.5980  140.9341  152.4251 H   0  0  0  0  0  0  0  0  0  0  0  0
  145.5381  139.5466  152.2437 H   0  0  0  0  0  0  0  0  0  0  0  0
  146.9878  139.6779  151.2525 H   0  0  0  0  0  0  0  0  0  0  0  0
  148.1182  137.1818  152.8580 H   0  0  0  0  0  0  0  0  0  0  0  0
  147.2958  135.3039  152.6248 H   0  0  0  0  0  0  0  0  0  0  0  0
  144.8615  134.4750  153.7681 H   0  0  0  0  0  0  0  0  0  0  0  0
  143.2658  134.5991  152.1233 H   0  0  0  0  0  0  0  0  0  0  0  0
  144.1433  136.0389  151.6330 H   0  0  0  0  0  0  0  0  0  0  0  0
  143.7520  134.1105  149.8119 H   0  0  0  0  0  0  0  0  0  0  0  0
  145.3734  134.7865  149.9504 H   0  0  0  0  0  0  0  0  0  0  0  0
  144.3533  132.1865  151.0968 H   0  0  0  0  0  0  0  0  0  0  0  0
  145.8503  132.4613  150.2241 H   0  0  0  0  0  0  0  0  0  0  0  0
  145.4699  132.4273  153.0195 H   0  0  0  0  0  0  0  0  0  0  0  0
  147.8290  133.6940  151.5495 H   0  0  0  0  0  0  0  0  0  0  0  0
  147.6354  131.9913  151.9429 H   0  0  0  0  0  0  0  0  0  0  0  0
  147.8259  133.1644  153.2345 H   0  0  0  0  0  0  0  0  0  0  0  0
  148.8163  143.1161  156.2341 H   0  0  0  0  0  0  0  0  0  0  0  0
  1  2  1  0  0  0  0
  1 22  1  0  0  0  0
  1 23  1  0  0  0  0
  1 24  1  0  0  0  0
  2  8  1  0  0  0  0
  2  3  2  0  0  0  0
  3  4  1  0  0  0  0
  3 50  1  0  0  0  0
  4  5  1  0  0  0  0
  4  6  1  0  0  0  0
  5 25  1  0  0  0  0
  5 26  1  0  0  0  0
  5 27  1  0  0  0  0
  6  7  1  0  0  0  0
  6  8  2  0  0  0  0
  7 28  1  0  0  0  0
  7 29  1  0  0  0  0
  7 30  1  0  0  0  0
  8  9  1  0  0  0  0
  9 10  1  0  0  0  0
  9 31  1  0  0  0  0
  9 32  1  0  0  0  0
 10 11  1  0  0  0  0
 10 12  1  0  0  0  0
 10 33  1  0  0  0  0
 11 34  1  0  0  0  0
 11 35  1  0  0  0  0
 11 36  1  0  0  0  0
 12 13  1  0  0  0  0
 12 37  1  0  0  0  0
 13 14  2  0  0  0  0
 13 15  1  0  0  0  0
 15 16  1  0  0  0  0
 15 38  1  0  0  0  0
 16 20  1  0  0  0  0
 16 17  1  0  0  0  0
 16 39  1  0  0  0  0
 17 18  1  0  0  0  0
 17 40  1  0  0  0  0
 17 41  1  0  0  0  0
 18 19  1  0  0  0  0
 18 42  1  0  0  0  0
 18 43  1  0  0  0  0
 19 20  1  0  0  0  0
 19 44  1  0  0  0  0
 19 45  1  0  0  0  0
 20 21  1  0  0  0  0
 20 46  1  0  0  0  0
 21 47  1  0  0  0  0
 21 48  1  0  0  0  0
 21 49  1  0  0  0  0
M  CHG  1   3   1
M  END
> <s_m_source_file>
AV-unprocessed.smi

> <i_m_source_file_index>
671

> <i_lp_mmshare_version>
43012

> <i_f3d_flags>
0

> <s_epik_input>
W0NIM11jMW5uKFtDSDNdKWMoW0NIM10pYzFbQ0gyXVtDQEhdKFtDSDNdKVtOSF1DKD1PKVtOSF1bQ0BASF0yW0NIMl1bQ0gyXVtDSDJdW0NASF0yW0NIM10=

> <s_epik_cmdline>
J2VwaWtfcHl0aG9uJywgJy1waCcsICc3LjAnLCAnLXRuJywgJzgnLCAnLW1hJywgJzIwMCcsICctbWV0YWxfYmluZGluZycsICctaW1hZScsICc8aW5maWxlLm1hZT4nLCAnLW9tYWUnLCAnPG91dGZpbGUubWFlPic=

> <r_lp_tautomer_probability>
1

> <r_epik_Ionization_Penalty>
2.28705

> <r_epik_Ionization_Penalty_Charging>
2.28698

> <r_epik_Ionization_Penalty_Neutral>
6.23157e-05

> <r_epik_State_Penalty>
2.43671

> <r_epik_Charging_Adjusted_Penalty>
4.72369

> <i_epik_Tot_Q>
1

> <i_epik_Tot_abs_Q>
1

> <r_epik_Metal_State_Penalty>
2.44911

> <b_epik_Metal_Only>
0

> <s_lp_Force_Field>
OPLS_2005

> <r_lp_Energy>
36.9698

> <b_lp_Chiralities_Consistent>
1

> <s_lp_Variant>
AV-unprocessed.smi:671-12

> <Gold.Version>
5.8.1

> <Gold.Id.Protein>
6NUR|6NUR_protein|mol2

> <Gold.PLP.Fitness>
44.1790

> <Gold.PLP.PLP>
-37.0096

> <Gold.PLP.part.hbond>
-2.6146

> <Gold.PLP.part.metal>
0.0000

> <Gold.PLP.part.buried>
4.8926

> <Gold.PLP.part.nonpolar>
-38.9582

> <Gold.PLP.part.repulsive>
0.3476

> <Gold.PLP.ligand.clash>
0.0000

> <Gold.PLP.ligand.torsion>
0.8098

> <Gold.PLP.Chemscore.Hbond>
2.9218

> <Gold.PLP.Chemscore.CHOScore>
0.0000

> <Gold.PLP.Chemscore.Metal>
0.0000

> <Gold.Chemscore.Hbonds>
donor molecule, donor type, donor heavy atom, donor atom, acceptor molecule, acceptor atom, score
      L1  H     3    50       P1  8028  1.15
      L1  H    12    37       P1  7948  0.98
      L1  H    15    38       P1  7948  0.70

> <Gold.PLP.Chemscore.Internal.Correction>
0.0234

> <Gold.Rescore>
     Score         DG    S(hbond)    S(metal)    S(lipo)     H(rot)  DE(clash)    DE(int)     intcor
     17.12     -20.57       2.31        0.00      96.01       1.51       2.59       0.86       ----

> <Gold.Chemscore.Fitness>
17.1208

> <Gold.Chemscore.DG>
-20.5684

> <Gold.Chemscore.ZeroCoef>
-5.4800

> <Gold.Chemscore.Hbond>
2.3085

> <Gold.Chemscore.Metal>
0.0000

> <Gold.Chemscore.Lipo>
96.0052

> <Gold.Chemscore.Internal_Hbond>
0.0000

> <Gold.Chemscore.DEClash>
2.5855

> <Gold.Chemscore.DEInternal>
0.8621

> <Gold.Chemscore.Rot>
1.5057

> <Gold.Chemscore.Internal.Correction>
   9.000000E+99

> <Gold.Chemscore.Hbonds>
donor molecule, donor type, donor heavy atom, donor atom, acceptor molecule, acceptor atom, score
      L1  H     3    50       P1  8028  0.58
      L1  H    12    37       P1  7948  0.92
      L1  H    15    38       P1  7948  0.65

> <Gold.Chemscore.Hbond.Weighted>
-7.7105

> <Gold.Chemscore.Metal.Weighted>
-0.0000

> <Gold.Chemscore.Lipo.Weighted>
-11.2326

> <Gold.Chemscore.Internal_Hbond.Weighted>
0.0000

> <Gold.Chemscore.DEClash.Weighted>
2.5855

> <Gold.Chemscore.DEInternal.Weighted>
0.8621

> <Gold.Chemscore.Rot.Weighted>
3.8547

> <Gold.Chemscore.Internal.Correction.Weighted>
   9.000000E+99

> <Gold.Protein.RotatedTorsions>
[ 6907 6896 6895 6894 ] final   70.25 input  -60.11 | X-H torsion
[ 7974 7965 7964 7962 ] final  136.63 input  175.53 | X-H torsion
[ 8008 7997 7996 7995 ] final -135.38 input   59.86 | X-H torsion
[ 10167 10162 10161 10158 ] final   83.17 input  -65.29 | X-H torsion
[ 10718 10713 10712 10709 ] final -101.22 input   66.30 | X-H torsion
[ 10763 10752 10751 10750 ] final   -3.72 input  -60.55 | X-H torsion
[ 11005 11000 10999 10996 ] final  126.48 input  -57.11 | X-H torsion

> <Gold.Protein.ActiveResidues>
 VAL166  LYS551  ARG553  GLY616  TRP617  ASP618  TYR619  PRO620  LYS621  CYS622 
 ASP623  PHE694  ASN695  SER759  ASP760  ASP761  ALA762  ILE779  LEU786  VAL792 
 PHE793  MET794  SER795  GLU796  ALA797  LYS798  CYS799  TRP800  GLU811  SER814 

> <Gold.Protein.RotatedAtoms>
  152.4737  134.4896  159.9690 H   0  0  0  0  0  0  0  0  0  0  0  0  # atno 6907 bound_to 6896
  151.4917  133.3517  159.2862 H   0  0  0  0  0  0  0  0  0  0  0  0  # atno 6908 bound_to 6896
  150.8763  134.8173  159.7253 H   0  0  0  0  0  0  0  0  0  0  0  0  # atno 6909 bound_to 6896
  144.9546  139.4779  143.5509 H   0  0  0  0  0  0  0  0  0  0  0  0  # atno 7974 bound_to 7965
  155.3776  140.0492  157.3044 H   0  0  0  0  0  0  0  0  0  0  0  0  # atno 8008 bound_to 7997
  154.5098  140.2187  155.9140 H   0  0  0  0  0  0  0  0  0  0  0  0  # atno 8009 bound_to 7997
  156.1569  140.3124  155.8747 H   0  0  0  0  0  0  0  0  0  0  0  0  # atno 8010 bound_to 7997
  139.9212  144.6211  150.8438 H   0  0  0  0  0  0  0  0  0  0  0  0  # atno 10167 bound_to 10162
  156.0187  130.5363  150.6931 H   0  0  0  0  0  0  0  0  0  0  0  0  # atno 10718 bound_to 10713
  153.3751  135.6996  153.6608 H   0  0  0  0  0  0  0  0  0  0  0  0  # atno 10763 bound_to 10752
  153.5242  135.3605  155.2646 H   0  0  0  0  0  0  0  0  0  0  0  0  # atno 10764 bound_to 10752
  154.8686  135.4165  154.3037 H   0  0  0  0  0  0  0  0  0  0  0  0  # atno 10765 bound_to 10752
  139.9458  134.9630  156.8714 H   0  0  0  0  0  0  0  0  0  0  0  0  # atno 11005 bound_to 11000
  146.3333  139.8655  142.8849 LP  0  0  0  0  0  0  0  0  0  0  0  0  # atno 17320 bound_to 7965
  145.2791  141.0133  143.3728 LP  0  0  0  0  0  0  0  0  0  0  0  0  # atno 17321 bound_to 7965
  140.7662  143.3296  151.2440 LP  0  0  0  0  0  0  0  0  0  0  0  0  # atno 17342 bound_to 10162
  139.6860  143.9772  152.2834 LP  0  0  0  0  0  0  0  0  0  0  0  0  # atno 17343 bound_to 10162
  157.4608  131.0883  151.0748 LP  0  0  0  0  0  0  0  0  0  0  0  0  # atno 17370 bound_to 10713
  157.1236  130.6072  149.5511 LP  0  0  0  0  0  0  0  0  0  0  0  0  # atno 17371 bound_to 10713
  140.5837  134.0327  155.7473 LP  0  0  0  0  0  0  0  0  0  0  0  0  # atno 17394 bound_to 11000
  141.1108  133.9619  157.2913 LP  0  0  0  0  0  0  0  0  0  0  0  0  # atno 17395 bound_to 11000

$$$$
