AV-unprocessed.smi:1558|AV-procd|sdf|6273|dock8
  -GOLD-   22720 6463D 1   1.00000     0.00000
 Structure written by MMmdl.
 36 37  0  0  0  0  0  0  0  0  1 V2000
  147.1498  136.5985  153.4166 N   0  0  0  0  0  0  0  0  0  0  0  0
  146.7474  137.8083  153.8151 C   0  0  0  0  0  0  0  0  0  0  0  0
  145.9094  137.9635  154.7005 O   0  0  0  0  0  0  0  0  0  0  0  0
  147.3756  139.0177  153.1201 C   0  0  0  0  0  0  0  0  0  0  0  0
  148.3704  139.6514  153.9672 N   0  0  0  0  0  0  0  0  0  0  0  0
  148.3913  140.9523  154.4319 C   0  0  0  0  0  0  0  0  0  0  0  0
  149.5253  141.0585  155.1863 C   0  0  0  0  0  0  0  0  0  0  0  0
  150.0313  142.1766  155.8963 N   0  0  0  0  0  0  0  0  0  0  0  0
  151.1021  142.2109  156.7060 C   0  0  0  0  0  0  0  0  0  0  0  0
  151.8263  141.2485  156.9619 O   0  0  0  0  0  0  0  0  0  0  0  0
  151.2931  143.4391  157.2079 N   0  0  0  0  0  0  0  0  0  0  0  0
  152.3863  143.8223  158.0943 C   0  0  0  0  0  0  0  0  0  0  0  0
  152.4225  142.9417  159.3537 C   0  0  1  0  0  0  0  0  0  0  0  0
  153.8195  142.4408  159.7117 C   0  0  0  0  0  0  0  0  0  0  0  0
  153.6574  142.1183  161.1798 C   0  0  0  0  0  0  0  0  0  0  0  0
  152.7324  143.2371  161.6544 C   0  0  0  0  0  0  0  0  0  0  0  0
  152.0082  143.6713  160.5054 O   0  0  0  0  0  0  0  0  0  0  0  0
  150.1472  139.7841  155.1313 C   0  0  0  0  0  0  0  0  0  0  0  0
  149.4436  138.9390  154.3932 N   0  0  0  0  0  0  0  0  0  0  0  0
  146.7578  135.7739  153.8479 H   0  0  0  0  0  0  0  0  0  0  0  0
  147.8407  136.5104  152.6857 H   0  0  0  0  0  0  0  0  0  0  0  0
  147.8393  138.7053  152.1829 H   0  0  0  0  0  0  0  0  0  0  0  0
  146.6100  139.7526  152.8682 H   0  0  0  0  0  0  0  0  0  0  0  0
  147.6133  141.6602  154.1877 H   0  0  0  0  0  0  0  0  0  0  0  0
  149.5304  143.0434  155.7670 H   0  0  0  0  0  0  0  0  0  0  0  0
  150.6463  144.1674  156.9434 H   0  0  0  0  0  0  0  0  0  0  0  0
  153.3169  143.7025  157.5393 H   0  0  0  0  0  0  0  0  0  0  0  0
  152.3220  144.8783  158.3623 H   0  0  0  0  0  0  0  0  0  0  0  0
  151.7562  142.0854  159.2362 H   0  0  0  0  0  0  0  0  0  0  0  0
  154.1298  141.5819  159.1163 H   0  0  0  0  0  0  0  0  0  0  0  0
  154.5583  143.2334  159.5826 H   0  0  0  0  0  0  0  0  0  0  0  0
  153.1666  141.1511  161.2957 H   0  0  0  0  0  0  0  0  0  0  0  0
  154.6033  142.0882  161.7211 H   0  0  0  0  0  0  0  0  0  0  0  0
  152.0581  142.9028  162.4431 H   0  0  0  0  0  0  0  0  0  0  0  0
  153.3100  144.0791  162.0370 H   0  0  0  0  0  0  0  0  0  0  0  0
  151.0648  139.4500  155.5926 H   0  0  0  0  0  0  0  0  0  0  0  0
  1  2  1  0  0  0  0
  1 20  1  0  0  0  0
  1 21  1  0  0  0  0
  2  3  2  0  0  0  0
  2  4  1  0  0  0  0
  4  5  1  0  0  0  0
  4 22  1  0  0  0  0
  4 23  1  0  0  0  0
  5 19  1  0  0  0  0
  5  6  1  0  0  0  0
  6  7  2  0  0  0  0
  6 24  1  0  0  0  0
  7  8  1  0  0  0  0
  7 18  1  0  0  0  0
  8  9  1  0  0  0  0
  8 25  1  0  0  0  0
  9 10  2  0  0  0  0
  9 11  1  0  0  0  0
 11 12  1  0  0  0  0
 11 26  1  0  0  0  0
 12 13  1  0  0  0  0
 12 27  1  0  0  0  0
 12 28  1  0  0  0  0
 13 17  1  0  0  0  0
 13 14  1  0  0  0  0
 13 29  1  0  0  0  0
 14 15  1  0  0  0  0
 14 30  1  0  0  0  0
 14 31  1  0  0  0  0
 15 16  1  0  0  0  0
 15 32  1  0  0  0  0
 15 33  1  0  0  0  0
 16 17  1  0  0  0  0
 16 34  1  0  0  0  0
 16 35  1  0  0  0  0
 18 19  2  0  0  0  0
 18 36  1  0  0  0  0
M  END
> <s_m_source_file>
AV-unprocessed.smi

> <i_m_source_file_index>
1558

> <i_lp_mmshare_version>
43012

> <i_f3d_flags>
0

> <s_epik_input>
W05IMl1DKD1PKVtDSDJdbjFbY0hdYyhbY0hdbjEpW05IXUMoPU8pW05IXVtDSDJdW0NAQEhdMltDSDJdW0NIMl1bQ0gyXU8y

> <s_epik_cmdline>
J2VwaWtfcHl0aG9uJywgJy1waCcsICc3LjAnLCAnLXRuJywgJzgnLCAnLW1hJywgJzIwMCcsICctbWV0YWxfYmluZGluZycsICctaW1hZScsICc8aW5maWxlLm1hZT4nLCAnLW9tYWUnLCAnPG91dGZpbGUubWFlPic=

> <r_lp_tautomer_probability>
1

> <r_epik_Ionization_Penalty>
4.01684e-05

> <r_epik_Ionization_Penalty_Charging>
0

> <r_epik_Ionization_Penalty_Neutral>
4.01684e-05

> <r_epik_State_Penalty>
-0

> <r_epik_Charging_Adjusted_Penalty>
0

> <i_epik_Tot_Q>
0

> <i_epik_Tot_abs_Q>
0

> <r_epik_Metal_State_Penalty>
-0

> <b_epik_Metal_Only>
0

> <s_lp_Force_Field>
OPLS_2005

> <r_lp_Energy>
20.8688

> <b_lp_Chiralities_Consistent>
1

> <s_lp_Variant>
AV-unprocessed.smi:1558-2

> <Gold.Version>
5.8.1

> <Gold.Id.Protein>
6NUR|6NUR_protein|mol2

> <Gold.PLP.Fitness>
45.9729

> <Gold.PLP.PLP>
-39.1413

> <Gold.PLP.part.hbond>
-3.0000

> <Gold.PLP.part.metal>
0.0000

> <Gold.PLP.part.buried>
-3.3459

> <Gold.PLP.part.nonpolar>
-33.1267

> <Gold.PLP.part.repulsive>
0.5544

> <Gold.PLP.ligand.clash>
0.0000

> <Gold.PLP.ligand.torsion>
0.8941

> <Gold.PLP.Chemscore.Hbond>
2.8640

> <Gold.PLP.Chemscore.CHOScore>
0.0000

> <Gold.PLP.Chemscore.Metal>
0.0000

> <Gold.Chemscore.Hbonds>
donor molecule, donor type, donor heavy atom, donor atom, acceptor molecule, acceptor atom, score
      L1  H     1    21       P1  7948  0.70
      L1  H     8    25       P1  8028  1.00
      L1  H    11    26       P1  8028  0.49

> <Gold.PLP.Chemscore.Internal.Correction>
0.0278

> <Gold.Rescore>
     Score         DG    S(hbond)    S(metal)    S(lipo)     H(rot)  DE(clash)    DE(int)     intcor
     17.60     -19.54       2.94        0.00      87.25       2.33       0.02       1.92       ----

> <Gold.Chemscore.Fitness>
17.6025

> <Gold.Chemscore.DG>
-19.5378

> <Gold.Chemscore.ZeroCoef>
-5.4800

> <Gold.Chemscore.Hbond>
2.9385

> <Gold.Chemscore.Metal>
0.0000

> <Gold.Chemscore.Lipo>
87.2541

> <Gold.Chemscore.Internal_Hbond>
0.0000

> <Gold.Chemscore.DEClash>
0.0170

> <Gold.Chemscore.DEInternal>
1.9183

> <Gold.Chemscore.Rot>
2.3303

> <Gold.Chemscore.Internal.Correction>
   9.000000E+99

> <Gold.Chemscore.Hbonds>
donor molecule, donor type, donor heavy atom, donor atom, acceptor molecule, acceptor atom, score
      L1  H     1    21       P1  7948  0.69
      L1  H     8    25       P1  8028  1.00
      L1  H    11    26       P1  8028  0.47

> <Gold.Chemscore.Hbond.Weighted>
-9.8147

> <Gold.Chemscore.Metal.Weighted>
-0.0000

> <Gold.Chemscore.Lipo.Weighted>
-10.2087

> <Gold.Chemscore.Internal_Hbond.Weighted>
0.0000

> <Gold.Chemscore.DEClash.Weighted>
0.0170

> <Gold.Chemscore.DEInternal.Weighted>
1.9183

> <Gold.Chemscore.Rot.Weighted>
5.9656

> <Gold.Chemscore.Internal.Correction.Weighted>
   9.000000E+99

> <Gold.Protein.RotatedTorsions>
[ 6907 6896 6895 6894 ] final   89.53 input  -60.11 | X-H torsion
[ 7974 7965 7964 7962 ] final  -41.15 input  175.53 | X-H torsion
[ 8008 7997 7996 7995 ] final  155.27 input   59.86 | X-H torsion
[ 10167 10162 10161 10158 ] final   25.86 input  -65.29 | X-H torsion
[ 10718 10713 10712 10709 ] final   57.81 input   66.30 | X-H torsion
[ 10763 10752 10751 10750 ] final  135.69 input  -60.55 | X-H torsion
[ 11005 11000 10999 10996 ] final  -33.52 input  -57.11 | X-H torsion

> <Gold.Protein.ActiveResidues>
 VAL166  LYS551  ARG553  GLY616  TRP617  ASP618  TYR619  PRO620  LYS621  CYS622 
 ASP623  PHE694  ASN695  SER759  ASP760  ASP761  ALA762  ILE779  LEU786  VAL792 
 PHE793  MET794  SER795  GLU796  ALA797  LYS798  CYS799  TRP800  GLU811  SER814 

> <Gold.Protein.RotatedAtoms>
  152.5437  134.1952  159.8689 H   0  0  0  0  0  0  0  0  0  0  0  0  # atno 6907 bound_to 6896
  151.1945  133.4640  159.2603 H   0  0  0  0  0  0  0  0  0  0  0  0  # atno 6908 bound_to 6896
  151.1050  135.0006  159.8522 H   0  0  0  0  0  0  0  0  0  0  0  0  # atno 6909 bound_to 6896
  146.0238  140.6817  142.9165 H   0  0  0  0  0  0  0  0  0  0  0  0  # atno 7974 bound_to 7965
  156.2487  140.1944  156.6776 H   0  0  0  0  0  0  0  0  0  0  0  0  # atno 8008 bound_to 7997
  154.6346  140.0591  156.9799 H   0  0  0  0  0  0  0  0  0  0  0  0  # atno 8009 bound_to 7997
  155.1657  140.3264  155.4405 H   0  0  0  0  0  0  0  0  0  0  0  0  # atno 8010 bound_to 7997
  140.5071  144.0222  150.6356 H   0  0  0  0  0  0  0  0  0  0  0  0  # atno 10167 bound_to 10162
  157.5545  130.8790  149.9015 H   0  0  0  0  0  0  0  0  0  0  0  0  # atno 10718 bound_to 10713
  153.8441  135.3087  155.3428 H   0  0  0  0  0  0  0  0  0  0  0  0  # atno 10763 bound_to 10752
  154.7920  135.4777  154.0077 H   0  0  0  0  0  0  0  0  0  0  0  0  # atno 10764 bound_to 10752
  153.1558  135.6851  153.8907 H   0  0  0  0  0  0  0  0  0  0  0  0  # atno 10765 bound_to 10752
  140.9642  133.7147  156.1417 H   0  0  0  0  0  0  0  0  0  0  0  0  # atno 11005 bound_to 11000
  144.7001  140.3613  143.7163 LP  0  0  0  0  0  0  0  0  0  0  0  0  # atno 17320 bound_to 7965
  145.7151  139.1695  143.2516 LP  0  0  0  0  0  0  0  0  0  0  0  0  # atno 17321 bound_to 7965
  140.3534  143.2950  152.0463 LP  0  0  0  0  0  0  0  0  0  0  0  0  # atno 17342 bound_to 10162
  139.4886  144.6357  151.6980 LP  0  0  0  0  0  0  0  0  0  0  0  0  # atno 17343 bound_to 10162
  156.0606  130.3700  150.0990 LP  0  0  0  0  0  0  0  0  0  0  0  0  # atno 17370 bound_to 10713
  156.9160  130.9667  151.3556 LP  0  0  0  0  0  0  0  0  0  0  0  0  # atno 17371 bound_to 10713
  140.7424  134.4135  157.5553 LP  0  0  0  0  0  0  0  0  0  0  0  0  # atno 17394 bound_to 11000
  139.8888  134.8846  156.2452 LP  0  0  0  0  0  0  0  0  0  0  0  0  # atno 17395 bound_to 11000

$$$$
