AV-unprocessed.smi:1951|AV-procd|sdf|7882|dock1
  -GOLD-   2272010 33D 1   1.00000     0.00000
 Structure written by MMmdl.
 46 47  0  0  0  0  0  0  0  0  2 V2000
  151.9075  138.3474  154.4947 C   0  0  0  0  0  0  0  0  0  0  0  0
  150.5406  138.3244  154.0976 O   0  0  0  0  0  0  0  0  0  0  0  0
  149.7557  139.4284  154.3715 C   0  0  0  0  0  0  0  0  0  0  0  0
  150.3309  140.4932  154.9849 N   0  0  0  0  0  0  0  0  0  0  0  0
  149.5652  141.5703  155.2553 C   0  0  0  0  0  0  0  0  0  0  0  0
  148.1965  141.6417  154.9378 C   0  0  0  0  0  0  0  0  0  0  0  0
  147.5979  140.5394  154.3003 C   0  0  0  0  0  0  0  0  0  0  0  0
  148.3920  139.4073  153.9965 C   0  0  0  0  0  0  0  0  0  0  0  0
  147.8802  138.2352  153.3750 N   0  0  0  0  0  0  0  0  0  0  0  0
  146.6070  137.9539  153.0508 C   0  0  0  0  0  0  0  0  0  0  0  0
  145.6418  138.6928  153.2451 O   0  0  0  0  0  0  0  0  0  0  0  0
  146.5110  136.7589  152.4508 N   0  0  0  0  0  0  0  0  0  0  0  0
  145.2745  136.1791  151.9389 C   0  0  0  0  0  0  0  0  0  0  0  0
  144.6708  135.1744  152.9394 C   0  0  0  0  0  0  0  0  0  0  0  0
  144.6493  133.7876  152.4101 N   0  3  2  0  0  0  0  0  0  0  0  0
  146.0173  133.2594  152.1705 C   0  0  0  0  0  0  0  0  0  0  0  0
  145.9800  131.7784  151.7529 C   0  0  0  0  0  0  0  0  0  0  0  0
  145.0899  131.5442  150.5193 C   0  0  2  0  0  0  0  0  0  0  0  0
  145.7379  132.0421  149.2152 C   0  0  0  0  0  0  0  0  0  0  0  0
  143.7013  132.1600  150.7689 C   0  0  0  0  0  0  0  0  0  0  0  0
  143.7864  133.6329  151.2086 C   0  0  0  0  0  0  0  0  0  0  0  0
  152.3821  137.4093  154.2074 H   0  0  0  0  0  0  0  0  0  0  0  0
  152.0066  138.4507  155.5763 H   0  0  0  0  0  0  0  0  0  0  0  0
  152.4518  139.1568  154.0053 H   0  0  0  0  0  0  0  0  0  0  0  0
  150.0575  142.3973  155.7453 H   0  0  0  0  0  0  0  0  0  0  0  0
  147.6180  142.5201  155.1824 H   0  0  0  0  0  0  0  0  0  0  0  0
  146.5442  140.5760  154.0713 H   0  0  0  0  0  0  0  0  0  0  0  0
  148.5767  137.5715  153.0684 H   0  0  0  0  0  0  0  0  0  0  0  0
  147.3547  136.2169  152.3310 H   0  0  0  0  0  0  0  0  0  0  0  0
  144.5701  136.9910  151.7566 H   0  0  0  0  0  0  0  0  0  0  0  0
  145.4700  135.7153  150.9715 H   0  0  0  0  0  0  0  0  0  0  0  0
  145.2068  135.1937  153.8895 H   0  0  0  0  0  0  0  0  0  0  0  0
  143.6501  135.4924  153.1573 H   0  0  0  0  0  0  0  0  0  0  0  0
  146.5148  133.8610  151.4087 H   0  0  0  0  0  0  0  0  0  0  0  0
  146.6116  133.3535  153.0802 H   0  0  0  0  0  0  0  0  0  0  0  0
  146.9911  131.4164  151.5637 H   0  0  0  0  0  0  0  0  0  0  0  0
  145.5990  131.1859  152.5859 H   0  0  0  0  0  0  0  0  0  0  0  0
  144.9579  130.4672  150.4063 H   0  0  0  0  0  0  0  0  0  0  0  0
  145.9139  133.1174  149.2258 H   0  0  0  0  0  0  0  0  0  0  0  0
  145.1047  131.8214  148.3553 H   0  0  0  0  0  0  0  0  0  0  0  0
  146.6978  131.5535  149.0457 H   0  0  0  0  0  0  0  0  0  0  0  0
  143.0821  132.0700  149.8756 H   0  0  0  0  0  0  0  0  0  0  0  0
  143.1927  131.5889  151.5469 H   0  0  0  0  0  0  0  0  0  0  0  0
  142.7794  133.9911  151.4186 H   0  0  0  0  0  0  0  0  0  0  0  0
  144.1720  134.2513  150.3969 H   0  0  0  0  0  0  0  0  0  0  0  0
  144.2501  133.2103  153.1365 H   0  0  0  0  0  0  0  0  0  0  0  0
  1  2  1  0  0  0  0
  1 22  1  0  0  0  0
  1 23  1  0  0  0  0
  1 24  1  0  0  0  0
  2  3  1  0  0  0  0
  3  8  1  0  0  0  0
  3  4  2  0  0  0  0
  4  5  1  0  0  0  0
  5  6  2  0  0  0  0
  5 25  1  0  0  0  0
  6  7  1  0  0  0  0
  6 26  1  0  0  0  0
  7  8  2  0  0  0  0
  7 27  1  0  0  0  0
  8  9  1  0  0  0  0
  9 10  1  0  0  0  0
  9 28  1  0  0  0  0
 10 11  2  0  0  0  0
 10 12  1  0  0  0  0
 12 13  1  0  0  0  0
 12 29  1  0  0  0  0
 13 14  1  0  0  0  0
 13 30  1  0  0  0  0
 13 31  1  0  0  0  0
 14 15  1  0  0  0  0
 14 32  1  0  0  0  0
 14 33  1  0  0  0  0
 15 21  1  0  0  0  0
 15 16  1  0  0  0  0
 15 46  1  0  0  0  0
 16 17  1  0  0  0  0
 16 34  1  0  0  0  0
 16 35  1  0  0  0  0
 17 18  1  0  0  0  0
 17 36  1  0  0  0  0
 17 37  1  0  0  0  0
 18 19  1  0  0  0  0
 18 20  1  0  0  0  0
 18 38  1  0  0  0  0
 19 39  1  0  0  0  0
 19 40  1  0  0  0  0
 19 41  1  0  0  0  0
 20 21  1  0  0  0  0
 20 42  1  0  0  0  0
 20 43  1  0  0  0  0
 21 44  1  0  0  0  0
 21 45  1  0  0  0  0
M  CHG  1  15   1
M  END
> <s_m_source_file>
AV-unprocessed.smi

> <i_m_source_file_index>
1951

> <i_lp_mmshare_version>
43012

> <i_f3d_flags>
0

> <s_epik_input>
W0NIM11PYzFuW2NIXVtjSF1bY0hdYzFbTkhdQyg9TylbTkhdW0NIMl1bQ0gyXU4yW0NIMl1bQ0gyXVtDSF0oW0NIM10pW0NIMl1bQ0gyXTI=

> <s_epik_cmdline>
J2VwaWtfcHl0aG9uJywgJy1waCcsICc3LjAnLCAnLXRuJywgJzgnLCAnLW1hJywgJzIwMCcsICctbWV0YWxfYmluZGluZycsICctaW1hZScsICc8aW5maWxlLm1hZT4nLCAnLW9tYWUnLCAnPG91dGZpbGUubWFlPic=

> <r_lp_tautomer_probability>
1

> <r_epik_Ionization_Penalty>
0.00147101

> <r_epik_Ionization_Penalty_Charging>
0.00139388

> <r_epik_Ionization_Penalty_Neutral>
7.71355e-05

> <r_epik_State_Penalty>
0.000929204

> <r_epik_Charging_Adjusted_Penalty>
0.00232308

> <i_epik_Tot_Q>
1

> <i_epik_Tot_abs_Q>
1

> <r_epik_Metal_State_Penalty>
-0

> <b_epik_Metal_Only>
0

> <s_lp_Force_Field>
OPLS_2005

> <r_lp_Energy>
21.3579

> <b_lp_Chiralities_Consistent>
1

> <s_lp_Variant>
AV-unprocessed.smi:1951-2

> <Gold.Version>
5.8.1

> <Gold.Id.Protein>
6NUR|6NUR_protein|mol2

> <Gold.PLP.Fitness>
45.1860

> <Gold.PLP.PLP>
-36.3653

> <Gold.PLP.part.hbond>
-3.1159

> <Gold.PLP.part.metal>
0.0000

> <Gold.PLP.part.buried>
-3.8312

> <Gold.PLP.part.nonpolar>
-33.1461

> <Gold.PLP.part.repulsive>
3.1088

> <Gold.PLP.ligand.clash>
0.0000

> <Gold.PLP.ligand.torsion>
0.5384

> <Gold.PLP.Chemscore.Hbond>
2.4960

> <Gold.PLP.Chemscore.CHOScore>
0.7928

> <Gold.PLP.Chemscore.Metal>
0.0000

> <Gold.Chemscore.Hbonds>
donor molecule, donor type, donor heavy atom, donor atom, acceptor molecule, acceptor atom, score
      L1  H     9    28       P1  7948  0.91
      L1  H    12    29       P1  7948  0.93
      P1  H  7989  7998       L1     4  0.74
      L1  C     5    25       P1  8028  0.62

> <Gold.PLP.Chemscore.Internal.Correction>
0.0310

> <Gold.Rescore>
     Score         DG    S(hbond)    S(metal)    S(lipo)     H(rot)  DE(clash)    DE(int)     intcor
     15.61     -18.48       1.95        0.00      93.00       1.71       1.01       1.85       ----

> <Gold.Chemscore.Fitness>
15.6115

> <Gold.Chemscore.DG>
-18.4775

> <Gold.Chemscore.ZeroCoef>
-5.4800

> <Gold.Chemscore.Hbond>
1.9450

> <Gold.Chemscore.Metal>
0.0000

> <Gold.Chemscore.Lipo>
92.9967

> <Gold.Chemscore.Internal_Hbond>
0.0000

> <Gold.Chemscore.DEClash>
1.0132

> <Gold.Chemscore.DEInternal>
1.8528

> <Gold.Chemscore.Rot>
1.7107

> <Gold.Chemscore.Internal.Correction>
   9.000000E+99

> <Gold.Chemscore.Hbonds>
donor molecule, donor type, donor heavy atom, donor atom, acceptor molecule, acceptor atom, score
      L1  H     9    28       P1  7948  0.88
      L1  H    12    29       P1  7948  0.89
      P1  H  7989  7998       L1     4  0.07

> <Gold.Chemscore.Hbond.Weighted>
-6.4963

> <Gold.Chemscore.Metal.Weighted>
-0.0000

> <Gold.Chemscore.Lipo.Weighted>
-10.8806

> <Gold.Chemscore.Internal_Hbond.Weighted>
0.0000

> <Gold.Chemscore.DEClash.Weighted>
1.0132

> <Gold.Chemscore.DEInternal.Weighted>
1.8528

> <Gold.Chemscore.Rot.Weighted>
4.3794

> <Gold.Chemscore.Internal.Correction.Weighted>
   9.000000E+99

> <Gold.Protein.RotatedTorsions>
[ 6907 6896 6895 6894 ] final -109.33 input  -60.11 | X-H torsion
[ 7974 7965 7964 7962 ] final  145.76 input  175.53 | X-H torsion
[ 8008 7997 7996 7995 ] final  -59.08 input   59.86 | X-H torsion
[ 10167 10162 10161 10158 ] final   92.54 input  -65.29 | X-H torsion
[ 10718 10713 10712 10709 ] final  -19.48 input   66.30 | X-H torsion
[ 10763 10752 10751 10750 ] final   79.99 input  -60.55 | X-H torsion
[ 11005 11000 10999 10996 ] final -146.62 input  -57.11 | X-H torsion

> <Gold.Protein.ActiveResidues>
 VAL166  LYS551  ARG553  GLY616  TRP617  ASP618  TYR619  PRO620  LYS621  CYS622 
 ASP623  PHE694  ASN695  SER759  ASP760  ASP761  ALA762  ILE779  LEU786  VAL792 
 PHE793  MET794  SER795  GLU796  ALA797  LYS798  CYS799  TRP800  GLU811  SER814 

> <Gold.Protein.RotatedAtoms>
  150.7555  133.9545  159.3495 H   0  0  0  0  0  0  0  0  0  0  0  0  # atno 6907 bound_to 6896
  151.7465  135.0840  160.0333 H   0  0  0  0  0  0  0  0  0  0  0  0  # atno 6908 bound_to 6896
  152.3494  133.6124  159.5970 H   0  0  0  0  0  0  0  0  0  0  0  0  # atno 6909 bound_to 6896
  144.8726  139.5822  143.5880 H   0  0  0  0  0  0  0  0  0  0  0  0  # atno 7974 bound_to 7965
  154.4336  140.1070  156.6058 H   0  0  0  0  0  0  0  0  0  0  0  0  # atno 8008 bound_to 7997
  155.5862  140.3491  155.4535 H   0  0  0  0  0  0  0  0  0  0  0  0  # atno 8009 bound_to 7997
  156.0281  140.1254  157.0276 H   0  0  0  0  0  0  0  0  0  0  0  0  # atno 8010 bound_to 7997
  139.8267  144.6706  150.9451 H   0  0  0  0  0  0  0  0  0  0  0  0  # atno 10167 bound_to 10162
  156.5451  130.4687  149.6480 H   0  0  0  0  0  0  0  0  0  0  0  0  # atno 10718 bound_to 10713
  153.0997  135.4819  154.8843 H   0  0  0  0  0  0  0  0  0  0  0  0  # atno 10763 bound_to 10752
  154.7364  135.3072  154.8806 H   0  0  0  0  0  0  0  0  0  0  0  0  # atno 10764 bound_to 10752
  153.9426  135.6832  153.4797 H   0  0  0  0  0  0  0  0  0  0  0  0  # atno 10765 bound_to 10752
  140.7801  134.3089  157.5048 H   0  0  0  0  0  0  0  0  0  0  0  0  # atno 11005 bound_to 11000
  146.2941  139.7225  142.9140 LP  0  0  0  0  0  0  0  0  0  0  0  0  # atno 17320 bound_to 7965
  145.4102  141.0395  143.3021 LP  0  0  0  0  0  0  0  0  0  0  0  0  # atno 17321 bound_to 7965
  140.7809  143.4040  151.1102 LP  0  0  0  0  0  0  0  0  0  0  0  0  # atno 17342 bound_to 10162
  139.7696  143.8513  152.3118 LP  0  0  0  0  0  0  0  0  0  0  0  0  # atno 17343 bound_to 10162
  156.2936  130.7138  151.1993 LP  0  0  0  0  0  0  0  0  0  0  0  0  # atno 17370 bound_to 10713
  157.7398  131.0524  150.5207 LP  0  0  0  0  0  0  0  0  0  0  0  0  # atno 17371 bound_to 10713
  139.8744  134.9313  156.3524 LP  0  0  0  0  0  0  0  0  0  0  0  0  # atno 17394 bound_to 11000
  140.9491  133.7463  156.0248 LP  0  0  0  0  0  0  0  0  0  0  0  0  # atno 17395 bound_to 11000

$$$$
