AV-unprocessed.smi:445|AV-procd|sdf|2592|dock10
  -GOLD-   2262022583D 1   1.00000     0.00000
 Structure written by MMmdl.
 44 45  0  0  0  0  0  0  0  0  3 V2000
  153.8428  141.6619  161.9920 C   0  0  0  0  0  0  0  0  0  0  0  0
  152.8307  142.3569  161.0629 C   0  0  1  0  0  0  0  0  0  0  0  0
  152.5084  143.7761  161.5728 C   0  0  0  0  0  0  0  0  0  0  0  0
  151.4818  144.4855  160.6765 C   0  0  0  0  0  0  0  0  0  0  0  0
  151.9631  144.5355  159.2202 C   0  0  0  0  0  0  0  0  0  0  0  0
  152.2788  143.1275  158.6949 C   0  0  0  0  0  0  0  0  0  0  0  0
  153.3073  142.4035  159.5896 C   0  0  2  0  0  0  0  0  0  0  0  0
  153.5349  141.0492  159.0950 N   0  0  0  0  0  0  0  0  0  0  0  0
  152.6493  140.0389  159.1224 C   0  0  0  0  0  0  0  0  0  0  0  0
  151.5225  140.1535  159.6026 O   0  0  0  0  0  0  0  0  0  0  0  0
  153.0685  138.6887  158.5145 C   0  0  0  0  0  0  0  0  0  0  0  0
  152.1668  138.1729  157.4652 N   0  0  0  0  0  0  0  0  0  0  0  0
  151.6907  136.8622  157.6454 C   0  0  0  0  0  0  0  0  0  0  0  0
  150.8588  136.2737  156.7682 C   0  0  0  0  0  0  0  0  0  0  0  0
  150.3763  134.9261  156.9817 N   0  3  0  0  0  0  0  0  0  0  0  0
  150.2486  134.5210  158.1327 O   0  0  0  0  0  0  0  0  0  0  0  0
  150.1094  134.2279  156.0083 O   0  5  0  0  0  0  0  0  0  0  0  0
  150.4538  137.0351  155.6047 C   0  0  0  0  0  0  0  0  0  0  0  0
  150.8951  138.3047  155.4130 C   0  0  0  0  0  0  0  0  0  0  0  0
  150.5000  139.1218  154.2438 C   0  0  0  0  0  0  0  0  0  0  0  0
  150.1517  138.4095  153.1647 N   0  0  0  0  0  0  0  0  0  0  0  0
  150.4663  140.3504  154.1780 O   0  0  0  0  0  0  0  0  0  0  0  0
  151.8089  138.9499  156.3950 C   0  0  0  0  0  0  0  0  0  0  0  0
  152.2397  140.1024  156.3047 O   0  0  0  0  0  0  0  0  0  0  0  0
  154.8056  142.1739  161.9812 H   0  0  0  0  0  0  0  0  0  0  0  0
  154.0137  140.6249  161.7016 H   0  0  0  0  0  0  0  0  0  0  0  0
  153.4844  141.6515  163.0217 H   0  0  0  0  0  0  0  0  0  0  0  0
  151.9062  141.7779  161.0996 H   0  0  0  0  0  0  0  0  0  0  0  0
  152.1258  143.7281  162.5928 H   0  0  0  0  0  0  0  0  0  0  0  0
  153.4234  144.3688  161.6152 H   0  0  0  0  0  0  0  0  0  0  0  0
  150.5257  143.9633  160.7294 H   0  0  0  0  0  0  0  0  0  0  0  0
  151.3029  145.4964  161.0438 H   0  0  0  0  0  0  0  0  0  0  0  0
  151.2043  145.0049  158.5936 H   0  0  0  0  0  0  0  0  0  0  0  0
  152.8538  145.1612  159.1495 H   0  0  0  0  0  0  0  0  0  0  0  0
  151.3575  142.5448  158.6461 H   0  0  0  0  0  0  0  0  0  0  0  0
  152.6512  143.1993  157.6723 H   0  0  0  0  0  0  0  0  0  0  0  0
  154.2502  142.9530  159.5539 H   0  0  0  0  0  0  0  0  0  0  0  0
  154.4399  140.8680  158.6859 H   0  0  0  0  0  0  0  0  0  0  0  0
  154.0874  138.7839  158.1355 H   0  0  0  0  0  0  0  0  0  0  0  0
  153.1466  137.9648  159.3271 H   0  0  0  0  0  0  0  0  0  0  0  0
  152.0418  136.3786  158.5459 H   0  0  0  0  0  0  0  0  0  0  0  0
  149.7869  136.5632  154.8988 H   0  0  0  0  0  0  0  0  0  0  0  0
  149.8642  138.8777  152.3180 H   0  0  0  0  0  0  0  0  0  0  0  0
  150.1759  137.4007  153.2043 H   0  0  0  0  0  0  0  0  0  0  0  0
  1  2  1  0  0  0  0
  1 25  1  0  0  0  0
  1 26  1  0  0  0  0
  1 27  1  0  0  0  0
  2  7  1  0  0  0  0
  2  3  1  0  0  0  0
  2 28  1  0  0  0  0
  3  4  1  0  0  0  0
  3 29  1  0  0  0  0
  3 30  1  0  0  0  0
  4  5  1  0  0  0  0
  4 31  1  0  0  0  0
  4 32  1  0  0  0  0
  5  6  1  0  0  0  0
  5 33  1  0  0  0  0
  5 34  1  0  0  0  0
  6  7  1  0  0  0  0
  6 35  1  0  0  0  0
  6 36  1  0  0  0  0
  7  8  1  0  0  0  0
  7 37  1  0  0  0  0
  8  9  1  0  0  0  0
  8 38  1  0  0  0  0
  9 10  2  0  0  0  0
  9 11  1  0  0  0  0
 11 12  1  0  0  0  0
 11 39  1  0  0  0  0
 11 40  1  0  0  0  0
 12 23  1  0  0  0  0
 12 13  1  0  0  0  0
 13 14  2  0  0  0  0
 13 41  1  0  0  0  0
 14 15  1  0  0  0  0
 14 18  1  0  0  0  0
 15 16  2  0  0  0  0
 15 17  1  0  0  0  0
 18 19  2  0  0  0  0
 18 42  1  0  0  0  0
 19 20  1  0  0  0  0
 19 23  1  0  0  0  0
 20 21  1  0  0  0  0
 20 22  2  0  0  0  0
 21 43  1  0  0  0  0
 21 44  1  0  0  0  0
 23 24  2  0  0  0  0
M  CHG  1  15   1
M  CHG  1  17  -1
M  END
> <s_m_source_file>
AV-unprocessed.smi

> <i_m_source_file_index>
445

> <i_lp_mmshare_version>
43012

> <i_f3d_flags>
0

> <s_epik_input>
W0NIM11bQ0BASF0xW0NIMl1bQ0gyXVtDSDJdW0NIMl1bQ0BIXTFbTkhdQyg9TylbQ0gyXW4yW2NIXWMoW04rXSg9TylbTy1dKVtjSF1jKGMyPU8pQyg9TylbTkgyXQ==

> <s_epik_cmdline>
J2VwaWtfcHl0aG9uJywgJy1waCcsICc3LjAnLCAnLXRuJywgJzgnLCAnLW1hJywgJzIwMCcsICctbWV0YWxfYmluZGluZycsICctaW1hZScsICc8aW5maWxlLm1hZT4nLCAnLW9tYWUnLCAnPG91dGZpbGUubWFlPic=

> <r_lp_tautomer_probability>
1

> <r_epik_Ionization_Penalty>
2.81321e-06

> <r_epik_Ionization_Penalty_Charging>
2.43777e-12

> <r_epik_Ionization_Penalty_Neutral>
2.81321e-06

> <r_epik_State_Penalty>
-0

> <r_epik_Charging_Adjusted_Penalty>
2.43777e-12

> <i_epik_Tot_Q>
0

> <i_epik_Tot_abs_Q>
2

> <r_epik_Metal_State_Penalty>
-0

> <b_epik_Metal_Only>
0

> <s_lp_Force_Field>
OPLS_2005

> <r_lp_Energy>
28.9067

> <b_lp_Chiralities_Consistent>
1

> <s_lp_Variant>
AV-unprocessed.smi:445-4

> <Gold.Version>
5.8.1

> <Gold.Id.Protein>
6NUR|6NUR_protein|mol2

> <Gold.PLP.Fitness>
50.4370

> <Gold.PLP.PLP>
-40.3747

> <Gold.PLP.part.hbond>
-5.0806

> <Gold.PLP.part.metal>
0.0000

> <Gold.PLP.part.buried>
-2.0745

> <Gold.PLP.part.nonpolar>
-33.5123

> <Gold.PLP.part.repulsive>
0.3713

> <Gold.PLP.ligand.clash>
0.0000

> <Gold.PLP.ligand.torsion>
0.7770

> <Gold.PLP.Chemscore.Hbond>
3.8622

> <Gold.PLP.Chemscore.CHOScore>
0.0000

> <Gold.PLP.Chemscore.Metal>
0.0000

> <Gold.Chemscore.Hbonds>
donor molecule, donor type, donor heavy atom, donor atom, acceptor molecule, acceptor atom, score
      L1  H    21    43       P1  7957  1.00
      L1  H    21    44       P1  7948  0.26
      P1  H  6896  6908       L1    16  0.44
      P1  H  7989  7998       L1    22  0.76
      P1  H  7997  8008       L1    24  0.84

> <Gold.PLP.Chemscore.Internal.Correction>
0.0297

> <Gold.Rescore>
     Score         DG    S(hbond)    S(metal)    S(lipo)     H(rot)  DE(clash)    DE(int)     intcor
     19.68     -24.96       3.62        0.00     100.67       1.71       0.83       4.45       ----

> <Gold.Chemscore.Fitness>
19.6808

> <Gold.Chemscore.DG>
-24.9598

> <Gold.Chemscore.ZeroCoef>
-5.4800

> <Gold.Chemscore.Hbond>
3.6182

> <Gold.Chemscore.Metal>
0.0000

> <Gold.Chemscore.Lipo>
100.6706

> <Gold.Chemscore.Internal_Hbond>
0.0000

> <Gold.Chemscore.DEClash>
0.8258

> <Gold.Chemscore.DEInternal>
4.4532

> <Gold.Chemscore.Rot>
1.7123

> <Gold.Chemscore.Internal.Correction>
   9.000000E+99

> <Gold.Chemscore.Hbonds>
donor molecule, donor type, donor heavy atom, donor atom, acceptor molecule, acceptor atom, score
      L1  H    21    43       P1  7957  0.39
      L1  H    21    44       P1  7948  0.04
      P1  H  6896  6908       L1    16  0.44
      P1  H  7989  7998       L1    22  0.60
      P1  H  7997  8008       L1    24  0.67

> <Gold.Chemscore.Hbond.Weighted>
-12.0848

> <Gold.Chemscore.Metal.Weighted>
-0.0000

> <Gold.Chemscore.Lipo.Weighted>
-11.7785

> <Gold.Chemscore.Internal_Hbond.Weighted>
0.0000

> <Gold.Chemscore.DEClash.Weighted>
0.8258

> <Gold.Chemscore.DEInternal.Weighted>
4.4532

> <Gold.Chemscore.Rot.Weighted>
4.3835

> <Gold.Chemscore.Internal.Correction.Weighted>
   9.000000E+99

> <Gold.Protein.RotatedTorsions>
[ 6907 6896 6895 6894 ] final  155.06 input  -60.11 | X-H torsion
[ 7974 7965 7964 7962 ] final   38.42 input  175.53 | X-H torsion
[ 8008 7997 7996 7995 ] final  -40.89 input   59.86 | X-H torsion
[ 10167 10162 10161 10158 ] final  129.45 input  -65.29 | X-H torsion
[ 10718 10713 10712 10709 ] final   77.04 input   66.30 | X-H torsion
[ 10763 10752 10751 10750 ] final  -39.66 input  -60.55 | X-H torsion
[ 11005 11000 10999 10996 ] final -176.78 input  -57.11 | X-H torsion

> <Gold.Protein.ActiveResidues>
 VAL166  LYS551  ARG553  GLY616  TRP617  ASP618  TYR619  PRO620  LYS621  CYS622 
 ASP623  PHE694  ASN695  SER759  ASP760  ASP761  ALA762  ILE779  LEU786  VAL792 
 PHE793  MET794  SER795  GLU796  ALA797  LYS798  CYS799  TRP800  GLU811  SER814 

> <Gold.Protein.RotatedAtoms>
  152.0496  133.4013  159.4371 H   0  0  0  0  0  0  0  0  0  0  0  0  # atno 6907 bound_to 6896
  150.6871  134.3322  159.4841 H   0  0  0  0  0  0  0  0  0  0  0  0  # atno 6908 bound_to 6896
  152.1131  134.9260  160.0616 H   0  0  0  0  0  0  0  0  0  0  0  0  # atno 6909 bound_to 6896
  146.1063  139.5775  142.9381 H   0  0  0  0  0  0  0  0  0  0  0  0  # atno 7974 bound_to 7965
  154.4008  140.1513  156.3102 H   0  0  0  0  0  0  0  0  0  0  0  0  # atno 8008 bound_to 7997
  155.8622  140.3453  155.5743 H   0  0  0  0  0  0  0  0  0  0  0  0  # atno 8009 bound_to 7997
  155.7867  140.0851  157.2021 H   0  0  0  0  0  0  0  0  0  0  0  0  # atno 8010 bound_to 7997
  139.5477  144.6787  151.4420 H   0  0  0  0  0  0  0  0  0  0  0  0  # atno 10167 bound_to 10162
  157.6696  130.9803  150.1584 H   0  0  0  0  0  0  0  0  0  0  0  0  # atno 10718 bound_to 10713
  153.9330  135.6770  153.4745 H   0  0  0  0  0  0  0  0  0  0  0  0  # atno 10763 bound_to 10752
  153.0970  135.4846  154.8794 H   0  0  0  0  0  0  0  0  0  0  0  0  # atno 10764 bound_to 10752
  154.7418  135.3162  154.8673 H   0  0  0  0  0  0  0  0  0  0  0  0  # atno 10765 bound_to 10752
  140.4482  134.6368  157.4789 H   0  0  0  0  0  0  0  0  0  0  0  0  # atno 11005 bound_to 11000
  145.5753  141.0389  143.2151 LP  0  0  0  0  0  0  0  0  0  0  0  0  # atno 17320 bound_to 7965
  144.7474  139.7284  143.7287 LP  0  0  0  0  0  0  0  0  0  0  0  0  # atno 17321 bound_to 7965
  140.6731  143.8250  150.7024 LP  0  0  0  0  0  0  0  0  0  0  0  0  # atno 17342 bound_to 10162
  140.1681  143.4218  152.2020 LP  0  0  0  0  0  0  0  0  0  0  0  0  # atno 17343 bound_to 10162
  156.2367  130.3687  149.8383 LP  0  0  0  0  0  0  0  0  0  0  0  0  # atno 17370 bound_to 10713
  156.6195  130.8620  151.3472 LP  0  0  0  0  0  0  0  0  0  0  0  0  # atno 17371 bound_to 10713
  140.0024  134.6816  155.9509 LP  0  0  0  0  0  0  0  0  0  0  0  0  # atno 17394 bound_to 11000
  141.1676  133.6537  156.4534 LP  0  0  0  0  0  0  0  0  0  0  0  0  # atno 17395 bound_to 11000

$$$$
