AV-unprocessed.smi:818|AV-procd|sdf|3833|dock10
  -GOLD-   22720 1273D 1   1.00000     0.00000
 Structure written by MMmdl.
 44 45  0  0  0  0  0  0  0  0  1 V2000
  153.8431  142.4655  161.9159 C   0  0  0  0  0  0  0  0  0  0  0  0
  153.9631  142.3856  160.3893 C   0  0  0  0  0  0  0  0  0  0  0  0
  152.8243  142.9945  159.7306 N   0  0  0  0  0  0  0  0  0  0  0  0
  152.0083  142.4495  158.7593 C   0  0  0  0  0  0  0  0  0  0  0  0
  151.0931  143.4134  158.4597 C   0  0  0  0  0  0  0  0  0  0  0  0
  150.0617  143.2784  157.4976 N   0  0  0  0  0  0  0  0  0  0  0  0
  149.6919  142.1595  156.8540 C   0  0  0  0  0  0  0  0  0  0  0  0
  150.2349  141.0609  156.9722 O   0  0  0  0  0  0  0  0  0  0  0  0
  148.6436  142.3866  156.0492 N   0  0  0  0  0  0  0  0  0  0  0  0
  148.0042  141.3892  155.1920 C   0  0  1  0  0  0  0  0  0  0  0  0
  146.9454  142.1089  154.3400 C   0  0  0  0  0  0  0  0  0  0  0  0
  149.0252  140.7516  154.2353 C   0  0  0  0  0  0  0  0  0  0  0  0
  149.5915  141.4274  153.3744 O   0  0  0  0  0  0  0  0  0  0  0  0
  149.2334  139.4351  154.3903 N   0  0  0  0  0  0  0  0  0  0  0  0
  150.1381  138.6230  153.5811 C   0  0  0  0  0  0  0  0  0  0  0  0
  150.2182  137.1846  154.1278 C   0  0  0  0  0  0  0  0  0  0  0  0
  151.7076  136.8469  154.2181 C   0  0  0  0  0  0  0  0  0  0  0  0
  152.3860  138.1914  154.4605 C   0  0  0  0  0  0  0  0  0  0  0  0
  151.5762  139.1769  153.6169 C   0  0  0  0  0  0  0  0  0  0  0  0
  151.4139  144.5254  159.2888 C   0  0  0  0  0  0  0  0  0  0  0  0
  152.4633  144.2610  160.0527 N   0  0  0  0  0  0  0  0  0  0  0  0
  154.7070  142.0063  162.3967 H   0  0  0  0  0  0  0  0  0  0  0  0
  152.9515  141.9471  162.2699 H   0  0  0  0  0  0  0  0  0  0  0  0
  153.7852  143.5009  162.2528 H   0  0  0  0  0  0  0  0  0  0  0  0
  154.8700  142.8908  160.0555 H   0  0  0  0  0  0  0  0  0  0  0  0
  154.0431  141.3461  160.0679 H   0  0  0  0  0  0  0  0  0  0  0  0
  152.1493  141.4496  158.3758 H   0  0  0  0  0  0  0  0  0  0  0  0
  149.5431  144.1182  157.2863 H   0  0  0  0  0  0  0  0  0  0  0  0
  148.2691  143.3231  156.0097 H   0  0  0  0  0  0  0  0  0  0  0  0
  147.5263  140.6193  155.8013 H   0  0  0  0  0  0  0  0  0  0  0  0
  146.4224  141.4115  153.6843 H   0  0  0  0  0  0  0  0  0  0  0  0
  147.3864  142.8869  153.7150 H   0  0  0  0  0  0  0  0  0  0  0  0
  146.1934  142.5818  154.9725 H   0  0  0  0  0  0  0  0  0  0  0  0
  148.7260  138.9590  155.1220 H   0  0  0  0  0  0  0  0  0  0  0  0
  149.7849  138.5963  152.5484 H   0  0  0  0  0  0  0  0  0  0  0  0
  149.7806  137.1264  155.1260 H   0  0  0  0  0  0  0  0  0  0  0  0
  149.6774  136.4755  153.5000 H   0  0  0  0  0  0  0  0  0  0  0  0
  151.9264  136.1179  154.9987 H   0  0  0  0  0  0  0  0  0  0  0  0
  152.0486  136.4308  153.2693 H   0  0  0  0  0  0  0  0  0  0  0  0
  152.3074  138.4582  155.5154 H   0  0  0  0  0  0  0  0  0  0  0  0
  153.4438  138.1823  154.1960 H   0  0  0  0  0  0  0  0  0  0  0  0
  151.9773  139.1948  152.6026 H   0  0  0  0  0  0  0  0  0  0  0  0
  151.6416  140.1952  154.0034 H   0  0  0  0  0  0  0  0  0  0  0  0
  150.9432  145.4941  159.3648 H   0  0  0  0  0  0  0  0  0  0  0  0
  1  2  1  0  0  0  0
  1 22  1  0  0  0  0
  1 23  1  0  0  0  0
  1 24  1  0  0  0  0
  2  3  1  0  0  0  0
  2 25  1  0  0  0  0
  2 26  1  0  0  0  0
  3 21  1  0  0  0  0
  3  4  1  0  0  0  0
  4  5  2  0  0  0  0
  4 27  1  0  0  0  0
  5  6  1  0  0  0  0
  5 20  1  0  0  0  0
  6  7  1  0  0  0  0
  6 28  1  0  0  0  0
  7  8  2  0  0  0  0
  7  9  1  0  0  0  0
  9 10  1  0  0  0  0
  9 29  1  0  0  0  0
 10 11  1  0  0  0  0
 10 12  1  0  0  0  0
 10 30  1  0  0  0  0
 11 31  1  0  0  0  0
 11 32  1  0  0  0  0
 11 33  1  0  0  0  0
 12 13  2  0  0  0  0
 12 14  1  0  0  0  0
 14 15  1  0  0  0  0
 14 34  1  0  0  0  0
 15 19  1  0  0  0  0
 15 16  1  0  0  0  0
 15 35  1  0  0  0  0
 16 17  1  0  0  0  0
 16 36  1  0  0  0  0
 16 37  1  0  0  0  0
 17 18  1  0  0  0  0
 17 38  1  0  0  0  0
 17 39  1  0  0  0  0
 18 19  1  0  0  0  0
 18 40  1  0  0  0  0
 18 41  1  0  0  0  0
 19 42  1  0  0  0  0
 19 43  1  0  0  0  0
 20 21  2  0  0  0  0
 20 44  1  0  0  0  0
M  END
> <s_m_source_file>
AV-unprocessed.smi

> <i_m_source_file_index>
818

> <i_lp_mmshare_version>
43012

> <i_f3d_flags>
0

> <s_epik_input>
W0NIM11bQ0gyXW4xW2NIXWMoW2NIXW4xKVtOSF1DKD1PKVtOSF1bQ0BIXShbQ0gzXSlDKD1PKVtOSF1bQ0hdMltDSDJdW0NIMl1bQ0gyXVtDSDJdMg==

> <s_epik_cmdline>
J2VwaWtfcHl0aG9uJywgJy1waCcsICc3LjAnLCAnLXRuJywgJzgnLCAnLW1hJywgJzIwMCcsICctbWV0YWxfYmluZGluZycsICctaW1hZScsICc8aW5maWxlLm1hZT4nLCAnLW9tYWUnLCAnPG91dGZpbGUubWFlPic=

> <r_lp_tautomer_probability>
1

> <r_epik_Ionization_Penalty>
0.00015627

> <r_epik_Ionization_Penalty_Charging>
0

> <r_epik_Ionization_Penalty_Neutral>
0.00015627

> <r_epik_State_Penalty>
-0

> <r_epik_Charging_Adjusted_Penalty>
0

> <i_epik_Tot_Q>
0

> <i_epik_Tot_abs_Q>
0

> <r_epik_Metal_State_Penalty>
-0

> <b_epik_Metal_Only>
0

> <s_lp_Force_Field>
OPLS_2005

> <r_lp_Energy>
21.9602

> <b_lp_Chiralities_Consistent>
1

> <s_lp_Variant>
AV-unprocessed.smi:818-2

> <Gold.Version>
5.8.1

> <Gold.Id.Protein>
6NUR|6NUR_protein|mol2

> <Gold.PLP.Fitness>
47.5415

> <Gold.PLP.PLP>
-38.7771

> <Gold.PLP.part.hbond>
-3.6464

> <Gold.PLP.part.metal>
0.0000

> <Gold.PLP.part.buried>
-3.9241

> <Gold.PLP.part.nonpolar>
-34.2519

> <Gold.PLP.part.repulsive>
2.8419

> <Gold.PLP.ligand.clash>
0.0000

> <Gold.PLP.ligand.torsion>
0.1659

> <Gold.PLP.Chemscore.Hbond>
3.0240

> <Gold.PLP.Chemscore.CHOScore>
0.0000

> <Gold.PLP.Chemscore.Metal>
0.0000

> <Gold.Chemscore.Hbonds>
donor molecule, donor type, donor heavy atom, donor atom, acceptor molecule, acceptor atom, score
      L1  H     6    28       P1  8028  0.62
      L1  H     9    29       P1  8028  0.70
      P1  H  7989  7998       L1    13  0.04
      P1  H  8011  8017       L1    13  0.75

> <Gold.PLP.Chemscore.Internal.Correction>
0.0242

> <Gold.Rescore>
     Score         DG    S(hbond)    S(metal)    S(lipo)     H(rot)  DE(clash)    DE(int)     intcor
     17.64     -22.26       2.95        0.00      96.16       1.68       1.92       2.70       ----

> <Gold.Chemscore.Fitness>
17.6369

> <Gold.Chemscore.DG>
-22.2598

> <Gold.Chemscore.ZeroCoef>
-5.4800

> <Gold.Chemscore.Hbond>
2.9454

> <Gold.Chemscore.Metal>
0.0000

> <Gold.Chemscore.Lipo>
96.1568

> <Gold.Chemscore.Internal_Hbond>
0.0000

> <Gold.Chemscore.DEClash>
1.9194

> <Gold.Chemscore.DEInternal>
2.7035

> <Gold.Chemscore.Rot>
1.6828

> <Gold.Chemscore.Internal.Correction>
   9.000000E+99

> <Gold.Chemscore.Hbonds>
donor molecule, donor type, donor heavy atom, donor atom, acceptor molecule, acceptor atom, score
      L1  H     6    28       P1  8028  0.22
      L1  H     9    29       P1  8028  0.47
      P1  H  7989  7998       L1    13  0.04
      P1  H  8011  8017       L1    13  0.71

> <Gold.Chemscore.Hbond.Weighted>
-9.8375

> <Gold.Chemscore.Metal.Weighted>
-0.0000

> <Gold.Chemscore.Lipo.Weighted>
-11.2503

> <Gold.Chemscore.Internal_Hbond.Weighted>
0.0000

> <Gold.Chemscore.DEClash.Weighted>
1.9194

> <Gold.Chemscore.DEInternal.Weighted>
2.7035

> <Gold.Chemscore.Rot.Weighted>
4.3081

> <Gold.Chemscore.Internal.Correction.Weighted>
   9.000000E+99

> <Gold.Protein.RotatedTorsions>
[ 6907 6896 6895 6894 ] final    2.14 input  -60.11 | X-H torsion
[ 7974 7965 7964 7962 ] final   27.84 input  175.53 | X-H torsion
[ 8008 7997 7996 7995 ] final   34.20 input   59.86 | X-H torsion
[ 10167 10162 10161 10158 ] final  -40.74 input  -65.29 | X-H torsion
[ 10718 10713 10712 10709 ] final   10.55 input   66.30 | X-H torsion
[ 10763 10752 10751 10750 ] final  120.97 input  -60.55 | X-H torsion
[ 11005 11000 10999 10996 ] final  101.65 input  -57.11 | X-H torsion

> <Gold.Protein.ActiveResidues>
 VAL166  LYS551  ARG553  GLY616  TRP617  ASP618  TYR619  PRO620  LYS621  CYS622 
 ASP623  PHE694  ASN695  SER759  ASP760  ASP761  ALA762  ILE779  LEU786  VAL792 
 PHE793  MET794  SER795  GLU796  ALA797  LYS798  CYS799  TRP800  GLU811  SER814 

> <Gold.Protein.RotatedAtoms>
  151.6041  135.1045  160.0066 H   0  0  0  0  0  0  0  0  0  0  0  0  # atno 6907 bound_to 6896
  152.4242  133.7164  159.6519 H   0  0  0  0  0  0  0  0  0  0  0  0  # atno 6908 bound_to 6896
  150.8131  133.8314  159.3195 H   0  0  0  0  0  0  0  0  0  0  0  0  # atno 6909 bound_to 6896
  146.1762  139.7137  142.8932 H   0  0  0  0  0  0  0  0  0  0  0  0  # atno 7974 bound_to 7965
  155.1510  140.3275  155.4431 H   0  0  0  0  0  0  0  0  0  0  0  0  # atno 8008 bound_to 7997
  156.2574  140.1977  156.6572 H   0  0  0  0  0  0  0  0  0  0  0  0  # atno 8009 bound_to 7997
  154.6473  140.0563  156.9901 H   0  0  0  0  0  0  0  0  0  0  0  0  # atno 8010 bound_to 7997
  140.7025  143.3135  151.2968 H   0  0  0  0  0  0  0  0  0  0  0  0  # atno 10167 bound_to 10162
  156.9827  130.6012  149.5678 H   0  0  0  0  0  0  0  0  0  0  0  0  # atno 10718 bound_to 10713
  153.6068  135.3438  155.2965 H   0  0  0  0  0  0  0  0  0  0  0  0  # atno 10763 bound_to 10752
  154.8626  135.4240  154.2353 H   0  0  0  0  0  0  0  0  0  0  0  0  # atno 10764 bound_to 10752
  153.3194  135.7037  153.7116 H   0  0  0  0  0  0  0  0  0  0  0  0  # atno 10765 bound_to 10752
  139.8774  134.9192  156.4938 H   0  0  0  0  0  0  0  0  0  0  0  0  # atno 11005 bound_to 11000
  145.4204  141.0406  143.2967 LP  0  0  0  0  0  0  0  0  0  0  0  0  # atno 17320 bound_to 7965
  144.8240  139.5741  143.6974 LP  0  0  0  0  0  0  0  0  0  0  0  0  # atno 17321 bound_to 7965
  139.6566  144.0265  152.2664 LP  0  0  0  0  0  0  0  0  0  0  0  0  # atno 17342 bound_to 10162
  139.9819  144.6422  150.7893 LP  0  0  0  0  0  0  0  0  0  0  0  0  # atno 17343 bound_to 10162
  156.0238  130.5332  150.8350 LP  0  0  0  0  0  0  0  0  0  0  0  0  # atno 17370 bound_to 10713
  157.5515  131.0944  150.9689 LP  0  0  0  0  0  0  0  0  0  0  0  0  # atno 17371 bound_to 10713
  140.8639  133.8039  155.9293 LP  0  0  0  0  0  0  0  0  0  0  0  0  # atno 17394 bound_to 11000
  140.9021  134.2365  157.5035 LP  0  0  0  0  0  0  0  0  0  0  0  0  # atno 17395 bound_to 11000

$$$$
