AV-unprocessed.smi:2034|AV-procd|sdf|8263|dock2
  -GOLD-   2272010533D 1   1.00000     0.00000
 Structure written by MMmdl.
 50 52  0  0  0  0  0  0  0  0  1 V2000
  152.0952  145.3043  158.8693 C   0  0  0  0  0  0  0  0  0  0  0  0
  152.4463  143.8148  158.7950 C   0  0  2  0  0  0  0  0  0  0  0  0
  151.5876  143.0740  157.7548 C   0  0  0  0  0  0  0  0  0  0  0  0
  151.8803  141.6483  157.7933 N   0  0  0  0  0  0  0  0  0  0  0  0
  151.2631  140.9141  156.7722 C   0  0  0  0  0  0  0  0  0  0  0  0
  151.9592  139.9176  156.0502 C   0  0  0  0  0  0  0  0  0  0  0  0
  151.2797  139.2131  155.0382 C   0  0  0  0  0  0  0  0  0  0  0  0
  149.9218  139.5207  154.7841 C   0  0  0  0  0  0  0  0  0  0  0  0
  149.1289  138.8934  153.7854 N   0  0  0  0  0  0  0  0  0  0  0  0
  147.8284  139.0822  153.5039 C   0  0  0  0  0  0  0  0  0  0  0  0
  147.0826  139.8751  154.0782 O   0  0  0  0  0  0  0  0  0  0  0  0
  147.4361  138.2983  152.4902 N   0  0  0  0  0  0  0  0  0  0  0  0
  146.0836  138.2414  151.9477 C   0  0  0  0  0  0  0  0  0  0  0  0
  145.4526  136.8557  152.1602 C   0  0  2  0  0  0  0  0  0  0  0  0
  145.4592  135.9765  150.9125 C   0  0  0  0  0  0  0  0  0  0  0  0
  144.3245  134.9977  151.1684 C   0  0  0  0  0  0  0  0  0  0  0  0
  143.4921  135.6695  152.2651 C   0  0  0  0  0  0  0  0  0  0  0  0
  144.0652  136.9581  152.4390 O   0  0  0  0  0  0  0  0  0  0  0  0
  149.3277  140.5448  155.5502 C   0  0  0  0  0  0  0  0  0  0  0  0
  149.9734  141.2249  156.5209 N   0  0  0  0  0  0  0  0  0  0  0  0
  151.6815  141.0719  159.1162 C   0  0  0  0  0  0  0  0  0  0  0  0
  152.4981  141.8402  160.1748 C   0  0  1  0  0  0  0  0  0  0  0  0
  154.0066  141.5391  160.1242 C   0  0  0  0  0  0  0  0  0  0  0  0
  152.2265  143.2419  160.0848 O   0  0  0  0  0  0  0  0  0  0  0  0
  152.2515  145.7926  157.9071 H   0  0  0  0  0  0  0  0  0  0  0  0
  152.7163  145.8148  159.6056 H   0  0  0  0  0  0  0  0  0  0  0  0
  151.0529  145.4503  159.1540 H   0  0  0  0  0  0  0  0  0  0  0  0
  153.5003  143.7283  158.5294 H   0  0  0  0  0  0  0  0  0  0  0  0
  150.5294  143.2407  157.9604 H   0  0  0  0  0  0  0  0  0  0  0  0
  151.7886  143.4630  156.7556 H   0  0  0  0  0  0  0  0  0  0  0  0
  152.9956  139.6967  156.2592 H   0  0  0  0  0  0  0  0  0  0  0  0
  151.8168  138.4661  154.4752 H   0  0  0  0  0  0  0  0  0  0  0  0
  149.6258  138.2610  153.1753 H   0  0  0  0  0  0  0  0  0  0  0  0
  148.1186  137.6825  152.0735 H   0  0  0  0  0  0  0  0  0  0  0  0
  145.4557  139.0245  152.3767 H   0  0  0  0  0  0  0  0  0  0  0  0
  146.1500  138.4506  150.8800 H   0  0  0  0  0  0  0  0  0  0  0  0
  145.9454  136.3326  152.9821 H   0  0  0  0  0  0  0  0  0  0  0  0
  145.2325  136.5747  150.0288 H   0  0  0  0  0  0  0  0  0  0  0  0
  146.4177  135.4832  150.7489 H   0  0  0  0  0  0  0  0  0  0  0  0
  143.7430  134.8233  150.2628 H   0  0  0  0  0  0  0  0  0  0  0  0
  144.7037  134.0360  151.5154 H   0  0  0  0  0  0  0  0  0  0  0  0
  142.4375  135.7475  152.0006 H   0  0  0  0  0  0  0  0  0  0  0  0
  143.5679  135.1123  153.1996 H   0  0  0  0  0  0  0  0  0  0  0  0
  148.2979  140.8257  155.3839 H   0  0  0  0  0  0  0  0  0  0  0  0
  150.6217  141.1188  159.3703 H   0  0  0  0  0  0  0  0  0  0  0  0
  151.9613  140.0176  159.1121 H   0  0  0  0  0  0  0  0  0  0  0  0
  152.1473  141.5247  161.1578 H   0  0  0  0  0  0  0  0  0  0  0  0
  154.1966  140.4860  160.3325 H   0  0  0  0  0  0  0  0  0  0  0  0
  154.5451  142.1248  160.8695 H   0  0  0  0  0  0  0  0  0  0  0  0
  154.4401  141.7582  159.1487 H   0  0  0  0  0  0  0  0  0  0  0  0
  1  2  1  0  0  0  0
  1 25  1  0  0  0  0
  1 26  1  0  0  0  0
  1 27  1  0  0  0  0
  2 24  1  0  0  0  0
  2  3  1  0  0  0  0
  2 28  1  0  0  0  0
  3  4  1  0  0  0  0
  3 29  1  0  0  0  0
  3 30  1  0  0  0  0
  4  5  1  0  0  0  0
  4 21  1  0  0  0  0
  5 20  1  0  0  0  0
  5  6  2  0  0  0  0
  6  7  1  0  0  0  0
  6 31  1  0  0  0  0
  7  8  2  0  0  0  0
  7 32  1  0  0  0  0
  8  9  1  0  0  0  0
  8 19  1  0  0  0  0
  9 10  1  0  0  0  0
  9 33  1  0  0  0  0
 10 11  2  0  0  0  0
 10 12  1  0  0  0  0
 12 13  1  0  0  0  0
 12 34  1  0  0  0  0
 13 14  1  0  0  0  0
 13 35  1  0  0  0  0
 13 36  1  0  0  0  0
 14 18  1  0  0  0  0
 14 15  1  0  0  0  0
 14 37  1  0  0  0  0
 15 16  1  0  0  0  0
 15 38  1  0  0  0  0
 15 39  1  0  0  0  0
 16 17  1  0  0  0  0
 16 40  1  0  0  0  0
 16 41  1  0  0  0  0
 17 18  1  0  0  0  0
 17 42  1  0  0  0  0
 17 43  1  0  0  0  0
 19 20  2  0  0  0  0
 19 44  1  0  0  0  0
 21 22  1  0  0  0  0
 21 45  1  0  0  0  0
 21 46  1  0  0  0  0
 22 23  1  0  0  0  0
 22 24  1  0  0  0  0
 22 47  1  0  0  0  0
 23 48  1  0  0  0  0
 23 49  1  0  0  0  0
 23 50  1  0  0  0  0
M  END
> <s_m_source_file>
AV-unprocessed.smi

> <i_m_source_file_index>
2034

> <i_lp_mmshare_version>
43012

> <i_f3d_flags>
0

> <s_epik_input>
W0NIM11bQ0BASF0xW0NIMl1OKFtDSDJdW0NASF0oTzEpW0NIM10pYzJbY0hdW2NIXWMoW2NIXW4yKVtOSF1DKD1PKVtOSF1bQ0gyXVtDQEBIXTNbQ0gyXVtDSDJdW0NIMl1PMw==

> <s_epik_cmdline>
J2VwaWtfcHl0aG9uJywgJy1waCcsICc3LjAnLCAnLXRuJywgJzgnLCAnLW1hJywgJzIwMCcsICctbWV0YWxfYmluZGluZycsICctaW1hZScsICc8aW5maWxlLm1hZT4nLCAnLW9tYWUnLCAnPG91dGZpbGUubWFlPic=

> <r_lp_tautomer_probability>
1

> <r_epik_Ionization_Penalty>
0.00268225

> <r_epik_Ionization_Penalty_Charging>
0

> <r_epik_Ionization_Penalty_Neutral>
0.00268225

> <r_epik_State_Penalty>
0.00184408

> <r_epik_Charging_Adjusted_Penalty>
0.00184408

> <i_epik_Tot_Q>
0

> <i_epik_Tot_abs_Q>
0

> <r_epik_Metal_State_Penalty>
-0

> <b_epik_Metal_Only>
0

> <s_lp_Force_Field>
OPLS_2005

> <r_lp_Energy>
37.5885

> <b_lp_Chiralities_Consistent>
1

> <s_lp_Variant>
AV-unprocessed.smi:2034-1

> <Gold.Version>
5.8.1

> <Gold.Id.Protein>
6NUR|6NUR_protein|mol2

> <Gold.PLP.Fitness>
51.7305

> <Gold.PLP.PLP>
-50.8438

> <Gold.PLP.part.hbond>
-3.3194

> <Gold.PLP.part.metal>
0.0000

> <Gold.PLP.part.buried>
-4.6999

> <Gold.PLP.part.nonpolar>
-44.3723

> <Gold.PLP.part.repulsive>
1.1119

> <Gold.PLP.ligand.clash>
0.0000

> <Gold.PLP.ligand.torsion>
1.1408

> <Gold.PLP.Chemscore.Hbond>
1.0000

> <Gold.PLP.Chemscore.CHOScore>
0.0000

> <Gold.PLP.Chemscore.Metal>
0.0000

> <Gold.Chemscore.Hbonds>
donor molecule, donor type, donor heavy atom, donor atom, acceptor molecule, acceptor atom, score
      L1  H    12    34       P1  7948  1.00

> <Gold.PLP.Chemscore.Internal.Correction>
0.1684

> <Gold.Rescore>
     Score         DG    S(hbond)    S(metal)    S(lipo)     H(rot)  DE(clash)    DE(int)     intcor
     17.04     -19.56       1.00        0.00     121.81       1.37       0.07       2.45       ----

> <Gold.Chemscore.Fitness>
17.0449

> <Gold.Chemscore.DG>
-19.5638

> <Gold.Chemscore.ZeroCoef>
-5.4800

> <Gold.Chemscore.Hbond>
0.9969

> <Gold.Chemscore.Metal>
0.0000

> <Gold.Chemscore.Lipo>
121.8107

> <Gold.Chemscore.Internal_Hbond>
0.0000

> <Gold.Chemscore.DEClash>
0.0699

> <Gold.Chemscore.DEInternal>
2.4490

> <Gold.Chemscore.Rot>
1.3663

> <Gold.Chemscore.Internal.Correction>
   9.000000E+99

> <Gold.Chemscore.Hbonds>
donor molecule, donor type, donor heavy atom, donor atom, acceptor molecule, acceptor atom, score
      L1  H     9    33       P1  7948  0.02
      L1  H    12    34       P1  7948  0.99

> <Gold.Chemscore.Hbond.Weighted>
-3.3297

> <Gold.Chemscore.Metal.Weighted>
-0.0000

> <Gold.Chemscore.Lipo.Weighted>
-14.2519

> <Gold.Chemscore.Internal_Hbond.Weighted>
0.0000

> <Gold.Chemscore.DEClash.Weighted>
0.0699

> <Gold.Chemscore.DEInternal.Weighted>
2.4490

> <Gold.Chemscore.Rot.Weighted>
3.4977

> <Gold.Chemscore.Internal.Correction.Weighted>
   9.000000E+99

> <Gold.Protein.RotatedTorsions>
[ 6907 6896 6895 6894 ] final  174.24 input  -60.11 | X-H torsion
[ 7974 7965 7964 7962 ] final  152.24 input  175.53 | X-H torsion
[ 8008 7997 7996 7995 ] final  -57.59 input   59.86 | X-H torsion
[ 10167 10162 10161 10158 ] final  -49.01 input  -65.29 | X-H torsion
[ 10718 10713 10712 10709 ] final  175.86 input   66.30 | X-H torsion
[ 10763 10752 10751 10750 ] final   59.61 input  -60.55 | X-H torsion
[ 11005 11000 10999 10996 ] final -119.34 input  -57.11 | X-H torsion

> <Gold.Protein.ActiveResidues>
 VAL166  LYS551  ARG553  GLY616  TRP617  ASP618  TYR619  PRO620  LYS621  CYS622 
 ASP623  PHE694  ASN695  SER759  ASP760  ASP761  ALA762  ILE779  LEU786  VAL792 
 PHE793  MET794  SER795  GLU796  ALA797  LYS798  CYS799  TRP800  GLU811  SER814 

> <Gold.Protein.RotatedAtoms>
  151.7555  133.3330  159.3403 H   0  0  0  0  0  0  0  0  0  0  0  0  # atno 6907 bound_to 6896
  150.7518  134.6153  159.6117 H   0  0  0  0  0  0  0  0  0  0  0  0  # atno 6908 bound_to 6896
  152.3440  134.7098  160.0307 H   0  0  0  0  0  0  0  0  0  0  0  0  # atno 6909 bound_to 6896
  144.8236  139.6643  143.6090 H   0  0  0  0  0  0  0  0  0  0  0  0  # atno 7974 bound_to 7965
  154.4274  140.1103  156.5822 H   0  0  0  0  0  0  0  0  0  0  0  0  # atno 8008 bound_to 7997
  155.6100  140.3494  155.4600 H   0  0  0  0  0  0  0  0  0  0  0  0  # atno 8009 bound_to 7997
  156.0106  140.1218  157.0447 H   0  0  0  0  0  0  0  0  0  0  0  0  # atno 8010 bound_to 7997
  140.6705  143.2716  151.4153 H   0  0  0  0  0  0  0  0  0  0  0  0  # atno 10167 bound_to 10162
  156.9286  130.9964  151.2991 H   0  0  0  0  0  0  0  0  0  0  0  0  # atno 10718 bound_to 10713
  152.9899  135.5565  154.5740 H   0  0  0  0  0  0  0  0  0  0  0  0  # atno 10763 bound_to 10752
  154.5135  135.2803  155.1325 H   0  0  0  0  0  0  0  0  0  0  0  0  # atno 10764 bound_to 10752
  154.2707  135.6363  153.5362 H   0  0  0  0  0  0  0  0  0  0  0  0  # atno 10765 bound_to 10752
  141.0222  134.0107  157.3266 H   0  0  0  0  0  0  0  0  0  0  0  0  # atno 11005 bound_to 11000
  146.2541  139.6264  142.9407 LP  0  0  0  0  0  0  0  0  0  0  0  0  # atno 17320 bound_to 7965
  145.5050  141.0437  143.2519 LP  0  0  0  0  0  0  0  0  0  0  0  0  # atno 17321 bound_to 7965
  139.5971  144.1374  152.2156 LP  0  0  0  0  0  0  0  0  0  0  0  0  # atno 17342 bound_to 10162
  140.0746  144.5751  150.7166 LP  0  0  0  0  0  0  0  0  0  0  0  0  # atno 17343 bound_to 10162
  157.5861  130.8411  149.8592 LP  0  0  0  0  0  0  0  0  0  0  0  0  # atno 17370 bound_to 10713
  156.0457  130.3728  150.1323 LP  0  0  0  0  0  0  0  0  0  0  0  0  # atno 17371 bound_to 10713
  139.9153  135.0196  156.7857 LP  0  0  0  0  0  0  0  0  0  0  0  0  # atno 17394 bound_to 11000
  140.6553  133.9694  155.7776 LP  0  0  0  0  0  0  0  0  0  0  0  0  # atno 17395 bound_to 11000

$$$$
