AV-unprocessed.smi:3327|AV-procd|sdf|12788|dock2
  -GOLD-   2272019133D 1   1.00000     0.00000
 Structure written by MMmdl.
 41 42  0  0  0  0  0  0  0  0  2 V2000
  153.4992  142.5018  162.6170 C   0  0  0  0  0  0  0  0  0  0  0  0
  152.6590  142.9088  161.3987 C   0  0  1  0  0  0  0  0  0  0  0  0
  152.2387  144.3930  161.4709 C   0  0  0  0  0  0  0  0  0  0  0  0
  151.4998  144.8454  160.1975 C   0  0  0  0  0  0  0  0  0  0  0  0
  152.2992  144.4713  158.9375 C   0  0  0  0  0  0  0  0  0  0  0  0
  152.5452  143.0228  158.9487 N   0  0  0  0  0  0  0  0  0  0  0  0
  151.9798  142.1217  158.1089 C   0  0  0  0  0  0  0  0  0  0  0  0
  152.1895  140.9111  158.2044 O   0  0  0  0  0  0  0  0  0  0  0  0
  151.0408  142.6231  157.0007 C   0  0  0  0  0  0  0  0  0  0  0  0
  149.8204  143.2586  157.5386 N   0  3  0  0  0  0  0  0  0  0  0  0
  148.7987  142.3045  158.0147 C   0  0  0  0  0  0  0  0  0  0  0  0
  147.3880  142.9137  157.9698 C   0  0  0  0  0  0  0  0  0  0  0  0
  146.9525  143.3880  159.2710 N   0  0  0  0  0  0  0  0  0  0  0  0
  146.5111  144.6467  159.6207 C   0  0  0  0  0  0  0  0  0  0  0  0
  146.2056  144.6146  160.9513 C   0  0  0  0  0  0  0  0  0  0  0  0
  146.4991  143.2759  161.3338 C   0  0  0  0  0  0  0  0  0  0  0  0
  146.9429  142.5431  160.3249 N   0  0  0  0  0  0  0  0  0  0  0  0
  153.4024  142.6290  160.0752 C   0  0  0  0  0  0  0  0  0  0  0  0
  154.4285  143.0701  162.6660 H   0  0  0  0  0  0  0  0  0  0  0  0
  153.7581  141.4433  162.5791 H   0  0  0  0  0  0  0  0  0  0  0  0
  152.9538  142.6742  163.5452 H   0  0  0  0  0  0  0  0  0  0  0  0
  151.7523  142.3018  161.4079 H   0  0  0  0  0  0  0  0  0  0  0  0
  151.6115  144.5666  162.3460 H   0  0  0  0  0  0  0  0  0  0  0  0
  153.1267  145.0130  161.6020 H   0  0  0  0  0  0  0  0  0  0  0  0
  150.5156  144.3766  160.1586 H   0  0  0  0  0  0  0  0  0  0  0  0
  151.3297  145.9219  160.2285 H   0  0  0  0  0  0  0  0  0  0  0  0
  151.7754  144.8241  158.0508 H   0  0  0  0  0  0  0  0  0  0  0  0
  153.2561  144.9956  158.9357 H   0  0  0  0  0  0  0  0  0  0  0  0
  151.5692  143.3464  156.3782 H   0  0  0  0  0  0  0  0  0  0  0  0
  150.7480  141.7822  156.3706 H   0  0  0  0  0  0  0  0  0  0  0  0
  150.0864  143.8543  158.3104 H   0  0  0  0  0  0  0  0  0  0  0  0
  148.8324  141.4136  157.3864 H   0  0  0  0  0  0  0  0  0  0  0  0
  149.0361  141.9876  159.0313 H   0  0  0  0  0  0  0  0  0  0  0  0
  147.3421  143.7365  157.2544 H   0  0  0  0  0  0  0  0  0  0  0  0
  146.6743  142.1635  157.6270 H   0  0  0  0  0  0  0  0  0  0  0  0
  146.4507  145.4515  158.9023 H   0  0  0  0  0  0  0  0  0  0  0  0
  145.8314  145.4246  161.5596 H   0  0  0  0  0  0  0  0  0  0  0  0
  146.4020  142.8175  162.3070 H   0  0  0  0  0  0  0  0  0  0  0  0
  154.3325  143.1984  160.0359 H   0  0  0  0  0  0  0  0  0  0  0  0
  153.6990  141.5801  160.0299 H   0  0  0  0  0  0  0  0  0  0  0  0
  149.4147  143.8379  156.8174 H   0  0  0  0  0  0  0  0  0  0  0  0
  1  2  1  0  0  0  0
  1 19  1  0  0  0  0
  1 20  1  0  0  0  0
  1 21  1  0  0  0  0
  2 18  1  0  0  0  0
  2  3  1  0  0  0  0
  2 22  1  0  0  0  0
  3  4  1  0  0  0  0
  3 23  1  0  0  0  0
  3 24  1  0  0  0  0
  4  5  1  0  0  0  0
  4 25  1  0  0  0  0
  4 26  1  0  0  0  0
  5  6  1  0  0  0  0
  5 27  1  0  0  0  0
  5 28  1  0  0  0  0
  6  7  1  0  0  0  0
  6 18  1  0  0  0  0
  7  8  2  0  0  0  0
  7  9  1  0  0  0  0
  9 10  1  0  0  0  0
  9 29  1  0  0  0  0
  9 30  1  0  0  0  0
 10 11  1  0  0  0  0
 10 31  1  0  0  0  0
 10 41  1  0  0  0  0
 11 12  1  0  0  0  0
 11 32  1  0  0  0  0
 11 33  1  0  0  0  0
 12 13  1  0  0  0  0
 12 34  1  0  0  0  0
 12 35  1  0  0  0  0
 13 17  1  0  0  0  0
 13 14  1  0  0  0  0
 14 15  2  0  0  0  0
 14 36  1  0  0  0  0
 15 16  1  0  0  0  0
 15 37  1  0  0  0  0
 16 17  2  0  0  0  0
 16 38  1  0  0  0  0
 18 39  1  0  0  0  0
 18 40  1  0  0  0  0
M  CHG  1  10   1
M  END
> <s_m_source_file>
AV-unprocessed.smi

> <i_m_source_file_index>
3327

> <i_lp_mmshare_version>
43012

> <i_f3d_flags>
0

> <s_epik_input>
W0NIM11bQ0BASF0xW0NIMl1bQ0gyXVtDSDJdTihbQ0gyXTEpQyg9TylbQ0gyXVtOSF1bQ0gyXVtDSDJdbjJbY0hdW2NIXVtjSF1uMg==

> <s_epik_cmdline>
J2VwaWtfcHl0aG9uJywgJy1waCcsICc3LjAnLCAnLXRuJywgJzgnLCAnLW1hJywgJzIwMCcsICctbWV0YWxfYmluZGluZycsICctaW1hZScsICc8aW5maWxlLm1hZT4nLCAnLW9tYWUnLCAnPG91dGZpbGUubWFlPic=

> <r_lp_tautomer_probability>
1

> <r_epik_Ionization_Penalty>
0.195801

> <r_epik_Ionization_Penalty_Charging>
0.195799

> <r_epik_Ionization_Penalty_Neutral>
2.33113e-06

> <r_epik_State_Penalty>
0.185548

> <r_epik_Charging_Adjusted_Penalty>
0.381347

> <i_epik_Tot_Q>
1

> <i_epik_Tot_abs_Q>
1

> <r_epik_Metal_State_Penalty>
0.186014

> <b_epik_Metal_Only>
0

> <s_lp_Force_Field>
OPLS_2005

> <r_lp_Energy>
21.4811

> <b_lp_Chiralities_Consistent>
1

> <s_lp_Variant>
AV-unprocessed.smi:3327-2

> <Gold.Version>
5.8.1

> <Gold.Id.Protein>
6NUR|6NUR_protein|mol2

> <Gold.PLP.Fitness>
58.5370

> <Gold.PLP.PLP>
-45.5066

> <Gold.PLP.part.hbond>
-3.0000

> <Gold.PLP.part.metal>
0.0000

> <Gold.PLP.part.buried>
-4.3271

> <Gold.PLP.part.nonpolar>
-37.3288

> <Gold.PLP.part.repulsive>
0.0484

> <Gold.PLP.ligand.clash>
0.0000

> <Gold.PLP.ligand.torsion>
0.5378

> <Gold.PLP.Chemscore.Hbond>
3.6872

> <Gold.PLP.Chemscore.CHOScore>
0.9953

> <Gold.PLP.Chemscore.Metal>
0.0000

> <Gold.Chemscore.Hbonds>
donor molecule, donor type, donor heavy atom, donor atom, acceptor molecule, acceptor atom, score
      L1  H    10    41       P1  8028  2.00
      P1  H  6933  6944       L1    17  0.15
      P1  H  6934  6946       L1    17  0.88
      L1  C    14    36       P1  8029  0.99

> <Gold.PLP.Chemscore.Internal.Correction>
0.0585

> <Gold.Rescore>
     Score         DG    S(hbond)    S(metal)    S(lipo)     H(rot)  DE(clash)    DE(int)     intcor
     18.15     -18.79       1.90        0.00      98.76       1.80       0.00       0.64       ----

> <Gold.Chemscore.Fitness>
18.1477

> <Gold.Chemscore.DG>
-18.7918

> <Gold.Chemscore.ZeroCoef>
-5.4800

> <Gold.Chemscore.Hbond>
1.9030

> <Gold.Chemscore.Metal>
0.0000

> <Gold.Chemscore.Lipo>
98.7552

> <Gold.Chemscore.Internal_Hbond>
0.0000

> <Gold.Chemscore.DEClash>
0.0000

> <Gold.Chemscore.DEInternal>
0.6441

> <Gold.Chemscore.Rot>
1.7963

> <Gold.Chemscore.Internal.Correction>
   9.000000E+99

> <Gold.Chemscore.Hbonds>
donor molecule, donor type, donor heavy atom, donor atom, acceptor molecule, acceptor atom, score
      L1  H    10    41       P1  8028  0.82
      P1  H  6934  6946       L1    17  0.68

> <Gold.Chemscore.Hbond.Weighted>
-6.3560

> <Gold.Chemscore.Metal.Weighted>
-0.0000

> <Gold.Chemscore.Lipo.Weighted>
-11.5544

> <Gold.Chemscore.Internal_Hbond.Weighted>
0.0000

> <Gold.Chemscore.DEClash.Weighted>
0.0000

> <Gold.Chemscore.DEInternal.Weighted>
0.6441

> <Gold.Chemscore.Rot.Weighted>
4.5985

> <Gold.Chemscore.Internal.Correction.Weighted>
   9.000000E+99

> <Gold.Protein.RotatedTorsions>
[ 6907 6896 6895 6894 ] final -149.17 input  -60.11 | X-H torsion
[ 7974 7965 7964 7962 ] final   29.47 input  175.53 | X-H torsion
[ 8008 7997 7996 7995 ] final  -36.03 input   59.86 | X-H torsion
[ 10167 10162 10161 10158 ] final -112.93 input  -65.29 | X-H torsion
[ 10718 10713 10712 10709 ] final  172.90 input   66.30 | X-H torsion
[ 10763 10752 10751 10750 ] final  174.78 input  -60.55 | X-H torsion
[ 11005 11000 10999 10996 ] final   -0.62 input  -57.11 | X-H torsion

> <Gold.Protein.ActiveResidues>
 VAL166  LYS551  ARG553  GLY616  TRP617  ASP618  TYR619  PRO620  LYS621  CYS622 
 ASP623  PHE694  ASN695  SER759  ASP760  ASP761  ALA762  ILE779  LEU786  VAL792 
 PHE793  MET794  SER795  GLU796  ALA797  LYS798  CYS799  TRP800  GLU811  SER814 

> <Gold.Protein.RotatedAtoms>
  151.1803  133.4729  159.2593 H   0  0  0  0  0  0  0  0  0  0  0  0  # atno 6907 bound_to 6896
  151.1265  135.0107  159.8573 H   0  0  0  0  0  0  0  0  0  0  0  0  # atno 6908 bound_to 6896
  152.5458  134.1710  159.8650 H   0  0  0  0  0  0  0  0  0  0  0  0  # atno 6909 bound_to 6896
  146.1669  139.6917  142.8995 H   0  0  0  0  0  0  0  0  0  0  0  0  # atno 7974 bound_to 7965
  154.4082  140.1641  156.2308 H   0  0  0  0  0  0  0  0  0  0  0  0  # atno 8008 bound_to 7997
  155.9284  140.3416  155.6206 H   0  0  0  0  0  0  0  0  0  0  0  0  # atno 8009 bound_to 7997
  155.7136  140.0759  157.2351 H   0  0  0  0  0  0  0  0  0  0  0  0  # atno 8010 bound_to 7997
  140.1174  143.4474  152.1713 H   0  0  0  0  0  0  0  0  0  0  0  0  # atno 10167 bound_to 10162
  156.9721  131.0093  151.2902 H   0  0  0  0  0  0  0  0  0  0  0  0  # atno 10718 bound_to 10713
  154.4586  135.2767  155.1729 H   0  0  0  0  0  0  0  0  0  0  0  0  # atno 10763 bound_to 10752
  154.3526  135.6146  153.5654 H   0  0  0  0  0  0  0  0  0  0  0  0  # atno 10764 bound_to 10752
  152.9853  135.5815  154.4945 H   0  0  0  0  0  0  0  0  0  0  0  0  # atno 10765 bound_to 10752
  140.6383  133.9513  155.8312 H   0  0  0  0  0  0  0  0  0  0  0  0  # atno 11005 bound_to 11000
  145.4443  141.0424  143.2840 LP  0  0  0  0  0  0  0  0  0  0  0  0  # atno 17320 bound_to 7965
  144.8106  139.5970  143.7031 LP  0  0  0  0  0  0  0  0  0  0  0  0  # atno 17321 bound_to 7965
  139.5587  144.7391  151.4219 LP  0  0  0  0  0  0  0  0  0  0  0  0  # atno 17342 bound_to 10162
  140.6891  143.7903  150.7230 LP  0  0  0  0  0  0  0  0  0  0  0  0  # atno 17343 bound_to 10162
  157.5585  130.8230  149.8235 LP  0  0  0  0  0  0  0  0  0  0  0  0  # atno 17370 bound_to 10713
  156.0278  130.3774  150.1772 LP  0  0  0  0  0  0  0  0  0  0  0  0  # atno 17371 bound_to 10713
  141.0625  134.0325  157.3638 LP  0  0  0  0  0  0  0  0  0  0  0  0  # atno 17394 bound_to 11000
  139.9090  135.0186  156.7610 LP  0  0  0  0  0  0  0  0  0  0  0  0  # atno 17395 bound_to 11000

$$$$
