AV-unprocessed.smi:276|AV-procd|sdf|2078|dock4
  -GOLD-   2262021343D 1   1.00000     0.00000
 Structure written by MMmdl.
 57 61  0  0  0  0  0  0  0  0  1 V2000
  152.1641  139.2869  157.4589 C   0  0  0  0  0  0  0  0  0  0  0  0
  151.8284  139.1056  156.0940 O   0  0  0  0  0  0  0  0  0  0  0  0
  150.4627  139.3810  155.8245 C   0  0  2  0  0  0  0  0  0  0  0  0
  150.1267  139.3810  154.3244 C   0  0  0  0  0  0  0  0  0  0  0  0
  149.5847  140.8123  154.4515 C   0  0  1  0  0  0  0  0  0  0  0  0
  148.1223  140.9110  154.3099 N   0  0  0  0  0  0  0  0  0  0  0  0
  147.4818  142.0027  153.5763 C   0  0  0  0  0  0  0  0  0  0  0  0
  147.3813  139.7813  154.4837 C   0  0  0  0  0  0  0  0  0  0  0  0
  147.1104  139.3517  155.7462 N   0  0  0  0  0  0  0  0  0  0  0  0
  146.3994  138.2403  155.9522 C   0  0  0  0  0  0  0  0  0  0  0  0
  145.8622  137.4162  155.0522 N   0  0  0  0  0  0  0  0  0  0  0  0
  146.1159  137.8422  153.7822 C   0  0  0  0  0  0  0  0  0  0  0  0
  146.8584  139.0000  153.4097 C   0  0  0  0  0  0  0  0  0  0  0  0
  146.8883  139.1067  152.0224 N   0  0  0  0  0  0  0  0  0  0  0  0
  146.2109  138.0735  151.6027 C   0  0  0  0  0  0  0  0  0  0  0  0
  145.7108  137.2619  152.5937 N   0  0  0  0  0  0  0  0  0  0  0  0
  144.9203  136.0569  152.4123 C   0  0  0  0  0  0  0  0  0  0  0  0
  145.7901  134.7873  152.3179 C   0  0  2  0  0  0  0  0  0  0  0  0
  147.1188  135.0983  152.6926 O   0  0  0  0  0  0  0  0  0  0  0  0
  145.7985  134.1932  150.8970 C   0  0  1  0  0  0  0  0  0  0  0  0
  146.5107  132.8446  150.7783 C   0  0  0  0  0  0  0  0  0  0  0  0
  145.8721  132.2704  149.5350 C   0  0  0  0  0  0  0  0  0  0  0  0
  144.4247  132.7280  149.6879 C   0  0  0  0  0  0  0  0  0  0  0  0
  144.4674  133.9255  150.4606 O   0  0  0  0  0  0  0  0  0  0  0  0
  150.1126  140.8825  155.8986 C   0  0  0  0  0  0  0  0  0  0  0  0
  151.1851  141.9242  156.2661 C   0  0  0  0  0  0  0  0  0  0  0  0
  150.5893  141.9730  157.6745 C   0  0  0  0  0  0  0  0  0  0  0  0
  149.2874  141.4361  157.0759 C   0  0  0  0  0  0  0  0  0  0  0  0
  153.2194  139.0595  157.6094 H   0  0  0  0  0  0  0  0  0  0  0  0
  151.5830  138.6266  158.1037 H   0  0  0  0  0  0  0  0  0  0  0  0
  151.9944  140.3182  157.7712 H   0  0  0  0  0  0  0  0  0  0  0  0
  149.7773  138.7722  156.4161 H   0  0  0  0  0  0  0  0  0  0  0  0
  151.0135  139.3335  153.6911 H   0  0  0  0  0  0  0  0  0  0  0  0
  149.3984  138.6247  154.0303 H   0  0  0  0  0  0  0  0  0  0  0  0
  150.1347  141.4760  153.7827 H   0  0  0  0  0  0  0  0  0  0  0  0
  146.7563  141.6240  152.8550 H   0  0  0  0  0  0  0  0  0  0  0  0
  148.2001  142.6004  153.0191 H   0  0  0  0  0  0  0  0  0  0  0  0
  146.9649  142.6669  154.2691 H   0  0  0  0  0  0  0  0  0  0  0  0
  146.2385  137.9731  156.9861 H   0  0  0  0  0  0  0  0  0  0  0  0
  146.0537  137.8754  150.5522 H   0  0  0  0  0  0  0  0  0  0  0  0
  144.2268  135.9786  153.2503 H   0  0  0  0  0  0  0  0  0  0  0  0
  144.3098  136.1702  151.5155 H   0  0  0  0  0  0  0  0  0  0  0  0
  145.4121  134.0405  153.0175 H   0  0  0  0  0  0  0  0  0  0  0  0
  147.5806  134.2908  152.8594 H   0  0  0  0  0  0  0  0  0  0  0  0
  146.2449  134.8977  150.1929 H   0  0  0  0  0  0  0  0  0  0  0  0
  147.5937  132.9402  150.6950 H   0  0  0  0  0  0  0  0  0  0  0  0
  146.2876  132.2123  151.6390 H   0  0  0  0  0  0  0  0  0  0  0  0
  146.3169  132.7195  148.6458 H   0  0  0  0  0  0  0  0  0  0  0  0
  145.9727  131.1874  149.4591 H   0  0  0  0  0  0  0  0  0  0  0  0
  143.9405  132.8929  148.7253 H   0  0  0  0  0  0  0  0  0  0  0  0
  143.8448  131.9846  150.2360 H   0  0  0  0  0  0  0  0  0  0  0  0
  152.2193  141.5834  156.2185 H   0  0  0  0  0  0  0  0  0  0  0  0
  151.0547  142.8652  155.7286 H   0  0  0  0  0  0  0  0  0  0  0  0
  151.0633  141.2667  158.3580 H   0  0  0  0  0  0  0  0  0  0  0  0
  150.5173  142.9717  158.1059 H   0  0  0  0  0  0  0  0  0  0  0  0
  148.6051  142.2370  156.7883 H   0  0  0  0  0  0  0  0  0  0  0  0
  148.7860  140.6821  157.6831 H   0  0  0  0  0  0  0  0  0  0  0  0
  1  2  1  0  0  0  0
  1 29  1  0  0  0  0
  1 30  1  0  0  0  0
  1 31  1  0  0  0  0
  2  3  1  0  0  0  0
  3 25  1  0  0  0  0
  3  4  1  0  0  0  0
  3 32  1  0  0  0  0
  4  5  1  0  0  0  0
  4 33  1  0  0  0  0
  4 34  1  0  0  0  0
  5  6  1  0  0  0  0
  5 25  1  0  0  0  0
  5 35  1  0  0  0  0
  6  7  1  0  0  0  0
  6  8  1  0  0  0  0
  7 36  1  0  0  0  0
  7 37  1  0  0  0  0
  7 38  1  0  0  0  0
  8 13  1  0  0  0  0
  8  9  2  0  0  0  0
  9 10  1  0  0  0  0
 10 11  2  0  0  0  0
 10 39  1  0  0  0  0
 11 12  1  0  0  0  0
 12 16  1  0  0  0  0
 12 13  2  0  0  0  0
 13 14  1  0  0  0  0
 14 15  2  0  0  0  0
 15 16  1  0  0  0  0
 15 40  1  0  0  0  0
 16 17  1  0  0  0  0
 17 18  1  0  0  0  0
 17 41  1  0  0  0  0
 17 42  1  0  0  0  0
 18 19  1  0  0  0  0
 18 20  1  0  0  0  0
 18 43  1  0  0  0  0
 19 44  1  0  0  0  0
 20 24  1  0  0  0  0
 20 21  1  0  0  0  0
 20 45  1  0  0  0  0
 21 22  1  0  0  0  0
 21 46  1  0  0  0  0
 21 47  1  0  0  0  0
 22 23  1  0  0  0  0
 22 48  1  0  0  0  0
 22 49  1  0  0  0  0
 23 24  1  0  0  0  0
 23 50  1  0  0  0  0
 23 51  1  0  0  0  0
 25 28  1  0  0  0  0
 25 26  1  0  0  0  0
 26 27  1  0  0  0  0
 26 52  1  0  0  0  0
 26 53  1  0  0  0  0
 27 28  1  0  0  0  0
 27 54  1  0  0  0  0
 27 55  1  0  0  0  0
 28 56  1  0  0  0  0
 28 57  1  0  0  0  0
M  END
> <s_m_source_file>
AV-unprocessed.smi

> <i_m_source_file_index>
276

> <i_lp_mmshare_version>
43012

> <i_f3d_flags>
0

> <s_epik_input>
W0NIMl0xW0NIMl1bQ0gyXUMxMltDQEhdKE9bQ0gzXSlbQ0gyXVtDQEhdMk4oW0NIM10pYyhuW2NIXW4zKWMoYzM0KW5bY0hdbjRbQ0gyXVtDQEhdKFtPSF0pW0NAQEhdNVtDSDJdW0NIMl1bQ0gyXU81

> <s_epik_cmdline>
J2VwaWtfcHl0aG9uJywgJy1waCcsICc3LjAnLCAnLXRuJywgJzgnLCAnLW1hJywgJzIwMCcsICctbWV0YWxfYmluZGluZycsICctaW1hZScsICc8aW5maWxlLm1hZT4nLCAnLW9tYWUnLCAnPG91dGZpbGUubWFlPic=

> <r_lp_tautomer_probability>
1

> <r_epik_Ionization_Penalty>
0.00204117

> <r_epik_Ionization_Penalty_Charging>
0

> <r_epik_Ionization_Penalty_Neutral>
0.00204117

> <r_epik_State_Penalty>
0.00127401

> <r_epik_Charging_Adjusted_Penalty>
0.00127401

> <i_epik_Tot_Q>
0

> <i_epik_Tot_abs_Q>
0

> <r_epik_Metal_State_Penalty>
-0

> <b_epik_Metal_Only>
0

> <s_lp_Force_Field>
OPLS_2005

> <r_lp_Energy>
56.66

> <b_lp_Chiralities_Consistent>
1

> <s_lp_Variant>
AV-unprocessed.smi:276-9

> <Gold.Version>
5.8.1

> <Gold.Id.Protein>
6NUR|6NUR_protein|mol2

> <Gold.PLP.Fitness>
39.8181

> <Gold.PLP.PLP>
-42.7422

> <Gold.PLP.part.hbond>
-0.4173

> <Gold.PLP.part.metal>
0.0000

> <Gold.PLP.part.buried>
-4.9694

> <Gold.PLP.part.nonpolar>
-37.3383

> <Gold.PLP.part.repulsive>
1.3007

> <Gold.PLP.ligand.clash>
0.0000

> <Gold.PLP.ligand.torsion>
2.8602

> <Gold.PLP.Chemscore.Hbond>
0.0000

> <Gold.PLP.Chemscore.CHOScore>
0.6159

> <Gold.PLP.Chemscore.Metal>
0.0000

> <Gold.Chemscore.Hbonds>
donor molecule, donor type, donor heavy atom, donor atom, acceptor molecule, acceptor atom, score
      L1  C    15    40       P1 10171  0.65

> <Gold.PLP.Chemscore.Internal.Correction>
0.9485

> <Gold.Rescore>
     Score         DG    S(hbond)    S(metal)    S(lipo)     H(rot)  DE(clash)    DE(int)     intcor
      8.12     -11.32       0.00        0.00     103.67       2.46       0.31       2.89       ----

> <Gold.Chemscore.Fitness>
8.1187

> <Gold.Chemscore.DG>
-11.3173

> <Gold.Chemscore.ZeroCoef>
-5.4800

> <Gold.Chemscore.Hbond>
0.0000

> <Gold.Chemscore.Metal>
0.0000

> <Gold.Chemscore.Lipo>
103.6745

> <Gold.Chemscore.Internal_Hbond>
0.0000

> <Gold.Chemscore.DEClash>
0.3052

> <Gold.Chemscore.DEInternal>
2.8933

> <Gold.Chemscore.Rot>
2.4581

> <Gold.Chemscore.Internal.Correction>
   9.000000E+99

> <Gold.Chemscore.Hbond.Weighted>
-0.0000

> <Gold.Chemscore.Metal.Weighted>
-0.0000

> <Gold.Chemscore.Lipo.Weighted>
-12.1299

> <Gold.Chemscore.Internal_Hbond.Weighted>
0.0000

> <Gold.Chemscore.DEClash.Weighted>
0.3052

> <Gold.Chemscore.DEInternal.Weighted>
2.8933

> <Gold.Chemscore.Rot.Weighted>
6.2927

> <Gold.Chemscore.Internal.Correction.Weighted>
   9.000000E+99

> <Gold.Protein.RotatedTorsions>
[ 6907 6896 6895 6894 ] final  -87.04 input  -60.11 | X-H torsion
[ 7974 7965 7964 7962 ] final -142.25 input  175.53 | X-H torsion
[ 8008 7997 7996 7995 ] final  -97.60 input   59.86 | X-H torsion
[ 10167 10162 10161 10158 ] final   36.11 input  -65.29 | X-H torsion
[ 10718 10713 10712 10709 ] final   90.08 input   66.30 | X-H torsion
[ 10763 10752 10751 10750 ] final  134.27 input  -60.55 | X-H torsion
[ 11005 11000 10999 10996 ] final   62.22 input  -57.11 | X-H torsion

> <Gold.Protein.ActiveResidues>
 VAL166  LYS551  ARG553  GLY616  TRP617  ASP618  TYR619  PRO620  LYS621  CYS622 
 ASP623  PHE694  ASN695  SER759  ASP760  ASP761  ALA762  ILE779  LEU786  VAL792 
 PHE793  MET794  SER795  GLU796  ALA797  LYS798  CYS799  TRP800  GLU811  SER814 

> <Gold.Protein.RotatedAtoms>
  150.6866  134.2958  159.4685 H   0  0  0  0  0  0  0  0  0  0  0  0  # atno 6907 bound_to 6896
  152.0859  134.9437  160.0582 H   0  0  0  0  0  0  0  0  0  0  0  0  # atno 6908 bound_to 6896
  152.0772  133.4100  159.4522 H   0  0  0  0  0  0  0  0  0  0  0  0  # atno 6909 bound_to 6896
  144.8457  140.5981  143.5423 H   0  0  0  0  0  0  0  0  0  0  0  0  # atno 7974 bound_to 7965
  154.7900  140.0462  157.1193 H   0  0  0  0  0  0  0  0  0  0  0  0  # atno 8008 bound_to 7997
  154.9603  140.3076  155.5014 H   0  0  0  0  0  0  0  0  0  0  0  0  # atno 8009 bound_to 7997
  156.2948  140.2272  156.4687 H   0  0  0  0  0  0  0  0  0  0  0  0  # atno 8010 bound_to 7997
  140.4158  144.1529  150.6143 H   0  0  0  0  0  0  0  0  0  0  0  0  # atno 10167 bound_to 10162
  157.6958  131.0357  150.3523 H   0  0  0  0  0  0  0  0  0  0  0  0  # atno 10718 bound_to 10713
  153.8208  135.3116  155.3410 H   0  0  0  0  0  0  0  0  0  0  0  0  # atno 10763 bound_to 10752
  154.8013  135.4725  154.0286 H   0  0  0  0  0  0  0  0  0  0  0  0  # atno 10764 bound_to 10752
  153.1694  135.6875  153.8718 H   0  0  0  0  0  0  0  0  0  0  0  0  # atno 10765 bound_to 10752
  140.0107  134.6300  155.9785 H   0  0  0  0  0  0  0  0  0  0  0  0  # atno 11005 bound_to 11000
  145.4601  139.1514  143.3871 LP  0  0  0  0  0  0  0  0  0  0  0  0  # atno 17320 bound_to 7965
  146.2742  140.4731  142.8802 LP  0  0  0  0  0  0  0  0  0  0  0  0  # atno 17321 bound_to 7965
  140.4588  143.2457  151.9248 LP  0  0  0  0  0  0  0  0  0  0  0  0  # atno 17342 bound_to 10162
  139.4782  144.5489  151.8416 LP  0  0  0  0  0  0  0  0  0  0  0  0  # atno 17343 bound_to 10162
  156.3969  130.3908  149.6988 LP  0  0  0  0  0  0  0  0  0  0  0  0  # atno 17370 bound_to 10713
  156.4318  130.7819  151.2839 LP  0  0  0  0  0  0  0  0  0  0  0  0  # atno 17371 bound_to 10713
  141.1709  133.6537  156.4648 LP  0  0  0  0  0  0  0  0  0  0  0  0  # atno 17394 bound_to 11000
  140.4559  134.6886  157.5062 LP  0  0  0  0  0  0  0  0  0  0  0  0  # atno 17395 bound_to 11000

$$$$
