AV-unprocessed.smi:195|AV-procd|sdf|1524|dock5
  -GOLD-   2262019373D 1   1.00000     0.00000
 Structure written by MMmdl.
 45 48  0  0  0  0  0  0  0  0  1 V2000
  146.7157  136.9442  155.7669 N   0  0  0  0  0  0  0  0  0  0  0  0
  147.1354  137.9765  156.0781 C   0  0  0  0  0  0  0  0  0  0  0  0
  147.6696  139.2888  156.4753 C   0  0  0  0  0  0  0  0  0  0  0  0
  147.5179  140.3609  155.3923 C   0  0  0  0  0  0  0  0  0  0  0  0
  146.1262  140.4603  155.1744 O   0  0  0  0  0  0  0  0  0  0  0  0
  148.2366  141.6947  155.6160 C   0  0  0  0  0  0  0  0  0  0  0  0
  149.2654  141.2358  154.6860 N   0  0  0  0  0  0  0  0  0  0  0  0
  150.4581  140.7764  155.3286 C   0  0  0  0  0  0  0  0  0  0  0  0
  151.4721  140.2250  154.6080 N   0  0  0  0  0  0  0  0  0  0  0  0
  152.5912  139.7987  155.2001 C   0  0  0  0  0  0  0  0  0  0  0  0
  152.9136  139.8324  156.4930 N   0  0  0  0  0  0  0  0  0  0  0  0
  151.9175  140.4002  157.2293 C   0  0  0  0  0  0  0  0  0  0  0  0
  150.6794  140.8970  156.7311 C   0  0  0  0  0  0  0  0  0  0  0  0
  149.9262  141.4161  157.7776 N   0  0  0  0  0  0  0  0  0  0  0  0
  150.6711  141.2303  158.8325 C   0  0  0  0  0  0  0  0  0  0  0  0
  151.8756  140.6065  158.5973 N   0  0  0  0  0  0  0  0  0  0  0  0
  152.8929  140.2822  159.5832 C   0  0  0  0  0  0  0  0  0  0  0  0
  154.0829  141.2693  159.5975 C   0  0  2  0  0  0  0  0  0  0  0  0
  155.0202  140.7276  160.5062 O   0  0  0  0  0  0  0  0  0  0  0  0
  153.7536  142.7007  160.0818 C   0  0  2  0  0  0  0  0  0  0  0  0
  153.0550  142.8135  161.4388 C   0  0  0  0  0  0  0  0  0  0  0  0
  152.3312  144.1469  161.3635 C   0  0  0  0  0  0  0  0  0  0  0  0
  152.2573  144.4376  159.8637 C   0  0  0  0  0  0  0  0  0  0  0  0
  152.7639  143.2685  159.2352 O   0  0  0  0  0  0  0  0  0  0  0  0
  148.3653  140.2287  154.1225 C   0  0  0  0  0  0  0  0  0  0  0  0
  147.1743  139.5889  157.3992 H   0  0  0  0  0  0  0  0  0  0  0  0
  148.7188  139.1363  156.7274 H   0  0  0  0  0  0  0  0  0  0  0  0
  145.8454  139.6379  154.8028 H   0  0  0  0  0  0  0  0  0  0  0  0
  147.6909  142.5543  155.2243 H   0  0  0  0  0  0  0  0  0  0  0  0
  148.5637  141.8566  156.6437 H   0  0  0  0  0  0  0  0  0  0  0  0
  153.3335  139.3695  154.5432 H   0  0  0  0  0  0  0  0  0  0  0  0
  150.3565  141.5395  159.8188 H   0  0  0  0  0  0  0  0  0  0  0  0
  152.4347  140.2256  160.5713 H   0  0  0  0  0  0  0  0  0  0  0  0
  153.2465  139.2766  159.3504 H   0  0  0  0  0  0  0  0  0  0  0  0
  154.5496  141.3050  158.6125 H   0  0  0  0  0  0  0  0  0  0  0  0
  154.5810  140.5598  161.3260 H   0  0  0  0  0  0  0  0  0  0  0  0
  154.6467  143.3292  160.0770 H   0  0  0  0  0  0  0  0  0  0  0  0
  152.3242  142.0121  161.5561 H   0  0  0  0  0  0  0  0  0  0  0  0
  153.7488  142.7694  162.2777 H   0  0  0  0  0  0  0  0  0  0  0  0
  151.3427  144.0876  161.8202 H   0  0  0  0  0  0  0  0  0  0  0  0
  152.8930  144.9296  161.8749 H   0  0  0  0  0  0  0  0  0  0  0  0
  151.2418  144.6495  159.5281 H   0  0  0  0  0  0  0  0  0  0  0  0
  152.8874  145.2896  159.6048 H   0  0  0  0  0  0  0  0  0  0  0  0
  148.7774  139.2354  153.9455 H   0  0  0  0  0  0  0  0  0  0  0  0
  147.8590  140.6051  153.2325 H   0  0  0  0  0  0  0  0  0  0  0  0
  1  2  3  0  0  0  0
  2  3  1  0  0  0  0
  3  4  1  0  0  0  0
  3 26  1  0  0  0  0
  3 27  1  0  0  0  0
  4 25  1  0  0  0  0
  4  5  1  0  0  0  0
  4  6  1  0  0  0  0
  5 28  1  0  0  0  0
  6  7  1  0  0  0  0
  6 29  1  0  0  0  0
  6 30  1  0  0  0  0
  7  8  1  0  0  0  0
  7 25  1  0  0  0  0
  8 13  1  0  0  0  0
  8  9  2  0  0  0  0
  9 10  1  0  0  0  0
 10 11  2  0  0  0  0
 10 31  1  0  0  0  0
 11 12  1  0  0  0  0
 12 16  1  0  0  0  0
 12 13  2  0  0  0  0
 13 14  1  0  0  0  0
 14 15  2  0  0  0  0
 15 16  1  0  0  0  0
 15 32  1  0  0  0  0
 16 17  1  0  0  0  0
 17 18  1  0  0  0  0
 17 33  1  0  0  0  0
 17 34  1  0  0  0  0
 18 19  1  0  0  0  0
 18 20  1  0  0  0  0
 18 35  1  0  0  0  0
 19 36  1  0  0  0  0
 20 24  1  0  0  0  0
 20 21  1  0  0  0  0
 20 37  1  0  0  0  0
 21 22  1  0  0  0  0
 21 38  1  0  0  0  0
 21 39  1  0  0  0  0
 22 23  1  0  0  0  0
 22 40  1  0  0  0  0
 22 41  1  0  0  0  0
 23 24  1  0  0  0  0
 23 42  1  0  0  0  0
 23 43  1  0  0  0  0
 25 44  1  0  0  0  0
 25 45  1  0  0  0  0
M  END
> <s_m_source_file>
AV-unprocessed.smi

> <i_m_source_file_index>
195

> <i_lp_mmshare_version>
43012

> <i_f3d_flags>
0

> <s_epik_input>
TiNDW0NIMl1DMShbT0hdKVtDSDJdTihbQ0gyXTEpYyhuW2NIXW4yKWMoYzIzKW5bY0hdbjNbQ0gyXVtDQEhdKFtPSF0pW0NAQEhdNFtDSDJdW0NIMl1bQ0gyXU80

> <s_epik_cmdline>
J2VwaWtfcHl0aG9uJywgJy1waCcsICc3LjAnLCAnLXRuJywgJzgnLCAnLW1hJywgJzIwMCcsICctbWV0YWxfYmluZGluZycsICctaW1hZScsICc8aW5maWxlLm1hZT4nLCAnLW9tYWUnLCAnPG91dGZpbGUubWFlPic=

> <r_lp_tautomer_probability>
1

> <r_epik_Ionization_Penalty>
0.00307146

> <r_epik_Ionization_Penalty_Charging>
0

> <r_epik_Ionization_Penalty_Neutral>
0.00307146

> <r_epik_State_Penalty>
0.0020279

> <r_epik_Charging_Adjusted_Penalty>
0.0020279

> <i_epik_Tot_Q>
0

> <i_epik_Tot_abs_Q>
0

> <r_epik_Metal_State_Penalty>
-0

> <b_epik_Metal_Only>
0

> <s_lp_Force_Field>
OPLS_2005

> <r_lp_Energy>
46.5325

> <b_lp_Chiralities_Consistent>
1

> <s_lp_Variant>
AV-unprocessed.smi:195-1

> <Gold.Version>
5.8.1

> <Gold.Id.Protein>
6NUR|6NUR_protein|mol2

> <Gold.PLP.Fitness>
48.8397

> <Gold.PLP.PLP>
-44.0658

> <Gold.PLP.part.hbond>
-3.7681

> <Gold.PLP.part.metal>
0.0000

> <Gold.PLP.part.buried>
-2.8982

> <Gold.PLP.part.nonpolar>
-37.6232

> <Gold.PLP.part.repulsive>
0.4988

> <Gold.PLP.ligand.clash>
0.0000

> <Gold.PLP.ligand.torsion>
0.4344

> <Gold.PLP.Chemscore.Hbond>
1.7566

> <Gold.PLP.Chemscore.CHOScore>
0.0000

> <Gold.PLP.Chemscore.Metal>
0.0000

> <Gold.Chemscore.Hbonds>
donor molecule, donor type, donor heavy atom, donor atom, acceptor molecule, acceptor atom, score
      P1  H  7989  7998       L1     9  0.39
      P1  H  7997  8010       L1    11  0.80

> <Gold.PLP.Chemscore.Internal.Correction>
0.3728

> <Gold.Rescore>
     Score         DG    S(hbond)    S(metal)    S(lipo)     H(rot)  DE(clash)    DE(int)     intcor
      4.60      -7.22       0.32        0.00      87.24       3.72       0.43       2.19       ----

> <Gold.Chemscore.Fitness>
4.6022

> <Gold.Chemscore.DG>
-7.2236

> <Gold.Chemscore.ZeroCoef>
-5.4800

> <Gold.Chemscore.Hbond>
0.3181

> <Gold.Chemscore.Metal>
0.0000

> <Gold.Chemscore.Lipo>
87.2389

> <Gold.Chemscore.Internal_Hbond>
0.0000

> <Gold.Chemscore.DEClash>
0.4283

> <Gold.Chemscore.DEInternal>
2.1931

> <Gold.Chemscore.Rot>
3.7210

> <Gold.Chemscore.Internal.Correction>
   9.000000E+99

> <Gold.Chemscore.Hbonds>
donor molecule, donor type, donor heavy atom, donor atom, acceptor molecule, acceptor atom, score
      P1  H  7989  7998       L1     9  0.28
      P1  H  7997  8010       L1    11  0.27

> <Gold.Chemscore.Hbond.Weighted>
-1.0623

> <Gold.Chemscore.Metal.Weighted>
-0.0000

> <Gold.Chemscore.Lipo.Weighted>
-10.2070

> <Gold.Chemscore.Internal_Hbond.Weighted>
0.0000

> <Gold.Chemscore.DEClash.Weighted>
0.4283

> <Gold.Chemscore.DEInternal.Weighted>
2.1931

> <Gold.Chemscore.Rot.Weighted>
9.5256

> <Gold.Chemscore.Internal.Correction.Weighted>
   9.000000E+99

> <Gold.Protein.RotatedTorsions>
[ 6907 6896 6895 6894 ] final  -13.77 input  -60.11 | X-H torsion
[ 7974 7965 7964 7962 ] final -101.99 input  175.53 | X-H torsion
[ 8008 7997 7996 7995 ] final   70.59 input   59.86 | X-H torsion
[ 10167 10162 10161 10158 ] final    1.87 input  -65.29 | X-H torsion
[ 10718 10713 10712 10709 ] final   11.29 input   66.30 | X-H torsion
[ 10763 10752 10751 10750 ] final   66.34 input  -60.55 | X-H torsion
[ 11005 11000 10999 10996 ] final  165.15 input  -57.11 | X-H torsion

> <Gold.Protein.ActiveResidues>
 VAL166  LYS551  ARG553  GLY616  TRP617  ASP618  TYR619  PRO620  LYS621  CYS622 
 ASP623  PHE694  ASN695  SER759  ASP760  ASP761  ALA762  ILE779  LEU786  VAL792 
 PHE793  MET794  SER795  GLU796  ALA797  LYS798  CYS799  TRP800  GLU811  SER814 

> <Gold.Protein.RotatedAtoms>
  151.3498  135.0882  159.9398 H   0  0  0  0  0  0  0  0  0  0  0  0  # atno 6907 bound_to 6896
  152.5190  133.9364  159.7615 H   0  0  0  0  0  0  0  0  0  0  0  0  # atno 6908 bound_to 6896
  150.9737  133.6263  159.2763 H   0  0  0  0  0  0  0  0  0  0  0  0  # atno 6909 bound_to 6896
  145.2745  140.9308  143.2967 H   0  0  0  0  0  0  0  0  0  0  0  0  # atno 7974 bound_to 7965
  155.7410  140.3490  155.5104 H   0  0  0  0  0  0  0  0  0  0  0  0  # atno 8008 bound_to 7997
  155.9094  140.1048  157.1312 H   0  0  0  0  0  0  0  0  0  0  0  0  # atno 8009 bound_to 7997
  154.4054  140.1271  156.4524 H   0  0  0  0  0  0  0  0  0  0  0  0  # atno 8010 bound_to 7997
  140.6662  143.7172  150.7832 H   0  0  0  0  0  0  0  0  0  0  0  0  # atno 10167 bound_to 10162
  156.9935  130.6051  149.5688 H   0  0  0  0  0  0  0  0  0  0  0  0  # atno 10718 bound_to 10713
  153.0135  135.5324  154.6808 H   0  0  0  0  0  0  0  0  0  0  0  0  # atno 10763 bound_to 10752
  154.5968  135.2864  155.0580 H   0  0  0  0  0  0  0  0  0  0  0  0  # atno 10764 bound_to 10752
  154.1652  135.6541  153.5048 H   0  0  0  0  0  0  0  0  0  0  0  0  # atno 10765 bound_to 10752
  140.2532  134.7961  157.3521 H   0  0  0  0  0  0  0  0  0  0  0  0  # atno 11005 bound_to 11000
  144.9306  139.4303  143.6497 LP  0  0  0  0  0  0  0  0  0  0  0  0  # atno 17320 bound_to 7965
  146.3236  139.8215  142.8926 LP  0  0  0  0  0  0  0  0  0  0  0  0  # atno 17321 bound_to 7965
  140.0850  143.4932  152.2510 LP  0  0  0  0  0  0  0  0  0  0  0  0  # atno 17342 bound_to 10162
  139.5912  144.7551  151.3396 LP  0  0  0  0  0  0  0  0  0  0  0  0  # atno 17343 bound_to 10162
  156.0198  130.5293  150.8242 LP  0  0  0  0  0  0  0  0  0  0  0  0  # atno 17370 bound_to 10713
  157.5442  131.0942  150.9786 LP  0  0  0  0  0  0  0  0  0  0  0  0  # atno 17371 bound_to 10713
  140.1538  134.4816  155.7942 LP  0  0  0  0  0  0  0  0  0  0  0  0  # atno 17394 bound_to 11000
  141.2199  133.6873  156.7424 LP  0  0  0  0  0  0  0  0  0  0  0  0  # atno 17395 bound_to 11000

$$$$
