AV-unprocessed.smi:2196|AV-procd|sdf|8908|dock2
  -GOLD-   2272012123D 1   1.00000     0.00000
 Structure written by MMmdl.
 45 46  0  0  0  0  0  0  0  0  1 V2000
  148.0318  141.7717  155.1370 C   0  0  0  0  0  0  0  0  0  0  0  0
  148.2824  141.7668  156.6507 C   0  0  0  0  0  0  0  0  0  0  0  0
  149.5327  141.0986  157.0018 N   0  0  0  0  0  0  0  0  0  0  0  0
  150.7674  141.7815  156.6146 C   0  0  0  0  0  0  0  0  0  0  0  0
  151.3096  142.7205  157.6781 C   0  0  0  0  0  0  0  0  0  0  0  0
  151.5518  142.2433  158.9831 C   0  0  0  0  0  0  0  0  0  0  0  0
  152.0826  143.1037  159.9638 C   0  0  0  0  0  0  0  0  0  0  0  0
  152.3740  144.4434  159.6420 C   0  0  0  0  0  0  0  0  0  0  0  0
  152.1348  144.9226  158.3396 C   0  0  0  0  0  0  0  0  0  0  0  0
  151.6035  144.0628  157.3588 C   0  0  0  0  0  0  0  0  0  0  0  0
  149.5422  139.8295  157.5816 C   0  0  0  0  0  0  0  0  0  0  0  0
  148.4138  139.0988  157.8220 C   0  0  0  0  0  0  0  0  0  0  0  0
  147.1681  139.6280  157.5229 N   0  0  0  0  0  0  0  0  0  0  0  0
  148.4676  137.8115  158.3640 N   0  0  0  0  0  0  0  0  0  0  0  0
  147.2964  136.9946  158.6097 C   0  0  0  0  0  0  0  0  0  0  0  0
  147.2820  136.4021  160.0262 C   0  0  0  0  0  0  0  0  0  0  0  0
  147.1180  137.4553  160.9601 O   0  0  0  0  0  0  0  0  0  0  0  0
  146.7011  136.9910  162.2321 C   0  0  0  0  0  0  0  0  0  0  0  0
  149.7183  137.2115  158.6426 C   0  0  0  0  0  0  0  0  0  0  0  0
  149.8427  136.0657  159.0763 O   0  0  0  0  0  0  0  0  0  0  0  0
  150.8536  137.9755  158.4004 N   0  0  0  0  0  0  0  0  0  0  0  0
  150.8653  139.2693  157.8861 C   0  0  0  0  0  0  0  0  0  0  0  0
  151.9433  139.8367  157.7109 O   0  0  0  0  0  0  0  0  0  0  0  0
  151.7471  137.5524  158.6044 H   0  0  0  0  0  0  0  0  0  0  0  0
  147.0819  142.2534  154.9048 H   0  0  0  0  0  0  0  0  0  0  0  0
  147.9940  140.7560  154.7426 H   0  0  0  0  0  0  0  0  0  0  0  0
  148.8140  142.3111  154.6024 H   0  0  0  0  0  0  0  0  0  0  0  0
  148.2990  142.7882  157.0327 H   0  0  0  0  0  0  0  0  0  0  0  0
  147.4459  141.2729  157.1472 H   0  0  0  0  0  0  0  0  0  0  0  0
  151.5242  141.0421  156.3525 H   0  0  0  0  0  0  0  0  0  0  0  0
  150.6026  142.3687  155.7101 H   0  0  0  0  0  0  0  0  0  0  0  0
  151.3397  141.2134  159.2308 H   0  0  0  0  0  0  0  0  0  0  0  0
  152.2700  142.7346  160.9613 H   0  0  0  0  0  0  0  0  0  0  0  0
  152.7834  145.1022  160.3933 H   0  0  0  0  0  0  0  0  0  0  0  0
  152.3619  145.9488  158.0917 H   0  0  0  0  0  0  0  0  0  0  0  0
  151.4318  144.4339  156.3590 H   0  0  0  0  0  0  0  0  0  0  0  0
  147.0686  140.5515  157.1267 H   0  0  0  0  0  0  0  0  0  0  0  0
  146.3126  139.1432  157.7531 H   0  0  0  0  0  0  0  0  0  0  0  0
  146.4089  137.5966  158.4067 H   0  0  0  0  0  0  0  0  0  0  0  0
  147.2866  136.2133  157.8504 H   0  0  0  0  0  0  0  0  0  0  0  0
  146.4647  135.6858  160.1254 H   0  0  0  0  0  0  0  0  0  0  0  0
  148.2132  135.8690  160.2248 H   0  0  0  0  0  0  0  0  0  0  0  0
  146.5901  137.8354  162.9122 H   0  0  0  0  0  0  0  0  0  0  0  0
  147.4341  136.3071  162.6619 H   0  0  0  0  0  0  0  0  0  0  0  0
  145.7394  136.4800  162.1695 H   0  0  0  0  0  0  0  0  0  0  0  0
  1  2  1  0  0  0  0
  1 25  1  0  0  0  0
  1 26  1  0  0  0  0
  1 27  1  0  0  0  0
  2  3  1  0  0  0  0
  2 28  1  0  0  0  0
  2 29  1  0  0  0  0
  3  4  1  0  0  0  0
  3 11  1  0  0  0  0
  4  5  1  0  0  0  0
  4 30  1  0  0  0  0
  4 31  1  0  0  0  0
  5 10  1  0  0  0  0
  5  6  2  0  0  0  0
  6  7  1  0  0  0  0
  6 32  1  0  0  0  0
  7  8  2  0  0  0  0
  7 33  1  0  0  0  0
  8  9  1  0  0  0  0
  8 34  1  0  0  0  0
  9 10  2  0  0  0  0
  9 35  1  0  0  0  0
 10 36  1  0  0  0  0
 11 22  1  0  0  0  0
 11 12  2  0  0  0  0
 12 13  1  0  0  0  0
 12 14  1  0  0  0  0
 13 37  1  0  0  0  0
 13 38  1  0  0  0  0
 14 15  1  0  0  0  0
 14 19  1  0  0  0  0
 15 16  1  0  0  0  0
 15 39  1  0  0  0  0
 15 40  1  0  0  0  0
 16 17  1  0  0  0  0
 16 41  1  0  0  0  0
 16 42  1  0  0  0  0
 17 18  1  0  0  0  0
 18 43  1  0  0  0  0
 18 44  1  0  0  0  0
 18 45  1  0  0  0  0
 19 20  2  0  0  0  0
 19 21  1  0  0  0  0
 21 24  1  0  0  0  0
 21 22  1  0  0  0  0
 22 23  2  0  0  0  0
M  END
> <s_m_source_file>
AV-unprocessed.smi

> <i_m_source_file_index>
2196

> <i_lp_mmshare_version>
43012

> <i_f3d_flags>
0

> <s_epik_input>
W0NIM11PW0NIMl1bQ0gyXW4oYyg9TylbbkhdYzE9TyljKFtOSDJdKWMxTihbQ0gyXVtDSDNdKVtDSDJdYzJbY0hdW2NIXVtjSF1bY0hdW2NIXTI=

> <s_epik_cmdline>
J2VwaWtfcHl0aG9uJywgJy1waCcsICc3LjAnLCAnLXRuJywgJzgnLCAnLW1hJywgJzIwMCcsICctbWV0YWxfYmluZGluZycsICctaW1hZScsICc8aW5maWxlLm1hZT4nLCAnLW9tYWUnLCAnPG91dGZpbGUubWFlPic=

> <r_lp_tautomer_probability>
1

> <r_epik_Ionization_Penalty>
0.000571321

> <r_epik_Ionization_Penalty_Charging>
3.00664e-06

> <r_epik_Ionization_Penalty_Neutral>
0.000568314

> <r_epik_State_Penalty>
-0

> <r_epik_Charging_Adjusted_Penalty>
3.00664e-06

> <i_epik_Tot_Q>
0

> <i_epik_Tot_abs_Q>
0

> <r_epik_Metal_State_Penalty>
-0

> <b_epik_Metal_Only>
0

> <s_lp_Force_Field>
OPLS_2005

> <r_lp_Energy>
20.6449

> <b_lp_Chiralities_Consistent>
1

> <s_lp_Variant>
AV-unprocessed.smi:2196-1

> <Gold.Version>
5.8.1

> <Gold.Id.Protein>
6NUR|6NUR_protein|mol2

> <Gold.PLP.Fitness>
47.0850

> <Gold.PLP.PLP>
-41.0778

> <Gold.PLP.part.hbond>
-2.7907

> <Gold.PLP.part.metal>
0.0000

> <Gold.PLP.part.buried>
-4.6918

> <Gold.PLP.part.nonpolar>
-34.1233

> <Gold.PLP.part.repulsive>
0.2003

> <Gold.PLP.ligand.clash>
21.3695

> <Gold.PLP.ligand.torsion>
0.7092

> <Gold.PLP.Chemscore.Hbond>
2.4238

> <Gold.PLP.Chemscore.CHOScore>
0.0000

> <Gold.PLP.Chemscore.Metal>
0.0000

> <Gold.Chemscore.Hbonds>
donor molecule, donor type, donor heavy atom, donor atom, acceptor molecule, acceptor atom, score
      P1  H  6896  6908       L1    20  1.00
      P1  H  6931  6943       L1    17  0.13
      P1  H  6934  6947       L1    17  1.00

> <Gold.PLP.Chemscore.Internal.Correction>
21.5237

> <Gold.Rescore>
     Score         DG    S(hbond)    S(metal)    S(lipo)     H(rot)  DE(clash)    DE(int)     intcor
     10.75     -18.94       1.94        0.00     104.80       2.06       0.04       8.15       ----

> <Gold.Chemscore.Fitness>
10.7520

> <Gold.Chemscore.DG>
-18.9407

> <Gold.Chemscore.ZeroCoef>
-5.4800

> <Gold.Chemscore.Hbond>
1.9355

> <Gold.Chemscore.Metal>
0.0000

> <Gold.Chemscore.Lipo>
104.8042

> <Gold.Chemscore.Internal_Hbond>
0.0000

> <Gold.Chemscore.DEClash>
0.0376

> <Gold.Chemscore.DEInternal>
8.1510

> <Gold.Chemscore.Rot>
2.0571

> <Gold.Chemscore.Internal.Correction>
   9.000000E+99

> <Gold.Chemscore.Hbonds>
donor molecule, donor type, donor heavy atom, donor atom, acceptor molecule, acceptor atom, score
      P1  H  6896  6908       L1    20  0.97
      P1  H  6931  6943       L1    17  0.01
      P1  H  6934  6947       L1    17  0.76

> <Gold.Chemscore.Hbond.Weighted>
-6.4647

> <Gold.Chemscore.Metal.Weighted>
-0.0000

> <Gold.Chemscore.Lipo.Weighted>
-12.2621

> <Gold.Chemscore.Internal_Hbond.Weighted>
0.0000

> <Gold.Chemscore.DEClash.Weighted>
0.0376

> <Gold.Chemscore.DEInternal.Weighted>
8.1510

> <Gold.Chemscore.Rot.Weighted>
5.2661

> <Gold.Chemscore.Internal.Correction.Weighted>
   9.000000E+99

> <Gold.Protein.RotatedTorsions>
[ 6907 6896 6895 6894 ] final -152.58 input  -60.11 | X-H torsion
[ 7974 7965 7964 7962 ] final   74.63 input  175.53 | X-H torsion
[ 8008 7997 7996 7995 ] final  -70.42 input   59.86 | X-H torsion
[ 10167 10162 10161 10158 ] final -140.53 input  -65.29 | X-H torsion
[ 10718 10713 10712 10709 ] final  -66.83 input   66.30 | X-H torsion
[ 10763 10752 10751 10750 ] final   72.85 input  -60.55 | X-H torsion
[ 11005 11000 10999 10996 ] final  -98.64 input  -57.11 | X-H torsion

> <Gold.Protein.ActiveResidues>
 VAL166  LYS551  ARG553  GLY616  TRP617  ASP618  TYR619  PRO620  LYS621  CYS622 
 ASP623  PHE694  ASN695  SER759  ASP760  ASP761  ALA762  ILE779  LEU786  VAL792 
 PHE793  MET794  SER795  GLU796  ALA797  LYS798  CYS799  TRP800  GLU811  SER814 

> <Gold.Protein.RotatedAtoms>
  151.2298  133.4456  159.2603 H   0  0  0  0  0  0  0  0  0  0  0  0  # atno 6907 bound_to 6896
  151.0805  134.9855  159.8364 H   0  0  0  0  0  0  0  0  0  0  0  0  # atno 6908 bound_to 6896
  152.5423  134.2238  159.8851 H   0  0  0  0  0  0  0  0  0  0  0  0  # atno 6909 bound_to 6896
  145.7259  139.2665  143.1569 H   0  0  0  0  0  0  0  0  0  0  0  0  # atno 7974 bound_to 7965
  154.5011  140.0834  156.7799 H   0  0  0  0  0  0  0  0  0  0  0  0  # atno 8008 bound_to 7997
  155.4001  140.3436  155.4238 H   0  0  0  0  0  0  0  0  0  0  0  0  # atno 8009 bound_to 7997
  156.1457  140.1543  156.8838 H   0  0  0  0  0  0  0  0  0  0  0  0  # atno 8010 bound_to 7997
  139.8273  143.7494  152.2666 H   0  0  0  0  0  0  0  0  0  0  0  0  # atno 10167 bound_to 10162
  156.0590  130.4268  150.1766 H   0  0  0  0  0  0  0  0  0  0  0  0  # atno 10718 bound_to 10713
  153.0485  135.5084  154.7806 H   0  0  0  0  0  0  0  0  0  0  0  0  # atno 10763 bound_to 10752
  154.6687  135.2949  154.9772 H   0  0  0  0  0  0  0  0  0  0  0  0  # atno 10764 bound_to 10752
  154.0598  135.6692  153.4863 H   0  0  0  0  0  0  0  0  0  0  0  0  # atno 10765 bound_to 10752
  141.1337  133.8261  157.0866 H   0  0  0  0  0  0  0  0  0  0  0  0  # atno 11005 bound_to 11000
  146.0583  140.7998  142.9747 LP  0  0  0  0  0  0  0  0  0  0  0  0  # atno 17320 bound_to 7965
  144.6905  140.3157  143.7240 LP  0  0  0  0  0  0  0  0  0  0  0  0  # atno 17321 bound_to 7965
  139.7691  144.7482  151.0251 LP  0  0  0  0  0  0  0  0  0  0  0  0  # atno 17342 bound_to 10162
  140.7809  143.4665  151.0205 LP  0  0  0  0  0  0  0  0  0  0  0  0  # atno 17343 bound_to 10162
  156.9838  130.9872  151.3431 LP  0  0  0  0  0  0  0  0  0  0  0  0  # atno 17370 bound_to 10713
  157.5584  130.8229  149.8234 LP  0  0  0  0  0  0  0  0  0  0  0  0  # atno 17371 bound_to 10713
  140.0418  134.9850  157.0976 LP  0  0  0  0  0  0  0  0  0  0  0  0  # atno 17394 bound_to 11000
  140.4123  134.1968  155.7163 LP  0  0  0  0  0  0  0  0  0  0  0  0  # atno 17395 bound_to 11000

$$$$
