AV-unprocessed.smi:190|AV-procd|sdf|1491|dock5
  -GOLD-   2262019313D 1   1.00000     0.00000
 Structure written by MMmdl.
 54 58  0  0  0  0  0  0  0  0  1 V2000
  149.1880  141.0615  153.4969 O   0  0  0  0  0  0  0  0  0  0  0  0
  149.5179  141.3063  154.8500 C   0  0  0  0  0  0  0  0  0  0  0  0
  149.6598  139.9941  155.6730 C   0  0  0  0  0  0  0  0  0  0  0  0
  148.2464  139.3386  155.7569 C   0  0  0  0  0  0  0  0  0  0  0  0
  147.9622  138.6026  156.9809 N   0  0  0  0  0  0  0  0  0  0  0  0
  147.0600  138.9453  157.9606 C   0  0  0  0  0  0  0  0  0  0  0  0
  146.9991  138.1221  158.9704 N   0  0  0  0  0  0  0  0  0  0  0  0
  147.9399  137.1387  158.6794 C   0  0  0  0  0  0  0  0  0  0  0  0
  148.3946  135.9560  159.3415 C   0  0  0  0  0  0  0  0  0  0  0  0
  147.9091  135.5140  160.5397 N   0  0  0  0  0  0  0  0  0  0  0  0
  147.3992  136.4756  161.5121 C   0  0  0  0  0  0  0  0  0  0  0  0
  146.6169  135.6694  162.5533 C   0  0  0  0  0  0  0  0  0  0  0  0
  147.0466  134.2256  162.2992 C   0  0  0  0  0  0  0  0  0  0  0  0
  147.3153  134.1915  160.7857 C   0  0  1  0  0  0  0  0  0  0  0  0
  146.0113  133.9506  160.0088 C   0  0  0  0  0  0  0  0  0  0  0  0
  146.0888  132.4686  159.6630 C   0  0  0  0  0  0  0  0  0  0  0  0
  147.4685  132.2776  159.4020 O   0  0  0  0  0  0  0  0  0  0  0  0
  148.1989  132.9831  160.3973 C   0  0  0  0  0  0  0  0  0  0  0  0
  149.3808  135.2550  158.7213 N   0  0  0  0  0  0  0  0  0  0  0  0
  149.8819  135.6550  157.5508 C   0  0  0  0  0  0  0  0  0  0  0  0
  149.5493  136.7215  156.8252 N   0  0  0  0  0  0  0  0  0  0  0  0
  148.5648  137.4413  157.4338 C   0  0  0  0  0  0  0  0  0  0  0  0
  150.6888  139.0309  155.0257 C   0  0  0  0  0  0  0  0  0  0  0  0
  152.1301  139.5675  155.0989 C   0  0  0  0  0  0  0  0  0  0  0  0
  152.4867  139.8130  156.4537 O   0  0  0  0  0  0  0  0  0  0  0  0
  151.6684  140.7955  157.0765 C   0  0  0  0  0  0  0  0  0  0  0  0
  150.2008  140.3276  157.0886 C   0  0  0  0  0  0  0  0  0  0  0  0
  149.7128  140.3397  153.1853 H   0  0  0  0  0  0  0  0  0  0  0  0
  150.4300  141.9000  154.8596 H   0  0  0  0  0  0  0  0  0  0  0  0
  148.7408  141.9394  155.2797 H   0  0  0  0  0  0  0  0  0  0  0  0
  147.4773  140.1043  155.6474 H   0  0  0  0  0  0  0  0  0  0  0  0
  148.0988  138.6512  154.9231 H   0  0  0  0  0  0  0  0  0  0  0  0
  146.4411  139.8288  157.9006 H   0  0  0  0  0  0  0  0  0  0  0  0
  148.2401  136.9766  161.9925 H   0  0  0  0  0  0  0  0  0  0  0  0
  146.7694  137.2318  161.0418 H   0  0  0  0  0  0  0  0  0  0  0  0
  146.8170  135.9942  163.5746 H   0  0  0  0  0  0  0  0  0  0  0  0
  145.5466  135.7766  162.3737 H   0  0  0  0  0  0  0  0  0  0  0  0
  147.9685  134.0290  162.8495 H   0  0  0  0  0  0  0  0  0  0  0  0
  146.3051  133.4963  162.6275 H   0  0  0  0  0  0  0  0  0  0  0  0
  145.1092  134.1959  160.5699 H   0  0  0  0  0  0  0  0  0  0  0  0
  145.9758  134.5295  159.0866 H   0  0  0  0  0  0  0  0  0  0  0  0
  145.7847  131.8510  160.5094 H   0  0  0  0  0  0  0  0  0  0  0  0
  145.4750  132.2042  158.8020 H   0  0  0  0  0  0  0  0  0  0  0  0
  149.1902  133.2580  160.0367 H   0  0  0  0  0  0  0  0  0  0  0  0
  148.3440  132.3130  161.2459 H   0  0  0  0  0  0  0  0  0  0  0  0
  150.6602  135.0301  157.1380 H   0  0  0  0  0  0  0  0  0  0  0  0
  150.6765  138.0716  155.5412 H   0  0  0  0  0  0  0  0  0  0  0  0
  150.4223  138.8168  153.9903 H   0  0  0  0  0  0  0  0  0  0  0  0
  152.8194  138.8293  154.6888 H   0  0  0  0  0  0  0  0  0  0  0  0
  152.2556  140.4722  154.5036 H   0  0  0  0  0  0  0  0  0  0  0  0
  152.0181  140.9361  158.0995 H   0  0  0  0  0  0  0  0  0  0  0  0
  151.7855  141.7579  156.5782 H   0  0  0  0  0  0  0  0  0  0  0  0
  149.5722  141.0777  157.5698 H   0  0  0  0  0  0  0  0  0  0  0  0
  150.1606  139.4447  157.7255 H   0  0  0  0  0  0  0  0  0  0  0  0
  1  2  1  0  0  0  0
  1 28  1  0  0  0  0
  2  3  1  0  0  0  0
  2 29  1  0  0  0  0
  2 30  1  0  0  0  0
  3 27  1  0  0  0  0
  3  4  1  0  0  0  0
  3 23  1  0  0  0  0
  4  5  1  0  0  0  0
  4 31  1  0  0  0  0
  4 32  1  0  0  0  0
  5 22  1  0  0  0  0
  5  6  1  0  0  0  0
  6  7  2  0  0  0  0
  6 33  1  0  0  0  0
  7  8  1  0  0  0  0
  8 22  2  0  0  0  0
  8  9  1  0  0  0  0
  9 10  1  0  0  0  0
  9 19  2  0  0  0  0
 10 14  1  0  0  0  0
 10 11  1  0  0  0  0
 11 12  1  0  0  0  0
 11 34  1  0  0  0  0
 11 35  1  0  0  0  0
 12 13  1  0  0  0  0
 12 36  1  0  0  0  0
 12 37  1  0  0  0  0
 13 14  1  0  0  0  0
 13 38  1  0  0  0  0
 13 39  1  0  0  0  0
 14 18  1  0  0  0  0
 14 15  1  0  0  0  0
 15 16  1  0  0  0  0
 15 40  1  0  0  0  0
 15 41  1  0  0  0  0
 16 17  1  0  0  0  0
 16 42  1  0  0  0  0
 16 43  1  0  0  0  0
 17 18  1  0  0  0  0
 18 44  1  0  0  0  0
 18 45  1  0  0  0  0
 19 20  1  0  0  0  0
 20 21  2  0  0  0  0
 20 46  1  0  0  0  0
 21 22  1  0  0  0  0
 23 24  1  0  0  0  0
 23 47  1  0  0  0  0
 23 48  1  0  0  0  0
 24 25  1  0  0  0  0
 24 49  1  0  0  0  0
 24 50  1  0  0  0  0
 25 26  1  0  0  0  0
 26 27  1  0  0  0  0
 26 51  1  0  0  0  0
 26 52  1  0  0  0  0
 27 53  1  0  0  0  0
 27 54  1  0  0  0  0
M  END
> <s_m_source_file>
AV-unprocessed.smi

> <i_m_source_file_index>
190

> <i_lp_mmshare_version>
43012

> <i_f3d_flags>
0

> <s_epik_input>
W0NIMl0xW0NIMl1PW0NIMl1bQ0gyXUMxKFtDSDJdW09IXSlbQ0gyXW4oW2NIXW4yKWMoYzIzKW5bY0hdbmMzTihbQ0gyXVtDSDJdW0NIMl00KVtDQF00NVtDSDJdW0NIMl1PW0NIMl01

> <s_epik_cmdline>
J2VwaWtfcHl0aG9uJywgJy1waCcsICc3LjAnLCAnLXRuJywgJzgnLCAnLW1hJywgJzIwMCcsICctbWV0YWxfYmluZGluZycsICctaW1hZScsICc8aW5maWxlLm1hZT4nLCAnLW9tYWUnLCAnPG91dGZpbGUubWFlPic=

> <r_lp_tautomer_probability>
1

> <r_epik_Ionization_Penalty>
0.00423054

> <r_epik_Ionization_Penalty_Charging>
0

> <r_epik_Ionization_Penalty_Neutral>
0.00423054

> <r_epik_State_Penalty>
0.00298851

> <r_epik_Charging_Adjusted_Penalty>
0.00298851

> <i_epik_Tot_Q>
0

> <i_epik_Tot_abs_Q>
0

> <r_epik_Metal_State_Penalty>
-0

> <b_epik_Metal_Only>
0

> <s_lp_Force_Field>
OPLS_2005

> <r_lp_Energy>
66.7697

> <b_lp_Chiralities_Consistent>
1

> <s_lp_Variant>
AV-unprocessed.smi:190-1

> <Gold.Version>
5.8.1

> <Gold.Id.Protein>
6NUR|6NUR_protein|mol2

> <Gold.PLP.Fitness>
45.9959

> <Gold.PLP.PLP>
-37.1677

> <Gold.PLP.part.hbond>
-6.0000

> <Gold.PLP.part.metal>
0.0000

> <Gold.PLP.part.buried>
-2.6113

> <Gold.PLP.part.nonpolar>
-29.0429

> <Gold.PLP.part.repulsive>
0.0017

> <Gold.PLP.ligand.clash>
0.0000

> <Gold.PLP.ligand.torsion>
1.4183

> <Gold.PLP.Chemscore.Hbond>
3.8279

> <Gold.PLP.Chemscore.CHOScore>
0.0000

> <Gold.PLP.Chemscore.Metal>
0.0000

> <Gold.Chemscore.Hbonds>
donor molecule, donor type, donor heavy atom, donor atom, acceptor molecule, acceptor atom, score
      L1  H     1    28       P1  7957  0.28
      P1  H  6896  6907       L1    19  0.91
      P1  H  6934  6947       L1     7  0.37
      P1  H  7997  8010       L1    25  1.00
      P1  H  8011  8017       L1     1  0.95

> <Gold.PLP.Chemscore.Internal.Correction>
0.1809

> <Gold.Rescore>
     Score         DG    S(hbond)    S(metal)    S(lipo)     H(rot)  DE(clash)    DE(int)     intcor
     14.77     -18.69       2.57        0.00      85.43       2.10       0.72       3.20       ----

> <Gold.Chemscore.Fitness>
14.7705

> <Gold.Chemscore.DG>
-18.6920

> <Gold.Chemscore.ZeroCoef>
-5.4800

> <Gold.Chemscore.Hbond>
2.5708

> <Gold.Chemscore.Metal>
0.0000

> <Gold.Chemscore.Lipo>
85.4342

> <Gold.Chemscore.Internal_Hbond>
0.0000

> <Gold.Chemscore.DEClash>
0.7236

> <Gold.Chemscore.DEInternal>
3.1980

> <Gold.Chemscore.Rot>
2.0978

> <Gold.Chemscore.Internal.Correction>
   9.000000E+99

> <Gold.Chemscore.Hbonds>
donor molecule, donor type, donor heavy atom, donor atom, acceptor molecule, acceptor atom, score
      L1  H     1    28       P1  7957  0.26
      P1  H  6896  6907       L1    19  0.39
      P1  H  6934  6947       L1     7  0.29
      P1  H  7997  8010       L1    25  0.69
      P1  H  8011  8017       L1     1  0.18

> <Gold.Chemscore.Hbond.Weighted>
-8.5866

> <Gold.Chemscore.Metal.Weighted>
-0.0000

> <Gold.Chemscore.Lipo.Weighted>
-9.9958

> <Gold.Chemscore.Internal_Hbond.Weighted>
0.0000

> <Gold.Chemscore.DEClash.Weighted>
0.7236

> <Gold.Chemscore.DEInternal.Weighted>
3.1980

> <Gold.Chemscore.Rot.Weighted>
5.3703

> <Gold.Chemscore.Internal.Correction.Weighted>
   9.000000E+99

> <Gold.Protein.RotatedTorsions>
[ 6907 6896 6895 6894 ] final  -96.94 input  -60.11 | X-H torsion
[ 7974 7965 7964 7962 ] final -164.07 input  175.53 | X-H torsion
[ 8008 7997 7996 7995 ] final   59.05 input   59.86 | X-H torsion
[ 10167 10162 10161 10158 ] final  -36.09 input  -65.29 | X-H torsion
[ 10718 10713 10712 10709 ] final -177.15 input   66.30 | X-H torsion
[ 10763 10752 10751 10750 ] final  -18.73 input  -60.55 | X-H torsion
[ 11005 11000 10999 10996 ] final  -71.23 input  -57.11 | X-H torsion

> <Gold.Protein.ActiveResidues>
 VAL166  LYS551  ARG553  GLY616  TRP617  ASP618  TYR619  PRO620  LYS621  CYS622 
 ASP623  PHE694  ASN695  SER759  ASP760  ASP761  ALA762  ILE779  LEU786  VAL792 
 PHE793  MET794  SER795  GLU796  ALA797  LYS798  CYS799  TRP800  GLU811  SER814 

> <Gold.Protein.RotatedAtoms>
  150.7002  134.1425  159.4110 H   0  0  0  0  0  0  0  0  0  0  0  0  # atno 6907 bound_to 6896
  151.9409  135.0211  160.0545 H   0  0  0  0  0  0  0  0  0  0  0  0  # atno 6908 bound_to 6896
  152.2094  133.4865  159.5138 H   0  0  0  0  0  0  0  0  0  0  0  0  # atno 6909 bound_to 6896
  144.7307  140.3014  143.6204 H   0  0  0  0  0  0  0  0  0  0  0  0  # atno 7974 bound_to 7965
  155.5599  140.3488  155.4489 H   0  0  0  0  0  0  0  0  0  0  0  0  # atno 8008 bound_to 7997
  156.0522  140.1320  157.0063 H   0  0  0  0  0  0  0  0  0  0  0  0  # atno 8009 bound_to 7997
  154.4439  140.1002  156.6377 H   0  0  0  0  0  0  0  0  0  0  0  0  # atno 8010 bound_to 7997
  140.7150  143.3432  151.2312 H   0  0  0  0  0  0  0  0  0  0  0  0  # atno 10167 bound_to 10162
  156.8252  130.9634  151.3109 H   0  0  0  0  0  0  0  0  0  0  0  0  # atno 10718 bound_to 10713
  153.5938  135.7001  153.5412 H   0  0  0  0  0  0  0  0  0  0  0  0  # atno 10763 bound_to 10752
  153.3155  135.4089  155.1372 H   0  0  0  0  0  0  0  0  0  0  0  0  # atno 10764 bound_to 10752
  154.8595  135.3683  154.5471 H   0  0  0  0  0  0  0  0  0  0  0  0  # atno 10765 bound_to 10752
  141.1588  133.6811  156.6874 H   0  0  0  0  0  0  0  0  0  0  0  0  # atno 11005 bound_to 11000
  145.7756  139.1873  143.2187 LP  0  0  0  0  0  0  0  0  0  0  0  0  # atno 17320 bound_to 7965
  146.0875  140.7694  142.9611 LP  0  0  0  0  0  0  0  0  0  0  0  0  # atno 17321 bound_to 7965
  139.6945  143.9636  152.2876 LP  0  0  0  0  0  0  0  0  0  0  0  0  # atno 17342 bound_to 10162
  139.9308  144.6742  150.8364 LP  0  0  0  0  0  0  0  0  0  0  0  0  # atno 17343 bound_to 10162
  157.6436  130.8826  149.9495 LP  0  0  0  0  0  0  0  0  0  0  0  0  # atno 17370 bound_to 10713
  156.0966  130.3659  150.0296 LP  0  0  0  0  0  0  0  0  0  0  0  0  # atno 17371 bound_to 10713
  140.3056  134.8128  157.4134 LP  0  0  0  0  0  0  0  0  0  0  0  0  # atno 17394 bound_to 11000
  140.1223  134.5203  155.8173 LP  0  0  0  0  0  0  0  0  0  0  0  0  # atno 17395 bound_to 11000

$$$$
