AV-unprocessed.smi:228|AV-procd|sdf|1745|dock8
  -GOLD-   2262020263D 1   1.00000     0.00000
 Structure written by MMmdl.
 59 62  0  0  0  0  0  0  0  0  1 V2000
  151.1753  133.7176  156.6765 C   0  0  0  0  0  0  0  0  0  0  0  0
  149.8312  133.9183  156.1429 N   0  0  0  0  0  0  0  0  0  0  0  0
  149.2941  135.2772  156.1320 C   0  0  0  0  0  0  0  0  0  0  0  0
  148.8416  135.7456  157.5342 C   0  0  2  0  0  0  0  0  0  0  0  0
  150.0122  136.0253  158.2759 O   0  0  0  0  0  0  0  0  0  0  0  0
  148.0426  134.6582  158.2881 C   0  0  0  0  0  0  0  0  0  0  0  0
  147.9962  134.8054  159.7441 N   0  0  0  0  0  0  0  0  0  0  0  0
  147.2330  133.7439  160.3968 C   0  0  0  0  0  0  0  0  0  0  0  0
  147.1669  133.9364  161.9223 C   0  0  0  0  0  0  0  0  0  0  0  0
  146.6192  135.2159  162.2224 O   0  0  0  0  0  0  0  0  0  0  0  0
  147.3670  136.2804  161.6442 C   0  0  0  0  0  0  0  0  0  0  0  0
  147.4266  136.0960  160.1182 C   0  0  0  0  0  0  0  0  0  0  0  0
  149.3532  133.0329  155.2290 C   0  0  0  0  0  0  0  0  0  0  0  0
  149.8977  131.7884  155.1661 N   0  0  0  0  0  0  0  0  0  0  0  0
  149.4652  130.9033  154.2643 C   0  0  0  0  0  0  0  0  0  0  0  0
  148.5070  131.0475  153.3484 N   0  0  0  0  0  0  0  0  0  0  0  0
  147.9353  132.2835  153.4181 C   0  0  0  0  0  0  0  0  0  0  0  0
  148.2980  133.3283  154.3163 C   0  0  0  0  0  0  0  0  0  0  0  0
  147.4987  134.4410  154.0848 N   0  0  0  0  0  0  0  0  0  0  0  0
  146.7295  134.0849  153.0933 C   0  0  0  0  0  0  0  0  0  0  0  0
  146.8982  132.7909  152.6518 N   0  0  0  0  0  0  0  0  0  0  0  0
  146.2174  132.1503  151.5574 C   0  0  0  0  0  0  0  0  0  0  0  0
  146.2340  132.7502  150.1446 C   0  0  0  0  0  0  0  0  0  0  0  0
  144.8031  133.2934  150.3480 C   0  0  0  0  0  0  0  0  0  0  0  0
  144.7570  134.7604  150.8260 C   0  0  0  0  0  0  0  0  0  0  0  0
  144.9035  135.6786  149.7624 O   0  0  0  0  0  0  0  0  0  0  0  0
  143.8810  133.1275  149.1268 C   0  0  0  0  0  0  0  0  0  0  0  0
  142.9711  132.0591  149.2893 O   0  0  0  0  0  0  0  0  0  0  0  0
  144.6894  132.2121  151.4445 C   0  0  0  0  0  0  0  0  0  0  0  0
  151.3134  132.6866  157.0045 H   0  0  0  0  0  0  0  0  0  0  0  0
  151.3511  134.3661  157.5351 H   0  0  0  0  0  0  0  0  0  0  0  0
  151.9277  133.9475  155.9215 H   0  0  0  0  0  0  0  0  0  0  0  0
  150.0980  135.9175  155.7683 H   0  0  0  0  0  0  0  0  0  0  0  0
  148.5004  135.4012  155.3945 H   0  0  0  0  0  0  0  0  0  0  0  0
  148.2440  136.6552  157.4563 H   0  0  0  0  0  0  0  0  0  0  0  0
  150.7474  136.0314  157.6816 H   0  0  0  0  0  0  0  0  0  0  0  0
  147.0120  134.7046  157.9344 H   0  0  0  0  0  0  0  0  0  0  0  0
  148.3967  133.6630  158.0134 H   0  0  0  0  0  0  0  0  0  0  0  0
  146.2205  133.7130  159.9917 H   0  0  0  0  0  0  0  0  0  0  0  0
  147.6838  132.7738  160.1897 H   0  0  0  0  0  0  0  0  0  0  0  0
  146.5425  133.1663  162.3751 H   0  0  0  0  0  0  0  0  0  0  0  0
  148.1596  133.8457  162.3661 H   0  0  0  0  0  0  0  0  0  0  0  0
  146.8897  137.2281  161.8936 H   0  0  0  0  0  0  0  0  0  0  0  0
  148.3707  136.3038  162.0712 H   0  0  0  0  0  0  0  0  0  0  0  0
  148.0172  136.9026  159.6824 H   0  0  0  0  0  0  0  0  0  0  0  0
  146.4204  136.1894  159.7062 H   0  0  0  0  0  0  0  0  0  0  0  0
  149.9580  129.9424  154.2773 H   0  0  0  0  0  0  0  0  0  0  0  0
  146.0109  134.7668  152.6635 H   0  0  0  0  0  0  0  0  0  0  0  0
  146.5722  131.1190  151.5539 H   0  0  0  0  0  0  0  0  0  0  0  0
  146.9835  133.5200  149.9635 H   0  0  0  0  0  0  0  0  0  0  0  0
  146.2926  131.9768  149.3768 H   0  0  0  0  0  0  0  0  0  0  0  0
  143.8105  134.9841  151.3178 H   0  0  0  0  0  0  0  0  0  0  0  0
  145.5334  134.9569  151.5657 H   0  0  0  0  0  0  0  0  0  0  0  0
  145.1896  135.2076  148.9949 H   0  0  0  0  0  0  0  0  0  0  0  0
  143.3208  134.0411  148.9264 H   0  0  0  0  0  0  0  0  0  0  0  0
  144.4627  132.9227  148.2274 H   0  0  0  0  0  0  0  0  0  0  0  0
  142.0955  132.4122  149.3280 H   0  0  0  0  0  0  0  0  0  0  0  0
  144.2669  131.2770  151.0725 H   0  0  0  0  0  0  0  0  0  0  0  0
  144.1656  132.5378  152.3430 H   0  0  0  0  0  0  0  0  0  0  0  0
  1  2  1  0  0  0  0
  1 30  1  0  0  0  0
  1 31  1  0  0  0  0
  1 32  1  0  0  0  0
  2  3  1  0  0  0  0
  2 13  1  0  0  0  0
  3  4  1  0  0  0  0
  3 33  1  0  0  0  0
  3 34  1  0  0  0  0
  4  5  1  0  0  0  0
  4  6  1  0  0  0  0
  4 35  1  0  0  0  0
  5 36  1  0  0  0  0
  6  7  1  0  0  0  0
  6 37  1  0  0  0  0
  6 38  1  0  0  0  0
  7 12  1  0  0  0  0
  7  8  1  0  0  0  0
  8  9  1  0  0  0  0
  8 39  1  0  0  0  0
  8 40  1  0  0  0  0
  9 10  1  0  0  0  0
  9 41  1  0  0  0  0
  9 42  1  0  0  0  0
 10 11  1  0  0  0  0
 11 12  1  0  0  0  0
 11 43  1  0  0  0  0
 11 44  1  0  0  0  0
 12 45  1  0  0  0  0
 12 46  1  0  0  0  0
 13 18  1  0  0  0  0
 13 14  2  0  0  0  0
 14 15  1  0  0  0  0
 15 16  2  0  0  0  0
 15 47  1  0  0  0  0
 16 17  1  0  0  0  0
 17 21  1  0  0  0  0
 17 18  2  0  0  0  0
 18 19  1  0  0  0  0
 19 20  2  0  0  0  0
 20 21  1  0  0  0  0
 20 48  1  0  0  0  0
 21 22  1  0  0  0  0
 22 29  1  0  0  0  0
 22 23  1  0  0  0  0
 22 49  1  0  0  0  0
 23 24  1  0  0  0  0
 23 50  1  0  0  0  0
 23 51  1  0  0  0  0
 24 25  1  0  0  0  0
 24 27  1  0  0  0  0
 24 29  1  0  0  0  0
 25 26  1  0  0  0  0
 25 52  1  0  0  0  0
 25 53  1  0  0  0  0
 26 54  1  0  0  0  0
 27 28  1  0  0  0  0
 27 55  1  0  0  0  0
 27 56  1  0  0  0  0
 28 57  1  0  0  0  0
 29 58  1  0  0  0  0
 29 59  1  0  0  0  0
M  END
> <s_m_source_file>
AV-unprocessed.smi

> <i_m_source_file_index>
228

> <i_lp_mmshare_version>
43012

> <i_f3d_flags>
0

> <s_epik_input>
W0NIMl0xW0NIMl1PW0NIMl1bQ0gyXU4xW0NIMl1bQ0BASF0oW09IXSlbQ0gyXU4oW0NIM10pYyhuW2NIXW4yKWMoYzIzKW5bY0hdbjNbQ0hdKFtDSDJdNClbQ0gyXUM0KFtDSDJdW09IXSlbQ0gyXVtPSF0=

> <s_epik_cmdline>
J2VwaWtfcHl0aG9uJywgJy1waCcsICc3LjAnLCAnLXRuJywgJzgnLCAnLW1hJywgJzIwMCcsICctbWV0YWxfYmluZGluZycsICctaW1hZScsICc8aW5maWxlLm1hZT4nLCAnLW9tYWUnLCAnPG91dGZpbGUubWFlPic=

> <r_lp_tautomer_probability>
1

> <r_epik_Ionization_Penalty>
0.423559

> <r_epik_Ionization_Penalty_Charging>
0

> <r_epik_Ionization_Penalty_Neutral>
0.423559

> <r_epik_State_Penalty>
0.438466

> <r_epik_Charging_Adjusted_Penalty>
0.438466

> <i_epik_Tot_Q>
0

> <i_epik_Tot_abs_Q>
0

> <r_epik_Metal_State_Penalty>
0.436601

> <b_epik_Metal_Only>
0

> <s_lp_Force_Field>
OPLS_2005

> <r_lp_Energy>
66.0814

> <b_lp_Chiralities_Consistent>
1

> <s_lp_Variant>
AV-unprocessed.smi:228-3

> <Gold.Version>
5.8.1

> <Gold.Id.Protein>
6NUR|6NUR_protein|mol2

> <Gold.PLP.Fitness>
58.4318

> <Gold.PLP.PLP>
-51.1129

> <Gold.PLP.part.hbond>
-5.9492

> <Gold.PLP.part.metal>
0.0000

> <Gold.PLP.part.buried>
-7.7847

> <Gold.PLP.part.nonpolar>
-38.6199

> <Gold.PLP.part.repulsive>
1.1203

> <Gold.PLP.ligand.clash>
0.0000

> <Gold.PLP.ligand.torsion>
1.9051

> <Gold.PLP.Chemscore.Hbond>
3.2656

> <Gold.PLP.Chemscore.CHOScore>
0.0000

> <Gold.PLP.Chemscore.Metal>
0.0000

> <Gold.Chemscore.Hbonds>
donor molecule, donor type, donor heavy atom, donor atom, acceptor molecule, acceptor atom, score
      L1  H    26    54       P1  7921  1.00
      L1  H    28    57       P1 10186  0.31
      P1  H  6896  6907       L1     5  0.85
      P1  H 10785 10796       L1    28  1.00

> <Gold.PLP.Chemscore.Internal.Correction>
1.3322

> <Gold.Rescore>
     Score         DG    S(hbond)    S(metal)    S(lipo)     H(rot)  DE(clash)    DE(int)     intcor
      9.16     -12.73       2.72        0.00      86.18       4.66       0.03       3.55       ----

> <Gold.Chemscore.Fitness>
9.1582

> <Gold.Chemscore.DG>
-12.7349

> <Gold.Chemscore.ZeroCoef>
-5.4800

> <Gold.Chemscore.Hbond>
2.7248

> <Gold.Chemscore.Metal>
0.0000

> <Gold.Chemscore.Lipo>
86.1848

> <Gold.Chemscore.Internal_Hbond>
0.0000

> <Gold.Chemscore.DEClash>
0.0312

> <Gold.Chemscore.DEInternal>
3.5455

> <Gold.Chemscore.Rot>
4.6600

> <Gold.Chemscore.Internal.Correction>
   9.000000E+99

> <Gold.Chemscore.Hbonds>
donor molecule, donor type, donor heavy atom, donor atom, acceptor molecule, acceptor atom, score
      L1  H    26    54       P1  7921  0.99
      L1  H    28    57       P1 10186  0.30
      P1  H  6896  6907       L1     5  0.13
      P1  H 10785 10796       L1    28  0.91

> <Gold.Chemscore.Hbond.Weighted>
-9.1010

> <Gold.Chemscore.Metal.Weighted>
-0.0000

> <Gold.Chemscore.Lipo.Weighted>
-10.0836

> <Gold.Chemscore.Internal_Hbond.Weighted>
0.0000

> <Gold.Chemscore.DEClash.Weighted>
0.0312

> <Gold.Chemscore.DEInternal.Weighted>
3.5455

> <Gold.Chemscore.Rot.Weighted>
11.9297

> <Gold.Chemscore.Internal.Correction.Weighted>
   9.000000E+99

> <Gold.Protein.RotatedTorsions>
[ 6907 6896 6895 6894 ] final  -58.25 input  -60.11 | X-H torsion
[ 7974 7965 7964 7962 ] final  -53.80 input  175.53 | X-H torsion
[ 8008 7997 7996 7995 ] final    8.03 input   59.86 | X-H torsion
[ 10167 10162 10161 10158 ] final  -49.34 input  -65.29 | X-H torsion
[ 10718 10713 10712 10709 ] final  -47.38 input   66.30 | X-H torsion
[ 10763 10752 10751 10750 ] final  -21.07 input  -60.55 | X-H torsion
[ 11005 11000 10999 10996 ] final  -47.67 input  -57.11 | X-H torsion

> <Gold.Protein.ActiveResidues>
 VAL166  LYS551  ARG553  GLY616  TRP617  ASP618  TYR619  PRO620  LYS621  CYS622 
 ASP623  PHE694  ASN695  SER759  ASP760  ASP761  ALA762  ILE779  LEU786  VAL792 
 PHE793  MET794  SER795  GLU796  ALA797  LYS798  CYS799  TRP800  GLU811  SER814 

> <Gold.Protein.RotatedAtoms>
  150.8022  134.7123  159.6610 H   0  0  0  0  0  0  0  0  0  0  0  0  # atno 6907 bound_to 6896
  152.4139  134.6072  160.0026 H   0  0  0  0  0  0  0  0  0  0  0  0  # atno 6908 bound_to 6896
  151.6307  133.3295  159.3144 H   0  0  0  0  0  0  0  0  0  0  0  0  # atno 6909 bound_to 6896
  145.8928  140.8057  142.9783 H   0  0  0  0  0  0  0  0  0  0  0  0  # atno 7974 bound_to 7965
  154.7615  140.2785  155.6210 H   0  0  0  0  0  0  0  0  0  0  0  0  # atno 8008 bound_to 7997
  156.2916  140.2659  156.2321 H   0  0  0  0  0  0  0  0  0  0  0  0  # atno 8009 bound_to 7997
  155.0012  140.0373  157.2350 H   0  0  0  0  0  0  0  0  0  0  0  0  # atno 8010 bound_to 7997
  140.6690  143.2702  151.4200 H   0  0  0  0  0  0  0  0  0  0  0  0  # atno 10167 bound_to 10162
  156.2090  130.4160  149.9139 H   0  0  0  0  0  0  0  0  0  0  0  0  # atno 10718 bound_to 10713
  153.6303  135.6989  153.5278 H   0  0  0  0  0  0  0  0  0  0  0  0  # atno 10763 bound_to 10752
  153.2865  135.4170  155.1127 H   0  0  0  0  0  0  0  0  0  0  0  0  # atno 10764 bound_to 10752
  154.8523  135.3615  154.5845 H   0  0  0  0  0  0  0  0  0  0  0  0  # atno 10765 bound_to 10752
  141.0654  133.6695  156.3330 H   0  0  0  0  0  0  0  0  0  0  0  0  # atno 11005 bound_to 11000
  144.6731  140.1556  143.7426 LP  0  0  0  0  0  0  0  0  0  0  0  0  # atno 17320 bound_to 7965
  145.8887  139.2363  143.1562 LP  0  0  0  0  0  0  0  0  0  0  0  0  # atno 17321 bound_to 7965
  139.5950  144.1417  152.2133 LP  0  0  0  0  0  0  0  0  0  0  0  0  # atno 17342 bound_to 10162
  140.0784  144.5721  150.7140 LP  0  0  0  0  0  0  0  0  0  0  0  0  # atno 17343 bound_to 10162
  156.6824  130.8863  151.3577 LP  0  0  0  0  0  0  0  0  0  0  0  0  # atno 17370 bound_to 10713
  157.7028  130.9352  150.0838 LP  0  0  0  0  0  0  0  0  0  0  0  0  # atno 17371 bound_to 10713
  140.5783  134.5771  157.5473 LP  0  0  0  0  0  0  0  0  0  0  0  0  # atno 17394 bound_to 11000
  139.9472  134.7681  156.0534 LP  0  0  0  0  0  0  0  0  0  0  0  0  # atno 17395 bound_to 11000

$$$$
