AV-unprocessed.smi:1821|AV-procd|sdf|7388|dock2
  -GOLD-   22720 9 53D 1   1.00000     0.00000
 Structure written by MMmdl.
 36 38  0  0  0  0  0  0  0  0  2 V2000
  143.3899  135.6375  155.9671 C   0  0  0  0  0  0  0  0  0  0  0  0
  143.6715  135.3322  154.5343 C   0  0  0  0  0  0  0  0  0  0  0  0
  143.4355  134.1465  153.9046 N   0  3  0  0  0  0  0  0  0  0  0  0
  143.8311  134.2339  152.5688 C   0  0  0  0  0  0  0  0  0  0  0  0
  143.7936  133.2952  151.5423 C   0  0  0  0  0  0  0  0  0  0  0  0
  144.2809  133.7117  150.2858 C   0  0  0  0  0  0  0  0  0  0  0  0
  144.7785  135.0161  150.0863 C   0  0  0  0  0  0  0  0  0  0  0  0
  144.8108  135.9595  151.1343 C   0  0  0  0  0  0  0  0  0  0  0  0
  144.3290  135.5383  152.3733 C   0  0  0  0  0  0  0  0  0  0  0  0
  144.2141  136.1774  153.6120 N   0  0  0  0  0  0  0  0  0  0  0  0
  144.6670  137.5700  153.7459 C   0  0  0  0  0  0  0  0  0  0  0  0
  146.1375  137.7653  153.3229 C   0  0  2  0  0  0  0  0  0  0  0  0
  146.9131  136.6560  153.7363 O   0  0  0  0  0  0  0  0  0  0  0  0
  146.6908  139.0923  153.8302 C   0  0  0  0  0  0  0  0  0  0  0  0
  146.8045  139.3481  155.2180 C   0  0  0  0  0  0  0  0  0  0  0  0
  146.4199  138.4178  156.1248 F   0  0  0  0  0  0  0  0  0  0  0  0
  147.3136  140.5797  155.6736 C   0  0  0  0  0  0  0  0  0  0  0  0
  147.7073  141.5671  154.7520 C   0  0  0  0  0  0  0  0  0  0  0  0
  147.5883  141.3240  153.3712 C   0  0  0  0  0  0  0  0  0  0  0  0
  147.0794  140.0942  152.9102 C   0  0  0  0  0  0  0  0  0  0  0  0
  146.9626  139.8860  151.5763 F   0  0  0  0  0  0  0  0  0  0  0  0
  143.0360  134.7470  156.4873 H   0  0  0  0  0  0  0  0  0  0  0  0
  142.6255  136.4111  156.0430 H   0  0  0  0  0  0  0  0  0  0  0  0
  144.2941  135.9916  156.4625 H   0  0  0  0  0  0  0  0  0  0  0  0
  143.4135  132.2953  151.6924 H   0  0  0  0  0  0  0  0  0  0  0  0
  144.2734  133.0166  149.4585 H   0  0  0  0  0  0  0  0  0  0  0  0
  145.1440  135.2991  149.1099 H   0  0  0  0  0  0  0  0  0  0  0  0
  145.1958  136.9559  150.9731 H   0  0  0  0  0  0  0  0  0  0  0  0
  144.0041  138.2043  153.1558 H   0  0  0  0  0  0  0  0  0  0  0  0
  144.5264  137.8650  154.7864 H   0  0  0  0  0  0  0  0  0  0  0  0
  146.1889  137.7624  152.2344 H   0  0  0  0  0  0  0  0  0  0  0  0
  147.6889  136.6150  153.1983 H   0  0  0  0  0  0  0  0  0  0  0  0
  147.3998  140.7676  156.7337 H   0  0  0  0  0  0  0  0  0  0  0  0
  148.0964  142.5112  155.1038 H   0  0  0  0  0  0  0  0  0  0  0  0
  147.8862  142.0837  152.6636 H   0  0  0  0  0  0  0  0  0  0  0  0
  143.0355  133.3359  154.3596 H   0  0  0  0  0  0  0  0  0  0  0  0
  1  2  1  0  0  0  0
  1 22  1  0  0  0  0
  1 23  1  0  0  0  0
  1 24  1  0  0  0  0
  2 10  1  0  0  0  0
  2  3  2  0  0  0  0
  3  4  1  0  0  0  0
  3 36  1  0  0  0  0
  4  9  2  0  0  0  0
  4  5  1  0  0  0  0
  5  6  2  0  0  0  0
  5 25  1  0  0  0  0
  6  7  1  0  0  0  0
  6 26  1  0  0  0  0
  7  8  2  0  0  0  0
  7 27  1  0  0  0  0
  8  9  1  0  0  0  0
  8 28  1  0  0  0  0
  9 10  1  0  0  0  0
 10 11  1  0  0  0  0
 11 12  1  0  0  0  0
 11 29  1  0  0  0  0
 11 30  1  0  0  0  0
 12 13  1  0  0  0  0
 12 14  1  0  0  0  0
 12 31  1  0  0  0  0
 13 32  1  0  0  0  0
 14 20  1  0  0  0  0
 14 15  2  0  0  0  0
 15 16  1  0  0  0  0
 15 17  1  0  0  0  0
 17 18  2  0  0  0  0
 17 33  1  0  0  0  0
 18 19  1  0  0  0  0
 18 34  1  0  0  0  0
 19 20  2  0  0  0  0
 19 35  1  0  0  0  0
 20 21  1  0  0  0  0
M  CHG  1   3   1
M  END
> <s_m_source_file>
AV-unprocessed.smi

> <i_m_source_file_index>
1821

> <i_lp_mmshare_version>
43012

> <i_f3d_flags>
0

> <s_epik_input>
W2NIXTFbY0hdW2NIXVtjSF1jKGMxMiluKGMobjIpW0NIM10pW0NIMl1bQ0BIXShbT0hdKWMzYyhGKVtjSF1bY0hdW2NIXWMzRg==

> <s_epik_cmdline>
J2VwaWtfcHl0aG9uJywgJy1waCcsICc3LjAnLCAnLXRuJywgJzgnLCAnLW1hJywgJzIwMCcsICctbWV0YWxfYmluZGluZycsICctaW1hZScsICc8aW5maWxlLm1hZT4nLCAnLW9tYWUnLCAnPG91dGZpbGUubWFlPic=

> <r_epik_Ionization_Penalty>
0.963869

> <r_epik_Ionization_Penalty_Charging>
0.963868

> <r_epik_Ionization_Penalty_Neutral>
1.34362e-06

> <r_epik_State_Penalty>
1.00924

> <r_epik_Charging_Adjusted_Penalty>
1.9731

> <i_epik_Tot_Q>
1

> <i_epik_Tot_abs_Q>
1

> <r_epik_Metal_State_Penalty>
4.98304

> <b_epik_Metal_Only>
0

> <s_lp_Force_Field>
OPLS_2005

> <r_lp_Energy>
15.8254

> <b_lp_Chiralities_Consistent>
1

> <s_lp_Variant>
AV-unprocessed.smi:1821-3

> <Gold.Version>
5.8.1

> <Gold.Id.Protein>
6NUR|6NUR_protein|mol2

> <Gold.PLP.Fitness>
35.1869

> <Gold.PLP.PLP>
-26.5690

> <Gold.PLP.part.hbond>
-2.0000

> <Gold.PLP.part.metal>
0.0000

> <Gold.PLP.part.buried>
2.4292

> <Gold.PLP.part.nonpolar>
-26.1115

> <Gold.PLP.part.repulsive>
0.0000

> <Gold.PLP.ligand.clash>
0.0000

> <Gold.PLP.ligand.torsion>
0.2055

> <Gold.PLP.Chemscore.Hbond>
3.0000

> <Gold.PLP.Chemscore.CHOScore>
0.0000

> <Gold.PLP.Chemscore.Metal>
0.0000

> <Gold.Chemscore.Hbonds>
donor molecule, donor type, donor heavy atom, donor atom, acceptor molecule, acceptor atom, score
      L1  H     3    36       P1 10957  2.00
      L1  H    13    32       P1  7948  1.00

> <Gold.PLP.Chemscore.Internal.Correction>
0.0288

> <Gold.Rescore>
     Score         DG    S(hbond)    S(metal)    S(lipo)     H(rot)  DE(clash)    DE(int)     intcor
     13.35     -15.41       1.96        0.00      71.46       1.94       0.77       1.29       ----

> <Gold.Chemscore.Fitness>
13.3472

> <Gold.Chemscore.DG>
-15.4128

> <Gold.Chemscore.ZeroCoef>
-5.4800

> <Gold.Chemscore.Hbond>
1.9555

> <Gold.Chemscore.Metal>
0.0000

> <Gold.Chemscore.Lipo>
71.4631

> <Gold.Chemscore.Internal_Hbond>
0.0000

> <Gold.Chemscore.DEClash>
0.7735

> <Gold.Chemscore.DEInternal>
1.2921

> <Gold.Chemscore.Rot>
1.9375

> <Gold.Chemscore.Internal.Correction>
   9.000000E+99

> <Gold.Chemscore.Hbonds>
donor molecule, donor type, donor heavy atom, donor atom, acceptor molecule, acceptor atom, score
      L1  H     3    36       P1 10957  1.00
      L1  H    13    32       P1  7948  1.00

> <Gold.Chemscore.Hbond.Weighted>
-6.5315

> <Gold.Chemscore.Metal.Weighted>
-0.0000

> <Gold.Chemscore.Lipo.Weighted>
-8.3612

> <Gold.Chemscore.Internal_Hbond.Weighted>
0.0000

> <Gold.Chemscore.DEClash.Weighted>
0.7735

> <Gold.Chemscore.DEInternal.Weighted>
1.2921

> <Gold.Chemscore.Rot.Weighted>
4.9599

> <Gold.Chemscore.Internal.Correction.Weighted>
   9.000000E+99

> <Gold.Protein.RotatedTorsions>
[ 6907 6896 6895 6894 ] final  164.72 input  -60.11 | X-H torsion
[ 7974 7965 7964 7962 ] final  -25.28 input  175.53 | X-H torsion
[ 8008 7997 7996 7995 ] final -153.99 input   59.86 | X-H torsion
[ 10167 10162 10161 10158 ] final   74.37 input  -65.29 | X-H torsion
[ 10718 10713 10712 10709 ] final   81.83 input   66.30 | X-H torsion
[ 10763 10752 10751 10750 ] final   11.81 input  -60.55 | X-H torsion
[ 11005 11000 10999 10996 ] final -130.61 input  -57.11 | X-H torsion

> <Gold.Protein.ActiveResidues>
 VAL166  LYS551  ARG553  GLY616  TRP617  ASP618  TYR619  PRO620  LYS621  CYS622 
 ASP623  PHE694  ASN695  SER759  ASP760  ASP761  ALA762  ILE779  LEU786  VAL792 
 PHE793  MET794  SER795  GLU796  ALA797  LYS798  CYS799  TRP800  GLU811  SER814 

> <Gold.Protein.RotatedAtoms>
  151.9055  133.3548  159.3845 H   0  0  0  0  0  0  0  0  0  0  0  0  # atno 6907 bound_to 6896
  150.7070  134.4785  159.5468 H   0  0  0  0  0  0  0  0  0  0  0  0  # atno 6908 bound_to 6896
  152.2381  134.8256  160.0515 H   0  0  0  0  0  0  0  0  0  0  0  0  # atno 6909 bound_to 6896
  146.1501  140.4865  142.8615 H   0  0  0  0  0  0  0  0  0  0  0  0  # atno 7974 bound_to 7965
  155.6795  140.0742  157.2490 H   0  0  0  0  0  0  0  0  0  0  0  0  # atno 8008 bound_to 7997
  154.4108  140.1684  156.2018 H   0  0  0  0  0  0  0  0  0  0  0  0  # atno 8009 bound_to 7997
  155.9547  140.3374  155.6441 H   0  0  0  0  0  0  0  0  0  0  0  0  # atno 8010 bound_to 7997
  140.0144  144.5589  150.7632 H   0  0  0  0  0  0  0  0  0  0  0  0  # atno 10167 bound_to 10162
  157.6842  131.0021  150.2284 H   0  0  0  0  0  0  0  0  0  0  0  0  # atno 10718 bound_to 10713
  153.1888  135.6839  153.8380 H   0  0  0  0  0  0  0  0  0  0  0  0  # atno 10763 bound_to 10752
  153.7687  135.3199  155.3349 H   0  0  0  0  0  0  0  0  0  0  0  0  # atno 10764 bound_to 10752
  154.8104  135.4721  154.0600 H   0  0  0  0  0  0  0  0  0  0  0  0  # atno 10765 bound_to 10752
  140.9331  134.1293  157.4217 H   0  0  0  0  0  0  0  0  0  0  0  0  # atno 11005 bound_to 11000
  144.7893  140.6001  143.6552 LP  0  0  0  0  0  0  0  0  0  0  0  0  # atno 17320 bound_to 7965
  145.4844  139.1493  143.3744 LP  0  0  0  0  0  0  0  0  0  0  0  0  # atno 17321 bound_to 7965
  140.7368  143.2757  151.3748 LP  0  0  0  0  0  0  0  0  0  0  0  0  # atno 17342 bound_to 10162
  139.6182  144.0959  152.2366 LP  0  0  0  0  0  0  0  0  0  0  0  0  # atno 17343 bound_to 10162
  156.2922  130.3747  149.7831 LP  0  0  0  0  0  0  0  0  0  0  0  0  # atno 17370 bound_to 10713
  156.5487  130.8332  151.3292 LP  0  0  0  0  0  0  0  0  0  0  0  0  # atno 17371 bound_to 10713
  139.8801  135.0012  156.6052 LP  0  0  0  0  0  0  0  0  0  0  0  0  # atno 17394 bound_to 11000
  140.7836  133.8640  155.8588 LP  0  0  0  0  0  0  0  0  0  0  0  0  # atno 17395 bound_to 11000

$$$$
