AV-unprocessed.smi:3168|AV-procd|sdf|12100|dock7
  -GOLD-   2272017533D 1   1.00000     0.00000
 Structure written by MMmdl.
 33 34  0  0  0  0  0  0  0  0  1 V2000
  151.9390  144.4601  157.3102 C   0  0  0  0  0  0  0  0  0  0  0  0
  151.3302  143.3476  158.1883 C   0  0  1  0  0  0  0  0  0  0  0  0
  151.1012  142.0437  157.4104 C   0  0  0  0  0  0  0  0  0  0  0  0
  151.6696  141.0044  157.7472 O   0  0  0  0  0  0  0  0  0  0  0  0
  150.2406  142.1128  156.3825 N   0  0  0  0  0  0  0  0  0  0  0  0
  149.7943  140.9843  155.5734 C   0  0  0  0  0  0  0  0  0  0  0  0
  148.7419  141.4212  154.5409 C   0  0  2  0  0  0  0  0  0  0  0  0
  147.5101  142.1149  155.1208 C   0  0  0  0  0  0  0  0  0  0  0  0
  146.4524  141.8903  154.0539 C   0  0  0  0  0  0  0  0  0  0  0  0
  146.9961  140.7184  153.2292 C   0  0  0  0  0  0  0  0  0  0  0  0
  148.1757  140.2912  153.8988 O   0  0  0  0  0  0  0  0  0  0  0  0
  152.1220  143.0765  159.3836 N   0  0  0  0  0  0  0  0  0  0  0  0
  153.3485  142.4473  159.4608 C   0  0  0  0  0  0  0  0  0  0  0  0
  153.7380  142.4628  160.7693 C   0  0  0  0  0  0  0  0  0  0  0  0
  152.6794  143.1463  161.4283 C   0  0  0  0  0  0  0  0  0  0  0  0
  151.7214  143.5221  160.5976 N   0  0  0  0  0  0  0  0  0  0  0  0
  151.3030  144.6718  156.4499 H   0  0  0  0  0  0  0  0  0  0  0  0
  152.9263  144.1937  156.9305 H   0  0  0  0  0  0  0  0  0  0  0  0
  152.0416  145.3869  157.8752 H   0  0  0  0  0  0  0  0  0  0  0  0
  150.3565  143.7061  158.5266 H   0  0  0  0  0  0  0  0  0  0  0  0
  149.8273  143.0099  156.1739 H   0  0  0  0  0  0  0  0  0  0  0  0
  150.6641  140.5792  155.0562 H   0  0  0  0  0  0  0  0  0  0  0  0
  149.4075  140.1769  156.1975 H   0  0  0  0  0  0  0  0  0  0  0  0
  149.2023  142.0568  153.7819 H   0  0  0  0  0  0  0  0  0  0  0  0
  147.2046  141.6260  156.0469 H   0  0  0  0  0  0  0  0  0  0  0  0
  147.6797  143.1703  155.3378 H   0  0  0  0  0  0  0  0  0  0  0  0
  145.4834  141.6636  154.4995 H   0  0  0  0  0  0  0  0  0  0  0  0
  146.3355  142.7742  153.4257 H   0  0  0  0  0  0  0  0  0  0  0  0
  146.2814  139.8990  153.1478 H   0  0  0  0  0  0  0  0  0  0  0  0
  147.2527  141.0462  152.2210 H   0  0  0  0  0  0  0  0  0  0  0  0
  153.8380  142.0462  158.5858 H   0  0  0  0  0  0  0  0  0  0  0  0
  154.6443  142.0541  161.1906 H   0  0  0  0  0  0  0  0  0  0  0  0
  152.5818  143.3843  162.4773 H   0  0  0  0  0  0  0  0  0  0  0  0
  1  2  1  0  0  0  0
  1 17  1  0  0  0  0
  1 18  1  0  0  0  0
  1 19  1  0  0  0  0
  2  3  1  0  0  0  0
  2 12  1  0  0  0  0
  2 20  1  0  0  0  0
  3  4  2  0  0  0  0
  3  5  1  0  0  0  0
  5  6  1  0  0  0  0
  5 21  1  0  0  0  0
  6  7  1  0  0  0  0
  6 22  1  0  0  0  0
  6 23  1  0  0  0  0
  7 11  1  0  0  0  0
  7  8  1  0  0  0  0
  7 24  1  0  0  0  0
  8  9  1  0  0  0  0
  8 25  1  0  0  0  0
  8 26  1  0  0  0  0
  9 10  1  0  0  0  0
  9 27  1  0  0  0  0
  9 28  1  0  0  0  0
 10 11  1  0  0  0  0
 10 29  1  0  0  0  0
 10 30  1  0  0  0  0
 12 16  1  0  0  0  0
 12 13  1  0  0  0  0
 13 14  2  0  0  0  0
 13 31  1  0  0  0  0
 14 15  1  0  0  0  0
 14 32  1  0  0  0  0
 15 16  2  0  0  0  0
 15 33  1  0  0  0  0
M  END
> <s_m_source_file>
AV-unprocessed.smi

> <i_m_source_file_index>
3168

> <i_lp_mmshare_version>
43012

> <i_f3d_flags>
0

> <s_epik_input>
bjFbY0hdW2NIXVtjSF1uMVtDQEhdKFtDSDNdKUMoPU8pW05IXVtDSDJdW0NAQEhdMltDSDJdW0NIMl1bQ0gyXU8y

> <s_epik_cmdline>
J2VwaWtfcHl0aG9uJywgJy1waCcsICc3LjAnLCAnLXRuJywgJzgnLCAnLW1hJywgJzIwMCcsICctbWV0YWxfYmluZGluZycsICctaW1hZScsICc8aW5maWxlLm1hZT4nLCAnLW9tYWUnLCAnPG91dGZpbGUubWFlPic=

> <r_lp_tautomer_probability>
1

> <r_epik_Ionization_Penalty>
4.14877e-05

> <r_epik_Ionization_Penalty_Charging>
0

> <r_epik_Ionization_Penalty_Neutral>
4.14877e-05

> <r_epik_State_Penalty>
-0

> <r_epik_Charging_Adjusted_Penalty>
0

> <i_epik_Tot_Q>
0

> <i_epik_Tot_abs_Q>
0

> <r_epik_Metal_State_Penalty>
-0

> <b_epik_Metal_Only>
0

> <s_lp_Force_Field>
OPLS_2005

> <r_lp_Energy>
21.2446

> <b_lp_Chiralities_Consistent>
1

> <s_lp_Variant>
AV-unprocessed.smi:3168-2

> <Gold.Version>
5.8.1

> <Gold.Id.Protein>
6NUR|6NUR_protein|mol2

> <Gold.PLP.Fitness>
41.8346

> <Gold.PLP.PLP>
-39.3648

> <Gold.PLP.part.hbond>
-1.5304

> <Gold.PLP.part.metal>
0.0000

> <Gold.PLP.part.buried>
-3.8264

> <Gold.PLP.part.nonpolar>
-34.1840

> <Gold.PLP.part.repulsive>
1.1824

> <Gold.PLP.ligand.clash>
0.0000

> <Gold.PLP.ligand.torsion>
0.3203

> <Gold.PLP.Chemscore.Hbond>
1.0000

> <Gold.PLP.Chemscore.CHOScore>
0.0000

> <Gold.PLP.Chemscore.Metal>
0.0000

> <Gold.Chemscore.Hbonds>
donor molecule, donor type, donor heavy atom, donor atom, acceptor molecule, acceptor atom, score
      L1  H     5    21       P1  8028  1.00

> <Gold.PLP.Chemscore.Internal.Correction>
0.1104

> <Gold.Rescore>
     Score         DG    S(hbond)    S(metal)    S(lipo)     H(rot)  DE(clash)    DE(int)     intcor
     14.11     -15.37       1.00        0.00      91.26       1.61       0.08       1.18       ----

> <Gold.Chemscore.Fitness>
14.1140

> <Gold.Chemscore.DG>
-15.3733

> <Gold.Chemscore.ZeroCoef>
-5.4800

> <Gold.Chemscore.Hbond>
0.9988

> <Gold.Chemscore.Metal>
0.0000

> <Gold.Chemscore.Lipo>
91.2584

> <Gold.Chemscore.Internal_Hbond>
0.0000

> <Gold.Chemscore.DEClash>
0.0777

> <Gold.Chemscore.DEInternal>
1.1816

> <Gold.Chemscore.Rot>
1.6094

> <Gold.Chemscore.Internal.Correction>
   9.000000E+99

> <Gold.Chemscore.Hbonds>
donor molecule, donor type, donor heavy atom, donor atom, acceptor molecule, acceptor atom, score
      L1  H     5    21       P1  8028  0.94

> <Gold.Chemscore.Hbond.Weighted>
-3.3361

> <Gold.Chemscore.Metal.Weighted>
-0.0000

> <Gold.Chemscore.Lipo.Weighted>
-10.6772

> <Gold.Chemscore.Internal_Hbond.Weighted>
0.0000

> <Gold.Chemscore.DEClash.Weighted>
0.0777

> <Gold.Chemscore.DEInternal.Weighted>
1.1816

> <Gold.Chemscore.Rot.Weighted>
4.1201

> <Gold.Chemscore.Internal.Correction.Weighted>
   9.000000E+99

> <Gold.Protein.RotatedTorsions>
[ 6907 6896 6895 6894 ] final -159.19 input  -60.11 | X-H torsion
[ 7974 7965 7964 7962 ] final   78.85 input  175.53 | X-H torsion
[ 8008 7997 7996 7995 ] final -153.36 input   59.86 | X-H torsion
[ 10167 10162 10161 10158 ] final   50.63 input  -65.29 | X-H torsion
[ 10718 10713 10712 10709 ] final -138.54 input   66.30 | X-H torsion
[ 10763 10752 10751 10750 ] final -119.61 input  -60.55 | X-H torsion
[ 11005 11000 10999 10996 ] final  158.37 input  -57.11 | X-H torsion

> <Gold.Protein.ActiveResidues>
 VAL166  LYS551  ARG553  GLY616  TRP617  ASP618  TYR619  PRO620  LYS621  CYS622 
 ASP623  PHE694  ASN695  SER759  ASP760  ASP761  ALA762  ILE779  LEU786  VAL792 
 PHE793  MET794  SER795  GLU796  ALA797  LYS798  CYS799  TRP800  GLU811  SER814 

> <Gold.Protein.RotatedAtoms>
  151.3298  133.4005  159.2661 H   0  0  0  0  0  0  0  0  0  0  0  0  # atno 6907 bound_to 6896
  150.9965  134.9288  159.7940 H   0  0  0  0  0  0  0  0  0  0  0  0  # atno 6908 bound_to 6896
  152.5263  134.3263  159.9219 H   0  0  0  0  0  0  0  0  0  0  0  0  # atno 6909 bound_to 6896
  145.6718  139.2499  143.1864 H   0  0  0  0  0  0  0  0  0  0  0  0  # atno 7974 bound_to 7965
  155.6696  140.0732  157.2525 H   0  0  0  0  0  0  0  0  0  0  0  0  # atno 8008 bound_to 7997
  154.4126  140.1701  156.1916 H   0  0  0  0  0  0  0  0  0  0  0  0  # atno 8009 bound_to 7997
  155.9628  140.3368  155.6509 H   0  0  0  0  0  0  0  0  0  0  0  0  # atno 8010 bound_to 7997
  140.2704  144.3272  150.6292 H   0  0  0  0  0  0  0  0  0  0  0  0  # atno 10167 bound_to 10162
  156.3005  130.7426  151.1476 H   0  0  0  0  0  0  0  0  0  0  0  0  # atno 10718 bound_to 10713
  154.8622  135.4232  154.2326 H   0  0  0  0  0  0  0  0  0  0  0  0  # atno 10763 bound_to 10752
  153.3308  135.6988  153.6955 H   0  0  0  0  0  0  0  0  0  0  0  0  # atno 10764 bound_to 10752
  153.5973  135.3543  155.2906 H   0  0  0  0  0  0  0  0  0  0  0  0  # atno 10765 bound_to 10752
  140.1859  134.8442  157.2857 H   0  0  0  0  0  0  0  0  0  0  0  0  # atno 11005 bound_to 11000
  146.1039  140.7511  142.9536 LP  0  0  0  0  0  0  0  0  0  0  0  0  # atno 17320 bound_to 7965
  144.7054  140.3831  143.7122 LP  0  0  0  0  0  0  0  0  0  0  0  0  # atno 17321 bound_to 7965
  140.5894  143.2168  151.7281 LP  0  0  0  0  0  0  0  0  0  0  0  0  # atno 17342 bound_to 10162
  139.4990  144.3962  152.0229 LP  0  0  0  0  0  0  0  0  0  0  0  0  # atno 17343 bound_to 10162
  157.7366  131.0560  150.5401 LP  0  0  0  0  0  0  0  0  0  0  0  0  # atno 17370 bound_to 10713
  156.5528  130.4236  149.6100 LP  0  0  0  0  0  0  0  0  0  0  0  0  # atno 17371 bound_to 10713
  140.2214  134.4018  155.7564 LP  0  0  0  0  0  0  0  0  0  0  0  0  # atno 17394 bound_to 11000
  141.2225  133.7168  156.8497 LP  0  0  0  0  0  0  0  0  0  0  0  0  # atno 17395 bound_to 11000

$$$$
