AV-unprocessed.smi:72|AV-procd|sdf|728|dock8
  -GOLD-   2262017 53D 1   1.00000     0.00000
 Structure written by MMmdl.
 28 29  0  0  0  0  0  0  0  0  2 V2000
  151.0873  134.3587  156.5405 N   0  0  0  0  0  0  0  0  0  0  0  0
  151.0479  135.5592  156.1570 C   0  0  0  0  0  0  0  0  0  0  0  0
  149.8408  136.0889  155.5608 N   0  0  0  0  0  0  0  0  0  0  0  0
  149.8488  137.3287  155.1776 C   0  0  0  0  0  0  0  0  0  0  0  0
  151.0271  138.1728  155.3302 N   0  0  0  0  0  0  0  0  0  0  0  0
  151.0427  139.6255  154.8873 C   0  0  1  0  0  0  0  0  0  0  0  0
  149.8698  139.9210  154.1800 O   0  0  0  0  0  0  0  0  0  0  0  0
  149.0838  140.8466  154.9207 C   0  0  2  0  0  0  0  0  0  0  0  0
  148.1130  141.6027  153.9961 C   0  0  0  0  0  0  0  0  0  0  0  0
  147.3439  142.5584  154.6970 O   0  0  0  0  0  0  0  0  0  0  0  0
  150.1153  141.6791  155.6821 C   0  0  1  0  0  0  0  0  0  0  0  0
  149.5629  142.3687  156.7883 O   0  0  0  0  0  0  0  0  0  0  0  0
  151.1449  140.6219  156.0711 C   0  0  1  0  0  0  0  0  0  0  0  0
  150.8597  140.0358  157.3329 O   0  0  0  0  0  0  0  0  0  0  0  0
  152.1943  137.6284  155.9280 C   0  0  0  0  0  0  0  0  0  0  0  0
  153.1707  138.3656  156.0676 O   0  0  0  0  0  0  0  0  0  0  0  0
  152.1789  136.3265  156.3283 N   0  5  0  0  0  0  0  0  0  0  0  0
  151.8709  139.7100  154.1818 H   0  0  0  0  0  0  0  0  0  0  0  0
  148.4985  140.2649  155.6351 H   0  0  0  0  0  0  0  0  0  0  0  0
  150.5929  142.3992  155.0172 H   0  0  0  0  0  0  0  0  0  0  0  0
  152.1521  141.0382  156.1087 H   0  0  0  0  0  0  0  0  0  0  0  0
  151.9789  134.1049  156.9399 H   0  0  0  0  0  0  0  0  0  0  0  0
  148.9806  137.8077  154.7251 H   0  0  0  0  0  0  0  0  0  0  0  0
  148.6574  142.0928  153.1886 H   0  0  0  0  0  0  0  0  0  0  0  0
  147.4241  140.8960  153.5329 H   0  0  0  0  0  0  0  0  0  0  0  0
  147.9088  143.2739  154.9456 H   0  0  0  0  0  0  0  0  0  0  0  0
  149.2485  143.2077  156.4884 H   0  0  0  0  0  0  0  0  0  0  0  0
  150.7955  140.7276  157.9744 H   0  0  0  0  0  0  0  0  0  0  0  0
  1  2  2  0  0  0  0
  1 22  1  0  0  0  0
  2 17  1  0  0  0  0
  2  3  1  0  0  0  0
  3  4  2  0  0  0  0
  4  5  1  0  0  0  0
  4 23  1  0  0  0  0
  5  6  1  0  0  0  0
  5 15  1  0  0  0  0
  6 18  1  0  0  0  0
  6 13  1  0  0  0  0
  6  7  1  0  0  0  0
  7  8  1  0  0  0  0
  8 19  1  0  0  0  0
  8  9  1  0  0  0  0
  8 11  1  0  0  0  0
  9 10  1  0  0  0  0
  9 24  1  0  0  0  0
  9 25  1  0  0  0  0
 10 26  1  0  0  0  0
 11 20  1  0  0  0  0
 11 12  1  0  0  0  0
 11 13  1  0  0  0  0
 12 27  1  0  0  0  0
 13 21  1  0  0  0  0
 13 14  1  0  0  0  0
 14 28  1  0  0  0  0
 15 16  2  0  0  0  0
 15 17  1  0  0  0  0
M  CHG  1  17  -1
M  END
> <s_m_source_file>
AV-unprocessed.smi

> <i_m_source_file_index>
72

> <i_lp_mmshare_version>
43012

> <i_f3d_flags>
0

> <s_epik_input>
W05IMl1jMW5bY0hdbihjKD1PKW4xKVtDQEBIXTJPW0NASF0oW0NIMl1bT0hdKVtDQEBIXShbT0hdKVtDQEhdMltPSF0=

> <s_epik_cmdline>
J2VwaWtfcHl0aG9uJywgJy1waCcsICc3LjAnLCAnLXRuJywgJzgnLCAnLW1hJywgJzIwMCcsICctbWV0YWxfYmluZGluZycsICctaW1hZScsICc8aW5maWxlLm1hZT4nLCAnLW9tYWUnLCAnPG91dGZpbGUubWFlPic=

> <r_lp_tautomer_probability>
7.17554e-07

> <r_epik_Ionization_Penalty>
12.8705

> <r_epik_Ionization_Penalty_Charging>
5.64144

> <r_epik_Ionization_Penalty_Neutral>
7.22905

> <r_epik_State_Penalty>
3.30104

> <r_epik_Charging_Adjusted_Penalty>
8.94249

> <i_epik_Tot_Q>
-1

> <i_epik_Tot_abs_Q>
1

> <r_epik_Metal_State_Penalty>
0.529074

> <b_epik_Metal_Only>
1

> <s_epik_Chemistry_Notes>
This compound contains an acetal/aminal-like group ( X-CH(R)-Y where X, Y are N, S, or O) that may be acid/base labile, releasing an aldehyde.

> <s_lp_Force_Field>
OPLS_2005

> <r_lp_Energy>
43.5119

> <b_lp_Chiralities_Consistent>
1

> <s_lp_Variant>
AV-unprocessed.smi:72-66

> <Gold.Version>
5.8.1

> <Gold.Id.Protein>
6NUR|6NUR_protein|mol2

> <Gold.PLP.Fitness>
40.0039

> <Gold.PLP.PLP>
-25.4575

> <Gold.PLP.part.hbond>
-5.6343

> <Gold.PLP.part.metal>
0.0000

> <Gold.PLP.part.buried>
-3.2652

> <Gold.PLP.part.nonpolar>
-17.5583

> <Gold.PLP.part.repulsive>
0.6499

> <Gold.PLP.ligand.clash>
0.0000

> <Gold.PLP.ligand.torsion>
0.1066

> <Gold.PLP.Chemscore.Hbond>
4.9120

> <Gold.PLP.Chemscore.CHOScore>
0.0000

> <Gold.PLP.Chemscore.Metal>
0.0000

> <Gold.Chemscore.Hbonds>
donor molecule, donor type, donor heavy atom, donor atom, acceptor molecule, acceptor atom, score
      L1  H    10    26       P1  8028  1.00
      L1  H    12    27       P1  8028  1.00
      P1  H  7997  8008       L1    16  0.75
      P1  H 10752 10765       L1    17  2.00

> <Gold.PLP.Chemscore.Internal.Correction>
0.0236

> <Gold.Rescore>
     Score         DG    S(hbond)    S(metal)    S(lipo)     H(rot)  DE(clash)    DE(int)     intcor
      7.84      -8.45       2.97        0.00      28.93       4.04       0.32       0.29       ----

> <Gold.Chemscore.Fitness>
7.8421

> <Gold.Chemscore.DG>
-8.4460

> <Gold.Chemscore.ZeroCoef>
-5.4800

> <Gold.Chemscore.Hbond>
2.9713

> <Gold.Chemscore.Metal>
0.0000

> <Gold.Chemscore.Lipo>
28.9317

> <Gold.Chemscore.Internal_Hbond>
0.0000

> <Gold.Chemscore.DEClash>
0.3168

> <Gold.Chemscore.DEInternal>
0.2872

> <Gold.Chemscore.Rot>
4.0403

> <Gold.Chemscore.Internal.Correction>
   9.000000E+99

> <Gold.Chemscore.Hbonds>
donor molecule, donor type, donor heavy atom, donor atom, acceptor molecule, acceptor atom, score
      L1  H    10    26       P1  8028  0.74
      L1  H    12    27       P1  8028  1.00
      P1  H  7997  8008       L1    16  0.71
      P1  H 10752 10765       L1    17  0.20

> <Gold.Chemscore.Hbond.Weighted>
-9.9241

> <Gold.Chemscore.Metal.Weighted>
-0.0000

> <Gold.Chemscore.Lipo.Weighted>
-3.3850

> <Gold.Chemscore.Internal_Hbond.Weighted>
0.0000

> <Gold.Chemscore.DEClash.Weighted>
0.3168

> <Gold.Chemscore.DEInternal.Weighted>
0.2872

> <Gold.Chemscore.Rot.Weighted>
10.3431

> <Gold.Chemscore.Internal.Correction.Weighted>
   9.000000E+99

> <Gold.Protein.RotatedTorsions>
[ 6907 6896 6895 6894 ] final -130.46 input  -60.11 | X-H torsion
[ 7974 7965 7964 7962 ] final  -41.36 input  175.53 | X-H torsion
[ 8008 7997 7996 7995 ] final  -44.30 input   59.86 | X-H torsion
[ 10167 10162 10161 10158 ] final -146.97 input  -65.29 | X-H torsion
[ 10718 10713 10712 10709 ] final  -62.70 input   66.30 | X-H torsion
[ 10763 10752 10751 10750 ] final -127.92 input  -60.55 | X-H torsion
[ 11005 11000 10999 10996 ] final  156.65 input  -57.11 | X-H torsion

> <Gold.Protein.ActiveResidues>
 VAL166  LYS551  ARG553  GLY616  TRP617  ASP618  TYR619  PRO620  LYS621  CYS622 
 ASP623  PHE694  ASN695  SER759  ASP760  ASP761  ALA762  ILE779  LEU786  VAL792 
 PHE793  MET794  SER795  GLU796  ALA797  LYS798  CYS799  TRP800  GLU811  SER814 

> <Gold.Protein.RotatedAtoms>
  150.9400  133.6668  159.2792 H   0  0  0  0  0  0  0  0  0  0  0  0  # atno 6907 bound_to 6896
  151.4060  135.0977  159.9580 H   0  0  0  0  0  0  0  0  0  0  0  0  # atno 6908 bound_to 6896
  152.5065  133.8883  159.7436 H   0  0  0  0  0  0  0  0  0  0  0  0  # atno 6909 bound_to 6896
  146.0218  140.6840  142.9174 H   0  0  0  0  0  0  0  0  0  0  0  0  # atno 7974 bound_to 7965
  154.3997  140.1425  156.3661 H   0  0  0  0  0  0  0  0  0  0  0  0  # atno 8008 bound_to 7997
  155.8136  140.3472  155.5451 H   0  0  0  0  0  0  0  0  0  0  0  0  # atno 8009 bound_to 7997
  155.8361  140.0919  157.1753 H   0  0  0  0  0  0  0  0  0  0  0  0  # atno 8010 bound_to 7997
  139.7664  143.8301  152.2617 H   0  0  0  0  0  0  0  0  0  0  0  0  # atno 10167 bound_to 10162
  156.0838  130.4212  150.1172 H   0  0  0  0  0  0  0  0  0  0  0  0  # atno 10718 bound_to 10713
  154.8754  135.3946  154.3672 H   0  0  0  0  0  0  0  0  0  0  0  0  # atno 10763 bound_to 10752
  153.4436  135.7027  153.6158 H   0  0  0  0  0  0  0  0  0  0  0  0  # atno 10764 bound_to 10752
  153.4728  135.3786  155.2369 H   0  0  0  0  0  0  0  0  0  0  0  0  # atno 10765 bound_to 10752
  140.1695  134.8553  157.2672 H   0  0  0  0  0  0  0  0  0  0  0  0  # atno 11005 bound_to 11000
  144.6993  140.3580  143.7169 LP  0  0  0  0  0  0  0  0  0  0  0  0  # atno 17320 bound_to 7965
  145.7180  139.1702  143.2501 LP  0  0  0  0  0  0  0  0  0  0  0  0  # atno 17321 bound_to 7965
  139.8323  144.7248  150.9435 LP  0  0  0  0  0  0  0  0  0  0  0  0  # atno 17342 bound_to 10162
  140.7811  143.4059  151.1072 LP  0  0  0  0  0  0  0  0  0  0  0  0  # atno 17343 bound_to 10162
  156.9198  130.9679  151.3550 LP  0  0  0  0  0  0  0  0  0  0  0  0  # atno 17370 bound_to 10713
  157.5965  130.8481  149.8737 LP  0  0  0  0  0  0  0  0  0  0  0  0  # atno 17371 bound_to 10713
  140.2394  134.3813  155.7487 LP  0  0  0  0  0  0  0  0  0  0  0  0  # atno 17394 bound_to 11000
  141.2216  133.7257  156.8766 LP  0  0  0  0  0  0  0  0  0  0  0  0  # atno 17395 bound_to 11000

$$$$
