AV-unprocessed.smi:3067|AV-procd|sdf|11694|dock3
  -GOLD-   2272017 93D 1   1.00000     0.00000
 Structure written by MMmdl.
 34 35  0  0  0  0  0  0  0  0  1 V2000
  144.4626  135.5709  152.4620 C   0  0  0  0  0  0  0  0  0  0  0  0
  145.4647  135.4108  151.4703 O   0  0  0  0  0  0  0  0  0  0  0  0
  145.6272  134.0734  151.0110 C   0  0  2  0  0  0  0  0  0  0  0  0
  144.2461  133.4823  150.6538 C   0  0  0  0  0  0  0  0  0  0  0  0
  144.3393  131.9913  150.2986 C   0  0  0  0  0  0  0  0  0  0  0  0
  144.9975  131.1958  151.4337 C   0  0  0  0  0  0  0  0  0  0  0  0
  146.3782  131.7718  151.7784 C   0  0  0  0  0  0  0  0  0  0  0  0
  146.2948  133.2688  152.1486 C   0  0  1  0  0  0  0  0  0  0  0  0
  147.6232  133.8015  152.4302 N   0  0  0  0  0  0  0  0  0  0  0  0
  148.4188  133.3255  153.4836 C   0  0  0  0  0  0  0  0  0  0  0  0
  148.6560  131.9535  153.7337 C   0  0  0  0  0  0  0  0  0  0  0  0
  149.4688  131.5873  154.8236 C   0  0  0  0  0  0  0  0  0  0  0  0
  150.0185  132.6048  155.6312 C   0  0  0  0  0  0  0  0  0  0  0  0
  150.8579  132.2476  156.7620 C   0  0  0  0  0  0  0  0  0  0  0  0
  151.5264  131.9637  157.6629 N   0  0  0  0  0  0  0  0  0  0  0  0
  149.7983  133.9172  155.4013 N   0  0  0  0  0  0  0  0  0  0  0  0
  149.0185  134.2601  154.3539 C   0  0  0  0  0  0  0  0  0  0  0  0
  144.3861  136.6241  152.7316 H   0  0  0  0  0  0  0  0  0  0  0  0
  144.6943  135.0135  153.3691 H   0  0  0  0  0  0  0  0  0  0  0  0
  143.4878  135.2503  152.0929 H   0  0  0  0  0  0  0  0  0  0  0  0
  146.2774  134.0480  150.1338 H   0  0  0  0  0  0  0  0  0  0  0  0
  143.5667  133.6103  151.4975 H   0  0  0  0  0  0  0  0  0  0  0  0
  143.8020  134.0204  149.8169 H   0  0  0  0  0  0  0  0  0  0  0  0
  143.3441  131.5948  150.0952 H   0  0  0  0  0  0  0  0  0  0  0  0
  144.9160  131.8681  149.3811 H   0  0  0  0  0  0  0  0  0  0  0  0
  144.3591  131.2194  152.3178 H   0  0  0  0  0  0  0  0  0  0  0  0
  145.0923  130.1481  151.1467 H   0  0  0  0  0  0  0  0  0  0  0  0
  146.8131  131.1969  152.5959 H   0  0  0  0  0  0  0  0  0  0  0  0
  147.0461  131.6404  150.9256 H   0  0  0  0  0  0  0  0  0  0  0  0
  145.6720  133.3819  153.0364 H   0  0  0  0  0  0  0  0  0  0  0  0
  147.9288  134.6120  151.9105 H   0  0  0  0  0  0  0  0  0  0  0  0
  148.2334  131.1787  153.1125 H   0  0  0  0  0  0  0  0  0  0  0  0
  149.6623  130.5447  155.0314 H   0  0  0  0  0  0  0  0  0  0  0  0
  148.8680  135.3199  154.2079 H   0  0  0  0  0  0  0  0  0  0  0  0
  1  2  1  0  0  0  0
  1 18  1  0  0  0  0
  1 19  1  0  0  0  0
  1 20  1  0  0  0  0
  2  3  1  0  0  0  0
  3  8  1  0  0  0  0
  3  4  1  0  0  0  0
  3 21  1  0  0  0  0
  4  5  1  0  0  0  0
  4 22  1  0  0  0  0
  4 23  1  0  0  0  0
  5  6  1  0  0  0  0
  5 24  1  0  0  0  0
  5 25  1  0  0  0  0
  6  7  1  0  0  0  0
  6 26  1  0  0  0  0
  6 27  1  0  0  0  0
  7  8  1  0  0  0  0
  7 28  1  0  0  0  0
  7 29  1  0  0  0  0
  8  9  1  0  0  0  0
  8 30  1  0  0  0  0
  9 10  1  0  0  0  0
  9 31  1  0  0  0  0
 10 17  1  0  0  0  0
 10 11  2  0  0  0  0
 11 12  1  0  0  0  0
 11 32  1  0  0  0  0
 12 13  2  0  0  0  0
 12 33  1  0  0  0  0
 13 14  1  0  0  0  0
 13 16  1  0  0  0  0
 14 15  3  0  0  0  0
 16 17  2  0  0  0  0
 17 34  1  0  0  0  0
M  END
> <s_m_source_file>
AV-unprocessed.smi

> <i_m_source_file_index>
3067

> <i_lp_mmshare_version>
43012

> <i_f3d_flags>
0

> <s_epik_input>
W0NIM11PW0NAQEhdMVtDSDJdW0NIMl1bQ0gyXVtDSDJdW0NASF0xW05IXWMyW2NIXVtjSF1jKEMjTiluW2NIXTI=

> <s_epik_cmdline>
J2VwaWtfcHl0aG9uJywgJy1waCcsICc3LjAnLCAnLXRuJywgJzgnLCAnLW1hJywgJzIwMCcsICctbWV0YWxfYmluZGluZycsICctaW1hZScsICc8aW5maWxlLm1hZT4nLCAnLW9tYWUnLCAnPG91dGZpbGUubWFlPic=

> <r_lp_tautomer_probability>
1

> <r_epik_Ionization_Penalty>
2.01011e-07

> <r_epik_Ionization_Penalty_Charging>
0

> <r_epik_Ionization_Penalty_Neutral>
2.01011e-07

> <r_epik_State_Penalty>
-0

> <r_epik_Charging_Adjusted_Penalty>
0

> <i_epik_Tot_Q>
0

> <i_epik_Tot_abs_Q>
0

> <r_epik_Metal_State_Penalty>
-0

> <b_epik_Metal_Only>
0

> <s_lp_Force_Field>
OPLS_2005

> <r_lp_Energy>
16.9027

> <b_lp_Chiralities_Consistent>
1

> <s_lp_Variant>
AV-unprocessed.smi:3067-1

> <Gold.Version>
5.8.1

> <Gold.Id.Protein>
6NUR|6NUR_protein|mol2

> <Gold.PLP.Fitness>
37.9854

> <Gold.PLP.PLP>
-30.7668

> <Gold.PLP.part.hbond>
-1.9945

> <Gold.PLP.part.metal>
0.0000

> <Gold.PLP.part.buried>
-3.1973

> <Gold.PLP.part.nonpolar>
-26.2933

> <Gold.PLP.part.repulsive>
0.2587

> <Gold.PLP.ligand.clash>
0.0000

> <Gold.PLP.ligand.torsion>
0.4951

> <Gold.PLP.Chemscore.Hbond>
1.9920

> <Gold.PLP.Chemscore.CHOScore>
0.7420

> <Gold.PLP.Chemscore.Metal>
0.0000

> <Gold.Chemscore.Hbonds>
donor molecule, donor type, donor heavy atom, donor atom, acceptor molecule, acceptor atom, score
      L1  H     9    31       P1  7948  0.94
      P1  H  6896  6908       L1    15  0.91
      L1  C    17    34       P1  7948  0.75

> <Gold.PLP.Chemscore.Internal.Correction>
0.0068

> <Gold.Rescore>
     Score         DG    S(hbond)    S(metal)    S(lipo)     H(rot)  DE(clash)    DE(int)     intcor
     16.50     -17.21       1.85        0.00      73.82       1.20       0.12       0.59       ----

> <Gold.Chemscore.Fitness>
16.4967

> <Gold.Chemscore.DG>
-17.2069

> <Gold.Chemscore.ZeroCoef>
-5.4800

> <Gold.Chemscore.Hbond>
1.8457

> <Gold.Chemscore.Metal>
0.0000

> <Gold.Chemscore.Lipo>
73.8231

> <Gold.Chemscore.Internal_Hbond>
0.0000

> <Gold.Chemscore.DEClash>
0.1162

> <Gold.Chemscore.DEInternal>
0.5939

> <Gold.Chemscore.Rot>
1.2012

> <Gold.Chemscore.Internal.Correction>
   9.000000E+99

> <Gold.Chemscore.Hbonds>
donor molecule, donor type, donor heavy atom, donor atom, acceptor molecule, acceptor atom, score
      L1  H     9    31       P1  7948  0.20
      P1  H  6896  6908       L1    15  0.81

> <Gold.Chemscore.Hbond.Weighted>
-6.1645

> <Gold.Chemscore.Metal.Weighted>
-0.0000

> <Gold.Chemscore.Lipo.Weighted>
-8.6373

> <Gold.Chemscore.Internal_Hbond.Weighted>
0.0000

> <Gold.Chemscore.DEClash.Weighted>
0.1162

> <Gold.Chemscore.DEInternal.Weighted>
0.5939

> <Gold.Chemscore.Rot.Weighted>
3.0750

> <Gold.Chemscore.Internal.Correction.Weighted>
   9.000000E+99

> <Gold.Protein.RotatedTorsions>
[ 6907 6896 6895 6894 ] final   66.11 input  -60.11 | X-H torsion
[ 7974 7965 7964 7962 ] final -151.02 input  175.53 | X-H torsion
[ 8008 7997 7996 7995 ] final  -63.41 input   59.86 | X-H torsion
[ 10167 10162 10161 10158 ] final  -16.36 input  -65.29 | X-H torsion
[ 10718 10713 10712 10709 ] final  -36.60 input   66.30 | X-H torsion
[ 10763 10752 10751 10750 ] final -167.51 input  -60.55 | X-H torsion
[ 11005 11000 10999 10996 ] final   97.47 input  -57.11 | X-H torsion

> <Gold.Protein.ActiveResidues>
 VAL166  LYS551  ARG553  GLY616  TRP617  ASP618  TYR619  PRO620  LYS621  CYS622 
 ASP623  PHE694  ASN695  SER759  ASP760  ASP761  ALA762  ILE779  LEU786  VAL792 
 PHE793  MET794  SER795  GLU796  ALA797  LYS798  CYS799  TRP800  GLU811  SER814 

> <Gold.Protein.RotatedAtoms>
  152.4457  134.5499  159.9863 H   0  0  0  0  0  0  0  0  0  0  0  0  # atno 6907 bound_to 6896
  151.5585  133.3401  159.2974 H   0  0  0  0  0  0  0  0  0  0  0  0  # atno 6908 bound_to 6896
  150.8373  134.7684  159.6967 H   0  0  0  0  0  0  0  0  0  0  0  0  # atno 6909 bound_to 6896
  144.7874  140.4854  143.5797 H   0  0  0  0  0  0  0  0  0  0  0  0  # atno 7974 bound_to 7965
  154.4553  140.0975  156.6738 H   0  0  0  0  0  0  0  0  0  0  0  0  # atno 8008 bound_to 7997
  155.5158  140.3477  155.4378 H   0  0  0  0  0  0  0  0  0  0  0  0  # atno 8009 bound_to 7997
  156.0764  140.1362  156.9754 H   0  0  0  0  0  0  0  0  0  0  0  0  # atno 8010 bound_to 7997
  140.7232  143.5124  150.9734 H   0  0  0  0  0  0  0  0  0  0  0  0  # atno 10167 bound_to 10162
  156.3249  130.4271  149.7925 H   0  0  0  0  0  0  0  0  0  0  0  0  # atno 10718 bound_to 10713
  154.6724  135.2941  154.9724 H   0  0  0  0  0  0  0  0  0  0  0  0  # atno 10763 bound_to 10752
  154.0746  135.6613  153.4833 H   0  0  0  0  0  0  0  0  0  0  0  0  # atno 10764 bound_to 10752
  153.0495  135.5183  154.7727 H   0  0  0  0  0  0  0  0  0  0  0  0  # atno 10765 bound_to 10752
  139.8776  134.9002  156.4312 H   0  0  0  0  0  0  0  0  0  0  0  0  # atno 11005 bound_to 11000
  145.5885  139.1494  143.3195 LP  0  0  0  0  0  0  0  0  0  0  0  0  # atno 17320 bound_to 7965
  146.2112  140.6012  142.9059 LP  0  0  0  0  0  0  0  0  0  0  0  0  # atno 17321 bound_to 7965
  139.8838  143.7039  152.3154 LP  0  0  0  0  0  0  0  0  0  0  0  0  # atno 17342 bound_to 10162
  139.7330  144.7578  151.0772 LP  0  0  0  0  0  0  0  0  0  0  0  0  # atno 17343 bound_to 10162
  156.5219  130.8219  151.3207 LP  0  0  0  0  0  0  0  0  0  0  0  0  # atno 17370 bound_to 10713
  157.7419  130.9880  150.2480 LP  0  0  0  0  0  0  0  0  0  0  0  0  # atno 17371 bound_to 10713
  140.9065  133.7742  155.9741 LP  0  0  0  0  0  0  0  0  0  0  0  0  # atno 17394 bound_to 11000
  140.8593  134.2859  157.5241 LP  0  0  0  0  0  0  0  0  0  0  0  0  # atno 17395 bound_to 11000

$$$$
