AV-unprocessed.smi:2349|AV-procd|sdf|9371|dock6
  -GOLD-   2272012593D 1   1.00000     0.00000
 Structure written by MMmdl.
 52 53  0  0  0  0  0  0  0  0  1 V2000
  158.5433  133.7836  151.2335 C   0  0  0  0  0  0  0  0  0  0  0  0
  157.8864  134.6313  152.3026 C   0  0  0  0  0  0  0  0  0  0  0  0
  156.7031  135.3501  152.0312 C   0  0  0  0  0  0  0  0  0  0  0  0
  156.1361  136.1225  153.0632 C   0  0  0  0  0  0  0  0  0  0  0  0
  156.7718  136.1482  154.3212 C   0  0  0  0  0  0  0  0  0  0  0  0
  156.1904  136.9544  155.4701 C   0  0  0  0  0  0  0  0  0  0  0  0
  155.9941  136.1297  156.7535 C   0  0  0  0  0  0  0  0  0  0  0  0
  155.3904  136.9313  157.8100 N   0  0  0  0  0  0  0  0  0  0  0  0
  154.0786  136.9915  158.0851 C   0  0  0  0  0  0  0  0  0  0  0  0
  153.2447  136.3652  157.4296 O   0  0  0  0  0  0  0  0  0  0  0  0
  153.7584  137.7868  159.1376 N   0  0  0  0  0  0  0  0  0  0  0  0
  154.7029  138.4327  160.0646 C   0  0  0  0  0  0  0  0  0  0  0  0
  154.7401  139.9401  159.7582 C   0  0  0  0  0  0  0  0  0  0  0  0
  153.3338  140.5721  159.8672 C   0  0  0  0  0  0  0  0  0  0  0  0
  153.3709  142.0664  159.4669 C   0  0  0  0  0  0  0  0  0  0  0  0
  152.3157  142.9559  160.1559 C   0  0  0  0  0  0  0  0  0  0  0  0
  152.1373  142.8479  161.3705 O   0  0  0  0  0  0  0  0  0  0  0  0
  151.6164  143.8392  159.4055 N   0  0  0  0  0  0  0  0  0  0  0  0
  150.5692  144.6696  160.0050 C   0  0  0  0  0  0  0  0  0  0  0  0
  151.8633  144.0578  157.9779 C   0  0  0  0  0  0  0  0  0  0  0  0
  152.3072  139.7536  159.0441 C   0  0  0  0  0  0  0  0  0  0  0  0
  152.3872  138.2519  159.3752 C   0  0  0  0  0  0  0  0  0  0  0  0
  157.9550  135.3965  154.4868 C   0  0  0  0  0  0  0  0  0  0  0  0
  158.5038  134.6504  153.5046 N   0  0  0  0  0  0  0  0  0  0  0  0
  157.9100  133.7019  150.3497 H   0  0  0  0  0  0  0  0  0  0  0  0
  158.7347  132.7773  151.6071 H   0  0  0  0  0  0  0  0  0  0  0  0
  159.4933  134.2258  150.9328 H   0  0  0  0  0  0  0  0  0  0  0  0
  156.2382  135.3115  151.0570 H   0  0  0  0  0  0  0  0  0  0  0  0
  155.2278  136.6814  152.8922 H   0  0  0  0  0  0  0  0  0  0  0  0
  156.8483  137.7999  155.6761 H   0  0  0  0  0  0  0  0  0  0  0  0
  155.2370  137.3820  155.1572 H   0  0  0  0  0  0  0  0  0  0  0  0
  155.3776  135.2546  156.5426 H   0  0  0  0  0  0  0  0  0  0  0  0
  156.9586  135.7636  157.1084 H   0  0  0  0  0  0  0  0  0  0  0  0
  156.0191  137.4681  158.3895 H   0  0  0  0  0  0  0  0  0  0  0  0
  154.3656  138.2707  161.0895 H   0  0  0  0  0  0  0  0  0  0  0  0
  155.7121  138.0226  160.0302 H   0  0  0  0  0  0  0  0  0  0  0  0
  155.4262  140.4364  160.4455 H   0  0  0  0  0  0  0  0  0  0  0  0
  155.1412  140.0950  158.7554 H   0  0  0  0  0  0  0  0  0  0  0  0
  153.0446  140.5036  160.9173 H   0  0  0  0  0  0  0  0  0  0  0  0
  154.3498  142.4809  159.7100 H   0  0  0  0  0  0  0  0  0  0  0  0
  153.2651  142.1330  158.3838 H   0  0  0  0  0  0  0  0  0  0  0  0
  149.9356  144.0876  160.6762 H   0  0  0  0  0  0  0  0  0  0  0  0
  149.9107  145.1094  159.2553 H   0  0  0  0  0  0  0  0  0  0  0  0
  151.0159  145.4828  160.5786 H   0  0  0  0  0  0  0  0  0  0  0  0
  152.9295  144.1477  157.7664 H   0  0  0  0  0  0  0  0  0  0  0  0
  151.3972  144.9743  157.6154 H   0  0  0  0  0  0  0  0  0  0  0  0
  151.4629  143.2294  157.3924 H   0  0  0  0  0  0  0  0  0  0  0  0
  151.2934  140.1075  159.2302 H   0  0  0  0  0  0  0  0  0  0  0  0
  152.4910  139.8972  157.9784 H   0  0  0  0  0  0  0  0  0  0  0  0
  151.6477  137.7036  158.7900 H   0  0  0  0  0  0  0  0  0  0  0  0
  152.1208  138.0825  160.4195 H   0  0  0  0  0  0  0  0  0  0  0  0
  158.4702  135.3832  155.4360 H   0  0  0  0  0  0  0  0  0  0  0  0
  1  2  1  0  0  0  0
  1 25  1  0  0  0  0
  1 26  1  0  0  0  0
  1 27  1  0  0  0  0
  2 24  1  0  0  0  0
  2  3  2  0  0  0  0
  3  4  1  0  0  0  0
  3 28  1  0  0  0  0
  4  5  2  0  0  0  0
  4 29  1  0  0  0  0
  5  6  1  0  0  0  0
  5 23  1  0  0  0  0
  6  7  1  0  0  0  0
  6 30  1  0  0  0  0
  6 31  1  0  0  0  0
  7  8  1  0  0  0  0
  7 32  1  0  0  0  0
  7 33  1  0  0  0  0
  8  9  1  0  0  0  0
  8 34  1  0  0  0  0
  9 10  2  0  0  0  0
  9 11  1  0  0  0  0
 11 22  1  0  0  0  0
 11 12  1  0  0  0  0
 12 13  1  0  0  0  0
 12 35  1  0  0  0  0
 12 36  1  0  0  0  0
 13 14  1  0  0  0  0
 13 37  1  0  0  0  0
 13 38  1  0  0  0  0
 14 15  1  0  0  0  0
 14 21  1  0  0  0  0
 14 39  1  0  0  0  0
 15 16  1  0  0  0  0
 15 40  1  0  0  0  0
 15 41  1  0  0  0  0
 16 17  2  0  0  0  0
 16 18  1  0  0  0  0
 18 19  1  0  0  0  0
 18 20  1  0  0  0  0
 19 42  1  0  0  0  0
 19 43  1  0  0  0  0
 19 44  1  0  0  0  0
 20 45  1  0  0  0  0
 20 46  1  0  0  0  0
 20 47  1  0  0  0  0
 21 22  1  0  0  0  0
 21 48  1  0  0  0  0
 21 49  1  0  0  0  0
 22 50  1  0  0  0  0
 22 51  1  0  0  0  0
 23 24  2  0  0  0  0
 23 52  1  0  0  0  0
M  END
> <s_m_source_file>
AV-unprocessed.smi

> <i_m_source_file_index>
2349

> <i_lp_mmshare_version>
43012

> <i_f3d_flags>
0

> <s_epik_input>
W0NIM11jMVtjSF1bY0hdYyhbY0hdbjEpW0NIMl1bQ0gyXVtOSF1DKD1PKU4yW0NIMl1bQ0gyXVtDSF0oW0NIMl1bQ0gyXTIpW0NIMl1DKD1PKU4oW0NIM10pW0NIM10=

> <s_epik_cmdline>
J2VwaWtfcHl0aG9uJywgJy1waCcsICc3LjAnLCAnLXRuJywgJzgnLCAnLW1hJywgJzIwMCcsICctbWV0YWxfYmluZGluZycsICctaW1hZScsICc8aW5maWxlLm1hZT4nLCAnLW9tYWUnLCAnPG91dGZpbGUubWFlPic=

> <r_epik_Ionization_Penalty>
0.0570544

> <r_epik_Ionization_Penalty_Charging>
0

> <r_epik_Ionization_Penalty_Neutral>
0.0570544

> <r_epik_State_Penalty>
0.0491874

> <r_epik_Charging_Adjusted_Penalty>
0.0491874

> <i_epik_Tot_Q>
0

> <i_epik_Tot_abs_Q>
0

> <r_epik_Metal_State_Penalty>
0.0448474

> <b_epik_Metal_Only>
0

> <s_lp_Force_Field>
OPLS_2005

> <r_lp_Energy>
37.0132

> <b_lp_Chiralities_Consistent>
1

> <s_lp_Variant>
AV-unprocessed.smi:2349-1

> <Gold.Version>
5.8.1

> <Gold.Id.Protein>
6NUR|6NUR_protein|mol2

> <Gold.PLP.Fitness>
50.4731

> <Gold.PLP.PLP>
-49.3435

> <Gold.PLP.part.hbond>
-1.9715

> <Gold.PLP.part.metal>
0.0000

> <Gold.PLP.part.buried>
-6.8545

> <Gold.PLP.part.nonpolar>
-42.3924

> <Gold.PLP.part.repulsive>
0.3145

> <Gold.PLP.ligand.clash>
0.0000

> <Gold.PLP.ligand.torsion>
0.7968

> <Gold.PLP.Chemscore.Hbond>
0.8707

> <Gold.PLP.Chemscore.CHOScore>
0.0000

> <Gold.PLP.Chemscore.Metal>
0.0000

> <Gold.Chemscore.Hbonds>
donor molecule, donor type, donor heavy atom, donor atom, acceptor molecule, acceptor atom, score
      P1  H 10752 10765       L1    10  0.28

> <Gold.PLP.Chemscore.Internal.Correction>
0.1109

> <Gold.Rescore>
     Score         DG    S(hbond)    S(metal)    S(lipo)     H(rot)  DE(clash)    DE(int)     intcor
     18.22     -19.14       0.97        0.00     125.59       1.66       0.15       0.78       ----

> <Gold.Chemscore.Fitness>
18.2204

> <Gold.Chemscore.DG>
-19.1440

> <Gold.Chemscore.ZeroCoef>
-5.4800

> <Gold.Chemscore.Hbond>
0.9651

> <Gold.Chemscore.Metal>
0.0000

> <Gold.Chemscore.Lipo>
125.5852

> <Gold.Chemscore.Internal_Hbond>
0.0000

> <Gold.Chemscore.DEClash>
0.1476

> <Gold.Chemscore.DEInternal>
0.7761

> <Gold.Chemscore.Rot>
1.6612

> <Gold.Chemscore.Internal.Correction>
   9.000000E+99

> <Gold.Chemscore.Hbonds>
donor molecule, donor type, donor heavy atom, donor atom, acceptor molecule, acceptor atom, score
      P1  H  6933  6945       L1    17  0.01
      P1  H 10752 10765       L1    10  0.27

> <Gold.Chemscore.Hbond.Weighted>
-3.2233

> <Gold.Chemscore.Metal.Weighted>
-0.0000

> <Gold.Chemscore.Lipo.Weighted>
-14.6935

> <Gold.Chemscore.Internal_Hbond.Weighted>
0.0000

> <Gold.Chemscore.DEClash.Weighted>
0.1476

> <Gold.Chemscore.DEInternal.Weighted>
0.7761

> <Gold.Chemscore.Rot.Weighted>
4.2528

> <Gold.Chemscore.Internal.Correction.Weighted>
   9.000000E+99

> <Gold.Protein.RotatedTorsions>
[ 6907 6896 6895 6894 ] final -129.07 input  -60.11 | X-H torsion
[ 7974 7965 7964 7962 ] final  -94.56 input  175.53 | X-H torsion
[ 8008 7997 7996 7995 ] final  144.40 input   59.86 | X-H torsion
[ 10167 10162 10161 10158 ] final -142.67 input  -65.29 | X-H torsion
[ 10718 10713 10712 10709 ] final -128.56 input   66.30 | X-H torsion
[ 10763 10752 10751 10750 ] final -119.25 input  -60.55 | X-H torsion
[ 11005 11000 10999 10996 ] final  -13.77 input  -57.11 | X-H torsion

> <Gold.Protein.ActiveResidues>
 VAL166  LYS551  ARG553  GLY616  TRP617  ASP618  TYR619  PRO620  LYS621  CYS622 
 ASP623  PHE694  ASN695  SER759  ASP760  ASP761  ALA762  ILE779  LEU786  VAL792 
 PHE793  MET794  SER795  GLU796  ALA797  LYS798  CYS799  TRP800  GLU811  SER814 

> <Gold.Protein.RotatedAtoms>
  150.9247  133.6838  159.2823 H   0  0  0  0  0  0  0  0  0  0  0  0  # atno 6907 bound_to 6896
  151.4280  135.1005  159.9643 H   0  0  0  0  0  0  0  0  0  0  0  0  # atno 6908 bound_to 6896
  152.4997  133.8684  159.7341 H   0  0  0  0  0  0  0  0  0  0  0  0  # atno 6909 bound_to 6896
  145.3717  140.9506  143.2443 H   0  0  0  0  0  0  0  0  0  0  0  0  # atno 7974 bound_to 7965
  156.2909  140.2237  156.5047 H   0  0  0  0  0  0  0  0  0  0  0  0  # atno 8008 bound_to 7997
  154.7660  140.0470  157.1034 H   0  0  0  0  0  0  0  0  0  0  0  0  # atno 8009 bound_to 7997
  154.9932  140.3092  155.4901 H   0  0  0  0  0  0  0  0  0  0  0  0  # atno 8010 bound_to 7997
  139.8066  143.7760  152.2661 H   0  0  0  0  0  0  0  0  0  0  0  0  # atno 10167 bound_to 10162
  156.1963  130.6828  151.0485 H   0  0  0  0  0  0  0  0  0  0  0  0  # atno 10718 bound_to 10713
  154.8611  135.4245  154.2268 H   0  0  0  0  0  0  0  0  0  0  0  0  # atno 10763 bound_to 10752
  153.3261  135.6985  153.6993 H   0  0  0  0  0  0  0  0  0  0  0  0  # atno 10764 bound_to 10752
  153.6029  135.3533  155.2925 H   0  0  0  0  0  0  0  0  0  0  0  0  # atno 10765 bound_to 10752
  140.7796  133.8373  155.9280 H   0  0  0  0  0  0  0  0  0  0  0  0  # atno 11005 bound_to 11000
  144.8571  139.5232  143.6829 LP  0  0  0  0  0  0  0  0  0  0  0  0  # atno 17320 bound_to 7965
  146.2882  139.7064  142.9180 LP  0  0  0  0  0  0  0  0  0  0  0  0  # atno 17321 bound_to 7965
  139.7896  144.7415  150.9973 LP  0  0  0  0  0  0  0  0  0  0  0  0  # atno 17342 bound_to 10162
  140.7819  143.4456  151.0488 LP  0  0  0  0  0  0  0  0  0  0  0  0  # atno 17343 bound_to 10162
  157.6959  131.0794  150.6969 LP  0  0  0  0  0  0  0  0  0  0  0  0  # atno 17370 bound_to 10713
  156.7026  130.4628  149.5569 LP  0  0  0  0  0  0  0  0  0  0  0  0  # atno 17371 bound_to 10713
  140.9496  134.1796  157.4738 LP  0  0  0  0  0  0  0  0  0  0  0  0  # atno 17394 bound_to 11000
  139.8744  134.9904  156.5500 LP  0  0  0  0  0  0  0  0  0  0  0  0  # atno 17395 bound_to 11000

$$$$
