AV-unprocessed.smi:2063|AV-procd|sdf|8408|dock2
  -GOLD-   2272011 93D 1   1.00000     0.00000
 Structure written by MMmdl.
 39 40  0  0  0  0  0  0  0  0  1 V2000
  151.6759  141.6895  157.6111 C   0  0  0  0  0  0  0  0  0  0  0  0
  150.4912  141.5641  156.6419 C   0  0  0  0  0  0  0  0  0  0  0  0
  149.1304  141.7735  157.3221 C   0  0  0  0  0  0  0  0  0  0  0  0
  150.5385  140.2914  155.8550 C   0  0  0  0  0  0  0  0  0  0  0  0
  151.5574  139.9716  155.0455 N   0  0  0  0  0  0  0  0  0  0  0  0
  151.3764  138.7420  154.4289 N   0  0  0  0  0  0  0  0  0  0  0  0
  150.2214  138.1669  154.7900 C   0  0  0  0  0  0  0  0  0  0  0  0
  149.7872  136.9016  154.3132 N   0  0  0  0  0  0  0  0  0  0  0  0
  149.6757  135.7480  154.9950 C   0  0  0  0  0  0  0  0  0  0  0  0
  149.9618  135.5933  156.1824 O   0  0  0  0  0  0  0  0  0  0  0  0
  149.2021  134.7673  154.2116 N   0  0  0  0  0  0  0  0  0  0  0  0
  148.9583  133.3849  154.6219 C   0  0  2  0  0  0  0  0  0  0  0  0
  150.2718  132.7894  155.1499 C   0  0  0  0  0  0  0  0  0  0  0  0
  148.3880  132.5624  153.4472 C   0  0  2  0  0  0  0  0  0  0  0  0
  147.0635  133.0740  152.8775 C   0  0  0  0  0  0  0  0  0  0  0  0
  146.5178  131.8315  152.2131 C   0  0  0  0  0  0  0  0  0  0  0  0
  146.9351  130.7411  153.1956 C   0  0  0  0  0  0  0  0  0  0  0  0
  148.0985  131.2287  153.8604 O   0  0  0  0  0  0  0  0  0  0  0  0
  149.2520  139.0911  155.9242 S   0  0  0  0  0  0  0  0  0  0  0  0
  152.6256  141.6204  157.0800 H   0  0  0  0  0  0  0  0  0  0  0  0
  151.6574  140.9017  158.3650 H   0  0  0  0  0  0  0  0  0  0  0  0
  151.6575  142.6475  158.1315 H   0  0  0  0  0  0  0  0  0  0  0  0
  150.5998  142.3746  155.9202 H   0  0  0  0  0  0  0  0  0  0  0  0
  148.3210  141.7600  156.5915 H   0  0  0  0  0  0  0  0  0  0  0  0
  149.0928  142.7330  157.8386 H   0  0  0  0  0  0  0  0  0  0  0  0
  148.9296  140.9932  158.0569 H   0  0  0  0  0  0  0  0  0  0  0  0
  149.5222  136.8736  153.3399 H   0  0  0  0  0  0  0  0  0  0  0  0
  148.9930  134.9922  153.2500 H   0  0  0  0  0  0  0  0  0  0  0  0
  148.2370  133.3644  155.4409 H   0  0  0  0  0  0  0  0  0  0  0  0
  150.1266  131.7702  155.5086 H   0  0  0  0  0  0  0  0  0  0  0  0
  150.6618  133.3755  155.9827 H   0  0  0  0  0  0  0  0  0  0  0  0
  151.0374  132.7622  154.3736 H   0  0  0  0  0  0  0  0  0  0  0  0
  149.1202  132.5062  152.6397 H   0  0  0  0  0  0  0  0  0  0  0  0
  146.3954  133.3909  153.6797 H   0  0  0  0  0  0  0  0  0  0  0  0
  147.1889  133.9074  152.1859 H   0  0  0  0  0  0  0  0  0  0  0  0
  145.4406  131.8688  152.0483 H   0  0  0  0  0  0  0  0  0  0  0  0
  147.0070  131.6783  151.2502 H   0  0  0  0  0  0  0  0  0  0  0  0
  146.1552  130.5775  153.9399 H   0  0  0  0  0  0  0  0  0  0  0  0
  147.1313  129.7916  152.6971 H   0  0  0  0  0  0  0  0  0  0  0  0
  1  2  1  0  0  0  0
  1 20  1  0  0  0  0
  1 21  1  0  0  0  0
  1 22  1  0  0  0  0
  2  3  1  0  0  0  0
  2  4  1  0  0  0  0
  2 23  1  0  0  0  0
  3 24  1  0  0  0  0
  3 25  1  0  0  0  0
  3 26  1  0  0  0  0
  4 19  1  0  0  0  0
  4  5  2  0  0  0  0
  5  6  1  0  0  0  0
  6  7  2  0  0  0  0
  7  8  1  0  0  0  0
  7 19  1  0  0  0  0
  8  9  1  0  0  0  0
  8 27  1  0  0  0  0
  9 10  2  0  0  0  0
  9 11  1  0  0  0  0
 11 12  1  0  0  0  0
 11 28  1  0  0  0  0
 12 13  1  0  0  0  0
 12 14  1  0  0  0  0
 12 29  1  0  0  0  0
 13 30  1  0  0  0  0
 13 31  1  0  0  0  0
 13 32  1  0  0  0  0
 14 18  1  0  0  0  0
 14 15  1  0  0  0  0
 14 33  1  0  0  0  0
 15 16  1  0  0  0  0
 15 34  1  0  0  0  0
 15 35  1  0  0  0  0
 16 17  1  0  0  0  0
 16 36  1  0  0  0  0
 16 37  1  0  0  0  0
 17 18  1  0  0  0  0
 17 38  1  0  0  0  0
 17 39  1  0  0  0  0
M  END
> <s_m_source_file>
AV-unprocessed.smi

> <i_m_source_file_index>
2063

> <i_lp_mmshare_version>
43012

> <i_f3d_flags>
0

> <s_epik_input>
W0NIM11bQ0hdKFtDSDNdKWMxbm5jKHMxKVtOSF1DKD1PKVtOSF1bQ0BIXShbQ0gzXSlbQ0BASF0yW0NIMl1bQ0gyXVtDSDJdTzI=

> <s_epik_cmdline>
J2VwaWtfcHl0aG9uJywgJy1waCcsICc3LjAnLCAnLXRuJywgJzgnLCAnLW1hJywgJzIwMCcsICctbWV0YWxfYmluZGluZycsICctaW1hZScsICc8aW5maWxlLm1hZT4nLCAnLW9tYWUnLCAnPG91dGZpbGUubWFlPic=

> <r_lp_tautomer_probability>
1

> <r_epik_Ionization_Penalty>
0.00050567

> <r_epik_Ionization_Penalty_Charging>
0

> <r_epik_Ionization_Penalty_Neutral>
0.00050567

> <r_epik_State_Penalty>
-0

> <r_epik_Charging_Adjusted_Penalty>
0

> <i_epik_Tot_Q>
0

> <i_epik_Tot_abs_Q>
0

> <r_epik_Metal_State_Penalty>
0.219912

> <b_epik_Metal_Only>
0

> <s_lp_Force_Field>
OPLS_2005

> <r_lp_Energy>
10.8376

> <b_lp_Chiralities_Consistent>
1

> <s_lp_Variant>
AV-unprocessed.smi:2063-1

> <Gold.Version>
5.8.1

> <Gold.Id.Protein>
6NUR|6NUR_protein|mol2

> <Gold.PLP.Fitness>
34.7754

> <Gold.PLP.PLP>
-27.8871

> <Gold.PLP.part.hbond>
-3.4298

> <Gold.PLP.part.metal>
0.0000

> <Gold.PLP.part.buried>
-4.0164

> <Gold.PLP.part.nonpolar>
-20.8300

> <Gold.PLP.part.repulsive>
0.3227

> <Gold.PLP.ligand.clash>
0.0000

> <Gold.PLP.ligand.torsion>
0.7243

> <Gold.PLP.Chemscore.Hbond>
2.7500

> <Gold.PLP.Chemscore.CHOScore>
0.0000

> <Gold.PLP.Chemscore.Metal>
0.0000

> <Gold.Chemscore.Hbonds>
donor molecule, donor type, donor heavy atom, donor atom, acceptor molecule, acceptor atom, score
      L1  H     8    27       P1  7948  1.00
      L1  H    11    28       P1  7948  0.95
      P1  H  7989  7998       L1     5  0.70

> <Gold.PLP.Chemscore.Internal.Correction>
0.0869

> <Gold.Rescore>
     Score         DG    S(hbond)    S(metal)    S(lipo)     H(rot)  DE(clash)    DE(int)     intcor
     13.37     -14.13       1.76        0.00      54.55       1.42       0.00       0.76       ----

> <Gold.Chemscore.Fitness>
13.3688

> <Gold.Chemscore.DG>
-14.1304

> <Gold.Chemscore.ZeroCoef>
-5.4800

> <Gold.Chemscore.Hbond>
1.7638

> <Gold.Chemscore.Metal>
0.0000

> <Gold.Chemscore.Lipo>
54.5494

> <Gold.Chemscore.Internal_Hbond>
0.0000

> <Gold.Chemscore.DEClash>
0.0000

> <Gold.Chemscore.DEInternal>
0.7617

> <Gold.Chemscore.Rot>
1.4152

> <Gold.Chemscore.Internal.Correction>
   9.000000E+99

> <Gold.Chemscore.Hbonds>
donor molecule, donor type, donor heavy atom, donor atom, acceptor molecule, acceptor atom, score
      L1  H     8    27       P1  7948  0.78
      L1  H    11    28       P1  7948  0.20
      P1  H  7989  7998       L1     5  0.07

> <Gold.Chemscore.Hbond.Weighted>
-5.8911

> <Gold.Chemscore.Metal.Weighted>
-0.0000

> <Gold.Chemscore.Lipo.Weighted>
-6.3823

> <Gold.Chemscore.Internal_Hbond.Weighted>
0.0000

> <Gold.Chemscore.DEClash.Weighted>
0.0000

> <Gold.Chemscore.DEInternal.Weighted>
0.7617

> <Gold.Chemscore.Rot.Weighted>
3.6229

> <Gold.Chemscore.Internal.Correction.Weighted>
   9.000000E+99

> <Gold.Protein.RotatedTorsions>
[ 6907 6896 6895 6894 ] final  -94.18 input  -60.11 | X-H torsion
[ 7974 7965 7964 7962 ] final   11.40 input  175.53 | X-H torsion
[ 8008 7997 7996 7995 ] final  -97.12 input   59.86 | X-H torsion
[ 10167 10162 10161 10158 ] final  131.32 input  -65.29 | X-H torsion
[ 10718 10713 10712 10709 ] final   27.46 input   66.30 | X-H torsion
[ 10763 10752 10751 10750 ] final   71.81 input  -60.55 | X-H torsion
[ 11005 11000 10999 10996 ] final   18.79 input  -57.11 | X-H torsion

> <Gold.Protein.ActiveResidues>
 VAL166  LYS551  ARG553  GLY616  TRP617  ASP618  TYR619  PRO620  LYS621  CYS622 
 ASP623  PHE694  ASN695  SER759  ASP760  ASP761  ALA762  ILE779  LEU786  VAL792 
 PHE793  MET794  SER795  GLU796  ALA797  LYS798  CYS799  TRP800  GLU811  SER814 

> <Gold.Protein.RotatedAtoms>
  150.6937  134.1852  159.4263 H   0  0  0  0  0  0  0  0  0  0  0  0  # atno 6907 bound_to 6896
  151.9825  135.0019  160.0567 H   0  0  0  0  0  0  0  0  0  0  0  0  # atno 6908 bound_to 6896
  152.1742  133.4629  159.4961 H   0  0  0  0  0  0  0  0  0  0  0  0  # atno 6909 bound_to 6896
  146.2371  139.9491  142.8473 H   0  0  0  0  0  0  0  0  0  0  0  0  # atno 7974 bound_to 7965
  154.7835  140.0465  157.1145 H   0  0  0  0  0  0  0  0  0  0  0  0  # atno 8008 bound_to 7997
  154.9676  140.3085  155.4982 H   0  0  0  0  0  0  0  0  0  0  0  0  # atno 8009 bound_to 7997
  156.2940  140.2259  156.4767 H   0  0  0  0  0  0  0  0  0  0  0  0  # atno 8010 bound_to 7997
  139.5389  144.6711  151.4691 H   0  0  0  0  0  0  0  0  0  0  0  0  # atno 10167 bound_to 10162
  157.2205  130.6977  149.6268 H   0  0  0  0  0  0  0  0  0  0  0  0  # atno 10718 bound_to 10713
  153.0421  135.5123  154.7649 H   0  0  0  0  0  0  0  0  0  0  0  0  # atno 10763 bound_to 10752
  154.6578  135.2934  154.9907 H   0  0  0  0  0  0  0  0  0  0  0  0  # atno 10764 bound_to 10752
  154.0769  135.6669  153.4884 H   0  0  0  0  0  0  0  0  0  0  0  0  # atno 10765 bound_to 10752
  140.4209  134.1520  155.7673 H   0  0  0  0  0  0  0  0  0  0  0  0  # atno 11005 bound_to 11000
  145.1879  140.9798  143.4228 LP  0  0  0  0  0  0  0  0  0  0  0  0  # atno 17320 bound_to 7965
  144.9883  139.3714  143.6227 LP  0  0  0  0  0  0  0  0  0  0  0  0  # atno 17321 bound_to 7965
  140.6609  143.8499  150.6887 LP  0  0  0  0  0  0  0  0  0  0  0  0  # atno 17342 bound_to 10162
  140.1894  143.4049  152.1875 LP  0  0  0  0  0  0  0  0  0  0  0  0  # atno 17343 bound_to 10162
  155.9682  130.4521  150.5762 LP  0  0  0  0  0  0  0  0  0  0  0  0  # atno 17370 bound_to 10713
  157.3580  131.0745  151.1659 LP  0  0  0  0  0  0  0  0  0  0  0  0  # atno 17371 bound_to 10713
  141.1784  133.8465  157.1341 LP  0  0  0  0  0  0  0  0  0  0  0  0  # atno 17394 bound_to 11000
  140.0201  134.9949  157.0574 LP  0  0  0  0  0  0  0  0  0  0  0  0  # atno 17395 bound_to 11000

$$$$
