AV-unprocessed.smi:232|AV-procd|sdf|1781|dock3
  -GOLD-   2262020333D 1   1.00000     0.00000
 Structure written by MMmdl.
 52 55  0  0  0  0  0  0  0  0  1 V2000
  152.8700  145.2817  158.6001 C   0  0  0  0  0  0  0  0  0  0  0  0
  152.6509  143.9318  157.9068 C   0  0  0  0  0  0  0  0  0  0  0  0
  152.2912  142.7974  158.8885 C   0  0  2  0  0  0  0  0  0  0  0  0
  153.4895  142.2382  159.6680 C   0  0  0  0  0  0  0  0  0  0  0  0
  153.1496  140.7608  159.9000 C   0  0  0  0  0  0  0  0  0  0  0  0
  151.7965  140.5583  159.2061 C   0  0  2  0  0  0  0  0  0  0  0  0
  151.6270  139.1588  158.5916 C   0  0  0  0  0  0  0  0  0  0  0  0
  151.7190  141.6319  158.2236 N   0  0  0  0  0  0  0  0  0  0  0  0
  150.4994  141.8081  157.6632 C   0  0  0  0  0  0  0  0  0  0  0  0
  149.5221  142.4790  158.3294 N   0  0  0  0  0  0  0  0  0  0  0  0
  148.3252  142.6520  157.7601 C   0  0  0  0  0  0  0  0  0  0  0  0
  147.9039  142.2447  156.5602 N   0  0  0  0  0  0  0  0  0  0  0  0
  148.8844  141.5685  155.8950 C   0  0  0  0  0  0  0  0  0  0  0  0
  150.1984  141.3062  156.3709 C   0  0  0  0  0  0  0  0  0  0  0  0
  150.9186  140.5929  155.4213 N   0  0  0  0  0  0  0  0  0  0  0  0
  150.0762  140.4433  154.4349 C   0  0  0  0  0  0  0  0  0  0  0  0
  148.8331  141.0004  154.6355 N   0  0  0  0  0  0  0  0  0  0  0  0
  147.7145  140.9927  153.7106 C   0  0  0  0  0  0  0  0  0  0  0  0
  147.0419  139.6095  153.6203 C   0  0  1  0  0  0  0  0  0  0  0  0
  147.8223  138.7255  152.8367 O   0  0  0  0  0  0  0  0  0  0  0  0
  146.7509  138.9978  155.0053 C   0  0  1  0  0  0  0  0  0  0  0  0
  146.0546  137.6275  155.0190 C   0  0  0  0  0  0  0  0  0  0  0  0
  146.7674  136.8649  156.1281 C   0  0  0  0  0  0  0  0  0  0  0  0
  147.6226  137.9252  156.8168 C   0  0  0  0  0  0  0  0  0  0  0  0
  147.9372  138.8254  155.7681 O   0  0  0  0  0  0  0  0  0  0  0  0
  153.0867  146.0605  157.8687 H   0  0  0  0  0  0  0  0  0  0  0  0
  153.7072  145.2411  159.2971 H   0  0  0  0  0  0  0  0  0  0  0  0
  151.9832  145.5854  159.1566 H   0  0  0  0  0  0  0  0  0  0  0  0
  151.8509  144.0526  157.1756 H   0  0  0  0  0  0  0  0  0  0  0  0
  153.5419  143.6624  157.3382 H   0  0  0  0  0  0  0  0  0  0  0  0
  151.5657  143.1744  159.6118 H   0  0  0  0  0  0  0  0  0  0  0  0
  154.4055  142.3114  159.0800 H   0  0  0  0  0  0  0  0  0  0  0  0
  153.6507  142.7789  160.6010 H   0  0  0  0  0  0  0  0  0  0  0  0
  153.9206  140.1339  159.4497 H   0  0  0  0  0  0  0  0  0  0  0  0
  153.0954  140.5094  160.9595 H   0  0  0  0  0  0  0  0  0  0  0  0
  151.0085  140.7125  159.9457 H   0  0  0  0  0  0  0  0  0  0  0  0
  151.7319  138.3858  159.3529 H   0  0  0  0  0  0  0  0  0  0  0  0
  152.3751  138.9715  157.8207 H   0  0  0  0  0  0  0  0  0  0  0  0
  150.6432  139.0383  158.1371 H   0  0  0  0  0  0  0  0  0  0  0  0
  147.6019  143.1950  158.3504 H   0  0  0  0  0  0  0  0  0  0  0  0
  150.3415  139.9251  153.5246 H   0  0  0  0  0  0  0  0  0  0  0  0
  146.9964  141.7508  154.0263 H   0  0  0  0  0  0  0  0  0  0  0  0
  148.0813  141.2989  152.7301 H   0  0  0  0  0  0  0  0  0  0  0  0
  146.0890  139.7233  153.1017 H   0  0  0  0  0  0  0  0  0  0  0  0
  148.5255  139.2173  152.4410 H   0  0  0  0  0  0  0  0  0  0  0  0
  146.1263  139.6982  155.5631 H   0  0  0  0  0  0  0  0  0  0  0  0
  144.9900  137.7398  155.2272 H   0  0  0  0  0  0  0  0  0  0  0  0
  146.1477  137.0914  154.0744 H   0  0  0  0  0  0  0  0  0  0  0  0
  146.0794  136.3730  156.8164 H   0  0  0  0  0  0  0  0  0  0  0  0
  147.4108  136.0997  155.6918 H   0  0  0  0  0  0  0  0  0  0  0  0
  147.0511  138.4470  157.5863 H   0  0  0  0  0  0  0  0  0  0  0  0
  148.5200  137.5105  157.2765 H   0  0  0  0  0  0  0  0  0  0  0  0
  1  2  1  0  0  0  0
  1 26  1  0  0  0  0
  1 27  1  0  0  0  0
  1 28  1  0  0  0  0
  2  3  1  0  0  0  0
  2 29  1  0  0  0  0
  2 30  1  0  0  0  0
  3  8  1  0  0  0  0
  3  4  1  0  0  0  0
  3 31  1  0  0  0  0
  4  5  1  0  0  0  0
  4 32  1  0  0  0  0
  4 33  1  0  0  0  0
  5  6  1  0  0  0  0
  5 34  1  0  0  0  0
  5 35  1  0  0  0  0
  6  7  1  0  0  0  0
  6  8  1  0  0  0  0
  6 36  1  0  0  0  0
  7 37  1  0  0  0  0
  7 38  1  0  0  0  0
  7 39  1  0  0  0  0
  8  9  1  0  0  0  0
  9 14  1  0  0  0  0
  9 10  2  0  0  0  0
 10 11  1  0  0  0  0
 11 12  2  0  0  0  0
 11 40  1  0  0  0  0
 12 13  1  0  0  0  0
 13 17  1  0  0  0  0
 13 14  2  0  0  0  0
 14 15  1  0  0  0  0
 15 16  2  0  0  0  0
 16 17  1  0  0  0  0
 16 41  1  0  0  0  0
 17 18  1  0  0  0  0
 18 19  1  0  0  0  0
 18 42  1  0  0  0  0
 18 43  1  0  0  0  0
 19 20  1  0  0  0  0
 19 21  1  0  0  0  0
 19 44  1  0  0  0  0
 20 45  1  0  0  0  0
 21 25  1  0  0  0  0
 21 22  1  0  0  0  0
 21 46  1  0  0  0  0
 22 23  1  0  0  0  0
 22 47  1  0  0  0  0
 22 48  1  0  0  0  0
 23 24  1  0  0  0  0
 23 49  1  0  0  0  0
 23 50  1  0  0  0  0
 24 25  1  0  0  0  0
 24 51  1  0  0  0  0
 24 52  1  0  0  0  0
M  END
> <s_m_source_file>
AV-unprocessed.smi

> <i_m_source_file_index>
232

> <i_lp_mmshare_version>
43012

> <i_f3d_flags>
0

> <s_epik_input>
W0NIM11bQ0gyXVtDQEBIXTFbQ0gyXVtDSDJdW0NAQEhdKFtDSDNdKU4xYyhuW2NIXW4yKWMoYzIzKW5bY0hdbjNbQ0gyXVtDQEhdKFtPSF0pW0NAQEhdNFtDSDJdW0NIMl1bQ0gyXU80

> <s_epik_cmdline>
J2VwaWtfcHl0aG9uJywgJy1waCcsICc3LjAnLCAnLXRuJywgJzgnLCAnLW1hJywgJzIwMCcsICctbWV0YWxfYmluZGluZycsICctaW1hZScsICc8aW5maWxlLm1hZT4nLCAnLW9tYWUnLCAnPG91dGZpbGUubWFlPic=

> <r_lp_tautomer_probability>
1

> <r_epik_Ionization_Penalty>
0.00258048

> <r_epik_Ionization_Penalty_Charging>
0

> <r_epik_Ionization_Penalty_Neutral>
0.00258048

> <r_epik_State_Penalty>
0.00168551

> <r_epik_Charging_Adjusted_Penalty>
0.00168551

> <i_epik_Tot_Q>
0

> <i_epik_Tot_abs_Q>
0

> <r_epik_Metal_State_Penalty>
-0

> <b_epik_Metal_Only>
0

> <s_lp_Force_Field>
OPLS_2005

> <r_lp_Energy>
54.2714

> <b_lp_Chiralities_Consistent>
1

> <s_lp_Variant>
AV-unprocessed.smi:232-15

> <Gold.Version>
5.8.1

> <Gold.Id.Protein>
6NUR|6NUR_protein|mol2

> <Gold.PLP.Fitness>
45.9549

> <Gold.PLP.PLP>
-41.6296

> <Gold.PLP.part.hbond>
-2.8707

> <Gold.PLP.part.metal>
0.0000

> <Gold.PLP.part.buried>
-3.3354

> <Gold.PLP.part.nonpolar>
-34.8129

> <Gold.PLP.part.repulsive>
0.3215

> <Gold.PLP.ligand.clash>
0.0000

> <Gold.PLP.ligand.torsion>
0.8919

> <Gold.PLP.Chemscore.Hbond>
1.0000

> <Gold.PLP.Chemscore.CHOScore>
1.0000

> <Gold.PLP.Chemscore.Metal>
0.0000

> <Gold.Chemscore.Hbonds>
donor molecule, donor type, donor heavy atom, donor atom, acceptor molecule, acceptor atom, score
      L1  H    20    45       P1  7957  1.00
      L1  C    16    41       P1  7957  1.00

> <Gold.PLP.Chemscore.Internal.Correction>
0.1092

> <Gold.Rescore>
     Score         DG    S(hbond)    S(metal)    S(lipo)     H(rot)  DE(clash)    DE(int)     intcor
     10.29     -12.93       0.97        0.00      88.95       2.43       0.81       1.83       ----

> <Gold.Chemscore.Fitness>
10.2911

> <Gold.Chemscore.DG>
-12.9270

> <Gold.Chemscore.ZeroCoef>
-5.4800

> <Gold.Chemscore.Hbond>
0.9733

> <Gold.Chemscore.Metal>
0.0000

> <Gold.Chemscore.Lipo>
88.9477

> <Gold.Chemscore.Internal_Hbond>
0.0000

> <Gold.Chemscore.DEClash>
0.8103

> <Gold.Chemscore.DEInternal>
1.8256

> <Gold.Chemscore.Rot>
2.4260

> <Gold.Chemscore.Internal.Correction>
   9.000000E+99

> <Gold.Chemscore.Hbonds>
donor molecule, donor type, donor heavy atom, donor atom, acceptor molecule, acceptor atom, score
      L1  H    20    45       P1  7957  1.00

> <Gold.Chemscore.Hbond.Weighted>
-3.2508

> <Gold.Chemscore.Metal.Weighted>
-0.0000

> <Gold.Chemscore.Lipo.Weighted>
-10.4069

> <Gold.Chemscore.Internal_Hbond.Weighted>
0.0000

> <Gold.Chemscore.DEClash.Weighted>
0.8103

> <Gold.Chemscore.DEInternal.Weighted>
1.8256

> <Gold.Chemscore.Rot.Weighted>
6.2107

> <Gold.Chemscore.Internal.Correction.Weighted>
   9.000000E+99

> <Gold.Protein.RotatedTorsions>
[ 6907 6896 6895 6894 ] final -123.98 input  -60.11 | X-H torsion
[ 7974 7965 7964 7962 ] final  162.01 input  175.53 | X-H torsion
[ 8008 7997 7996 7995 ] final  -88.31 input   59.86 | X-H torsion
[ 10167 10162 10161 10158 ] final   52.62 input  -65.29 | X-H torsion
[ 10718 10713 10712 10709 ] final -179.85 input   66.30 | X-H torsion
[ 10763 10752 10751 10750 ] final -140.12 input  -60.55 | X-H torsion
[ 11005 11000 10999 10996 ] final   88.35 input  -57.11 | X-H torsion

> <Gold.Protein.ActiveResidues>
 VAL166  LYS551  ARG553  GLY616  TRP617  ASP618  TYR619  PRO620  LYS621  CYS622 
 ASP623  PHE694  ASN695  SER759  ASP760  ASP761  ALA762  ILE779  LEU786  VAL792 
 PHE793  MET794  SER795  GLU796  ALA797  LYS798  CYS799  TRP800  GLU811  SER814 

> <Gold.Protein.RotatedAtoms>
  150.8723  133.7488  159.2957 H   0  0  0  0  0  0  0  0  0  0  0  0  # atno 6907 bound_to 6896
  151.5096  135.1063  159.9860 H   0  0  0  0  0  0  0  0  0  0  0  0  # atno 6908 bound_to 6896
  152.4704  133.7971  159.6988 H   0  0  0  0  0  0  0  0  0  0  0  0  # atno 6909 bound_to 6896
  144.7657  139.7979  143.6316 H   0  0  0  0  0  0  0  0  0  0  0  0  # atno 7974 bound_to 7965
  154.6734  140.0555  157.0189 H   0  0  0  0  0  0  0  0  0  0  0  0  # atno 8008 bound_to 7997
  155.1056  140.3233  155.4516 H   0  0  0  0  0  0  0  0  0  0  0  0  # atno 8009 bound_to 7997
  156.2666  140.2023  156.6181 H   0  0  0  0  0  0  0  0  0  0  0  0  # atno 8010 bound_to 7997
  140.2494  144.3496  150.6353 H   0  0  0  0  0  0  0  0  0  0  0  0  # atno 10167 bound_to 10162
  156.8653  130.9765  151.3079 H   0  0  0  0  0  0  0  0  0  0  0  0  # atno 10718 bound_to 10713
  154.8588  135.3562  154.5656 H   0  0  0  0  0  0  0  0  0  0  0  0  # atno 10763 bound_to 10752
  153.6270  135.7004  153.5294 H   0  0  0  0  0  0  0  0  0  0  0  0  # atno 10764 bound_to 10752
  153.3081  135.4186  155.1271 H   0  0  0  0  0  0  0  0  0  0  0  0  # atno 10765 bound_to 10752
  139.8898  134.8482  156.2987 H   0  0  0  0  0  0  0  0  0  0  0  0  # atno 11005 bound_to 11000
  146.1762  139.4934  142.9895 LP  0  0  0  0  0  0  0  0  0  0  0  0  # atno 17320 bound_to 7965
  145.6477  141.0270  143.1777 LP  0  0  0  0  0  0  0  0  0  0  0  0  # atno 17321 bound_to 7965
  140.6052  143.2167  151.6994 LP  0  0  0  0  0  0  0  0  0  0  0  0  # atno 17342 bound_to 10162
  139.5051  144.3729  152.0452 LP  0  0  0  0  0  0  0  0  0  0  0  0  # atno 17343 bound_to 10162
  157.6227  130.8667  149.9136 LP  0  0  0  0  0  0  0  0  0  0  0  0  # atno 17370 bound_to 10713
  156.0755  130.3679  150.0687 LP  0  0  0  0  0  0  0  0  0  0  0  0  # atno 17371 bound_to 10713
  140.9927  133.7198  156.0839 LP  0  0  0  0  0  0  0  0  0  0  0  0  # atno 17394 bound_to 11000
  140.7603  134.3947  157.5527 LP  0  0  0  0  0  0  0  0  0  0  0  0  # atno 17395 bound_to 11000

$$$$
