AV-unprocessed.smi:399|AV-procd|sdf|2490|dock5
  -GOLD-   2262022433D 1   1.00000     0.00000
 Structure written by MMmdl.
 46 47  0  0  0  0  0  0  0  0  3 V2000
  150.7677  134.7806  155.8964 C   0  0  0  0  0  0  0  0  0  0  0  0
  149.9155  136.0759  155.9075 C   0  0  0  0  0  0  0  0  0  0  0  0
  150.6538  137.0602  154.9634 C   0  0  0  0  0  0  0  0  0  0  0  0
  148.5103  135.7626  155.3106 C   0  0  0  0  0  0  0  0  0  0  0  0
  148.5570  134.7939  154.2194 N   0  0  0  0  0  0  0  0  0  0  0  0
  148.1621  133.5173  154.3187 C   0  0  0  0  0  0  0  0  0  0  0  0
  147.7097  133.0325  155.3571 O   0  0  0  0  0  0  0  0  0  0  0  0
  148.2863  132.6752  153.0407 C   0  0  0  0  0  0  0  0  0  0  0  0
  147.0102  132.5074  152.3245 N   0  0  0  0  0  0  0  0  0  0  0  0
  146.4083  133.6723  151.8092 C   0  0  0  0  0  0  0  0  0  0  0  0
  145.2369  133.6387  151.1440 C   0  0  0  0  0  0  0  0  0  0  0  0
  144.6295  134.8458  150.6279 N   0  3  0  0  0  0  0  0  0  0  0  0
  145.0884  135.9296  150.9737 O   0  0  0  0  0  0  0  0  0  0  0  0
  143.6749  134.7516  149.8619 O   0  5  0  0  0  0  0  0  0  0  0  0
  144.5996  132.3485  150.9660 C   0  0  0  0  0  0  0  0  0  0  0  0
  145.1678  131.2311  151.4606 C   0  0  0  0  0  0  0  0  0  0  0  0
  146.4398  131.2710  152.1893 C   0  0  0  0  0  0  0  0  0  0  0  0
  146.9605  130.2550  152.6503 O   0  0  0  0  0  0  0  0  0  0  0  0
  149.8445  136.6357  157.2855 N   0  0  0  0  0  0  0  0  0  0  0  0
  149.1594  135.7851  158.2667 C   0  0  0  0  0  0  0  0  0  0  0  0
  149.0104  136.4795  159.6313 C   0  0  0  0  0  0  0  0  0  0  0  0
  150.2911  136.8658  160.1145 O   0  0  0  0  0  0  0  0  0  0  0  0
  150.9666  137.7414  159.2200 C   0  0  0  0  0  0  0  0  0  0  0  0
  151.1317  137.0583  157.8514 C   0  0  0  0  0  0  0  0  0  0  0  0
  151.0099  134.4554  154.8841 H   0  0  0  0  0  0  0  0  0  0  0  0
  150.2523  133.9443  156.3684 H   0  0  0  0  0  0  0  0  0  0  0  0
  151.7147  134.9260  156.4178 H   0  0  0  0  0  0  0  0  0  0  0  0
  150.9001  136.6040  154.0042 H   0  0  0  0  0  0  0  0  0  0  0  0
  151.5920  137.4009  155.4032 H   0  0  0  0  0  0  0  0  0  0  0  0
  150.0540  137.9409  154.7344 H   0  0  0  0  0  0  0  0  0  0  0  0
  147.8443  135.3617  156.0750 H   0  0  0  0  0  0  0  0  0  0  0  0
  148.0443  136.6740  154.9349 H   0  0  0  0  0  0  0  0  0  0  0  0
  148.9162  135.1183  153.3331 H   0  0  0  0  0  0  0  0  0  0  0  0
  149.0266  133.1473  152.3931 H   0  0  0  0  0  0  0  0  0  0  0  0
  148.7099  131.7012  153.2932 H   0  0  0  0  0  0  0  0  0  0  0  0
  146.9577  134.5826  152.0013 H   0  0  0  0  0  0  0  0  0  0  0  0
  143.6623  132.2682  150.4355 H   0  0  0  0  0  0  0  0  0  0  0  0
  144.6752  130.2806  151.3169 H   0  0  0  0  0  0  0  0  0  0  0  0
  148.1629  135.5160  157.9215 H   0  0  0  0  0  0  0  0  0  0  0  0
  149.7082  134.8542  158.4092 H   0  0  0  0  0  0  0  0  0  0  0  0
  148.3636  137.3547  159.5512 H   0  0  0  0  0  0  0  0  0  0  0  0
  148.5478  135.8041  160.3512 H   0  0  0  0  0  0  0  0  0  0  0  0
  150.4097  138.6746  159.1218 H   0  0  0  0  0  0  0  0  0  0  0  0
  151.9416  137.9928  159.6373 H   0  0  0  0  0  0  0  0  0  0  0  0
  151.7936  136.2004  157.9687 H   0  0  0  0  0  0  0  0  0  0  0  0
  151.6371  137.7600  157.1905 H   0  0  0  0  0  0  0  0  0  0  0  0
  1  2  1  0  0  0  0
  1 25  1  0  0  0  0
  1 26  1  0  0  0  0
  1 27  1  0  0  0  0
  2  3  1  0  0  0  0
  2  4  1  0  0  0  0
  2 19  1  0  0  0  0
  3 28  1  0  0  0  0
  3 29  1  0  0  0  0
  3 30  1  0  0  0  0
  4  5  1  0  0  0  0
  4 31  1  0  0  0  0
  4 32  1  0  0  0  0
  5  6  1  0  0  0  0
  5 33  1  0  0  0  0
  6  7  2  0  0  0  0
  6  8  1  0  0  0  0
  8  9  1  0  0  0  0
  8 34  1  0  0  0  0
  8 35  1  0  0  0  0
  9 17  1  0  0  0  0
  9 10  1  0  0  0  0
 10 11  2  0  0  0  0
 10 36  1  0  0  0  0
 11 12  1  0  0  0  0
 11 15  1  0  0  0  0
 12 13  2  0  0  0  0
 12 14  1  0  0  0  0
 15 16  2  0  0  0  0
 15 37  1  0  0  0  0
 16 17  1  0  0  0  0
 16 38  1  0  0  0  0
 17 18  2  0  0  0  0
 19 24  1  0  0  0  0
 19 20  1  0  0  0  0
 20 21  1  0  0  0  0
 20 39  1  0  0  0  0
 20 40  1  0  0  0  0
 21 22  1  0  0  0  0
 21 41  1  0  0  0  0
 21 42  1  0  0  0  0
 22 23  1  0  0  0  0
 23 24  1  0  0  0  0
 23 43  1  0  0  0  0
 23 44  1  0  0  0  0
 24 45  1  0  0  0  0
 24 46  1  0  0  0  0
M  CHG  1  12   1
M  CHG  1  14  -1
M  END
> <s_m_source_file>
AV-unprocessed.smi

> <i_m_source_file_index>
399

> <i_lp_mmshare_version>
43012

> <i_f3d_flags>
0

> <s_epik_input>
W0NIMl0xW0NIMl1PW0NIMl1bQ0gyXU4xQyhbQ0gzXSkoW0NIM10pW0NIMl1bTkhdQyg9TylbQ0gyXW4yW2NIXWMoW04rXSg9TylbTy1dKVtjSF1bY0hdYzI9Tw==

> <s_epik_cmdline>
J2VwaWtfcHl0aG9uJywgJy1waCcsICc3LjAnLCAnLXRuJywgJzgnLCAnLW1hJywgJzIwMCcsICctbWV0YWxfYmluZGluZycsICctaW1hZScsICc8aW5maWxlLm1hZT4nLCAnLW9tYWUnLCAnPG91dGZpbGUubWFlPic=

> <r_lp_tautomer_probability>
1

> <r_epik_Ionization_Penalty>
0.237382

> <r_epik_Ionization_Penalty_Charging>
7.45368e-11

> <r_epik_Ionization_Penalty_Neutral>
0.237382

> <r_epik_State_Penalty>
0.228245

> <r_epik_Charging_Adjusted_Penalty>
0.228245

> <i_epik_Tot_Q>
0

> <i_epik_Tot_abs_Q>
2

> <r_epik_Metal_State_Penalty>
0.22822

> <b_epik_Metal_Only>
0

> <s_lp_Force_Field>
OPLS_2005

> <r_lp_Energy>
50.757

> <b_lp_Chiralities_Consistent>
1

> <s_lp_Variant>
AV-unprocessed.smi:399-1

> <Gold.Version>
5.8.1

> <Gold.Id.Protein>
6NUR|6NUR_protein|mol2

> <Gold.PLP.Fitness>
39.0932

> <Gold.PLP.PLP>
-31.5692

> <Gold.PLP.part.hbond>
-2.8582

> <Gold.PLP.part.metal>
0.0000

> <Gold.PLP.part.buried>
-5.5938

> <Gold.PLP.part.nonpolar>
-27.8170

> <Gold.PLP.part.repulsive>
2.7230

> <Gold.PLP.ligand.clash>
0.0000

> <Gold.PLP.ligand.torsion>
0.7575

> <Gold.PLP.Chemscore.Hbond>
1.9833

> <Gold.PLP.Chemscore.CHOScore>
1.0000

> <Gold.PLP.Chemscore.Metal>
0.0000

> <Gold.Chemscore.Hbonds>
donor molecule, donor type, donor heavy atom, donor atom, acceptor molecule, acceptor atom, score
      L1  H     5    33       P1  7948  1.00
      P1  H  6896  6909       L1    22  0.95
      L1  C    10    36       P1  7948  0.95

> <Gold.PLP.Chemscore.Internal.Correction>
0.0892

> <Gold.Rescore>
     Score         DG    S(hbond)    S(metal)    S(lipo)     H(rot)  DE(clash)    DE(int)     intcor
      7.35      -8.30       0.15        0.00      65.97       2.11       0.29       0.66       ----

> <Gold.Chemscore.Fitness>
7.3458

> <Gold.Chemscore.DG>
-8.2993

> <Gold.Chemscore.ZeroCoef>
-5.4800

> <Gold.Chemscore.Hbond>
0.1495

> <Gold.Chemscore.Metal>
0.0000

> <Gold.Chemscore.Lipo>
65.9735

> <Gold.Chemscore.Internal_Hbond>
0.0000

> <Gold.Chemscore.DEClash>
0.2918

> <Gold.Chemscore.DEInternal>
0.6617

> <Gold.Chemscore.Rot>
2.1090

> <Gold.Chemscore.Internal.Correction>
   9.000000E+99

> <Gold.Chemscore.Hbonds>
donor molecule, donor type, donor heavy atom, donor atom, acceptor molecule, acceptor atom, score
      L1  H     5    33       P1  7948  0.44
      P1  H  6896  6909       L1    22  0.09

> <Gold.Chemscore.Hbond.Weighted>
-0.4993

> <Gold.Chemscore.Metal.Weighted>
-0.0000

> <Gold.Chemscore.Lipo.Weighted>
-7.7189

> <Gold.Chemscore.Internal_Hbond.Weighted>
0.0000

> <Gold.Chemscore.DEClash.Weighted>
0.2918

> <Gold.Chemscore.DEInternal.Weighted>
0.6617

> <Gold.Chemscore.Rot.Weighted>
5.3989

> <Gold.Chemscore.Internal.Correction.Weighted>
   9.000000E+99

> <Gold.Protein.RotatedTorsions>
[ 6907 6896 6895 6894 ] final  101.53 input  -60.11 | X-H torsion
[ 7974 7965 7964 7962 ] final   99.52 input  175.53 | X-H torsion
[ 8008 7997 7996 7995 ] final -117.82 input   59.86 | X-H torsion
[ 10167 10162 10161 10158 ] final  151.30 input  -65.29 | X-H torsion
[ 10718 10713 10712 10709 ] final -165.82 input   66.30 | X-H torsion
[ 10763 10752 10751 10750 ] final  -32.92 input  -60.55 | X-H torsion
[ 11005 11000 10999 10996 ] final -121.32 input  -57.11 | X-H torsion

> <Gold.Protein.ActiveResidues>
 VAL166  LYS551  ARG553  GLY616  TRP617  ASP618  TYR619  PRO620  LYS621  CYS622 
 ASP623  PHE694  ASN695  SER759  ASP760  ASP761  ALA762  ILE779  LEU786  VAL792 
 PHE793  MET794  SER795  GLU796  ALA797  LYS798  CYS799  TRP800  GLU811  SER814 

> <Gold.Protein.RotatedAtoms>
  152.5347  134.0112  159.7939 H   0  0  0  0  0  0  0  0  0  0  0  0  # atno 6907 bound_to 6896
  151.0314  133.5779  159.2667 H   0  0  0  0  0  0  0  0  0  0  0  0  # atno 6908 bound_to 6896
  151.2782  135.0713  159.9213 H   0  0  0  0  0  0  0  0  0  0  0  0  # atno 6909 bound_to 6896
  145.3978  139.2352  143.3316 H   0  0  0  0  0  0  0  0  0  0  0  0  # atno 7974 bound_to 7965
  155.0898  140.0395  157.2665 H   0  0  0  0  0  0  0  0  0  0  0  0  # atno 8008 bound_to 7997
  154.6841  140.2639  155.6853 H   0  0  0  0  0  0  0  0  0  0  0  0  # atno 8009 bound_to 7997
  156.2705  140.2772  156.1396 H   0  0  0  0  0  0  0  0  0  0  0  0  # atno 8010 bound_to 7997
  139.4842  144.5452  151.7497 H   0  0  0  0  0  0  0  0  0  0  0  0  # atno 10167 bound_to 10162
  156.6590  130.9038  151.3026 H   0  0  0  0  0  0  0  0  0  0  0  0  # atno 10718 bound_to 10713
  153.8217  135.6873  153.4826 H   0  0  0  0  0  0  0  0  0  0  0  0  # atno 10763 bound_to 10752
  153.1565  135.4597  154.9709 H   0  0  0  0  0  0  0  0  0  0  0  0  # atno 10764 bound_to 10752
  154.7924  135.3307  154.7689 H   0  0  0  0  0  0  0  0  0  0  0  0  # atno 10765 bound_to 10752
  141.0079  134.0308  157.3453 H   0  0  0  0  0  0  0  0  0  0  0  0  # atno 11005 bound_to 11000
  146.2766  140.4671  142.8793 LP  0  0  0  0  0  0  0  0  0  0  0  0  # atno 17320 bound_to 7965
  144.8395  140.6835  143.6239 LP  0  0  0  0  0  0  0  0  0  0  0  0  # atno 17321 bound_to 7965
  140.4997  144.1187  150.5968 LP  0  0  0  0  0  0  0  0  0  0  0  0  # atno 17342 bound_to 10162
  140.4076  143.2672  151.9872 LP  0  0  0  0  0  0  0  0  0  0  0  0  # atno 17343 bound_to 10162
  157.7116  130.9447  150.1109 LP  0  0  0  0  0  0  0  0  0  0  0  0  # atno 17370 bound_to 10713
  156.2026  130.3661  149.8769 LP  0  0  0  0  0  0  0  0  0  0  0  0  # atno 17371 bound_to 10713
  139.9073  135.0182  156.7543 LP  0  0  0  0  0  0  0  0  0  0  0  0  # atno 17394 bound_to 11000
  140.6782  133.9498  155.7895 LP  0  0  0  0  0  0  0  0  0  0  0  0  # atno 17395 bound_to 11000

$$$$
