AV-unprocessed.smi:2338|AV-procd|sdf|9334|dock5
  -GOLD-   2272012553D 1   1.00000     0.00000
 Structure written by MMmdl.
 31 32  0  0  0  0  0  0  0  0  1 V2000
  149.9184  138.7098  153.5083 N   0  0  0  0  0  0  0  0  0  0  0  0
  149.9513  139.3573  154.6759 C   0  0  0  0  0  0  0  0  0  0  0  0
  150.1695  140.5658  154.7464 O   0  0  0  0  0  0  0  0  0  0  0  0
  149.6833  138.5263  155.9441 C   0  0  2  0  0  0  0  0  0  0  0  0
  148.6893  137.3960  155.5884 C   0  0  0  0  0  0  0  0  0  0  0  0
  148.4085  136.6004  156.7347 O   0  0  0  0  0  0  0  0  0  0  0  0
  147.7939  137.3638  157.7648 C   0  0  0  0  0  0  0  0  0  0  0  0
  148.7604  138.4677  158.2174 C   0  0  0  0  0  0  0  0  0  0  0  0
  149.1584  139.2950  157.0823 N   0  0  0  0  0  0  0  0  0  0  0  0
  149.9043  140.4123  157.5079 C   0  0  0  0  0  0  0  0  0  0  0  0
  149.3131  141.6308  157.4508 N   0  0  0  0  0  0  0  0  0  0  0  0
  150.0194  142.7112  157.8447 C   0  0  0  0  0  0  0  0  0  0  0  0
  151.3483  142.6440  158.3115 C   0  0  0  0  0  0  0  0  0  0  0  0
  152.0895  143.9032  158.7299 C   0  0  0  0  0  0  0  0  0  0  0  0
  151.2453  144.9156  158.9305 F   0  0  0  0  0  0  0  0  0  0  0  0
  152.7525  143.6667  159.8608 F   0  0  0  0  0  0  0  0  0  0  0  0
  152.9604  144.2644  157.7873 F   0  0  0  0  0  0  0  0  0  0  0  0
  151.9663  141.3771  158.3589 C   0  0  0  0  0  0  0  0  0  0  0  0
  151.2378  140.2423  157.9526 C   0  0  0  0  0  0  0  0  0  0  0  0
  151.9799  138.6819  158.0200 Cl  0  0  0  0  0  0  0  0  0  0  0  0
  150.0930  139.2142  152.6512 H   0  0  0  0  0  0  0  0  0  0  0  0
  149.7241  137.7193  153.4859 H   0  0  0  0  0  0  0  0  0  0  0  0
  150.6200  138.0595  156.2558 H   0  0  0  0  0  0  0  0  0  0  0  0
  147.7577  137.7993  155.1862 H   0  0  0  0  0  0  0  0  0  0  0  0
  149.1096  136.7476  154.8185 H   0  0  0  0  0  0  0  0  0  0  0  0
  146.8523  137.7878  157.4119 H   0  0  0  0  0  0  0  0  0  0  0  0
  147.5548  136.7062  158.6006 H   0  0  0  0  0  0  0  0  0  0  0  0
  148.2815  139.0776  158.9849 H   0  0  0  0  0  0  0  0  0  0  0  0
  149.6464  138.0211  158.6717 H   0  0  0  0  0  0  0  0  0  0  0  0
  149.5061  143.6592  157.7809 H   0  0  0  0  0  0  0  0  0  0  0  0
  152.9852  141.2706  158.7009 H   0  0  0  0  0  0  0  0  0  0  0  0
  1  2  1  0  0  0  0
  1 21  1  0  0  0  0
  1 22  1  0  0  0  0
  2  3  2  0  0  0  0
  2  4  1  0  0  0  0
  4  9  1  0  0  0  0
  4  5  1  0  0  0  0
  4 23  1  0  0  0  0
  5  6  1  0  0  0  0
  5 24  1  0  0  0  0
  5 25  1  0  0  0  0
  6  7  1  0  0  0  0
  7  8  1  0  0  0  0
  7 26  1  0  0  0  0
  7 27  1  0  0  0  0
  8  9  1  0  0  0  0
  8 28  1  0  0  0  0
  8 29  1  0  0  0  0
  9 10  1  0  0  0  0
 10 19  1  0  0  0  0
 10 11  2  0  0  0  0
 11 12  1  0  0  0  0
 12 13  2  0  0  0  0
 12 30  1  0  0  0  0
 13 14  1  0  0  0  0
 13 18  1  0  0  0  0
 14 15  1  0  0  0  0
 14 16  1  0  0  0  0
 14 17  1  0  0  0  0
 18 19  2  0  0  0  0
 18 31  1  0  0  0  0
 19 20  1  0  0  0  0
M  END
> <s_m_source_file>
AV-unprocessed.smi

> <i_m_source_file_index>
2338

> <i_lp_mmshare_version>
43012

> <i_f3d_flags>
0

> <s_epik_input>
W05IMl1DKD1PKVtDQEBIXTFbQ0gyXU9bQ0gyXVtDSDJdTjFjMm5bY0hdYyhDKEYpKEYpRilbY0hdYzJDbA==

> <s_epik_cmdline>
J2VwaWtfcHl0aG9uJywgJy1waCcsICc3LjAnLCAnLXRuJywgJzgnLCAnLW1hJywgJzIwMCcsICctbWV0YWxfYmluZGluZycsICctaW1hZScsICc8aW5maWxlLm1hZT4nLCAnLW9tYWUnLCAnPG91dGZpbGUubWFlPic=

> <r_lp_tautomer_probability>
1

> <r_epik_Ionization_Penalty>
1.71167e-07

> <r_epik_Ionization_Penalty_Charging>
0

> <r_epik_Ionization_Penalty_Neutral>
1.71167e-07

> <r_epik_State_Penalty>
-0

> <r_epik_Charging_Adjusted_Penalty>
0

> <i_epik_Tot_Q>
0

> <i_epik_Tot_abs_Q>
0

> <r_epik_Metal_State_Penalty>
-0

> <b_epik_Metal_Only>
0

> <s_lp_Force_Field>
OPLS_2005

> <r_lp_Energy>
18.5611

> <b_lp_Chiralities_Consistent>
1

> <s_lp_Variant>
AV-unprocessed.smi:2338-1

> <Gold.Version>
5.8.1

> <Gold.Id.Protein>
6NUR|6NUR_protein|mol2

> <Gold.PLP.Fitness>
39.0463

> <Gold.PLP.PLP>
-32.4416

> <Gold.PLP.part.hbond>
-2.7328

> <Gold.PLP.part.metal>
0.0000

> <Gold.PLP.part.buried>
-4.4955

> <Gold.PLP.part.nonpolar>
-25.3071

> <Gold.PLP.part.repulsive>
0.2838

> <Gold.PLP.ligand.clash>
0.1402

> <Gold.PLP.ligand.torsion>
1.4800

> <Gold.PLP.Chemscore.Hbond>
2.0792

> <Gold.PLP.Chemscore.CHOScore>
0.9441

> <Gold.PLP.Chemscore.Metal>
0.0000

> <Gold.Chemscore.Hbonds>
donor molecule, donor type, donor heavy atom, donor atom, acceptor molecule, acceptor atom, score
      L1  H     1    21       P1  7957  1.00
      L1  H     1    22       P1  7948  0.22
      P1  H  7989  7998       L1     3  0.91
      L1  C    12    30       P1  8028  0.89
      L1  C    12    30       P1  8029  0.05

> <Gold.PLP.Chemscore.Internal.Correction>
0.6351

> <Gold.Rescore>
     Score         DG    S(hbond)    S(metal)    S(lipo)     H(rot)  DE(clash)    DE(int)     intcor
     10.17     -14.80       2.15        0.00      51.39       1.51       0.96       3.66       ----

> <Gold.Chemscore.Fitness>
10.1737

> <Gold.Chemscore.DG>
-14.7958

> <Gold.Chemscore.ZeroCoef>
-5.4800

> <Gold.Chemscore.Hbond>
2.1470

> <Gold.Chemscore.Metal>
0.0000

> <Gold.Chemscore.Lipo>
51.3856

> <Gold.Chemscore.Internal_Hbond>
0.0000

> <Gold.Chemscore.DEClash>
0.9598

> <Gold.Chemscore.DEInternal>
3.6623

> <Gold.Chemscore.Rot>
1.5107

> <Gold.Chemscore.Internal.Correction>
   9.000000E+99

> <Gold.Chemscore.Hbonds>
donor molecule, donor type, donor heavy atom, donor atom, acceptor molecule, acceptor atom, score
      L1  H     1    21       P1  7957  0.77
      L1  H     1    22       P1  7948  0.18
      P1  H  7989  7998       L1     3  0.44

> <Gold.Chemscore.Hbond.Weighted>
-7.1710

> <Gold.Chemscore.Metal.Weighted>
-0.0000

> <Gold.Chemscore.Lipo.Weighted>
-6.0121

> <Gold.Chemscore.Internal_Hbond.Weighted>
0.0000

> <Gold.Chemscore.DEClash.Weighted>
0.9598

> <Gold.Chemscore.DEInternal.Weighted>
3.6623

> <Gold.Chemscore.Rot.Weighted>
3.8674

> <Gold.Chemscore.Internal.Correction.Weighted>
   9.000000E+99

> <Gold.Protein.RotatedTorsions>
[ 6907 6896 6895 6894 ] final   42.14 input  -60.11 | X-H torsion
[ 7974 7965 7964 7962 ] final  -95.15 input  175.53 | X-H torsion
[ 8008 7997 7996 7995 ] final   18.91 input   59.86 | X-H torsion
[ 10167 10162 10161 10158 ] final  131.42 input  -65.29 | X-H torsion
[ 10718 10713 10712 10709 ] final -152.67 input   66.30 | X-H torsion
[ 10763 10752 10751 10750 ] final -119.53 input  -60.55 | X-H torsion
[ 11005 11000 10999 10996 ] final  -11.82 input  -57.11 | X-H torsion

> <Gold.Protein.ActiveResidues>
 VAL166  LYS551  ARG553  GLY616  TRP617  ASP618  TYR619  PRO620  LYS621  CYS622 
 ASP623  PHE694  ASN695  SER759  ASP760  ASP761  ALA762  ILE779  LEU786  VAL792 
 PHE793  MET794  SER795  GLU796  ALA797  LYS798  CYS799  TRP800  GLU811  SER814 

> <Gold.Protein.RotatedAtoms>
  152.2042  134.8561  160.0504 H   0  0  0  0  0  0  0  0  0  0  0  0  # atno 6907 bound_to 6896
  151.9403  133.3631  159.3971 H   0  0  0  0  0  0  0  0  0  0  0  0  # atno 6908 bound_to 6896
  150.6961  134.4370  159.5319 H   0  0  0  0  0  0  0  0  0  0  0  0  # atno 6909 bound_to 6896
  145.3639  140.9496  143.2485 H   0  0  0  0  0  0  0  0  0  0  0  0  # atno 7974 bound_to 7965
  154.9130  140.3016  155.5256 H   0  0  0  0  0  0  0  0  0  0  0  0  # atno 8008 bound_to 7997
  156.3014  140.2385  156.4107 H   0  0  0  0  0  0  0  0  0  0  0  0  # atno 8009 bound_to 7997
  154.8406  140.0414  157.1528 H   0  0  0  0  0  0  0  0  0  0  0  0  # atno 8010 bound_to 7997
  139.5384  144.6706  151.4706 H   0  0  0  0  0  0  0  0  0  0  0  0  # atno 10167 bound_to 10162
  156.4755  130.8279  151.2507 H   0  0  0  0  0  0  0  0  0  0  0  0  # atno 10718 bound_to 10713
  154.8620  135.4235  154.2314 H   0  0  0  0  0  0  0  0  0  0  0  0  # atno 10763 bound_to 10752
  153.3298  135.6987  153.6963 H   0  0  0  0  0  0  0  0  0  0  0  0  # atno 10764 bound_to 10752
  153.5985  135.3541  155.2910 H   0  0  0  0  0  0  0  0  0  0  0  0  # atno 10765 bound_to 10752
  140.7592  133.8528  155.9110 H   0  0  0  0  0  0  0  0  0  0  0  0  # atno 11005 bound_to 11000
  144.8626  139.5155  143.6805 LP  0  0  0  0  0  0  0  0  0  0  0  0  # atno 17320 bound_to 7965
  146.2915  139.7153  142.9157 LP  0  0  0  0  0  0  0  0  0  0  0  0  # atno 17321 bound_to 7965
  140.6603  143.8513  150.6880 LP  0  0  0  0  0  0  0  0  0  0  0  0  # atno 17342 bound_to 10162
  140.1905  143.4040  152.1867 LP  0  0  0  0  0  0  0  0  0  0  0  0  # atno 17343 bound_to 10162
  157.7488  131.0062  150.3142 LP  0  0  0  0  0  0  0  0  0  0  0  0  # atno 17370 bound_to 10713
  156.3574  130.3841  149.7279 LP  0  0  0  0  0  0  0  0  0  0  0  0  # atno 17371 bound_to 10713
  140.9678  134.1570  157.4601 LP  0  0  0  0  0  0  0  0  0  0  0  0  # atno 17394 bound_to 11000
  139.8773  134.9968  156.5813 LP  0  0  0  0  0  0  0  0  0  0  0  0  # atno 17395 bound_to 11000

$$$$
