AV-unprocessed.smi:862|AV-procd|sdf|3976|dock2
  -GOLD-   22720 1453D 1   1.00000     0.00000
 Structure written by MMmdl.
 44 46  0  0  0  0  0  0  0  0  2 V2000
  147.7345  140.3601  153.2265 N   0  0  0  0  0  0  0  0  0  0  0  0
  147.2867  140.5670  154.4687 C   0  0  0  0  0  0  0  0  0  0  0  0
  146.1143  140.8743  154.6759 O   0  0  0  0  0  0  0  0  0  0  0  0
  148.1988  140.3681  155.4535 N   0  0  0  0  0  0  0  0  0  0  0  0
  149.6378  140.1202  155.2650 C   0  0  0  0  0  0  0  0  0  0  0  0
  150.4101  141.4061  155.6131 C   0  0  0  0  0  0  0  0  0  0  0  0
  150.1045  141.8703  157.0530 C   0  0  0  0  0  0  0  0  0  0  0  0
  150.7545  143.1753  157.3082 N   0  3  0  0  0  0  0  0  0  0  0  0
  150.9343  143.5479  158.7302 C   0  0  2  0  0  0  0  0  0  0  0  0
  150.6868  145.0317  159.0182 C   0  0  0  0  0  0  0  0  0  0  0  0
  151.4545  145.3232  160.3143 C   0  0  0  0  0  0  0  0  0  0  0  0
  152.5019  144.2079  160.4618 C   0  0  0  0  0  0  0  0  0  0  0  0
  152.3822  143.3495  159.1938 C   0  0  1  0  0  0  0  0  0  0  0  0
  152.7354  141.9538  159.4034 N   0  0  0  0  0  0  0  0  0  0  0  0
  152.5126  140.8801  158.5480 C   0  0  0  0  0  0  0  0  0  0  0  0
  153.0266  139.7654  159.1702 C   0  0  0  0  0  0  0  0  0  0  0  0
  153.5708  140.1257  160.3999 N   0  0  0  0  0  0  0  0  0  0  0  0
  153.3587  141.4330  160.4700 C   0  0  0  0  0  0  0  0  0  0  0  0
  148.5786  141.9444  157.2888 C   0  0  0  0  0  0  0  0  0  0  0  0
  147.8869  140.6367  156.8624 C   0  0  0  0  0  0  0  0  0  0  0  0
  147.1072  140.4789  152.4441 H   0  0  0  0  0  0  0  0  0  0  0  0
  148.6911  140.0763  153.0738 H   0  0  0  0  0  0  0  0  0  0  0  0
  149.9504  139.3073  155.9223 H   0  0  0  0  0  0  0  0  0  0  0  0
  149.9009  139.7947  154.2586 H   0  0  0  0  0  0  0  0  0  0  0  0
  151.4811  141.2373  155.4949 H   0  0  0  0  0  0  0  0  0  0  0  0
  150.1406  142.1902  154.9037 H   0  0  0  0  0  0  0  0  0  0  0  0
  150.5263  141.1245  157.7292 H   0  0  0  0  0  0  0  0  0  0  0  0
  151.6816  143.1198  156.9112 H   0  0  0  0  0  0  0  0  0  0  0  0
  150.2685  142.9468  159.3519 H   0  0  0  0  0  0  0  0  0  0  0  0
  151.0972  145.6426  158.2127 H   0  0  0  0  0  0  0  0  0  0  0  0
  149.6266  145.2692  159.1096 H   0  0  0  0  0  0  0  0  0  0  0  0
  151.9159  146.3110  160.2830 H   0  0  0  0  0  0  0  0  0  0  0  0
  150.7767  145.3090  161.1686 H   0  0  0  0  0  0  0  0  0  0  0  0
  153.5100  144.6072  160.5791 H   0  0  0  0  0  0  0  0  0  0  0  0
  152.2802  143.6259  161.3573 H   0  0  0  0  0  0  0  0  0  0  0  0
  153.0535  143.7651  158.4393 H   0  0  0  0  0  0  0  0  0  0  0  0
  152.0178  140.9911  157.5941 H   0  0  0  0  0  0  0  0  0  0  0  0
  153.0466  138.7404  158.8302 H   0  0  0  0  0  0  0  0  0  0  0  0
  153.6692  142.0260  161.3179 H   0  0  0  0  0  0  0  0  0  0  0  0
  148.3574  142.1412  158.3367 H   0  0  0  0  0  0  0  0  0  0  0  0
  148.1555  142.7760  156.7232 H   0  0  0  0  0  0  0  0  0  0  0  0
  146.8139  140.7028  157.0485 H   0  0  0  0  0  0  0  0  0  0  0  0
  148.2402  139.8066  157.4758 H   0  0  0  0  0  0  0  0  0  0  0  0
  150.2477  143.9026  156.8240 H   0  0  0  0  0  0  0  0  0  0  0  0
  1  2  1  0  0  0  0
  1 21  1  0  0  0  0
  1 22  1  0  0  0  0
  2  3  2  0  0  0  0
  2  4  1  0  0  0  0
  4 20  1  0  0  0  0
  4  5  1  0  0  0  0
  5  6  1  0  0  0  0
  5 23  1  0  0  0  0
  5 24  1  0  0  0  0
  6  7  1  0  0  0  0
  6 25  1  0  0  0  0
  6 26  1  0  0  0  0
  7  8  1  0  0  0  0
  7 19  1  0  0  0  0
  7 27  1  0  0  0  0
  8  9  1  0  0  0  0
  8 28  1  0  0  0  0
  8 44  1  0  0  0  0
  9 13  1  0  0  0  0
  9 10  1  0  0  0  0
  9 29  1  0  0  0  0
 10 11  1  0  0  0  0
 10 30  1  0  0  0  0
 10 31  1  0  0  0  0
 11 12  1  0  0  0  0
 11 32  1  0  0  0  0
 11 33  1  0  0  0  0
 12 13  1  0  0  0  0
 12 34  1  0  0  0  0
 12 35  1  0  0  0  0
 13 14  1  0  0  0  0
 13 36  1  0  0  0  0
 14 18  1  0  0  0  0
 14 15  1  0  0  0  0
 15 16  2  0  0  0  0
 15 37  1  0  0  0  0
 16 17  1  0  0  0  0
 16 38  1  0  0  0  0
 17 18  2  0  0  0  0
 18 39  1  0  0  0  0
 19 20  1  0  0  0  0
 19 40  1  0  0  0  0
 19 41  1  0  0  0  0
 20 42  1  0  0  0  0
 20 43  1  0  0  0  0
M  CHG  1   8   1
M  END
> <s_m_source_file>
AV-unprocessed.smi

> <i_m_source_file_index>
862

> <i_lp_mmshare_version>
43012

> <i_f3d_flags>
0

> <s_epik_input>
W05IMl1DKD1PKU4xW0NIMl1bQ0gyXVtDSF0oW0NIMl1bQ0gyXTEpW05IXVtDQEBIXTJbQ0gyXVtDSDJdW0NIMl1bQ0BIXTJuM1tjSF1bY0hdbltjSF0z

> <s_epik_cmdline>
J2VwaWtfcHl0aG9uJywgJy1waCcsICc3LjAnLCAnLXRuJywgJzgnLCAnLW1hJywgJzIwMCcsICctbWV0YWxfYmluZGluZycsICctaW1hZScsICc8aW5maWxlLm1hZT4nLCAnLW9tYWUnLCAnPG91dGZpbGUubWFlPic=

> <r_lp_tautomer_probability>
1

> <r_epik_Ionization_Penalty>
0.0731506

> <r_epik_Ionization_Penalty_Charging>
0.0731

> <r_epik_Ionization_Penalty_Neutral>
5.05966e-05

> <r_epik_State_Penalty>
0.128895

> <r_epik_Charging_Adjusted_Penalty>
0.201995

> <i_epik_Tot_Q>
1

> <i_epik_Tot_abs_Q>
1

> <r_epik_Metal_State_Penalty>
0.113934

> <b_epik_Metal_Only>
0

> <s_lp_Force_Field>
OPLS_2005

> <r_lp_Energy>
56.1174

> <b_lp_Chiralities_Consistent>
1

> <s_lp_Variant>
AV-unprocessed.smi:862-1

> <Gold.Version>
5.8.1

> <Gold.Id.Protein>
6NUR|6NUR_protein|mol2

> <Gold.PLP.Fitness>
44.1213

> <Gold.PLP.PLP>
-38.7329

> <Gold.PLP.part.hbond>
-2.0000

> <Gold.PLP.part.metal>
0.0000

> <Gold.PLP.part.buried>
-6.0790

> <Gold.PLP.part.nonpolar>
-30.8227

> <Gold.PLP.part.repulsive>
0.2216

> <Gold.PLP.ligand.clash>
0.0000

> <Gold.PLP.ligand.torsion>
1.0187

> <Gold.PLP.Chemscore.Hbond>
2.4576

> <Gold.PLP.Chemscore.CHOScore>
0.0000

> <Gold.PLP.Chemscore.Metal>
0.0000

> <Gold.Chemscore.Hbonds>
donor molecule, donor type, donor heavy atom, donor atom, acceptor molecule, acceptor atom, score
      L1  H     1    22       P1  7957  0.36
      L1  H     8    44       P1  8028  2.00

> <Gold.PLP.Chemscore.Internal.Correction>
0.0530

> <Gold.Rescore>
     Score         DG    S(hbond)    S(metal)    S(lipo)     H(rot)  DE(clash)    DE(int)     intcor
     16.36     -17.50       1.55        0.00      94.53       1.64       0.15       0.99       ----

> <Gold.Chemscore.Fitness>
16.3628

> <Gold.Chemscore.DG>
-17.5005

> <Gold.Chemscore.ZeroCoef>
-5.4800

> <Gold.Chemscore.Hbond>
1.5455

> <Gold.Chemscore.Metal>
0.0000

> <Gold.Chemscore.Lipo>
94.5302

> <Gold.Chemscore.Internal_Hbond>
0.0000

> <Gold.Chemscore.DEClash>
0.1523

> <Gold.Chemscore.DEInternal>
0.9854

> <Gold.Chemscore.Rot>
1.6411

> <Gold.Chemscore.Internal.Correction>
   9.000000E+99

> <Gold.Chemscore.Hbonds>
donor molecule, donor type, donor heavy atom, donor atom, acceptor molecule, acceptor atom, score
      L1  H     1    22       P1  7957  0.35
      L1  H     8    44       P1  8028  0.98

> <Gold.Chemscore.Hbond.Weighted>
-5.1619

> <Gold.Chemscore.Metal.Weighted>
-0.0000

> <Gold.Chemscore.Lipo.Weighted>
-11.0600

> <Gold.Chemscore.Internal_Hbond.Weighted>
0.0000

> <Gold.Chemscore.DEClash.Weighted>
0.1523

> <Gold.Chemscore.DEInternal.Weighted>
0.9854

> <Gold.Chemscore.Rot.Weighted>
4.2013

> <Gold.Chemscore.Internal.Correction.Weighted>
   9.000000E+99

> <Gold.Protein.RotatedTorsions>
[ 6907 6896 6895 6894 ] final  -86.01 input  -60.11 | X-H torsion
[ 7974 7965 7964 7962 ] final   94.21 input  175.53 | X-H torsion
[ 8008 7997 7996 7995 ] final -172.94 input   59.86 | X-H torsion
[ 10167 10162 10161 10158 ] final   97.84 input  -65.29 | X-H torsion
[ 10718 10713 10712 10709 ] final   69.64 input   66.30 | X-H torsion
[ 10763 10752 10751 10750 ] final -118.62 input  -60.55 | X-H torsion
[ 11005 11000 10999 10996 ] final  -18.55 input  -57.11 | X-H torsion

> <Gold.Protein.ActiveResidues>
 VAL166  LYS551  ARG553  GLY616  TRP617  ASP618  TYR619  PRO620  LYS621  CYS622 
 ASP623  PHE694  ASN695  SER759  ASP760  ASP761  ALA762  ILE779  LEU786  VAL792 
 PHE793  MET794  SER795  GLU796  ALA797  LYS798  CYS799  TRP800  GLU811  SER814 

> <Gold.Protein.RotatedAtoms>
  150.6868  134.3116  159.4748 H   0  0  0  0  0  0  0  0  0  0  0  0  # atno 6907 bound_to 6896
  152.1002  134.9344  160.0579 H   0  0  0  0  0  0  0  0  0  0  0  0  # atno 6908 bound_to 6896
  152.0627  133.4035  159.4461 H   0  0  0  0  0  0  0  0  0  0  0  0  # atno 6909 bound_to 6896
  145.4686  139.2283  143.2947 H   0  0  0  0  0  0  0  0  0  0  0  0  # atno 7974 bound_to 7965
  155.9510  140.1126  157.0977 H   0  0  0  0  0  0  0  0  0  0  0  0  # atno 8008 bound_to 7997
  154.4109  140.1200  156.5119 H   0  0  0  0  0  0  0  0  0  0  0  0  # atno 8009 bound_to 7997
  155.6842  140.3473  155.4870 H   0  0  0  0  0  0  0  0  0  0  0  0  # atno 8010 bound_to 7997
  139.7763  144.6904  151.0084 H   0  0  0  0  0  0  0  0  0  0  0  0  # atno 10167 bound_to 10162
  157.6357  130.9436  150.0541 H   0  0  0  0  0  0  0  0  0  0  0  0  # atno 10718 bound_to 10713
  154.8593  135.4267  154.2168 H   0  0  0  0  0  0  0  0  0  0  0  0  # atno 10763 bound_to 10752
  153.3181  135.6980  153.7060 H   0  0  0  0  0  0  0  0  0  0  0  0  # atno 10764 bound_to 10752
  153.6126  135.3516  155.2958 H   0  0  0  0  0  0  0  0  0  0  0  0  # atno 10765 bound_to 10752
  140.8279  133.8019  155.9727 H   0  0  0  0  0  0  0  0  0  0  0  0  # atno 11005 bound_to 11000
  146.2409  140.5462  142.8934 LP  0  0  0  0  0  0  0  0  0  0  0  0  # atno 17320 bound_to 7965
  144.7959  140.6121  143.6510 LP  0  0  0  0  0  0  0  0  0  0  0  0  # atno 17321 bound_to 7965
  140.7816  143.4532  151.0383 LP  0  0  0  0  0  0  0  0  0  0  0  0  # atno 17342 bound_to 10162
  139.8214  143.7815  152.3177 LP  0  0  0  0  0  0  0  0  0  0  0  0  # atno 17343 bound_to 10162
  156.1594  130.3643  149.9321 LP  0  0  0  0  0  0  0  0  0  0  0  0  # atno 17370 bound_to 10713
  156.7323  130.9048  151.3626 LP  0  0  0  0  0  0  0  0  0  0  0  0  # atno 17371 bound_to 10713
  140.9030  134.2355  157.5031 LP  0  0  0  0  0  0  0  0  0  0  0  0  # atno 17394 bound_to 11000
  139.8706  134.9715  156.4739 LP  0  0  0  0  0  0  0  0  0  0  0  0  # atno 17395 bound_to 11000

$$$$
