AV-unprocessed.smi:788|AV-procd|sdf|3736|dock7
  -GOLD-   22720 1173D 1   1.00000     0.00000
 Structure written by MMmdl.
 34 35  0  0  0  0  0  0  0  0  2 V2000
  150.1806  138.0196  154.7039 C   0  0  0  0  0  0  0  0  0  0  0  0
  150.9250  139.1231  155.4747 C   0  0  1  0  0  0  0  0  0  0  0  0
  150.2215  140.4878  155.3271 C   0  0  0  0  0  0  0  0  0  0  0  0
  150.9952  141.6015  156.0492 C   0  0  0  0  0  0  0  0  0  0  0  0
  151.2262  141.2581  157.5288 C   0  0  0  0  0  0  0  0  0  0  0  0
  151.9341  139.8968  157.6901 C   0  0  1  0  0  0  0  0  0  0  0  0
  152.2072  139.5773  159.1703 C   0  0  0  0  0  0  0  0  0  0  0  0
  151.1548  138.7699  156.9662 C   0  0  1  0  0  0  0  0  0  0  0  0
  149.8833  138.5109  157.6459 N   0  0  0  0  0  0  0  0  0  0  0  0
  149.6233  137.5841  158.5888 C   0  0  0  0  0  0  0  0  0  0  0  0
  150.5187  136.8195  158.9439 O   0  0  0  0  0  0  0  0  0  0  0  0
  148.3646  137.5479  159.1007 N   0  5  0  0  0  0  0  0  0  0  0  0
  148.0220  136.7284  160.1123 C   0  0  0  0  0  0  0  0  0  0  0  0
  147.5032  137.1834  161.2641 N   0  0  0  0  0  0  0  0  0  0  0  0
  147.2392  136.1742  162.1798 N   0  0  0  0  0  0  0  0  0  0  0  0
  147.5567  134.9767  161.6884 C   0  0  0  0  0  0  0  0  0  0  0  0
  148.2090  134.9730  160.0635 S   0  0  0  0  0  0  0  0  0  0  0  0
  149.1533  137.9070  155.0520 H   0  0  0  0  0  0  0  0  0  0  0  0
  150.6787  137.0567  154.8197 H   0  0  0  0  0  0  0  0  0  0  0  0
  150.1426  138.2448  153.6380 H   0  0  0  0  0  0  0  0  0  0  0  0
  151.9092  139.2147  155.0129 H   0  0  0  0  0  0  0  0  0  0  0  0
  150.1202  140.7422  154.2715 H   0  0  0  0  0  0  0  0  0  0  0  0
  149.2075  140.4303  155.7258 H   0  0  0  0  0  0  0  0  0  0  0  0
  151.9559  141.7559  155.5566 H   0  0  0  0  0  0  0  0  0  0  0  0
  150.4517  142.5431  155.9676 H   0  0  0  0  0  0  0  0  0  0  0  0
  151.8212  142.0441  157.9947 H   0  0  0  0  0  0  0  0  0  0  0  0
  150.2701  141.2469  158.0542 H   0  0  0  0  0  0  0  0  0  0  0  0
  152.9070  139.9777  157.2030 H   0  0  0  0  0  0  0  0  0  0  0  0
  151.2861  139.5435  159.7533 H   0  0  0  0  0  0  0  0  0  0  0  0
  152.8526  140.3320  159.6202 H   0  0  0  0  0  0  0  0  0  0  0  0
  152.7041  138.6127  159.2775 H   0  0  0  0  0  0  0  0  0  0  0  0
  151.7763  137.8739  157.0009 H   0  0  0  0  0  0  0  0  0  0  0  0
  149.1144  139.1074  157.3784 H   0  0  0  0  0  0  0  0  0  0  0  0
  147.4053  134.0904  162.2859 H   0  0  0  0  0  0  0  0  0  0  0  0
  1  2  1  0  0  0  0
  1 18  1  0  0  0  0
  1 19  1  0  0  0  0
  1 20  1  0  0  0  0
  2  8  1  0  0  0  0
  2  3  1  0  0  0  0
  2 21  1  0  0  0  0
  3  4  1  0  0  0  0
  3 22  1  0  0  0  0
  3 23  1  0  0  0  0
  4  5  1  0  0  0  0
  4 24  1  0  0  0  0
  4 25  1  0  0  0  0
  5  6  1  0  0  0  0
  5 26  1  0  0  0  0
  5 27  1  0  0  0  0
  6  7  1  0  0  0  0
  6  8  1  0  0  0  0
  6 28  1  0  0  0  0
  7 29  1  0  0  0  0
  7 30  1  0  0  0  0
  7 31  1  0  0  0  0
  8  9  1  0  0  0  0
  8 32  1  0  0  0  0
  9 10  1  0  0  0  0
  9 33  1  0  0  0  0
 10 11  2  0  0  0  0
 10 12  1  0  0  0  0
 12 13  1  0  0  0  0
 13 17  1  0  0  0  0
 13 14  2  0  0  0  0
 14 15  1  0  0  0  0
 15 16  2  0  0  0  0
 16 17  1  0  0  0  0
 16 34  1  0  0  0  0
M  CHG  1  12  -1
M  END
> <s_m_source_file>
AV-unprocessed.smi

> <i_m_source_file_index>
788

> <i_lp_mmshare_version>
43012

> <i_f3d_flags>
0

> <s_epik_input>
W0NIM11bQ0BASF0xW0NIMl1bQ0gyXVtDSDJdW0NAQEhdKFtDSDNdKVtDQEhdMVtOSF1DKD1PKVtOSF1jMm5uW2NIXXMy

> <s_epik_cmdline>
J2VwaWtfcHl0aG9uJywgJy1waCcsICc3LjAnLCAnLXRuJywgJzgnLCAnLW1hJywgJzIwMCcsICctbWV0YWxfYmluZGluZycsICctaW1hZScsICc8aW5maWxlLm1hZT4nLCAnLW9tYWUnLCAnPG91dGZpbGUubWFlPic=

> <r_lp_tautomer_probability>
1

> <r_epik_Ionization_Penalty>
4.58638

> <r_epik_Ionization_Penalty_Charging>
4.53816

> <r_epik_Ionization_Penalty_Neutral>
0.048215

> <r_epik_State_Penalty>
4.53788

> <r_epik_Charging_Adjusted_Penalty>
9.07605

> <i_epik_Tot_Q>
-1

> <i_epik_Tot_abs_Q>
1

> <r_epik_Metal_State_Penalty>
0.838628

> <b_epik_Metal_Only>
1

> <s_lp_Force_Field>
OPLS_2005

> <r_lp_Energy>
10.1282

> <b_lp_Chiralities_Consistent>
1

> <s_lp_Variant>
AV-unprocessed.smi:788-6

> <Gold.Version>
5.8.1

> <Gold.Id.Protein>
6NUR|6NUR_protein|mol2

> <Gold.PLP.Fitness>
33.9706

> <Gold.PLP.PLP>
-27.3077

> <Gold.PLP.part.hbond>
-3.4211

> <Gold.PLP.part.metal>
0.0000

> <Gold.PLP.part.buried>
-4.5821

> <Gold.PLP.part.nonpolar>
-18.7752

> <Gold.PLP.part.repulsive>
0.0619

> <Gold.PLP.ligand.clash>
0.0000

> <Gold.PLP.ligand.torsion>
0.8704

> <Gold.PLP.Chemscore.Hbond>
2.7988

> <Gold.PLP.Chemscore.CHOScore>
0.0000

> <Gold.PLP.Chemscore.Metal>
0.0000

> <Gold.Chemscore.Hbonds>
donor molecule, donor type, donor heavy atom, donor atom, acceptor molecule, acceptor atom, score
      P1  H  6896  6907       L1    11  0.96
      P1  H  6931  6943       L1    14  0.91
      P1  H  6934  6947       L1    14  0.93

> <Gold.PLP.Chemscore.Internal.Correction>
0.0075

> <Gold.Rescore>
     Score         DG    S(hbond)    S(metal)    S(lipo)     H(rot)  DE(clash)    DE(int)     intcor
     16.22     -17.34       2.19        0.00      60.63       1.00       0.14       0.99       ----

> <Gold.Chemscore.Fitness>
16.2150

> <Gold.Chemscore.DG>
-17.3446

> <Gold.Chemscore.ZeroCoef>
-5.4800

> <Gold.Chemscore.Hbond>
2.1950

> <Gold.Chemscore.Metal>
0.0000

> <Gold.Chemscore.Lipo>
60.6267

> <Gold.Chemscore.Internal_Hbond>
0.0000

> <Gold.Chemscore.DEClash>
0.1378

> <Gold.Chemscore.DEInternal>
0.9918

> <Gold.Chemscore.Rot>
1.0000

> <Gold.Chemscore.Internal.Correction>
   9.000000E+99

> <Gold.Chemscore.Hbonds>
donor molecule, donor type, donor heavy atom, donor atom, acceptor molecule, acceptor atom, score
      P1  H  6896  6907       L1    11  0.91
      P1  H  6931  6943       L1    14  0.16
      P1  H  6934  6947       L1    14  0.41

> <Gold.Chemscore.Hbond.Weighted>
-7.3313

> <Gold.Chemscore.Metal.Weighted>
-0.0000

> <Gold.Chemscore.Lipo.Weighted>
-7.0933

> <Gold.Chemscore.Internal_Hbond.Weighted>
0.0000

> <Gold.Chemscore.DEClash.Weighted>
0.1378

> <Gold.Chemscore.DEInternal.Weighted>
0.9918

> <Gold.Chemscore.Rot.Weighted>
2.5600

> <Gold.Chemscore.Internal.Correction.Weighted>
   9.000000E+99

> <Gold.Protein.RotatedTorsions>
[ 6907 6896 6895 6894 ] final  -32.06 input  -60.11 | X-H torsion
[ 7974 7965 7964 7962 ] final -171.71 input  175.53 | X-H torsion
[ 8008 7997 7996 7995 ] final -132.23 input   59.86 | X-H torsion
[ 10167 10162 10161 10158 ] final   26.49 input  -65.29 | X-H torsion
[ 10718 10713 10712 10709 ] final  -32.16 input   66.30 | X-H torsion
[ 10763 10752 10751 10750 ] final   -5.60 input  -60.55 | X-H torsion
[ 11005 11000 10999 10996 ] final   17.50 input  -57.11 | X-H torsion

> <Gold.Protein.ActiveResidues>
 VAL166  LYS551  ARG553  GLY616  TRP617  ASP618  TYR619  PRO620  LYS621  CYS622 
 ASP623  PHE694  ASN695  SER759  ASP760  ASP761  ALA762  ILE779  LEU786  VAL792 
 PHE793  MET794  SER795  GLU796  ALA797  LYS798  CYS799  TRP800  GLU811  SER814 

> <Gold.Protein.RotatedAtoms>
  151.0838  134.9874  159.8368 H   0  0  0  0  0  0  0  0  0  0  0  0  # atno 6907 bound_to 6896
  152.5422  134.2149  159.8774 H   0  0  0  0  0  0  0  0  0  0  0  0  # atno 6908 bound_to 6896
  151.2181  133.4474  159.2633 H   0  0  0  0  0  0  0  0  0  0  0  0  # atno 6909 bound_to 6896
  144.7154  140.1882  143.6351 H   0  0  0  0  0  0  0  0  0  0  0  0  # atno 7974 bound_to 7965
  155.3255  140.0464  157.3041 H   0  0  0  0  0  0  0  0  0  0  0  0  # atno 8008 bound_to 7997
  154.5356  140.2271  155.8694 H   0  0  0  0  0  0  0  0  0  0  0  0  # atno 8009 bound_to 7997
  156.1832  140.3069  155.9194 H   0  0  0  0  0  0  0  0  0  0  0  0  # atno 8010 bound_to 7997
  140.5018  144.0302  150.6336 H   0  0  0  0  0  0  0  0  0  0  0  0  # atno 10167 bound_to 10162
  156.3783  130.4351  149.7489 H   0  0  0  0  0  0  0  0  0  0  0  0  # atno 10718 bound_to 10713
  153.4007  135.7005  153.6428 H   0  0  0  0  0  0  0  0  0  0  0  0  # atno 10763 bound_to 10752
  153.4962  135.3662  155.2517 H   0  0  0  0  0  0  0  0  0  0  0  0  # atno 10764 bound_to 10752
  154.8710  135.4101  154.3342 H   0  0  0  0  0  0  0  0  0  0  0  0  # atno 10765 bound_to 10752
  140.4353  134.1378  155.7684 H   0  0  0  0  0  0  0  0  0  0  0  0  # atno 11005 bound_to 11000
  145.8793  139.2314  143.1615 LP  0  0  0  0  0  0  0  0  0  0  0  0  # atno 17320 bound_to 7965
  146.0010  140.8520  143.0018 LP  0  0  0  0  0  0  0  0  0  0  0  0  # atno 17321 bound_to 7965
  140.3600  143.2913  152.0394 LP  0  0  0  0  0  0  0  0  0  0  0  0  # atno 17342 bound_to 10162
  139.4874  144.6310  151.7070 LP  0  0  0  0  0  0  0  0  0  0  0  0  # atno 17343 bound_to 10162
  156.4590  130.7943  151.2963 LP  0  0  0  0  0  0  0  0  0  0  0  0  # atno 17370 bound_to 10713
  157.7490  131.0072  150.3180 LP  0  0  0  0  0  0  0  0  0  0  0  0  # atno 17371 bound_to 10713
  141.1728  133.8573  157.1515 LP  0  0  0  0  0  0  0  0  0  0  0  0  # atno 17394 bound_to 11000
  140.0107  134.9989  157.0388 LP  0  0  0  0  0  0  0  0  0  0  0  0  # atno 17395 bound_to 11000

$$$$
