AV-unprocessed.smi:2973|AV-procd|sdf|11340|dock10
  -GOLD-   2272016253D 1   1.00000     0.00000
 Structure written by MMmdl.
 49 51  0  0  0  0  0  0  0  0  1 V2000
  150.0191  133.0919  155.6170 C   0  0  0  0  0  0  0  0  0  0  0  0
  148.6676  133.8242  155.4785 C   0  0  1  0  0  0  0  0  0  0  0  0
  147.6322  133.2509  156.4702 C   0  0  0  0  0  0  0  0  0  0  0  0
  146.2502  133.8965  156.2838 C   0  0  0  0  0  0  0  0  0  0  0  0
  146.3216  135.4245  156.4126 C   0  0  0  0  0  0  0  0  0  0  0  0
  147.3499  136.0189  155.4334 C   0  0  0  0  0  0  0  0  0  0  0  0
  148.7563  135.3814  155.5657 C   0  0  2  0  0  0  0  0  0  0  0  0
  149.6319  135.9148  154.5366 N   0  0  0  0  0  0  0  0  0  0  0  0
  150.6692  136.6031  155.0289 C   0  0  0  0  0  0  0  0  0  0  0  0
  151.5379  137.1544  154.3551 O   0  0  0  0  0  0  0  0  0  0  0  0
  150.5920  136.5805  156.3709 N   0  0  0  0  0  0  0  0  0  0  0  0
  151.5519  137.2433  157.2636 C   0  0  0  0  0  0  0  0  0  0  0  0
  151.6787  138.7535  157.0173 C   0  0  0  0  0  0  0  0  0  0  0  0
  152.7757  139.2764  156.8146 O   0  0  0  0  0  0  0  0  0  0  0  0
  150.5285  139.4432  157.0308 N   0  0  0  0  0  0  0  0  0  0  0  0
  150.4095  140.8814  156.8206 C   0  0  0  0  0  0  0  0  0  0  0  0
  149.6861  141.5685  157.9909 C   0  0  0  0  0  0  0  0  0  0  0  0
  150.6051  142.4867  158.7744 C   0  0  0  0  0  0  0  0  0  0  0  0
  150.3642  143.8767  158.8243 C   0  0  0  0  0  0  0  0  0  0  0  0
  151.2455  144.6838  159.5697 C   0  0  0  0  0  0  0  0  0  0  0  0
  152.3268  144.0735  160.2341 C   0  0  0  0  0  0  0  0  0  0  0  0
  152.4793  142.6770  160.1232 C   0  0  0  0  0  0  0  0  0  0  0  0
  151.6407  141.8942  159.4107 N   0  0  0  0  0  0  0  0  0  0  0  0
  149.5127  135.9049  156.7891 C   0  0  0  0  0  0  0  0  0  0  0  0
  149.1683  135.7203  157.9566 O   0  0  0  0  0  0  0  0  0  0  0  0
  150.4549  133.2284  156.6072 H   0  0  0  0  0  0  0  0  0  0  0  0
  150.7441  133.4407  154.8815 H   0  0  0  0  0  0  0  0  0  0  0  0
  149.8961  132.0198  155.4621 H   0  0  0  0  0  0  0  0  0  0  0  0
  148.3022  133.5892  154.4776 H   0  0  0  0  0  0  0  0  0  0  0  0
  147.5438  132.1731  156.3294 H   0  0  0  0  0  0  0  0  0  0  0  0
  147.9689  133.3930  157.4973 H   0  0  0  0  0  0  0  0  0  0  0  0
  145.8538  133.6316  155.3027 H   0  0  0  0  0  0  0  0  0  0  0  0
  145.5508  133.4945  157.0173 H   0  0  0  0  0  0  0  0  0  0  0  0
  145.3391  135.8561  156.2205 H   0  0  0  0  0  0  0  0  0  0  0  0
  146.5747  135.6955  157.4375 H   0  0  0  0  0  0  0  0  0  0  0  0
  146.9866  135.8781  154.4144 H   0  0  0  0  0  0  0  0  0  0  0  0
  147.4048  137.0987  155.5822 H   0  0  0  0  0  0  0  0  0  0  0  0
  149.4580  135.7814  153.5510 H   0  0  0  0  0  0  0  0  0  0  0  0
  151.2682  137.0848  158.3053 H   0  0  0  0  0  0  0  0  0  0  0  0
  152.5352  136.7830  157.1521 H   0  0  0  0  0  0  0  0  0  0  0  0
  149.6730  138.9356  157.2044 H   0  0  0  0  0  0  0  0  0  0  0  0
  151.4149  141.2901  156.7165 H   0  0  0  0  0  0  0  0  0  0  0  0
  149.8948  141.0803  155.8789 H   0  0  0  0  0  0  0  0  0  0  0  0
  148.8391  142.1505  157.6243 H   0  0  0  0  0  0  0  0  0  0  0  0
  149.2715  140.8173  158.6643 H   0  0  0  0  0  0  0  0  0  0  0  0
  149.5248  144.3159  158.3055 H   0  0  0  0  0  0  0  0  0  0  0  0
  151.0947  145.7515  159.6307 H   0  0  0  0  0  0  0  0  0  0  0  0
  153.0226  144.6610  160.8144 H   0  0  0  0  0  0  0  0  0  0  0  0
  153.2962  142.1752  160.6206 H   0  0  0  0  0  0  0  0  0  0  0  0
  1  2  1  0  0  0  0
  1 26  1  0  0  0  0
  1 27  1  0  0  0  0
  1 28  1  0  0  0  0
  2  7  1  0  0  0  0
  2  3  1  0  0  0  0
  2 29  1  0  0  0  0
  3  4  1  0  0  0  0
  3 30  1  0  0  0  0
  3 31  1  0  0  0  0
  4  5  1  0  0  0  0
  4 32  1  0  0  0  0
  4 33  1  0  0  0  0
  5  6  1  0  0  0  0
  5 34  1  0  0  0  0
  5 35  1  0  0  0  0
  6  7  1  0  0  0  0
  6 36  1  0  0  0  0
  6 37  1  0  0  0  0
  7 24  1  0  0  0  0
  7  8  1  0  0  0  0
  8  9  1  0  0  0  0
  8 38  1  0  0  0  0
  9 10  2  0  0  0  0
  9 11  1  0  0  0  0
 11 12  1  0  0  0  0
 11 24  1  0  0  0  0
 12 13  1  0  0  0  0
 12 39  1  0  0  0  0
 12 40  1  0  0  0  0
 13 14  2  0  0  0  0
 13 15  1  0  0  0  0
 15 16  1  0  0  0  0
 15 41  1  0  0  0  0
 16 17  1  0  0  0  0
 16 42  1  0  0  0  0
 16 43  1  0  0  0  0
 17 18  1  0  0  0  0
 17 44  1  0  0  0  0
 17 45  1  0  0  0  0
 18 23  1  0  0  0  0
 18 19  2  0  0  0  0
 19 20  1  0  0  0  0
 19 46  1  0  0  0  0
 20 21  2  0  0  0  0
 20 47  1  0  0  0  0
 21 22  1  0  0  0  0
 21 48  1  0  0  0  0
 22 23  2  0  0  0  0
 22 49  1  0  0  0  0
 24 25  2  0  0  0  0
M  END
> <s_m_source_file>
AV-unprocessed.smi

> <i_m_source_file_index>
2973

> <i_lp_mmshare_version>
43012

> <i_f3d_flags>
0

> <s_epik_input>
W0NIMl0xW0NIMl1bQ0gyXVtDSDJdW0NAQEhdKFtDSDNdKVtDQF0xMltOSF1DKD1PKU4oQzI9TylbQ0gyXUMoPU8pW05IXVtDSDJdW0NIMl1jM1tjSF1bY0hdW2NIXVtjSF1uMw==

> <s_epik_cmdline>
J2VwaWtfcHl0aG9uJywgJy1waCcsICc3LjAnLCAnLXRuJywgJzgnLCAnLW1hJywgJzIwMCcsICctbWV0YWxfYmluZGluZycsICctaW1hZScsICc8aW5maWxlLm1hZT4nLCAnLW9tYWUnLCAnPG91dGZpbGUubWFlPic=

> <r_lp_tautomer_probability>
1

> <r_epik_Ionization_Penalty>
0.0245152

> <r_epik_Ionization_Penalty_Charging>
0

> <r_epik_Ionization_Penalty_Neutral>
0.0245152

> <r_epik_State_Penalty>
0.0198648

> <r_epik_Charging_Adjusted_Penalty>
0.0198648

> <i_epik_Tot_Q>
0

> <i_epik_Tot_abs_Q>
0

> <r_epik_Metal_State_Penalty>
0.0400162

> <b_epik_Metal_Only>
0

> <s_lp_Force_Field>
OPLS_2005

> <r_lp_Energy>
16.769

> <b_lp_Chiralities_Consistent>
1

> <s_lp_Variant>
AV-unprocessed.smi:2973-4

> <Gold.Version>
5.8.1

> <Gold.Id.Protein>
6NUR|6NUR_protein|mol2

> <Gold.PLP.Fitness>
42.5099

> <Gold.PLP.PLP>
-31.6630

> <Gold.PLP.part.hbond>
-4.0000

> <Gold.PLP.part.metal>
0.0000

> <Gold.PLP.part.buried>
-7.3397

> <Gold.PLP.part.nonpolar>
-22.6605

> <Gold.PLP.part.repulsive>
0.7776

> <Gold.PLP.ligand.clash>
0.0000

> <Gold.PLP.ligand.torsion>
0.4338

> <Gold.PLP.Chemscore.Hbond>
3.9000

> <Gold.PLP.Chemscore.CHOScore>
0.0000

> <Gold.PLP.Chemscore.Metal>
0.0000

> <Gold.Chemscore.Hbonds>
donor molecule, donor type, donor heavy atom, donor atom, acceptor molecule, acceptor atom, score
      L1  H     8    38       P1  7948  1.00
      P1  H  7997  8008       L1    14  1.00
      P1  H 10752 10763       L1    10  0.82

> <Gold.PLP.Chemscore.Internal.Correction>
0.0145

> <Gold.Rescore>
     Score         DG    S(hbond)    S(metal)    S(lipo)     H(rot)  DE(clash)    DE(int)     intcor
     19.10     -19.89       2.77        0.00      84.67       1.86       0.32       0.47       ----

> <Gold.Chemscore.Fitness>
19.1026

> <Gold.Chemscore.DG>
-19.8887

> <Gold.Chemscore.ZeroCoef>
-5.4800

> <Gold.Chemscore.Hbond>
2.7701

> <Gold.Chemscore.Metal>
0.0000

> <Gold.Chemscore.Lipo>
84.6703

> <Gold.Chemscore.Internal_Hbond>
0.0000

> <Gold.Chemscore.DEClash>
0.3151

> <Gold.Chemscore.DEInternal>
0.4711

> <Gold.Chemscore.Rot>
1.8553

> <Gold.Chemscore.Internal.Correction>
   9.000000E+99

> <Gold.Chemscore.Hbonds>
donor molecule, donor type, donor heavy atom, donor atom, acceptor molecule, acceptor atom, score
      L1  H     8    38       P1  7948  0.34
      P1  H  6896  6908       L1    25  0.03
      P1  H  7997  8008       L1    14  0.94
      P1  H 10752 10763       L1    10  0.43

> <Gold.Chemscore.Hbond.Weighted>
-9.2520

> <Gold.Chemscore.Metal.Weighted>
-0.0000

> <Gold.Chemscore.Lipo.Weighted>
-9.9064

> <Gold.Chemscore.Internal_Hbond.Weighted>
0.0000

> <Gold.Chemscore.DEClash.Weighted>
0.3151

> <Gold.Chemscore.DEInternal.Weighted>
0.4711

> <Gold.Chemscore.Rot.Weighted>
4.7497

> <Gold.Chemscore.Internal.Correction.Weighted>
   9.000000E+99

> <Gold.Protein.RotatedTorsions>
[ 6907 6896 6895 6894 ] final  174.07 input  -60.11 | X-H torsion
[ 7974 7965 7964 7962 ] final  -84.21 input  175.53 | X-H torsion
[ 8008 7997 7996 7995 ] final  -35.40 input   59.86 | X-H torsion
[ 10167 10162 10161 10158 ] final  -60.32 input  -65.29 | X-H torsion
[ 10718 10713 10712 10709 ] final   -8.94 input   66.30 | X-H torsion
[ 10763 10752 10751 10750 ] final   25.17 input  -60.55 | X-H torsion
[ 11005 11000 10999 10996 ] final  129.45 input  -57.11 | X-H torsion

> <Gold.Protein.ActiveResidues>
 VAL166  LYS551  ARG553  GLY616  TRP617  ASP618  TYR619  PRO620  LYS621  CYS622 
 ASP623  PHE694  ASN695  SER759  ASP760  ASP761  ALA762  ILE779  LEU786  VAL792 
 PHE793  MET794  SER795  GLU796  ALA797  LYS798  CYS799  TRP800  GLU811  SER814 

> <Gold.Protein.RotatedAtoms>
  151.7581  133.3332  159.3409 H   0  0  0  0  0  0  0  0  0  0  0  0  # atno 6907 bound_to 6896
  150.7508  134.6131  159.6106 H   0  0  0  0  0  0  0  0  0  0  0  0  # atno 6908 bound_to 6896
  152.3423  134.7119  160.0311 H   0  0  0  0  0  0  0  0  0  0  0  0  # atno 6909 bound_to 6896
  145.5096  140.9541  143.1714 H   0  0  0  0  0  0  0  0  0  0  0  0  # atno 7974 bound_to 7965
  154.4096  140.1658  156.2206 H   0  0  0  0  0  0  0  0  0  0  0  0  # atno 8008 bound_to 7997
  155.9367  140.3411  155.6270 H   0  0  0  0  0  0  0  0  0  0  0  0  # atno 8009 bound_to 7997
  155.7040  140.0748  157.2389 H   0  0  0  0  0  0  0  0  0  0  0  0  # atno 8010 bound_to 7997
  140.6079  143.2378  151.5779 H   0  0  0  0  0  0  0  0  0  0  0  0  # atno 10167 bound_to 10162
  156.6953  130.5077  149.5932 H   0  0  0  0  0  0  0  0  0  0  0  0  # atno 10718 bound_to 10713
  153.0711  135.6589  154.0245 H   0  0  0  0  0  0  0  0  0  0  0  0  # atno 10763 bound_to 10752
  153.9891  135.2948  155.3415 H   0  0  0  0  0  0  0  0  0  0  0  0  # atno 10764 bound_to 10752
  154.7086  135.5215  153.8702 H   0  0  0  0  0  0  0  0  0  0  0  0  # atno 10765 bound_to 10752
  139.9616  134.9601  156.9150 H   0  0  0  0  0  0  0  0  0  0  0  0  # atno 11005 bound_to 11000
  144.7734  139.6683  143.7185 LP  0  0  0  0  0  0  0  0  0  0  0  0  # atno 17320 bound_to 7965
  146.2175  139.5575  142.9640 LP  0  0  0  0  0  0  0  0  0  0  0  0  # atno 17321 bound_to 7965
  139.5338  144.2838  152.1208 LP  0  0  0  0  0  0  0  0  0  0  0  0  # atno 17342 bound_to 10162
  140.2031  144.4638  150.6421 LP  0  0  0  0  0  0  0  0  0  0  0  0  # atno 17343 bound_to 10162
  156.1768  130.6473  151.0903 LP  0  0  0  0  0  0  0  0  0  0  0  0  # atno 17370 bound_to 10713
  157.6993  131.0782  150.6870 LP  0  0  0  0  0  0  0  0  0  0  0  0  # atno 17371 bound_to 10713
  140.5487  134.0648  155.7363 LP  0  0  0  0  0  0  0  0  0  0  0  0  # atno 17394 bound_to 11000
  141.1294  133.9328  157.2568 LP  0  0  0  0  0  0  0  0  0  0  0  0  # atno 17395 bound_to 11000

$$$$
