AV-unprocessed.smi:1005|AV-procd|sdf|4384|dock3
  -GOLD-   22720 2313D 1   1.00000     0.00000
 Structure written by MMmdl.
 58 60  0  0  0  0  0  0  0  0  4 V2000
  152.4378  142.8509  161.4829 C   0  0  0  0  0  0  0  0  0  0  0  0
  152.2234  142.2273  160.1141 C   0  0  0  0  0  0  0  0  0  0  0  0
  151.3495  142.8706  159.2092 C   0  0  0  0  0  0  0  0  0  0  0  0
  151.1706  142.2736  157.9668 C   0  0  0  0  0  0  0  0  0  0  0  0
  150.3867  142.6527  156.8754 N   0  3  0  0  0  0  0  0  0  0  0  0
  150.5343  141.7445  155.8719 C   0  0  0  0  0  0  0  0  0  0  0  0
  151.3980  140.7868  156.3073 N   0  0  0  0  0  0  0  0  0  0  0  0
  151.8957  139.5880  155.6154 C   0  0  0  0  0  0  0  0  0  0  0  0
  150.9272  138.3920  155.7121 C   0  0  2  0  0  0  0  0  0  0  0  0
  151.2634  137.5976  156.8332 O   0  0  0  0  0  0  0  0  0  0  0  0
  150.9836  137.5096  154.4485 C   0  0  0  0  0  0  0  0  0  0  0  0
  149.9383  136.4535  154.4340 N   0  3  2  0  0  0  0  0  0  0  0  0
  148.7034  136.8689  155.1393 C   0  0  0  0  0  0  0  0  0  0  0  0
  147.6314  135.7729  155.0309 C   0  0  0  0  0  0  0  0  0  0  0  0
  148.1448  134.5536  155.5536 O   0  0  0  0  0  0  0  0  0  0  0  0
  149.2791  134.0869  154.8296 C   0  0  2  0  0  0  0  0  0  0  0  0
  149.7027  132.7335  155.4312 C   0  0  0  0  0  0  0  0  0  0  0  0
  149.8283  131.6635  154.4082 N   0  3  0  0  0  0  0  0  0  0  0  0
  150.3931  130.4022  154.9417 C   0  0  0  0  0  0  0  0  0  0  0  0
  148.5559  131.4252  153.6913 C   0  0  0  0  0  0  0  0  0  0  0  0
  150.4023  135.1382  154.9416 C   0  0  0  0  0  0  0  0  0  0  0  0
  151.8258  141.0790  157.6088 C   0  0  0  0  0  0  0  0  0  0  0  0
  152.6928  140.4342  158.4882 C   0  0  0  0  0  0  0  0  0  0  0  0
  152.8878  141.0254  159.7570 C   0  0  0  0  0  0  0  0  0  0  0  0
  153.8265  140.3426  160.7372 C   0  0  0  0  0  0  0  0  0  0  0  0
  151.8226  143.7410  161.6172 H   0  0  0  0  0  0  0  0  0  0  0  0
  153.4803  143.1433  161.6103 H   0  0  0  0  0  0  0  0  0  0  0  0
  152.1766  142.1452  162.2720 H   0  0  0  0  0  0  0  0  0  0  0  0
  150.8412  143.7866  159.4734 H   0  0  0  0  0  0  0  0  0  0  0  0
  150.0525  141.7795  154.9051 H   0  0  0  0  0  0  0  0  0  0  0  0
  152.0403  139.8617  154.5694 H   0  0  0  0  0  0  0  0  0  0  0  0
  152.8833  139.3339  156.0013 H   0  0  0  0  0  0  0  0  0  0  0  0
  149.9197  138.7790  155.8610 H   0  0  0  0  0  0  0  0  0  0  0  0
  151.9781  138.0133  157.2921 H   0  0  0  0  0  0  0  0  0  0  0  0
  150.8925  138.1206  153.5491 H   0  0  0  0  0  0  0  0  0  0  0  0
  151.9687  137.0422  154.3999 H   0  0  0  0  0  0  0  0  0  0  0  0
  148.9298  137.0698  156.1877 H   0  0  0  0  0  0  0  0  0  0  0  0
  148.3224  137.7962  154.7096 H   0  0  0  0  0  0  0  0  0  0  0  0
  146.7450  136.0561  155.5990 H   0  0  0  0  0  0  0  0  0  0  0  0
  147.3157  135.6361  153.9952 H   0  0  0  0  0  0  0  0  0  0  0  0
  149.0171  133.9644  153.7782 H   0  0  0  0  0  0  0  0  0  0  0  0
  150.6468  132.8299  155.9696 H   0  0  0  0  0  0  0  0  0  0  0  0
  148.9571  132.4427  156.1731 H   0  0  0  0  0  0  0  0  0  0  0  0
  149.7499  129.9832  155.7166 H   0  0  0  0  0  0  0  0  0  0  0  0
  151.3847  130.5532  155.3660 H   0  0  0  0  0  0  0  0  0  0  0  0
  150.4922  129.6612  154.1478 H   0  0  0  0  0  0  0  0  0  0  0  0
  147.7846  131.0634  154.3727 H   0  0  0  0  0  0  0  0  0  0  0  0
  148.6898  130.6845  152.9022 H   0  0  0  0  0  0  0  0  0  0  0  0
  148.1968  132.3418  153.2220 H   0  0  0  0  0  0  0  0  0  0  0  0
  151.2680  134.7977  154.3750 H   0  0  0  0  0  0  0  0  0  0  0  0
  150.7211  135.2411  155.9802 H   0  0  0  0  0  0  0  0  0  0  0  0
  153.1969  139.5170  158.2218 H   0  0  0  0  0  0  0  0  0  0  0  0
  154.3050  139.4703  160.2913 H   0  0  0  0  0  0  0  0  0  0  0  0
  153.2800  140.0091  161.6195 H   0  0  0  0  0  0  0  0  0  0  0  0
  154.6144  141.0259  161.0548 H   0  0  0  0  0  0  0  0  0  0  0  0
  150.4762  132.0052  153.7123 H   0  0  0  0  0  0  0  0  0  0  0  0
  149.6807  136.3271  153.4651 H   0  0  0  0  0  0  0  0  0  0  0  0
  149.7954  143.4720  156.8161 H   0  0  0  0  0  0  0  0  0  0  0  0
  1  2  1  0  0  0  0
  1 26  1  0  0  0  0
  1 27  1  0  0  0  0
  1 28  1  0  0  0  0
  2 24  1  0  0  0  0
  2  3  2  0  0  0  0
  3  4  1  0  0  0  0
  3 29  1  0  0  0  0
  4 22  2  0  0  0  0
  4  5  1  0  0  0  0
  5  6  2  0  0  0  0
  5 58  1  0  0  0  0
  6  7  1  0  0  0  0
  6 30  1  0  0  0  0
  7  8  1  0  0  0  0
  7 22  1  0  0  0  0
  8  9  1  0  0  0  0
  8 31  1  0  0  0  0
  8 32  1  0  0  0  0
  9 10  1  0  0  0  0
  9 11  1  0  0  0  0
  9 33  1  0  0  0  0
 10 34  1  0  0  0  0
 11 12  1  0  0  0  0
 11 35  1  0  0  0  0
 11 36  1  0  0  0  0
 12 21  1  0  0  0  0
 12 13  1  0  0  0  0
 12 57  1  0  0  0  0
 13 14  1  0  0  0  0
 13 37  1  0  0  0  0
 13 38  1  0  0  0  0
 14 15  1  0  0  0  0
 14 39  1  0  0  0  0
 14 40  1  0  0  0  0
 15 16  1  0  0  0  0
 16 17  1  0  0  0  0
 16 21  1  0  0  0  0
 16 41  1  0  0  0  0
 17 18  1  0  0  0  0
 17 42  1  0  0  0  0
 17 43  1  0  0  0  0
 18 19  1  0  0  0  0
 18 20  1  0  0  0  0
 18 56  1  0  0  0  0
 19 44  1  0  0  0  0
 19 45  1  0  0  0  0
 19 46  1  0  0  0  0
 20 47  1  0  0  0  0
 20 48  1  0  0  0  0
 20 49  1  0  0  0  0
 21 50  1  0  0  0  0
 21 51  1  0  0  0  0
 22 23  1  0  0  0  0
 23 24  2  0  0  0  0
 23 52  1  0  0  0  0
 24 25  1  0  0  0  0
 25 53  1  0  0  0  0
 25 54  1  0  0  0  0
 25 55  1  0  0  0  0
M  CHG  1   5   1
M  CHG  1  12   1
M  CHG  1  18   1
M  END
> <s_m_source_file>
AV-unprocessed.smi

> <i_m_source_file_index>
1005

> <i_lp_mmshare_version>
43012

> <i_f3d_flags>
0

> <s_epik_input>
W0NIM11jKFtjSF0xKWMoW0NIM10pW2NIXWMoYzEyKW4oW2NIXW4yKVtDSDJdW0NASF0oW09IXSlbQ0gyXU4zW0NIMl1bQ0gyXU9bQ0BIXShbQ0gyXTMpW0NIMl1OKFtDSDNdKVtDSDNd

> <s_epik_cmdline>
J2VwaWtfcHl0aG9uJywgJy1waCcsICc3LjAnLCAnLXRuJywgJzgnLCAnLW1hJywgJzIwMCcsICctbWV0YWxfYmluZGluZycsICctaW1hZScsICc8aW5maWxlLm1hZT4nLCAnLW9tYWUnLCAnPG91dGZpbGUubWFlPic=

> <r_epik_Ionization_Penalty>
2.30802

> <r_epik_Ionization_Penalty_Charging>
2.30798

> <r_epik_Ionization_Penalty_Neutral>
3.4851e-05

> <r_epik_State_Penalty>
2.52618

> <r_epik_Charging_Adjusted_Penalty>
4.83416

> <i_epik_Tot_Q>
3

> <i_epik_Tot_abs_Q>
3

> <r_epik_Metal_State_Penalty>
6.53149

> <b_epik_Metal_Only>
0

> <s_lp_Force_Field>
OPLS_2005

> <r_lp_Energy>
42.4593

> <b_lp_Chiralities_Consistent>
1

> <s_lp_Variant>
AV-unprocessed.smi:1005-23

> <Gold.Version>
5.8.1

> <Gold.Id.Protein>
6NUR|6NUR_protein|mol2

> <Gold.PLP.Fitness>
54.4196

> <Gold.PLP.PLP>
-46.4536

> <Gold.PLP.part.hbond>
-2.3759

> <Gold.PLP.part.metal>
0.0000

> <Gold.PLP.part.buried>
-5.3240

> <Gold.PLP.part.nonpolar>
-38.7494

> <Gold.PLP.part.repulsive>
0.1253

> <Gold.PLP.ligand.clash>
0.0000

> <Gold.PLP.ligand.torsion>
1.9311

> <Gold.PLP.Chemscore.Hbond>
3.8880

> <Gold.PLP.Chemscore.CHOScore>
0.0000

> <Gold.PLP.Chemscore.Metal>
0.0000

> <Gold.Chemscore.Hbonds>
donor molecule, donor type, donor heavy atom, donor atom, acceptor molecule, acceptor atom, score
      L1  H     5    58       P1  8028  1.89
      L1  H    12    57       P1  7948  2.00

> <Gold.PLP.Chemscore.Internal.Correction>
0.1643

> <Gold.Rescore>
     Score         DG    S(hbond)    S(metal)    S(lipo)     H(rot)  DE(clash)    DE(int)     intcor
     16.85     -18.93       1.82        0.00     119.11       2.56       0.03       2.05       ----

> <Gold.Chemscore.Fitness>
16.8477

> <Gold.Chemscore.DG>
-18.9328

> <Gold.Chemscore.ZeroCoef>
-5.4800

> <Gold.Chemscore.Hbond>
1.8151

> <Gold.Chemscore.Metal>
0.0000

> <Gold.Chemscore.Lipo>
119.1052

> <Gold.Chemscore.Internal_Hbond>
0.0000

> <Gold.Chemscore.DEClash>
0.0336

> <Gold.Chemscore.DEInternal>
2.0515

> <Gold.Chemscore.Rot>
2.5566

> <Gold.Chemscore.Internal.Correction>
   9.000000E+99

> <Gold.Chemscore.Hbonds>
donor molecule, donor type, donor heavy atom, donor atom, acceptor molecule, acceptor atom, score
      L1  H     5    58       P1  8028  0.90
      L1  H    12    57       P1  7948  0.35

> <Gold.Chemscore.Hbond.Weighted>
-6.0625

> <Gold.Chemscore.Metal.Weighted>
-0.0000

> <Gold.Chemscore.Lipo.Weighted>
-13.9353

> <Gold.Chemscore.Internal_Hbond.Weighted>
0.0000

> <Gold.Chemscore.DEClash.Weighted>
0.0336

> <Gold.Chemscore.DEInternal.Weighted>
2.0515

> <Gold.Chemscore.Rot.Weighted>
6.5450

> <Gold.Chemscore.Internal.Correction.Weighted>
   9.000000E+99

> <Gold.Protein.RotatedTorsions>
[ 6907 6896 6895 6894 ] final  163.73 input  -60.11 | X-H torsion
[ 7974 7965 7964 7962 ] final  129.89 input  175.53 | X-H torsion
[ 8008 7997 7996 7995 ] final  -10.00 input   59.86 | X-H torsion
[ 10167 10162 10161 10158 ] final   38.64 input  -65.29 | X-H torsion
[ 10718 10713 10712 10709 ] final   67.45 input   66.30 | X-H torsion
[ 10763 10752 10751 10750 ] final  111.54 input  -60.55 | X-H torsion
[ 11005 11000 10999 10996 ] final   30.43 input  -57.11 | X-H torsion

> <Gold.Protein.ActiveResidues>
 VAL166  LYS551  ARG553  GLY616  TRP617  ASP618  TYR619  PRO620  LYS621  CYS622 
 ASP623  PHE694  ASN695  SER759  ASP760  ASP761  ALA762  ILE779  LEU786  VAL792 
 PHE793  MET794  SER795  GLU796  ALA797  LYS798  CYS799  TRP800  GLU811  SER814 

> <Gold.Protein.RotatedAtoms>
  151.9207  133.3585  159.3895 H   0  0  0  0  0  0  0  0  0  0  0  0  # atno 6907 bound_to 6896
  150.7038  134.4638  159.5402 H   0  0  0  0  0  0  0  0  0  0  0  0  # atno 6908 bound_to 6896
  152.2261  134.8367  160.0530 H   0  0  0  0  0  0  0  0  0  0  0  0  # atno 6909 bound_to 6896
  145.0238  139.4108  143.5184 H   0  0  0  0  0  0  0  0  0  0  0  0  # atno 7974 bound_to 7965
  154.5595  140.2340  155.8358 H   0  0  0  0  0  0  0  0  0  0  0  0  # atno 8008 bound_to 7997
  156.2017  140.3050  155.9500 H   0  0  0  0  0  0  0  0  0  0  0  0  # atno 8009 bound_to 7997
  155.2916  140.0427  157.3014 H   0  0  0  0  0  0  0  0  0  0  0  0  # atno 8010 bound_to 7997
  140.3917  144.1844  150.6131 H   0  0  0  0  0  0  0  0  0  0  0  0  # atno 10167 bound_to 10162
  157.6231  130.9322  150.0245 H   0  0  0  0  0  0  0  0  0  0  0  0  # atno 10718 bound_to 10713
  153.4648  135.3714  155.2358 H   0  0  0  0  0  0  0  0  0  0  0  0  # atno 10763 bound_to 10752
  154.8757  135.3917  154.3882 H   0  0  0  0  0  0  0  0  0  0  0  0  # atno 10764 bound_to 10752
  153.4461  135.7085  153.6203 H   0  0  0  0  0  0  0  0  0  0  0  0  # atno 10765 bound_to 10752
  140.2944  134.2827  155.7768 H   0  0  0  0  0  0  0  0  0  0  0  0  # atno 11005 bound_to 11000
  146.3489  139.9750  142.8702 LP  0  0  0  0  0  0  0  0  0  0  0  0  # atno 17320 bound_to 7965
  145.1861  140.9790  143.4238 LP  0  0  0  0  0  0  0  0  0  0  0  0  # atno 17321 bound_to 7965
  140.4833  143.2372  151.8924 LP  0  0  0  0  0  0  0  0  0  0  0  0  # atno 17342 bound_to 10162
  139.4789  144.5246  151.8753 LP  0  0  0  0  0  0  0  0  0  0  0  0  # atno 17343 bound_to 10162
  156.1388  130.3642  149.9615 LP  0  0  0  0  0  0  0  0  0  0  0  0  # atno 17370 bound_to 10713
  156.7661  130.9169  151.3643 LP  0  0  0  0  0  0  0  0  0  0  0  0  # atno 17371 bound_to 10713
  141.2140  133.7606  156.9673 LP  0  0  0  0  0  0  0  0  0  0  0  0  # atno 17394 bound_to 11000
  140.1166  134.9443  157.2142 LP  0  0  0  0  0  0  0  0  0  0  0  0  # atno 17395 bound_to 11000

$$$$
