AV-unprocessed.smi:3018|AV-procd|sdf|11482|dock4
  -GOLD-   2272016423D 1   1.00000     0.00000
 Structure written by MMmdl.
 44 45  0  0  0  0  0  0  0  0  2 V2000
  150.8763  139.1662  154.8835 C   0  0  0  0  0  0  0  0  0  0  0  0
  150.7076  140.6152  155.3576 C   0  0  0  0  0  0  0  0  0  0  0  0
  149.9834  140.7166  156.7127 C   0  0  1  0  0  0  0  0  0  0  0  0
  150.1238  142.0569  157.1804 O   0  0  0  0  0  0  0  0  0  0  0  0
  151.3636  142.3909  157.7988 C   0  0  0  0  0  0  0  0  0  0  0  0
  151.5045  141.5084  159.0510 C   0  0  0  0  0  0  0  0  0  0  0  0
  152.7762  141.8554  159.8417 C   0  0  0  0  0  0  0  0  0  0  0  0
  152.8056  143.3450  160.2196 C   0  0  0  0  0  0  0  0  0  0  0  0
  152.6556  144.2370  158.9770 C   0  0  0  0  0  0  0  0  0  0  0  0
  151.3858  143.8841  158.1852 C   0  0  0  0  0  0  0  0  0  0  0  0
  148.4922  140.3726  156.5750 C   0  0  0  0  0  0  0  0  0  0  0  0
  148.1460  139.3023  156.0745 O   0  0  0  0  0  0  0  0  0  0  0  0
  147.6232  141.2976  157.0113 N   0  0  0  0  0  0  0  0  0  0  0  0
  146.1714  141.1722  156.9655 C   0  0  0  0  0  0  0  0  0  0  0  0
  145.4792  142.4426  157.5010 C   0  0  0  0  0  0  0  0  0  0  0  0
  145.9396  142.8990  158.8785 C   0  0  0  0  0  0  0  0  0  0  0  0
  145.8169  142.2808  159.9957 N   0  0  0  0  0  0  0  0  0  0  0  0
  146.4160  143.1472  160.9672 N   0  5  0  0  0  0  0  0  0  0  0  0
  146.8542  144.2444  160.3035 C   0  0  0  0  0  0  0  0  0  0  0  0
  147.4256  145.2364  160.7502 O   0  0  0  0  0  0  0  0  0  0  0  0
  146.5684  144.1055  159.0133 N   0  0  0  0  0  0  0  0  0  0  0  0
  146.7679  144.7586  158.2706 H   0  0  0  0  0  0  0  0  0  0  0  0
  151.3814  139.1301  153.9181 H   0  0  0  0  0  0  0  0  0  0  0  0
  149.9102  138.6731  154.7725 H   0  0  0  0  0  0  0  0  0  0  0  0
  151.4698  138.5854  155.5901 H   0  0  0  0  0  0  0  0  0  0  0  0
  151.6882  141.0893  155.4205 H   0  0  0  0  0  0  0  0  0  0  0  0
  150.1487  141.1663  154.5997 H   0  0  0  0  0  0  0  0  0  0  0  0
  150.4533  140.0182  157.4065 H   0  0  0  0  0  0  0  0  0  0  0  0
  152.2028  142.1733  157.1368 H   0  0  0  0  0  0  0  0  0  0  0  0
  150.6313  141.6374  159.6921 H   0  0  0  0  0  0  0  0  0  0  0  0
  151.5233  140.4568  158.7629 H   0  0  0  0  0  0  0  0  0  0  0  0
  152.8335  141.2423  160.7414 H   0  0  0  0  0  0  0  0  0  0  0  0
  153.6559  141.6115  159.2446 H   0  0  0  0  0  0  0  0  0  0  0  0
  151.9991  143.5592  160.9220 H   0  0  0  0  0  0  0  0  0  0  0  0
  153.7365  143.5797  160.7367 H   0  0  0  0  0  0  0  0  0  0  0  0
  152.6290  145.2857  159.2741 H   0  0  0  0  0  0  0  0  0  0  0  0
  153.5296  144.1191  158.3353 H   0  0  0  0  0  0  0  0  0  0  0  0
  151.3295  144.5131  157.2973 H   0  0  0  0  0  0  0  0  0  0  0  0
  150.5056  144.1195  158.7850 H   0  0  0  0  0  0  0  0  0  0  0  0
  147.9953  142.1499  157.4043 H   0  0  0  0  0  0  0  0  0  0  0  0
  145.8878  140.9990  155.9268 H   0  0  0  0  0  0  0  0  0  0  0  0
  145.8588  140.2903  157.5278 H   0  0  0  0  0  0  0  0  0  0  0  0
  145.6306  143.2679  156.8046 H   0  0  0  0  0  0  0  0  0  0  0  0
  144.4029  142.2734  157.5451 H   0  0  0  0  0  0  0  0  0  0  0  0
  1  2  1  0  0  0  0
  1 23  1  0  0  0  0
  1 24  1  0  0  0  0
  1 25  1  0  0  0  0
  2  3  1  0  0  0  0
  2 26  1  0  0  0  0
  2 27  1  0  0  0  0
  3  4  1  0  0  0  0
  3 11  1  0  0  0  0
  3 28  1  0  0  0  0
  4  5  1  0  0  0  0
  5 10  1  0  0  0  0
  5  6  1  0  0  0  0
  5 29  1  0  0  0  0
  6  7  1  0  0  0  0
  6 30  1  0  0  0  0
  6 31  1  0  0  0  0
  7  8  1  0  0  0  0
  7 32  1  0  0  0  0
  7 33  1  0  0  0  0
  8  9  1  0  0  0  0
  8 34  1  0  0  0  0
  8 35  1  0  0  0  0
  9 10  1  0  0  0  0
  9 36  1  0  0  0  0
  9 37  1  0  0  0  0
 10 38  1  0  0  0  0
 10 39  1  0  0  0  0
 11 12  2  0  0  0  0
 11 13  1  0  0  0  0
 13 14  1  0  0  0  0
 13 40  1  0  0  0  0
 14 15  1  0  0  0  0
 14 41  1  0  0  0  0
 14 42  1  0  0  0  0
 15 16  1  0  0  0  0
 15 43  1  0  0  0  0
 15 44  1  0  0  0  0
 16 21  1  0  0  0  0
 16 17  2  0  0  0  0
 17 18  1  0  0  0  0
 18 19  1  0  0  0  0
 19 20  2  0  0  0  0
 19 21  1  0  0  0  0
 21 22  1  0  0  0  0
M  CHG  1  18  -1
M  END
> <s_m_source_file>
AV-unprocessed.smi

> <i_m_source_file_index>
3018

> <i_lp_mmshare_version>
43012

> <i_f3d_flags>
0

> <s_epik_input>
W0NIMl0xW0NIMl1bQ0gyXVtDSDJdW0NIMl1bQ0hdMU9bQ0BASF0oW0NIMl1bQ0gzXSlDKD1PKVtOSF1bQ0gyXVtDSDJdYzJuW25IXWMoPU8pW25IXTI=

> <s_epik_cmdline>
J2VwaWtfcHl0aG9uJywgJy1waCcsICc3LjAnLCAnLXRuJywgJzgnLCAnLW1hJywgJzIwMCcsICctbWV0YWxfYmluZGluZycsICctaW1hZScsICc8aW5maWxlLm1hZT4nLCAnLW9tYWUnLCAnPG91dGZpbGUubWFlPic=

> <r_lp_tautomer_probability>
1

> <r_epik_Ionization_Penalty>
14.1812

> <r_epik_Ionization_Penalty_Charging>
13.7758

> <r_epik_Ionization_Penalty_Neutral>
0.405355

> <r_epik_State_Penalty>
4.92413

> <r_epik_Charging_Adjusted_Penalty>
18.7

> <i_epik_Tot_Q>
-1

> <i_epik_Tot_abs_Q>
1

> <r_epik_Metal_State_Penalty>
1.32654

> <b_epik_Metal_Only>
1

> <s_lp_Force_Field>
OPLS_2005

> <r_lp_Energy>
19.6137

> <b_lp_Chiralities_Consistent>
1

> <s_lp_Variant>
AV-unprocessed.smi:3018-4

> <Gold.Version>
5.8.1

> <Gold.Id.Protein>
6NUR|6NUR_protein|mol2

> <Gold.PLP.Fitness>
47.6148

> <Gold.PLP.PLP>
-36.0726

> <Gold.PLP.part.hbond>
-3.3172

> <Gold.PLP.part.metal>
0.0000

> <Gold.PLP.part.buried>
-5.4956

> <Gold.PLP.part.nonpolar>
-28.0354

> <Gold.PLP.part.repulsive>
0.4993

> <Gold.PLP.ligand.clash>
0.0000

> <Gold.PLP.ligand.torsion>
0.3625

> <Gold.PLP.Chemscore.Hbond>
4.0000

> <Gold.PLP.Chemscore.CHOScore>
0.0000

> <Gold.PLP.Chemscore.Metal>
0.0000

> <Gold.Chemscore.Hbonds>
donor molecule, donor type, donor heavy atom, donor atom, acceptor molecule, acceptor atom, score
      L1  H    21    22       P1  8029  1.00
      P1  H  6933  6944       L1    18  0.63
      P1  H  6934  6946       L1    17  0.40

> <Gold.PLP.Chemscore.Internal.Correction>
0.2671

> <Gold.Rescore>
     Score         DG    S(hbond)    S(metal)    S(lipo)     H(rot)  DE(clash)    DE(int)     intcor
     14.01     -14.68       1.89        0.00      89.73       2.98       0.03       0.64       ----

> <Gold.Chemscore.Fitness>
14.0118

> <Gold.Chemscore.DG>
-14.6843

> <Gold.Chemscore.ZeroCoef>
-5.4800

> <Gold.Chemscore.Hbond>
1.8944

> <Gold.Chemscore.Metal>
0.0000

> <Gold.Chemscore.Lipo>
89.7315

> <Gold.Chemscore.Internal_Hbond>
0.0000

> <Gold.Chemscore.DEClash>
0.0285

> <Gold.Chemscore.DEInternal>
0.6441

> <Gold.Chemscore.Rot>
2.9772

> <Gold.Chemscore.Internal.Correction>
   9.000000E+99

> <Gold.Chemscore.Hbonds>
donor molecule, donor type, donor heavy atom, donor atom, acceptor molecule, acceptor atom, score
      L1  H    21    22       P1  8029  0.91
      P1  H  6933  6944       L1    18  0.03
      P1  H  6934  6946       L1    17  0.01

> <Gold.Chemscore.Hbond.Weighted>
-6.3274

> <Gold.Chemscore.Metal.Weighted>
-0.0000

> <Gold.Chemscore.Lipo.Weighted>
-10.4986

> <Gold.Chemscore.Internal_Hbond.Weighted>
0.0000

> <Gold.Chemscore.DEClash.Weighted>
0.0285

> <Gold.Chemscore.DEInternal.Weighted>
0.6441

> <Gold.Chemscore.Rot.Weighted>
7.6216

> <Gold.Chemscore.Internal.Correction.Weighted>
   9.000000E+99

> <Gold.Protein.RotatedTorsions>
[ 6907 6896 6895 6894 ] final  109.02 input  -60.11 | X-H torsion
[ 7974 7965 7964 7962 ] final  -21.41 input  175.53 | X-H torsion
[ 8008 7997 7996 7995 ] final  -25.48 input   59.86 | X-H torsion
[ 10167 10162 10161 10158 ] final -163.84 input  -65.29 | X-H torsion
[ 10718 10713 10712 10709 ] final -110.03 input   66.30 | X-H torsion
[ 10763 10752 10751 10750 ] final  -46.45 input  -60.55 | X-H torsion
[ 11005 11000 10999 10996 ] final -115.48 input  -57.11 | X-H torsion

> <Gold.Protein.ActiveResidues>
 VAL166  LYS551  ARG553  GLY616  TRP617  ASP618  TYR619  PRO620  LYS621  CYS622 
 ASP623  PHE694  ASN695  SER759  ASP760  ASP761  ALA762  ILE779  LEU786  VAL792 
 PHE793  MET794  SER795  GLU796  ALA797  LYS798  CYS799  TRP800  GLU811  SER814 

> <Gold.Protein.RotatedAtoms>
  152.5086  133.9004  159.7437 H   0  0  0  0  0  0  0  0  0  0  0  0  # atno 6907 bound_to 6896
  150.9421  133.6636  159.2795 H   0  0  0  0  0  0  0  0  0  0  0  0  # atno 6908 bound_to 6896
  151.3943  135.0966  159.9589 H   0  0  0  0  0  0  0  0  0  0  0  0  # atno 6909 bound_to 6896
  146.1734  140.4337  142.8523 H   0  0  0  0  0  0  0  0  0  0  0  0  # atno 7974 bound_to 7965
  154.4474  140.1925  156.0626 H   0  0  0  0  0  0  0  0  0  0  0  0  # atno 8008 bound_to 7997
  156.0572  140.3301  155.7392 H   0  0  0  0  0  0  0  0  0  0  0  0  # atno 8009 bound_to 7997
  155.5468  140.0591  157.2849 H   0  0  0  0  0  0  0  0  0  0  0  0  # atno 8010 bound_to 7997
  139.6292  144.0472  152.2001 H   0  0  0  0  0  0  0  0  0  0  0  0  # atno 10167 bound_to 10162
  156.0569  130.5794  150.8181 H   0  0  0  0  0  0  0  0  0  0  0  0  # atno 10718 bound_to 10713
  154.0452  135.6638  153.4794 H   0  0  0  0  0  0  0  0  0  0  0  0  # atno 10763 bound_to 10752
  153.0485  135.5099  154.7803 H   0  0  0  0  0  0  0  0  0  0  0  0  # atno 10764 bound_to 10752
  154.6792  135.3042  154.9602 H   0  0  0  0  0  0  0  0  0  0  0  0  # atno 10765 bound_to 10752
  141.0485  133.9725  157.2877 H   0  0  0  0  0  0  0  0  0  0  0  0  # atno 11005 bound_to 11000
  144.8199  140.6531  143.6360 LP  0  0  0  0  0  0  0  0  0  0  0  0  # atno 17320 bound_to 7965
  145.4277  139.1554  143.4039 LP  0  0  0  0  0  0  0  0  0  0  0  0  # atno 17321 bound_to 7965
  140.0133  144.6207  150.7628 LP  0  0  0  0  0  0  0  0  0  0  0  0  # atno 17342 bound_to 10162
  140.7429  143.2839  151.3520 LP  0  0  0  0  0  0  0  0  0  0  0  0  # atno 17343 bound_to 10162
  157.5546  131.0944  150.9647 LP  0  0  0  0  0  0  0  0  0  0  0  0  # atno 17370 bound_to 10713
  156.9899  130.5559  149.5302 LP  0  0  0  0  0  0  0  0  0  0  0  0  # atno 17371 bound_to 10713
  139.9331  135.0198  156.8466 LP  0  0  0  0  0  0  0  0  0  0  0  0  # atno 17394 bound_to 11000
  140.6101  134.0091  155.7573 LP  0  0  0  0  0  0  0  0  0  0  0  0  # atno 17395 bound_to 11000

$$$$
