AV-unprocessed.smi:2001|AV-procd|sdf|8107|dock4
  -GOLD-   2272010333D 1   1.00000     0.00000
 Structure written by MMmdl.
 51 52  0  0  0  0  0  0  0  0  2 V2000
  151.5280  142.9747  159.4122 C   0  0  0  0  0  0  0  0  0  0  0  0
  151.9188  141.6905  158.9594 O   0  0  0  0  0  0  0  0  0  0  0  0
  150.8500  140.9729  158.3649 C   0  0  0  0  0  0  0  0  0  0  0  0
  150.4101  141.6692  157.0664 C   0  0  0  0  0  0  0  0  0  0  0  0
  150.3661  140.7350  155.9356 N   0  0  0  0  0  0  0  0  0  0  0  0
  149.1356  140.6803  155.3013 N   0  0  0  0  0  0  0  0  0  0  0  0
  148.9636  139.9037  154.2808 C   0  0  0  0  0  0  0  0  0  0  0  0
  147.6548  139.8136  153.5751 C   0  0  0  0  0  0  0  0  0  0  0  0
  146.6820  140.4888  153.9153 O   0  0  0  0  0  0  0  0  0  0  0  0
  147.6132  138.9521  152.5442 N   0  0  0  0  0  0  0  0  0  0  0  0
  146.4447  138.7269  151.7055 C   0  0  0  0  0  0  0  0  0  0  0  0
  146.6834  137.5379  150.7613 C   0  0  0  0  0  0  0  0  0  0  0  0
  145.7240  136.4286  150.9894 N   0  3  1  0  0  0  0  0  0  0  0  0
  146.0287  135.2426  150.1564 C   0  0  0  0  0  0  0  0  0  0  0  0
  144.9486  134.1622  150.3402 C   0  0  1  0  0  0  0  0  0  0  0  0
  145.2775  132.8862  149.5575 C   0  0  0  0  0  0  0  0  0  0  0  0
  144.8520  133.8202  151.7204 O   0  0  0  0  0  0  0  0  0  0  0  0
  144.5539  134.9124  152.5902 C   0  0  2  0  0  0  0  0  0  0  0  0
  143.0998  135.3951  152.4443 C   0  0  0  0  0  0  0  0  0  0  0  0
  145.5953  136.0357  152.4145 C   0  0  0  0  0  0  0  0  0  0  0  0
  150.0505  139.0788  153.7817 C   0  0  0  0  0  0  0  0  0  0  0  0
  151.2448  139.1432  154.4097 C   0  0  0  0  0  0  0  0  0  0  0  0
  151.4674  140.0138  155.5652 C   0  0  0  0  0  0  0  0  0  0  0  0
  152.5477  140.0906  156.1494 O   0  0  0  0  0  0  0  0  0  0  0  0
  152.3841  143.4808  159.8585 H   0  0  0  0  0  0  0  0  0  0  0  0
  150.7456  142.9050  160.1690 H   0  0  0  0  0  0  0  0  0  0  0  0
  151.1648  143.5898  158.5879 H   0  0  0  0  0  0  0  0  0  0  0  0
  151.1791  139.9578  158.1378 H   0  0  0  0  0  0  0  0  0  0  0  0
  150.0104  140.8933  159.0577 H   0  0  0  0  0  0  0  0  0  0  0  0
  149.4521  142.1711  157.2132 H   0  0  0  0  0  0  0  0  0  0  0  0
  151.1171  142.4681  156.8359 H   0  0  0  0  0  0  0  0  0  0  0  0
  148.4499  138.4293  152.3268 H   0  0  0  0  0  0  0  0  0  0  0  0
  145.5849  138.5487  152.3517 H   0  0  0  0  0  0  0  0  0  0  0  0
  146.2348  139.6282  151.1273 H   0  0  0  0  0  0  0  0  0  0  0  0
  146.5745  137.8941  149.7356 H   0  0  0  0  0  0  0  0  0  0  0  0
  147.7057  137.1678  150.8537 H   0  0  0  0  0  0  0  0  0  0  0  0
  146.0785  135.5315  149.1057 H   0  0  0  0  0  0  0  0  0  0  0  0
  147.0104  134.8498  150.4272 H   0  0  0  0  0  0  0  0  0  0  0  0
  143.9888  134.5382  149.9848 H   0  0  0  0  0  0  0  0  0  0  0  0
  145.3559  133.0899  148.4892 H   0  0  0  0  0  0  0  0  0  0  0  0
  144.5010  132.1332  149.6952 H   0  0  0  0  0  0  0  0  0  0  0  0
  146.2230  132.4534  149.8859 H   0  0  0  0  0  0  0  0  0  0  0  0
  144.6544  134.5241  153.6042 H   0  0  0  0  0  0  0  0  0  0  0  0
  142.8583  136.1302  153.2127 H   0  0  0  0  0  0  0  0  0  0  0  0
  142.4022  134.5647  152.5544 H   0  0  0  0  0  0  0  0  0  0  0  0
  142.9126  135.8641  151.4788 H   0  0  0  0  0  0  0  0  0  0  0  0
  146.5659  135.6937  152.7778 H   0  0  0  0  0  0  0  0  0  0  0  0
  145.3142  136.8898  153.0298 H   0  0  0  0  0  0  0  0  0  0  0  0
  149.9153  138.4272  152.9306 H   0  0  0  0  0  0  0  0  0  0  0  0
  152.0617  138.5352  154.0498 H   0  0  0  0  0  0  0  0  0  0  0  0
  144.8187  136.7616  150.6892 H   0  0  0  0  0  0  0  0  0  0  0  0
  1  2  1  0  0  0  0
  1 25  1  0  0  0  0
  1 26  1  0  0  0  0
  1 27  1  0  0  0  0
  2  3  1  0  0  0  0
  3  4  1  0  0  0  0
  3 28  1  0  0  0  0
  3 29  1  0  0  0  0
  4  5  1  0  0  0  0
  4 30  1  0  0  0  0
  4 31  1  0  0  0  0
  5 23  1  0  0  0  0
  5  6  1  0  0  0  0
  6  7  2  0  0  0  0
  7  8  1  0  0  0  0
  7 21  1  0  0  0  0
  8  9  2  0  0  0  0
  8 10  1  0  0  0  0
 10 11  1  0  0  0  0
 10 32  1  0  0  0  0
 11 12  1  0  0  0  0
 11 33  1  0  0  0  0
 11 34  1  0  0  0  0
 12 13  1  0  0  0  0
 12 35  1  0  0  0  0
 12 36  1  0  0  0  0
 13 20  1  0  0  0  0
 13 14  1  0  0  0  0
 13 51  1  0  0  0  0
 14 15  1  0  0  0  0
 14 37  1  0  0  0  0
 14 38  1  0  0  0  0
 15 16  1  0  0  0  0
 15 17  1  0  0  0  0
 15 39  1  0  0  0  0
 16 40  1  0  0  0  0
 16 41  1  0  0  0  0
 16 42  1  0  0  0  0
 17 18  1  0  0  0  0
 18 19  1  0  0  0  0
 18 20  1  0  0  0  0
 18 43  1  0  0  0  0
 19 44  1  0  0  0  0
 19 45  1  0  0  0  0
 19 46  1  0  0  0  0
 20 47  1  0  0  0  0
 20 48  1  0  0  0  0
 21 22  2  0  0  0  0
 21 49  1  0  0  0  0
 22 23  1  0  0  0  0
 22 50  1  0  0  0  0
 23 24  2  0  0  0  0
M  CHG  1  13   1
M  END
> <s_m_source_file>
AV-unprocessed.smi

> <i_m_source_file_index>
2001

> <i_lp_mmshare_version>
43012

> <i_f3d_flags>
0

> <s_epik_input>
W0NIM11PW0NIMl1bQ0gyXW4xbmMoW2NIXVtjSF1jMT1PKUMoPU8pW05IXVtDSDJdW0NIMl1OMltDSDJdW0NAQEhdKFtDSDNdKU9bQ0BASF0oW0NIM10pW0NIMl0y

> <s_epik_cmdline>
J2VwaWtfcHl0aG9uJywgJy1waCcsICc3LjAnLCAnLXRuJywgJzgnLCAnLW1hJywgJzIwMCcsICctbWV0YWxfYmluZGluZycsICctaW1hZScsICc8aW5maWxlLm1hZT4nLCAnLW9tYWUnLCAnPG91dGZpbGUubWFlPic=

> <r_lp_tautomer_probability>
1

> <r_epik_Ionization_Penalty>
0.724354

> <r_epik_Ionization_Penalty_Charging>
0.724348

> <r_epik_Ionization_Penalty_Neutral>
6.1656e-06

> <r_epik_State_Penalty>
0.749058

> <r_epik_Charging_Adjusted_Penalty>
1.47341

> <i_epik_Tot_Q>
1

> <i_epik_Tot_abs_Q>
1

> <r_epik_Metal_State_Penalty>
0.750779

> <b_epik_Metal_Only>
0

> <s_lp_Force_Field>
OPLS_2005

> <r_lp_Energy>
40.2428

> <b_lp_Chiralities_Consistent>
1

> <s_lp_Variant>
AV-unprocessed.smi:2001-6

> <Gold.Version>
5.8.1

> <Gold.Id.Protein>
6NUR|6NUR_protein|mol2

> <Gold.PLP.Fitness>
50.6656

> <Gold.PLP.PLP>
-44.9199

> <Gold.PLP.part.hbond>
-3.7743

> <Gold.PLP.part.metal>
0.0000

> <Gold.PLP.part.buried>
-1.1600

> <Gold.PLP.part.nonpolar>
-42.0365

> <Gold.PLP.part.repulsive>
0.4751

> <Gold.PLP.ligand.clash>
0.4956

> <Gold.PLP.ligand.torsion>
0.8211

> <Gold.PLP.Chemscore.Hbond>
2.5468

> <Gold.PLP.Chemscore.CHOScore>
0.0000

> <Gold.PLP.Chemscore.Metal>
0.0000

> <Gold.Chemscore.Hbonds>
donor molecule, donor type, donor heavy atom, donor atom, acceptor molecule, acceptor atom, score
      L1  H    10    32       P1  7948  0.30
      L1  H    13    51       P1 10171  0.40
      P1  H  7997  8008       L1    24  1.00

> <Gold.PLP.Chemscore.Internal.Correction>
0.2431

> <Gold.Rescore>
     Score         DG    S(hbond)    S(metal)    S(lipo)     H(rot)  DE(clash)    DE(int)     intcor
     16.66     -21.19       2.80        0.00      99.68       2.07       3.76       0.78       ----

> <Gold.Chemscore.Fitness>
16.6560

> <Gold.Chemscore.DG>
-21.1909

> <Gold.Chemscore.ZeroCoef>
-5.4800

> <Gold.Chemscore.Hbond>
2.8004

> <Gold.Chemscore.Metal>
0.0000

> <Gold.Chemscore.Lipo>
99.6786

> <Gold.Chemscore.Internal_Hbond>
0.0000

> <Gold.Chemscore.DEClash>
3.7551

> <Gold.Chemscore.DEInternal>
0.7798

> <Gold.Chemscore.Rot>
2.0721

> <Gold.Chemscore.Internal.Correction>
   9.000000E+99

> <Gold.Chemscore.Hbonds>
donor molecule, donor type, donor heavy atom, donor atom, acceptor molecule, acceptor atom, score
      L1  H    10    32       P1  7948  0.31
      L1  H    13    51       P1 10171  0.40
      P1  H  7997  8008       L1    24  0.99

> <Gold.Chemscore.Hbond.Weighted>
-9.3532

> <Gold.Chemscore.Metal.Weighted>
-0.0000

> <Gold.Chemscore.Lipo.Weighted>
-11.6624

> <Gold.Chemscore.Internal_Hbond.Weighted>
0.0000

> <Gold.Chemscore.DEClash.Weighted>
3.7551

> <Gold.Chemscore.DEInternal.Weighted>
0.7798

> <Gold.Chemscore.Rot.Weighted>
5.3047

> <Gold.Chemscore.Internal.Correction.Weighted>
   9.000000E+99

> <Gold.Protein.RotatedTorsions>
[ 6907 6896 6895 6894 ] final -159.81 input  -60.11 | X-H torsion
[ 7974 7965 7964 7962 ] final   94.00 input  175.53 | X-H torsion
[ 8008 7997 7996 7995 ] final  -30.31 input   59.86 | X-H torsion
[ 10167 10162 10161 10158 ] final   47.22 input  -65.29 | X-H torsion
[ 10718 10713 10712 10709 ] final   12.62 input   66.30 | X-H torsion
[ 10763 10752 10751 10750 ] final -147.71 input  -60.55 | X-H torsion
[ 11005 11000 10999 10996 ] final -138.59 input  -57.11 | X-H torsion

> <Gold.Protein.ActiveResidues>
 VAL166  LYS551  ARG553  GLY616  TRP617  ASP618  TYR619  PRO620  LYS621  CYS622 
 ASP623  PHE694  ASN695  SER759  ASP760  ASP761  ALA762  ILE779  LEU786  VAL792 
 PHE793  MET794  SER795  GLU796  ALA797  LYS798  CYS799  TRP800  GLU811  SER814 

> <Gold.Protein.RotatedAtoms>
  151.3394  133.3968  159.2669 H   0  0  0  0  0  0  0  0  0  0  0  0  # atno 6907 bound_to 6896
  150.9891  134.9230  159.7899 H   0  0  0  0  0  0  0  0  0  0  0  0  # atno 6908 bound_to 6896
  152.5241  134.3358  159.9252 H   0  0  0  0  0  0  0  0  0  0  0  0  # atno 6909 bound_to 6896
  145.4714  139.2282  143.2933 H   0  0  0  0  0  0  0  0  0  0  0  0  # atno 7974 bound_to 7965
  154.4255  140.1795  156.1387 H   0  0  0  0  0  0  0  0  0  0  0  0  # atno 8008 bound_to 7997
  156.0009  140.3360  155.6820 H   0  0  0  0  0  0  0  0  0  0  0  0  # atno 8009 bound_to 7997
  155.6243  140.0663  157.2659 H   0  0  0  0  0  0  0  0  0  0  0  0  # atno 8010 bound_to 7997
  140.3059  144.2878  150.6209 H   0  0  0  0  0  0  0  0  0  0  0  0  # atno 10167 bound_to 10162
  157.0128  130.6124  149.5710 H   0  0  0  0  0  0  0  0  0  0  0  0  # atno 10718 bound_to 10713
  154.8272  135.3353  154.6860 H   0  0  0  0  0  0  0  0  0  0  0  0  # atno 10763 bound_to 10752
  153.7485  135.6941  153.4955 H   0  0  0  0  0  0  0  0  0  0  0  0  # atno 10764 bound_to 10752
  153.2194  135.4454  155.0422 H   0  0  0  0  0  0  0  0  0  0  0  0  # atno 10765 bound_to 10752
  140.8602  134.2179  157.4712 H   0  0  0  0  0  0  0  0  0  0  0  0  # atno 11005 bound_to 11000
  146.2394  140.5493  142.8940 LP  0  0  0  0  0  0  0  0  0  0  0  0  # atno 17320 bound_to 7965
  144.7943  140.6092  143.6521 LP  0  0  0  0  0  0  0  0  0  0  0  0  # atno 17321 bound_to 7965
  140.5610  143.2192  151.7764 LP  0  0  0  0  0  0  0  0  0  0  0  0  # atno 17342 bound_to 10162
  139.4904  144.4348  151.9832 LP  0  0  0  0  0  0  0  0  0  0  0  0  # atno 17343 bound_to 10162
  156.0130  130.5222  150.8047 LP  0  0  0  0  0  0  0  0  0  0  0  0  # atno 17370 bound_to 10713
  157.5308  131.0936  150.9958 LP  0  0  0  0  0  0  0  0  0  0  0  0  # atno 17371 bound_to 10713
  139.8706  134.9725  156.4777 LP  0  0  0  0  0  0  0  0  0  0  0  0  # atno 17394 bound_to 11000
  140.8692  133.8001  155.9346 LP  0  0  0  0  0  0  0  0  0  0  0  0  # atno 17395 bound_to 11000

$$$$
