AV-unprocessed.smi:1572|AV-procd|sdf|6328|dock3
  -GOLD-   22720 6533D 1   1.00000     0.00000
 Structure written by MMmdl.
 43 44  0  0  0  0  0  0  0  0  2 V2000
  151.2595  140.7534  155.2957 C   0  0  0  0  0  0  0  0  0  0  0  0
  150.2601  141.0012  156.3292 N   0  0  0  0  0  0  0  0  0  0  0  0
  150.7287  140.6916  157.6786 C   0  0  0  0  0  0  0  0  0  0  0  0
  151.7796  141.7051  158.1747 C   0  0  0  0  0  0  0  0  0  0  0  0
  151.2329  143.0940  158.1619 N   0  3  0  0  0  0  0  0  0  0  0  0
  152.1007  144.1383  158.8252 C   0  0  0  0  0  0  0  0  0  0  0  0
  152.9295  143.5293  159.9822 C   0  0  0  0  0  0  0  0  0  0  0  0
  153.0946  144.7583  157.8065 C   0  0  0  0  0  0  0  0  0  0  0  0
  151.1819  145.2750  159.3707 C   0  0  0  0  0  0  0  0  0  0  0  0
  149.7617  145.0983  159.0663 N   0  0  0  0  0  0  0  0  0  0  0  0
  148.8481  144.5732  159.8965 C   0  0  0  0  0  0  0  0  0  0  0  0
  149.1175  144.1544  161.0225 O   0  0  0  0  0  0  0  0  0  0  0  0
  147.6263  144.5647  159.3350 N   0  0  0  0  0  0  0  0  0  0  0  0
  146.4130  144.0644  159.8774 C   0  0  0  0  0  0  0  0  0  0  0  0
  146.3098  142.8818  160.5040 N   0  0  0  0  0  0  0  0  0  0  0  0
  145.0130  142.6329  160.9340 N   0  0  0  0  0  0  0  0  0  0  0  0
  144.1897  143.6352  160.6134 C   0  0  0  0  0  0  0  0  0  0  0  0
  144.9179  144.9803  159.7524 S   0  0  0  0  0  0  0  0  0  0  0  0
  150.7493  143.4105  156.7859 C   0  0  0  0  0  0  0  0  0  0  0  0
  149.7265  142.3611  156.3000 C   0  0  0  0  0  0  0  0  0  0  0  0
  151.5855  139.7134  155.3285 H   0  0  0  0  0  0  0  0  0  0  0  0
  152.1397  141.3867  155.3999 H   0  0  0  0  0  0  0  0  0  0  0  0
  150.8317  140.9335  154.3089 H   0  0  0  0  0  0  0  0  0  0  0  0
  149.8727  140.6921  158.3549 H   0  0  0  0  0  0  0  0  0  0  0  0
  151.1369  139.6803  157.6984 H   0  0  0  0  0  0  0  0  0  0  0  0
  152.0690  141.4034  159.1781 H   0  0  0  0  0  0  0  0  0  0  0  0
  152.6795  141.6398  157.5637 H   0  0  0  0  0  0  0  0  0  0  0  0
  153.6302  144.2569  160.3935 H   0  0  0  0  0  0  0  0  0  0  0  0
  153.5200  142.6751  159.6512 H   0  0  0  0  0  0  0  0  0  0  0  0
  152.3014  143.2004  160.8099 H   0  0  0  0  0  0  0  0  0  0  0  0
  153.6774  145.5700  158.2407 H   0  0  0  0  0  0  0  0  0  0  0  0
  152.5758  145.1618  156.9361 H   0  0  0  0  0  0  0  0  0  0  0  0
  153.8368  144.0396  157.4597 H   0  0  0  0  0  0  0  0  0  0  0  0
  151.3348  145.3947  160.4449 H   0  0  0  0  0  0  0  0  0  0  0  0
  151.4402  146.2354  158.9292 H   0  0  0  0  0  0  0  0  0  0  0  0
  149.4501  145.4125  158.1588 H   0  0  0  0  0  0  0  0  0  0  0  0
  147.5546  144.9591  158.4087 H   0  0  0  0  0  0  0  0  0  0  0  0
  143.1460  143.5814  160.8858 H   0  0  0  0  0  0  0  0  0  0  0  0
  150.2274  144.3647  156.7605 H   0  0  0  0  0  0  0  0  0  0  0  0
  151.5881  143.4904  156.0943 H   0  0  0  0  0  0  0  0  0  0  0  0
  149.3890  142.5987  155.2905 H   0  0  0  0  0  0  0  0  0  0  0  0
  148.8405  142.3972  156.9358 H   0  0  0  0  0  0  0  0  0  0  0  0
  150.3959  143.0609  158.7264 H   0  0  0  0  0  0  0  0  0  0  0  0
  1  2  1  0  0  0  0
  1 21  1  0  0  0  0
  1 22  1  0  0  0  0
  1 23  1  0  0  0  0
  2 20  1  0  0  0  0
  2  3  1  0  0  0  0
  3  4  1  0  0  0  0
  3 24  1  0  0  0  0
  3 25  1  0  0  0  0
  4  5  1  0  0  0  0
  4 26  1  0  0  0  0
  4 27  1  0  0  0  0
  5  6  1  0  0  0  0
  5 19  1  0  0  0  0
  5 43  1  0  0  0  0
  6  7  1  0  0  0  0
  6  8  1  0  0  0  0
  6  9  1  0  0  0  0
  7 28  1  0  0  0  0
  7 29  1  0  0  0  0
  7 30  1  0  0  0  0
  8 31  1  0  0  0  0
  8 32  1  0  0  0  0
  8 33  1  0  0  0  0
  9 10  1  0  0  0  0
  9 34  1  0  0  0  0
  9 35  1  0  0  0  0
 10 11  1  0  0  0  0
 10 36  1  0  0  0  0
 11 12  2  0  0  0  0
 11 13  1  0  0  0  0
 13 14  1  0  0  0  0
 13 37  1  0  0  0  0
 14 18  1  0  0  0  0
 14 15  2  0  0  0  0
 15 16  1  0  0  0  0
 16 17  2  0  0  0  0
 17 18  1  0  0  0  0
 17 38  1  0  0  0  0
 19 20  1  0  0  0  0
 19 39  1  0  0  0  0
 19 40  1  0  0  0  0
 20 41  1  0  0  0  0
 20 42  1  0  0  0  0
M  CHG  1   5   1
M  END
> <s_m_source_file>
AV-unprocessed.smi

> <i_m_source_file_index>
1572

> <i_lp_mmshare_version>
43012

> <i_f3d_flags>
0

> <s_epik_input>
W0NIM11OMVtDSDJdW0NIMl1OKFtDSDJdW0NIMl0xKUMoW0NIM10pKFtDSDNdKVtDSDJdW05IXUMoPU8pW05IXWMybm5bY0hdczI=

> <s_epik_cmdline>
J2VwaWtfcHl0aG9uJywgJy1waCcsICc3LjAnLCAnLXRuJywgJzgnLCAnLW1hJywgJzIwMCcsICctbWV0YWxfYmluZGluZycsICctaW1hZScsICc8aW5maWxlLm1hZT4nLCAnLW9tYWUnLCAnPG91dGZpbGUubWFlPic=

> <r_epik_Ionization_Penalty>
0.104337

> <r_epik_Ionization_Penalty_Charging>
0.0985296

> <r_epik_Ionization_Penalty_Neutral>
0.00580738

> <r_epik_State_Penalty>
1.056

> <r_epik_Charging_Adjusted_Penalty>
1.15453

> <i_epik_Tot_Q>
1

> <i_epik_Tot_abs_Q>
1

> <r_epik_Metal_State_Penalty>
1.38982

> <b_epik_Metal_Only>
0

> <s_lp_Force_Field>
OPLS_2005

> <r_lp_Energy>
26.4424

> <b_lp_Chiralities_Consistent>
1

> <s_lp_Variant>
AV-unprocessed.smi:1572-2

> <Gold.Version>
5.8.1

> <Gold.Id.Protein>
6NUR|6NUR_protein|mol2

> <Gold.PLP.Fitness>
40.8266

> <Gold.PLP.PLP>
-35.6822

> <Gold.PLP.part.hbond>
-5.1981

> <Gold.PLP.part.metal>
0.0000

> <Gold.PLP.part.buried>
-3.6760

> <Gold.PLP.part.nonpolar>
-27.7671

> <Gold.PLP.part.repulsive>
0.6693

> <Gold.PLP.ligand.clash>
0.0000

> <Gold.PLP.ligand.torsion>
2.4540

> <Gold.PLP.Chemscore.Hbond>
3.3154

> <Gold.PLP.Chemscore.CHOScore>
0.0000

> <Gold.PLP.Chemscore.Metal>
0.0000

> <Gold.Chemscore.Hbonds>
donor molecule, donor type, donor heavy atom, donor atom, acceptor molecule, acceptor atom, score
      L1  H    10    36       P1  8029  0.83
      L1  H    13    37       P1  8029  1.00
      P1  H  6933  6944       L1    12  0.56
      P1  H  6934  6946       L1    15  0.56

> <Gold.PLP.Chemscore.Internal.Correction>
0.1062

> <Gold.Rescore>
     Score         DG    S(hbond)    S(metal)    S(lipo)     H(rot)  DE(clash)    DE(int)     intcor
     17.81     -20.90       2.78        0.00      89.41       1.70       0.20       2.89       ----

> <Gold.Chemscore.Fitness>
17.8099

> <Gold.Chemscore.DG>
-20.8982

> <Gold.Chemscore.ZeroCoef>
-5.4800

> <Gold.Chemscore.Hbond>
2.7838

> <Gold.Chemscore.Metal>
0.0000

> <Gold.Chemscore.Lipo>
89.4118

> <Gold.Chemscore.Internal_Hbond>
0.0000

> <Gold.Chemscore.DEClash>
0.1973

> <Gold.Chemscore.DEInternal>
2.8910

> <Gold.Chemscore.Rot>
1.6956

> <Gold.Chemscore.Internal.Correction>
   9.000000E+99

> <Gold.Chemscore.Hbonds>
donor molecule, donor type, donor heavy atom, donor atom, acceptor molecule, acceptor atom, score
      L1  H    10    36       P1  8029  0.42
      L1  H    13    37       P1  8029  0.92
      P1  H  6933  6944       L1    12  0.53
      P1  H  6934  6946       L1    15  0.06

> <Gold.Chemscore.Hbond.Weighted>
-9.2978

> <Gold.Chemscore.Metal.Weighted>
-0.0000

> <Gold.Chemscore.Lipo.Weighted>
-10.4612

> <Gold.Chemscore.Internal_Hbond.Weighted>
0.0000

> <Gold.Chemscore.DEClash.Weighted>
0.1973

> <Gold.Chemscore.DEInternal.Weighted>
2.8910

> <Gold.Chemscore.Rot.Weighted>
4.3407

> <Gold.Chemscore.Internal.Correction.Weighted>
   9.000000E+99

> <Gold.Protein.RotatedTorsions>
[ 6907 6896 6895 6894 ] final -179.14 input  -60.11 | X-H torsion
[ 7974 7965 7964 7962 ] final -109.50 input  175.53 | X-H torsion
[ 8008 7997 7996 7995 ] final   13.61 input   59.86 | X-H torsion
[ 10167 10162 10161 10158 ] final   81.20 input  -65.29 | X-H torsion
[ 10718 10713 10712 10709 ] final    7.13 input   66.30 | X-H torsion
[ 10763 10752 10751 10750 ] final  -11.12 input  -60.55 | X-H torsion
[ 11005 11000 10999 10996 ] final  -94.96 input  -57.11 | X-H torsion

> <Gold.Protein.ActiveResidues>
 VAL166  LYS551  ARG553  GLY616  TRP617  ASP618  TYR619  PRO620  LYS621  CYS622 
 ASP623  PHE694  ASN695  SER759  ASP760  ASP761  ALA762  ILE779  LEU786  VAL792 
 PHE793  MET794  SER795  GLU796  ALA797  LYS798  CYS799  TRP800  GLU811  SER814 

> <Gold.Protein.RotatedAtoms>
  151.6487  133.3322  159.3146 H   0  0  0  0  0  0  0  0  0  0  0  0  # atno 6907 bound_to 6896
  150.7971  134.7042  159.6577 H   0  0  0  0  0  0  0  0  0  0  0  0  # atno 6908 bound_to 6896
  152.4059  134.6211  160.0102 H   0  0  0  0  0  0  0  0  0  0  0  0  # atno 6909 bound_to 6896
  145.1797  140.8965  143.3487 H   0  0  0  0  0  0  0  0  0  0  0  0  # atno 7974 bound_to 7965
  154.8369  140.2908  155.5685 H   0  0  0  0  0  0  0  0  0  0  0  0  # atno 8008 bound_to 7997
  156.3009  140.2521  156.3235 H   0  0  0  0  0  0  0  0  0  0  0  0  # atno 8009 bound_to 7997
  154.9169  140.0387  157.1966 H   0  0  0  0  0  0  0  0  0  0  0  0  # atno 8010 bound_to 7997
  139.9418  144.6085  150.8245 H   0  0  0  0  0  0  0  0  0  0  0  0  # atno 10167 bound_to 10162
  156.9324  130.5831  149.5650 H   0  0  0  0  0  0  0  0  0  0  0  0  # atno 10718 bound_to 10713
  153.4792  135.7017  153.5948 H   0  0  0  0  0  0  0  0  0  0  0  0  # atno 10763 bound_to 10752
  153.4169  135.3835  155.2086 H   0  0  0  0  0  0  0  0  0  0  0  0  # atno 10764 bound_to 10752
  154.8722  135.3918  154.4239 H   0  0  0  0  0  0  0  0  0  0  0  0  # atno 10765 bound_to 10752
  141.1456  133.7992  157.0370 H   0  0  0  0  0  0  0  0  0  0  0  0  # atno 11005 bound_to 11000
  145.0148  139.3477  143.6102 LP  0  0  0  0  0  0  0  0  0  0  0  0  # atno 17320 bound_to 7965
  146.3455  139.9426  142.8739 LP  0  0  0  0  0  0  0  0  0  0  0  0  # atno 17321 bound_to 7965
  140.7609  143.3161  151.2730 LP  0  0  0  0  0  0  0  0  0  0  0  0  # atno 17342 bound_to 10162
  139.6698  144.0040  152.2746 LP  0  0  0  0  0  0  0  0  0  0  0  0  # atno 17343 bound_to 10162
  156.0441  130.5520  150.8840 LP  0  0  0  0  0  0  0  0  0  0  0  0  # atno 17370 bound_to 10713
  157.5838  131.0946  150.9229 LP  0  0  0  0  0  0  0  0  0  0  0  0  # atno 17371 bound_to 10713
  140.0717  134.9698  157.1479 LP  0  0  0  0  0  0  0  0  0  0  0  0  # atno 17394 bound_to 11000
  140.3701  134.2400  155.7179 LP  0  0  0  0  0  0  0  0  0  0  0  0  # atno 17395 bound_to 11000

$$$$
