AV-unprocessed.smi:1140|AV-procd|sdf|4871|dock9
  -GOLD-   22720 3443D 1   1.00000     0.00000
 Structure written by MMmdl.
 48 50  0  0  0  0  0  0  0  0  1 V2000
  146.6127  133.0689  151.1673 C   0  0  0  0  0  0  0  0  0  0  0  0
  147.0498  132.3862  152.4656 C   0  0  0  0  0  0  0  0  0  0  0  0
  148.1011  133.1483  153.0515 O   0  0  0  0  0  0  0  0  0  0  0  0
  148.7667  132.6296  154.1461 C   0  0  0  0  0  0  0  0  0  0  0  0
  148.5017  131.3514  154.5168 N   0  0  0  0  0  0  0  0  0  0  0  0
  149.1534  130.8424  155.5822 C   0  0  0  0  0  0  0  0  0  0  0  0
  150.1004  131.5700  156.3255 C   0  0  0  0  0  0  0  0  0  0  0  0
  150.3774  132.8953  155.9432 C   0  0  0  0  0  0  0  0  0  0  0  0
  149.6906  133.4492  154.8355 C   0  0  0  0  0  0  0  0  0  0  0  0
  149.9137  134.7681  154.3529 N   0  0  0  0  0  0  0  0  0  0  0  0
  150.6426  135.7497  154.9103 C   0  0  0  0  0  0  0  0  0  0  0  0
  151.2018  135.6859  156.0051 O   0  0  0  0  0  0  0  0  0  0  0  0
  150.6734  136.8363  154.1258 N   0  0  0  0  0  0  0  0  0  0  0  0
  151.3704  138.0809  154.4370 C   0  0  0  0  0  0  0  0  0  0  0  0
  152.7384  137.7616  155.0768 C   0  0  0  0  0  0  0  0  0  0  0  0
  153.4279  139.0387  155.5900 C   0  0  0  0  0  0  0  0  0  0  0  0
  152.5316  139.7176  156.5340 N   0  0  0  0  0  0  0  0  0  0  0  0
  152.7570  139.7277  157.8718 C   0  0  0  0  0  0  0  0  0  0  0  0
  153.7398  139.1830  158.3771 O   0  0  0  0  0  0  0  0  0  0  0  0
  151.7655  140.4568  158.7248 C   0  0  0  0  0  0  0  0  0  0  0  0
  151.4690  141.9096  158.3991 C   0  0  0  0  0  0  0  0  0  0  0  0
  152.3025  141.5656  159.6054 C   0  0  0  0  0  0  0  0  0  0  0  0
  151.3134  140.1934  155.8626 C   0  0  0  0  0  0  0  0  0  0  0  0
  150.5143  138.9762  155.3633 C   0  0  0  0  0  0  0  0  0  0  0  0
  145.8023  132.5171  150.6908 H   0  0  0  0  0  0  0  0  0  0  0  0
  147.4386  133.1290  150.4583 H   0  0  0  0  0  0  0  0  0  0  0  0
  146.2596  134.0825  151.3583 H   0  0  0  0  0  0  0  0  0  0  0  0
  146.2000  132.3214  153.1471 H   0  0  0  0  0  0  0  0  0  0  0  0
  147.3891  131.3716  152.2504 H   0  0  0  0  0  0  0  0  0  0  0  0
  148.9185  129.8220  155.8467 H   0  0  0  0  0  0  0  0  0  0  0  0
  150.6076  131.1202  157.1662 H   0  0  0  0  0  0  0  0  0  0  0  0
  151.1198  133.4516  156.4942 H   0  0  0  0  0  0  0  0  0  0  0  0
  149.4245  135.0039  153.5017 H   0  0  0  0  0  0  0  0  0  0  0  0
  150.1772  136.8019  153.2473 H   0  0  0  0  0  0  0  0  0  0  0  0
  151.5575  138.6229  153.5078 H   0  0  0  0  0  0  0  0  0  0  0  0
  152.6063  137.0690  155.9099 H   0  0  0  0  0  0  0  0  0  0  0  0
  153.3811  137.2572  154.3546 H   0  0  0  0  0  0  0  0  0  0  0  0
  154.3944  138.7888  156.0296 H   0  0  0  0  0  0  0  0  0  0  0  0
  153.6486  139.7070  154.7563 H   0  0  0  0  0  0  0  0  0  0  0  0
  150.9206  139.8754  159.0898 H   0  0  0  0  0  0  0  0  0  0  0  0
  151.9815  142.3824  157.5633 H   0  0  0  0  0  0  0  0  0  0  0  0
  150.4503  142.2540  158.5651 H   0  0  0  0  0  0  0  0  0  0  0  0
  151.8523  141.6747  160.5898 H   0  0  0  0  0  0  0  0  0  0  0  0
  153.3675  141.7868  159.5582 H   0  0  0  0  0  0  0  0  0  0  0  0
  150.6733  140.8130  156.4882 H   0  0  0  0  0  0  0  0  0  0  0  0
  151.5925  140.8263  155.0189 H   0  0  0  0  0  0  0  0  0  0  0  0
  149.6185  139.3140  154.8411 H   0  0  0  0  0  0  0  0  0  0  0  0
  150.1706  138.3979  156.2225 H   0  0  0  0  0  0  0  0  0  0  0  0
  1  2  1  0  0  0  0
  1 25  1  0  0  0  0
  1 26  1  0  0  0  0
  1 27  1  0  0  0  0
  2  3  1  0  0  0  0
  2 28  1  0  0  0  0
  2 29  1  0  0  0  0
  3  4  1  0  0  0  0
  4  9  1  0  0  0  0
  4  5  2  0  0  0  0
  5  6  1  0  0  0  0
  6  7  2  0  0  0  0
  6 30  1  0  0  0  0
  7  8  1  0  0  0  0
  7 31  1  0  0  0  0
  8  9  2  0  0  0  0
  8 32  1  0  0  0  0
  9 10  1  0  0  0  0
 10 11  1  0  0  0  0
 10 33  1  0  0  0  0
 11 12  2  0  0  0  0
 11 13  1  0  0  0  0
 13 14  1  0  0  0  0
 13 34  1  0  0  0  0
 14 24  1  0  0  0  0
 14 15  1  0  0  0  0
 14 35  1  0  0  0  0
 15 16  1  0  0  0  0
 15 36  1  0  0  0  0
 15 37  1  0  0  0  0
 16 17  1  0  0  0  0
 16 38  1  0  0  0  0
 16 39  1  0  0  0  0
 17 18  1  0  0  0  0
 17 23  1  0  0  0  0
 18 19  2  0  0  0  0
 18 20  1  0  0  0  0
 20 22  1  0  0  0  0
 20 21  1  0  0  0  0
 20 40  1  0  0  0  0
 21 22  1  0  0  0  0
 21 41  1  0  0  0  0
 21 42  1  0  0  0  0
 22 43  1  0  0  0  0
 22 44  1  0  0  0  0
 23 24  1  0  0  0  0
 23 45  1  0  0  0  0
 23 46  1  0  0  0  0
 24 47  1  0  0  0  0
 24 48  1  0  0  0  0
M  END
> <s_m_source_file>
AV-unprocessed.smi

> <i_m_source_file_index>
1140

> <i_lp_mmshare_version>
43012

> <i_f3d_flags>
0

> <s_epik_input>
W0NIM11bQ0gyXU9jMW5bY0hdW2NIXVtjSF1jMVtOSF1DKD1PKVtOSF1bQ0hdMltDSDJdW0NIMl1OKFtDSDJdW0NIMl0yKUMoPU8pW0NIXTNbQ0gyXVtDSDJdMw==

> <s_epik_cmdline>
J2VwaWtfcHl0aG9uJywgJy1waCcsICc3LjAnLCAnLXRuJywgJzgnLCAnLW1hJywgJzIwMCcsICctbWV0YWxfYmluZGluZycsICctaW1hZScsICc8aW5maWxlLm1hZT4nLCAnLW9tYWUnLCAnPG91dGZpbGUubWFlPic=

> <r_lp_tautomer_probability>
1

> <r_epik_Ionization_Penalty>
0.00011541

> <r_epik_Ionization_Penalty_Charging>
0

> <r_epik_Ionization_Penalty_Neutral>
0.00011541

> <r_epik_State_Penalty>
-0

> <r_epik_Charging_Adjusted_Penalty>
0

> <i_epik_Tot_Q>
0

> <i_epik_Tot_abs_Q>
0

> <r_epik_Metal_State_Penalty>
-0

> <b_epik_Metal_Only>
0

> <s_lp_Force_Field>
OPLS_2005

> <r_lp_Energy>
31.5236

> <b_lp_Chiralities_Consistent>
1

> <s_lp_Variant>
AV-unprocessed.smi:1140-1

> <Gold.Version>
5.8.1

> <Gold.Id.Protein>
6NUR|6NUR_protein|mol2

> <Gold.PLP.Fitness>
49.3698

> <Gold.PLP.PLP>
-39.0706

> <Gold.PLP.part.hbond>
-5.4147

> <Gold.PLP.part.metal>
0.0000

> <Gold.PLP.part.buried>
3.2595

> <Gold.PLP.part.nonpolar>
-35.4116

> <Gold.PLP.part.repulsive>
0.4165

> <Gold.PLP.ligand.clash>
0.2089

> <Gold.PLP.ligand.torsion>
0.4373

> <Gold.PLP.Chemscore.Hbond>
3.7572

> <Gold.PLP.Chemscore.CHOScore>
0.0000

> <Gold.PLP.Chemscore.Metal>
0.0000

> <Gold.Chemscore.Hbonds>
donor molecule, donor type, donor heavy atom, donor atom, acceptor molecule, acceptor atom, score
      L1  H    10    33       P1  7948  0.61
      L1  H    13    34       P1  7948  0.55
      P1  H  7997  8009       L1    19  0.35
      P1  H 10752 10764       L1    12  0.17

> <Gold.PLP.Chemscore.Internal.Correction>
0.1109

> <Gold.Rescore>
     Score         DG    S(hbond)    S(metal)    S(lipo)     H(rot)  DE(clash)    DE(int)     intcor
     15.72     -19.80       2.34        0.00      89.81       1.56       0.96       3.12       ----

> <Gold.Chemscore.Fitness>
15.7182

> <Gold.Chemscore.DG>
-19.8041

> <Gold.Chemscore.ZeroCoef>
-5.4800

> <Gold.Chemscore.Hbond>
2.3412

> <Gold.Chemscore.Metal>
0.0000

> <Gold.Chemscore.Lipo>
89.8149

> <Gold.Chemscore.Internal_Hbond>
0.0000

> <Gold.Chemscore.DEClash>
0.9628

> <Gold.Chemscore.DEInternal>
3.1231

> <Gold.Chemscore.Rot>
1.5640

> <Gold.Chemscore.Internal.Correction>
   9.000000E+99

> <Gold.Chemscore.Hbonds>
donor molecule, donor type, donor heavy atom, donor atom, acceptor molecule, acceptor atom, score
      L1  H    10    33       P1  7948  0.05
      L1  H    13    34       P1  7948  0.03
      P1  H  7997  8009       L1    19  0.01

> <Gold.Chemscore.Hbond.Weighted>
-7.8196

> <Gold.Chemscore.Metal.Weighted>
-0.0000

> <Gold.Chemscore.Lipo.Weighted>
-10.5083

> <Gold.Chemscore.Internal_Hbond.Weighted>
0.0000

> <Gold.Chemscore.DEClash.Weighted>
0.9628

> <Gold.Chemscore.DEInternal.Weighted>
3.1231

> <Gold.Chemscore.Rot.Weighted>
4.0038

> <Gold.Chemscore.Internal.Correction.Weighted>
   9.000000E+99

> <Gold.Protein.RotatedTorsions>
[ 6907 6896 6895 6894 ] final -112.00 input  -60.11 | X-H torsion
[ 7974 7965 7964 7962 ] final -142.95 input  175.53 | X-H torsion
[ 8008 7997 7996 7995 ] final  146.08 input   59.86 | X-H torsion
[ 10167 10162 10161 10158 ] final  -20.92 input  -65.29 | X-H torsion
[ 10718 10713 10712 10709 ] final  -29.38 input   66.30 | X-H torsion
[ 10763 10752 10751 10750 ] final  -44.25 input  -60.55 | X-H torsion
[ 11005 11000 10999 10996 ] final    9.37 input  -57.11 | X-H torsion

> <Gold.Protein.ActiveResidues>
 VAL166  LYS551  ARG553  GLY616  TRP617  ASP618  TYR619  PRO620  LYS621  CYS622 
 ASP623  PHE694  ASN695  SER759  ASP760  ASP761  ALA762  ILE779  LEU786  VAL792 
 PHE793  MET794  SER795  GLU796  ALA797  LYS798  CYS799  TRP800  GLU811  SER814 

> <Gold.Protein.RotatedAtoms>
  150.7729  133.9153  159.3381 H   0  0  0  0  0  0  0  0  0  0  0  0  # atno 6907 bound_to 6896
  151.7035  135.0924  160.0264 H   0  0  0  0  0  0  0  0  0  0  0  0  # atno 6908 bound_to 6896
  152.3753  133.6435  159.6154 H   0  0  0  0  0  0  0  0  0  0  0  0  # atno 6909 bound_to 6896
  144.8406  140.5895  143.5455 H   0  0  0  0  0  0  0  0  0  0  0  0  # atno 7974 bound_to 7965
  156.2865  140.2192  156.5319 H   0  0  0  0  0  0  0  0  0  0  0  0  # atno 8008 bound_to 7997
  154.7442  140.0485  157.0859 H   0  0  0  0  0  0  0  0  0  0  0  0  # atno 8009 bound_to 7997
  155.0192  140.3122  155.4803 H   0  0  0  0  0  0  0  0  0  0  0  0  # atno 8010 bound_to 7997
  140.7279  143.4677  151.0291 H   0  0  0  0  0  0  0  0  0  0  0  0  # atno 10167 bound_to 10162
  156.4133  130.4412  149.7237 H   0  0  0  0  0  0  0  0  0  0  0  0  # atno 10718 bound_to 10713
  154.0090  135.6684  153.4764 H   0  0  0  0  0  0  0  0  0  0  0  0  # atno 10763 bound_to 10752
  153.0629  135.5017  154.8130 H   0  0  0  0  0  0  0  0  0  0  0  0  # atno 10764 bound_to 10752
  154.7007  135.3078  154.9309 H   0  0  0  0  0  0  0  0  0  0  0  0  # atno 10765 bound_to 10752
  140.5265  134.0508  155.7860 H   0  0  0  0  0  0  0  0  0  0  0  0  # atno 11005 bound_to 11000
  145.4703  139.1504  143.3818 LP  0  0  0  0  0  0  0  0  0  0  0  0  # atno 17320 bound_to 7965
  146.2699  140.4836  142.8819 LP  0  0  0  0  0  0  0  0  0  0  0  0  # atno 17321 bound_to 7965
  139.8366  143.7619  152.3180 LP  0  0  0  0  0  0  0  0  0  0  0  0  # atno 17342 bound_to 10162
  139.7753  144.7463  151.0165 LP  0  0  0  0  0  0  0  0  0  0  0  0  # atno 17343 bound_to 10162
  156.4207  130.7767  151.2784 LP  0  0  0  0  0  0  0  0  0  0  0  0  # atno 17370 bound_to 10713
  157.7507  131.0184  150.3623 LP  0  0  0  0  0  0  0  0  0  0  0  0  # atno 17371 bound_to 10713
  141.1305  133.9310  157.2545 LP  0  0  0  0  0  0  0  0  0  0  0  0  # atno 17394 bound_to 11000
  139.9577  135.0161  156.9174 LP  0  0  0  0  0  0  0  0  0  0  0  0  # atno 17395 bound_to 11000

$$$$
