AV-unprocessed.smi:2375|AV-procd|sdf|9443|dock10
  -GOLD-   2272013 73D 1   1.00000     0.00000
 Structure written by MMmdl.
 37 38  0  0  0  0  0  0  0  0  1 V2000
  145.5813  131.3507  151.0839 C   0  0  0  0  0  0  0  0  0  0  0  0
  146.3894  132.1780  152.0245 C   0  0  0  0  0  0  0  0  0  0  0  0
  146.7488  133.4958  151.8883 C   0  0  0  0  0  0  0  0  0  0  0  0
  147.4984  133.9897  152.9578 N   0  0  0  0  0  0  0  0  0  0  0  0
  147.7085  133.0691  153.9031 C   0  0  0  0  0  0  0  0  0  0  0  0
  148.4455  133.3386  155.1805 C   0  0  1  0  0  0  0  0  0  0  0  0
  148.3772  132.1522  156.1519 C   0  0  0  0  0  0  0  0  0  0  0  0
  149.8858  133.8477  154.9524 C   0  0  0  0  0  0  0  0  0  0  0  0
  149.9204  135.1267  154.2502 N   0  0  0  0  0  0  0  0  0  0  0  0
  150.5650  136.2271  154.6705 C   0  0  0  0  0  0  0  0  0  0  0  0
  151.2812  136.2534  155.6696 O   0  0  0  0  0  0  0  0  0  0  0  0
  150.3658  137.3162  153.9067 N   0  0  0  0  0  0  0  0  0  0  0  0
  150.9223  138.6576  154.0959 C   0  0  0  0  0  0  0  0  0  0  0  0
  152.4154  138.6101  154.5009 C   0  0  0  0  0  0  0  0  0  0  0  0
  152.5158  139.6236  155.6091 C   0  0  0  0  0  0  0  0  0  0  0  0
  151.3244  140.0808  155.9890 C   0  0  0  0  0  0  0  0  0  0  0  0
  150.1993  139.4597  155.2089 C   0  0  0  0  0  0  0  0  0  0  0  0
  147.0008  131.5055  153.5128 S   0  0  0  0  0  0  0  0  0  0  0  0
  145.3796  131.8917  150.1590 H   0  0  0  0  0  0  0  0  0  0  0  0
  144.6248  131.0821  151.5324 H   0  0  0  0  0  0  0  0  0  0  0  0
  146.1063  130.4304  150.8278 H   0  0  0  0  0  0  0  0  0  0  0  0
  146.5084  134.1579  151.0697 H   0  0  0  0  0  0  0  0  0  0  0  0
  147.9082  134.1539  155.6668 H   0  0  0  0  0  0  0  0  0  0  0  0
  147.3433  131.8834  156.3702 H   0  0  0  0  0  0  0  0  0  0  0  0
  148.8635  132.3924  157.0977 H   0  0  0  0  0  0  0  0  0  0  0  0
  148.8710  131.2725  155.7381 H   0  0  0  0  0  0  0  0  0  0  0  0
  150.4265  133.9144  155.8979 H   0  0  0  0  0  0  0  0  0  0  0  0
  150.4311  133.1317  154.3369 H   0  0  0  0  0  0  0  0  0  0  0  0
  149.3644  135.1977  153.4105 H   0  0  0  0  0  0  0  0  0  0  0  0
  149.8119  137.1854  153.0726 H   0  0  0  0  0  0  0  0  0  0  0  0
  150.8545  139.2164  153.1606 H   0  0  0  0  0  0  0  0  0  0  0  0
  152.7144  137.6329  154.8826 H   0  0  0  0  0  0  0  0  0  0  0  0
  153.0699  138.8729  153.6691 H   0  0  0  0  0  0  0  0  0  0  0  0
  153.4616  139.9108  156.0444 H   0  0  0  0  0  0  0  0  0  0  0  0
  151.1514  140.7953  156.7806 H   0  0  0  0  0  0  0  0  0  0  0  0
  149.5365  140.2213  154.7972 H   0  0  0  0  0  0  0  0  0  0  0  0
  149.6219  138.8181  155.8751 H   0  0  0  0  0  0  0  0  0  0  0  0
  1  2  1  0  0  0  0
  1 19  1  0  0  0  0
  1 20  1  0  0  0  0
  1 21  1  0  0  0  0
  2 18  1  0  0  0  0
  2  3  2  0  0  0  0
  3  4  1  0  0  0  0
  3 22  1  0  0  0  0
  4  5  2  0  0  0  0
  5  6  1  0  0  0  0
  5 18  1  0  0  0  0
  6  7  1  0  0  0  0
  6  8  1  0  0  0  0
  6 23  1  0  0  0  0
  7 24  1  0  0  0  0
  7 25  1  0  0  0  0
  7 26  1  0  0  0  0
  8  9  1  0  0  0  0
  8 27  1  0  0  0  0
  8 28  1  0  0  0  0
  9 10  1  0  0  0  0
  9 29  1  0  0  0  0
 10 11  2  0  0  0  0
 10 12  1  0  0  0  0
 12 13  1  0  0  0  0
 12 30  1  0  0  0  0
 13 17  1  0  0  0  0
 13 14  1  0  0  0  0
 13 31  1  0  0  0  0
 14 15  1  0  0  0  0
 14 32  1  0  0  0  0
 14 33  1  0  0  0  0
 15 16  2  0  0  0  0
 15 34  1  0  0  0  0
 16 17  1  0  0  0  0
 16 35  1  0  0  0  0
 17 36  1  0  0  0  0
 17 37  1  0  0  0  0
M  END
> <s_m_source_file>
AV-unprocessed.smi

> <i_m_source_file_index>
2375

> <i_lp_mmshare_version>
43012

> <i_f3d_flags>
0

> <s_epik_input>
W0NIM11jMVtjSF1uYyhzMSlbQ0BIXShbQ0gzXSlbQ0gyXVtOSF1DKD1PKVtOSF1bQ0hdMltDSDJdW0NIXT1bQ0hdW0NIMl0y

> <s_epik_cmdline>
J2VwaWtfcHl0aG9uJywgJy1waCcsICc3LjAnLCAnLXRuJywgJzgnLCAnLW1hJywgJzIwMCcsICctbWV0YWxfYmluZGluZycsICctaW1hZScsICc8aW5maWxlLm1hZT4nLCAnLW9tYWUnLCAnPG91dGZpbGUubWFlPic=

> <r_epik_Ionization_Penalty>
0.000644205

> <r_epik_Ionization_Penalty_Charging>
0

> <r_epik_Ionization_Penalty_Neutral>
0.000644205

> <r_epik_State_Penalty>
0.000370883

> <r_epik_Charging_Adjusted_Penalty>
0.000370883

> <i_epik_Tot_Q>
0

> <i_epik_Tot_abs_Q>
0

> <r_epik_Metal_State_Penalty>
-0

> <b_epik_Metal_Only>
0

> <s_lp_Force_Field>
OPLS_2005

> <r_lp_Energy>
15.8173

> <b_lp_Chiralities_Consistent>
1

> <s_lp_Variant>
AV-unprocessed.smi:2375-2

> <Gold.Version>
5.8.1

> <Gold.Id.Protein>
6NUR|6NUR_protein|mol2

> <Gold.PLP.Fitness>
37.4567

> <Gold.PLP.PLP>
-29.8567

> <Gold.PLP.part.hbond>
-4.6197

> <Gold.PLP.part.metal>
0.0000

> <Gold.PLP.part.buried>
-1.1953

> <Gold.PLP.part.nonpolar>
-25.0820

> <Gold.PLP.part.repulsive>
1.6697

> <Gold.PLP.ligand.clash>
0.0000

> <Gold.PLP.ligand.torsion>
0.3486

> <Gold.PLP.Chemscore.Hbond>
2.7296

> <Gold.PLP.Chemscore.CHOScore>
0.0000

> <Gold.PLP.Chemscore.Metal>
0.0000

> <Gold.Chemscore.Hbonds>
donor molecule, donor type, donor heavy atom, donor atom, acceptor molecule, acceptor atom, score
      L1  H     9    29       P1  7948  0.70
      L1  H    12    30       P1  7948  1.00
      P1  H 10752 10763       L1    11  0.88

> <Gold.PLP.Chemscore.Internal.Correction>
0.1084

> <Gold.Rescore>
     Score         DG    S(hbond)    S(metal)    S(lipo)     H(rot)  DE(clash)    DE(int)     intcor
     15.82     -17.09       1.93        0.00      76.95       1.50       0.30       0.97       ----

> <Gold.Chemscore.Fitness>
15.8196

> <Gold.Chemscore.DG>
-17.0907

> <Gold.Chemscore.ZeroCoef>
-5.4800

> <Gold.Chemscore.Hbond>
1.9312

> <Gold.Chemscore.Metal>
0.0000

> <Gold.Chemscore.Lipo>
76.9534

> <Gold.Chemscore.Internal_Hbond>
0.0000

> <Gold.Chemscore.DEClash>
0.3024

> <Gold.Chemscore.DEInternal>
0.9687

> <Gold.Chemscore.Rot>
1.5012

> <Gold.Chemscore.Internal.Correction>
   9.000000E+99

> <Gold.Chemscore.Hbonds>
donor molecule, donor type, donor heavy atom, donor atom, acceptor molecule, acceptor atom, score
      L1  H     9    29       P1  7948  0.08
      L1  H    12    30       P1  7948  0.34
      P1  H 10752 10763       L1    11  0.34

> <Gold.Chemscore.Hbond.Weighted>
-6.4501

> <Gold.Chemscore.Metal.Weighted>
-0.0000

> <Gold.Chemscore.Lipo.Weighted>
-9.0035

> <Gold.Chemscore.Internal_Hbond.Weighted>
0.0000

> <Gold.Chemscore.DEClash.Weighted>
0.3024

> <Gold.Chemscore.DEInternal.Weighted>
0.9687

> <Gold.Chemscore.Rot.Weighted>
3.8429

> <Gold.Chemscore.Internal.Correction.Weighted>
   9.000000E+99

> <Gold.Protein.RotatedTorsions>
[ 6907 6896 6895 6894 ] final -138.97 input  -60.11 | X-H torsion
[ 7974 7965 7964 7962 ] final  164.62 input  175.53 | X-H torsion
[ 8008 7997 7996 7995 ] final -151.27 input   59.86 | X-H torsion
[ 10167 10162 10161 10158 ] final   70.79 input  -65.29 | X-H torsion
[ 10718 10713 10712 10709 ] final   89.96 input   66.30 | X-H torsion
[ 10763 10752 10751 10750 ] final   85.04 input  -60.55 | X-H torsion
[ 11005 11000 10999 10996 ] final   60.45 input  -57.11 | X-H torsion

> <Gold.Protein.ActiveResidues>
 VAL166  LYS551  ARG553  GLY616  TRP617  ASP618  TYR619  PRO620  LYS621  CYS622 
 ASP623  PHE694  ASN695  SER759  ASP760  ASP761  ALA762  ILE779  LEU786  VAL792 
 PHE793  MET794  SER795  GLU796  ALA797  LYS798  CYS799  TRP800  GLU811  SER814 

> <Gold.Protein.RotatedAtoms>
  151.0418  133.5700  159.2650 H   0  0  0  0  0  0  0  0  0  0  0  0  # atno 6907 bound_to 6896
  151.2743  135.0693  159.9155 H   0  0  0  0  0  0  0  0  0  0  0  0  # atno 6908 bound_to 6896
  152.5365  134.0143  159.8006 H   0  0  0  0  0  0  0  0  0  0  0  0  # atno 6909 bound_to 6896
  144.7537  139.8352  143.6357 H   0  0  0  0  0  0  0  0  0  0  0  0  # atno 7974 bound_to 7965
  155.6367  140.0697  157.2631 H   0  0  0  0  0  0  0  0  0  0  0  0  # atno 8008 bound_to 7997
  154.4193  140.1757  156.1579 H   0  0  0  0  0  0  0  0  0  0  0  0  # atno 8009 bound_to 7997
  155.9888  140.3347  155.6737 H   0  0  0  0  0  0  0  0  0  0  0  0  # atno 8010 bound_to 7997
  140.0531  144.5295  150.7349 H   0  0  0  0  0  0  0  0  0  0  0  0  # atno 10167 bound_to 10162
  157.6957  131.0353  150.3505 H   0  0  0  0  0  0  0  0  0  0  0  0  # atno 10718 bound_to 10713
  153.1437  135.4632  154.9535 H   0  0  0  0  0  0  0  0  0  0  0  0  # atno 10763 bound_to 10752
  154.7769  135.3176  154.8076 H   0  0  0  0  0  0  0  0  0  0  0  0  # atno 10764 bound_to 10752
  153.8594  135.6914  153.4838 H   0  0  0  0  0  0  0  0  0  0  0  0  # atno 10765 bound_to 10752
  140.0231  134.6124  155.9612 H   0  0  0  0  0  0  0  0  0  0  0  0  # atno 11005 bound_to 11000
  146.1521  139.4607  143.0042 LP  0  0  0  0  0  0  0  0  0  0  0  0  # atno 17320 bound_to 7965
  145.6853  141.0179  143.1584 LP  0  0  0  0  0  0  0  0  0  0  0  0  # atno 17321 bound_to 7965
  140.7207  143.2586  151.4287 LP  0  0  0  0  0  0  0  0  0  0  0  0  # atno 17342 bound_to 10162
  139.5941  144.1436  152.2123 LP  0  0  0  0  0  0  0  0  0  0  0  0  # atno 17343 bound_to 10162
  156.3954  130.3906  149.6999 LP  0  0  0  0  0  0  0  0  0  0  0  0  # atno 17370 bound_to 10713
  156.4334  130.7826  151.2846 LP  0  0  0  0  0  0  0  0  0  0  0  0  # atno 17371 bound_to 10713
  141.1786  133.6543  156.4927 LP  0  0  0  0  0  0  0  0  0  0  0  0  # atno 17394 bound_to 11000
  140.4353  134.7064  157.4964 LP  0  0  0  0  0  0  0  0  0  0  0  0  # atno 17395 bound_to 11000

$$$$
