AV-unprocessed.smi:2525|AV-procd|sdf|9929|dock8
  -GOLD-   2272013573D 1   1.00000     0.00000
 Structure written by MMmdl.
 44 45  0  0  0  0  0  0  0  0  1 V2000
  149.5242  139.8875  157.4070 C   0  0  0  0  0  0  0  0  0  0  0  0
  150.7291  139.0654  156.9192 C   0  0  0  0  0  0  0  0  0  0  0  0
  150.4876  138.2557  155.6207 C   0  0  0  0  0  0  0  0  0  0  0  0
  151.8246  137.6271  155.1582 C   0  0  0  0  0  0  0  0  0  0  0  0
  153.0185  138.5942  155.1186 C   0  0  0  0  0  0  0  0  0  0  0  0
  149.2361  137.3310  155.6999 C   0  0  2  0  0  0  0  0  0  0  0  0
  149.3163  136.1379  154.8574 N   0  0  0  0  0  0  0  0  0  0  0  0
  149.3793  134.8776  155.3125 C   0  0  0  0  0  0  0  0  0  0  0  0
  149.4227  134.5908  156.5083 O   0  0  0  0  0  0  0  0  0  0  0  0
  149.4101  133.7701  154.2563 C   0  0  0  0  0  0  0  0  0  0  0  0
  148.1222  133.6201  153.6001 N   0  0  0  0  0  0  0  0  0  0  0  0
  147.7542  132.7173  152.6228 C   0  0  0  0  0  0  0  0  0  0  0  0
  146.4525  133.0398  152.3666 C   0  0  0  0  0  0  0  0  0  0  0  0
  146.0867  134.1061  153.1859 N   0  0  0  0  0  0  0  0  0  0  0  0
  147.0975  134.4457  153.9226 N   0  0  0  0  0  0  0  0  0  0  0  0
  148.3907  138.4347  155.0388 C   0  0  2  0  0  0  0  0  0  0  0  0
  147.2674  138.0745  154.0683 C   0  0  0  0  0  0  0  0  0  0  0  0
  149.7134  139.0060  154.5074 C   0  0  1  0  0  0  0  0  0  0  0  0
  149.8413  140.4173  154.6014 O   0  0  0  0  0  0  0  0  0  0  0  0
  148.6699  141.1107  154.2089 C   0  0  0  0  0  0  0  0  0  0  0  0
  149.8076  140.5144  158.2524 H   0  0  0  0  0  0  0  0  0  0  0  0
  148.7066  139.2499  157.7417 H   0  0  0  0  0  0  0  0  0  0  0  0
  149.1414  140.5440  156.6257 H   0  0  0  0  0  0  0  0  0  0  0  0
  151.5538  139.7624  156.7696 H   0  0  0  0  0  0  0  0  0  0  0  0
  151.0692  138.4166  157.7259 H   0  0  0  0  0  0  0  0  0  0  0  0
  152.0775  136.7589  155.7664 H   0  0  0  0  0  0  0  0  0  0  0  0
  151.7179  137.2346  154.1470 H   0  0  0  0  0  0  0  0  0  0  0  0
  153.8826  138.1147  154.6583 H   0  0  0  0  0  0  0  0  0  0  0  0
  153.3222  138.9080  156.1168 H   0  0  0  0  0  0  0  0  0  0  0  0
  152.7877  139.4870  154.5371 H   0  0  0  0  0  0  0  0  0  0  0  0
  148.9002  137.1214  156.7166 H   0  0  0  0  0  0  0  0  0  0  0  0
  149.2893  136.2812  153.8584 H   0  0  0  0  0  0  0  0  0  0  0  0
  150.1656  134.0043  153.5055 H   0  0  0  0  0  0  0  0  0  0  0  0
  149.6923  132.8198  154.7127 H   0  0  0  0  0  0  0  0  0  0  0  0
  148.4171  131.9683  152.2153 H   0  0  0  0  0  0  0  0  0  0  0  0
  145.7561  132.5995  151.6681 H   0  0  0  0  0  0  0  0  0  0  0  0
  148.0075  139.0878  155.8246 H   0  0  0  0  0  0  0  0  0  0  0  0
  147.6471  137.5748  153.1767 H   0  0  0  0  0  0  0  0  0  0  0  0
  146.7282  138.9622  153.7391 H   0  0  0  0  0  0  0  0  0  0  0  0
  146.5426  137.4084  154.5368 H   0  0  0  0  0  0  0  0  0  0  0  0
  149.9617  138.6256  153.5139 H   0  0  0  0  0  0  0  0  0  0  0  0
  148.8454  142.1848  154.2685 H   0  0  0  0  0  0  0  0  0  0  0  0
  147.8297  140.8746  154.8615 H   0  0  0  0  0  0  0  0  0  0  0  0
  148.3950  140.8718  153.1809 H   0  0  0  0  0  0  0  0  0  0  0  0
  1  2  1  0  0  0  0
  1 21  1  0  0  0  0
  1 22  1  0  0  0  0
  1 23  1  0  0  0  0
  2  3  1  0  0  0  0
  2 24  1  0  0  0  0
  2 25  1  0  0  0  0
  3 18  1  0  0  0  0
  3  4  1  0  0  0  0
  3  6  1  0  0  0  0
  4  5  1  0  0  0  0
  4 26  1  0  0  0  0
  4 27  1  0  0  0  0
  5 28  1  0  0  0  0
  5 29  1  0  0  0  0
  5 30  1  0  0  0  0
  6  7  1  0  0  0  0
  6 16  1  0  0  0  0
  6 31  1  0  0  0  0
  7  8  1  0  0  0  0
  7 32  1  0  0  0  0
  8  9  2  0  0  0  0
  8 10  1  0  0  0  0
 10 11  1  0  0  0  0
 10 33  1  0  0  0  0
 10 34  1  0  0  0  0
 11 15  1  0  0  0  0
 11 12  1  0  0  0  0
 12 13  2  0  0  0  0
 12 35  1  0  0  0  0
 13 14  1  0  0  0  0
 13 36  1  0  0  0  0
 14 15  2  0  0  0  0
 16 17  1  0  0  0  0
 16 18  1  0  0  0  0
 16 37  1  0  0  0  0
 17 38  1  0  0  0  0
 17 39  1  0  0  0  0
 17 40  1  0  0  0  0
 18 19  1  0  0  0  0
 18 41  1  0  0  0  0
 19 20  1  0  0  0  0
 20 42  1  0  0  0  0
 20 43  1  0  0  0  0
 20 44  1  0  0  0  0
M  END
> <s_m_source_file>
AV-unprocessed.smi

> <i_m_source_file_index>
2525

> <i_lp_mmshare_version>
43012

> <i_f3d_flags>
0

> <s_epik_input>
W0NIM11PW0NAQEhdMVtDQEhdKFtDSDNdKVtDQEBIXShDMShbQ0gyXVtDSDNdKVtDSDJdW0NIM10pW05IXUMoPU8pW0NIMl1uMltjSF1bY0hdbm4y

> <s_epik_cmdline>
J2VwaWtfcHl0aG9uJywgJy1waCcsICc3LjAnLCAnLXRuJywgJzgnLCAnLW1hJywgJzIwMCcsICctbWV0YWxfYmluZGluZycsICctaW1hZScsICc8aW5maWxlLm1hZT4nLCAnLW9tYWUnLCAnPG91dGZpbGUubWFlPic=

> <r_lp_tautomer_probability>
1

> <r_epik_Ionization_Penalty>
1.18045e-06

> <r_epik_Ionization_Penalty_Charging>
0

> <r_epik_Ionization_Penalty_Neutral>
1.18045e-06

> <r_epik_State_Penalty>
-0

> <r_epik_Charging_Adjusted_Penalty>
0

> <i_epik_Tot_Q>
0

> <i_epik_Tot_abs_Q>
0

> <r_epik_Metal_State_Penalty>
-0

> <b_epik_Metal_Only>
0

> <s_lp_Force_Field>
OPLS_2005

> <r_lp_Energy>
27.9477

> <b_lp_Chiralities_Consistent>
1

> <s_lp_Variant>
AV-unprocessed.smi:2525-4

> <Gold.Version>
5.8.1

> <Gold.Id.Protein>
6NUR|6NUR_protein|mol2

> <Gold.PLP.Fitness>
36.6785

> <Gold.PLP.PLP>
-29.3495

> <Gold.PLP.part.hbond>
-2.0000

> <Gold.PLP.part.metal>
0.0000

> <Gold.PLP.part.buried>
-2.4654

> <Gold.PLP.part.nonpolar>
-25.3354

> <Gold.PLP.part.repulsive>
0.3324

> <Gold.PLP.ligand.clash>
0.0000

> <Gold.PLP.ligand.torsion>
0.8600

> <Gold.PLP.Chemscore.Hbond>
1.8320

> <Gold.PLP.Chemscore.CHOScore>
1.0000

> <Gold.PLP.Chemscore.Metal>
0.0000

> <Gold.Chemscore.Hbonds>
donor molecule, donor type, donor heavy atom, donor atom, acceptor molecule, acceptor atom, score
      L1  H     7    32       P1  7948  1.00
      P1  H  7989  7998       L1    19  0.63
      L1  C    12    35       P1 10747  1.00

> <Gold.PLP.Chemscore.Internal.Correction>
0.5532

> <Gold.Rescore>
     Score         DG    S(hbond)    S(metal)    S(lipo)     H(rot)  DE(clash)    DE(int)     intcor
     11.11     -13.93       1.64        0.00      68.87       1.98       0.02       2.80       ----

> <Gold.Chemscore.Fitness>
11.1066

> <Gold.Chemscore.DG>
-13.9276

> <Gold.Chemscore.ZeroCoef>
-5.4800

> <Gold.Chemscore.Hbond>
1.6357

> <Gold.Chemscore.Metal>
0.0000

> <Gold.Chemscore.Lipo>
68.8661

> <Gold.Chemscore.Internal_Hbond>
0.0000

> <Gold.Chemscore.DEClash>
0.0243

> <Gold.Chemscore.DEInternal>
2.7966

> <Gold.Chemscore.Rot>
1.9817

> <Gold.Chemscore.Internal.Correction>
   9.000000E+99

> <Gold.Chemscore.Hbonds>
donor molecule, donor type, donor heavy atom, donor atom, acceptor molecule, acceptor atom, score
      L1  H     7    32       P1  7948  0.87
      P1  H  7989  7998       L1    19  0.28

> <Gold.Chemscore.Hbond.Weighted>
-5.4634

> <Gold.Chemscore.Metal.Weighted>
-0.0000

> <Gold.Chemscore.Lipo.Weighted>
-8.0573

> <Gold.Chemscore.Internal_Hbond.Weighted>
0.0000

> <Gold.Chemscore.DEClash.Weighted>
0.0243

> <Gold.Chemscore.DEInternal.Weighted>
2.7966

> <Gold.Chemscore.Rot.Weighted>
5.0731

> <Gold.Chemscore.Internal.Correction.Weighted>
   9.000000E+99

> <Gold.Protein.RotatedTorsions>
[ 6907 6896 6895 6894 ] final   21.30 input  -60.11 | X-H torsion
[ 7974 7965 7964 7962 ] final   23.09 input  175.53 | X-H torsion
[ 8008 7997 7996 7995 ] final  -37.61 input   59.86 | X-H torsion
[ 10167 10162 10161 10158 ] final   63.34 input  -65.29 | X-H torsion
[ 10718 10713 10712 10709 ] final  -41.90 input   66.30 | X-H torsion
[ 10763 10752 10751 10750 ] final    4.98 input  -60.55 | X-H torsion
[ 11005 11000 10999 10996 ] final -120.08 input  -57.11 | X-H torsion

> <Gold.Protein.ActiveResidues>
 VAL166  LYS551  ARG553  GLY616  TRP617  ASP618  TYR619  PRO620  LYS621  CYS622 
 ASP623  PHE694  ASN695  SER759  ASP760  ASP761  ALA762  ILE779  LEU786  VAL792 
 PHE793  MET794  SER795  GLU796  ALA797  LYS798  CYS799  TRP800  GLU811  SER814 

> <Gold.Protein.RotatedAtoms>
  151.9097  135.0344  160.0513 H   0  0  0  0  0  0  0  0  0  0  0  0  # atno 6907 bound_to 6896
  152.2289  133.5038  159.5213 H   0  0  0  0  0  0  0  0  0  0  0  0  # atno 6908 bound_to 6896
  150.7020  134.1159  159.4060 H   0  0  0  0  0  0  0  0  0  0  0  0  # atno 6909 bound_to 6896
  146.2000  139.7794  142.8769 H   0  0  0  0  0  0  0  0  0  0  0  0  # atno 7974 bound_to 7965
  154.4050  140.1599  156.2565 H   0  0  0  0  0  0  0  0  0  0  0  0  # atno 8008 bound_to 7997
  155.9074  140.3429  155.6050 H   0  0  0  0  0  0  0  0  0  0  0  0  # atno 8009 bound_to 7997
  155.7376  140.0788  157.2251 H   0  0  0  0  0  0  0  0  0  0  0  0  # atno 8010 bound_to 7997
  140.1340  144.4616  150.6848 H   0  0  0  0  0  0  0  0  0  0  0  0  # atno 10167 bound_to 10162
  156.2654  130.4201  149.8496 H   0  0  0  0  0  0  0  0  0  0  0  0  # atno 10718 bound_to 10713
  153.2648  135.6926  153.7541 H   0  0  0  0  0  0  0  0  0  0  0  0  # atno 10763 bound_to 10752
  153.6586  135.3364  155.3121 H   0  0  0  0  0  0  0  0  0  0  0  0  # atno 10764 bound_to 10752
  154.8443  135.4471  154.1651 H   0  0  0  0  0  0  0  0  0  0  0  0  # atno 10765 bound_to 10752
  141.0169  134.0182  157.3337 H   0  0  0  0  0  0  0  0  0  0  0  0  # atno 11005 bound_to 11000
  145.3516  141.0308  143.3335 LP  0  0  0  0  0  0  0  0  0  0  0  0  # atno 17320 bound_to 7965
  144.8662  139.5104  143.6789 LP  0  0  0  0  0  0  0  0  0  0  0  0  # atno 17321 bound_to 7965
  140.6800  143.2322  151.5409 LP  0  0  0  0  0  0  0  0  0  0  0  0  # atno 17342 bound_to 10162
  139.5505  144.2408  152.1521 LP  0  0  0  0  0  0  0  0  0  0  0  0  # atno 17343 bound_to 10162
  156.5996  130.8541  151.3428 LP  0  0  0  0  0  0  0  0  0  0  0  0  # atno 17370 bound_to 10713
  157.7265  130.9631  150.1661 LP  0  0  0  0  0  0  0  0  0  0  0  0  # atno 17371 bound_to 10713
  139.9122  135.0192  156.7739 LP  0  0  0  0  0  0  0  0  0  0  0  0  # atno 17394 bound_to 11000
  140.6639  133.9620  155.7820 LP  0  0  0  0  0  0  0  0  0  0  0  0  # atno 17395 bound_to 11000

$$$$
