AV-unprocessed.smi:160|AV-procd|sdf|1350|dock6
  -GOLD-   2262019 53D 1   1.00000     0.00000
 Structure written by MMmdl.
 29 30  0  0  0  0  0  0  0  0  1 V2000
  147.2343  144.1528  158.6444 N   0  0  0  0  0  0  0  0  0  0  0  0
  146.4233  143.1012  158.4878 C   0  0  0  0  0  0  0  0  0  0  0  0
  145.9312  142.5013  159.4422 O   0  0  0  0  0  0  0  0  0  0  0  0
  146.1428  142.6837  157.0708 C   0  0  0  0  0  0  0  0  0  0  0  0
  144.8642  142.4942  156.6295 N   0  0  0  0  0  0  0  0  0  0  0  0
  145.1259  142.1544  155.3739 C   0  0  0  0  0  0  0  0  0  0  0  0
  146.4282  142.1268  155.0723 N   0  0  0  0  0  0  0  0  0  0  0  0
  147.1023  141.8136  153.7679 C   0  0  1  0  0  0  0  0  0  0  0  0
  148.4465  142.1573  153.9006 O   0  0  0  0  0  0  0  0  0  0  0  0
  149.2759  140.9974  153.9891 C   0  0  1  0  0  0  0  0  0  0  0  0
  150.2189  141.1173  155.1974 C   0  0  0  0  0  0  0  0  0  0  0  0
  149.7673  142.1336  156.0670 O   0  0  0  0  0  0  0  0  0  0  0  0
  148.3202  139.7962  154.0766 C   0  0  2  0  0  0  0  0  0  0  0  0
  148.8427  138.6962  153.3582 O   0  0  0  0  0  0  0  0  0  0  0  0
  147.0526  140.3174  153.4162 C   0  0  1  0  0  0  0  0  0  0  0  0
  145.8990  139.6509  153.8966 O   0  0  0  0  0  0  0  0  0  0  0  0
  147.1189  142.4876  156.1833 N   0  0  0  0  0  0  0  0  0  0  0  0
  146.5952  142.4509  153.0424 H   0  0  0  0  0  0  0  0  0  0  0  0
  149.8474  140.9363  153.0608 H   0  0  0  0  0  0  0  0  0  0  0  0
  148.1369  139.5160  155.1149 H   0  0  0  0  0  0  0  0  0  0  0  0
  147.1167  140.2289  152.3307 H   0  0  0  0  0  0  0  0  0  0  0  0
  147.4618  144.4796  159.5720 H   0  0  0  0  0  0  0  0  0  0  0  0
  147.6159  144.6125  157.8303 H   0  0  0  0  0  0  0  0  0  0  0  0
  144.3511  141.9199  154.6586 H   0  0  0  0  0  0  0  0  0  0  0  0
  150.3062  140.1714  155.7323 H   0  0  0  0  0  0  0  0  0  0  0  0
  151.2199  141.3950  154.8658 H   0  0  0  0  0  0  0  0  0  0  0  0
  149.3135  142.7867  155.5565 H   0  0  0  0  0  0  0  0  0  0  0  0
  148.9117  138.9374  152.4473 H   0  0  0  0  0  0  0  0  0  0  0  0
  145.1825  139.8239  153.3054 H   0  0  0  0  0  0  0  0  0  0  0  0
  1  2  1  0  0  0  0
  1 22  1  0  0  0  0
  1 23  1  0  0  0  0
  2  3  2  0  0  0  0
  2  4  1  0  0  0  0
  4 17  2  0  0  0  0
  4  5  1  0  0  0  0
  5  6  2  0  0  0  0
  6  7  1  0  0  0  0
  6 24  1  0  0  0  0
  7  8  1  0  0  0  0
  7 17  1  0  0  0  0
  8 18  1  0  0  0  0
  8 15  1  0  0  0  0
  8  9  1  0  0  0  0
  9 10  1  0  0  0  0
 10 19  1  0  0  0  0
 10 11  1  0  0  0  0
 10 13  1  0  0  0  0
 11 12  1  0  0  0  0
 11 25  1  0  0  0  0
 11 26  1  0  0  0  0
 12 27  1  0  0  0  0
 13 20  1  0  0  0  0
 13 14  1  0  0  0  0
 13 15  1  0  0  0  0
 14 28  1  0  0  0  0
 15 21  1  0  0  0  0
 15 16  1  0  0  0  0
 16 29  1  0  0  0  0
M  END
> <s_m_source_file>
AV-unprocessed.smi

> <i_m_source_file_index>
160

> <i_lp_mmshare_version>
43012

> <i_f3d_flags>
0

> <s_epik_input>
W05IMl1DKD1PKWMxbltjSF1uKG4xKVtDQEBIXTJPW0NASF0oW0NIMl1bT0hdKVtDQEBIXShbT0hdKVtDQEhdMltPSF0=

> <s_epik_cmdline>
J2VwaWtfcHl0aG9uJywgJy1waCcsICc3LjAnLCAnLXRuJywgJzgnLCAnLW1hJywgJzIwMCcsICctbWV0YWxfYmluZGluZycsICctaW1hZScsICc8aW5maWxlLm1hZT4nLCAnLW9tYWUnLCAnPG91dGZpbGUubWFlPic=

> <r_lp_tautomer_probability>
1

> <r_epik_Ionization_Penalty>
1.06932e-05

> <r_epik_Ionization_Penalty_Charging>
0

> <r_epik_Ionization_Penalty_Neutral>
1.06932e-05

> <r_epik_State_Penalty>
-0

> <r_epik_Charging_Adjusted_Penalty>
0

> <i_epik_Tot_Q>
0

> <i_epik_Tot_abs_Q>
0

> <r_epik_Metal_State_Penalty>
0.0142097

> <b_epik_Metal_Only>
0

> <s_epik_Chemistry_Notes>
This compound contains an acetal/aminal-like group ( X-CH(R)-Y where X, Y are N, S, or O) that may be acid/base labile, releasing an aldehyde.

> <s_lp_Force_Field>
OPLS_2005

> <r_lp_Energy>
40.695

> <b_lp_Chiralities_Consistent>
1

> <s_lp_Variant>
AV-unprocessed.smi:160-8

> <Gold.Version>
5.8.1

> <Gold.Id.Protein>
6NUR|6NUR_protein|mol2

> <Gold.PLP.Fitness>
39.2062

> <Gold.PLP.PLP>
-25.1549

> <Gold.PLP.part.hbond>
-7.0000

> <Gold.PLP.part.metal>
0.0000

> <Gold.PLP.part.buried>
-1.1829

> <Gold.PLP.part.nonpolar>
-16.9069

> <Gold.PLP.part.repulsive>
1.2071

> <Gold.PLP.ligand.clash>
0.0000

> <Gold.PLP.ligand.torsion>
1.7316

> <Gold.PLP.Chemscore.Hbond>
4.8393

> <Gold.PLP.Chemscore.CHOScore>
0.9953

> <Gold.PLP.Chemscore.Metal>
0.0000

> <Gold.Chemscore.Hbonds>
donor molecule, donor type, donor heavy atom, donor atom, acceptor molecule, acceptor atom, score
      L1  H     1    23       P1  8029  0.69
      L1  H    12    27       P1  8028  0.78
      L1  H    14    28       P1  7957  1.00
      L1  H    16    29       P1 10175  1.00
      P1  H  6934  6946       L1     3  0.34
      L1  C     6    24       P1 10175  0.59

> <Gold.PLP.Chemscore.Internal.Correction>
0.0110

> <Gold.Rescore>
     Score         DG    S(hbond)    S(metal)    S(lipo)     H(rot)  DE(clash)    DE(int)     intcor
      9.01     -13.51       4.55        0.00      27.65       4.06       0.18       4.32       ----

> <Gold.Chemscore.Fitness>
9.0148

> <Gold.Chemscore.DG>
-13.5132

> <Gold.Chemscore.ZeroCoef>
-5.4800

> <Gold.Chemscore.Hbond>
4.5483

> <Gold.Chemscore.Metal>
0.0000

> <Gold.Chemscore.Lipo>
27.6535

> <Gold.Chemscore.Internal_Hbond>
0.0000

> <Gold.Chemscore.DEClash>
0.1799

> <Gold.Chemscore.DEInternal>
4.3186

> <Gold.Chemscore.Rot>
4.0600

> <Gold.Chemscore.Internal.Correction>
   9.000000E+99

> <Gold.Chemscore.Hbonds>
donor molecule, donor type, donor heavy atom, donor atom, acceptor molecule, acceptor atom, score
      L1  H     1    23       P1  8029  0.17
      L1  H    12    27       P1  8028  0.76
      L1  H    14    28       P1  7957  0.93
      L1  H    16    29       P1 10175  1.00
      P1  H  6934  6946       L1     3  0.35

> <Gold.Chemscore.Hbond.Weighted>
-15.1914

> <Gold.Chemscore.Metal.Weighted>
-0.0000

> <Gold.Chemscore.Lipo.Weighted>
-3.2355

> <Gold.Chemscore.Internal_Hbond.Weighted>
0.0000

> <Gold.Chemscore.DEClash.Weighted>
0.1799

> <Gold.Chemscore.DEInternal.Weighted>
4.3186

> <Gold.Chemscore.Rot.Weighted>
10.3936

> <Gold.Chemscore.Internal.Correction.Weighted>
   9.000000E+99

> <Gold.Protein.RotatedTorsions>
[ 6907 6896 6895 6894 ] final   77.20 input  -60.11 | X-H torsion
[ 7974 7965 7964 7962 ] final   15.99 input  175.53 | X-H torsion
[ 8008 7997 7996 7995 ] final -137.00 input   59.86 | X-H torsion
[ 10167 10162 10161 10158 ] final   14.69 input  -65.29 | X-H torsion
[ 10718 10713 10712 10709 ] final  -40.44 input   66.30 | X-H torsion
[ 10763 10752 10751 10750 ] final -146.10 input  -60.55 | X-H torsion
[ 11005 11000 10999 10996 ] final  -80.89 input  -57.11 | X-H torsion

> <Gold.Protein.ActiveResidues>
 VAL166  LYS551  ARG553  GLY616  TRP617  ASP618  TYR619  PRO620  LYS621  CYS622 
 ASP623  PHE694  ASN695  SER759  ASP760  ASP761  ALA762  ILE779  LEU786  VAL792 
 PHE793  MET794  SER795  GLU796  ALA797  LYS798  CYS799  TRP800  GLU811  SER814 

> <Gold.Protein.RotatedAtoms>
  152.5107  134.3853  159.9364 H   0  0  0  0  0  0  0  0  0  0  0  0  # atno 6907 bound_to 6896
  151.3811  133.3815  159.2718 H   0  0  0  0  0  0  0  0  0  0  0  0  # atno 6908 bound_to 6896
  150.9504  134.8925  159.7727 H   0  0  0  0  0  0  0  0  0  0  0  0  # atno 6909 bound_to 6896
  146.2263  139.8814  142.8570 H   0  0  0  0  0  0  0  0  0  0  0  0  # atno 7974 bound_to 7965
  155.4045  140.0508  157.3035 H   0  0  0  0  0  0  0  0  0  0  0  0  # atno 8008 bound_to 7997
  154.4975  140.2144  155.9376 H   0  0  0  0  0  0  0  0  0  0  0  0  # atno 8009 bound_to 7997
  156.1424  140.3151  155.8522 H   0  0  0  0  0  0  0  0  0  0  0  0  # atno 8010 bound_to 7997
  140.5918  143.8780  150.6881 H   0  0  0  0  0  0  0  0  0  0  0  0  # atno 10167 bound_to 10162
  156.2813  130.4217  149.8334 H   0  0  0  0  0  0  0  0  0  0  0  0  # atno 10718 bound_to 10713
  154.8352  135.3395  154.6608 H   0  0  0  0  0  0  0  0  0  0  0  0  # atno 10763 bound_to 10752
  153.7224  135.6957  153.5014 H   0  0  0  0  0  0  0  0  0  0  0  0  # atno 10764 bound_to 10752
  153.2372  135.4397  155.0612 H   0  0  0  0  0  0  0  0  0  0  0  0  # atno 10765 bound_to 10752
  141.1667  133.7171  156.8340 H   0  0  0  0  0  0  0  0  0  0  0  0  # atno 11005 bound_to 11000
  145.2509  141.0043  143.3882 LP  0  0  0  0  0  0  0  0  0  0  0  0  # atno 17320 bound_to 7965
  144.9375  139.4226  143.6465 LP  0  0  0  0  0  0  0  0  0  0  0  0  # atno 17321 bound_to 7965
  140.2304  143.3740  152.1570 LP  0  0  0  0  0  0  0  0  0  0  0  0  # atno 17342 bound_to 10162
  139.5232  144.7069  151.5327 LP  0  0  0  0  0  0  0  0  0  0  0  0  # atno 17343 bound_to 10162
  156.5781  130.8454  151.3375 LP  0  0  0  0  0  0  0  0  0  0  0  0  # atno 17370 bound_to 10713
  157.7315  130.9701  150.1883 LP  0  0  0  0  0  0  0  0  0  0  0  0  # atno 17371 bound_to 10713
  140.2031  134.8883  157.3191 LP  0  0  0  0  0  0  0  0  0  0  0  0  # atno 17394 bound_to 11000
  140.2166  134.4073  155.7586 LP  0  0  0  0  0  0  0  0  0  0  0  0  # atno 17395 bound_to 11000

$$$$
