AV-unprocessed.smi:168|AV-procd|sdf|1397|dock6
  -GOLD-   2262019143D 1   1.00000     0.00000
 Structure written by MMmdl.
 62 66  0  0  0  0  0  0  0  0  1 V2000
  146.4188  137.1801  157.6842 C   0  0  0  0  0  0  0  0  0  0  0  0
  146.7971  138.6653  157.5956 C   0  0  0  0  0  0  0  0  0  0  0  0
  145.7352  139.5170  158.3264 C   0  0  0  0  0  0  0  0  0  0  0  0
  147.1269  139.0798  156.1362 C   0  0  1  0  0  0  0  0  0  0  0  0
  145.9190  139.1397  155.3090 N   0  0  0  0  0  0  0  0  0  0  0  0
  145.9602  138.4572  154.0481 C   0  0  0  0  0  0  0  0  0  0  0  0
  146.8156  138.9032  153.0878 N   0  0  0  0  0  0  0  0  0  0  0  0
  146.8869  138.3229  151.8876 C   0  0  0  0  0  0  0  0  0  0  0  0
  146.1874  137.2903  151.4209 N   0  0  0  0  0  0  0  0  0  0  0  0
  145.3050  136.8392  152.3552 C   0  0  0  0  0  0  0  0  0  0  0  0
  145.1226  137.3636  153.6692 C   0  0  0  0  0  0  0  0  0  0  0  0
  144.1081  136.6590  154.3069 N   0  0  0  0  0  0  0  0  0  0  0  0
  143.7183  135.7763  153.4300 C   0  0  0  0  0  0  0  0  0  0  0  0
  144.4055  135.7931  152.2392 N   0  0  0  0  0  0  0  0  0  0  0  0
  144.1528  134.9681  151.0935 C   0  0  0  0  0  0  0  0  0  0  0  0
  143.9361  133.4587  151.2397 C   0  0  0  0  0  0  0  0  0  0  0  0
  144.6876  133.2083  149.9133 C   0  0  0  0  0  0  0  0  0  0  0  0
  145.7373  132.0872  149.9579 C   0  0  0  0  0  0  0  0  0  0  0  0
  146.6139  132.2441  151.0554 O   0  0  0  0  0  0  0  0  0  0  0  0
  143.8305  132.9774  148.6484 C   0  0  0  0  0  0  0  0  0  0  0  0
  142.7061  132.1529  148.8774 O   0  0  0  0  0  0  0  0  0  0  0  0
  145.2658  134.6295  150.0970 C   0  0  0  0  0  0  0  0  0  0  0  0
  145.9508  140.6005  155.2603 C   0  0  0  0  0  0  0  0  0  0  0  0
  147.4184  140.5432  155.7057 C   0  0  0  0  0  0  0  0  0  0  0  0
  148.4346  140.7094  154.5538 C   0  0  0  0  0  0  0  0  0  0  0  0
  149.8916  140.4822  154.9894 C   0  0  0  0  0  0  0  0  0  0  0  0
  150.2852  141.4455  156.1140 C   0  0  0  0  0  0  0  0  0  0  0  0
  149.2894  141.3656  157.2763 C   0  0  0  0  0  0  0  0  0  0  0  0
  147.8419  141.5582  156.7878 C   0  0  0  0  0  0  0  0  0  0  0  0
  145.4828  136.9792  157.1621 H   0  0  0  0  0  0  0  0  0  0  0  0
  146.2924  136.8670  158.7210 H   0  0  0  0  0  0  0  0  0  0  0  0
  147.1918  136.5488  157.2457 H   0  0  0  0  0  0  0  0  0  0  0  0
  147.7131  138.7612  158.1768 H   0  0  0  0  0  0  0  0  0  0  0  0
  144.7544  139.4241  157.8593 H   0  0  0  0  0  0  0  0  0  0  0  0
  145.9885  140.5741  158.3566 H   0  0  0  0  0  0  0  0  0  0  0  0
  145.6276  139.1904  159.3610 H   0  0  0  0  0  0  0  0  0  0  0  0
  147.9007  138.4417  155.7120 H   0  0  0  0  0  0  0  0  0  0  0  0
  147.6072  138.7478  151.2042 H   0  0  0  0  0  0  0  0  0  0  0  0
  142.9148  135.0833  153.6330 H   0  0  0  0  0  0  0  0  0  0  0  0
  143.3073  135.4287  150.5811 H   0  0  0  0  0  0  0  0  0  0  0  0
  144.4596  133.0452  152.1035 H   0  0  0  0  0  0  0  0  0  0  0  0
  142.8893  133.1533  151.2373 H   0  0  0  0  0  0  0  0  0  0  0  0
  145.2653  131.1061  150.0204 H   0  0  0  0  0  0  0  0  0  0  0  0
  146.3409  132.0808  149.0498 H   0  0  0  0  0  0  0  0  0  0  0  0
  147.4415  131.8434  150.8380 H   0  0  0  0  0  0  0  0  0  0  0  0
  143.4689  133.9259  148.2501 H   0  0  0  0  0  0  0  0  0  0  0  0
  144.4172  132.5116  147.8564 H   0  0  0  0  0  0  0  0  0  0  0  0
  141.9536  132.7057  149.0231 H   0  0  0  0  0  0  0  0  0  0  0  0
  145.2635  135.2462  149.1975 H   0  0  0  0  0  0  0  0  0  0  0  0
  146.2520  134.6323  150.5642 H   0  0  0  0  0  0  0  0  0  0  0  0
  145.8042  141.0729  154.2892 H   0  0  0  0  0  0  0  0  0  0  0  0
  145.2894  141.0404  156.0063 H   0  0  0  0  0  0  0  0  0  0  0  0
  148.2090  140.0224  153.7384 H   0  0  0  0  0  0  0  0  0  0  0  0
  148.3441  141.7064  154.1205 H   0  0  0  0  0  0  0  0  0  0  0  0
  150.0205  139.4526  155.3250 H   0  0  0  0  0  0  0  0  0  0  0  0
  150.5592  140.6149  154.1378 H   0  0  0  0  0  0  0  0  0  0  0  0
  151.2932  141.2237  156.4652 H   0  0  0  0  0  0  0  0  0  0  0  0
  150.3085  142.4647  155.7265 H   0  0  0  0  0  0  0  0  0  0  0  0
  149.3913  140.4013  157.7733 H   0  0  0  0  0  0  0  0  0  0  0  0
  149.5327  142.1223  158.0226 H   0  0  0  0  0  0  0  0  0  0  0  0
  147.7360  142.5717  156.3986 H   0  0  0  0  0  0  0  0  0  0  0  0
  147.1780  141.5194  157.6480 H   0  0  0  0  0  0  0  0  0  0  0  0
  1  2  1  0  0  0  0
  1 30  1  0  0  0  0
  1 31  1  0  0  0  0
  1 32  1  0  0  0  0
  2  3  1  0  0  0  0
  2  4  1  0  0  0  0
  2 33  1  0  0  0  0
  3 34  1  0  0  0  0
  3 35  1  0  0  0  0
  3 36  1  0  0  0  0
  4 24  1  0  0  0  0
  4  5  1  0  0  0  0
  4 37  1  0  0  0  0
  5  6  1  0  0  0  0
  5 23  1  0  0  0  0
  6 11  1  0  0  0  0
  6  7  2  0  0  0  0
  7  8  1  0  0  0  0
  8  9  2  0  0  0  0
  8 38  1  0  0  0  0
  9 10  1  0  0  0  0
 10 14  1  0  0  0  0
 10 11  2  0  0  0  0
 11 12  1  0  0  0  0
 12 13  2  0  0  0  0
 13 14  1  0  0  0  0
 13 39  1  0  0  0  0
 14 15  1  0  0  0  0
 15 22  1  0  0  0  0
 15 16  1  0  0  0  0
 15 40  1  0  0  0  0
 16 17  1  0  0  0  0
 16 41  1  0  0  0  0
 16 42  1  0  0  0  0
 17 18  1  0  0  0  0
 17 20  1  0  0  0  0
 17 22  1  0  0  0  0
 18 19  1  0  0  0  0
 18 43  1  0  0  0  0
 18 44  1  0  0  0  0
 19 45  1  0  0  0  0
 20 21  1  0  0  0  0
 20 46  1  0  0  0  0
 20 47  1  0  0  0  0
 21 48  1  0  0  0  0
 22 49  1  0  0  0  0
 22 50  1  0  0  0  0
 23 24  1  0  0  0  0
 23 51  1  0  0  0  0
 23 52  1  0  0  0  0
 24 29  1  0  0  0  0
 24 25  1  0  0  0  0
 25 26  1  0  0  0  0
 25 53  1  0  0  0  0
 25 54  1  0  0  0  0
 26 27  1  0  0  0  0
 26 55  1  0  0  0  0
 26 56  1  0  0  0  0
 27 28  1  0  0  0  0
 27 57  1  0  0  0  0
 27 58  1  0  0  0  0
 28 29  1  0  0  0  0
 28 59  1  0  0  0  0
 28 60  1  0  0  0  0
 29 61  1  0  0  0  0
 29 62  1  0  0  0  0
M  END
> <s_m_source_file>
AV-unprocessed.smi

> <i_m_source_file_index>
168

> <i_lp_mmshare_version>
43012

> <i_f3d_flags>
0

> <s_epik_input>
W0NIMl0xW0NIMl1bQ0gyXVtDSDJdW0NIMl1DMTJbQ0BIXShbQ0hdKFtDSDNdKVtDSDNdKU4oW0NIMl0yKWMobltjSF1uMyljKGMzNCluW2NIXW40W0NIXShbQ0gyXTUpW0NIMl1DNShbQ0gyXVtPSF0pW0NIMl1bT0hd

> <s_epik_cmdline>
J2VwaWtfcHl0aG9uJywgJy1waCcsICc3LjAnLCAnLXRuJywgJzgnLCAnLW1hJywgJzIwMCcsICctbWV0YWxfYmluZGluZycsICctaW1hZScsICc8aW5maWxlLm1hZT4nLCAnLW9tYWUnLCAnPG91dGZpbGUubWFlPic=

> <r_lp_tautomer_probability>
1

> <r_epik_Ionization_Penalty>
0.00324652

> <r_epik_Ionization_Penalty_Charging>
0

> <r_epik_Ionization_Penalty_Neutral>
0.00324652

> <r_epik_State_Penalty>
0.00223464

> <r_epik_Charging_Adjusted_Penalty>
0.00223464

> <i_epik_Tot_Q>
0

> <i_epik_Tot_abs_Q>
0

> <r_epik_Metal_State_Penalty>
-0

> <b_epik_Metal_Only>
0

> <s_lp_Force_Field>
OPLS_2005

> <r_lp_Energy>
69.202

> <b_lp_Chiralities_Consistent>
1

> <s_lp_Variant>
AV-unprocessed.smi:168-2

> <Gold.Version>
5.8.1

> <Gold.Id.Protein>
6NUR|6NUR_protein|mol2

> <Gold.PLP.Fitness>
49.2275

> <Gold.PLP.PLP>
-39.4360

> <Gold.PLP.part.hbond>
-4.0000

> <Gold.PLP.part.metal>
0.0000

> <Gold.PLP.part.buried>
-0.2250

> <Gold.PLP.part.nonpolar>
-36.7021

> <Gold.PLP.part.repulsive>
2.0548

> <Gold.PLP.ligand.clash>
0.0000

> <Gold.PLP.ligand.torsion>
1.4984

> <Gold.PLP.Chemscore.Hbond>
3.0000

> <Gold.PLP.Chemscore.CHOScore>
1.0000

> <Gold.PLP.Chemscore.Metal>
0.0000

> <Gold.Chemscore.Hbonds>
donor molecule, donor type, donor heavy atom, donor atom, acceptor molecule, acceptor atom, score
      L1  H    19    45       P1 10747  1.00
      L1  H    21    48       P1 10186  1.00
      P1  H 10785 10796       L1    21  0.91
      L1  C     8    38       P1  7957  1.00

> <Gold.PLP.Chemscore.Internal.Correction>
0.7883

> <Gold.Rescore>
     Score         DG    S(hbond)    S(metal)    S(lipo)     H(rot)  DE(clash)    DE(int)     intcor
     10.46     -15.92       2.46        0.00      87.12       3.12       2.55       2.90       ----

> <Gold.Chemscore.Fitness>
10.4650

> <Gold.Chemscore.DG>
-15.9185

> <Gold.Chemscore.ZeroCoef>
-5.4800

> <Gold.Chemscore.Hbond>
2.4634

> <Gold.Chemscore.Metal>
0.0000

> <Gold.Chemscore.Lipo>
87.1189

> <Gold.Chemscore.Internal_Hbond>
0.0000

> <Gold.Chemscore.DEClash>
2.5501

> <Gold.Chemscore.DEInternal>
2.9034

> <Gold.Chemscore.Rot>
3.1181

> <Gold.Chemscore.Internal.Correction>
   9.000000E+99

> <Gold.Chemscore.Hbonds>
donor molecule, donor type, donor heavy atom, donor atom, acceptor molecule, acceptor atom, score
      L1  H    19    45       P1 10747  1.00
      L1  H    21    48       P1 10186  0.94
      P1  H 10785 10796       L1    21  0.70

> <Gold.Chemscore.Hbond.Weighted>
-8.2279

> <Gold.Chemscore.Metal.Weighted>
-0.0000

> <Gold.Chemscore.Lipo.Weighted>
-10.1929

> <Gold.Chemscore.Internal_Hbond.Weighted>
0.0000

> <Gold.Chemscore.DEClash.Weighted>
2.5501

> <Gold.Chemscore.DEInternal.Weighted>
2.9034

> <Gold.Chemscore.Rot.Weighted>
7.9823

> <Gold.Chemscore.Internal.Correction.Weighted>
   9.000000E+99

> <Gold.Protein.RotatedTorsions>
[ 6907 6896 6895 6894 ] final -172.15 input  -60.11 | X-H torsion
[ 7974 7965 7964 7962 ] final   22.89 input  175.53 | X-H torsion
[ 8008 7997 7996 7995 ] final   71.05 input   59.86 | X-H torsion
[ 10167 10162 10161 10158 ] final    8.14 input  -65.29 | X-H torsion
[ 10718 10713 10712 10709 ] final   94.04 input   66.30 | X-H torsion
[ 10763 10752 10751 10750 ] final -130.96 input  -60.55 | X-H torsion
[ 11005 11000 10999 10996 ] final -133.38 input  -57.11 | X-H torsion

> <Gold.Protein.ActiveResidues>
 VAL166  LYS551  ARG553  GLY616  TRP617  ASP618  TYR619  PRO620  LYS621  CYS622 
 ASP623  PHE694  ASN695  SER759  ASP760  ASP761  ALA762  ILE779  LEU786  VAL792 
 PHE793  MET794  SER795  GLU796  ALA797  LYS798  CYS799  TRP800  GLU811  SER814 

> <Gold.Protein.RotatedAtoms>
  151.5354  133.3442  159.2925 H   0  0  0  0  0  0  0  0  0  0  0  0  # atno 6907 bound_to 6896
  150.8568  134.7912  159.7063 H   0  0  0  0  0  0  0  0  0  0  0  0  # atno 6908 bound_to 6896
  152.4599  134.5216  159.9836 H   0  0  0  0  0  0  0  0  0  0  0  0  # atno 6909 bound_to 6896
  146.2009  139.7821  142.8762 H   0  0  0  0  0  0  0  0  0  0  0  0  # atno 7974 bound_to 7965
  155.7481  140.3489  155.5137 H   0  0  0  0  0  0  0  0  0  0  0  0  # atno 8008 bound_to 7997
  155.9031  140.1037  157.1356 H   0  0  0  0  0  0  0  0  0  0  0  0  # atno 8009 bound_to 7997
  154.4046  140.1282  156.4448 H   0  0  0  0  0  0  0  0  0  0  0  0  # atno 8010 bound_to 7997
  140.6331  143.7947  150.7323 H   0  0  0  0  0  0  0  0  0  0  0  0  # atno 10167 bound_to 10162
  157.6951  131.0499  150.4125 H   0  0  0  0  0  0  0  0  0  0  0  0  # atno 10718 bound_to 10713
  154.8753  135.3845  154.4168 H   0  0  0  0  0  0  0  0  0  0  0  0  # atno 10763 bound_to 10752
  153.4876  135.7030  153.5907 H   0  0  0  0  0  0  0  0  0  0  0  0  # atno 10764 bound_to 10752
  153.4295  135.3882  155.2129 H   0  0  0  0  0  0  0  0  0  0  0  0  # atno 10765 bound_to 10752
  140.9086  134.1598  157.4407 H   0  0  0  0  0  0  0  0  0  0  0  0  # atno 11005 bound_to 11000
  145.3488  141.0303  143.3350 LP  0  0  0  0  0  0  0  0  0  0  0  0  # atno 17320 bound_to 7965
  144.8680  139.5079  143.6781 LP  0  0  0  0  0  0  0  0  0  0  0  0  # atno 17321 bound_to 7965
  140.1563  143.4314  152.2097 LP  0  0  0  0  0  0  0  0  0  0  0  0  # atno 17342 bound_to 10162
  139.5544  144.7362  151.4339 LP  0  0  0  0  0  0  0  0  0  0  0  0  # atno 17343 bound_to 10162
  156.4508  130.4011  149.6637 LP  0  0  0  0  0  0  0  0  0  0  0  0  # atno 17370 bound_to 10713
  156.3787  130.7568  151.2559 LP  0  0  0  0  0  0  0  0  0  0  0  0  # atno 17371 bound_to 10713
  139.8753  134.9926  156.5607 LP  0  0  0  0  0  0  0  0  0  0  0  0  # atno 17394 bound_to 11000
  140.8140  133.8407  155.8835 LP  0  0  0  0  0  0  0  0  0  0  0  0  # atno 17395 bound_to 11000

$$$$
