AV-unprocessed.smi:3277|AV-procd|sdf|12537|dock3
  -GOLD-   2272018453D 1   1.00000     0.00000
 Structure written by MMmdl.
 35 37  0  0  0  0  0  0  0  0  1 V2000
  148.9090  136.4665  155.4038 C   0  0  0  0  0  0  0  0  0  0  0  0
  149.9908  137.2236  156.0132 N   0  0  0  0  0  0  0  0  0  0  0  0
  151.2189  137.3462  155.4869 C   0  0  0  0  0  0  0  0  0  0  0  0
  151.5506  136.8374  154.4161 O   0  0  0  0  0  0  0  0  0  0  0  0
  152.2295  138.1683  156.2891 C   0  0  0  0  0  0  0  0  0  0  0  0
  151.6446  139.5259  156.5108 C   0  0  0  0  0  0  0  0  0  0  0  0
  151.6939  140.1667  157.6812 N   0  0  0  0  0  0  0  0  0  0  0  0
  151.1034  141.4350  157.6383 C   0  0  0  0  0  0  0  0  0  0  0  0
  151.0927  142.3403  158.8453 C   0  0  1  0  0  0  0  0  0  0  0  0
  152.4403  142.4603  159.5912 C   0  0  0  0  0  0  0  0  0  0  0  0
  152.6006  143.9860  159.7438 C   0  0  1  0  0  0  0  0  0  0  0  0
  152.9526  144.6025  158.3751 C   0  0  0  0  0  0  0  0  0  0  0  0
  151.6116  144.5446  157.6191 C   0  0  0  0  0  0  0  0  0  0  0  0
  150.6893  143.8196  158.6203 C   0  0  2  0  0  0  0  0  0  0  0  0
  151.1579  144.4444  159.9319 C   0  0  0  0  0  0  0  0  0  0  0  0
  150.5817  141.7342  156.4035 C   0  0  0  0  0  0  0  0  0  0  0  0
  150.8257  140.4461  155.2555 S   0  0  0  0  0  0  0  0  0  0  0  0
  148.0277  136.4978  156.0440 H   0  0  0  0  0  0  0  0  0  0  0  0
  149.1940  135.4226  155.2681 H   0  0  0  0  0  0  0  0  0  0  0  0
  148.6415  136.8844  154.4326 H   0  0  0  0  0  0  0  0  0  0  0  0
  149.8020  137.6693  156.8996 H   0  0  0  0  0  0  0  0  0  0  0  0
  152.4329  137.6935  157.2495 H   0  0  0  0  0  0  0  0  0  0  0  0
  153.1745  138.2514  155.7507 H   0  0  0  0  0  0  0  0  0  0  0  0
  150.3751  141.9280  159.5570 H   0  0  0  0  0  0  0  0  0  0  0  0
  152.3865  141.9676  160.5628 H   0  0  0  0  0  0  0  0  0  0  0  0
  153.2810  142.0244  159.0505 H   0  0  0  0  0  0  0  0  0  0  0  0
  153.2852  144.2753  160.5415 H   0  0  0  0  0  0  0  0  0  0  0  0
  153.2860  145.6351  158.4839 H   0  0  0  0  0  0  0  0  0  0  0  0
  153.7410  144.0482  157.8644 H   0  0  0  0  0  0  0  0  0  0  0  0
  151.2431  145.5551  157.4371 H   0  0  0  0  0  0  0  0  0  0  0  0
  151.6831  144.0593  156.6475 H   0  0  0  0  0  0  0  0  0  0  0  0
  149.6289  143.9526  158.4035 H   0  0  0  0  0  0  0  0  0  0  0  0
  150.6798  144.0162  160.8149 H   0  0  0  0  0  0  0  0  0  0  0  0
  151.0489  145.5302  159.9605 H   0  0  0  0  0  0  0  0  0  0  0  0
  150.0765  142.6383  156.0974 H   0  0  0  0  0  0  0  0  0  0  0  0
  1  2  1  0  0  0  0
  1 18  1  0  0  0  0
  1 19  1  0  0  0  0
  1 20  1  0  0  0  0
  2  3  1  0  0  0  0
  2 21  1  0  0  0  0
  3  4  2  0  0  0  0
  3  5  1  0  0  0  0
  5  6  1  0  0  0  0
  5 22  1  0  0  0  0
  5 23  1  0  0  0  0
  6 17  1  0  0  0  0
  6  7  2  0  0  0  0
  7  8  1  0  0  0  0
  8  9  1  0  0  0  0
  8 16  2  0  0  0  0
  9 14  1  0  0  0  0
  9 10  1  0  0  0  0
  9 24  1  0  0  0  0
 10 11  1  0  0  0  0
 10 25  1  0  0  0  0
 10 26  1  0  0  0  0
 11 15  1  0  0  0  0
 11 12  1  0  0  0  0
 11 27  1  0  0  0  0
 12 13  1  0  0  0  0
 12 28  1  0  0  0  0
 12 29  1  0  0  0  0
 13 14  1  0  0  0  0
 13 30  1  0  0  0  0
 13 31  1  0  0  0  0
 14 15  1  0  0  0  0
 14 32  1  0  0  0  0
 15 33  1  0  0  0  0
 15 34  1  0  0  0  0
 16 17  1  0  0  0  0
 16 35  1  0  0  0  0
M  END
> <s_m_source_file>
AV-unprocessed.smi

> <i_m_source_file_index>
3277

> <i_lp_mmshare_version>
43012

> <i_f3d_flags>
0

> <s_epik_input>
W0NIM11bTkhdQyg9TylbQ0gyXWMxbmMoW2NIXXMxKVtDQEhdKFtDSDJdW0NAQEhdMjMpW0NAQEhdKFtDSDJdMylbQ0gyXVtDSDJdMg==

> <s_epik_cmdline>
J2VwaWtfcHl0aG9uJywgJy1waCcsICc3LjAnLCAnLXRuJywgJzgnLCAnLW1hJywgJzIwMCcsICctbWV0YWxfYmluZGluZycsICctaW1hZScsICc8aW5maWxlLm1hZT4nLCAnLW9tYWUnLCAnPG91dGZpbGUubWFlPic=

> <r_lp_tautomer_probability>
1

> <r_epik_Ionization_Penalty>
8.50008e-05

> <r_epik_Ionization_Penalty_Charging>
0

> <r_epik_Ionization_Penalty_Neutral>
8.50008e-05

> <r_epik_State_Penalty>
-0

> <r_epik_Charging_Adjusted_Penalty>
0

> <i_epik_Tot_Q>
0

> <i_epik_Tot_abs_Q>
0

> <r_epik_Metal_State_Penalty>
-0

> <b_epik_Metal_Only>
0

> <s_lp_Force_Field>
OPLS_2005

> <r_lp_Energy>
45.709

> <b_lp_Chiralities_Consistent>
1

> <s_lp_Variant>
AV-unprocessed.smi:3277-2

> <Gold.Version>
5.8.1

> <Gold.Id.Protein>
6NUR|6NUR_protein|mol2

> <Gold.PLP.Fitness>
40.3603

> <Gold.PLP.PLP>
-35.3730

> <Gold.PLP.part.hbond>
-1.0000

> <Gold.PLP.part.metal>
0.0000

> <Gold.PLP.part.buried>
-2.8473

> <Gold.PLP.part.nonpolar>
-32.3391

> <Gold.PLP.part.repulsive>
0.5400

> <Gold.PLP.ligand.clash>
0.0000

> <Gold.PLP.ligand.torsion>
0.5096

> <Gold.PLP.Chemscore.Hbond>
1.0000

> <Gold.PLP.Chemscore.CHOScore>
1.0000

> <Gold.PLP.Chemscore.Metal>
0.0000

> <Gold.Chemscore.Hbonds>
donor molecule, donor type, donor heavy atom, donor atom, acceptor molecule, acceptor atom, score
      P1  H 10752 10763       L1     4  1.00
      L1  C    16    35       P1  8028  1.00

> <Gold.PLP.Chemscore.Internal.Correction>
0.0064

> <Gold.Rescore>
     Score         DG    S(hbond)    S(metal)    S(lipo)     H(rot)  DE(clash)    DE(int)     intcor
     18.28     -18.74       1.00        0.00     115.79       1.41       0.10       0.35       ----

> <Gold.Chemscore.Fitness>
18.2825

> <Gold.Chemscore.DG>
-18.7403

> <Gold.Chemscore.ZeroCoef>
-5.4800

> <Gold.Chemscore.Hbond>
0.9963

> <Gold.Chemscore.Metal>
0.0000

> <Gold.Chemscore.Lipo>
115.7921

> <Gold.Chemscore.Internal_Hbond>
0.0000

> <Gold.Chemscore.DEClash>
0.1048

> <Gold.Chemscore.DEInternal>
0.3529

> <Gold.Chemscore.Rot>
1.4122

> <Gold.Chemscore.Internal.Correction>
   9.000000E+99

> <Gold.Chemscore.Hbonds>
donor molecule, donor type, donor heavy atom, donor atom, acceptor molecule, acceptor atom, score
      P1  H 10752 10763       L1     4  0.94

> <Gold.Chemscore.Hbond.Weighted>
-3.3277

> <Gold.Chemscore.Metal.Weighted>
-0.0000

> <Gold.Chemscore.Lipo.Weighted>
-13.5477

> <Gold.Chemscore.Internal_Hbond.Weighted>
0.0000

> <Gold.Chemscore.DEClash.Weighted>
0.1048

> <Gold.Chemscore.DEInternal.Weighted>
0.3529

> <Gold.Chemscore.Rot.Weighted>
3.6151

> <Gold.Chemscore.Internal.Correction.Weighted>
   9.000000E+99

> <Gold.Protein.RotatedTorsions>
[ 6907 6896 6895 6894 ] final  133.26 input  -60.11 | X-H torsion
[ 7974 7965 7964 7962 ] final  -16.01 input  175.53 | X-H torsion
[ 8008 7997 7996 7995 ] final  -60.50 input   59.86 | X-H torsion
[ 10167 10162 10161 10158 ] final -114.25 input  -65.29 | X-H torsion
[ 10718 10713 10712 10709 ] final  112.64 input   66.30 | X-H torsion
[ 10763 10752 10751 10750 ] final   52.74 input  -60.55 | X-H torsion
[ 11005 11000 10999 10996 ] final   25.29 input  -57.11 | X-H torsion

> <Gold.Protein.ActiveResidues>
 VAL166  LYS551  ARG553  GLY616  TRP617  ASP618  TYR619  PRO620  LYS621  CYS622 
 ASP623  PHE694  ASN695  SER759  ASP760  ASP761  ALA762  ILE779  LEU786  VAL792 
 PHE793  MET794  SER795  GLU796  ALA797  LYS798  CYS799  TRP800  GLU811  SER814 

> <Gold.Protein.RotatedAtoms>
  152.3238  133.5882  159.5762 H   0  0  0  0  0  0  0  0  0  0  0  0  # atno 6907 bound_to 6896
  150.7385  133.9971  159.3635 H   0  0  0  0  0  0  0  0  0  0  0  0  # atno 6908 bound_to 6896
  151.7853  135.0751  160.0430 H   0  0  0  0  0  0  0  0  0  0  0  0  # atno 6909 bound_to 6896
  146.2007  140.3575  142.8424 H   0  0  0  0  0  0  0  0  0  0  0  0  # atno 7974 bound_to 7965
  154.4402  140.1038  156.6283 H   0  0  0  0  0  0  0  0  0  0  0  0  # atno 8008 bound_to 7997
  155.5632  140.3488  155.4478 H   0  0  0  0  0  0  0  0  0  0  0  0  # atno 8009 bound_to 7997
  156.0444  140.1289  157.0109 H   0  0  0  0  0  0  0  0  0  0  0  0  # atno 8010 bound_to 7997
  140.1030  143.4596  152.1800 H   0  0  0  0  0  0  0  0  0  0  0  0  # atno 10167 bound_to 10162
  157.6382  131.0971  150.6924 H   0  0  0  0  0  0  0  0  0  0  0  0  # atno 10718 bound_to 10713
  152.9790  135.5802  154.4628 H   0  0  0  0  0  0  0  0  0  0  0  0  # atno 10763 bound_to 10752
  154.4201  135.2771  155.1983 H   0  0  0  0  0  0  0  0  0  0  0  0  # atno 10764 bound_to 10752
  154.3735  135.6162  153.5806 H   0  0  0  0  0  0  0  0  0  0  0  0  # atno 10765 bound_to 10752
  140.3494  134.2246  155.7681 H   0  0  0  0  0  0  0  0  0  0  0  0  # atno 11005 bound_to 11000
  144.8676  140.7228  143.6067 LP  0  0  0  0  0  0  0  0  0  0  0  0  # atno 17320 bound_to 7965
  145.3494  139.1710  143.4442 LP  0  0  0  0  0  0  0  0  0  0  0  0  # atno 17321 bound_to 7965
  139.5661  144.7435  151.4020 LP  0  0  0  0  0  0  0  0  0  0  0  0  # atno 17342 bound_to 10162
  140.6967  143.7731  150.7338 LP  0  0  0  0  0  0  0  0  0  0  0  0  # atno 17343 bound_to 10162
  156.7252  130.4693  149.5513 LP  0  0  0  0  0  0  0  0  0  0  0  0  # atno 17370 bound_to 10713
  156.1639  130.6392  151.0753 LP  0  0  0  0  0  0  0  0  0  0  0  0  # atno 17371 bound_to 10713
  141.2016  133.7958  157.0431 LP  0  0  0  0  0  0  0  0  0  0  0  0  # atno 17394 bound_to 11000
  140.0716  134.9699  157.1476 LP  0  0  0  0  0  0  0  0  0  0  0  0  # atno 17395 bound_to 11000

$$$$
