AV-unprocessed.smi:2416|AV-procd|sdf|9547|dock9
  -GOLD-   2272013183D 1   1.00000     0.00000
 Structure written by MMmdl.
 40 41  0  0  0  0  0  0  0  0  1 V2000
  150.5880  141.0813  155.6066 C   0  0  0  0  0  0  0  0  0  0  0  0
  151.2140  139.9857  154.9515 O   0  0  0  0  0  0  0  0  0  0  0  0
  151.1860  138.7356  155.6425 C   0  0  2  0  0  0  0  0  0  0  0  0
  151.9389  138.8559  156.9768 C   0  0  0  0  0  0  0  0  0  0  0  0
  151.5388  137.5559  154.7185 C   0  0  0  0  0  0  0  0  0  0  0  0
  150.3744  136.8117  155.3683 C   0  0  2  0  0  0  0  0  0  0  0  0
  149.6513  135.9670  154.4236 N   0  0  0  0  0  0  0  0  0  0  0  0
  149.3012  134.6953  154.6601 C   0  0  0  0  0  0  0  0  0  0  0  0
  149.5615  134.1053  155.7091 O   0  0  0  0  0  0  0  0  0  0  0  0
  148.6396  134.1697  153.6139 N   0  0  0  0  0  0  0  0  0  0  0  0
  148.0896  132.8660  153.4873 C   0  0  0  0  0  0  0  0  0  0  0  0
  147.0431  132.7474  152.5447 C   0  0  0  0  0  0  0  0  0  0  0  0
  146.4271  131.4961  152.3459 C   0  0  0  0  0  0  0  0  0  0  0  0
  146.8751  130.3957  153.0979 C   0  0  0  0  0  0  0  0  0  0  0  0
  146.3125  129.1737  152.9430 F   0  0  0  0  0  0  0  0  0  0  0  0
  147.9227  130.5975  154.0152 C   0  0  0  0  0  0  0  0  0  0  0  0
  148.5140  131.7962  154.2062 N   0  0  0  0  0  0  0  0  0  0  0  0
  149.7206  138.1896  155.6476 C   0  0  0  0  0  0  0  0  0  0  0  0
  148.9459  138.3055  156.9644 C   0  0  0  0  0  0  0  0  0  0  0  0
  148.7838  138.7485  154.5575 C   0  0  0  0  0  0  0  0  0  0  0  0
  150.7754  141.9910  155.0364 H   0  0  0  0  0  0  0  0  0  0  0  0
  150.9803  141.2361  156.6118 H   0  0  0  0  0  0  0  0  0  0  0  0
  149.5075  140.9545  155.6672 H   0  0  0  0  0  0  0  0  0  0  0  0
  151.8187  137.9652  157.5929 H   0  0  0  0  0  0  0  0  0  0  0  0
  151.5808  139.7058  157.5580 H   0  0  0  0  0  0  0  0  0  0  0  0
  153.0109  138.9829  156.8290 H   0  0  0  0  0  0  0  0  0  0  0  0
  151.3871  137.7688  153.6584 H   0  0  0  0  0  0  0  0  0  0  0  0
  152.5173  137.1102  154.8993 H   0  0  0  0  0  0  0  0  0  0  0  0
  150.6838  136.2923  156.2781 H   0  0  0  0  0  0  0  0  0  0  0  0
  149.3998  136.3809  153.5379 H   0  0  0  0  0  0  0  0  0  0  0  0
  148.5083  134.7755  152.8174 H   0  0  0  0  0  0  0  0  0  0  0  0
  146.7119  133.6046  151.9766 H   0  0  0  0  0  0  0  0  0  0  0  0
  145.6259  131.3844  151.6304 H   0  0  0  0  0  0  0  0  0  0  0  0
  148.2957  129.7777  154.6114 H   0  0  0  0  0  0  0  0  0  0  0  0
  147.9636  137.8374  156.8950 H   0  0  0  0  0  0  0  0  0  0  0  0
  148.7951  139.3478  157.2470 H   0  0  0  0  0  0  0  0  0  0  0  0
  149.4648  137.8169  157.7889 H   0  0  0  0  0  0  0  0  0  0  0  0
  147.8491  138.1895  154.5035 H   0  0  0  0  0  0  0  0  0  0  0  0
  149.2343  138.7124  153.5656 H   0  0  0  0  0  0  0  0  0  0  0  0
  148.5244  139.7897  154.7515 H   0  0  0  0  0  0  0  0  0  0  0  0
  1  2  1  0  0  0  0
  1 21  1  0  0  0  0
  1 22  1  0  0  0  0
  1 23  1  0  0  0  0
  2  3  1  0  0  0  0
  3 18  1  0  0  0  0
  3  4  1  0  0  0  0
  3  5  1  0  0  0  0
  4 24  1  0  0  0  0
  4 25  1  0  0  0  0
  4 26  1  0  0  0  0
  5  6  1  0  0  0  0
  5 27  1  0  0  0  0
  5 28  1  0  0  0  0
  6  7  1  0  0  0  0
  6 18  1  0  0  0  0
  6 29  1  0  0  0  0
  7  8  1  0  0  0  0
  7 30  1  0  0  0  0
  8  9  2  0  0  0  0
  8 10  1  0  0  0  0
 10 11  1  0  0  0  0
 10 31  1  0  0  0  0
 11 17  1  0  0  0  0
 11 12  2  0  0  0  0
 12 13  1  0  0  0  0
 12 32  1  0  0  0  0
 13 14  2  0  0  0  0
 13 33  1  0  0  0  0
 14 15  1  0  0  0  0
 14 16  1  0  0  0  0
 16 17  2  0  0  0  0
 16 34  1  0  0  0  0
 18 19  1  0  0  0  0
 18 20  1  0  0  0  0
 19 35  1  0  0  0  0
 19 36  1  0  0  0  0
 19 37  1  0  0  0  0
 20 38  1  0  0  0  0
 20 39  1  0  0  0  0
 20 40  1  0  0  0  0
M  END
> <s_m_source_file>
AV-unprocessed.smi

> <i_m_source_file_index>
2416

> <i_lp_mmshare_version>
43012

> <i_f3d_flags>
0

> <s_epik_input>
W0NIM11PW0NAQF0xKFtDSDNdKVtDSDJdW0NASF0oQzEoW0NIM10pW0NIM10pW05IXUMoPU8pW05IXWMyW2NIXVtjSF1jKEYpW2NIXW4y

> <s_epik_cmdline>
J2VwaWtfcHl0aG9uJywgJy1waCcsICc3LjAnLCAnLXRuJywgJzgnLCAnLW1hJywgJzIwMCcsICctbWV0YWxfYmluZGluZycsICctaW1hZScsICc8aW5maWxlLm1hZT4nLCAnLW9tYWUnLCAnPG91dGZpbGUubWFlPic=

> <r_lp_tautomer_probability>
1

> <r_epik_Ionization_Penalty>
3.67756e-05

> <r_epik_Ionization_Penalty_Charging>
0

> <r_epik_Ionization_Penalty_Neutral>
3.67756e-05

> <r_epik_State_Penalty>
-0

> <r_epik_Charging_Adjusted_Penalty>
0

> <i_epik_Tot_Q>
0

> <i_epik_Tot_abs_Q>
0

> <r_epik_Metal_State_Penalty>
-0

> <b_epik_Metal_Only>
0

> <s_lp_Force_Field>
OPLS_2005

> <r_lp_Energy>
27.0586

> <b_lp_Chiralities_Consistent>
1

> <s_lp_Variant>
AV-unprocessed.smi:2416-4

> <Gold.Version>
5.8.1

> <Gold.Id.Protein>
6NUR|6NUR_protein|mol2

> <Gold.PLP.Fitness>
38.1015

> <Gold.PLP.PLP>
-29.4412

> <Gold.PLP.part.hbond>
-3.3609

> <Gold.PLP.part.metal>
0.0000

> <Gold.PLP.part.buried>
-2.5515

> <Gold.PLP.part.nonpolar>
-24.0129

> <Gold.PLP.part.repulsive>
0.1895

> <Gold.PLP.ligand.clash>
0.0000

> <Gold.PLP.ligand.torsion>
0.3061

> <Gold.PLP.Chemscore.Hbond>
2.9680

> <Gold.PLP.Chemscore.CHOScore>
0.0000

> <Gold.PLP.Chemscore.Metal>
0.0000

> <Gold.Chemscore.Hbonds>
donor molecule, donor type, donor heavy atom, donor atom, acceptor molecule, acceptor atom, score
      L1  H     7    30       P1  7948  1.00
      L1  H    10    31       P1  7948  1.00
      P1  H  7989  7998       L1     2  0.80

> <Gold.PLP.Chemscore.Internal.Correction>
0.3685

> <Gold.Rescore>
     Score         DG    S(hbond)    S(metal)    S(lipo)     H(rot)  DE(clash)    DE(int)     intcor
     15.54     -17.09       2.50        0.00      55.51       1.27       0.02       1.53       ----

> <Gold.Chemscore.Fitness>
15.5412

> <Gold.Chemscore.DG>
-17.0898

> <Gold.Chemscore.ZeroCoef>
-5.4800

> <Gold.Chemscore.Hbond>
2.5014

> <Gold.Chemscore.Metal>
0.0000

> <Gold.Chemscore.Lipo>
55.5075

> <Gold.Chemscore.Internal_Hbond>
0.0000

> <Gold.Chemscore.DEClash>
0.0234

> <Gold.Chemscore.DEInternal>
1.5251

> <Gold.Chemscore.Rot>
1.2653

> <Gold.Chemscore.Internal.Correction>
   9.000000E+99

> <Gold.Chemscore.Hbonds>
donor molecule, donor type, donor heavy atom, donor atom, acceptor molecule, acceptor atom, score
      L1  H     7    30       P1  7948  0.74
      L1  H    10    31       P1  7948  0.33
      P1  H  7989  7998       L1     2  0.12

> <Gold.Chemscore.Hbond.Weighted>
-8.3546

> <Gold.Chemscore.Metal.Weighted>
-0.0000

> <Gold.Chemscore.Lipo.Weighted>
-6.4944

> <Gold.Chemscore.Internal_Hbond.Weighted>
0.0000

> <Gold.Chemscore.DEClash.Weighted>
0.0234

> <Gold.Chemscore.DEInternal.Weighted>
1.5251

> <Gold.Chemscore.Rot.Weighted>
3.2392

> <Gold.Chemscore.Internal.Correction.Weighted>
   9.000000E+99

> <Gold.Protein.RotatedTorsions>
[ 6907 6896 6895 6894 ] final  112.49 input  -60.11 | X-H torsion
[ 7974 7965 7964 7962 ] final  146.81 input  175.53 | X-H torsion
[ 8008 7997 7996 7995 ] final  126.21 input   59.86 | X-H torsion
[ 10167 10162 10161 10158 ] final   -5.27 input  -65.29 | X-H torsion
[ 10718 10713 10712 10709 ] final  -25.99 input   66.30 | X-H torsion
[ 10763 10752 10751 10750 ] final -135.50 input  -60.55 | X-H torsion
[ 11005 11000 10999 10996 ] final    6.99 input  -57.11 | X-H torsion

> <Gold.Protein.ActiveResidues>
 VAL166  LYS551  ARG553  GLY616  TRP617  ASP618  TYR619  PRO620  LYS621  CYS622 
 ASP623  PHE694  ASN695  SER759  ASP760  ASP761  ALA762  ILE779  LEU786  VAL792 
 PHE793  MET794  SER795  GLU796  ALA797  LYS798  CYS799  TRP800  GLU811  SER814 

> <Gold.Protein.RotatedAtoms>
  152.4913  133.8508  159.7200 H   0  0  0  0  0  0  0  0  0  0  0  0  # atno 6907 bound_to 6896
  150.9046  133.7066  159.2877 H   0  0  0  0  0  0  0  0  0  0  0  0  # atno 6908 bound_to 6896
  151.4496  135.1032  159.9746 H   0  0  0  0  0  0  0  0  0  0  0  0  # atno 6909 bound_to 6896
  144.8641  139.5951  143.5917 H   0  0  0  0  0  0  0  0  0  0  0  0  # atno 7974 bound_to 7965
  156.2857  140.2698  156.2074 H   0  0  0  0  0  0  0  0  0  0  0  0  # atno 8008 bound_to 7997
  155.0299  140.0386  157.2488 H   0  0  0  0  0  0  0  0  0  0  0  0  # atno 8009 bound_to 7997
  154.7364  140.2716  155.6417 H   0  0  0  0  0  0  0  0  0  0  0  0  # atno 8010 bound_to 7997
  140.6957  143.6328  150.8507 H   0  0  0  0  0  0  0  0  0  0  0  0  # atno 10167 bound_to 10162
  156.4570  130.4496  149.6953 H   0  0  0  0  0  0  0  0  0  0  0  0  # atno 10718 bound_to 10713
  154.8701  135.3701  154.4909 H   0  0  0  0  0  0  0  0  0  0  0  0  # atno 10763 bound_to 10752
  153.5556  135.7024  153.5576 H   0  0  0  0  0  0  0  0  0  0  0  0  # atno 10764 bound_to 10752
  153.3675  135.4030  155.1728 H   0  0  0  0  0  0  0  0  0  0  0  0  # atno 10765 bound_to 10752
  140.5532  134.0263  155.7944 H   0  0  0  0  0  0  0  0  0  0  0  0  # atno 11005 bound_to 11000
  146.2883  139.7065  142.9180 LP  0  0  0  0  0  0  0  0  0  0  0  0  # atno 17320 bound_to 7965
  145.4255  141.0410  143.2940 LP  0  0  0  0  0  0  0  0  0  0  0  0  # atno 17321 bound_to 7965
  140.0045  143.5708  152.2863 LP  0  0  0  0  0  0  0  0  0  0  0  0  # atno 17342 bound_to 10162
  139.6410  144.7654  151.2340 LP  0  0  0  0  0  0  0  0  0  0  0  0  # atno 17343 bound_to 10162
  156.3756  130.7553  151.2540 LP  0  0  0  0  0  0  0  0  0  0  0  0  # atno 17370 bound_to 10713
  157.7500  131.0310  150.4164 LP  0  0  0  0  0  0  0  0  0  0  0  0  # atno 17371 bound_to 10713
  141.1159  133.9541  157.2823 LP  0  0  0  0  0  0  0  0  0  0  0  0  # atno 17394 bound_to 11000
  139.9444  135.0186  156.8809 LP  0  0  0  0  0  0  0  0  0  0  0  0  # atno 17395 bound_to 11000

$$$$
