AV-unprocessed.smi:158|AV-procd|sdf|1324|dock1
  -GOLD-   2262019 13D 1   1.00000     0.00000
 Structure written by MMmdl.
 31 33  0  0  0  0  0  0  0  0  1 V2000
  144.4676  143.3652  153.3466 N   0  0  0  0  0  0  0  0  0  0  0  0
  145.1201  142.8047  154.3748 C   0  0  0  0  0  0  0  0  0  0  0  0
  144.6535  143.0179  155.6271 N   0  0  0  0  0  0  0  0  0  0  0  0
  145.2757  142.4761  156.6814 C   0  0  0  0  0  0  0  0  0  0  0  0
  144.5973  142.8122  158.2303 Cl  0  0  0  0  0  0  0  0  0  0  0  0
  146.3647  141.7004  156.6694 N   0  0  0  0  0  0  0  0  0  0  0  0
  146.8391  141.4828  155.4089 C   0  0  0  0  0  0  0  0  0  0  0  0
  146.2742  141.9997  154.2124 C   0  0  0  0  0  0  0  0  0  0  0  0
  147.0153  141.5773  153.1176 N   0  0  0  0  0  0  0  0  0  0  0  0
  147.9653  140.8511  153.6438 C   0  0  0  0  0  0  0  0  0  0  0  0
  147.9312  140.7348  155.0164 N   0  0  0  0  0  0  0  0  0  0  0  0
  148.8850  139.9838  155.8901 C   0  0  1  0  0  0  0  0  0  0  0  0
  148.9763  138.6681  155.4313 O   0  0  0  0  0  0  0  0  0  0  0  0
  150.3187  138.3542  155.0620 C   0  0  2  0  0  0  0  0  0  0  0  0
  150.6232  136.8872  155.4032 C   0  0  0  0  0  0  0  0  0  0  0  0
  151.8325  136.4867  154.7955 O   0  0  0  0  0  0  0  0  0  0  0  0
  151.1581  139.3504  155.8678 C   0  0  1  0  0  0  0  0  0  0  0  0
  152.4070  139.5959  155.2533 O   0  0  0  0  0  0  0  0  0  0  0  0
  150.2890  140.5922  155.8461 C   0  0  2  0  0  0  0  0  0  0  0  0
  150.4902  141.3577  156.9192 F   0  0  0  0  0  0  0  0  0  0  0  0
  148.4366  139.9942  156.8846 H   0  0  0  0  0  0  0  0  0  0  0  0
  150.4517  138.5421  153.9954 H   0  0  0  0  0  0  0  0  0  0  0  0
  151.2953  138.9991  156.8917 H   0  0  0  0  0  0  0  0  0  0  0  0
  150.4349  141.1871  154.9436 H   0  0  0  0  0  0  0  0  0  0  0  0
  144.7971  143.2198  152.4030 H   0  0  0  0  0  0  0  0  0  0  0  0
  143.6502  143.9330  153.5169 H   0  0  0  0  0  0  0  0  0  0  0  0
  148.7224  140.3739  153.0385 H   0  0  0  0  0  0  0  0  0  0  0  0
  150.7465  136.7709  156.4805 H   0  0  0  0  0  0  0  0  0  0  0  0
  149.8075  136.2311  155.0983 H   0  0  0  0  0  0  0  0  0  0  0  0
  151.6710  136.3320  153.8775 H   0  0  0  0  0  0  0  0  0  0  0  0
  152.7322  138.7827  154.8976 H   0  0  0  0  0  0  0  0  0  0  0  0
  1  2  1  0  0  0  0
  1 25  1  0  0  0  0
  1 26  1  0  0  0  0
  2  8  1  0  0  0  0
  2  3  2  0  0  0  0
  3  4  1  0  0  0  0
  4  5  1  0  0  0  0
  4  6  2  0  0  0  0
  6  7  1  0  0  0  0
  7 11  1  0  0  0  0
  7  8  2  0  0  0  0
  8  9  1  0  0  0  0
  9 10  2  0  0  0  0
 10 11  1  0  0  0  0
 10 27  1  0  0  0  0
 11 12  1  0  0  0  0
 12 21  1  0  0  0  0
 12 19  1  0  0  0  0
 12 13  1  0  0  0  0
 13 14  1  0  0  0  0
 14 22  1  0  0  0  0
 14 15  1  0  0  0  0
 14 17  1  0  0  0  0
 15 16  1  0  0  0  0
 15 28  1  0  0  0  0
 15 29  1  0  0  0  0
 16 30  1  0  0  0  0
 17 23  1  0  0  0  0
 17 18  1  0  0  0  0
 17 19  1  0  0  0  0
 18 31  1  0  0  0  0
 19 24  1  0  0  0  0
 19 20  1  0  0  0  0
M  END
> <s_m_source_file>
AV-unprocessed.smi

> <i_m_source_file_index>
158

> <i_lp_mmshare_version>
43012

> <i_f3d_flags>
0

> <s_epik_input>
Q2xjKG4xKW5jKFtOSDJdKWMoYzEyKW5bY0hdbjJbQ0BASF0zT1tDQEhdKFtDSDJdW09IXSlbQ0BASF0oW09IXSlbQ0BASF0zRg==

> <s_epik_cmdline>
J2VwaWtfcHl0aG9uJywgJy1waCcsICc3LjAnLCAnLXRuJywgJzgnLCAnLW1hJywgJzIwMCcsICctbWV0YWxfYmluZGluZycsICctaW1hZScsICc8aW5maWxlLm1hZT4nLCAnLW9tYWUnLCAnPG91dGZpbGUubWFlPic=

> <r_lp_tautomer_probability>
1

> <r_epik_Ionization_Penalty>
6.51543e-05

> <r_epik_Ionization_Penalty_Charging>
0

> <r_epik_Ionization_Penalty_Neutral>
6.51543e-05

> <r_epik_State_Penalty>
-0

> <r_epik_Charging_Adjusted_Penalty>
0

> <i_epik_Tot_Q>
0

> <i_epik_Tot_abs_Q>
0

> <r_epik_Metal_State_Penalty>
-0

> <b_epik_Metal_Only>
0

> <s_epik_Chemistry_Notes>
This compound contains an acetal/aminal-like group ( X-CH(R)-Y where X, Y are N, S, or O) that may be acid/base labile, releasing an aldehyde.

> <s_lp_Force_Field>
OPLS_2005

> <r_lp_Energy>
33.0982

> <b_lp_Chiralities_Consistent>
1

> <s_lp_Variant>
AV-unprocessed.smi:158-2

> <Gold.Version>
5.8.1

> <Gold.Id.Protein>
6NUR|6NUR_protein|mol2

> <Gold.PLP.Fitness>
42.0361

> <Gold.PLP.PLP>
-29.8407

> <Gold.PLP.part.hbond>
-3.8257

> <Gold.PLP.part.metal>
0.0000

> <Gold.PLP.part.buried>
-4.4892

> <Gold.PLP.part.nonpolar>
-23.0617

> <Gold.PLP.part.repulsive>
0.5040

> <Gold.PLP.ligand.clash>
0.0000

> <Gold.PLP.ligand.torsion>
0.1909

> <Gold.PLP.Chemscore.Hbond>
3.1895

> <Gold.PLP.Chemscore.CHOScore>
1.0000

> <Gold.PLP.Chemscore.Metal>
0.0000

> <Gold.Chemscore.Hbonds>
donor molecule, donor type, donor heavy atom, donor atom, acceptor molecule, acceptor atom, score
      P1  H  7989  7998       L1    18  0.26
      P1  H  7997  8010       L1    18  0.29
      L1  C    10    27       P1  7957  1.00

> <Gold.PLP.Chemscore.Internal.Correction>
0.0088

> <Gold.Rescore>
     Score         DG    S(hbond)    S(metal)    S(lipo)     H(rot)  DE(clash)    DE(int)     intcor
      8.37      -8.65       2.10        0.00      35.53       3.12       0.13       0.16       ----

> <Gold.Chemscore.Fitness>
8.3660

> <Gold.Chemscore.DG>
-8.6523

> <Gold.Chemscore.ZeroCoef>
-5.4800

> <Gold.Chemscore.Hbond>
2.0990

> <Gold.Chemscore.Metal>
0.0000

> <Gold.Chemscore.Lipo>
35.5280

> <Gold.Chemscore.Internal_Hbond>
0.0000

> <Gold.Chemscore.DEClash>
0.1282

> <Gold.Chemscore.DEInternal>
0.1581

> <Gold.Chemscore.Rot>
3.1230

> <Gold.Chemscore.Internal.Correction>
   9.000000E+99

> <Gold.Chemscore.Hbonds>
donor molecule, donor type, donor heavy atom, donor atom, acceptor molecule, acceptor atom, score
      L1  H    16    30       P1  7949  0.03
      P1  H  7989  7998       L1    18  0.03
      P1  H  7997  8010       L1    18  0.02

> <Gold.Chemscore.Hbond.Weighted>
-7.0105

> <Gold.Chemscore.Metal.Weighted>
-0.0000

> <Gold.Chemscore.Lipo.Weighted>
-4.1568

> <Gold.Chemscore.Internal_Hbond.Weighted>
0.0000

> <Gold.Chemscore.DEClash.Weighted>
0.1282

> <Gold.Chemscore.DEInternal.Weighted>
0.1581

> <Gold.Chemscore.Rot.Weighted>
7.9950

> <Gold.Chemscore.Internal.Correction.Weighted>
   9.000000E+99

> <Gold.Protein.RotatedTorsions>
[ 6907 6896 6895 6894 ] final  178.04 input  -60.11 | X-H torsion
[ 7974 7965 7964 7962 ] final  144.23 input  175.53 | X-H torsion
[ 8008 7997 7996 7995 ] final  104.81 input   59.86 | X-H torsion
[ 10167 10162 10161 10158 ] final -128.58 input  -65.29 | X-H torsion
[ 10718 10713 10712 10709 ] final  -89.40 input   66.30 | X-H torsion
[ 10763 10752 10751 10750 ] final   37.24 input  -60.55 | X-H torsion
[ 11005 11000 10999 10996 ] final    0.77 input  -57.11 | X-H torsion

> <Gold.Protein.ActiveResidues>
 VAL166  LYS551  ARG553  GLY616  TRP617  ASP618  TYR619  PRO620  LYS621  CYS622 
 ASP623  PHE694  ASN695  SER759  ASP760  ASP761  ALA762  ILE779  LEU786  VAL792 
 PHE793  MET794  SER795  GLU796  ALA797  LYS798  CYS799  TRP800  GLU811  SER814 

> <Gold.Protein.RotatedAtoms>
  151.6943  133.3311  159.3250 H   0  0  0  0  0  0  0  0  0  0  0  0  # atno 6907 bound_to 6896
  150.7765  134.6671  159.6381 H   0  0  0  0  0  0  0  0  0  0  0  0  # atno 6908 bound_to 6896
  152.3808  134.6596  160.0195 H   0  0  0  0  0  0  0  0  0  0  0  0  # atno 6909 bound_to 6896
  144.8853  139.5637  143.5823 H   0  0  0  0  0  0  0  0  0  0  0  0  # atno 7974 bound_to 7965
  156.1605  140.3141  155.8799 H   0  0  0  0  0  0  0  0  0  0  0  0  # atno 8008 bound_to 7997
  155.3792  140.0486  157.3061 H   0  0  0  0  0  0  0  0  0  0  0  0  # atno 8009 bound_to 7997
  154.5142  140.2175  155.9109 H   0  0  0  0  0  0  0  0  0  0  0  0  # atno 8010 bound_to 7997
  139.9488  143.6080  152.2482 H   0  0  0  0  0  0  0  0  0  0  0  0  # atno 10167 bound_to 10162
  155.9984  130.4871  150.5166 H   0  0  0  0  0  0  0  0  0  0  0  0  # atno 10718 bound_to 10713
  153.0045  135.6283  154.2113 H   0  0  0  0  0  0  0  0  0  0  0  0  # atno 10763 bound_to 10752
  154.1856  135.2811  155.3040 H   0  0  0  0  0  0  0  0  0  0  0  0  # atno 10764 bound_to 10752
  154.5800  135.5650  153.7235 H   0  0  0  0  0  0  0  0  0  0  0  0  # atno 10765 bound_to 10752
  140.6229  133.9645  155.8234 H   0  0  0  0  0  0  0  0  0  0  0  0  # atno 11005 bound_to 11000
  146.3021  139.7459  142.9084 LP  0  0  0  0  0  0  0  0  0  0  0  0  # atno 17320 bound_to 7965
  145.3879  141.0368  143.3140 LP  0  0  0  0  0  0  0  0  0  0  0  0  # atno 17321 bound_to 7965
  139.6645  144.7662  151.1899 LP  0  0  0  0  0  0  0  0  0  0  0  0  # atno 17342 bound_to 10162
  140.7589  143.5958  150.8749 LP  0  0  0  0  0  0  0  0  0  0  0  0  # atno 17343 bound_to 10162
  157.3132  131.0668  151.1985 LP  0  0  0  0  0  0  0  0  0  0  0  0  # atno 17370 bound_to 10713
  157.2924  130.6803  149.6121 LP  0  0  0  0  0  0  0  0  0  0  0  0  # atno 17371 bound_to 10713
  141.0730  134.0177  157.3499 LP  0  0  0  0  0  0  0  0  0  0  0  0  # atno 17394 bound_to 11000
  139.9146  135.0195  156.7831 LP  0  0  0  0  0  0  0  0  0  0  0  0  # atno 17395 bound_to 11000

$$$$
