AV-unprocessed.smi:500|AV-procd|sdf|2741|dock1
  -GOLD-   2262023203D 1   1.00000     0.00000
 Structure written by MMmdl.
 45 47  0  0  0  0  0  0  0  0  3 V2000
  154.3830  135.8808  159.1814 C   0  0  0  0  0  0  0  0  0  0  0  0
  154.8298  137.2961  159.5725 C   0  0  0  0  0  0  0  0  0  0  0  0
  154.4607  138.2601  158.5964 O   0  0  0  0  0  0  0  0  0  0  0  0
  153.0676  138.3120  158.3217 C   0  0  0  0  0  0  0  0  0  0  0  0
  152.3481  139.0807  159.4394 C   0  0  0  0  0  0  0  0  0  0  0  0
  151.3582  140.0421  158.9092 N   0  0  0  0  0  0  0  0  0  0  0  0
  150.1205  139.8526  158.3474 C   0  0  0  0  0  0  0  0  0  0  0  0
  149.3892  138.5583  158.0945 C   0  0  1  0  0  0  0  0  0  0  0  0
  150.2563  137.6124  157.2525 C   0  0  0  0  0  0  0  0  0  0  0  0
  149.0233  137.8898  159.3445 N   0  5  0  0  0  0  0  0  0  0  0  0
  148.7031  136.5672  159.4386 C   0  0  0  0  0  0  0  0  0  0  0  0
  149.0114  135.6267  158.6986 O   0  0  0  0  0  0  0  0  0  0  0  0
  147.8234  136.2883  160.5968 C   0  0  0  0  0  0  0  0  0  0  0  0
  147.3158  135.1190  161.1045 C   0  0  0  0  0  0  0  0  0  0  0  0
  146.5128  135.4709  162.2244 C   0  0  0  0  0  0  0  0  0  0  0  0
  146.5787  136.8308  162.3194 C   0  0  0  0  0  0  0  0  0  0  0  0
  147.3668  137.3426  161.3356 O   0  0  0  0  0  0  0  0  0  0  0  0
  149.6382  141.0871  158.0246 N   0  3  0  0  0  0  0  0  0  0  0  0
  150.5672  142.0694  158.3589 C   0  0  0  0  0  0  0  0  0  0  0  0
  150.5216  143.4516  158.2075 C   0  0  0  0  0  0  0  0  0  0  0  0
  151.6511  144.1732  158.6446 C   0  0  0  0  0  0  0  0  0  0  0  0
  152.7674  143.5188  159.2041 C   0  0  0  0  0  0  0  0  0  0  0  0
  152.8000  142.1166  159.3530 C   0  0  0  0  0  0  0  0  0  0  0  0
  151.6771  141.4082  158.9224 C   0  0  0  0  0  0  0  0  0  0  0  0
  154.5892  135.1760  159.9872 H   0  0  0  0  0  0  0  0  0  0  0  0
  154.9048  135.5220  158.2945 H   0  0  0  0  0  0  0  0  0  0  0  0
  153.3120  135.8508  158.9791 H   0  0  0  0  0  0  0  0  0  0  0  0
  154.3409  137.5745  160.5061 H   0  0  0  0  0  0  0  0  0  0  0  0
  155.9030  137.3296  159.7658 H   0  0  0  0  0  0  0  0  0  0  0  0
  152.8902  138.8077  157.3668 H   0  0  0  0  0  0  0  0  0  0  0  0
  152.6551  137.3063  158.2453 H   0  0  0  0  0  0  0  0  0  0  0  0
  151.8292  138.3860  160.1002 H   0  0  0  0  0  0  0  0  0  0  0  0
  153.0639  139.6062  160.0705 H   0  0  0  0  0  0  0  0  0  0  0  0
  148.5002  138.7891  157.5067 H   0  0  0  0  0  0  0  0  0  0  0  0
  150.5221  138.0729  156.3004 H   0  0  0  0  0  0  0  0  0  0  0  0
  149.7267  136.6852  157.0308 H   0  0  0  0  0  0  0  0  0  0  0  0
  151.1830  137.3519  157.7656 H   0  0  0  0  0  0  0  0  0  0  0  0
  147.5009  134.1281  160.7164 H   0  0  0  0  0  0  0  0  0  0  0  0
  145.9564  134.8129  162.8751 H   0  0  0  0  0  0  0  0  0  0  0  0
  146.1470  137.5586  162.9903 H   0  0  0  0  0  0  0  0  0  0  0  0
  149.6686  143.9518  157.7731 H   0  0  0  0  0  0  0  0  0  0  0  0
  151.6628  145.2489  158.5450 H   0  0  0  0  0  0  0  0  0  0  0  0
  153.6180  144.1032  159.5232 H   0  0  0  0  0  0  0  0  0  0  0  0
  153.6662  141.6289  159.7745 H   0  0  0  0  0  0  0  0  0  0  0  0
  148.7398  141.2290  157.5814 H   0  0  0  0  0  0  0  0  0  0  0  0
  1  2  1  0  0  0  0
  1 25  1  0  0  0  0
  1 26  1  0  0  0  0
  1 27  1  0  0  0  0
  2  3  1  0  0  0  0
  2 28  1  0  0  0  0
  2 29  1  0  0  0  0
  3  4  1  0  0  0  0
  4  5  1  0  0  0  0
  4 30  1  0  0  0  0
  4 31  1  0  0  0  0
  5  6  1  0  0  0  0
  5 32  1  0  0  0  0
  5 33  1  0  0  0  0
  6 24  1  0  0  0  0
  6  7  1  0  0  0  0
  7  8  1  0  0  0  0
  7 18  2  0  0  0  0
  8  9  1  0  0  0  0
  8 10  1  0  0  0  0
  8 34  1  0  0  0  0
  9 35  1  0  0  0  0
  9 36  1  0  0  0  0
  9 37  1  0  0  0  0
 10 11  1  0  0  0  0
 11 12  2  0  0  0  0
 11 13  1  0  0  0  0
 13 17  1  0  0  0  0
 13 14  2  0  0  0  0
 14 15  1  0  0  0  0
 14 38  1  0  0  0  0
 15 16  2  0  0  0  0
 15 39  1  0  0  0  0
 16 17  1  0  0  0  0
 16 40  1  0  0  0  0
 18 19  1  0  0  0  0
 18 45  1  0  0  0  0
 19 24  2  0  0  0  0
 19 20  1  0  0  0  0
 20 21  2  0  0  0  0
 20 41  1  0  0  0  0
 21 22  1  0  0  0  0
 21 42  1  0  0  0  0
 22 23  2  0  0  0  0
 22 43  1  0  0  0  0
 23 24  1  0  0  0  0
 23 44  1  0  0  0  0
M  CHG  1  10  -1
M  CHG  1  18   1
M  END
> <s_m_source_file>
AV-unprocessed.smi

> <i_m_source_file_index>
500

> <i_lp_mmshare_version>
43012

> <i_f3d_flags>
0

> <s_epik_input>
W0NIM11bQ0gyXU9bQ0gyXVtDSDJdbihjKGMxMilbY0hdW2NIXVtjSF1bY0hdMiljKG4xKVtDQEhdKFtDSDNdKVtOSF1DKD1PKWMzW2NIXVtjSF1bY0hdbzM=

> <s_epik_cmdline>
J2VwaWtfcHl0aG9uJywgJy1waCcsICc3LjAnLCAnLXRuJywgJzgnLCAnLW1hJywgJzIwMCcsICctbWV0YWxfYmluZGluZycsICctaW1hZScsICc8aW5maWxlLm1hZT4nLCAnLW9tYWUnLCAnPG91dGZpbGUubWFlPic=

> <r_epik_Ionization_Penalty>
6.22753

> <r_epik_Ionization_Penalty_Charging>
6.22753

> <r_epik_Ionization_Penalty_Neutral>
2.56065e-12

> <r_epik_State_Penalty>
7.17947

> <r_epik_Charging_Adjusted_Penalty>
13.407

> <i_epik_Tot_Q>
0

> <i_epik_Tot_abs_Q>
2

> <r_epik_Metal_State_Penalty>
3.2092

> <b_epik_Metal_Only>
1

> <s_lp_Force_Field>
OPLS_2005

> <r_lp_Energy>
10.9404

> <b_lp_Chiralities_Consistent>
1

> <s_lp_Variant>
AV-unprocessed.smi:500-8

> <Gold.Version>
5.8.1

> <Gold.Id.Protein>
6NUR|6NUR_protein|mol2

> <Gold.PLP.Fitness>
53.3227

> <Gold.PLP.PLP>
-43.9666

> <Gold.PLP.part.hbond>
-5.5086

> <Gold.PLP.part.metal>
0.0000

> <Gold.PLP.part.buried>
-5.5695

> <Gold.PLP.part.nonpolar>
-33.7555

> <Gold.PLP.part.repulsive>
0.1757

> <Gold.PLP.ligand.clash>
0.0000

> <Gold.PLP.ligand.torsion>
1.0516

> <Gold.PLP.Chemscore.Hbond>
3.7520

> <Gold.PLP.Chemscore.CHOScore>
0.0000

> <Gold.PLP.Chemscore.Metal>
0.0000

> <Gold.Chemscore.Hbonds>
donor molecule, donor type, donor heavy atom, donor atom, acceptor molecule, acceptor atom, score
      P1  H  6896  6909       L1    12  0.71
      P1  H  6931  6943       L1    17  0.82
      P1  H  6934  6947       L1    17  0.96
      P1  H  7997  8009       L1     3  0.41

> <Gold.PLP.Chemscore.Internal.Correction>
0.2034

> <Gold.Rescore>
     Score         DG    S(hbond)    S(metal)    S(lipo)     H(rot)  DE(clash)    DE(int)     intcor
     20.07     -22.89       2.78        0.00     110.85       1.90       0.07       2.74       ----

> <Gold.Chemscore.Fitness>
20.0742

> <Gold.Chemscore.DG>
-22.8862

> <Gold.Chemscore.ZeroCoef>
-5.4800

> <Gold.Chemscore.Hbond>
2.7842

> <Gold.Chemscore.Metal>
0.0000

> <Gold.Chemscore.Lipo>
110.8486

> <Gold.Chemscore.Internal_Hbond>
0.0000

> <Gold.Chemscore.DEClash>
0.0717

> <Gold.Chemscore.DEInternal>
2.7403

> <Gold.Chemscore.Rot>
1.8993

> <Gold.Chemscore.Internal.Correction>
   9.000000E+99

> <Gold.Chemscore.Hbonds>
donor molecule, donor type, donor heavy atom, donor atom, acceptor molecule, acceptor atom, score
      P1  H  6896  6909       L1    12  0.39
      P1  H  6931  6943       L1    17  0.34
      P1  H  6934  6947       L1    17  0.88
      P1  H  7997  8009       L1     3  0.07

> <Gold.Chemscore.Hbond.Weighted>
-9.2991

> <Gold.Chemscore.Metal.Weighted>
-0.0000

> <Gold.Chemscore.Lipo.Weighted>
-12.9693

> <Gold.Chemscore.Internal_Hbond.Weighted>
0.0000

> <Gold.Chemscore.DEClash.Weighted>
0.0717

> <Gold.Chemscore.DEInternal.Weighted>
2.7403

> <Gold.Chemscore.Rot.Weighted>
4.8622

> <Gold.Chemscore.Internal.Correction.Weighted>
   9.000000E+99

> <Gold.Protein.RotatedTorsions>
[ 6907 6896 6895 6894 ] final   57.15 input  -60.11 | X-H torsion
[ 7974 7965 7964 7962 ] final  -28.95 input  175.53 | X-H torsion
[ 8008 7997 7996 7995 ] final  123.31 input   59.86 | X-H torsion
[ 10167 10162 10161 10158 ] final -126.55 input  -65.29 | X-H torsion
[ 10718 10713 10712 10709 ] final  -40.04 input   66.30 | X-H torsion
[ 10763 10752 10751 10750 ] final   77.57 input  -60.55 | X-H torsion
[ 11005 11000 10999 10996 ] final  -31.75 input  -57.11 | X-H torsion

> <Gold.Protein.ActiveResidues>
 VAL166  LYS551  ARG553  GLY616  TRP617  ASP618  TYR619  PRO620  LYS621  CYS622 
 ASP623  PHE694  ASN695  SER759  ASP760  ASP761  ALA762  ILE779  LEU786  VAL792 
 PHE793  MET794  SER795  GLU796  ALA797  LYS798  CYS799  TRP800  GLU811  SER814 

> <Gold.Protein.RotatedAtoms>
  152.3704  134.6742  160.0177 H   0  0  0  0  0  0  0  0  0  0  0  0  # atno 6907 bound_to 6896
  151.7037  133.3306  159.3281 H   0  0  0  0  0  0  0  0  0  0  0  0  # atno 6908 bound_to 6896
  150.7669  134.6528  159.6342 H   0  0  0  0  0  0  0  0  0  0  0  0  # atno 6909 bound_to 6896
  146.1252  140.5349  142.8718 H   0  0  0  0  0  0  0  0  0  0  0  0  # atno 7974 bound_to 7965
  156.2761  140.2766  156.1607 H   0  0  0  0  0  0  0  0  0  0  0  0  # atno 8008 bound_to 7997
  155.0757  140.0387  157.2641 H   0  0  0  0  0  0  0  0  0  0  0  0  # atno 8009 bound_to 7997
  154.7004  140.2648  155.6730 H   0  0  0  0  0  0  0  0  0  0  0  0  # atno 8010 bound_to 7997
  139.9703  143.5853  152.2415 H   0  0  0  0  0  0  0  0  0  0  0  0  # atno 10167 bound_to 10162
  156.2857  130.4222  149.8290 H   0  0  0  0  0  0  0  0  0  0  0  0  # atno 10718 bound_to 10713
  153.0809  135.4909  154.8500 H   0  0  0  0  0  0  0  0  0  0  0  0  # atno 10763 bound_to 10752
  154.7149  135.3027  154.9142 H   0  0  0  0  0  0  0  0  0  0  0  0  # atno 10764 bound_to 10752
  153.9824  135.6788  153.4803 H   0  0  0  0  0  0  0  0  0  0  0  0  # atno 10765 bound_to 10752
  140.9494  133.7230  156.1197 H   0  0  0  0  0  0  0  0  0  0  0  0  # atno 11005 bound_to 11000
  144.7635  140.5477  143.6719 LP  0  0  0  0  0  0  0  0  0  0  0  0  # atno 17320 bound_to 7965
  145.5382  139.1475  143.3462 LP  0  0  0  0  0  0  0  0  0  0  0  0  # atno 17321 bound_to 7965
  139.6486  144.7659  151.2193 LP  0  0  0  0  0  0  0  0  0  0  0  0  # atno 17342 bound_to 10162
  140.7524  143.6198  150.8525 LP  0  0  0  0  0  0  0  0  0  0  0  0  # atno 17343 bound_to 10162
  156.5722  130.8429  151.3359 LP  0  0  0  0  0  0  0  0  0  0  0  0  # atno 17370 bound_to 10713
  157.7328  130.9720  150.1945 LP  0  0  0  0  0  0  0  0  0  0  0  0  # atno 17371 bound_to 10713
  140.7623  134.3925  157.5523 LP  0  0  0  0  0  0  0  0  0  0  0  0  # atno 17394 bound_to 11000
  139.8843  134.8969  156.2712 LP  0  0  0  0  0  0  0  0  0  0  0  0  # atno 17395 bound_to 11000

$$$$
