AV-unprocessed.smi:91|AV-procd|sdf|839|dock1
  -GOLD-   2262017273D 1   1.00000     0.00000
 Structure written by MMmdl.
 60 63  0  0  0  0  0  0  0  0  1 V2000
  153.7872  140.4980  160.0631 C   0  0  0  0  0  0  0  0  0  0  0  0
  154.0102  139.7483  158.8821 O   0  0  0  0  0  0  0  0  0  0  0  0
  153.4034  138.4664  158.9263 C   0  0  0  0  0  0  0  0  0  0  0  0
  151.8786  138.6054  158.8216 C   0  0  2  0  0  0  0  0  0  0  0  0
  151.1420  137.2611  158.9699 C   0  0  0  0  0  0  0  0  0  0  0  0
  149.7186  137.4491  158.7345 N   0  0  0  0  0  0  0  0  0  0  0  0
  148.9804  136.3543  159.0132 C   0  0  0  0  0  0  0  0  0  0  0  0
  148.9541  135.3090  158.1448 N   0  0  0  0  0  0  0  0  0  0  0  0
  148.2222  134.2267  158.4274 C   0  0  0  0  0  0  0  0  0  0  0  0
  147.4590  133.9907  159.4976 N   0  0  0  0  0  0  0  0  0  0  0  0
  147.4871  135.0408  160.3682 C   0  0  0  0  0  0  0  0  0  0  0  0
  148.2186  136.2497  160.2054 C   0  0  0  0  0  0  0  0  0  0  0  0
  148.0060  137.0884  161.2919 N   0  0  0  0  0  0  0  0  0  0  0  0
  147.1877  136.4144  162.0543 C   0  0  0  0  0  0  0  0  0  0  0  0
  146.8201  135.1777  161.5730 N   0  0  0  0  0  0  0  0  0  0  0  0
  145.9227  134.2306  162.2119 C   0  0  0  0  0  0  0  0  0  0  0  0
  144.6680  133.9065  161.3632 C   0  0  1  0  0  0  0  0  0  0  0  0
  144.7354  132.5106  160.6960 C   0  0  0  0  0  0  0  0  0  0  0  0
  144.8889  131.4844  161.6548 O   0  0  0  0  0  0  0  0  0  0  0  0
  143.3641  134.1033  162.1777 C   0  0  1  0  0  0  0  0  0  0  0  0
  143.2343  135.4539  162.8598 C   0  0  0  0  0  0  0  0  0  0  0  0
  141.7412  135.5157  163.1598 C   0  0  0  0  0  0  0  0  0  0  0  0
  141.1096  134.8297  162.0853 O   0  0  0  0  0  0  0  0  0  0  0  0
  142.0759  134.0874  161.3469 C   0  0  0  0  0  0  0  0  0  0  0  0
  149.4463  138.0447  157.4325 C   0  0  0  0  0  0  0  0  0  0  0  0
  150.1782  139.3968  157.2838 C   0  0  0  0  0  0  0  0  0  0  0  0
  150.1135  139.8648  155.8219 C   0  0  0  0  0  0  0  0  0  0  0  0
  149.5692  140.4852  158.1931 C   0  0  0  0  0  0  0  0  0  0  0  0
  151.5705  139.2115  157.5646 O   0  0  0  0  0  0  0  0  0  0  0  0
  154.2743  141.4693  159.9777 H   0  0  0  0  0  0  0  0  0  0  0  0
  154.1989  139.9903  160.9364 H   0  0  0  0  0  0  0  0  0  0  0  0
  152.7225  140.6690  160.2267 H   0  0  0  0  0  0  0  0  0  0  0  0
  153.7751  137.8574  158.1009 H   0  0  0  0  0  0  0  0  0  0  0  0
  153.6670  137.9546  159.8533 H   0  0  0  0  0  0  0  0  0  0  0  0
  151.5591  139.2739  159.6211 H   0  0  0  0  0  0  0  0  0  0  0  0
  151.5305  136.5337  158.2557 H   0  0  0  0  0  0  0  0  0  0  0  0
  151.3053  136.8521  159.9681 H   0  0  0  0  0  0  0  0  0  0  0  0
  148.2509  133.4382  157.6901 H   0  0  0  0  0  0  0  0  0  0  0  0
  146.8226  136.8048  162.9932 H   0  0  0  0  0  0  0  0  0  0  0  0
  146.4780  133.3177  162.4296 H   0  0  0  0  0  0  0  0  0  0  0  0
  145.6344  134.6499  163.1760 H   0  0  0  0  0  0  0  0  0  0  0  0
  144.6477  134.6310  160.5477 H   0  0  0  0  0  0  0  0  0  0  0  0
  143.8331  132.3132  160.1177 H   0  0  0  0  0  0  0  0  0  0  0  0
  145.5608  132.4528  159.9863 H   0  0  0  0  0  0  0  0  0  0  0  0
  145.4936  130.8425  161.3133 H   0  0  0  0  0  0  0  0  0  0  0  0
  143.2913  133.3279  162.9423 H   0  0  0  0  0  0  0  0  0  0  0  0
  143.8432  135.5446  163.7596 H   0  0  0  0  0  0  0  0  0  0  0  0
  143.5110  136.2574  162.1757 H   0  0  0  0  0  0  0  0  0  0  0  0
  141.5187  134.9875  164.0881 H   0  0  0  0  0  0  0  0  0  0  0  0
  141.3739  136.5378  163.2539 H   0  0  0  0  0  0  0  0  0  0  0  0
  142.2257  134.5860  160.3884 H   0  0  0  0  0  0  0  0  0  0  0  0
  141.7221  133.0754  161.1481 H   0  0  0  0  0  0  0  0  0  0  0  0
  149.7796  137.3590  156.6517 H   0  0  0  0  0  0  0  0  0  0  0  0
  148.3713  138.1789  157.3010 H   0  0  0  0  0  0  0  0  0  0  0  0
  149.0830  140.0161  155.4988 H   0  0  0  0  0  0  0  0  0  0  0  0
  150.5663  139.1328  155.1523 H   0  0  0  0  0  0  0  0  0  0  0  0
  150.6456  140.8067  155.6852 H   0  0  0  0  0  0  0  0  0  0  0  0
  148.5418  140.7050  157.9018 H   0  0  0  0  0  0  0  0  0  0  0  0
  150.1356  141.4144  158.1269 H   0  0  0  0  0  0  0  0  0  0  0  0
  149.5430  140.1881  159.2411 H   0  0  0  0  0  0  0  0  0  0  0  0
  1  2  1  0  0  0  0
  1 30  1  0  0  0  0
  1 31  1  0  0  0  0
  1 32  1  0  0  0  0
  2  3  1  0  0  0  0
  3  4  1  0  0  0  0
  3 33  1  0  0  0  0
  3 34  1  0  0  0  0
  4 29  1  0  0  0  0
  4  5  1  0  0  0  0
  4 35  1  0  0  0  0
  5  6  1  0  0  0  0
  5 36  1  0  0  0  0
  5 37  1  0  0  0  0
  6  7  1  0  0  0  0
  6 25  1  0  0  0  0
  7 12  1  0  0  0  0
  7  8  2  0  0  0  0
  8  9  1  0  0  0  0
  9 10  2  0  0  0  0
  9 38  1  0  0  0  0
 10 11  1  0  0  0  0
 11 15  1  0  0  0  0
 11 12  2  0  0  0  0
 12 13  1  0  0  0  0
 13 14  2  0  0  0  0
 14 15  1  0  0  0  0
 14 39  1  0  0  0  0
 15 16  1  0  0  0  0
 16 17  1  0  0  0  0
 16 40  1  0  0  0  0
 16 41  1  0  0  0  0
 17 18  1  0  0  0  0
 17 20  1  0  0  0  0
 17 42  1  0  0  0  0
 18 19  1  0  0  0  0
 18 43  1  0  0  0  0
 18 44  1  0  0  0  0
 19 45  1  0  0  0  0
 20 24  1  0  0  0  0
 20 21  1  0  0  0  0
 20 46  1  0  0  0  0
 21 22  1  0  0  0  0
 21 47  1  0  0  0  0
 21 48  1  0  0  0  0
 22 23  1  0  0  0  0
 22 49  1  0  0  0  0
 22 50  1  0  0  0  0
 23 24  1  0  0  0  0
 24 51  1  0  0  0  0
 24 52  1  0  0  0  0
 25 26  1  0  0  0  0
 25 53  1  0  0  0  0
 25 54  1  0  0  0  0
 26 27  1  0  0  0  0
 26 28  1  0  0  0  0
 26 29  1  0  0  0  0
 27 55  1  0  0  0  0
 27 56  1  0  0  0  0
 27 57  1  0  0  0  0
 28 58  1  0  0  0  0
 28 59  1  0  0  0  0
 28 60  1  0  0  0  0
M  END
> <s_m_source_file>
AV-unprocessed.smi

> <i_m_source_file_index>
91

> <i_lp_mmshare_version>
43012

> <i_f3d_flags>
0

> <s_epik_input>
W0NIM11PW0NIMl1bQ0BASF0oTzEpW0NIMl1OKFtDSDJdQzEoW0NIM10pW0NIM10pYyhuW2NIXW4yKWMoYzIzKW5bY0hdbjNbQ0gyXVtDQEhdKFtDSDJdW09IXSlbQ0BASF00W0NIMl1bQ0gyXU9bQ0gyXTQ=

> <s_epik_cmdline>
J2VwaWtfcHl0aG9uJywgJy1waCcsICc3LjAnLCAnLXRuJywgJzgnLCAnLW1hJywgJzIwMCcsICctbWV0YWxfYmluZGluZycsICctaW1hZScsICc8aW5maWxlLm1hZT4nLCAnLW9tYWUnLCAnPG91dGZpbGUubWFlPic=

> <r_lp_tautomer_probability>
1

> <r_epik_Ionization_Penalty>
8.63591e-05

> <r_epik_Ionization_Penalty_Charging>
0

> <r_epik_Ionization_Penalty_Neutral>
8.63591e-05

> <r_epik_State_Penalty>
-0

> <r_epik_Charging_Adjusted_Penalty>
0

> <i_epik_Tot_Q>
0

> <i_epik_Tot_abs_Q>
0

> <r_epik_Metal_State_Penalty>
-0

> <b_epik_Metal_Only>
0

> <s_lp_Force_Field>
OPLS_2005

> <r_lp_Energy>
46.8468

> <b_lp_Chiralities_Consistent>
1

> <s_lp_Variant>
AV-unprocessed.smi:91-7

> <Gold.Version>
5.8.1

> <Gold.Id.Protein>
6NUR|6NUR_protein|mol2

> <Gold.PLP.Fitness>
48.5313

> <Gold.PLP.PLP>
-41.3413

> <Gold.PLP.part.hbond>
-5.0000

> <Gold.PLP.part.metal>
0.0000

> <Gold.PLP.part.buried>
-5.2998

> <Gold.PLP.part.nonpolar>
-31.4615

> <Gold.PLP.part.repulsive>
0.0317

> <Gold.PLP.ligand.clash>
0.0000

> <Gold.PLP.ligand.torsion>
1.0684

> <Gold.PLP.Chemscore.Hbond>
2.9075

> <Gold.PLP.Chemscore.CHOScore>
0.0000

> <Gold.PLP.Chemscore.Metal>
0.0000

> <Gold.Chemscore.Hbonds>
donor molecule, donor type, donor heavy atom, donor atom, acceptor molecule, acceptor atom, score
      P1  H  6896  6907       L1     8  0.03
      P1  H  6931  6943       L1    13  1.00
      P1  H  6934  6947       L1    13  0.54
      P1  H  7997  8010       L1     2  1.00

> <Gold.PLP.Chemscore.Internal.Correction>
0.6042

> <Gold.Rescore>
     Score         DG    S(hbond)    S(metal)    S(lipo)     H(rot)  DE(clash)    DE(int)     intcor
     14.50     -15.47       2.44        0.00      82.10       3.03       0.06       0.91       ----

> <Gold.Chemscore.Fitness>
14.4958

> <Gold.Chemscore.DG>
-15.4668

> <Gold.Chemscore.ZeroCoef>
-5.4800

> <Gold.Chemscore.Hbond>
2.4352

> <Gold.Chemscore.Metal>
0.0000

> <Gold.Chemscore.Lipo>
82.1027

> <Gold.Chemscore.Internal_Hbond>
0.0000

> <Gold.Chemscore.DEClash>
0.0644

> <Gold.Chemscore.DEInternal>
0.9066

> <Gold.Chemscore.Rot>
3.0284

> <Gold.Chemscore.Internal.Correction>
   9.000000E+99

> <Gold.Chemscore.Hbonds>
donor molecule, donor type, donor heavy atom, donor atom, acceptor molecule, acceptor atom, score
      P1  H  6931  6943       L1    13  0.97
      P1  H  6934  6947       L1    13  0.35
      P1  H  7997  8010       L1     2  0.82

> <Gold.Chemscore.Hbond.Weighted>
-8.1336

> <Gold.Chemscore.Metal.Weighted>
-0.0000

> <Gold.Chemscore.Lipo.Weighted>
-9.6060

> <Gold.Chemscore.Internal_Hbond.Weighted>
0.0000

> <Gold.Chemscore.DEClash.Weighted>
0.0644

> <Gold.Chemscore.DEInternal.Weighted>
0.9066

> <Gold.Chemscore.Rot.Weighted>
7.7528

> <Gold.Chemscore.Internal.Correction.Weighted>
   9.000000E+99

> <Gold.Protein.RotatedTorsions>
[ 6907 6896 6895 6894 ] final  -81.60 input  -60.11 | X-H torsion
[ 7974 7965 7964 7962 ] final  -53.61 input  175.53 | X-H torsion
[ 8008 7997 7996 7995 ] final   11.79 input   59.86 | X-H torsion
[ 10167 10162 10161 10158 ] final   77.14 input  -65.29 | X-H torsion
[ 10718 10713 10712 10709 ] final   45.63 input   66.30 | X-H torsion
[ 10763 10752 10751 10750 ] final  -91.53 input  -60.55 | X-H torsion
[ 11005 11000 10999 10996 ] final -148.67 input  -57.11 | X-H torsion

> <Gold.Protein.ActiveResidues>
 VAL166  LYS551  ARG553  GLY616  TRP617  ASP618  TYR619  PRO620  LYS621  CYS622 
 ASP623  PHE694  ASN695  SER759  ASP760  ASP761  ALA762  ILE779  LEU786  VAL792 
 PHE793  MET794  SER795  GLU796  ALA797  LYS798  CYS799  TRP800  GLU811  SER814 

> <Gold.Protein.RotatedAtoms>
  150.6909  134.3792  159.5026 H   0  0  0  0  0  0  0  0  0  0  0  0  # atno 6907 bound_to 6896
  152.1597  134.8919  160.0551 H   0  0  0  0  0  0  0  0  0  0  0  0  # atno 6908 bound_to 6896
  151.9986  133.3782  159.4209 H   0  0  0  0  0  0  0  0  0  0  0  0  # atno 6909 bound_to 6896
  145.8949  140.8041  142.9773 H   0  0  0  0  0  0  0  0  0  0  0  0  # atno 7974 bound_to 7965
  154.8117  140.2869  155.5849 H   0  0  0  0  0  0  0  0  0  0  0  0  # atno 8008 bound_to 7997
  156.2989  140.2567  156.2936 H   0  0  0  0  0  0  0  0  0  0  0  0  # atno 8009 bound_to 7997
  154.9440  140.0380  157.2100 H   0  0  0  0  0  0  0  0  0  0  0  0  # atno 8010 bound_to 7997
  139.9847  144.5800  150.7869 H   0  0  0  0  0  0  0  0  0  0  0  0  # atno 10167 bound_to 10162
  157.4396  130.8073  149.7681 H   0  0  0  0  0  0  0  0  0  0  0  0  # atno 10718 bound_to 10713
  154.6769  135.5264  153.8212 H   0  0  0  0  0  0  0  0  0  0  0  0  # atno 10763 bound_to 10752
  153.0538  135.6543  154.0636 H   0  0  0  0  0  0  0  0  0  0  0  0  # atno 10764 bound_to 10752
  154.0528  135.2968  155.3317 H   0  0  0  0  0  0  0  0  0  0  0  0  # atno 10765 bound_to 10752
  140.7588  134.3322  157.5107 H   0  0  0  0  0  0  0  0  0  0  0  0  # atno 11005 bound_to 11000
  144.6732  140.1586  143.7424 LP  0  0  0  0  0  0  0  0  0  0  0  0  # atno 17320 bound_to 7965
  145.8863  139.2351  143.1576 LP  0  0  0  0  0  0  0  0  0  0  0  0  # atno 17321 bound_to 7965
  140.7476  143.2909  151.3333 LP  0  0  0  0  0  0  0  0  0  0  0  0  # atno 17342 bound_to 10162
  139.6383  144.0587  152.2534 LP  0  0  0  0  0  0  0  0  0  0  0  0  # atno 17343 bound_to 10162
  155.9943  130.3918  150.2863 LP  0  0  0  0  0  0  0  0  0  0  0  0  # atno 17370 bound_to 10713
  157.1026  131.0200  151.3079 LP  0  0  0  0  0  0  0  0  0  0  0  0  # atno 17371 bound_to 10713
  139.8774  134.9189  156.3213 LP  0  0  0  0  0  0  0  0  0  0  0  0  # atno 17394 bound_to 11000
  140.9683  133.7344  156.0498 LP  0  0  0  0  0  0  0  0  0  0  0  0  # atno 17395 bound_to 11000

$$$$
