AV-unprocessed.smi:1826|AV-procd|sdf|7418|dock3
  -GOLD-   22720 9 93D 1   1.00000     0.00000
 Structure written by MMmdl.
 40 42  0  0  0  0  0  0  0  0  2 V2000
  147.1095  137.9666  151.4159 O   0  0  0  0  0  0  0  0  0  0  0  0
  146.9867  139.0895  152.2643 C   0  0  0  0  0  0  0  0  0  0  0  0
  148.1812  139.3040  153.1382 C   0  0  0  0  0  0  0  0  0  0  0  0
  149.2347  138.4522  153.2948 N   0  3  0  0  0  0  0  0  0  0  0  0
  150.1462  138.9873  154.2050 C   0  0  0  0  0  0  0  0  0  0  0  0
  151.3540  138.4900  154.6843 C   0  0  0  0  0  0  0  0  0  0  0  0
  152.0423  139.2916  155.6186 C   0  0  0  0  0  0  0  0  0  0  0  0
  151.5267  140.5346  156.0403 C   0  0  0  0  0  0  0  0  0  0  0  0
  150.3019  141.0289  155.5455 C   0  0  0  0  0  0  0  0  0  0  0  0
  149.6271  140.2299  154.6229 C   0  0  0  0  0  0  0  0  0  0  0  0
  148.4170  140.3845  153.9367 N   0  0  0  0  0  0  0  0  0  0  0  0
  147.6070  141.5946  154.1608 C   0  0  0  0  0  0  0  0  0  0  0  0
  146.2490  141.3487  154.8714 C   0  0  1  0  0  0  0  0  0  0  0  0
  146.3815  140.6147  156.0765 O   0  0  0  0  0  0  0  0  0  0  0  0
  145.4719  142.6438  155.0614 C   0  0  0  0  0  0  0  0  0  0  0  0
  145.3025  143.5266  153.9742 C   0  0  0  0  0  0  0  0  0  0  0  0
  144.5929  144.7320  154.1396 C   0  0  0  0  0  0  0  0  0  0  0  0
  144.0425  145.0703  155.3945 C   0  0  0  0  0  0  0  0  0  0  0  0
  143.2847  146.3776  155.5733 C   0  0  0  0  0  0  0  0  0  0  0  0
  142.8979  146.8720  154.3968 F   0  0  0  0  0  0  0  0  0  0  0  0
  142.2046  146.1591  156.3223 F   0  0  0  0  0  0  0  0  0  0  0  0
  144.0492  147.2881  156.1768 F   0  0  0  0  0  0  0  0  0  0  0  0
  144.2218  144.1919  156.4848 C   0  0  0  0  0  0  0  0  0  0  0  0
  144.9300  142.9861  156.3195 C   0  0  0  0  0  0  0  0  0  0  0  0
  147.4823  137.2540  151.9125 H   0  0  0  0  0  0  0  0  0  0  0  0
  146.8260  139.9784  151.6539 H   0  0  0  0  0  0  0  0  0  0  0  0
  146.1047  138.9618  152.8922 H   0  0  0  0  0  0  0  0  0  0  0  0
  151.7496  137.5374  154.3631 H   0  0  0  0  0  0  0  0  0  0  0  0
  152.9837  138.9459  156.0203 H   0  0  0  0  0  0  0  0  0  0  0  0
  152.0811  141.1211  156.7585 H   0  0  0  0  0  0  0  0  0  0  0  0
  149.9171  141.9818  155.8763 H   0  0  0  0  0  0  0  0  0  0  0  0
  148.2140  142.3246  154.6974 H   0  0  0  0  0  0  0  0  0  0  0  0
  147.4275  142.0445  153.1839 H   0  0  0  0  0  0  0  0  0  0  0  0
  145.6502  140.7103  154.2203 H   0  0  0  0  0  0  0  0  0  0  0  0
  145.7379  139.9224  156.0767 H   0  0  0  0  0  0  0  0  0  0  0  0
  145.7191  143.2838  153.0075 H   0  0  0  0  0  0  0  0  0  0  0  0
  144.4752  145.3984  153.2976 H   0  0  0  0  0  0  0  0  0  0  0  0
  143.8185  144.4393  157.4556 H   0  0  0  0  0  0  0  0  0  0  0  0
  145.0582  142.3283  157.1667 H   0  0  0  0  0  0  0  0  0  0  0  0
  149.3134  137.5655  152.8134 H   0  0  0  0  0  0  0  0  0  0  0  0
  1  2  1  0  0  0  0
  1 25  1  0  0  0  0
  2  3  1  0  0  0  0
  2 26  1  0  0  0  0
  2 27  1  0  0  0  0
  3 11  1  0  0  0  0
  3  4  2  0  0  0  0
  4  5  1  0  0  0  0
  4 40  1  0  0  0  0
  5 10  2  0  0  0  0
  5  6  1  0  0  0  0
  6  7  2  0  0  0  0
  6 28  1  0  0  0  0
  7  8  1  0  0  0  0
  7 29  1  0  0  0  0
  8  9  2  0  0  0  0
  8 30  1  0  0  0  0
  9 10  1  0  0  0  0
  9 31  1  0  0  0  0
 10 11  1  0  0  0  0
 11 12  1  0  0  0  0
 12 13  1  0  0  0  0
 12 32  1  0  0  0  0
 12 33  1  0  0  0  0
 13 14  1  0  0  0  0
 13 15  1  0  0  0  0
 13 34  1  0  0  0  0
 14 35  1  0  0  0  0
 15 24  1  0  0  0  0
 15 16  2  0  0  0  0
 16 17  1  0  0  0  0
 16 36  1  0  0  0  0
 17 18  2  0  0  0  0
 17 37  1  0  0  0  0
 18 19  1  0  0  0  0
 18 23  1  0  0  0  0
 19 20  1  0  0  0  0
 19 21  1  0  0  0  0
 19 22  1  0  0  0  0
 23 24  2  0  0  0  0
 23 38  1  0  0  0  0
 24 39  1  0  0  0  0
M  CHG  1   4   1
M  END
> <s_m_source_file>
AV-unprocessed.smi

> <i_m_source_file_index>
1826

> <i_lp_mmshare_version>
43012

> <i_f3d_flags>
0

> <s_epik_input>
W2NIXTFbY0hdW2NIXVtjSF1jKGMxMiluKGMobjIpW0NIMl1bT0hdKVtDSDJdW0NASF0oW09IXSljM1tjSF1bY0hdYyhDKEYpKEYpRilbY0hdW2NIXTM=

> <s_epik_cmdline>
J2VwaWtfcHl0aG9uJywgJy1waCcsICc3LjAnLCAnLXRuJywgJzgnLCAnLW1hJywgJzIwMCcsICctbWV0YWxfYmluZGluZycsICctaW1hZScsICc8aW5maWxlLm1hZT4nLCAnLW9tYWUnLCAnPG91dGZpbGUubWFlPic=

> <r_epik_Ionization_Penalty>
1.35643

> <r_epik_Ionization_Penalty_Charging>
1.35557

> <r_epik_Ionization_Penalty_Neutral>
0.000856405

> <r_epik_State_Penalty>
1.43401

> <r_epik_Charging_Adjusted_Penalty>
2.78958

> <i_epik_Tot_Q>
1

> <i_epik_Tot_abs_Q>
1

> <r_epik_Metal_State_Penalty>
5.47166

> <b_epik_Metal_Only>
0

> <s_lp_Force_Field>
OPLS_2005

> <r_lp_Energy>
22.2169

> <b_lp_Chiralities_Consistent>
1

> <s_lp_Variant>
AV-unprocessed.smi:1826-4

> <Gold.Version>
5.8.1

> <Gold.Id.Protein>
6NUR|6NUR_protein|mol2

> <Gold.PLP.Fitness>
61.1897

> <Gold.PLP.PLP>
-50.8938

> <Gold.PLP.part.hbond>
-4.3704

> <Gold.PLP.part.metal>
0.0000

> <Gold.PLP.part.buried>
2.0308

> <Gold.PLP.part.nonpolar>
-48.6682

> <Gold.PLP.part.repulsive>
0.0800

> <Gold.PLP.ligand.clash>
0.2901

> <Gold.PLP.ligand.torsion>
0.9733

> <Gold.PLP.Chemscore.Hbond>
3.7200

> <Gold.PLP.Chemscore.CHOScore>
0.0000

> <Gold.PLP.Chemscore.Metal>
0.0000

> <Gold.Chemscore.Hbonds>
donor molecule, donor type, donor heavy atom, donor atom, acceptor molecule, acceptor atom, score
      L1  H     1    25       P1  7948  0.72
      L1  H     4    40       P1  7948  2.00
      P1  H  7954  7966       L1     1  0.95

> <Gold.PLP.Chemscore.Internal.Correction>
1.3727

> <Gold.Rescore>
     Score         DG    S(hbond)    S(metal)    S(lipo)     H(rot)  DE(clash)    DE(int)     intcor
     13.71     -15.99       2.05        0.00      96.48       2.98       1.49       0.79       ----

> <Gold.Chemscore.Fitness>
13.7095

> <Gold.Chemscore.DG>
-15.9867

> <Gold.Chemscore.ZeroCoef>
-5.4800

> <Gold.Chemscore.Hbond>
2.0517

> <Gold.Chemscore.Metal>
0.0000

> <Gold.Chemscore.Lipo>
96.4820

> <Gold.Chemscore.Internal_Hbond>
0.0000

> <Gold.Chemscore.DEClash>
1.4921

> <Gold.Chemscore.DEInternal>
0.7850

> <Gold.Chemscore.Rot>
2.9822

> <Gold.Chemscore.Internal.Correction>
   9.000000E+99

> <Gold.Chemscore.Hbonds>
donor molecule, donor type, donor heavy atom, donor atom, acceptor molecule, acceptor atom, score
      L1  H     1    25       P1  7948  0.72
      L1  H     4    40       P1  7948  0.94
      P1  H  7954  7966       L1     1  0.22

> <Gold.Chemscore.Hbond.Weighted>
-6.8526

> <Gold.Chemscore.Metal.Weighted>
-0.0000

> <Gold.Chemscore.Lipo.Weighted>
-11.2884

> <Gold.Chemscore.Internal_Hbond.Weighted>
0.0000

> <Gold.Chemscore.DEClash.Weighted>
1.4921

> <Gold.Chemscore.DEInternal.Weighted>
0.7850

> <Gold.Chemscore.Rot.Weighted>
7.6343

> <Gold.Chemscore.Internal.Correction.Weighted>
   9.000000E+99

> <Gold.Protein.RotatedTorsions>
[ 6907 6896 6895 6894 ] final -100.63 input  -60.11 | X-H torsion
[ 7974 7965 7964 7962 ] final   80.59 input  175.53 | X-H torsion
[ 8008 7997 7996 7995 ] final  -37.39 input   59.86 | X-H torsion
[ 10167 10162 10161 10158 ] final  145.73 input  -65.29 | X-H torsion
[ 10718 10713 10712 10709 ] final  -86.41 input   66.30 | X-H torsion
[ 10763 10752 10751 10750 ] final  138.11 input  -60.55 | X-H torsion
[ 11005 11000 10999 10996 ] final  157.08 input  -57.11 | X-H torsion

> <Gold.Protein.ActiveResidues>
 VAL166  LYS551  ARG553  GLY616  TRP617  ASP618  TYR619  PRO620  LYS621  CYS622 
 ASP623  PHE694  ASN695  SER759  ASP760  ASP761  ALA762  ILE779  LEU786  VAL792 
 PHE793  MET794  SER795  GLU796  ALA797  LYS798  CYS799  TRP800  GLU811  SER814 

> <Gold.Protein.RotatedAtoms>
  150.7123  134.0858  159.3913 H   0  0  0  0  0  0  0  0  0  0  0  0  # atno 6907 bound_to 6896
  151.8842  135.0439  160.0501 H   0  0  0  0  0  0  0  0  0  0  0  0  # atno 6908 bound_to 6896
  152.2543  133.5206  159.5380 H   0  0  0  0  0  0  0  0  0  0  0  0  # atno 6909 bound_to 6896
  145.6492  139.2443  143.1986 H   0  0  0  0  0  0  0  0  0  0  0  0  # atno 7974 bound_to 7965
  154.4054  140.1605  156.2529 H   0  0  0  0  0  0  0  0  0  0  0  0  # atno 8008 bound_to 7997
  155.9103  140.3427  155.6071 H   0  0  0  0  0  0  0  0  0  0  0  0  # atno 8009 bound_to 7997
  155.7343  140.0784  157.2265 H   0  0  0  0  0  0  0  0  0  0  0  0  # atno 8010 bound_to 7997
  139.4920  144.5880  151.6738 H   0  0  0  0  0  0  0  0  0  0  0  0  # atno 10167 bound_to 10162
  155.9990  130.4764  150.4710 H   0  0  0  0  0  0  0  0  0  0  0  0  # atno 10718 bound_to 10713
  153.8842  135.3040  155.3446 H   0  0  0  0  0  0  0  0  0  0  0  0  # atno 10763 bound_to 10752
  154.7747  135.4867  153.9723 H   0  0  0  0  0  0  0  0  0  0  0  0  # atno 10764 bound_to 10752
  153.1334  135.6809  153.9239 H   0  0  0  0  0  0  0  0  0  0  0  0  # atno 10765 bound_to 10752
  140.1735  134.8526  157.2719 H   0  0  0  0  0  0  0  0  0  0  0  0  # atno 11005 bound_to 11000
  146.1218  140.7299  142.9454 LP  0  0  0  0  0  0  0  0  0  0  0  0  # atno 17320 bound_to 7965
  144.7129  140.4104  143.7067 LP  0  0  0  0  0  0  0  0  0  0  0  0  # atno 17321 bound_to 7965
  140.5501  144.0440  150.6123 LP  0  0  0  0  0  0  0  0  0  0  0  0  # atno 17342 bound_to 10162
  140.3491  143.2974  152.0507 LP  0  0  0  0  0  0  0  0  0  0  0  0  # atno 17343 bound_to 10162
  157.2725  131.0590  151.2251 LP  0  0  0  0  0  0  0  0  0  0  0  0  # atno 17370 bound_to 10713
  157.3326  130.6992  149.6333 LP  0  0  0  0  0  0  0  0  0  0  0  0  # atno 17371 bound_to 10713
  140.2349  134.3865  155.7505 LP  0  0  0  0  0  0  0  0  0  0  0  0  # atno 17394 bound_to 11000
  141.2219  133.7234  156.8699 LP  0  0  0  0  0  0  0  0  0  0  0  0  # atno 17395 bound_to 11000

$$$$
