AV-unprocessed.smi:2278|AV-procd|sdf|9181|dock6
  -GOLD-   2272012393D 1   1.00000     0.00000
 Structure written by MMmdl.
 46 47  0  0  0  0  0  0  0  0  2 V2000
  137.7487  140.1917  152.9562 C   0  0  0  0  0  0  0  0  0  0  0  0
  138.7661  139.1630  153.4165 C   0  0  0  0  0  0  0  0  0  0  0  0
  140.1056  139.5005  153.2027 N   0  0  0  0  0  0  0  0  0  0  0  0
  141.0414  138.6867  153.5672 C   0  0  0  0  0  0  0  0  0  0  0  0
  140.7537  137.4569  154.1832 N   0  0  0  0  0  0  0  0  0  0  0  0
  141.9164  136.6314  154.5562 C   0  0  0  0  0  0  0  0  0  0  0  0
  142.1720  135.4741  153.5638 C   0  0  2  0  0  0  0  0  0  0  0  0
  141.5018  134.3315  154.0571 O   0  0  0  0  0  0  0  0  0  0  0  0
  143.6669  135.1258  153.3895 C   0  0  0  0  0  0  0  0  0  0  0  0
  143.8770  133.7768  152.8047 N   0  3  2  0  0  0  0  0  0  0  0  0
  145.3049  133.3688  152.8324 C   0  0  0  0  0  0  0  0  0  0  0  0
  145.4799  131.9164  152.3528 C   0  0  0  0  0  0  0  0  0  0  0  0
  144.8782  131.6865  150.9542 C   0  0  2  0  0  0  0  0  0  0  0  0
  145.7294  132.3020  149.8295 C   0  0  0  0  0  0  0  0  0  0  0  0
  143.4211  132.1828  150.9374 C   0  0  0  0  0  0  0  0  0  0  0  0
  143.2930  133.6300  151.4448 C   0  0  0  0  0  0  0  0  0  0  0  0
  139.4736  137.0470  154.4199 C   0  0  0  0  0  0  0  0  0  0  0  0
  139.2296  135.9666  154.9604 O   0  0  0  0  0  0  0  0  0  0  0  0
  138.4191  137.9848  154.0025 C   0  0  0  0  0  0  0  0  0  0  0  0
  136.9781  137.5660  154.2663 C   0  0  0  0  0  0  0  0  0  0  0  0
  137.0747  139.7582  152.2170 H   0  0  0  0  0  0  0  0  0  0  0  0
  138.2344  141.0547  152.4984 H   0  0  0  0  0  0  0  0  0  0  0  0
  137.1581  140.5491  153.8001 H   0  0  0  0  0  0  0  0  0  0  0  0
  142.1019  138.9027  153.4249 H   0  0  0  0  0  0  0  0  0  0  0  0
  142.8182  137.2380  154.6582 H   0  0  0  0  0  0  0  0  0  0  0  0
  141.7546  136.2234  155.5564 H   0  0  0  0  0  0  0  0  0  0  0  0
  141.7206  135.7276  152.6053 H   0  0  0  0  0  0  0  0  0  0  0  0
  142.1277  133.6284  154.1473 H   0  0  0  0  0  0  0  0  0  0  0  0
  144.1708  135.8558  152.7562 H   0  0  0  0  0  0  0  0  0  0  0  0
  144.1495  135.1876  154.3662 H   0  0  0  0  0  0  0  0  0  0  0  0
  145.8943  134.0507  152.2178 H   0  0  0  0  0  0  0  0  0  0  0  0
  145.6897  133.4524  153.8495 H   0  0  0  0  0  0  0  0  0  0  0  0
  146.5356  131.6435  152.3602 H   0  0  0  0  0  0  0  0  0  0  0  0
  144.9912  131.2496  153.0648 H   0  0  0  0  0  0  0  0  0  0  0  0
  144.8624  130.6106  150.7751 H   0  0  0  0  0  0  0  0  0  0  0  0
  145.8138  133.3846  149.9213 H   0  0  0  0  0  0  0  0  0  0  0  0
  145.2968  132.0881  148.8518 H   0  0  0  0  0  0  0  0  0  0  0  0
  146.7392  131.8916  149.8354 H   0  0  0  0  0  0  0  0  0  0  0  0
  143.0048  132.1002  149.9327 H   0  0  0  0  0  0  0  0  0  0  0  0
  142.8147  131.5323  151.5692 H   0  0  0  0  0  0  0  0  0  0  0  0
  142.2390  133.9041  151.4526 H   0  0  0  0  0  0  0  0  0  0  0  0
  143.7858  134.3190  150.7575 H   0  0  0  0  0  0  0  0  0  0  0  0
  136.8234  137.4056  155.3337 H   0  0  0  0  0  0  0  0  0  0  0  0
  136.7572  136.6321  153.7485 H   0  0  0  0  0  0  0  0  0  0  0  0
  136.2483  138.3040  153.9373 H   0  0  0  0  0  0  0  0  0  0  0  0
  143.3899  133.1308  153.4099 H   0  0  0  0  0  0  0  0  0  0  0  0
  1  2  1  0  0  0  0
  1 21  1  0  0  0  0
  1 22  1  0  0  0  0
  1 23  1  0  0  0  0
  2 19  2  0  0  0  0
  2  3  1  0  0  0  0
  3  4  2  0  0  0  0
  4  5  1  0  0  0  0
  4 24  1  0  0  0  0
  5  6  1  0  0  0  0
  5 17  1  0  0  0  0
  6  7  1  0  0  0  0
  6 25  1  0  0  0  0
  6 26  1  0  0  0  0
  7  8  1  0  0  0  0
  7  9  1  0  0  0  0
  7 27  1  0  0  0  0
  8 28  1  0  0  0  0
  9 10  1  0  0  0  0
  9 29  1  0  0  0  0
  9 30  1  0  0  0  0
 10 16  1  0  0  0  0
 10 11  1  0  0  0  0
 10 46  1  0  0  0  0
 11 12  1  0  0  0  0
 11 31  1  0  0  0  0
 11 32  1  0  0  0  0
 12 13  1  0  0  0  0
 12 33  1  0  0  0  0
 12 34  1  0  0  0  0
 13 14  1  0  0  0  0
 13 15  1  0  0  0  0
 13 35  1  0  0  0  0
 14 36  1  0  0  0  0
 14 37  1  0  0  0  0
 14 38  1  0  0  0  0
 15 16  1  0  0  0  0
 15 39  1  0  0  0  0
 15 40  1  0  0  0  0
 16 41  1  0  0  0  0
 16 42  1  0  0  0  0
 17 18  2  0  0  0  0
 17 19  1  0  0  0  0
 19 20  1  0  0  0  0
 20 43  1  0  0  0  0
 20 44  1  0  0  0  0
 20 45  1  0  0  0  0
M  CHG  1  10   1
M  END
> <s_m_source_file>
AV-unprocessed.smi

> <i_m_source_file_index>
2278

> <i_lp_mmshare_version>
43012

> <i_f3d_flags>
0

> <s_epik_input>
W0NIM11jMW5bY0hdbihjKD1PKWMxW0NIM10pW0NIMl1bQ0BIXShbT0hdKVtDSDJdTjJbQ0gyXVtDSDJdW0NIXShbQ0gzXSlbQ0gyXVtDSDJdMg==

> <s_epik_cmdline>
J2VwaWtfcHl0aG9uJywgJy1waCcsICc3LjAnLCAnLXRuJywgJzgnLCAnLW1hJywgJzIwMCcsICctbWV0YWxfYmluZGluZycsICctaW1hZScsICc8aW5maWxlLm1hZT4nLCAnLW9tYWUnLCAnPG91dGZpbGUubWFlPic=

> <r_lp_tautomer_probability>
1

> <r_epik_Ionization_Penalty>
0.00139489

> <r_epik_Ionization_Penalty_Charging>
0.00136819

> <r_epik_Ionization_Penalty_Neutral>
2.66975e-05

> <r_epik_State_Penalty>
0.000910892

> <r_epik_Charging_Adjusted_Penalty>
0.00227908

> <i_epik_Tot_Q>
1

> <i_epik_Tot_abs_Q>
1

> <r_epik_Metal_State_Penalty>
-0

> <b_epik_Metal_Only>
0

> <s_lp_Force_Field>
OPLS_2005

> <r_lp_Energy>
30.3115

> <b_lp_Chiralities_Consistent>
1

> <s_lp_Variant>
AV-unprocessed.smi:2278-3

> <Gold.Version>
5.8.1

> <Gold.Id.Protein>
6NUR|6NUR_protein|mol2

> <Gold.PLP.Fitness>
50.2815

> <Gold.PLP.PLP>
-37.0222

> <Gold.PLP.part.hbond>
-4.5439

> <Gold.PLP.part.metal>
0.0000

> <Gold.PLP.part.buried>
-5.1090

> <Gold.PLP.part.nonpolar>
-29.5455

> <Gold.PLP.part.repulsive>
2.5222

> <Gold.PLP.ligand.clash>
0.0000

> <Gold.PLP.ligand.torsion>
0.8662

> <Gold.PLP.Chemscore.Hbond>
3.9825

> <Gold.PLP.Chemscore.CHOScore>
1.0000

> <Gold.PLP.Chemscore.Metal>
0.0000

> <Gold.Chemscore.Hbonds>
donor molecule, donor type, donor heavy atom, donor atom, acceptor molecule, acceptor atom, score
      L1  H     8    28       P1 10957  1.00
      L1  H    10    46       P1 10957  1.85
      P1  H 11000 11005       L1     8  1.00
      L1  C     4    24       P1 10175  1.00

> <Gold.PLP.Chemscore.Internal.Correction>
0.0441

> <Gold.Rescore>
     Score         DG    S(hbond)    S(metal)    S(lipo)     H(rot)  DE(clash)    DE(int)     intcor
     15.82     -17.88       2.61        0.00      79.72       2.20       0.18       1.89       ----

> <Gold.Chemscore.Fitness>
15.8183

> <Gold.Chemscore.DG>
-17.8835

> <Gold.Chemscore.ZeroCoef>
-5.4800

> <Gold.Chemscore.Hbond>
2.6062

> <Gold.Chemscore.Metal>
0.0000

> <Gold.Chemscore.Lipo>
79.7208

> <Gold.Chemscore.Internal_Hbond>
0.0000

> <Gold.Chemscore.DEClash>
0.1782

> <Gold.Chemscore.DEInternal>
1.8870

> <Gold.Chemscore.Rot>
2.1986

> <Gold.Chemscore.Internal.Correction>
   9.000000E+99

> <Gold.Chemscore.Hbonds>
donor molecule, donor type, donor heavy atom, donor atom, acceptor molecule, acceptor atom, score
      L1  H     8    28       P1 10957  0.89
      L1  H    10    46       P1 10957  0.80
      P1  H 11000 11005       L1     8  0.37

> <Gold.Chemscore.Hbond.Weighted>
-8.7047

> <Gold.Chemscore.Metal.Weighted>
-0.0000

> <Gold.Chemscore.Lipo.Weighted>
-9.3273

> <Gold.Chemscore.Internal_Hbond.Weighted>
0.0000

> <Gold.Chemscore.DEClash.Weighted>
0.1782

> <Gold.Chemscore.DEInternal.Weighted>
1.8870

> <Gold.Chemscore.Rot.Weighted>
5.6285

> <Gold.Chemscore.Internal.Correction.Weighted>
   9.000000E+99

> <Gold.Protein.RotatedTorsions>
[ 6907 6896 6895 6894 ] final  -90.82 input  -60.11 | X-H torsion
[ 7974 7965 7964 7962 ] final   39.21 input  175.53 | X-H torsion
[ 8008 7997 7996 7995 ] final  -95.09 input   59.86 | X-H torsion
[ 10167 10162 10161 10158 ] final   66.92 input  -65.29 | X-H torsion
[ 10718 10713 10712 10709 ] final   94.30 input   66.30 | X-H torsion
[ 10763 10752 10751 10750 ] final  156.27 input  -60.55 | X-H torsion
[ 11005 11000 10999 10996 ] final   21.82 input  -57.11 | X-H torsion

> <Gold.Protein.ActiveResidues>
 VAL166  LYS551  ARG553  GLY616  TRP617  ASP618  TYR619  PRO620  LYS621  CYS622 
 ASP623  PHE694  ASN695  SER759  ASP760  ASP761  ALA762  ILE779  LEU786  VAL792 
 PHE793  MET794  SER795  GLU796  ALA797  LYS798  CYS799  TRP800  GLU811  SER814 

> <Gold.Protein.RotatedAtoms>
  150.6886  134.2372  159.4457 H   0  0  0  0  0  0  0  0  0  0  0  0  # atno 6907 bound_to 6896
  152.0319  134.9760  160.0582 H   0  0  0  0  0  0  0  0  0  0  0  0  # atno 6908 bound_to 6896
  152.1296  133.4365  159.4751 H   0  0  0  0  0  0  0  0  0  0  0  0  # atno 6909 bound_to 6896
  146.1002  139.5679  142.9419 H   0  0  0  0  0  0  0  0  0  0  0  0  # atno 7974 bound_to 7965
  154.7569  140.0483  157.0941 H   0  0  0  0  0  0  0  0  0  0  0  0  # atno 8008 bound_to 7997
  154.9986  140.3122  155.4857 H   0  0  0  0  0  0  0  0  0  0  0  0  # atno 8009 bound_to 7997
  156.2896  140.2205  156.5095 H   0  0  0  0  0  0  0  0  0  0  0  0  # atno 8010 bound_to 7997
  140.0951  144.4953  150.7073 H   0  0  0  0  0  0  0  0  0  0  0  0  # atno 10167 bound_to 10162
  157.6949  131.0508  150.4165 H   0  0  0  0  0  0  0  0  0  0  0  0  # atno 10718 bound_to 10713
  154.1816  135.2799  155.3050 H   0  0  0  0  0  0  0  0  0  0  0  0  # atno 10763 bound_to 10752
  154.5998  135.5533  153.7366 H   0  0  0  0  0  0  0  0  0  0  0  0  # atno 10764 bound_to 10752
  153.0136  135.6389  154.1955 H   0  0  0  0  0  0  0  0  0  0  0  0  # atno 10765 bound_to 10752
  140.3874  134.1856  155.7663 H   0  0  0  0  0  0  0  0  0  0  0  0  # atno 11005 bound_to 11000
  145.5870  141.0375  143.2091 LP  0  0  0  0  0  0  0  0  0  0  0  0  # atno 17320 bound_to 7965
  144.7426  139.7406  143.7304 LP  0  0  0  0  0  0  0  0  0  0  0  0  # atno 17321 bound_to 7965
  140.7008  143.2433  151.4870 LP  0  0  0  0  0  0  0  0  0  0  0  0  # atno 17342 bound_to 10162
  139.5702  144.1945  152.1826 LP  0  0  0  0  0  0  0  0  0  0  0  0  # atno 17343 bound_to 10162
  156.4544  130.4018  149.6615 LP  0  0  0  0  0  0  0  0  0  0  0  0  # atno 17370 bound_to 10713
  156.3753  130.7551  151.2539 LP  0  0  0  0  0  0  0  0  0  0  0  0  # atno 17371 bound_to 10713
  141.1903  133.8221  157.0925 LP  0  0  0  0  0  0  0  0  0  0  0  0  # atno 17394 bound_to 11000
  140.0432  134.9843  157.1001 LP  0  0  0  0  0  0  0  0  0  0  0  0  # atno 17395 bound_to 11000

$$$$
