AV-unprocessed.smi:1489|AV-procd|sdf|6028|dock9
  -GOLD-   22720 6133D 1   1.00000     0.00000
 Structure written by MMmdl.
 47 49  0  0  0  0  0  0  0  0  2 V2000
  150.3884  140.6484  156.6630 O   0  0  0  0  0  0  0  0  0  0  0  0
  149.9888  141.7826  156.4021 C   0  0  0  0  0  0  0  0  0  0  0  0
  149.0195  142.0731  155.5172 N   0  0  0  0  0  0  0  0  0  0  0  0
  148.2910  141.1806  154.6857 C   0  0  0  0  0  0  0  0  0  0  0  0
  148.8250  139.8913  154.4742 C   0  0  0  0  0  0  0  0  0  0  0  0
  148.1268  138.9680  153.6693 C   0  0  0  0  0  0  0  0  0  0  0  0
  146.8913  139.3450  153.0931 C   0  0  0  0  0  0  0  0  0  0  0  0
  146.1163  138.5004  152.2857 N   0  0  0  0  0  0  0  0  0  0  0  0
  146.6559  138.2482  150.9600 C   0  0  0  0  0  0  0  0  0  0  0  0
  145.9047  137.0209  150.4404 C   0  0  0  0  0  0  0  0  0  0  0  0
  145.4012  136.3060  151.6997 C   0  0  0  0  0  0  0  0  0  0  0  0
  145.8454  137.1950  152.8651 C   0  0  0  0  0  0  0  0  0  0  0  0
  146.4060  140.5828  153.3322 N   0  3  0  0  0  0  0  0  0  0  0  0
  147.0446  141.4982  154.0929 C   0  0  0  0  0  0  0  0  0  0  0  0
  150.4559  142.8964  156.9893 N   0  0  0  0  0  0  0  0  0  0  0  0
  151.4849  142.9926  158.0269 C   0  0  2  0  0  0  0  0  0  0  0  0
  151.5614  141.7308  158.9123 C   0  0  0  0  0  0  0  0  0  0  0  0
  152.7110  141.8393  159.9304 C   0  0  0  0  0  0  0  0  0  0  0  0
  152.6247  143.1253  160.7766 C   0  0  2  0  0  0  0  0  0  0  0  0
  151.5280  143.0486  161.6657 O   0  0  0  0  0  0  0  0  0  0  0  0
  152.4980  144.3834  159.8951 C   0  0  0  0  0  0  0  0  0  0  0  0
  151.3460  144.2697  158.8815 C   0  0  0  0  0  0  0  0  0  0  0  0
  148.7353  143.0407  155.4723 H   0  0  0  0  0  0  0  0  0  0  0  0
  149.7673  139.6092  154.9209 H   0  0  0  0  0  0  0  0  0  0  0  0
  148.5385  137.9830  153.5040 H   0  0  0  0  0  0  0  0  0  0  0  0
  146.5121  139.1102  150.3078 H   0  0  0  0  0  0  0  0  0  0  0  0
  147.7250  138.0388  151.0098 H   0  0  0  0  0  0  0  0  0  0  0  0
  145.0575  137.3294  149.8268 H   0  0  0  0  0  0  0  0  0  0  0  0
  146.5445  136.3855  149.8274 H   0  0  0  0  0  0  0  0  0  0  0  0
  144.3137  136.2249  151.6732 H   0  0  0  0  0  0  0  0  0  0  0  0
  145.8064  135.2979  151.7921 H   0  0  0  0  0  0  0  0  0  0  0  0
  146.7445  136.7854  153.3279 H   0  0  0  0  0  0  0  0  0  0  0  0
  145.0737  137.2609  153.6327 H   0  0  0  0  0  0  0  0  0  0  0  0
  146.5242  142.4376  154.2041 H   0  0  0  0  0  0  0  0  0  0  0  0
  150.0516  143.7735  156.6958 H   0  0  0  0  0  0  0  0  0  0  0  0
  152.4274  143.0658  157.4827 H   0  0  0  0  0  0  0  0  0  0  0  0
  150.6240  141.5802  159.4479 H   0  0  0  0  0  0  0  0  0  0  0  0
  151.7063  140.8464  158.2909 H   0  0  0  0  0  0  0  0  0  0  0  0
  152.7225  140.9612  160.5771 H   0  0  0  0  0  0  0  0  0  0  0  0
  153.6604  141.8318  159.3934 H   0  0  0  0  0  0  0  0  0  0  0  0
  153.5233  143.2096  161.3888 H   0  0  0  0  0  0  0  0  0  0  0  0
  151.0380  143.8545  161.6097 H   0  0  0  0  0  0  0  0  0  0  0  0
  152.3640  145.2692  160.5173 H   0  0  0  0  0  0  0  0  0  0  0  0
  153.4326  144.5330  159.3531 H   0  0  0  0  0  0  0  0  0  0  0  0
  151.3364  145.1509  158.2392 H   0  0  0  0  0  0  0  0  0  0  0  0
  150.3966  144.2709  159.4177 H   0  0  0  0  0  0  0  0  0  0  0  0
  145.5092  140.8402  152.9189 H   0  0  0  0  0  0  0  0  0  0  0  0
  1  2  2  0  0  0  0
  2  3  1  0  0  0  0
  2 15  1  0  0  0  0
  3  4  1  0  0  0  0
  3 23  1  0  0  0  0
  4 14  1  0  0  0  0
  4  5  2  0  0  0  0
  5  6  1  0  0  0  0
  5 24  1  0  0  0  0
  6  7  2  0  0  0  0
  6 25  1  0  0  0  0
  7  8  1  0  0  0  0
  7 13  1  0  0  0  0
  8 12  1  0  0  0  0
  8  9  1  0  0  0  0
  9 10  1  0  0  0  0
  9 26  1  0  0  0  0
  9 27  1  0  0  0  0
 10 11  1  0  0  0  0
 10 28  1  0  0  0  0
 10 29  1  0  0  0  0
 11 12  1  0  0  0  0
 11 30  1  0  0  0  0
 11 31  1  0  0  0  0
 12 32  1  0  0  0  0
 12 33  1  0  0  0  0
 13 14  2  0  0  0  0
 13 47  1  0  0  0  0
 14 34  1  0  0  0  0
 15 16  1  0  0  0  0
 15 35  1  0  0  0  0
 16 22  1  0  0  0  0
 16 17  1  0  0  0  0
 16 36  1  0  0  0  0
 17 18  1  0  0  0  0
 17 37  1  0  0  0  0
 17 38  1  0  0  0  0
 18 19  1  0  0  0  0
 18 39  1  0  0  0  0
 18 40  1  0  0  0  0
 19 20  1  0  0  0  0
 19 21  1  0  0  0  0
 19 41  1  0  0  0  0
 20 42  1  0  0  0  0
 21 22  1  0  0  0  0
 21 43  1  0  0  0  0
 21 44  1  0  0  0  0
 22 45  1  0  0  0  0
 22 46  1  0  0  0  0
M  CHG  1  13   1
M  END
> <s_m_source_file>
AV-unprocessed.smi

> <i_m_source_file_index>
1489

> <i_lp_mmshare_version>
43012

> <i_f3d_flags>
0

> <s_epik_input>
W0NIMl0xW0NIMl1bQ0BIXShbT0hdKVtDSDJdW0NIMl1bQ0BIXTFbTkhdQyg9TylbTkhdYzJbY0hdW2NIXWMobltjSF0yKU4zW0NIMl1bQ0gyXVtDSDJdW0NIMl0z

> <s_epik_cmdline>
J2VwaWtfcHl0aG9uJywgJy1waCcsICc3LjAnLCAnLXRuJywgJzgnLCAnLW1hJywgJzIwMCcsICctbWV0YWxfYmluZGluZycsICctaW1hZScsICc8aW5maWxlLm1hZT4nLCAnLW9tYWUnLCAnPG91dGZpbGUubWFlPic=

> <r_lp_tautomer_probability>
0.999994

> <r_epik_Ionization_Penalty>
1.08454

> <r_epik_Ionization_Penalty_Charging>
1.08452

> <r_epik_Ionization_Penalty_Neutral>
2.18252e-05

> <r_epik_State_Penalty>
1.14025

> <r_epik_Charging_Adjusted_Penalty>
2.22477

> <i_epik_Tot_Q>
1

> <i_epik_Tot_abs_Q>
1

> <r_epik_Metal_State_Penalty>
1.22975

> <b_epik_Metal_Only>
0

> <s_lp_Force_Field>
OPLS_2005

> <r_lp_Energy>
45.8336

> <b_lp_Chiralities_Consistent>
1

> <s_lp_Variant>
AV-unprocessed.smi:1489-4

> <Gold.Version>
5.8.1

> <Gold.Id.Protein>
6NUR|6NUR_protein|mol2

> <Gold.PLP.Fitness>
55.4913

> <Gold.PLP.PLP>
-42.9380

> <Gold.PLP.part.hbond>
-4.8456

> <Gold.PLP.part.metal>
0.0000

> <Gold.PLP.part.buried>
1.8244

> <Gold.PLP.part.nonpolar>
-42.4419

> <Gold.PLP.part.repulsive>
0.5378

> <Gold.PLP.ligand.clash>
0.0000

> <Gold.PLP.ligand.torsion>
0.6226

> <Gold.PLP.Chemscore.Hbond>
4.5868

> <Gold.PLP.Chemscore.CHOScore>
0.0000

> <Gold.PLP.Chemscore.Metal>
0.0000

> <Gold.Chemscore.Hbonds>
donor molecule, donor type, donor heavy atom, donor atom, acceptor molecule, acceptor atom, score
      L1  H     3    23       P1  8028  1.00
      L1  H    13    47       P1 10175  2.00
      L1  H    15    35       P1  8028  1.00
      P1  H  6933  6945       L1    20  0.58

> <Gold.PLP.Chemscore.Internal.Correction>
0.0381

> <Gold.Rescore>
     Score         DG    S(hbond)    S(metal)    S(lipo)     H(rot)  DE(clash)    DE(int)     intcor
     19.91     -24.59       2.92        0.00     116.92       1.69       1.39       3.30       ----

> <Gold.Chemscore.Fitness>
19.9082

> <Gold.Chemscore.DG>
-24.5938

> <Gold.Chemscore.ZeroCoef>
-5.4800

> <Gold.Chemscore.Hbond>
2.9247

> <Gold.Chemscore.Metal>
0.0000

> <Gold.Chemscore.Lipo>
116.9160

> <Gold.Chemscore.Internal_Hbond>
0.0000

> <Gold.Chemscore.DEClash>
1.3851

> <Gold.Chemscore.DEInternal>
3.3005

> <Gold.Chemscore.Rot>
1.6929

> <Gold.Chemscore.Internal.Correction>
   9.000000E+99

> <Gold.Chemscore.Hbonds>
donor molecule, donor type, donor heavy atom, donor atom, acceptor molecule, acceptor atom, score
      L1  H     3    23       P1  8028  0.99
      L1  H    13    47       P1 10175  0.43
      L1  H    15    35       P1  8028  0.96
      P1  H  6933  6945       L1    20  0.14

> <Gold.Chemscore.Hbond.Weighted>
-9.7683

> <Gold.Chemscore.Metal.Weighted>
-0.0000

> <Gold.Chemscore.Lipo.Weighted>
-13.6792

> <Gold.Chemscore.Internal_Hbond.Weighted>
0.0000

> <Gold.Chemscore.DEClash.Weighted>
1.3851

> <Gold.Chemscore.DEInternal.Weighted>
3.3005

> <Gold.Chemscore.Rot.Weighted>
4.3338

> <Gold.Chemscore.Internal.Correction.Weighted>
   9.000000E+99

> <Gold.Protein.RotatedTorsions>
[ 6907 6896 6895 6894 ] final -162.58 input  -60.11 | X-H torsion
[ 7974 7965 7964 7962 ] final -171.74 input  175.53 | X-H torsion
[ 8008 7997 7996 7995 ] final   48.33 input   59.86 | X-H torsion
[ 10167 10162 10161 10158 ] final   96.24 input  -65.29 | X-H torsion
[ 10718 10713 10712 10709 ] final  -14.97 input   66.30 | X-H torsion
[ 10763 10752 10751 10750 ] final  -69.23 input  -60.55 | X-H torsion
[ 11005 11000 10999 10996 ] final  -96.90 input  -57.11 | X-H torsion

> <Gold.Protein.ActiveResidues>
 VAL166  LYS551  ARG553  GLY616  TRP617  ASP618  TYR619  PRO620  LYS621  CYS622 
 ASP623  PHE694  ASN695  SER759  ASP760  ASP761  ALA762  ILE779  LEU786  VAL792 
 PHE793  MET794  SER795  GLU796  ALA797  LYS798  CYS799  TRP800  GLU811  SER814 

> <Gold.Protein.RotatedAtoms>
  151.3825  133.3816  159.2711 H   0  0  0  0  0  0  0  0  0  0  0  0  # atno 6907 bound_to 6896
  150.9567  134.8961  159.7716 H   0  0  0  0  0  0  0  0  0  0  0  0  # atno 6908 bound_to 6896
  152.5133  134.3782  159.9394 H   0  0  0  0  0  0  0  0  0  0  0  0  # atno 6909 bound_to 6896
  144.7153  140.1877  143.6352 H   0  0  0  0  0  0  0  0  0  0  0  0  # atno 7974 bound_to 7965
  155.3839  140.3430  155.4248 H   0  0  0  0  0  0  0  0  0  0  0  0  # atno 8008 bound_to 7997
  156.1595  140.1596  156.8669 H   0  0  0  0  0  0  0  0  0  0  0  0  # atno 8009 bound_to 7997
  154.5126  140.0786  156.8001 H   0  0  0  0  0  0  0  0  0  0  0  0  # atno 8010 bound_to 7997
  139.7912  144.6851  150.9889 H   0  0  0  0  0  0  0  0  0  0  0  0  # atno 10167 bound_to 10162
  156.6084  130.4843  149.6211 H   0  0  0  0  0  0  0  0  0  0  0  0  # atno 10718 bound_to 10713
  154.4004  135.6032  153.5894 H   0  0  0  0  0  0  0  0  0  0  0  0  # atno 10763 bound_to 10752
  152.9788  135.5905  154.4191 H   0  0  0  0  0  0  0  0  0  0  0  0  # atno 10764 bound_to 10752
  154.3989  135.2842  155.2087 H   0  0  0  0  0  0  0  0  0  0  0  0  # atno 10765 bound_to 10752
  141.1396  133.8131  157.0633 H   0  0  0  0  0  0  0  0  0  0  0  0  # atno 11005 bound_to 11000
  145.8798  139.2316  143.1612 LP  0  0  0  0  0  0  0  0  0  0  0  0  # atno 17320 bound_to 7965
  146.0006  140.8524  143.0020 LP  0  0  0  0  0  0  0  0  0  0  0  0  # atno 17321 bound_to 7965
  140.7820  143.4378  151.0596 LP  0  0  0  0  0  0  0  0  0  0  0  0  # atno 17342 bound_to 10162
  139.8055  143.8024  152.3167 LP  0  0  0  0  0  0  0  0  0  0  0  0  # atno 17343 bound_to 10162
  156.2410  130.6851  151.1555 LP  0  0  0  0  0  0  0  0  0  0  0  0  # atno 17370 bound_to 10713
  157.7261  131.0649  150.5925 LP  0  0  0  0  0  0  0  0  0  0  0  0  # atno 17371 bound_to 10713
  140.0557  134.9782  157.1216 LP  0  0  0  0  0  0  0  0  0  0  0  0  # atno 17394 bound_to 11000
  140.3923  134.2171  155.7166 LP  0  0  0  0  0  0  0  0  0  0  0  0  # atno 17395 bound_to 11000

$$$$
