AV-unprocessed.smi:3324|AV-procd|sdf|12783|dock2
  -GOLD-   2272019133D 1   1.00000     0.00000
 Structure written by MMmdl.
 30 30  0  0  0  0  0  0  0  0  3 V2000
  143.6236  134.9609  151.7639 O   0  0  0  0  0  0  0  0  0  0  0  0
  144.7941  135.2408  151.4873 C   0  0  0  0  0  0  0  0  0  0  0  0
  145.1738  136.7157  151.3434 C   0  0  0  0  0  0  0  0  0  0  0  0
  146.2108  137.0529  152.3377 N   0  3  0  0  0  0  0  0  0  0  0  0
  146.6161  138.4703  152.3295 C   0  0  0  0  0  0  0  0  0  0  0  0
  147.6216  138.7616  153.4517 C   0  0  0  0  0  0  0  0  0  0  0  0
  147.6032  140.1596  153.8358 N   0  0  0  0  0  0  0  0  0  0  0  0
  146.7014  141.1380  153.4732 C   0  0  0  0  0  0  0  0  0  0  0  0
  147.0909  142.2951  154.0849 C   0  0  0  0  0  0  0  0  0  0  0  0
  148.2572  141.9193  154.8084 C   0  0  0  0  0  0  0  0  0  0  0  0
  148.5604  140.6397  154.6580 N   0  0  0  0  0  0  0  0  0  0  0  0
  145.8713  134.4377  151.2705 N   0  5  0  0  0  0  0  0  0  0  0  0
  145.9585  133.0569  151.7477 C   0  0  0  0  0  0  0  0  0  0  0  0
  145.1934  132.1052  150.8088 C   0  0  0  0  0  0  0  0  0  0  0  0
  145.2258  130.8718  151.3128 F   0  0  0  0  0  0  0  0  0  0  0  0
  143.9187  132.4821  150.6932 F   0  0  0  0  0  0  0  0  0  0  0  0
  145.7559  132.0837  149.5993 F   0  0  0  0  0  0  0  0  0  0  0  0
  145.5517  136.9061  150.3378 H   0  0  0  0  0  0  0  0  0  0  0  0
  144.2936  137.3450  151.4861 H   0  0  0  0  0  0  0  0  0  0  0  0
  145.8446  136.8180  153.2499 H   0  0  0  0  0  0  0  0  0  0  0  0
  147.0567  138.7110  151.3608 H   0  0  0  0  0  0  0  0  0  0  0  0
  145.7298  139.0957  152.4464 H   0  0  0  0  0  0  0  0  0  0  0  0
  147.4012  138.1549  154.3316 H   0  0  0  0  0  0  0  0  0  0  0  0
  148.6327  138.5033  153.1339 H   0  0  0  0  0  0  0  0  0  0  0  0
  145.8670  140.9326  152.8188 H   0  0  0  0  0  0  0  0  0  0  0  0
  146.6154  143.2630  154.0247 H   0  0  0  0  0  0  0  0  0  0  0  0
  148.8876  142.5334  155.4343 H   0  0  0  0  0  0  0  0  0  0  0  0
  146.9952  132.7240  151.8178 H   0  0  0  0  0  0  0  0  0  0  0  0
  145.5496  132.9618  152.7547 H   0  0  0  0  0  0  0  0  0  0  0  0
  147.0192  136.4755  152.1582 H   0  0  0  0  0  0  0  0  0  0  0  0
  1  2  2  0  0  0  0
  2  3  1  0  0  0  0
  2 12  1  0  0  0  0
  3  4  1  0  0  0  0
  3 18  1  0  0  0  0
  3 19  1  0  0  0  0
  4  5  1  0  0  0  0
  4 20  1  0  0  0  0
  4 30  1  0  0  0  0
  5  6  1  0  0  0  0
  5 21  1  0  0  0  0
  5 22  1  0  0  0  0
  6  7  1  0  0  0  0
  6 23  1  0  0  0  0
  6 24  1  0  0  0  0
  7 11  1  0  0  0  0
  7  8  1  0  0  0  0
  8  9  2  0  0  0  0
  8 25  1  0  0  0  0
  9 10  1  0  0  0  0
  9 26  1  0  0  0  0
 10 11  2  0  0  0  0
 10 27  1  0  0  0  0
 12 13  1  0  0  0  0
 13 14  1  0  0  0  0
 13 28  1  0  0  0  0
 13 29  1  0  0  0  0
 14 15  1  0  0  0  0
 14 16  1  0  0  0  0
 14 17  1  0  0  0  0
M  CHG  1   4   1
M  CHG  1  12  -1
M  END
> <s_m_source_file>
AV-unprocessed.smi

> <i_m_source_file_index>
3324

> <i_lp_mmshare_version>
43012

> <i_f3d_flags>
0

> <s_epik_input>
RkMoRikoRilbQ0gyXVtOSF1DKD1PKVtDSDJdW05IXVtDSDJdW0NIMl1uMVtjSF1bY0hdW2NIXW4x

> <s_epik_cmdline>
J2VwaWtfcHl0aG9uJywgJy1waCcsICc3LjAnLCAnLXRuJywgJzgnLCAnLW1hJywgJzIwMCcsICctbWV0YWxfYmluZGluZycsICctaW1hZScsICc8aW5maWxlLm1hZT4nLCAnLW9tYWUnLCAnPG91dGZpbGUubWFlPic=

> <r_lp_tautomer_probability>
1

> <r_epik_Ionization_Penalty>
6.17309

> <r_epik_Ionization_Penalty_Charging>
6.17309

> <r_epik_Ionization_Penalty_Neutral>
2.40201e-06

> <r_epik_State_Penalty>
6.46579

> <r_epik_Charging_Adjusted_Penalty>
12.6389

> <i_epik_Tot_Q>
0

> <i_epik_Tot_abs_Q>
2

> <r_epik_Metal_State_Penalty>
2.40143

> <b_epik_Metal_Only>
1

> <s_lp_Force_Field>
OPLS_2005

> <r_lp_Energy>
2.56422

> <b_lp_Chiralities_Consistent>
1

> <s_lp_Variant>
AV-unprocessed.smi:3324-3

> <Gold.Version>
5.8.1

> <Gold.Id.Protein>
6NUR|6NUR_protein|mol2

> <Gold.PLP.Fitness>
43.3994

> <Gold.PLP.PLP>
-32.4553

> <Gold.PLP.part.hbond>
-1.0000

> <Gold.PLP.part.metal>
0.0000

> <Gold.PLP.part.buried>
0.0582

> <Gold.PLP.part.nonpolar>
-32.3960

> <Gold.PLP.part.repulsive>
0.5005

> <Gold.PLP.ligand.clash>
0.0000

> <Gold.PLP.ligand.torsion>
0.4883

> <Gold.PLP.Chemscore.Hbond>
2.0000

> <Gold.PLP.Chemscore.CHOScore>
1.9011

> <Gold.PLP.Chemscore.Metal>
0.0000

> <Gold.Chemscore.Hbonds>
donor molecule, donor type, donor heavy atom, donor atom, acceptor molecule, acceptor atom, score
      L1  H     4    30       P1  7948  2.00
      L1  C     8    25       P1 10175  1.00
      L1  C    10    27       P1  8028  0.96

> <Gold.PLP.Chemscore.Internal.Correction>
0.2174

> <Gold.Rescore>
     Score         DG    S(hbond)    S(metal)    S(lipo)     H(rot)  DE(clash)    DE(int)     intcor
      5.55      -8.19       0.96        0.00      57.84       2.83       2.18       0.47       ----

> <Gold.Chemscore.Fitness>
5.5481

> <Gold.Chemscore.DG>
-8.1899

> <Gold.Chemscore.ZeroCoef>
-5.4800

> <Gold.Chemscore.Hbond>
0.9576

> <Gold.Chemscore.Metal>
0.0000

> <Gold.Chemscore.Lipo>
57.8384

> <Gold.Chemscore.Internal_Hbond>
0.0000

> <Gold.Chemscore.DEClash>
2.1761

> <Gold.Chemscore.DEInternal>
0.4656

> <Gold.Chemscore.Rot>
2.8342

> <Gold.Chemscore.Internal.Correction>
   9.000000E+99

> <Gold.Chemscore.Hbonds>
donor molecule, donor type, donor heavy atom, donor atom, acceptor molecule, acceptor atom, score
      L1  H     4    30       P1  7948  0.95

> <Gold.Chemscore.Hbond.Weighted>
-3.1983

> <Gold.Chemscore.Metal.Weighted>
-0.0000

> <Gold.Chemscore.Lipo.Weighted>
-6.7671

> <Gold.Chemscore.Internal_Hbond.Weighted>
0.0000

> <Gold.Chemscore.DEClash.Weighted>
2.1761

> <Gold.Chemscore.DEInternal.Weighted>
0.4656

> <Gold.Chemscore.Rot.Weighted>
7.2555

> <Gold.Chemscore.Internal.Correction.Weighted>
   9.000000E+99

> <Gold.Protein.RotatedTorsions>
[ 6907 6896 6895 6894 ] final  126.81 input  -60.11 | X-H torsion
[ 7974 7965 7964 7962 ] final   -0.66 input  175.53 | X-H torsion
[ 8008 7997 7996 7995 ] final  123.80 input   59.86 | X-H torsion
[ 10167 10162 10161 10158 ] final   -8.58 input  -65.29 | X-H torsion
[ 10718 10713 10712 10709 ] final  -13.71 input   66.30 | X-H torsion
[ 10763 10752 10751 10750 ] final -147.83 input  -60.55 | X-H torsion
[ 11005 11000 10999 10996 ] final  118.00 input  -57.11 | X-H torsion

> <Gold.Protein.ActiveResidues>
 VAL166  LYS551  ARG553  GLY616  TRP617  ASP618  TYR619  PRO620  LYS621  CYS622 
 ASP623  PHE694  ASN695  SER759  ASP760  ASP761  ALA762  ILE779  LEU786  VAL792 
 PHE793  MET794  SER795  GLU796  ALA797  LYS798  CYS799  TRP800  GLU811  SER814 

> <Gold.Protein.RotatedAtoms>
  152.3869  133.6624  159.6206 H   0  0  0  0  0  0  0  0  0  0  0  0  # atno 6907 bound_to 6896
  150.7786  133.9019  159.3352 H   0  0  0  0  0  0  0  0  0  0  0  0  # atno 6908 bound_to 6896
  151.6814  135.0962  160.0268 H   0  0  0  0  0  0  0  0  0  0  0  0  # atno 6909 bound_to 6896
  146.2425  140.1303  142.8338 H   0  0  0  0  0  0  0  0  0  0  0  0  # atno 7974 bound_to 7965
  156.2779  140.2754  156.1686 H   0  0  0  0  0  0  0  0  0  0  0  0  # atno 8008 bound_to 7997
  155.0678  140.0387  157.2616 H   0  0  0  0  0  0  0  0  0  0  0  0  # atno 8009 bound_to 7997
  154.7064  140.2660  155.6675 H   0  0  0  0  0  0  0  0  0  0  0  0  # atno 8010 bound_to 7997
  140.7063  143.5953  150.8852 H   0  0  0  0  0  0  0  0  0  0  0  0  # atno 10167 bound_to 10162
  156.6264  130.4889  149.6145 H   0  0  0  0  0  0  0  0  0  0  0  0  # atno 10718 bound_to 10713
  154.8265  135.3350  154.6878 H   0  0  0  0  0  0  0  0  0  0  0  0  # atno 10763 bound_to 10752
  153.7504  135.6939  153.4951 H   0  0  0  0  0  0  0  0  0  0  0  0  # atno 10764 bound_to 10752
  153.2181  135.4458  155.0408 H   0  0  0  0  0  0  0  0  0  0  0  0  # atno 10765 bound_to 10752
  139.9094  134.9616  156.7436 H   0  0  0  0  0  0  0  0  0  0  0  0  # atno 11005 bound_to 11000
  145.0331  140.8887  143.5097 LP  0  0  0  0  0  0  0  0  0  0  0  0  # atno 17320 bound_to 7965
  145.1371  139.2595  143.5509 LP  0  0  0  0  0  0  0  0  0  0  0  0  # atno 17321 bound_to 7965
  139.9678  143.6091  152.2983 LP  0  0  0  0  0  0  0  0  0  0  0  0  # atno 17342 bound_to 10162
  139.6666  144.7662  151.1861 LP  0  0  0  0  0  0  0  0  0  0  0  0  # atno 17343 bound_to 10162
  156.2270  130.6771  151.1425 LP  0  0  0  0  0  0  0  0  0  0  0  0  # atno 17370 bound_to 10713
  157.7213  131.0680  150.6124 LP  0  0  0  0  0  0  0  0  0  0  0  0  # atno 17371 bound_to 10713
  140.6830  133.9458  155.7921 LP  0  0  0  0  0  0  0  0  0  0  0  0  # atno 17394 bound_to 11000
  141.0497  134.0503  157.3800 LP  0  0  0  0  0  0  0  0  0  0  0  0  # atno 17395 bound_to 11000

$$$$
