AV-unprocessed.smi:1218|AV-procd|sdf|5110|dock2
  -GOLD-   22720 4163D 1   1.00000     0.00000
 Structure written by MMmdl.
 44 45  0  0  0  0  0  0  0  0  1 V2000
  151.6017  145.5995  159.8682 C   0  0  0  0  0  0  0  0  0  0  0  0
  152.3075  144.4027  159.2116 C   0  0  0  0  0  0  0  0  0  0  0  0
  151.9369  144.3317  157.7202 C   0  0  0  0  0  0  0  0  0  0  0  0
  151.9713  143.0865  159.9517 C   0  0  0  0  0  0  0  0  0  0  0  0
  152.7572  141.9182  159.5522 N   0  0  0  0  0  0  0  0  0  0  0  0
  153.5303  141.4027  160.6770 C   0  0  0  0  0  0  0  0  0  0  0  0
  154.3641  140.1717  160.2872 C   0  0  0  0  0  0  0  0  0  0  0  0
  153.5043  139.1698  159.7570 O   0  0  0  0  0  0  0  0  0  0  0  0
  152.7759  139.6087  158.6128 C   0  0  1  0  0  0  0  0  0  0  0  0
  151.8947  138.4548  158.1056 C   0  0  0  0  0  0  0  0  0  0  0  0
  151.5402  138.6273  156.7006 N   0  0  0  0  0  0  0  0  0  0  0  0
  151.5461  137.6583  155.7726 C   0  0  0  0  0  0  0  0  0  0  0  0
  151.8442  136.4889  156.0208 O   0  0  0  0  0  0  0  0  0  0  0  0
  151.1554  138.0967  154.3552 C   0  0  0  0  0  0  0  0  0  0  0  0
  150.0875  139.0838  154.3396 N   0  0  0  0  0  0  0  0  0  0  0  0
  148.7716  138.9168  153.9603 C   0  0  0  0  0  0  0  0  0  0  0  0
  148.1480  140.1218  154.1130 C   0  0  0  0  0  0  0  0  0  0  0  0
  149.1772  140.9754  154.5996 C   0  0  0  0  0  0  0  0  0  0  0  0
  150.3360  140.3511  154.7367 N   0  0  0  0  0  0  0  0  0  0  0  0
  151.9356  140.8399  159.0078 C   0  0  0  0  0  0  0  0  0  0  0  0
  150.5174  145.4858  159.8398 H   0  0  0  0  0  0  0  0  0  0  0  0
  151.8523  146.5316  159.3610 H   0  0  0  0  0  0  0  0  0  0  0  0
  151.8988  145.7064  160.9120 H   0  0  0  0  0  0  0  0  0  0  0  0
  153.3797  144.5889  159.2900 H   0  0  0  0  0  0  0  0  0  0  0  0
  150.8631  144.1976  157.5865 H   0  0  0  0  0  0  0  0  0  0  0  0
  152.4357  143.5051  157.2159 H   0  0  0  0  0  0  0  0  0  0  0  0
  152.2223  145.2478  157.2022 H   0  0  0  0  0  0  0  0  0  0  0  0
  152.1395  143.2488  161.0174 H   0  0  0  0  0  0  0  0  0  0  0  0
  150.9055  142.8690  159.8644 H   0  0  0  0  0  0  0  0  0  0  0  0
  154.1940  142.1796  161.0580 H   0  0  0  0  0  0  0  0  0  0  0  0
  152.8595  141.1363  161.4954 H   0  0  0  0  0  0  0  0  0  0  0  0
  155.1268  140.4350  159.5528 H   0  0  0  0  0  0  0  0  0  0  0  0
  154.8818  139.7719  161.1591 H   0  0  0  0  0  0  0  0  0  0  0  0
  153.4800  139.8913  157.8275 H   0  0  0  0  0  0  0  0  0  0  0  0
  152.3830  137.4935  158.2743 H   0  0  0  0  0  0  0  0  0  0  0  0
  150.9645  138.4291  158.6739 H   0  0  0  0  0  0  0  0  0  0  0  0
  151.2848  139.5595  156.4083 H   0  0  0  0  0  0  0  0  0  0  0  0
  152.0245  138.5243  153.8538 H   0  0  0  0  0  0  0  0  0  0  0  0
  150.8484  137.2232  153.7779 H   0  0  0  0  0  0  0  0  0  0  0  0
  148.3950  137.9656  153.6145 H   0  0  0  0  0  0  0  0  0  0  0  0
  147.1147  140.3580  153.9074 H   0  0  0  0  0  0  0  0  0  0  0  0
  149.1167  142.0227  154.8559 H   0  0  0  0  0  0  0  0  0  0  0  0
  151.1794  140.5471  159.7379 H   0  0  0  0  0  0  0  0  0  0  0  0
  151.4022  141.1891  158.1243 H   0  0  0  0  0  0  0  0  0  0  0  0
  1  2  1  0  0  0  0
  1 21  1  0  0  0  0
  1 22  1  0  0  0  0
  1 23  1  0  0  0  0
  2  3  1  0  0  0  0
  2  4  1  0  0  0  0
  2 24  1  0  0  0  0
  3 25  1  0  0  0  0
  3 26  1  0  0  0  0
  3 27  1  0  0  0  0
  4  5  1  0  0  0  0
  4 28  1  0  0  0  0
  4 29  1  0  0  0  0
  5 20  1  0  0  0  0
  5  6  1  0  0  0  0
  6  7  1  0  0  0  0
  6 30  1  0  0  0  0
  6 31  1  0  0  0  0
  7  8  1  0  0  0  0
  7 32  1  0  0  0  0
  7 33  1  0  0  0  0
  8  9  1  0  0  0  0
  9 10  1  0  0  0  0
  9 20  1  0  0  0  0
  9 34  1  0  0  0  0
 10 11  1  0  0  0  0
 10 35  1  0  0  0  0
 10 36  1  0  0  0  0
 11 12  1  0  0  0  0
 11 37  1  0  0  0  0
 12 13  2  0  0  0  0
 12 14  1  0  0  0  0
 14 15  1  0  0  0  0
 14 38  1  0  0  0  0
 14 39  1  0  0  0  0
 15 19  1  0  0  0  0
 15 16  1  0  0  0  0
 16 17  2  0  0  0  0
 16 40  1  0  0  0  0
 17 18  1  0  0  0  0
 17 41  1  0  0  0  0
 18 19  2  0  0  0  0
 18 42  1  0  0  0  0
 20 43  1  0  0  0  0
 20 44  1  0  0  0  0
M  END
> <s_m_source_file>
AV-unprocessed.smi

> <i_m_source_file_index>
1218

> <i_lp_mmshare_version>
43012

> <i_f3d_flags>
0

> <s_epik_input>
W0NIM11bQ0hdKFtDSDNdKVtDSDJdTjFbQ0gyXVtDSDJdT1tDQEhdKFtDSDJdMSlbQ0gyXVtOSF1DKD1PKVtDSDJdbjJbY0hdW2NIXVtjSF1uMg==

> <s_epik_cmdline>
J2VwaWtfcHl0aG9uJywgJy1waCcsICc3LjAnLCAnLXRuJywgJzgnLCAnLW1hJywgJzIwMCcsICctbWV0YWxfYmluZGluZycsICctaW1hZScsICc8aW5maWxlLm1hZT4nLCAnLW9tYWUnLCAnPG91dGZpbGUubWFlPic=

> <r_lp_tautomer_probability>
1

> <r_epik_Ionization_Penalty>
1.10621

> <r_epik_Ionization_Penalty_Charging>
0

> <r_epik_Ionization_Penalty_Neutral>
1.10621

> <r_epik_State_Penalty>
1.16377

> <r_epik_Charging_Adjusted_Penalty>
1.16377

> <i_epik_Tot_Q>
0

> <i_epik_Tot_abs_Q>
0

> <r_epik_Metal_State_Penalty>
1.16377

> <b_epik_Metal_Only>
0

> <s_lp_Force_Field>
OPLS_2005

> <r_lp_Energy>
27.1639

> <b_lp_Chiralities_Consistent>
1

> <s_lp_Variant>
AV-unprocessed.smi:1218-5

> <Gold.Version>
5.8.1

> <Gold.Id.Protein>
6NUR|6NUR_protein|mol2

> <Gold.PLP.Fitness>
53.1718

> <Gold.PLP.PLP>
-45.9651

> <Gold.PLP.part.hbond>
-2.0000

> <Gold.PLP.part.metal>
0.0000

> <Gold.PLP.part.buried>
-4.3784

> <Gold.PLP.part.nonpolar>
-39.8691

> <Gold.PLP.part.repulsive>
0.1682

> <Gold.PLP.ligand.clash>
0.0000

> <Gold.PLP.ligand.torsion>
1.5671

> <Gold.PLP.Chemscore.Hbond>
1.9500

> <Gold.PLP.Chemscore.CHOScore>
1.4341

> <Gold.PLP.Chemscore.Metal>
0.0000

> <Gold.Chemscore.Hbonds>
donor molecule, donor type, donor heavy atom, donor atom, acceptor molecule, acceptor atom, score
      P1  H  7989  7998       L1    19  1.00
      P1  H 10752 10765       L1    13  1.00
      L1  C    16    40       P1  7948  1.00
      L1  C    18    42       P1  8028  0.29

> <Gold.PLP.Chemscore.Internal.Correction>
0.1887

> <Gold.Rescore>
     Score         DG    S(hbond)    S(metal)    S(lipo)     H(rot)  DE(clash)    DE(int)     intcor
     18.04     -19.75       1.88        0.00     109.72       1.90       0.00       1.71       ----

> <Gold.Chemscore.Fitness>
18.0399

> <Gold.Chemscore.DG>
-19.7516

> <Gold.Chemscore.ZeroCoef>
-5.4800

> <Gold.Chemscore.Hbond>
1.8833

> <Gold.Chemscore.Metal>
0.0000

> <Gold.Chemscore.Lipo>
109.7247

> <Gold.Chemscore.Internal_Hbond>
0.0000

> <Gold.Chemscore.DEClash>
0.0009

> <Gold.Chemscore.DEInternal>
1.7108

> <Gold.Chemscore.Rot>
1.8970

> <Gold.Chemscore.Internal.Correction>
   9.000000E+99

> <Gold.Chemscore.Hbonds>
donor molecule, donor type, donor heavy atom, donor atom, acceptor molecule, acceptor atom, score
      P1  H  7989  7998       L1    19  0.25
      P1  H 10752 10765       L1    13  0.92

> <Gold.Chemscore.Hbond.Weighted>
-6.2902

> <Gold.Chemscore.Metal.Weighted>
-0.0000

> <Gold.Chemscore.Lipo.Weighted>
-12.8378

> <Gold.Chemscore.Internal_Hbond.Weighted>
0.0000

> <Gold.Chemscore.DEClash.Weighted>
0.0009

> <Gold.Chemscore.DEInternal.Weighted>
1.7108

> <Gold.Chemscore.Rot.Weighted>
4.8564

> <Gold.Chemscore.Internal.Correction.Weighted>
   9.000000E+99

> <Gold.Protein.RotatedTorsions>
[ 6907 6896 6895 6894 ] final  -52.63 input  -60.11 | X-H torsion
[ 7974 7965 7964 7962 ] final -154.38 input  175.53 | X-H torsion
[ 8008 7997 7996 7995 ] final -147.68 input   59.86 | X-H torsion
[ 10167 10162 10161 10158 ] final  130.86 input  -65.29 | X-H torsion
[ 10718 10713 10712 10709 ] final  -99.36 input   66.30 | X-H torsion
[ 10763 10752 10751 10750 ] final -173.20 input  -60.55 | X-H torsion
[ 11005 11000 10999 10996 ] final  -92.30 input  -57.11 | X-H torsion

> <Gold.Protein.ActiveResidues>
 VAL166  LYS551  ARG553  GLY616  TRP617  ASP618  TYR619  PRO620  LYS621  CYS622 
 ASP623  PHE694  ASN695  SER759  ASP760  ASP761  ALA762  ILE779  LEU786  VAL792 
 PHE793  MET794  SER795  GLU796  ALA797  LYS798  CYS799  TRP800  GLU811  SER814 

> <Gold.Protein.RotatedAtoms>
  150.8500  134.7821  159.7000 H   0  0  0  0  0  0  0  0  0  0  0  0  # atno 6907 bound_to 6896
  152.4567  134.5272  159.9810 H   0  0  0  0  0  0  0  0  0  0  0  0  # atno 6908 bound_to 6896
  151.5395  133.3397  159.2968 H   0  0  0  0  0  0  0  0  0  0  0  0  # atno 6909 bound_to 6896
  144.7692  140.4395  143.5919 H   0  0  0  0  0  0  0  0  0  0  0  0  # atno 7974 bound_to 7965
  155.5794  140.0642  157.2787 H   0  0  0  0  0  0  0  0  0  0  0  0  # atno 8008 bound_to 7997
  154.4337  140.1855  156.1007 H   0  0  0  0  0  0  0  0  0  0  0  0  # atno 8009 bound_to 7997
  156.0316  140.3306  155.7150 H   0  0  0  0  0  0  0  0  0  0  0  0  # atno 8010 bound_to 7997
  139.5410  144.6730  151.4624 H   0  0  0  0  0  0  0  0  0  0  0  0  # atno 10167 bound_to 10162
  156.0132  130.5279  150.6659 H   0  0  0  0  0  0  0  0  0  0  0  0  # atno 10718 bound_to 10713
  154.6106  135.2864  155.0436 H   0  0  0  0  0  0  0  0  0  0  0  0  # atno 10763 bound_to 10752
  154.1667  135.6479  153.5003 H   0  0  0  0  0  0  0  0  0  0  0  0  # atno 10764 bound_to 10752
  153.0193  135.5391  154.6858 H   0  0  0  0  0  0  0  0  0  0  0  0  # atno 10765 bound_to 10752
  141.1525  133.7812  157.0001 H   0  0  0  0  0  0  0  0  0  0  0  0  # atno 11005 bound_to 11000
  145.6376  139.1545  143.2934 LP  0  0  0  0  0  0  0  0  0  0  0  0  # atno 17320 bound_to 7965
  146.1825  140.6475  142.9183 LP  0  0  0  0  0  0  0  0  0  0  0  0  # atno 17321 bound_to 7965
  140.6640  143.8438  150.6920 LP  0  0  0  0  0  0  0  0  0  0  0  0  # atno 17342 bound_to 10162
  140.1841  143.4090  152.1911 LP  0  0  0  0  0  0  0  0  0  0  0  0  # atno 17343 bound_to 10162
  157.4391  131.0859  151.0961 LP  0  0  0  0  0  0  0  0  0  0  0  0  # atno 17370 bound_to 10713
  157.1511  130.6184  149.5582 LP  0  0  0  0  0  0  0  0  0  0  0  0  # atno 17371 bound_to 10713
  140.0946  134.9572  157.1829 LP  0  0  0  0  0  0  0  0  0  0  0  0  # atno 17394 bound_to 11000
  140.3400  134.2714  155.7213 LP  0  0  0  0  0  0  0  0  0  0  0  0  # atno 17395 bound_to 11000

$$$$
