AV-unprocessed.smi:274|AV-procd|sdf|2060|dock4
  -GOLD-   2262021303D 1   1.00000     0.00000
 Structure written by MMmdl.
 50 53  0  0  0  0  0  0  0  0  1 V2000
  151.6022  141.7058  156.7905 C   0  0  0  0  0  0  0  0  0  0  0  0
  150.0700  141.8024  156.6467 C   0  0  0  0  0  0  0  0  0  0  0  0
  149.4723  142.2882  157.9830 C   0  0  0  0  0  0  0  0  0  0  0  0
  149.4068  140.4764  156.1564 C   0  0  2  0  0  0  0  0  0  0  0  0
  149.7569  140.1422  154.6839 C   0  0  0  0  0  0  0  0  0  0  0  0
  150.8615  139.6803  154.4057 O   0  0  0  0  0  0  0  0  0  0  0  0
  148.8271  140.3332  153.7304 N   0  0  0  0  0  0  0  0  0  0  0  0
  147.4551  140.7954  153.9420 C   0  0  0  0  0  0  0  0  0  0  0  0
  147.2034  141.3315  155.3627 C   0  0  0  0  0  0  0  0  0  0  0  0
  147.9477  140.5473  156.3453 N   0  0  0  0  0  0  0  0  0  0  0  0
  147.2887  139.4536  156.8092 C   0  0  0  0  0  0  0  0  0  0  0  0
  146.0279  139.1795  156.3800 N   0  0  0  0  0  0  0  0  0  0  0  0
  145.3707  138.1166  156.8526 C   0  0  0  0  0  0  0  0  0  0  0  0
  145.7777  137.2141  157.7472 N   0  0  0  0  0  0  0  0  0  0  0  0
  147.0423  137.4833  158.1815 C   0  0  0  0  0  0  0  0  0  0  0  0
  147.8628  138.5684  157.7633 C   0  0  0  0  0  0  0  0  0  0  0  0
  149.0941  138.5064  158.4042 N   0  0  0  0  0  0  0  0  0  0  0  0
  149.0040  137.4485  159.1629 C   0  0  0  0  0  0  0  0  0  0  0  0
  147.7996  136.7834  159.1053 N   0  0  0  0  0  0  0  0  0  0  0  0
  147.4254  135.5859  159.8432 C   0  0  0  0  0  0  0  0  0  0  0  0
  146.9862  135.8514  161.3066 C   0  0  2  0  0  0  0  0  0  0  0  0
  147.4352  137.1329  161.7072 O   0  0  0  0  0  0  0  0  0  0  0  0
  147.4866  134.8096  162.3104 C   0  0  0  0  0  0  0  0  0  0  0  0
  146.2817  133.8972  162.4876 C   0  0  0  0  0  0  0  0  0  0  0  0
  145.2047  134.8161  162.4830 O   0  0  0  0  0  0  0  0  0  0  0  0
  145.4531  135.7718  161.4595 C   0  0  0  0  0  0  0  0  0  0  0  0
  151.8869  140.8847  157.4489 H   0  0  0  0  0  0  0  0  0  0  0  0
  152.0154  142.6234  157.2100 H   0  0  0  0  0  0  0  0  0  0  0  0
  152.0959  141.5559  155.8309 H   0  0  0  0  0  0  0  0  0  0  0  0
  149.8763  142.5818  155.9089 H   0  0  0  0  0  0  0  0  0  0  0  0
  149.5915  141.5369  158.7642 H   0  0  0  0  0  0  0  0  0  0  0  0
  148.4094  142.5151  157.8980 H   0  0  0  0  0  0  0  0  0  0  0  0
  149.9613  143.2010  158.3243 H   0  0  0  0  0  0  0  0  0  0  0  0
  149.8153  139.6756  156.7754 H   0  0  0  0  0  0  0  0  0  0  0  0
  149.0832  140.1030  152.7813 H   0  0  0  0  0  0  0  0  0  0  0  0
  147.2015  141.5500  153.1976 H   0  0  0  0  0  0  0  0  0  0  0  0
  146.7997  139.9431  153.7592 H   0  0  0  0  0  0  0  0  0  0  0  0
  147.5334  142.3681  155.4273 H   0  0  0  0  0  0  0  0  0  0  0  0
  146.1328  141.3528  155.5684 H   0  0  0  0  0  0  0  0  0  0  0  0
  144.3756  137.9697  156.4595 H   0  0  0  0  0  0  0  0  0  0  0  0
  149.8192  137.1250  159.7938 H   0  0  0  0  0  0  0  0  0  0  0  0
  146.6207  135.0913  159.2971 H   0  0  0  0  0  0  0  0  0  0  0  0
  148.2717  134.8980  159.8244 H   0  0  0  0  0  0  0  0  0  0  0  0
  147.1101  137.3054  162.5776 H   0  0  0  0  0  0  0  0  0  0  0  0
  148.3770  134.2677  161.9967 H   0  0  0  0  0  0  0  0  0  0  0  0
  147.7138  135.2755  163.2708 H   0  0  0  0  0  0  0  0  0  0  0  0
  146.1842  133.2050  161.6496 H   0  0  0  0  0  0  0  0  0  0  0  0
  146.3185  133.3220  163.4128 H   0  0  0  0  0  0  0  0  0  0  0  0
  144.9940  136.7275  161.7154 H   0  0  0  0  0  0  0  0  0  0  0  0
  144.9817  135.4210  160.5407 H   0  0  0  0  0  0  0  0  0  0  0  0
  1  2  1  0  0  0  0
  1 27  1  0  0  0  0
  1 28  1  0  0  0  0
  1 29  1  0  0  0  0
  2  3  1  0  0  0  0
  2  4  1  0  0  0  0
  2 30  1  0  0  0  0
  3 31  1  0  0  0  0
  3 32  1  0  0  0  0
  3 33  1  0  0  0  0
  4 10  1  0  0  0  0
  4  5  1  0  0  0  0
  4 34  1  0  0  0  0
  5  6  2  0  0  0  0
  5  7  1  0  0  0  0
  7  8  1  0  0  0  0
  7 35  1  0  0  0  0
  8  9  1  0  0  0  0
  8 36  1  0  0  0  0
  8 37  1  0  0  0  0
  9 10  1  0  0  0  0
  9 38  1  0  0  0  0
  9 39  1  0  0  0  0
 10 11  1  0  0  0  0
 11 16  1  0  0  0  0
 11 12  2  0  0  0  0
 12 13  1  0  0  0  0
 13 14  2  0  0  0  0
 13 40  1  0  0  0  0
 14 15  1  0  0  0  0
 15 19  1  0  0  0  0
 15 16  2  0  0  0  0
 16 17  1  0  0  0  0
 17 18  2  0  0  0  0
 18 19  1  0  0  0  0
 18 41  1  0  0  0  0
 19 20  1  0  0  0  0
 20 21  1  0  0  0  0
 20 42  1  0  0  0  0
 20 43  1  0  0  0  0
 21 26  1  0  0  0  0
 21 22  1  0  0  0  0
 21 23  1  0  0  0  0
 22 44  1  0  0  0  0
 23 24  1  0  0  0  0
 23 45  1  0  0  0  0
 23 46  1  0  0  0  0
 24 25  1  0  0  0  0
 24 47  1  0  0  0  0
 24 48  1  0  0  0  0
 25 26  1  0  0  0  0
 26 49  1  0  0  0  0
 26 50  1  0  0  0  0
M  END
> <s_m_source_file>
AV-unprocessed.smi

> <i_m_source_file_index>
274

> <i_lp_mmshare_version>
43012

> <i_f3d_flags>
0

> <s_epik_input>
W0NIM11bQ0hdKFtDSDNdKVtDQEBIXTFDKD1PKVtOSF1bQ0gyXVtDSDJdTjFjKG5bY0hdbjIpYyhjMjMpbltjSF1uM1tDSDJdW0NAQF00KFtPSF0pW0NIMl1bQ0gyXU9bQ0gyXTQ=

> <s_epik_cmdline>
J2VwaWtfcHl0aG9uJywgJy1waCcsICc3LjAnLCAnLXRuJywgJzgnLCAnLW1hJywgJzIwMCcsICctbWV0YWxfYmluZGluZycsICctaW1hZScsICc8aW5maWxlLm1hZT4nLCAnLW9tYWUnLCAnPG91dGZpbGUubWFlPic=

> <r_lp_tautomer_probability>
1

> <r_epik_Ionization_Penalty>
0.000690079

> <r_epik_Ionization_Penalty_Charging>
0

> <r_epik_Ionization_Penalty_Neutral>
0.000690079

> <r_epik_State_Penalty>
0.000321372

> <r_epik_Charging_Adjusted_Penalty>
0.000321372

> <i_epik_Tot_Q>
0

> <i_epik_Tot_abs_Q>
0

> <r_epik_Metal_State_Penalty>
-0

> <b_epik_Metal_Only>
0

> <s_lp_Force_Field>
OPLS_2005

> <r_lp_Energy>
42.4

> <b_lp_Chiralities_Consistent>
1

> <s_lp_Variant>
AV-unprocessed.smi:274-3

> <Gold.Version>
5.8.1

> <Gold.Id.Protein>
6NUR|6NUR_protein|mol2

> <Gold.PLP.Fitness>
39.9251

> <Gold.PLP.PLP>
-32.0124

> <Gold.PLP.part.hbond>
-4.0093

> <Gold.PLP.part.metal>
0.0000

> <Gold.PLP.part.buried>
-6.3542

> <Gold.PLP.part.nonpolar>
-22.0643

> <Gold.PLP.part.repulsive>
0.3183

> <Gold.PLP.ligand.clash>
0.0000

> <Gold.PLP.ligand.torsion>
1.6861

> <Gold.PLP.Chemscore.Hbond>
3.5656

> <Gold.PLP.Chemscore.CHOScore>
0.0000

> <Gold.PLP.Chemscore.Metal>
0.0000

> <Gold.Chemscore.Hbonds>
donor molecule, donor type, donor heavy atom, donor atom, acceptor molecule, acceptor atom, score
      L1  H     7    35       P1  7957  1.00
      P1  H  6931  6943       L1    22  0.67
      P1  H  6934  6947       L1    22  0.65
      P1  H  7989  7998       L1     6  1.00

> <Gold.PLP.Chemscore.Internal.Correction>
0.5883

> <Gold.Rescore>
     Score         DG    S(hbond)    S(metal)    S(lipo)     H(rot)  DE(clash)    DE(int)     intcor
     12.55     -16.19       2.69        0.00      69.41       2.50       0.45       3.19       ----

> <Gold.Chemscore.Fitness>
12.5519

> <Gold.Chemscore.DG>
-16.1897

> <Gold.Chemscore.ZeroCoef>
-5.4800

> <Gold.Chemscore.Hbond>
2.6903

> <Gold.Chemscore.Metal>
0.0000

> <Gold.Chemscore.Lipo>
69.4100

> <Gold.Chemscore.Internal_Hbond>
0.0000

> <Gold.Chemscore.DEClash>
0.4500

> <Gold.Chemscore.DEInternal>
3.1878

> <Gold.Chemscore.Rot>
2.4988

> <Gold.Chemscore.Internal.Correction>
   9.000000E+99

> <Gold.Chemscore.Hbonds>
donor molecule, donor type, donor heavy atom, donor atom, acceptor molecule, acceptor atom, score
      L1  H     7    35       P1  7957  1.00
      P1  H  6931  6943       L1    22  0.07
      P1  H  6934  6947       L1    22  0.11
      P1  H  7989  7998       L1     6  0.55

> <Gold.Chemscore.Hbond.Weighted>
-8.9857

> <Gold.Chemscore.Metal.Weighted>
-0.0000

> <Gold.Chemscore.Lipo.Weighted>
-8.1210

> <Gold.Chemscore.Internal_Hbond.Weighted>
0.0000

> <Gold.Chemscore.DEClash.Weighted>
0.4500

> <Gold.Chemscore.DEInternal.Weighted>
3.1878

> <Gold.Chemscore.Rot.Weighted>
6.3970

> <Gold.Chemscore.Internal.Correction.Weighted>
   9.000000E+99

> <Gold.Protein.RotatedTorsions>
[ 6907 6896 6895 6894 ] final   79.13 input  -60.11 | X-H torsion
[ 7974 7965 7964 7962 ] final  -23.18 input  175.53 | X-H torsion
[ 8008 7997 7996 7995 ] final -150.29 input   59.86 | X-H torsion
[ 10167 10162 10161 10158 ] final -143.14 input  -65.29 | X-H torsion
[ 10718 10713 10712 10709 ] final -134.82 input   66.30 | X-H torsion
[ 10763 10752 10751 10750 ] final   55.53 input  -60.55 | X-H torsion
[ 11005 11000 10999 10996 ] final -160.85 input  -57.11 | X-H torsion

> <Gold.Protein.ActiveResidues>
 VAL166  LYS551  ARG553  GLY616  TRP617  ASP618  TYR619  PRO620  LYS621  CYS622 
 ASP623  PHE694  ASN695  SER759  ASP760  ASP761  ALA762  ILE779  LEU786  VAL792 
 PHE793  MET794  SER795  GLU796  ALA797  LYS798  CYS799  TRP800  GLU811  SER814 

> <Gold.Protein.RotatedAtoms>
  152.5187  134.3558  159.9266 H   0  0  0  0  0  0  0  0  0  0  0  0  # atno 6907 bound_to 6896
  151.3509  133.3919  159.2688 H   0  0  0  0  0  0  0  0  0  0  0  0  # atno 6908 bound_to 6896
  150.9727  134.9116  159.7856 H   0  0  0  0  0  0  0  0  0  0  0  0  # atno 6909 bound_to 6896
  146.1632  140.4581  142.8563 H   0  0  0  0  0  0  0  0  0  0  0  0  # atno 7974 bound_to 7965
  155.6212  140.0681  157.2677 H   0  0  0  0  0  0  0  0  0  0  0  0  # atno 8008 bound_to 7997
  154.4229  140.1784  156.1422 H   0  0  0  0  0  0  0  0  0  0  0  0  # atno 8009 bound_to 7997
  156.0008  140.3336  155.6847 H   0  0  0  0  0  0  0  0  0  0  0  0  # atno 8010 bound_to 7997
  139.8021  143.7819  152.2659 H   0  0  0  0  0  0  0  0  0  0  0  0  # atno 10167 bound_to 10162
  156.2595  130.7201  151.1130 H   0  0  0  0  0  0  0  0  0  0  0  0  # atno 10718 bound_to 10713
  152.9818  135.5707  154.5081 H   0  0  0  0  0  0  0  0  0  0  0  0  # atno 10763 bound_to 10752
  154.4590  135.2781  155.1729 H   0  0  0  0  0  0  0  0  0  0  0  0  # atno 10764 bound_to 10752
  154.3324  135.6246  153.5611 H   0  0  0  0  0  0  0  0  0  0  0  0  # atno 10765 bound_to 10752
  140.6269  134.4692  157.5227 H   0  0  0  0  0  0  0  0  0  0  0  0  # atno 11005 bound_to 11000
  144.8055  140.6292  143.6450 LP  0  0  0  0  0  0  0  0  0  0  0  0  # atno 17320 bound_to 7965
  145.4536  139.1521  143.3905 LP  0  0  0  0  0  0  0  0  0  0  0  0  # atno 17321 bound_to 7965
  139.7942  144.7399  150.9913 LP  0  0  0  0  0  0  0  0  0  0  0  0  # atno 17342 bound_to 10162
  140.7820  143.4411  151.0551 LP  0  0  0  0  0  0  0  0  0  0  0  0  # atno 17343 bound_to 10162
  157.7245  131.0659  150.5991 LP  0  0  0  0  0  0  0  0  0  0  0  0  # atno 17370 bound_to 10713
  156.6078  130.4372  149.5871 LP  0  0  0  0  0  0  0  0  0  0  0  0  # atno 17371 bound_to 10713
  139.9131  134.8303  156.1459 LP  0  0  0  0  0  0  0  0  0  0  0  0  # atno 17394 bound_to 11000
  141.0703  133.6800  156.2126 LP  0  0  0  0  0  0  0  0  0  0  0  0  # atno 17395 bound_to 11000

$$$$
