AV-unprocessed.smi:848|AV-procd|sdf|3942|dock7
  -GOLD-   22720 1413D 1   1.00000     0.00000
 Structure written by MMmdl.
 47 49  0  0  0  0  0  0  0  0  2 V2000
  147.6852  133.4296  157.9595 C   0  0  0  0  0  0  0  0  0  0  0  0
  147.8790  134.3480  159.1486 C   0  0  0  0  0  0  0  0  0  0  0  0
  147.2848  134.0400  160.3886 C   0  0  0  0  0  0  0  0  0  0  0  0
  147.4663  134.8975  161.4907 C   0  0  0  0  0  0  0  0  0  0  0  0
  146.8245  134.5626  162.8213 C   0  0  0  0  0  0  0  0  0  0  0  0
  148.2426  136.0656  161.3475 C   0  0  0  0  0  0  0  0  0  0  0  0
  148.8447  136.3883  160.1142 C   0  0  0  0  0  0  0  0  0  0  0  0
  149.5879  137.5483  160.0682 O   0  0  0  0  0  0  0  0  0  0  0  0
  149.9508  138.0687  158.7962 C   0  0  0  0  0  0  0  0  0  0  0  0
  151.3628  138.6673  158.8949 C   0  0  1  0  0  0  0  0  0  0  0  0
  152.2559  137.6417  159.2820 O   0  0  0  0  0  0  0  0  0  0  0  0
  151.8283  139.2693  157.5537 C   0  0  0  0  0  0  0  0  0  0  0  0
  151.4339  140.6791  157.3889 N   0  0  0  0  0  0  0  0  0  0  0  0
  150.6111  141.2592  156.4671 C   0  0  0  0  0  0  0  0  0  0  0  0
  149.8793  140.5774  155.3579 C   0  0  0  0  0  0  0  0  0  0  0  0
  150.7417  139.8496  154.5120 O   0  0  0  0  0  0  0  0  0  0  0  0
  150.5677  142.5923  156.7467 N   0  3  0  0  0  0  0  0  0  0  0  0
  151.3688  142.8698  157.8544 C   0  0  0  0  0  0  0  0  0  0  0  0
  151.6376  144.0701  158.5053 C   0  0  0  0  0  0  0  0  0  0  0  0
  152.5019  144.0070  159.6180 C   0  0  0  0  0  0  0  0  0  0  0  0
  153.0612  142.7850  160.0442 C   0  0  0  0  0  0  0  0  0  0  0  0
  152.7819  141.5750  159.3755 C   0  0  0  0  0  0  0  0  0  0  0  0
  151.9279  141.6453  158.2745 C   0  0  0  0  0  0  0  0  0  0  0  0
  148.6547  135.5174  159.0116 C   0  0  0  0  0  0  0  0  0  0  0  0
  147.2118  132.4927  158.2541 H   0  0  0  0  0  0  0  0  0  0  0  0
  148.6456  133.1936  157.5006 H   0  0  0  0  0  0  0  0  0  0  0  0
  147.0553  133.9109  157.2113 H   0  0  0  0  0  0  0  0  0  0  0  0
  146.6882  133.1457  160.4968 H   0  0  0  0  0  0  0  0  0  0  0  0
  147.2186  135.1905  163.6212 H   0  0  0  0  0  0  0  0  0  0  0  0
  147.0142  133.5213  163.0840 H   0  0  0  0  0  0  0  0  0  0  0  0
  145.7461  134.7130  162.7679 H   0  0  0  0  0  0  0  0  0  0  0  0
  148.3808  136.7257  162.1914 H   0  0  0  0  0  0  0  0  0  0  0  0
  149.9076  137.3050  158.0173 H   0  0  0  0  0  0  0  0  0  0  0  0
  149.2413  138.8551  158.5329 H   0  0  0  0  0  0  0  0  0  0  0  0
  151.3741  139.4477  159.6562 H   0  0  0  0  0  0  0  0  0  0  0  0
  153.1380  137.9749  159.2134 H   0  0  0  0  0  0  0  0  0  0  0  0
  152.9077  139.1786  157.4324 H   0  0  0  0  0  0  0  0  0  0  0  0
  151.3882  138.7131  156.7258 H   0  0  0  0  0  0  0  0  0  0  0  0
  149.1386  139.8959  155.7771 H   0  0  0  0  0  0  0  0  0  0  0  0
  149.3359  141.3154  154.7680 H   0  0  0  0  0  0  0  0  0  0  0  0
  150.9865  139.0481  154.9490 H   0  0  0  0  0  0  0  0  0  0  0  0
  151.2084  145.0072  158.1821 H   0  0  0  0  0  0  0  0  0  0  0  0
  152.7384  144.9132  160.1566 H   0  0  0  0  0  0  0  0  0  0  0  0
  153.7167  142.7747  160.9029 H   0  0  0  0  0  0  0  0  0  0  0  0
  153.2099  140.6443  159.7171 H   0  0  0  0  0  0  0  0  0  0  0  0
  149.0949  135.7265  158.0485 H   0  0  0  0  0  0  0  0  0  0  0  0
  150.0231  143.2615  156.2180 H   0  0  0  0  0  0  0  0  0  0  0  0
  1  2  1  0  0  0  0
  1 25  1  0  0  0  0
  1 26  1  0  0  0  0
  1 27  1  0  0  0  0
  2 24  1  0  0  0  0
  2  3  2  0  0  0  0
  3  4  1  0  0  0  0
  3 28  1  0  0  0  0
  4  5  1  0  0  0  0
  4  6  2  0  0  0  0
  5 29  1  0  0  0  0
  5 30  1  0  0  0  0
  5 31  1  0  0  0  0
  6  7  1  0  0  0  0
  6 32  1  0  0  0  0
  7  8  1  0  0  0  0
  7 24  2  0  0  0  0
  8  9  1  0  0  0  0
  9 10  1  0  0  0  0
  9 33  1  0  0  0  0
  9 34  1  0  0  0  0
 10 11  1  0  0  0  0
 10 12  1  0  0  0  0
 10 35  1  0  0  0  0
 11 36  1  0  0  0  0
 12 13  1  0  0  0  0
 12 37  1  0  0  0  0
 12 38  1  0  0  0  0
 13 23  1  0  0  0  0
 13 14  1  0  0  0  0
 14 15  1  0  0  0  0
 14 17  2  0  0  0  0
 15 16  1  0  0  0  0
 15 39  1  0  0  0  0
 15 40  1  0  0  0  0
 16 41  1  0  0  0  0
 17 18  1  0  0  0  0
 17 47  1  0  0  0  0
 18 23  2  0  0  0  0
 18 19  1  0  0  0  0
 19 20  2  0  0  0  0
 19 42  1  0  0  0  0
 20 21  1  0  0  0  0
 20 43  1  0  0  0  0
 21 22  2  0  0  0  0
 21 44  1  0  0  0  0
 22 23  1  0  0  0  0
 22 45  1  0  0  0  0
 24 46  1  0  0  0  0
M  CHG  1  17   1
M  END
> <s_m_source_file>
AV-unprocessed.smi

> <i_m_source_file_index>
848

> <i_lp_mmshare_version>
43012

> <i_f3d_flags>
0

> <s_epik_input>
W0NIM11jMVtjSF1jKFtDSDNdKVtjSF1jKFtjSF0xKU9bQ0gyXVtDQEhdKFtPSF0pW0NIMl1uKGMobjIpW0NIMl1bT0hdKWMoYzIzKVtjSF1bY0hdW2NIXVtjSF0z

> <s_epik_cmdline>
J2VwaWtfcHl0aG9uJywgJy1waCcsICc3LjAnLCAnLXRuJywgJzgnLCAnLW1hJywgJzIwMCcsICctbWV0YWxfYmluZGluZycsICctaW1hZScsICc8aW5maWxlLm1hZT4nLCAnLW9tYWUnLCAnPG91dGZpbGUubWFlPic=

> <r_lp_tautomer_probability>
1

> <r_epik_Ionization_Penalty>
1.43292

> <r_epik_Ionization_Penalty_Charging>
1.43206

> <r_epik_Ionization_Penalty_Neutral>
0.000858184

> <r_epik_State_Penalty>
1.51673

> <r_epik_Charging_Adjusted_Penalty>
2.94879

> <i_epik_Tot_Q>
1

> <i_epik_Tot_abs_Q>
1

> <r_epik_Metal_State_Penalty>
5.56186

> <b_epik_Metal_Only>
0

> <s_lp_Force_Field>
OPLS_2005

> <r_lp_Energy>
19.6511

> <b_lp_Chiralities_Consistent>
1

> <s_lp_Variant>
AV-unprocessed.smi:848-4

> <Gold.Version>
5.8.1

> <Gold.Id.Protein>
6NUR|6NUR_protein|mol2

> <Gold.PLP.Fitness>
55.6074

> <Gold.PLP.PLP>
-47.6502

> <Gold.PLP.part.hbond>
-3.0554

> <Gold.PLP.part.metal>
0.0000

> <Gold.PLP.part.buried>
-6.9515

> <Gold.PLP.part.nonpolar>
-39.0016

> <Gold.PLP.part.repulsive>
0.0462

> <Gold.PLP.ligand.clash>
0.0000

> <Gold.PLP.ligand.torsion>
0.7898

> <Gold.PLP.Chemscore.Hbond>
3.1690

> <Gold.PLP.Chemscore.CHOScore>
0.0000

> <Gold.PLP.Chemscore.Metal>
0.0000

> <Gold.Chemscore.Hbonds>
donor molecule, donor type, donor heavy atom, donor atom, acceptor molecule, acceptor atom, score
      L1  H    17    47       P1  8028  2.00
      P1  H  6931  6943       L1     8  0.16
      P1  H  7989  7998       L1    16  1.00

> <Gold.PLP.Chemscore.Internal.Correction>
0.0299

> <Gold.Rescore>
     Score         DG    S(hbond)    S(metal)    S(lipo)     H(rot)  DE(clash)    DE(int)     intcor
     18.59     -19.41       2.01        0.00     128.32       3.05       0.01       0.81       ----

> <Gold.Chemscore.Fitness>
18.5926

> <Gold.Chemscore.DG>
-19.4096

> <Gold.Chemscore.ZeroCoef>
-5.4800

> <Gold.Chemscore.Hbond>
2.0113

> <Gold.Chemscore.Metal>
0.0000

> <Gold.Chemscore.Lipo>
128.3217

> <Gold.Chemscore.Internal_Hbond>
0.0000

> <Gold.Chemscore.DEClash>
0.0106

> <Gold.Chemscore.DEInternal>
0.8064

> <Gold.Chemscore.Rot>
3.0476

> <Gold.Chemscore.Internal.Correction>
   9.000000E+99

> <Gold.Chemscore.Hbonds>
donor molecule, donor type, donor heavy atom, donor atom, acceptor molecule, acceptor atom, score
      L1  H    17    47       P1  8028  0.99
      P1  H  6931  6943       L1     8  0.03
      P1  H  7989  7998       L1    16  0.82

> <Gold.Chemscore.Hbond.Weighted>
-6.7177

> <Gold.Chemscore.Metal.Weighted>
-0.0000

> <Gold.Chemscore.Lipo.Weighted>
-15.0136

> <Gold.Chemscore.Internal_Hbond.Weighted>
0.0000

> <Gold.Chemscore.DEClash.Weighted>
0.0106

> <Gold.Chemscore.DEInternal.Weighted>
0.8064

> <Gold.Chemscore.Rot.Weighted>
7.8018

> <Gold.Chemscore.Internal.Correction.Weighted>
   9.000000E+99

> <Gold.Protein.RotatedTorsions>
[ 6907 6896 6895 6894 ] final -116.38 input  -60.11 | X-H torsion
[ 7974 7965 7964 7962 ] final  150.84 input  175.53 | X-H torsion
[ 8008 7997 7996 7995 ] final  -90.50 input   59.86 | X-H torsion
[ 10167 10162 10161 10158 ] final   25.18 input  -65.29 | X-H torsion
[ 10718 10713 10712 10709 ] final -112.79 input   66.30 | X-H torsion
[ 10763 10752 10751 10750 ] final   76.97 input  -60.55 | X-H torsion
[ 11005 11000 10999 10996 ] final -173.37 input  -57.11 | X-H torsion

> <Gold.Protein.ActiveResidues>
 VAL166  LYS551  ARG553  GLY616  TRP617  ASP618  TYR619  PRO620  LYS621  CYS622 
 ASP623  PHE694  ASN695  SER759  ASP760  ASP761  ALA762  ILE779  LEU786  VAL792 
 PHE793  MET794  SER795  GLU796  ALA797  LYS798  CYS799  TRP800  GLU811  SER814 

> <Gold.Protein.RotatedAtoms>
  150.8051  133.8525  159.3209 H   0  0  0  0  0  0  0  0  0  0  0  0  # atno 6907 bound_to 6896
  151.6327  135.1019  160.0134 H   0  0  0  0  0  0  0  0  0  0  0  0  # atno 6908 bound_to 6896
  152.4141  133.6970  159.6458 H   0  0  0  0  0  0  0  0  0  0  0  0  # atno 6909 bound_to 6896
  144.8335  139.6460  143.6048 H   0  0  0  0  0  0  0  0  0  0  0  0  # atno 7974 bound_to 7965
  154.6994  140.0530  157.0442 H   0  0  0  0  0  0  0  0  0  0  0  0  # atno 8008 bound_to 7997
  155.0706  140.3199  155.4613 H   0  0  0  0  0  0  0  0  0  0  0  0  # atno 8009 bound_to 7997
  156.2755  140.2082  156.5834 H   0  0  0  0  0  0  0  0  0  0  0  0  # atno 8010 bound_to 7997
  140.5127  144.0133  150.6380 H   0  0  0  0  0  0  0  0  0  0  0  0  # atno 10167 bound_to 10162
  156.0727  130.5939  150.8556 H   0  0  0  0  0  0  0  0  0  0  0  0  # atno 10718 bound_to 10713
  153.0764  135.4931  154.8413 H   0  0  0  0  0  0  0  0  0  0  0  0  # atno 10763 bound_to 10752
  154.7093  135.3017  154.9224 H   0  0  0  0  0  0  0  0  0  0  0  0  # atno 10764 bound_to 10752
  153.9923  135.6776  153.4807 H   0  0  0  0  0  0  0  0  0  0  0  0  # atno 10765 bound_to 10752
  140.4865  134.6026  157.4939 H   0  0  0  0  0  0  0  0  0  0  0  0  # atno 11005 bound_to 11000
  146.2636  139.6467  142.9345 LP  0  0  0  0  0  0  0  0  0  0  0  0  # atno 17320 bound_to 7965
  145.4844  141.0438  143.2628 LP  0  0  0  0  0  0  0  0  0  0  0  0  # atno 17321 bound_to 7965
  140.3460  143.2991  152.0538 LP  0  0  0  0  0  0  0  0  0  0  0  0  # atno 17342 bound_to 10162
  139.4900  144.6408  151.6881 LP  0  0  0  0  0  0  0  0  0  0  0  0  # atno 17343 bound_to 10162
  157.5806  131.0946  150.9276 LP  0  0  0  0  0  0  0  0  0  0  0  0  # atno 17370 bound_to 10713
  156.9473  130.5406  149.5281 LP  0  0  0  0  0  0  0  0  0  0  0  0  # atno 17371 bound_to 10713
  139.9795  134.7160  155.9886 LP  0  0  0  0  0  0  0  0  0  0  0  0  # atno 17394 bound_to 11000
  141.1505  133.6549  156.4000 LP  0  0  0  0  0  0  0  0  0  0  0  0  # atno 17395 bound_to 11000

$$$$
