AV-unprocessed.smi:2528|AV-procd|sdf|9950|dock2
  -GOLD-   2272013593D 1   1.00000     0.00000
 Structure written by MMmdl.
 44 46  0  0  0  0  0  0  0  0  2 V2000
  146.4822  139.3806  154.3747 O   0  0  0  0  0  0  0  0  0  0  0  0
  147.2612  138.5603  153.8885 C   0  0  0  0  0  0  0  0  0  0  0  0
  146.8741  137.5765  153.0638 N   0  0  0  0  0  0  0  0  0  0  0  0
  145.5030  137.3457  152.6183 C   0  0  0  0  0  0  0  0  0  0  0  0
  145.2594  135.8992  152.1444 C   0  0  2  0  0  0  0  0  0  0  0  0
  145.7666  135.6373  150.7061 C   0  0  0  0  0  0  0  0  0  0  0  0
  145.4105  134.2739  150.2443 N   0  3  1  0  0  0  0  0  0  0  0  0
  146.2822  133.2105  150.8149 C   0  0  0  0  0  0  0  0  0  0  0  0
  145.9154  131.8268  150.2584 C   0  0  0  0  0  0  0  0  0  0  0  0
  144.4382  131.5116  150.5182 C   0  0  0  0  0  0  0  0  0  0  0  0
  143.5573  132.6151  149.9174 C   0  0  0  0  0  0  0  0  0  0  0  0
  143.9527  134.0219  150.4143 C   0  0  1  0  0  0  0  0  0  0  0  0
  143.5133  134.3195  151.8635 C   0  0  0  0  0  0  0  0  0  0  0  0
  143.8564  135.6609  152.1924 O   0  0  0  0  0  0  0  0  0  0  0  0
  148.5876  138.5223  154.1045 N   0  0  0  0  0  0  0  0  0  0  0  0
  149.3664  139.3775  154.9290 C   0  0  0  0  0  0  0  0  0  0  0  0
  150.5276  138.7867  155.4764 C   0  0  0  0  0  0  0  0  0  0  0  0
  151.3686  139.5523  156.3071 C   0  0  0  0  0  0  0  0  0  0  0  0
  151.0248  140.8899  156.5713 C   0  0  0  0  0  0  0  0  0  0  0  0
  149.8494  141.3999  155.9898 C   0  0  0  0  0  0  0  0  0  0  0  0
  149.0421  140.6678  155.1933 N   0  0  0  0  0  0  0  0  0  0  0  0
  147.5800  136.9498  152.7057 H   0  0  0  0  0  0  0  0  0  0  0  0
  144.8131  137.5976  153.4254 H   0  0  0  0  0  0  0  0  0  0  0  0
  145.2925  138.0417  151.8057 H   0  0  0  0  0  0  0  0  0  0  0  0
  145.7471  135.2186  152.8431 H   0  0  0  0  0  0  0  0  0  0  0  0
  145.3149  136.3587  150.0238 H   0  0  0  0  0  0  0  0  0  0  0  0
  146.8455  135.7798  150.6350 H   0  0  0  0  0  0  0  0  0  0  0  0
  147.3229  133.4323  150.5762 H   0  0  0  0  0  0  0  0  0  0  0  0
  146.2093  133.1951  151.9022 H   0  0  0  0  0  0  0  0  0  0  0  0
  146.1171  131.7946  149.1870 H   0  0  0  0  0  0  0  0  0  0  0  0
  146.5448  131.0628  150.7159 H   0  0  0  0  0  0  0  0  0  0  0  0
  144.1785  130.5463  150.0826 H   0  0  0  0  0  0  0  0  0  0  0  0
  144.2575  131.4266  151.5902 H   0  0  0  0  0  0  0  0  0  0  0  0
  143.6497  132.5843  148.8309 H   0  0  0  0  0  0  0  0  0  0  0  0
  142.5070  132.4182  150.1353 H   0  0  0  0  0  0  0  0  0  0  0  0
  143.4338  134.7385  149.7755 H   0  0  0  0  0  0  0  0  0  0  0  0
  142.4331  134.2074  151.9586 H   0  0  0  0  0  0  0  0  0  0  0  0
  143.9645  133.6301  152.5779 H   0  0  0  0  0  0  0  0  0  0  0  0
  149.1016  137.7997  153.6228 H   0  0  0  0  0  0  0  0  0  0  0  0
  150.7776  137.7576  155.2631 H   0  0  0  0  0  0  0  0  0  0  0  0
  152.2616  139.1196  156.7334 H   0  0  0  0  0  0  0  0  0  0  0  0
  151.6450  141.5088  157.2028 H   0  0  0  0  0  0  0  0  0  0  0  0
  149.5488  142.4214  156.1691 H   0  0  0  0  0  0  0  0  0  0  0  0
  145.5861  134.2558  149.2497 H   0  0  0  0  0  0  0  0  0  0  0  0
  1  2  2  0  0  0  0
  2  3  1  0  0  0  0
  2 15  1  0  0  0  0
  3  4  1  0  0  0  0
  3 22  1  0  0  0  0
  4  5  1  0  0  0  0
  4 23  1  0  0  0  0
  4 24  1  0  0  0  0
  5 14  1  0  0  0  0
  5  6  1  0  0  0  0
  5 25  1  0  0  0  0
  6  7  1  0  0  0  0
  6 26  1  0  0  0  0
  6 27  1  0  0  0  0
  7 12  1  0  0  0  0
  7  8  1  0  0  0  0
  7 44  1  0  0  0  0
  8  9  1  0  0  0  0
  8 28  1  0  0  0  0
  8 29  1  0  0  0  0
  9 10  1  0  0  0  0
  9 30  1  0  0  0  0
  9 31  1  0  0  0  0
 10 11  1  0  0  0  0
 10 32  1  0  0  0  0
 10 33  1  0  0  0  0
 11 12  1  0  0  0  0
 11 34  1  0  0  0  0
 11 35  1  0  0  0  0
 12 13  1  0  0  0  0
 12 36  1  0  0  0  0
 13 14  1  0  0  0  0
 13 37  1  0  0  0  0
 13 38  1  0  0  0  0
 15 16  1  0  0  0  0
 15 39  1  0  0  0  0
 16 21  1  0  0  0  0
 16 17  2  0  0  0  0
 17 18  1  0  0  0  0
 17 40  1  0  0  0  0
 18 19  2  0  0  0  0
 18 41  1  0  0  0  0
 19 20  1  0  0  0  0
 19 42  1  0  0  0  0
 20 21  2  0  0  0  0
 20 43  1  0  0  0  0
M  CHG  1   7   1
M  END
> <s_m_source_file>
AV-unprocessed.smi

> <i_m_source_file_index>
2528

> <i_lp_mmshare_version>
43012

> <i_f3d_flags>
0

> <s_epik_input>
bjFbY0hdW2NIXVtjSF1bY0hdYzFbTkhdQyg9TylbTkhdW0NIMl1bQ0BIXShbQ0gyXTIpT1tDSDJdW0NAQEhdKE4yMylbQ0gyXVtDSDJdW0NIMl1bQ0gyXTM=

> <s_epik_cmdline>
J2VwaWtfcHl0aG9uJywgJy1waCcsICc3LjAnLCAnLXRuJywgJzgnLCAnLW1hJywgJzIwMCcsICctbWV0YWxfYmluZGluZycsICctaW1hZScsICc8aW5maWxlLm1hZT4nLCAnLW9tYWUnLCAnPG91dGZpbGUubWFlPic=

> <r_epik_Ionization_Penalty>
0.0932337

> <r_epik_Ionization_Penalty_Charging>
0.0931942

> <r_epik_Ionization_Penalty_Neutral>
3.9565e-05

> <r_epik_State_Penalty>
0.0834605

> <r_epik_Charging_Adjusted_Penalty>
0.176655

> <i_epik_Tot_Q>
1

> <i_epik_Tot_abs_Q>
1

> <r_epik_Metal_State_Penalty>
0.0834607

> <b_epik_Metal_Only>
0

> <s_lp_Force_Field>
OPLS_2005

> <r_lp_Energy>
27.0469

> <b_lp_Chiralities_Consistent>
1

> <s_lp_Variant>
AV-unprocessed.smi:2528-3

> <Gold.Version>
5.8.1

> <Gold.Id.Protein>
6NUR|6NUR_protein|mol2

> <Gold.PLP.Fitness>
49.0248

> <Gold.PLP.PLP>
-38.7243

> <Gold.PLP.part.hbond>
-3.8271

> <Gold.PLP.part.metal>
0.0000

> <Gold.PLP.part.buried>
-2.1230

> <Gold.PLP.part.nonpolar>
-33.3561

> <Gold.PLP.part.repulsive>
0.4793

> <Gold.PLP.ligand.clash>
0.0000

> <Gold.PLP.ligand.torsion>
0.5182

> <Gold.PLP.Chemscore.Hbond>
2.7775

> <Gold.PLP.Chemscore.CHOScore>
1.0000

> <Gold.PLP.Chemscore.Metal>
0.0000

> <Gold.Chemscore.Hbonds>
donor molecule, donor type, donor heavy atom, donor atom, acceptor molecule, acceptor atom, score
      L1  H     3    22       P1  7948  1.00
      L1  H     7    44       P1  7921  1.00
      L1  H    15    39       P1  7948  0.20
      L1  C    20    43       P1  8028  1.00

> <Gold.PLP.Chemscore.Internal.Correction>
0.0045

> <Gold.Rescore>
     Score         DG    S(hbond)    S(metal)    S(lipo)     H(rot)  DE(clash)    DE(int)     intcor
     19.38     -21.38       2.30        0.00      98.24       1.29       0.26       1.74       ----

> <Gold.Chemscore.Fitness>
19.3778

> <Gold.Chemscore.DG>
-21.3769

> <Gold.Chemscore.ZeroCoef>
-5.4800

> <Gold.Chemscore.Hbond>
2.3047

> <Gold.Chemscore.Metal>
0.0000

> <Gold.Chemscore.Lipo>
98.2409

> <Gold.Chemscore.Internal_Hbond>
0.0000

> <Gold.Chemscore.DEClash>
0.2609

> <Gold.Chemscore.DEInternal>
1.7382

> <Gold.Chemscore.Rot>
1.2870

> <Gold.Chemscore.Internal.Correction>
   9.000000E+99

> <Gold.Chemscore.Hbonds>
donor molecule, donor type, donor heavy atom, donor atom, acceptor molecule, acceptor atom, score
      L1  H     3    22       P1  7948  1.00
      L1  H     7    44       P1  7921  0.82
      L1  H    15    39       P1  7948  0.20

> <Gold.Chemscore.Hbond.Weighted>
-7.6976

> <Gold.Chemscore.Metal.Weighted>
-0.0000

> <Gold.Chemscore.Lipo.Weighted>
-11.4942

> <Gold.Chemscore.Internal_Hbond.Weighted>
0.0000

> <Gold.Chemscore.DEClash.Weighted>
0.2609

> <Gold.Chemscore.DEInternal.Weighted>
1.7382

> <Gold.Chemscore.Rot.Weighted>
3.2948

> <Gold.Chemscore.Internal.Correction.Weighted>
   9.000000E+99

> <Gold.Protein.RotatedTorsions>
[ 6907 6896 6895 6894 ] final  128.92 input  -60.11 | X-H torsion
[ 7974 7965 7964 7962 ] final  133.50 input  175.53 | X-H torsion
[ 8008 7997 7996 7995 ] final  138.54 input   59.86 | X-H torsion
[ 10167 10162 10161 10158 ] final   83.98 input  -65.29 | X-H torsion
[ 10718 10713 10712 10709 ] final -104.71 input   66.30 | X-H torsion
[ 10763 10752 10751 10750 ] final  160.70 input  -60.55 | X-H torsion
[ 11005 11000 10999 10996 ] final -157.17 input  -57.11 | X-H torsion

> <Gold.Protein.ActiveResidues>
 VAL166  LYS551  ARG553  GLY616  TRP617  ASP618  TYR619  PRO620  LYS621  CYS622 
 ASP623  PHE694  ASN695  SER759  ASP760  ASP761  ALA762  ILE779  LEU786  VAL792 
 PHE793  MET794  SER795  GLU796  ALA797  LYS798  CYS799  TRP800  GLU811  SER814 

> <Gold.Protein.RotatedAtoms>
  152.3674  133.6374  159.6060 H   0  0  0  0  0  0  0  0  0  0  0  0  # atno 6907 bound_to 6896
  150.7644  133.9326  159.3440 H   0  0  0  0  0  0  0  0  0  0  0  0  # atno 6908 bound_to 6896
  151.7154  135.0905  160.0326 H   0  0  0  0  0  0  0  0  0  0  0  0  # atno 6909 bound_to 6896
  144.9858  139.4457  143.5363 H   0  0  0  0  0  0  0  0  0  0  0  0  # atno 7974 bound_to 7965
  156.2996  140.2391  156.4091 H   0  0  0  0  0  0  0  0  0  0  0  0  # atno 8008 bound_to 7997
  154.8457  140.0426  157.1591 H   0  0  0  0  0  0  0  0  0  0  0  0  # atno 8009 bound_to 7997
  154.9053  140.2983  155.5299 H   0  0  0  0  0  0  0  0  0  0  0  0  # atno 8010 bound_to 7997
  139.9128  144.6261  150.8520 H   0  0  0  0  0  0  0  0  0  0  0  0  # atno 10167 bound_to 10162
  156.0316  130.5528  150.7436 H   0  0  0  0  0  0  0  0  0  0  0  0  # atno 10718 bound_to 10713
  154.2514  135.2771  155.2815 H   0  0  0  0  0  0  0  0  0  0  0  0  # atno 10763 bound_to 10752
  154.5461  135.5688  153.6885 H   0  0  0  0  0  0  0  0  0  0  0  0  # atno 10764 bound_to 10752
  152.9980  135.6263  154.2662 H   0  0  0  0  0  0  0  0  0  0  0  0  # atno 10765 bound_to 10752
  140.6676  134.4282  157.5233 H   0  0  0  0  0  0  0  0  0  0  0  0  # atno 11005 bound_to 11000
  146.3419  139.9160  142.8773 LP  0  0  0  0  0  0  0  0  0  0  0  0  # atno 17320 bound_to 7965
  145.2355  140.9989  143.3966 LP  0  0  0  0  0  0  0  0  0  0  0  0  # atno 17321 bound_to 7965
  140.7681  143.3353  151.2322 LP  0  0  0  0  0  0  0  0  0  0  0  0  # atno 17342 bound_to 10162
  139.6928  143.9663  152.2868 LP  0  0  0  0  0  0  0  0  0  0  0  0  # atno 17343 bound_to 10162
  157.4998  131.0917  151.0327 LP  0  0  0  0  0  0  0  0  0  0  0  0  # atno 17370 bound_to 10713
  157.0711  130.5864  149.5403 LP  0  0  0  0  0  0  0  0  0  0  0  0  # atno 17371 bound_to 10713
  139.8992  134.8596  156.1969 LP  0  0  0  0  0  0  0  0  0  0  0  0  # atno 17394 bound_to 11000
  141.0417  133.6934  156.1610 LP  0  0  0  0  0  0  0  0  0  0  0  0  # atno 17395 bound_to 11000

$$$$
