AV-unprocessed.smi:2761|AV-procd|sdf|10635|dock8
  -GOLD-   2272015 83D 1   1.00000     0.00000
 Structure written by MMmdl.
 26 27  0  0  0  0  0  0  0  0  2 V2000
  152.9871  140.6398  159.5024 O   0  0  0  0  0  0  0  0  0  0  0  0
  152.5686  141.5416  158.7731 C   0  0  0  0  0  0  0  0  0  0  0  0
  152.1257  141.3753  157.5082 N   0  0  0  0  0  0  0  0  0  0  0  0
  152.0582  140.1942  156.7625 C   0  0  0  0  0  0  0  0  0  0  0  0
  150.9653  140.1998  155.8241 C   0  0  0  0  0  0  0  0  0  0  0  0
  150.8051  139.1065  155.0462 C   0  0  0  0  0  0  0  0  0  0  0  0
  151.7093  137.9583  155.1520 C   0  0  0  0  0  0  0  0  0  0  0  0
  151.5264  136.9855  154.4237 O   0  0  0  0  0  0  0  0  0  0  0  0
  152.7276  138.0231  156.0679 N   0  5  0  0  0  0  0  0  0  0  0  0
  152.8861  139.2027  156.8949 N   0  0  0  0  0  0  0  0  0  0  0  0
  152.5024  142.9828  159.3001 C   0  0  1  0  0  0  0  0  0  0  0  0
  151.7854  143.9539  158.3329 C   0  0  0  0  0  0  0  0  0  0  0  0
  151.7355  145.2488  158.9181 O   0  0  0  0  0  0  0  0  0  0  0  0
  151.0321  145.2318  160.1522 C   0  0  0  0  0  0  0  0  0  0  0  0
  151.7489  144.2779  161.1212 C   0  0  0  0  0  0  0  0  0  0  0  0
  151.8008  142.9814  160.5413 O   0  0  0  0  0  0  0  0  0  0  0  0
  151.8087  142.2170  157.0505 H   0  0  0  0  0  0  0  0  0  0  0  0
  150.2789  141.0271  155.7179 H   0  0  0  0  0  0  0  0  0  0  0  0
  149.9953  139.0771  154.3322 H   0  0  0  0  0  0  0  0  0  0  0  0
  153.5270  143.3203  159.4662 H   0  0  0  0  0  0  0  0  0  0  0  0
  152.3255  144.0261  157.3882 H   0  0  0  0  0  0  0  0  0  0  0  0
  150.7752  143.6108  158.1017 H   0  0  0  0  0  0  0  0  0  0  0  0
  151.0072  146.2413  160.5627 H   0  0  0  0  0  0  0  0  0  0  0  0
  149.9979  144.9222  159.9940 H   0  0  0  0  0  0  0  0  0  0  0  0
  152.7563  144.6326  161.3435 H   0  0  0  0  0  0  0  0  0  0  0  0
  151.2104  144.2235  162.0674 H   0  0  0  0  0  0  0  0  0  0  0  0
  1  2  2  0  0  0  0
  2  3  1  0  0  0  0
  2 11  1  0  0  0  0
  3 17  1  0  0  0  0
  3  4  1  0  0  0  0
  4  5  1  0  0  0  0
  4 10  2  0  0  0  0
  5  6  2  0  0  0  0
  5 18  1  0  0  0  0
  6  7  1  0  0  0  0
  6 19  1  0  0  0  0
  7  8  2  0  0  0  0
  7  9  1  0  0  0  0
  9 10  1  0  0  0  0
 11 16  1  0  0  0  0
 11 12  1  0  0  0  0
 11 20  1  0  0  0  0
 12 13  1  0  0  0  0
 12 21  1  0  0  0  0
 12 22  1  0  0  0  0
 13 14  1  0  0  0  0
 14 15  1  0  0  0  0
 14 23  1  0  0  0  0
 14 24  1  0  0  0  0
 15 16  1  0  0  0  0
 15 25  1  0  0  0  0
 15 26  1  0  0  0  0
M  CHG  1   9  -1
M  END
> <s_m_source_file>
AV-unprocessed.smi

> <i_m_source_file_index>
2761

> <i_lp_mmshare_version>
43012

> <i_f3d_flags>
0

> <s_epik_input>
TzFbQ0gyXVtDSDJdT1tDSDJdW0NASF0xQyg9TylbTkhdYzJbY0hdW2NIXWMoW09IXSlubjI=

> <s_epik_cmdline>
J2VwaWtfcHl0aG9uJywgJy1waCcsICc3LjAnLCAnLXRuJywgJzgnLCAnLW1hJywgJzIwMCcsICctbWV0YWxfYmluZGluZycsICctaW1hZScsICc8aW5maWxlLm1hZT4nLCAnLW9tYWUnLCAnPG91dGZpbGUubWFlPic=

> <r_lp_tautomer_probability>
1

> <r_epik_Ionization_Penalty>
4.21844

> <r_epik_Ionization_Penalty_Charging>
0.119247

> <r_epik_Ionization_Penalty_Neutral>
4.0992

> <r_epik_State_Penalty>
4.09486

> <r_epik_Charging_Adjusted_Penalty>
4.2141

> <i_epik_Tot_Q>
-1

> <i_epik_Tot_abs_Q>
1

> <r_epik_Metal_State_Penalty>
0.651223

> <b_epik_Metal_Only>
1

> <s_lp_Force_Field>
OPLS_2005

> <r_lp_Energy>
28.3135

> <b_lp_Chiralities_Consistent>
1

> <s_lp_Variant>
AV-unprocessed.smi:2761-4

> <Gold.Version>
5.8.1

> <Gold.Id.Protein>
6NUR|6NUR_protein|mol2

> <Gold.PLP.Fitness>
34.3482

> <Gold.PLP.PLP>
-29.7317

> <Gold.PLP.part.hbond>
-2.2947

> <Gold.PLP.part.metal>
0.0000

> <Gold.PLP.part.buried>
-3.7621

> <Gold.PLP.part.nonpolar>
-24.8966

> <Gold.PLP.part.repulsive>
0.7668

> <Gold.PLP.ligand.clash>
0.7770

> <Gold.PLP.ligand.torsion>
0.3039

> <Gold.PLP.Chemscore.Hbond>
2.0000

> <Gold.PLP.Chemscore.CHOScore>
0.0000

> <Gold.PLP.Chemscore.Metal>
0.0000

> <Gold.Chemscore.Hbonds>
donor molecule, donor type, donor heavy atom, donor atom, acceptor molecule, acceptor atom, score
      P1  H  7997  8009       L1    10  1.00
      P1  H 10752 10764       L1     8  1.00

> <Gold.PLP.Chemscore.Internal.Correction>
0.0013

> <Gold.Rescore>
     Score         DG    S(hbond)    S(metal)    S(lipo)     H(rot)  DE(clash)    DE(int)     intcor
     13.79     -15.44       1.73        0.00      57.68       1.00       0.34       1.30       ----

> <Gold.Chemscore.Fitness>
13.7947

> <Gold.Chemscore.DG>
-15.4375

> <Gold.Chemscore.ZeroCoef>
-5.4800

> <Gold.Chemscore.Hbond>
1.7271

> <Gold.Chemscore.Metal>
0.0000

> <Gold.Chemscore.Lipo>
57.6845

> <Gold.Chemscore.Internal_Hbond>
0.0000

> <Gold.Chemscore.DEClash>
0.3387

> <Gold.Chemscore.DEInternal>
1.3040

> <Gold.Chemscore.Rot>
1.0000

> <Gold.Chemscore.Internal.Correction>
   9.000000E+99

> <Gold.Chemscore.Hbonds>
donor molecule, donor type, donor heavy atom, donor atom, acceptor molecule, acceptor atom, score
      P1  H  7997  8009       L1    10  0.24
      P1  H 10752 10764       L1     8  0.94

> <Gold.Chemscore.Hbond.Weighted>
-5.7684

> <Gold.Chemscore.Metal.Weighted>
-0.0000

> <Gold.Chemscore.Lipo.Weighted>
-6.7491

> <Gold.Chemscore.Internal_Hbond.Weighted>
0.0000

> <Gold.Chemscore.DEClash.Weighted>
0.3387

> <Gold.Chemscore.DEInternal.Weighted>
1.3040

> <Gold.Chemscore.Rot.Weighted>
2.5600

> <Gold.Chemscore.Internal.Correction.Weighted>
   9.000000E+99

> <Gold.Protein.RotatedTorsions>
[ 6907 6896 6895 6894 ] final -160.36 input  -60.11 | X-H torsion
[ 7974 7965 7964 7962 ] final  -99.87 input  175.53 | X-H torsion
[ 8008 7997 7996 7995 ] final  175.46 input   59.86 | X-H torsion
[ 10167 10162 10161 10158 ] final  110.25 input  -65.29 | X-H torsion
[ 10718 10713 10712 10709 ] final -140.84 input   66.30 | X-H torsion
[ 10763 10752 10751 10750 ] final  -88.65 input  -60.55 | X-H torsion
[ 11005 11000 10999 10996 ] final  116.46 input  -57.11 | X-H torsion

> <Gold.Protein.ActiveResidues>
 VAL166  LYS551  ARG553  GLY616  TRP617  ASP618  TYR619  PRO620  LYS621  CYS622 
 ASP623  PHE694  ASN695  SER759  ASP760  ASP761  ALA762  ILE779  LEU786  VAL792 
 PHE793  MET794  SER795  GLU796  ALA797  LYS798  CYS799  TRP800  GLU811  SER814 

> <Gold.Protein.RotatedAtoms>
  151.3479  133.3937  159.2677 H   0  0  0  0  0  0  0  0  0  0  0  0  # atno 6907 bound_to 6896
  150.9825  134.9178  159.7863 H   0  0  0  0  0  0  0  0  0  0  0  0  # atno 6908 bound_to 6896
  152.5221  134.3443  159.9280 H   0  0  0  0  0  0  0  0  0  0  0  0  # atno 6909 bound_to 6896
  145.3020  140.9379  143.2818 H   0  0  0  0  0  0  0  0  0  0  0  0  # atno 7974 bound_to 7965
  156.0868  140.1408  156.9642 H   0  0  0  0  0  0  0  0  0  0  0  0  # atno 8008 bound_to 7997
  154.4618  140.0940  156.6961 H   0  0  0  0  0  0  0  0  0  0  0  0  # atno 8009 bound_to 7997
  155.4985  140.3450  155.4369 H   0  0  0  0  0  0  0  0  0  0  0  0  # atno 8010 bound_to 7997
  139.6703  144.7125  151.1700 H   0  0  0  0  0  0  0  0  0  0  0  0  # atno 10167 bound_to 10162
  156.3271  130.7566  151.1676 H   0  0  0  0  0  0  0  0  0  0  0  0  # atno 10718 bound_to 10713
  154.6469  135.5369  153.7855 H   0  0  0  0  0  0  0  0  0  0  0  0  # atno 10763 bound_to 10752
  153.0364  135.6473  154.1076 H   0  0  0  0  0  0  0  0  0  0  0  0  # atno 10764 bound_to 10752
  154.0996  135.2934  155.3234 H   0  0  0  0  0  0  0  0  0  0  0  0  # atno 10765 bound_to 10752
  139.9042  134.9598  156.7202 H   0  0  0  0  0  0  0  0  0  0  0  0  # atno 11005 bound_to 11000
  144.9086  139.4557  143.6598 LP  0  0  0  0  0  0  0  0  0  0  0  0  # atno 17320 bound_to 7965
  146.3149  139.7881  142.8991 LP  0  0  0  0  0  0  0  0  0  0  0  0  # atno 17321 bound_to 7965
  140.7615  143.5855  150.8850 LP  0  0  0  0  0  0  0  0  0  0  0  0  # atno 17342 bound_to 10162
  139.9519  143.6262  152.3026 LP  0  0  0  0  0  0  0  0  0  0  0  0  # atno 17343 bound_to 10162
  157.7423  131.0491  150.5032 LP  0  0  0  0  0  0  0  0  0  0  0  0  # atno 17370 bound_to 10713
  156.5193  130.4158  149.6259 LP  0  0  0  0  0  0  0  0  0  0  0  0  # atno 17371 bound_to 10713
  140.7007  133.9309  155.8022 LP  0  0  0  0  0  0  0  0  0  0  0  0  # atno 17394 bound_to 11000
  141.0374  134.0670  157.3943 LP  0  0  0  0  0  0  0  0  0  0  0  0  # atno 17395 bound_to 11000

$$$$
