AV-unprocessed.smi:1978|AV-procd|sdf|7995|dock10
  -GOLD-   2272010183D 1   1.00000     0.00000
 Structure written by MMmdl.
 45 46  0  0  0  0  0  0  0  0  2 V2000
  151.8088  139.7210  158.4064 C   0  0  0  0  0  0  0  0  0  0  0  0
  151.4279  139.7210  156.9655 C   0  0  0  0  0  0  0  0  0  0  0  0
  150.2873  139.3590  156.3054 C   0  0  0  0  0  0  0  0  0  0  0  0
  150.6098  139.6142  154.9460 C   0  0  0  0  0  0  0  0  0  0  0  0
  149.6679  139.3668  153.9146 N   0  0  0  0  0  0  0  0  0  0  0  0
  148.4225  138.8790  154.0451 C   0  0  0  0  0  0  0  0  0  0  0  0
  147.8882  138.5740  155.1118 O   0  0  0  0  0  0  0  0  0  0  0  0
  147.8173  138.7559  152.8540 N   0  0  0  0  0  0  0  0  0  0  0  0
  146.4518  138.2794  152.6449 C   0  0  0  0  0  0  0  0  0  0  0  0
  146.1456  136.9778  153.4275 C   0  0  1  0  0  0  0  0  0  0  0  0
  144.8838  137.0708  154.3139 C   0  0  0  0  0  0  0  0  0  0  0  0
  146.1173  135.7898  152.5121 N   0  3  2  0  0  0  0  0  0  0  0  0
  144.9976  135.8199  151.5241 C   0  0  0  0  0  0  0  0  0  0  0  0
  145.1744  134.7468  150.4410 C   0  0  0  0  0  0  0  0  0  0  0  0
  145.2635  133.3574  151.0750 C   0  0  0  0  0  0  0  0  0  0  0  0
  146.3889  133.3373  152.1142 C   0  0  0  0  0  0  0  0  0  0  0  0
  146.2185  134.4463  153.1765 C   0  0  1  0  0  0  0  0  0  0  0  0
  147.3726  134.3385  154.1945 C   0  0  0  0  0  0  0  0  0  0  0  0
  151.8360  140.0888  154.7901 N   0  0  0  0  0  0  0  0  0  0  0  0
  152.3669  140.1588  156.0834 O   0  0  0  0  0  0  0  0  0  0  0  0
  150.9328  139.8642  159.0392 H   0  0  0  0  0  0  0  0  0  0  0  0
  152.5155  140.5225  158.6232 H   0  0  0  0  0  0  0  0  0  0  0  0
  152.2751  138.7751  158.6821 H   0  0  0  0  0  0  0  0  0  0  0  0
  149.3720  138.9744  156.7300 H   0  0  0  0  0  0  0  0  0  0  0  0
  149.9780  139.5817  152.9786 H   0  0  0  0  0  0  0  0  0  0  0  0
  148.3341  139.0294  152.0306 H   0  0  0  0  0  0  0  0  0  0  0  0
  145.7503  139.0756  152.8919 H   0  0  0  0  0  0  0  0  0  0  0  0
  146.3319  138.0964  151.5766 H   0  0  0  0  0  0  0  0  0  0  0  0
  146.9951  136.8756  154.0980 H   0  0  0  0  0  0  0  0  0  0  0  0
  145.0007  137.8281  155.0887 H   0  0  0  0  0  0  0  0  0  0  0  0
  144.6799  136.1317  154.8275 H   0  0  0  0  0  0  0  0  0  0  0  0
  143.9996  137.3359  153.7339 H   0  0  0  0  0  0  0  0  0  0  0  0
  144.0468  135.6640  152.0355 H   0  0  0  0  0  0  0  0  0  0  0  0
  144.9296  136.7873  151.0312 H   0  0  0  0  0  0  0  0  0  0  0  0
  144.3398  134.7826  149.7401 H   0  0  0  0  0  0  0  0  0  0  0  0
  146.0761  134.9507  149.8615 H   0  0  0  0  0  0  0  0  0  0  0  0
  144.3149  133.1042  151.5500 H   0  0  0  0  0  0  0  0  0  0  0  0
  145.4423  132.6023  150.3089 H   0  0  0  0  0  0  0  0  0  0  0  0
  146.4133  132.3582  152.5946 H   0  0  0  0  0  0  0  0  0  0  0  0
  147.3493  133.4550  151.6098 H   0  0  0  0  0  0  0  0  0  0  0  0
  145.2857  134.2573  153.7096 H   0  0  0  0  0  0  0  0  0  0  0  0
  147.5076  133.3070  154.5212 H   0  0  0  0  0  0  0  0  0  0  0  0
  147.1806  134.9155  155.0988 H   0  0  0  0  0  0  0  0  0  0  0  0
  148.3178  134.6719  153.7653 H   0  0  0  0  0  0  0  0  0  0  0  0
  146.9630  135.8705  151.9659 H   0  0  0  0  0  0  0  0  0  0  0  0
  1  2  1  0  0  0  0
  1 21  1  0  0  0  0
  1 22  1  0  0  0  0
  1 23  1  0  0  0  0
  2 20  1  0  0  0  0
  2  3  2  0  0  0  0
  3  4  1  0  0  0  0
  3 24  1  0  0  0  0
  4  5  1  0  0  0  0
  4 19  2  0  0  0  0
  5  6  1  0  0  0  0
  5 25  1  0  0  0  0
  6  7  2  0  0  0  0
  6  8  1  0  0  0  0
  8  9  1  0  0  0  0
  8 26  1  0  0  0  0
  9 10  1  0  0  0  0
  9 27  1  0  0  0  0
  9 28  1  0  0  0  0
 10 11  1  0  0  0  0
 10 12  1  0  0  0  0
 10 29  1  0  0  0  0
 11 30  1  0  0  0  0
 11 31  1  0  0  0  0
 11 32  1  0  0  0  0
 12 17  1  0  0  0  0
 12 13  1  0  0  0  0
 12 45  1  0  0  0  0
 13 14  1  0  0  0  0
 13 33  1  0  0  0  0
 13 34  1  0  0  0  0
 14 15  1  0  0  0  0
 14 35  1  0  0  0  0
 14 36  1  0  0  0  0
 15 16  1  0  0  0  0
 15 37  1  0  0  0  0
 15 38  1  0  0  0  0
 16 17  1  0  0  0  0
 16 39  1  0  0  0  0
 16 40  1  0  0  0  0
 17 18  1  0  0  0  0
 17 41  1  0  0  0  0
 18 42  1  0  0  0  0
 18 43  1  0  0  0  0
 18 44  1  0  0  0  0
 19 20  1  0  0  0  0
M  CHG  1  12   1
M  END
> <s_m_source_file>
AV-unprocessed.smi

> <i_m_source_file_index>
1978

> <i_lp_mmshare_version>
43012

> <i_f3d_flags>
0

> <s_epik_input>
W0NIM11jMVtjSF1jKG5vMSlbTkhdQyg9TylbTkhdW0NIMl1bQ0BIXShbQ0gzXSlOMltDSDJdW0NIMl1bQ0gyXVtDSDJdW0NASF0yW0NIM10=

> <s_epik_cmdline>
J2VwaWtfcHl0aG9uJywgJy1waCcsICc3LjAnLCAnLXRuJywgJzgnLCAnLW1hJywgJzIwMCcsICctbWV0YWxfYmluZGluZycsICctaW1hZScsICc8aW5maWxlLm1hZT4nLCAnLW9tYWUnLCAnPG91dGZpbGUubWFlPic=

> <r_epik_Ionization_Penalty>
0.00265971

> <r_epik_Ionization_Penalty_Charging>
0.00262393

> <r_epik_Ionization_Penalty_Neutral>
3.57846e-05

> <r_epik_State_Penalty>
0.00182566

> <r_epik_Charging_Adjusted_Penalty>
0.00444959

> <i_epik_Tot_Q>
1

> <i_epik_Tot_abs_Q>
1

> <r_epik_Metal_State_Penalty>
0.0216344

> <b_epik_Metal_Only>
0

> <s_lp_Force_Field>
OPLS_2005

> <r_lp_Energy>
21.4618

> <b_lp_Chiralities_Consistent>
1

> <s_lp_Variant>
AV-unprocessed.smi:1978-4

> <Gold.Version>
5.8.1

> <Gold.Id.Protein>
6NUR|6NUR_protein|mol2

> <Gold.PLP.Fitness>
44.2764

> <Gold.PLP.PLP>
-28.1602

> <Gold.PLP.part.hbond>
-5.9259

> <Gold.PLP.part.metal>
0.0000

> <Gold.PLP.part.buried>
-2.9612

> <Gold.PLP.part.nonpolar>
-19.7748

> <Gold.PLP.part.repulsive>
0.2880

> <Gold.PLP.ligand.clash>
0.0000

> <Gold.PLP.ligand.torsion>
0.8446

> <Gold.PLP.Chemscore.Hbond>
5.8960

> <Gold.PLP.Chemscore.CHOScore>
0.0000

> <Gold.PLP.Chemscore.Metal>
0.0000

> <Gold.Chemscore.Hbonds>
donor molecule, donor type, donor heavy atom, donor atom, acceptor molecule, acceptor atom, score
      L1  H     5    25       P1  7957  1.00
      L1  H     8    26       P1  7957  1.00
      L1  H    12    45       P1  7948  2.00
      P1  H  7989  7998       L1    19  0.89
      P1  H  7997  8009       L1    20  1.00

> <Gold.PLP.Chemscore.Internal.Correction>
0.1175

> <Gold.Rescore>
     Score         DG    S(hbond)    S(metal)    S(lipo)     H(rot)  DE(clash)    DE(int)     intcor
     18.30     -21.81       4.23        0.00      52.82       1.55       0.02       3.49       ----

> <Gold.Chemscore.Fitness>
18.2998

> <Gold.Chemscore.DG>
-21.8146

> <Gold.Chemscore.ZeroCoef>
-5.4800

> <Gold.Chemscore.Hbond>
4.2264

> <Gold.Chemscore.Metal>
0.0000

> <Gold.Chemscore.Lipo>
52.8166

> <Gold.Chemscore.Internal_Hbond>
0.0000

> <Gold.Chemscore.DEClash>
0.0234

> <Gold.Chemscore.DEInternal>
3.4914

> <Gold.Chemscore.Rot>
1.5474

> <Gold.Chemscore.Internal.Correction>
   9.000000E+99

> <Gold.Chemscore.Hbonds>
donor molecule, donor type, donor heavy atom, donor atom, acceptor molecule, acceptor atom, score
      L1  H     5    25       P1  7957  0.96
      L1  H     8    26       P1  7957  0.96
      L1  H    12    45       P1  7948  0.92
      P1  H  7989  7998       L1    19  0.24
      P1  H  7997  8009       L1    20  0.90

> <Gold.Chemscore.Hbond.Weighted>
-14.1163

> <Gold.Chemscore.Metal.Weighted>
-0.0000

> <Gold.Chemscore.Lipo.Weighted>
-6.1795

> <Gold.Chemscore.Internal_Hbond.Weighted>
0.0000

> <Gold.Chemscore.DEClash.Weighted>
0.0234

> <Gold.Chemscore.DEInternal.Weighted>
3.4914

> <Gold.Chemscore.Rot.Weighted>
3.9612

> <Gold.Chemscore.Internal.Correction.Weighted>
   9.000000E+99

> <Gold.Protein.RotatedTorsions>
[ 6907 6896 6895 6894 ] final  -32.83 input  -60.11 | X-H torsion
[ 7974 7965 7964 7962 ] final  -60.24 input  175.53 | X-H torsion
[ 8008 7997 7996 7995 ] final -155.79 input   59.86 | X-H torsion
[ 10167 10162 10161 10158 ] final -153.21 input  -65.29 | X-H torsion
[ 10718 10713 10712 10709 ] final   69.79 input   66.30 | X-H torsion
[ 10763 10752 10751 10750 ] final   -6.55 input  -60.55 | X-H torsion
[ 11005 11000 10999 10996 ] final   71.40 input  -57.11 | X-H torsion

> <Gold.Protein.ActiveResidues>
 VAL166  LYS551  ARG553  GLY616  TRP617  ASP618  TYR619  PRO620  LYS621  CYS622 
 ASP623  PHE694  ASN695  SER759  ASP760  ASP761  ALA762  ILE779  LEU786  VAL792 
 PHE793  MET794  SER795  GLU796  ALA797  LYS798  CYS799  TRP800  GLU811  SER814 

> <Gold.Protein.RotatedAtoms>
  151.0736  134.9814  159.8320 H   0  0  0  0  0  0  0  0  0  0  0  0  # atno 6907 bound_to 6896
  152.5411  134.2269  159.8819 H   0  0  0  0  0  0  0  0  0  0  0  0  # atno 6908 bound_to 6896
  151.2295  133.4415  159.2637 H   0  0  0  0  0  0  0  0  0  0  0  0  # atno 6909 bound_to 6896
  145.8179  140.8558  143.0148 H   0  0  0  0  0  0  0  0  0  0  0  0  # atno 7974 bound_to 7965
  155.7072  140.0774  157.2386 H   0  0  0  0  0  0  0  0  0  0  0  0  # atno 8008 bound_to 7997
  154.4064  140.1636  156.2309 H   0  0  0  0  0  0  0  0  0  0  0  0  # atno 8009 bound_to 7997
  155.9315  140.3391  155.6256 H   0  0  0  0  0  0  0  0  0  0  0  0  # atno 8010 bound_to 7997
  139.7116  143.9099  152.2470 H   0  0  0  0  0  0  0  0  0  0  0  0  # atno 10167 bound_to 10162
  157.6365  130.9444  150.0561 H   0  0  0  0  0  0  0  0  0  0  0  0  # atno 10718 bound_to 10713
  153.4140  135.7008  153.6340 H   0  0  0  0  0  0  0  0  0  0  0  0  # atno 10763 bound_to 10752
  153.4822  135.3691  155.2448 H   0  0  0  0  0  0  0  0  0  0  0  0  # atno 10764 bound_to 10752
  154.8718  135.4068  154.3497 H   0  0  0  0  0  0  0  0  0  0  0  0  # atno 10765 bound_to 10752
  139.9545  134.7168  156.0784 H   0  0  0  0  0  0  0  0  0  0  0  0  # atno 11005 bound_to 11000
  144.6750  140.0491  143.7479 LP  0  0  0  0  0  0  0  0  0  0  0  0  # atno 17320 bound_to 7965
  145.9706  139.2867  143.1101 LP  0  0  0  0  0  0  0  0  0  0  0  0  # atno 17321 bound_to 7965
  139.8970  144.6933  150.8707 LP  0  0  0  0  0  0  0  0  0  0  0  0  # atno 17342 bound_to 10162
  140.7734  143.3543  151.1953 LP  0  0  0  0  0  0  0  0  0  0  0  0  # atno 17343 bound_to 10162
  156.1608  130.3644  149.9302 LP  0  0  0  0  0  0  0  0  0  0  0  0  # atno 17370 bound_to 10713
  156.7300  130.9040  151.3625 LP  0  0  0  0  0  0  0  0  0  0  0  0  # atno 17371 bound_to 10713
  141.1214  133.6611  156.3225 LP  0  0  0  0  0  0  0  0  0  0  0  0  # atno 17394 bound_to 11000
  140.5641  134.5905  157.5441 LP  0  0  0  0  0  0  0  0  0  0  0  0  # atno 17395 bound_to 11000

$$$$
