AV-unprocessed.smi:2013|AV-procd|sdf|8159|dock4
  -GOLD-   2272010403D 1   1.00000     0.00000
 Structure written by MMmdl.
 50 51  0  0  0  0  0  0  0  0  1 V2000
  148.7990  138.7807  153.7621 C   0  0  0  0  0  0  0  0  0  0  0  0
  147.4487  139.5162  153.7035 C   0  0  0  0  0  0  0  0  0  0  0  0
  146.4937  138.8494  152.6910 C   0  0  0  0  0  0  0  0  0  0  0  0
  147.6117  141.0676  153.5994 C   0  0  2  0  0  0  0  0  0  0  0  0
  148.9954  141.5835  154.0778 C   0  0  0  0  0  0  0  0  0  0  0  0
  149.2630  141.2098  155.4611 N   0  0  0  0  0  0  0  0  0  0  0  0
  150.3275  140.5044  155.8660 C   0  0  0  0  0  0  0  0  0  0  0  0
  151.1857  140.0776  155.0922 O   0  0  0  0  0  0  0  0  0  0  0  0
  150.4160  140.2384  157.3754 C   0  0  0  0  0  0  0  0  0  0  0  0
  151.1230  141.2910  158.1169 N   0  0  0  0  0  0  0  0  0  0  0  0
  150.7057  142.6043  158.0024 C   0  0  0  0  0  0  0  0  0  0  0  0
  151.2880  143.6311  158.6589 C   0  0  0  0  0  0  0  0  0  0  0  0
  152.4223  143.4048  159.5462 C   0  0  0  0  0  0  0  0  0  0  0  0
  152.9695  144.3074  160.1809 O   0  0  0  0  0  0  0  0  0  0  0  0
  152.8401  142.0552  159.6326 N   0  0  0  0  0  0  0  0  0  0  0  0
  153.9470  141.7384  160.5113 C   0  0  0  0  0  0  0  0  0  0  0  0
  152.2145  140.9827  158.9575 C   0  0  0  0  0  0  0  0  0  0  0  0
  152.5905  139.8156  159.0929 O   0  0  0  0  0  0  0  0  0  0  0  0
  146.4566  141.8511  154.0827 N   0  0  0  0  0  0  0  0  0  0  0  0
  146.6588  143.2956  153.9864 C   0  0  0  0  0  0  0  0  0  0  0  0
  145.3891  144.0761  154.3637 C   0  0  0  0  0  0  0  0  0  0  0  0
  144.9831  143.7105  155.6783 O   0  0  0  0  0  0  0  0  0  0  0  0
  144.7265  142.3159  155.8039 C   0  0  0  0  0  0  0  0  0  0  0  0
  145.9841  141.5141  155.4242 C   0  0  0  0  0  0  0  0  0  0  0  0
  149.3246  138.8306  152.8081 H   0  0  0  0  0  0  0  0  0  0  0  0
  148.6605  137.7270  154.0049 H   0  0  0  0  0  0  0  0  0  0  0  0
  149.4487  139.2102  154.5253 H   0  0  0  0  0  0  0  0  0  0  0  0
  146.9882  139.3375  154.6761 H   0  0  0  0  0  0  0  0  0  0  0  0
  146.8784  138.8564  151.6744 H   0  0  0  0  0  0  0  0  0  0  0  0
  145.5096  139.3163  152.6820 H   0  0  0  0  0  0  0  0  0  0  0  0
  146.3380  137.8030  152.9548 H   0  0  0  0  0  0  0  0  0  0  0  0
  147.6239  141.2317  152.5204 H   0  0  0  0  0  0  0  0  0  0  0  0
  149.7943  141.1722  153.4609 H   0  0  0  0  0  0  0  0  0  0  0  0
  149.0593  142.6681  153.9866 H   0  0  0  0  0  0  0  0  0  0  0  0
  148.6003  141.5198  156.1571 H   0  0  0  0  0  0  0  0  0  0  0  0
  149.4102  140.1079  157.7782 H   0  0  0  0  0  0  0  0  0  0  0  0
  150.9181  139.2814  157.5240 H   0  0  0  0  0  0  0  0  0  0  0  0
  149.8657  142.8235  157.3593 H   0  0  0  0  0  0  0  0  0  0  0  0
  150.9073  144.6334  158.5287 H   0  0  0  0  0  0  0  0  0  0  0  0
  154.5257  140.9211  160.0782 H   0  0  0  0  0  0  0  0  0  0  0  0
  153.5164  141.4577  161.4735 H   0  0  0  0  0  0  0  0  0  0  0  0
  154.6061  142.6020  160.6073 H   0  0  0  0  0  0  0  0  0  0  0  0
  147.4663  143.6113  154.6466 H   0  0  0  0  0  0  0  0  0  0  0  0
  146.9571  143.5646  152.9726 H   0  0  0  0  0  0  0  0  0  0  0  0
  145.5804  145.1488  154.3349 H   0  0  0  0  0  0  0  0  0  0  0  0
  144.5845  143.8739  153.6548 H   0  0  0  0  0  0  0  0  0  0  0  0
  144.4344  142.0980  156.8311 H   0  0  0  0  0  0  0  0  0  0  0  0
  143.8862  142.0368  155.1666 H   0  0  0  0  0  0  0  0  0  0  0  0
  145.7384  140.4591  155.4897 H   0  0  0  0  0  0  0  0  0  0  0  0
  146.7659  141.7081  156.1589 H   0  0  0  0  0  0  0  0  0  0  0  0
  1  2  1  0  0  0  0
  1 25  1  0  0  0  0
  1 26  1  0  0  0  0
  1 27  1  0  0  0  0
  2  3  1  0  0  0  0
  2  4  1  0  0  0  0
  2 28  1  0  0  0  0
  3 29  1  0  0  0  0
  3 30  1  0  0  0  0
  3 31  1  0  0  0  0
  4  5  1  0  0  0  0
  4 19  1  0  0  0  0
  4 32  1  0  0  0  0
  5  6  1  0  0  0  0
  5 33  1  0  0  0  0
  5 34  1  0  0  0  0
  6  7  1  0  0  0  0
  6 35  1  0  0  0  0
  7  8  2  0  0  0  0
  7  9  1  0  0  0  0
  9 10  1  0  0  0  0
  9 36  1  0  0  0  0
  9 37  1  0  0  0  0
 10 17  1  0  0  0  0
 10 11  1  0  0  0  0
 11 12  2  0  0  0  0
 11 38  1  0  0  0  0
 12 13  1  0  0  0  0
 12 39  1  0  0  0  0
 13 14  2  0  0  0  0
 13 15  1  0  0  0  0
 15 16  1  0  0  0  0
 15 17  1  0  0  0  0
 16 40  1  0  0  0  0
 16 41  1  0  0  0  0
 16 42  1  0  0  0  0
 17 18  2  0  0  0  0
 19 24  1  0  0  0  0
 19 20  1  0  0  0  0
 20 21  1  0  0  0  0
 20 43  1  0  0  0  0
 20 44  1  0  0  0  0
 21 22  1  0  0  0  0
 21 45  1  0  0  0  0
 21 46  1  0  0  0  0
 22 23  1  0  0  0  0
 23 24  1  0  0  0  0
 23 47  1  0  0  0  0
 23 48  1  0  0  0  0
 24 49  1  0  0  0  0
 24 50  1  0  0  0  0
M  END
> <s_m_source_file>
AV-unprocessed.smi

> <i_m_source_file_index>
2013

> <i_lp_mmshare_version>
43012

> <i_f3d_flags>
0

> <s_epik_input>
W0NIMl0xW0NIMl1PW0NIMl1bQ0gyXU4xW0NASF0oW0NIXShbQ0gzXSlbQ0gzXSlbQ0gyXVtOSF1DKD1PKVtDSDJdbjJbY0hdW2NIXWMoPU8pbihbQ0gzXSljMj1P

> <s_epik_cmdline>
J2VwaWtfcHl0aG9uJywgJy1waCcsICc3LjAnLCAnLXRuJywgJzgnLCAnLW1hJywgJzIwMCcsICctbWV0YWxfYmluZGluZycsICctaW1hZScsICc8aW5maWxlLm1hZT4nLCAnLW9tYWUnLCAnPG91dGZpbGUubWFlPic=

> <r_lp_tautomer_probability>
1

> <r_epik_Ionization_Penalty>
0.45351

> <r_epik_Ionization_Penalty_Charging>
1.24653e-08

> <r_epik_Ionization_Penalty_Neutral>
0.45351

> <r_epik_State_Penalty>
0.456487

> <r_epik_Charging_Adjusted_Penalty>
0.456487

> <i_epik_Tot_Q>
0

> <i_epik_Tot_abs_Q>
0

> <r_epik_Metal_State_Penalty>
0.456449

> <b_epik_Metal_Only>
0

> <s_lp_Force_Field>
OPLS_2005

> <r_lp_Energy>
47.2128

> <b_lp_Chiralities_Consistent>
1

> <s_lp_Variant>
AV-unprocessed.smi:2013-3

> <Gold.Version>
5.8.1

> <Gold.Id.Protein>
6NUR|6NUR_protein|mol2

> <Gold.PLP.Fitness>
45.8154

> <Gold.PLP.PLP>
-41.8900

> <Gold.PLP.part.hbond>
-1.0000

> <Gold.PLP.part.metal>
0.0000

> <Gold.PLP.part.buried>
-3.5336

> <Gold.PLP.part.nonpolar>
-39.5041

> <Gold.PLP.part.repulsive>
0.5719

> <Gold.PLP.ligand.clash>
0.0000

> <Gold.PLP.ligand.torsion>
1.3065

> <Gold.PLP.Chemscore.Hbond>
1.0000

> <Gold.PLP.Chemscore.CHOScore>
1.0000

> <Gold.PLP.Chemscore.Metal>
0.0000

> <Gold.Chemscore.Hbonds>
donor molecule, donor type, donor heavy atom, donor atom, acceptor molecule, acceptor atom, score
      P1  H  7989  7998       L1     8  1.00
      L1  C    11    38       P1  8028  0.52

> <Gold.PLP.Chemscore.Internal.Correction>
0.5384

> <Gold.Rescore>
     Score         DG    S(hbond)    S(metal)    S(lipo)     H(rot)  DE(clash)    DE(int)     intcor
     10.15     -12.80       0.98        0.00      82.90       2.20       1.60       1.05       ----

> <Gold.Chemscore.Fitness>
10.1461

> <Gold.Chemscore.DG>
-12.7978

> <Gold.Chemscore.ZeroCoef>
-5.4800

> <Gold.Chemscore.Hbond>
0.9761

> <Gold.Chemscore.Metal>
0.0000

> <Gold.Chemscore.Lipo>
82.9030

> <Gold.Chemscore.Internal_Hbond>
0.0000

> <Gold.Chemscore.DEClash>
1.6005

> <Gold.Chemscore.DEInternal>
1.0512

> <Gold.Chemscore.Rot>
2.2039

> <Gold.Chemscore.Internal.Correction>
   9.000000E+99

> <Gold.Chemscore.Hbonds>
donor molecule, donor type, donor heavy atom, donor atom, acceptor molecule, acceptor atom, score
      P1  H  7989  7998       L1     8  0.99

> <Gold.Chemscore.Hbond.Weighted>
-3.2602

> <Gold.Chemscore.Metal.Weighted>
-0.0000

> <Gold.Chemscore.Lipo.Weighted>
-9.6996

> <Gold.Chemscore.Internal_Hbond.Weighted>
0.0000

> <Gold.Chemscore.DEClash.Weighted>
1.6005

> <Gold.Chemscore.DEInternal.Weighted>
1.0512

> <Gold.Chemscore.Rot.Weighted>
5.6420

> <Gold.Chemscore.Internal.Correction.Weighted>
   9.000000E+99

> <Gold.Protein.RotatedTorsions>
[ 6907 6896 6895 6894 ] final  170.72 input  -60.11 | X-H torsion
[ 7974 7965 7964 7962 ] final  133.40 input  175.53 | X-H torsion
[ 8008 7997 7996 7995 ] final  -84.22 input   59.86 | X-H torsion
[ 10167 10162 10161 10158 ] final  131.21 input  -65.29 | X-H torsion
[ 10718 10713 10712 10709 ] final   97.56 input   66.30 | X-H torsion
[ 10763 10752 10751 10750 ] final  -36.43 input  -60.55 | X-H torsion
[ 11005 11000 10999 10996 ] final  -34.82 input  -57.11 | X-H torsion

> <Gold.Protein.ActiveResidues>
 VAL166  LYS551  ARG553  GLY616  TRP617  ASP618  TYR619  PRO620  LYS621  CYS622 
 ASP623  PHE694  ASN695  SER759  ASP760  ASP761  ALA762  ILE779  LEU786  VAL792 
 PHE793  MET794  SER795  GLU796  ALA797  LYS798  CYS799  TRP800  GLU811  SER814 

> <Gold.Protein.RotatedAtoms>
  151.8117  133.3382  159.3557 H   0  0  0  0  0  0  0  0  0  0  0  0  # atno 6907 bound_to 6896
  150.7324  134.5658  159.5874 H   0  0  0  0  0  0  0  0  0  0  0  0  # atno 6908 bound_to 6896
  152.3070  134.7544  160.0396 H   0  0  0  0  0  0  0  0  0  0  0  0  # atno 6909 bound_to 6896
  144.9869  139.4447  143.5359 H   0  0  0  0  0  0  0  0  0  0  0  0  # atno 7974 bound_to 7965
  154.6275  140.0608  156.9691 H   0  0  0  0  0  0  0  0  0  0  0  0  # atno 8008 bound_to 7997
  155.1719  140.3291  155.4373 H   0  0  0  0  0  0  0  0  0  0  0  0  # atno 8009 bound_to 7997
  156.2465  140.1913  156.6820 H   0  0  0  0  0  0  0  0  0  0  0  0  # atno 8010 bound_to 7997
  139.5394  144.6716  151.4675 H   0  0  0  0  0  0  0  0  0  0  0  0  # atno 10167 bound_to 10162
  157.6910  131.0613  150.4662 H   0  0  0  0  0  0  0  0  0  0  0  0  # atno 10718 bound_to 10713
  153.8796  135.6823  153.4768 H   0  0  0  0  0  0  0  0  0  0  0  0  # atno 10763 bound_to 10752
  153.1241  135.4726  154.9242 H   0  0  0  0  0  0  0  0  0  0  0  0  # atno 10764 bound_to 10752
  154.7675  135.3228  154.8208 H   0  0  0  0  0  0  0  0  0  0  0  0  # atno 10765 bound_to 10752
  140.9747  133.7090  156.1582 H   0  0  0  0  0  0  0  0  0  0  0  0  # atno 11005 bound_to 11000
  146.3422  139.9176  142.8771 LP  0  0  0  0  0  0  0  0  0  0  0  0  # atno 17320 bound_to 7965
  145.2341  140.9984  143.3973 LP  0  0  0  0  0  0  0  0  0  0  0  0  # atno 17321 bound_to 7965
  140.6617  143.8484  150.6895 LP  0  0  0  0  0  0  0  0  0  0  0  0  # atno 17342 bound_to 10162
  140.1881  143.4059  152.1884 LP  0  0  0  0  0  0  0  0  0  0  0  0  # atno 17343 bound_to 10162
  156.5003  130.4115  149.6357 LP  0  0  0  0  0  0  0  0  0  0  0  0  # atno 17370 bound_to 10713
  156.3335  130.7344  151.2277 LP  0  0  0  0  0  0  0  0  0  0  0  0  # atno 17371 bound_to 10713
  140.7277  134.4289  157.5569 LP  0  0  0  0  0  0  0  0  0  0  0  0  # atno 17394 bound_to 11000
  139.8926  134.8752  156.2265 LP  0  0  0  0  0  0  0  0  0  0  0  0  # atno 17395 bound_to 11000

$$$$
