AV-unprocessed.smi:446|AV-procd|sdf|2596|dock3
  -GOLD-   2262022593D 1   1.00000     0.00000
 Structure written by MMmdl.
 36 38  0  0  0  0  0  0  0  0  2 V2000
  151.8337  137.7873  154.3217 C   0  0  0  0  0  0  0  0  0  0  0  0
  150.6527  138.6984  154.2904 C   0  0  0  0  0  0  0  0  0  0  0  0
  149.4995  138.4937  153.5938 N   0  3  0  0  0  0  0  0  0  0  0  0
  148.6213  139.5565  153.8117 C   0  0  0  0  0  0  0  0  0  0  0  0
  147.3397  139.7933  153.3242 C   0  0  0  0  0  0  0  0  0  0  0  0
  146.7125  140.9844  153.7451 C   0  0  0  0  0  0  0  0  0  0  0  0
  147.3589  141.8866  154.6146 C   0  0  0  0  0  0  0  0  0  0  0  0
  148.6589  141.6363  155.1012 C   0  0  0  0  0  0  0  0  0  0  0  0
  149.2715  140.4547  154.6833 C   0  0  0  0  0  0  0  0  0  0  0  0
  150.5220  139.8838  154.9510 N   0  0  0  0  0  0  0  0  0  0  0  0
  151.4663  140.5755  155.8433 C   0  0  0  0  0  0  0  0  0  0  0  0
  151.0919  140.4478  157.3336 C   0  0  1  0  0  0  0  0  0  0  0  0
  151.7495  139.3355  157.9097 O   0  0  0  0  0  0  0  0  0  0  0  0
  151.3804  141.7386  158.0837 C   0  0  0  0  0  0  0  0  0  0  0  0
  152.2215  141.7389  159.2189 C   0  0  0  0  0  0  0  0  0  0  0  0
  152.4925  142.9409  159.9011 C   0  0  0  0  0  0  0  0  0  0  0  0
  151.9267  144.1495  159.4520 C   0  0  0  0  0  0  0  0  0  0  0  0
  152.1880  145.3048  160.1078 F   0  0  0  0  0  0  0  0  0  0  0  0
  151.0907  144.1558  158.3190 C   0  0  0  0  0  0  0  0  0  0  0  0
  150.8190  142.9541  157.6362 C   0  0  0  0  0  0  0  0  0  0  0  0
  151.6638  136.9164  153.6882 H   0  0  0  0  0  0  0  0  0  0  0  0
  152.0161  137.4443  155.3404 H   0  0  0  0  0  0  0  0  0  0  0  0
  152.7220  138.3084  153.9646 H   0  0  0  0  0  0  0  0  0  0  0  0
  146.8432  139.1044  152.6566 H   0  0  0  0  0  0  0  0  0  0  0  0
  145.7164  141.2107  153.3930 H   0  0  0  0  0  0  0  0  0  0  0  0
  146.8482  142.7903  154.9143 H   0  0  0  0  0  0  0  0  0  0  0  0
  149.1462  142.3386  155.7610 H   0  0  0  0  0  0  0  0  0  0  0  0
  152.4754  140.2089  155.6549 H   0  0  0  0  0  0  0  0  0  0  0  0
  151.4699  141.6268  155.5532 H   0  0  0  0  0  0  0  0  0  0  0  0
  150.0229  140.2447  157.4083 H   0  0  0  0  0  0  0  0  0  0  0  0
  151.9538  138.7205  157.2215 H   0  0  0  0  0  0  0  0  0  0  0  0
  152.6643  140.8181  159.5694 H   0  0  0  0  0  0  0  0  0  0  0  0
  153.1364  142.9360  160.7682 H   0  0  0  0  0  0  0  0  0  0  0  0
  150.6588  145.0831  157.9725 H   0  0  0  0  0  0  0  0  0  0  0  0
  150.1790  142.9707  156.7661 H   0  0  0  0  0  0  0  0  0  0  0  0
  149.3276  137.6839  153.0119 H   0  0  0  0  0  0  0  0  0  0  0  0
  1  2  1  0  0  0  0
  1 21  1  0  0  0  0
  1 22  1  0  0  0  0
  1 23  1  0  0  0  0
  2 10  1  0  0  0  0
  2  3  2  0  0  0  0
  3  4  1  0  0  0  0
  3 36  1  0  0  0  0
  4  9  2  0  0  0  0
  4  5  1  0  0  0  0
  5  6  2  0  0  0  0
  5 24  1  0  0  0  0
  6  7  1  0  0  0  0
  6 25  1  0  0  0  0
  7  8  2  0  0  0  0
  7 26  1  0  0  0  0
  8  9  1  0  0  0  0
  8 27  1  0  0  0  0
  9 10  1  0  0  0  0
 10 11  1  0  0  0  0
 11 12  1  0  0  0  0
 11 28  1  0  0  0  0
 11 29  1  0  0  0  0
 12 13  1  0  0  0  0
 12 14  1  0  0  0  0
 12 30  1  0  0  0  0
 13 31  1  0  0  0  0
 14 20  1  0  0  0  0
 14 15  2  0  0  0  0
 15 16  1  0  0  0  0
 15 32  1  0  0  0  0
 16 17  2  0  0  0  0
 16 33  1  0  0  0  0
 17 18  1  0  0  0  0
 17 19  1  0  0  0  0
 19 20  2  0  0  0  0
 19 34  1  0  0  0  0
 20 35  1  0  0  0  0
M  CHG  1   3   1
M  END
> <s_m_source_file>
AV-unprocessed.smi

> <i_m_source_file_index>
446

> <i_lp_mmshare_version>
43012

> <i_f3d_flags>
0

> <s_epik_input>
W2NIXTFbY0hdW2NIXVtjSF1jKGMxMiluKGMobjIpW0NIM10pW0NIMl1bQ0BIXShbT0hdKWMzW2NIXVtjSF1jKEYpW2NIXVtjSF0z

> <s_epik_cmdline>
J2VwaWtfcHl0aG9uJywgJy1waCcsICc3LjAnLCAnLXRuJywgJzgnLCAnLW1hJywgJzIwMCcsICctbWV0YWxfYmluZGluZycsICctaW1hZScsICc8aW5maWxlLm1hZT4nLCAnLW9tYWUnLCAnPG91dGZpbGUubWFlPic=

> <r_epik_Ionization_Penalty>
0.963869

> <r_epik_Ionization_Penalty_Charging>
0.963868

> <r_epik_Ionization_Penalty_Neutral>
1.79538e-06

> <r_epik_State_Penalty>
1.00924

> <r_epik_Charging_Adjusted_Penalty>
1.9731

> <i_epik_Tot_Q>
1

> <i_epik_Tot_abs_Q>
1

> <r_epik_Metal_State_Penalty>
4.98304

> <b_epik_Metal_Only>
0

> <s_lp_Force_Field>
OPLS_2005

> <r_lp_Energy>
14.9475

> <b_lp_Chiralities_Consistent>
1

> <s_lp_Variant>
AV-unprocessed.smi:446-4

> <Gold.Version>
5.8.1

> <Gold.Id.Protein>
6NUR|6NUR_protein|mol2

> <Gold.PLP.Fitness>
52.6028

> <Gold.PLP.PLP>
-47.9851

> <Gold.PLP.part.hbond>
-2.0000

> <Gold.PLP.part.metal>
0.0000

> <Gold.PLP.part.buried>
1.6637

> <Gold.PLP.part.nonpolar>
-47.8522

> <Gold.PLP.part.repulsive>
0.0668

> <Gold.PLP.ligand.clash>
0.0000

> <Gold.PLP.ligand.torsion>
0.7050

> <Gold.PLP.Chemscore.Hbond>
2.0000

> <Gold.PLP.Chemscore.CHOScore>
0.0000

> <Gold.PLP.Chemscore.Metal>
0.0000

> <Gold.Chemscore.Hbonds>
donor molecule, donor type, donor heavy atom, donor atom, acceptor molecule, acceptor atom, score
      L1  H     3    36       P1  7948  2.00

> <Gold.PLP.Chemscore.Internal.Correction>
0.0277

> <Gold.Rescore>
     Score         DG    S(hbond)    S(metal)    S(lipo)     H(rot)  DE(clash)    DE(int)     intcor
     16.95     -17.78       1.00        0.00     117.11       1.85       0.25       0.58       ----

> <Gold.Chemscore.Fitness>
16.9530

> <Gold.Chemscore.DG>
-17.7801

> <Gold.Chemscore.ZeroCoef>
-5.4800

> <Gold.Chemscore.Hbond>
0.9955

> <Gold.Chemscore.Metal>
0.0000

> <Gold.Chemscore.Lipo>
117.1130

> <Gold.Chemscore.Internal_Hbond>
0.0000

> <Gold.Chemscore.DEClash>
0.2471

> <Gold.Chemscore.DEInternal>
0.5800

> <Gold.Chemscore.Rot>
1.8465

> <Gold.Chemscore.Internal.Correction>
   9.000000E+99

> <Gold.Chemscore.Hbonds>
donor molecule, donor type, donor heavy atom, donor atom, acceptor molecule, acceptor atom, score
      L1  H     3    36       P1  7948  0.96

> <Gold.Chemscore.Hbond.Weighted>
-3.3249

> <Gold.Chemscore.Metal.Weighted>
-0.0000

> <Gold.Chemscore.Lipo.Weighted>
-13.7022

> <Gold.Chemscore.Internal_Hbond.Weighted>
0.0000

> <Gold.Chemscore.DEClash.Weighted>
0.2471

> <Gold.Chemscore.DEInternal.Weighted>
0.5800

> <Gold.Chemscore.Rot.Weighted>
4.7270

> <Gold.Chemscore.Internal.Correction.Weighted>
   9.000000E+99

> <Gold.Protein.RotatedTorsions>
[ 6907 6896 6895 6894 ] final  -85.70 input  -60.11 | X-H torsion
[ 7974 7965 7964 7962 ] final  -21.29 input  175.53 | X-H torsion
[ 8008 7997 7996 7995 ] final  -31.53 input   59.86 | X-H torsion
[ 10167 10162 10161 10158 ] final -130.55 input  -65.29 | X-H torsion
[ 10718 10713 10712 10709 ] final  -31.39 input   66.30 | X-H torsion
[ 10763 10752 10751 10750 ] final  -79.13 input  -60.55 | X-H torsion
[ 11005 11000 10999 10996 ] final  135.54 input  -57.11 | X-H torsion

> <Gold.Protein.ActiveResidues>
 VAL166  LYS551  ARG553  GLY616  TRP617  ASP618  TYR619  PRO620  LYS621  CYS622 
 ASP623  PHE694  ASN695  SER759  ASP760  ASP761  ALA762  ILE779  LEU786  VAL792 
 PHE793  MET794  SER795  GLU796  ALA797  LYS798  CYS799  TRP800  GLU811  SER814 

> <Gold.Protein.RotatedAtoms>
  150.6869  134.3165  159.4768 H   0  0  0  0  0  0  0  0  0  0  0  0  # atno 6907 bound_to 6896
  152.1045  134.9315  160.0578 H   0  0  0  0  0  0  0  0  0  0  0  0  # atno 6908 bound_to 6896
  152.0582  133.4015  159.4443 H   0  0  0  0  0  0  0  0  0  0  0  0  # atno 6909 bound_to 6896
  146.1741  140.4321  142.8520 H   0  0  0  0  0  0  0  0  0  0  0  0  # atno 7974 bound_to 7965
  154.4211  140.1762  156.1581 H   0  0  0  0  0  0  0  0  0  0  0  0  # atno 8008 bound_to 7997
  155.9860  140.3373  155.6684 H   0  0  0  0  0  0  0  0  0  0  0  0  # atno 8009 bound_to 7997
  155.6436  140.0682  157.2601 H   0  0  0  0  0  0  0  0  0  0  0  0  # atno 8010 bound_to 7997
  139.9281  143.6304  152.2537 H   0  0  0  0  0  0  0  0  0  0  0  0  # atno 10167 bound_to 10162
  156.3878  130.4367  149.7418 H   0  0  0  0  0  0  0  0  0  0  0  0  # atno 10718 bound_to 10713
  154.5347  135.5706  153.6789 H   0  0  0  0  0  0  0  0  0  0  0  0  # atno 10763 bound_to 10752
  152.9948  135.6213  154.2582 H   0  0  0  0  0  0  0  0  0  0  0  0  # atno 10764 bound_to 10752
  154.2510  135.2859  155.2796 H   0  0  0  0  0  0  0  0  0  0  0  0  # atno 10765 bound_to 10752
  139.9986  134.9487  157.0022 H   0  0  0  0  0  0  0  0  0  0  0  0  # atno 11005 bound_to 11000
  144.8208  140.6547  143.6354 LP  0  0  0  0  0  0  0  0  0  0  0  0  # atno 17320 bound_to 7965
  145.4260  139.1556  143.4048 LP  0  0  0  0  0  0  0  0  0  0  0  0  # atno 17321 bound_to 7965
  139.6805  144.7656  151.1617 LP  0  0  0  0  0  0  0  0  0  0  0  0  # atno 17342 bound_to 10162
  140.7645  143.5732  150.8974 LP  0  0  0  0  0  0  0  0  0  0  0  0  # atno 17343 bound_to 10162
  156.4483  130.7894  151.2916 LP  0  0  0  0  0  0  0  0  0  0  0  0  # atno 17370 bound_to 10713
  157.7497  131.0103  150.3301 LP  0  0  0  0  0  0  0  0  0  0  0  0  # atno 17371 bound_to 10713
  140.4770  134.1328  155.7211 LP  0  0  0  0  0  0  0  0  0  0  0  0  # atno 17394 bound_to 11000
  141.1624  133.8767  157.1810 LP  0  0  0  0  0  0  0  0  0  0  0  0  # atno 17395 bound_to 11000

$$$$
