AV-unprocessed.smi:623|AV-procd|sdf|3098|dock1
  -GOLD-   22720 0 13D 1   1.00000     0.00000
 Structure written by MMmdl.
 44 46  0  0  0  0  0  0  0  0  2 V2000
  145.6048  133.8317  162.5355 C   0  0  0  0  0  0  0  0  0  0  0  0
  146.8621  134.1469  161.6768 C   0  0  0  0  0  0  0  0  0  0  0  0
  147.9622  133.1707  162.1792 C   0  0  0  0  0  0  0  0  0  0  0  0
  146.6169  134.0927  160.1553 C   0  0  1  0  0  0  0  0  0  0  0  0
  145.5968  135.2258  159.9086 C   0  0  0  0  0  0  0  0  0  0  0  0
  146.0284  136.2925  160.9338 C   0  0  0  0  0  0  0  0  0  0  0  0
  147.2726  135.6431  161.6029 C   0  0  1  0  0  0  0  0  0  0  0  0
  147.6517  136.3039  162.9390 C   0  0  0  0  0  0  0  0  0  0  0  0
  148.4373  135.6310  160.5658 C   0  0  2  0  0  0  0  0  0  0  0  0
  148.6808  136.9312  159.9423 N   0  0  0  0  0  0  0  0  0  0  0  0
  149.5573  137.1630  158.9544 C   0  0  0  0  0  0  0  0  0  0  0  0
  150.2515  136.2794  158.4497 O   0  0  0  0  0  0  0  0  0  0  0  0
  149.6276  138.6116  158.4510 C   0  0  0  0  0  0  0  0  0  0  0  0
  150.7325  138.8496  157.5083 N   0  0  0  0  0  0  0  0  0  0  0  0
  150.4224  138.8879  156.1376 C   0  0  0  0  0  0  0  0  0  0  0  0
  151.3672  139.0954  155.2008 C   0  0  0  0  0  0  0  0  0  0  0  0
  152.7443  139.2838  155.6396 C   0  0  0  0  0  0  0  0  0  0  0  0
  153.6194  139.4794  154.7984 O   0  0  0  0  0  0  0  0  0  0  0  0
  152.9958  139.2332  156.9806 N   0  5  0  0  0  0  0  0  0  0  0  0
  152.0249  139.0174  157.9219 C   0  0  0  0  0  0  0  0  0  0  0  0
  152.2743  138.9710  159.1270 O   0  0  0  0  0  0  0  0  0  0  0  0
  147.9596  134.5616  159.5526 C   0  0  0  0  0  0  0  0  0  0  0  0
  145.3111  132.7885  162.4152 H   0  0  0  0  0  0  0  0  0  0  0  0
  144.7235  134.4249  162.3020 H   0  0  0  0  0  0  0  0  0  0  0  0
  145.8108  133.9847  163.5951 H   0  0  0  0  0  0  0  0  0  0  0  0
  148.9210  133.2525  161.6727 H   0  0  0  0  0  0  0  0  0  0  0  0
  147.6398  132.1361  162.0576 H   0  0  0  0  0  0  0  0  0  0  0  0
  148.1584  133.3217  163.2411 H   0  0  0  0  0  0  0  0  0  0  0  0
  146.2883  133.1250  159.7749 H   0  0  0  0  0  0  0  0  0  0  0  0
  145.6345  135.6007  158.8850 H   0  0  0  0  0  0  0  0  0  0  0  0
  144.5745  134.8936  160.0897 H   0  0  0  0  0  0  0  0  0  0  0  0
  146.2286  137.2557  160.4653 H   0  0  0  0  0  0  0  0  0  0  0  0
  145.2355  136.4763  161.6588 H   0  0  0  0  0  0  0  0  0  0  0  0
  147.9136  137.3523  162.7950 H   0  0  0  0  0  0  0  0  0  0  0  0
  148.5090  135.8104  163.3971 H   0  0  0  0  0  0  0  0  0  0  0  0
  146.8264  136.2658  163.6501 H   0  0  0  0  0  0  0  0  0  0  0  0
  149.3650  135.3131  161.0440 H   0  0  0  0  0  0  0  0  0  0  0  0
  148.1525  137.7139  160.2992 H   0  0  0  0  0  0  0  0  0  0  0  0
  148.6729  138.8546  157.9827 H   0  0  0  0  0  0  0  0  0  0  0  0
  149.7072  139.2884  159.3039 H   0  0  0  0  0  0  0  0  0  0  0  0
  149.3808  138.7324  155.8977 H   0  0  0  0  0  0  0  0  0  0  0  0
  151.1126  139.1186  154.1515 H   0  0  0  0  0  0  0  0  0  0  0  0
  148.6752  133.7421  159.4835 H   0  0  0  0  0  0  0  0  0  0  0  0
  147.8352  134.9524  158.5416 H   0  0  0  0  0  0  0  0  0  0  0  0
  1  2  1  0  0  0  0
  1 23  1  0  0  0  0
  1 24  1  0  0  0  0
  1 25  1  0  0  0  0
  2  7  1  0  0  0  0
  2  3  1  0  0  0  0
  2  4  1  0  0  0  0
  3 26  1  0  0  0  0
  3 27  1  0  0  0  0
  3 28  1  0  0  0  0
  4 22  1  0  0  0  0
  4  5  1  0  0  0  0
  4 29  1  0  0  0  0
  5  6  1  0  0  0  0
  5 30  1  0  0  0  0
  5 31  1  0  0  0  0
  6  7  1  0  0  0  0
  6 32  1  0  0  0  0
  6 33  1  0  0  0  0
  7  8  1  0  0  0  0
  7  9  1  0  0  0  0
  8 34  1  0  0  0  0
  8 35  1  0  0  0  0
  8 36  1  0  0  0  0
  9 10  1  0  0  0  0
  9 22  1  0  0  0  0
  9 37  1  0  0  0  0
 10 11  1  0  0  0  0
 10 38  1  0  0  0  0
 11 12  2  0  0  0  0
 11 13  1  0  0  0  0
 13 14  1  0  0  0  0
 13 39  1  0  0  0  0
 13 40  1  0  0  0  0
 14 20  1  0  0  0  0
 14 15  1  0  0  0  0
 15 16  2  0  0  0  0
 15 41  1  0  0  0  0
 16 17  1  0  0  0  0
 16 42  1  0  0  0  0
 17 18  2  0  0  0  0
 17 19  1  0  0  0  0
 19 20  1  0  0  0  0
 20 21  2  0  0  0  0
 22 43  1  0  0  0  0
 22 44  1  0  0  0  0
M  CHG  1  19  -1
M  END
> <s_m_source_file>
AV-unprocessed.smi

> <i_m_source_file_index>
623

> <i_lp_mmshare_version>
43012

> <i_f3d_flags>
0

> <s_epik_input>
W0NIM11bQ0BdMTJDKFtDSDNdKShbQ0gzXSlbQ0BIXShbQ0gyXVtDSDJdMSlbQ0gyXVtDQEBIXTJbTkhdQyg9TylbQ0gyXW4zW2NIXVtjSF1jKD1PKVtuSF1jMz1P

> <s_epik_cmdline>
J2VwaWtfcHl0aG9uJywgJy1waCcsICc3LjAnLCAnLXRuJywgJzgnLCAnLW1hJywgJzIwMCcsICctbWV0YWxfYmluZGluZycsICctaW1hZScsICc8aW5maWxlLm1hZT4nLCAnLW9tYWUnLCAnPG91dGZpbGUubWFlPic=

> <r_lp_tautomer_probability>
0.999537

> <r_epik_Ionization_Penalty>
3.12624

> <r_epik_Ionization_Penalty_Charging>
3.01273e-08

> <r_epik_Ionization_Penalty_Neutral>
3.12624

> <r_epik_State_Penalty>
3.12534

> <r_epik_Charging_Adjusted_Penalty>
3.12534

> <i_epik_Tot_Q>
-1

> <i_epik_Tot_abs_Q>
1

> <r_epik_Metal_State_Penalty>
0.46406

> <b_epik_Metal_Only>
1

> <s_lp_Force_Field>
OPLS_2005

> <r_lp_Energy>
65.8638

> <b_lp_Chiralities_Consistent>
1

> <s_lp_Variant>
AV-unprocessed.smi:623-8

> <Gold.Version>
5.8.1

> <Gold.Id.Protein>
6NUR|6NUR_protein|mol2

> <Gold.PLP.Fitness>
42.9930

> <Gold.PLP.PLP>
-34.0666

> <Gold.PLP.part.hbond>
-3.9086

> <Gold.PLP.part.metal>
0.0000

> <Gold.PLP.part.buried>
-4.9141

> <Gold.PLP.part.nonpolar>
-26.9571

> <Gold.PLP.part.repulsive>
0.2478

> <Gold.PLP.ligand.clash>
0.0000

> <Gold.PLP.ligand.torsion>
0.3534

> <Gold.PLP.Chemscore.Hbond>
3.2070

> <Gold.PLP.Chemscore.CHOScore>
0.0000

> <Gold.PLP.Chemscore.Metal>
0.0000

> <Gold.Chemscore.Hbonds>
donor molecule, donor type, donor heavy atom, donor atom, acceptor molecule, acceptor atom, score
      P1  H  6896  6909       L1    12  0.94
      P1  H  7997  8008       L1    18  0.40
      P1  H  7997  8010       L1    19  1.70

> <Gold.PLP.Chemscore.Internal.Correction>
0.0123

> <Gold.Rescore>
     Score         DG    S(hbond)    S(metal)    S(lipo)     H(rot)  DE(clash)    DE(int)     intcor
     15.73     -16.23       1.75        0.00      77.69       1.63       0.04       0.46       ----

> <Gold.Chemscore.Fitness>
15.7309

> <Gold.Chemscore.DG>
-16.2314

> <Gold.Chemscore.ZeroCoef>
-5.4800

> <Gold.Chemscore.Hbond>
1.7486

> <Gold.Chemscore.Metal>
0.0000

> <Gold.Chemscore.Lipo>
77.6873

> <Gold.Chemscore.Internal_Hbond>
0.0000

> <Gold.Chemscore.DEClash>
0.0406

> <Gold.Chemscore.DEInternal>
0.4600

> <Gold.Chemscore.Rot>
1.6322

> <Gold.Chemscore.Internal.Correction>
   9.000000E+99

> <Gold.Chemscore.Hbonds>
donor molecule, donor type, donor heavy atom, donor atom, acceptor molecule, acceptor atom, score
      P1  H  6896  6909       L1    12  0.84
      P1  H  7997  8008       L1    18  0.37
      P1  H  7997  8010       L1    19  0.14

> <Gold.Chemscore.Hbond.Weighted>
-5.8403

> <Gold.Chemscore.Metal.Weighted>
-0.0000

> <Gold.Chemscore.Lipo.Weighted>
-9.0894

> <Gold.Chemscore.Internal_Hbond.Weighted>
0.0000

> <Gold.Chemscore.DEClash.Weighted>
0.0406

> <Gold.Chemscore.DEInternal.Weighted>
0.4600

> <Gold.Chemscore.Rot.Weighted>
4.1783

> <Gold.Chemscore.Internal.Correction.Weighted>
   9.000000E+99

> <Gold.Protein.RotatedTorsions>
[ 6907 6896 6895 6894 ] final   63.26 input  -60.11 | X-H torsion
[ 7974 7965 7964 7962 ] final -114.73 input  175.53 | X-H torsion
[ 8008 7997 7996 7995 ] final   38.64 input   59.86 | X-H torsion
[ 10167 10162 10161 10158 ] final   -1.76 input  -65.29 | X-H torsion
[ 10718 10713 10712 10709 ] final   59.70 input   66.30 | X-H torsion
[ 10763 10752 10751 10750 ] final  -97.19 input  -60.55 | X-H torsion
[ 11005 11000 10999 10996 ] final -143.92 input  -57.11 | X-H torsion

> <Gold.Protein.ActiveResidues>
 VAL166  LYS551  ARG553  GLY616  TRP617  ASP618  TYR619  PRO620  LYS621  CYS622 
 ASP623  PHE694  ASN695  SER759  ASP760  ASP761  ALA762  ILE779  LEU786  VAL792 
 PHE793  MET794  SER795  GLU796  ALA797  LYS798  CYS799  TRP800  GLU811  SER814 

> <Gold.Protein.RotatedAtoms>
  152.4239  134.5904  159.9972 H   0  0  0  0  0  0  0  0  0  0  0  0  # atno 6907 bound_to 6896
  151.6046  133.3347  159.3062 H   0  0  0  0  0  0  0  0  0  0  0  0  # atno 6908 bound_to 6896
  150.8128  134.7330  159.6768 H   0  0  0  0  0  0  0  0  0  0  0  0  # atno 6909 bound_to 6896
  145.1167  140.8644  143.3838 H   0  0  0  0  0  0  0  0  0  0  0  0  # atno 7974 bound_to 7965
  155.2235  140.3333  155.4312 H   0  0  0  0  0  0  0  0  0  0  0  0  # atno 8008 bound_to 7997
  156.2323  140.1856  156.7256 H   0  0  0  0  0  0  0  0  0  0  0  0  # atno 8009 bound_to 7997
  154.6000  140.0624  156.9340 H   0  0  0  0  0  0  0  0  0  0  0  0  # atno 8010 bound_to 7997
  140.6823  143.6737  150.8163 H   0  0  0  0  0  0  0  0  0  0  0  0  # atno 10167 bound_to 10162
  157.5696  130.8897  149.9244 H   0  0  0  0  0  0  0  0  0  0  0  0  # atno 10718 bound_to 10713
  154.7306  135.5056  153.8957 H   0  0  0  0  0  0  0  0  0  0  0  0  # atno 10763 bound_to 10752
  153.0946  135.6668  153.9797 H   0  0  0  0  0  0  0  0  0  0  0  0  # atno 10764 bound_to 10752
  153.9599  135.3049  155.3413 H   0  0  0  0  0  0  0  0  0  0  0  0  # atno 10765 bound_to 10752
  140.8076  134.2783  157.4954 H   0  0  0  0  0  0  0  0  0  0  0  0  # atno 11005 bound_to 11000
  145.0786  139.2977  143.5795 LP  0  0  0  0  0  0  0  0  0  0  0  0  # atno 17320 bound_to 7965
  146.3523  140.0285  142.8652 LP  0  0  0  0  0  0  0  0  0  0  0  0  # atno 17321 bound_to 7965
  140.0439  143.5318  152.2705 LP  0  0  0  0  0  0  0  0  0  0  0  0  # atno 17342 bound_to 10162
  139.6155  144.7618  151.2856 LP  0  0  0  0  0  0  0  0  0  0  0  0  # atno 17343 bound_to 10162
  156.0742  130.3681  150.0712 LP  0  0  0  0  0  0  0  0  0  0  0  0  # atno 17370 bound_to 10713
  156.8867  130.9574  151.3593 LP  0  0  0  0  0  0  0  0  0  0  0  0  # atno 17371 bound_to 10713
  139.8716  134.9465  156.3940 LP  0  0  0  0  0  0  0  0  0  0  0  0  # atno 17394 bound_to 11000
  140.9231  133.7631  155.9931 LP  0  0  0  0  0  0  0  0  0  0  0  0  # atno 17395 bound_to 11000

$$$$
