AV-unprocessed.smi:1120|AV-procd|sdf|4819|dock4
  -GOLD-   22720 3373D 1   1.00000     0.00000
 Structure written by MMmdl.
 48 49  0  0  0  0  0  0  0  0  1 V2000
  147.2568  132.3371  152.0122 C   0  0  0  0  0  0  0  0  0  0  0  0
  148.0424  132.7092  153.2775 C   0  0  2  0  0  0  0  0  0  0  0  0
  147.5669  134.0520  153.8608 C   0  0  0  0  0  0  0  0  0  0  0  0
  148.3329  134.4245  155.1414 C   0  0  0  0  0  0  0  0  0  0  0  0
  149.8609  134.4014  154.9445 C   0  0  2  0  0  0  0  0  0  0  0  0
  150.3091  135.5765  154.1915 N   0  0  0  0  0  0  0  0  0  0  0  0
  151.1112  136.9133  154.9343 S   0  0  0  0  0  0  0  0  0  0  0  0
  151.0704  136.6751  156.3849 O   0  0  0  0  0  0  0  0  0  0  0  0
  152.3983  137.1100  154.2487 O   0  0  0  0  0  0  0  0  0  0  0  0
  149.9734  138.3248  154.5636 C   0  0  0  0  0  0  0  0  0  0  0  0
  150.5681  139.6546  155.0264 C   0  0  0  0  0  0  0  0  0  0  0  0
  151.6741  140.0107  154.6210 O   0  0  0  0  0  0  0  0  0  0  0  0
  149.8279  140.3757  155.8827 N   0  0  0  0  0  0  0  0  0  0  0  0
  150.2145  141.6655  156.4429 C   0  0  0  0  0  0  0  0  0  0  0  0
  151.3853  141.5272  157.4299 C   0  0  0  0  0  0  0  0  0  0  0  0
  151.5313  142.7431  158.3251 C   0  0  0  0  0  0  0  0  0  0  0  0
  152.5780  142.8222  159.2681 C   0  0  0  0  0  0  0  0  0  0  0  0
  152.6675  143.9723  160.0762 C   0  0  0  0  0  0  0  0  0  0  0  0
  151.7114  144.9932  159.9120 C   0  0  0  0  0  0  0  0  0  0  0  0
  150.7037  144.8172  158.9428 C   0  0  0  0  0  0  0  0  0  0  0  0
  150.6088  143.7185  158.1628 N   0  0  0  0  0  0  0  0  0  0  0  0
  150.3539  133.1059  154.2730 C   0  0  0  0  0  0  0  0  0  0  0  0
  149.5567  132.7564  153.0053 C   0  0  0  0  0  0  0  0  0  0  0  0
  147.4023  133.0751  151.2229 H   0  0  0  0  0  0  0  0  0  0  0  0
  146.1879  132.2756  152.2178 H   0  0  0  0  0  0  0  0  0  0  0  0
  147.5730  131.3682  151.6247 H   0  0  0  0  0  0  0  0  0  0  0  0
  147.8558  131.9323  154.0204 H   0  0  0  0  0  0  0  0  0  0  0  0
  147.6939  134.8417  153.1191 H   0  0  0  0  0  0  0  0  0  0  0  0
  146.4994  134.0066  154.0788 H   0  0  0  0  0  0  0  0  0  0  0  0
  148.0074  135.3999  155.5049 H   0  0  0  0  0  0  0  0  0  0  0  0
  148.0709  133.7106  155.9232 H   0  0  0  0  0  0  0  0  0  0  0  0
  150.3222  134.4561  155.9302 H   0  0  0  0  0  0  0  0  0  0  0  0
  149.8794  135.7490  153.2826 H   0  0  0  0  0  0  0  0  0  0  0  0
  149.7462  138.3276  153.4973 H   0  0  0  0  0  0  0  0  0  0  0  0
  149.0403  138.1513  155.1001 H   0  0  0  0  0  0  0  0  0  0  0  0
  148.9320  140.0064  156.1665 H   0  0  0  0  0  0  0  0  0  0  0  0
  150.4988  142.3186  155.6173 H   0  0  0  0  0  0  0  0  0  0  0  0
  149.3581  142.1358  156.9295 H   0  0  0  0  0  0  0  0  0  0  0  0
  151.2535  140.6400  158.0509 H   0  0  0  0  0  0  0  0  0  0  0  0
  152.3178  141.3829  156.8844 H   0  0  0  0  0  0  0  0  0  0  0  0
  153.2955  142.0216  159.3716 H   0  0  0  0  0  0  0  0  0  0  0  0
  153.4552  144.0693  160.8087 H   0  0  0  0  0  0  0  0  0  0  0  0
  151.7491  145.8890  160.5141 H   0  0  0  0  0  0  0  0  0  0  0  0
  149.9538  145.5791  158.7897 H   0  0  0  0  0  0  0  0  0  0  0  0
  151.4182  133.1754  154.0452 H   0  0  0  0  0  0  0  0  0  0  0  0
  150.2513  132.2835  154.9817 H   0  0  0  0  0  0  0  0  0  0  0  0
  149.8961  131.7950  152.6183 H   0  0  0  0  0  0  0  0  0  0  0  0
  149.7684  133.4914  152.2278 H   0  0  0  0  0  0  0  0  0  0  0  0
  1  2  1  0  0  0  0
  1 24  1  0  0  0  0
  1 25  1  0  0  0  0
  1 26  1  0  0  0  0
  2 23  1  0  0  0  0
  2  3  1  0  0  0  0
  2 27  1  0  0  0  0
  3  4  1  0  0  0  0
  3 28  1  0  0  0  0
  3 29  1  0  0  0  0
  4  5  1  0  0  0  0
  4 30  1  0  0  0  0
  4 31  1  0  0  0  0
  5  6  1  0  0  0  0
  5 22  1  0  0  0  0
  5 32  1  0  0  0  0
  6  7  1  0  0  0  0
  6 33  1  0  0  0  0
  7  8  2  0  0  0  0
  7  9  2  0  0  0  0
  7 10  1  0  0  0  0
 10 11  1  0  0  0  0
 10 34  1  0  0  0  0
 10 35  1  0  0  0  0
 11 12  2  0  0  0  0
 11 13  1  0  0  0  0
 13 14  1  0  0  0  0
 13 36  1  0  0  0  0
 14 15  1  0  0  0  0
 14 37  1  0  0  0  0
 14 38  1  0  0  0  0
 15 16  1  0  0  0  0
 15 39  1  0  0  0  0
 15 40  1  0  0  0  0
 16 21  1  0  0  0  0
 16 17  2  0  0  0  0
 17 18  1  0  0  0  0
 17 41  1  0  0  0  0
 18 19  2  0  0  0  0
 18 42  1  0  0  0  0
 19 20  1  0  0  0  0
 19 43  1  0  0  0  0
 20 21  2  0  0  0  0
 20 44  1  0  0  0  0
 22 23  1  0  0  0  0
 22 45  1  0  0  0  0
 22 46  1  0  0  0  0
 23 47  1  0  0  0  0
 23 48  1  0  0  0  0
M  END
> <s_m_source_file>
AV-unprocessed.smi

> <i_m_source_file_index>
1120

> <i_lp_mmshare_version>
43012

> <i_f3d_flags>
0

> <s_epik_input>
W0NIM11bQ0BASF0xW0NIMl1bQ0gyXVtDQEhdKFtDSDJdW0NIMl0xKVtOSF1TKD1PKSg9TylbQ0gyXUMoPU8pW05IXVtDSDJdW0NIMl1jMltjSF1bY0hdW2NIXVtjSF1uMg==

> <s_epik_cmdline>
J2VwaWtfcHl0aG9uJywgJy1waCcsICc3LjAnLCAnLXRuJywgJzgnLCAnLW1hJywgJzIwMCcsICctbWV0YWxfYmluZGluZycsICctaW1hZScsICc8aW5maWxlLm1hZT4nLCAnLW9tYWUnLCAnPG91dGZpbGUubWFlPic=

> <r_epik_Ionization_Penalty>
0.0216068

> <r_epik_Ionization_Penalty_Charging>
0

> <r_epik_Ionization_Penalty_Neutral>
0.0216068

> <r_epik_State_Penalty>
0.01735

> <r_epik_Charging_Adjusted_Penalty>
0.01735

> <i_epik_Tot_Q>
0

> <i_epik_Tot_abs_Q>
0

> <r_epik_Metal_State_Penalty>
0.0535325

> <b_epik_Metal_Only>
0

> <s_lp_Force_Field>
OPLS_2005

> <r_lp_Energy>
6.87343

> <b_lp_Chiralities_Consistent>
1

> <s_lp_Variant>
AV-unprocessed.smi:1120-2

> <Gold.Version>
5.8.1

> <Gold.Id.Protein>
6NUR|6NUR_protein|mol2

> <Gold.PLP.Fitness>
54.9556

> <Gold.PLP.PLP>
-43.7946

> <Gold.PLP.part.hbond>
-3.3475

> <Gold.PLP.part.metal>
0.0000

> <Gold.PLP.part.buried>
-6.3364

> <Gold.PLP.part.nonpolar>
-37.1501

> <Gold.PLP.part.repulsive>
1.1461

> <Gold.PLP.ligand.clash>
0.0000

> <Gold.PLP.ligand.torsion>
0.9031

> <Gold.PLP.Chemscore.Hbond>
2.9420

> <Gold.PLP.Chemscore.CHOScore>
0.9916

> <Gold.PLP.Chemscore.Metal>
0.0000

> <Gold.Chemscore.Hbonds>
donor molecule, donor type, donor heavy atom, donor atom, acceptor molecule, acceptor atom, score
      L1  H     6    33       P1  7948  0.35
      P1  H  7989  7998       L1    12  0.68
      P1  H 10752 10764       L1     9  0.63
      L1  C    20    44       P1  8029  0.91

> <Gold.PLP.Chemscore.Internal.Correction>
1.1664

> <Gold.Rescore>
     Score         DG    S(hbond)    S(metal)    S(lipo)     H(rot)  DE(clash)    DE(int)     intcor
     20.87     -21.78       2.71        0.00     104.02       1.92       0.01       0.90       ----

> <Gold.Chemscore.Fitness>
20.8676

> <Gold.Chemscore.DG>
-21.7754

> <Gold.Chemscore.ZeroCoef>
-5.4800

> <Gold.Chemscore.Hbond>
2.7098

> <Gold.Chemscore.Metal>
0.0000

> <Gold.Chemscore.Lipo>
104.0190

> <Gold.Chemscore.Internal_Hbond>
0.0000

> <Gold.Chemscore.DEClash>
0.0121

> <Gold.Chemscore.DEInternal>
0.8956

> <Gold.Chemscore.Rot>
1.9241

> <Gold.Chemscore.Internal.Correction>
   9.000000E+99

> <Gold.Chemscore.Hbonds>
donor molecule, donor type, donor heavy atom, donor atom, acceptor molecule, acceptor atom, score
      L1  H     6    33       P1  7948  0.01
      P1  H  7989  7998       L1    12  0.62
      P1  H 10752 10764       L1     9  0.12

> <Gold.Chemscore.Hbond.Weighted>
-9.0508

> <Gold.Chemscore.Metal.Weighted>
-0.0000

> <Gold.Chemscore.Lipo.Weighted>
-12.1702

> <Gold.Chemscore.Internal_Hbond.Weighted>
0.0000

> <Gold.Chemscore.DEClash.Weighted>
0.0121

> <Gold.Chemscore.DEInternal.Weighted>
0.8956

> <Gold.Chemscore.Rot.Weighted>
4.9256

> <Gold.Chemscore.Internal.Correction.Weighted>
   9.000000E+99

> <Gold.Protein.RotatedTorsions>
[ 6907 6896 6895 6894 ] final  -37.44 input  -60.11 | X-H torsion
[ 7974 7965 7964 7962 ] final  164.01 input  175.53 | X-H torsion
[ 8008 7997 7996 7995 ] final   28.51 input   59.86 | X-H torsion
[ 10167 10162 10161 10158 ] final -156.81 input  -65.29 | X-H torsion
[ 10718 10713 10712 10709 ] final   29.15 input   66.30 | X-H torsion
[ 10763 10752 10751 10750 ] final  -69.64 input  -60.55 | X-H torsion
[ 11005 11000 10999 10996 ] final   99.98 input  -57.11 | X-H torsion

> <Gold.Protein.ActiveResidues>
 VAL166  LYS551  ARG553  GLY616  TRP617  ASP618  TYR619  PRO620  LYS621  CYS622 
 ASP623  PHE694  ASN695  SER759  ASP760  ASP761  ALA762  ILE779  LEU786  VAL792 
 PHE793  MET794  SER795  GLU796  ALA797  LYS798  CYS799  TRP800  GLU811  SER814 

> <Gold.Protein.RotatedAtoms>
  151.0147  134.9423  159.8026 H   0  0  0  0  0  0  0  0  0  0  0  0  # atno 6907 bound_to 6896
  152.5311  134.2982  159.9078 H   0  0  0  0  0  0  0  0  0  0  0  0  # atno 6908 bound_to 6896
  151.2989  133.4089  159.2672 H   0  0  0  0  0  0  0  0  0  0  0  0  # atno 6909 bound_to 6896
  144.7564  139.8264  143.6348 H   0  0  0  0  0  0  0  0  0  0  0  0  # atno 7974 bound_to 7965
  155.0598  140.3189  155.4664 H   0  0  0  0  0  0  0  0  0  0  0  0  # atno 8008 bound_to 7997
  156.2816  140.2131  156.5669 H   0  0  0  0  0  0  0  0  0  0  0  0  # atno 8009 bound_to 7997
  154.7142  140.0495  157.0566 H   0  0  0  0  0  0  0  0  0  0  0  0  # atno 8010 bound_to 7997
  139.6821  143.9564  152.2342 H   0  0  0  0  0  0  0  0  0  0  0  0  # atno 10167 bound_to 10162
  157.2428  130.7077  149.6367 H   0  0  0  0  0  0  0  0  0  0  0  0  # atno 10718 bound_to 10713
  154.4063  135.6019  153.5926 H   0  0  0  0  0  0  0  0  0  0  0  0  # atno 10763 bound_to 10752
  152.9789  135.5918  154.4123 H   0  0  0  0  0  0  0  0  0  0  0  0  # atno 10764 bound_to 10752
  154.3929  135.2842  155.2122 H   0  0  0  0  0  0  0  0  0  0  0  0  # atno 10765 bound_to 10752
  139.8771  134.9120  156.4687 H   0  0  0  0  0  0  0  0  0  0  0  0  # atno 11005 bound_to 11000
  146.1579  139.4683  143.0007 LP  0  0  0  0  0  0  0  0  0  0  0  0  # atno 17320 bound_to 7965
  145.6765  141.0202  143.1629 LP  0  0  0  0  0  0  0  0  0  0  0  0  # atno 17321 bound_to 7965
  139.9357  144.6713  150.8317 LP  0  0  0  0  0  0  0  0  0  0  0  0  # atno 17342 bound_to 10162
  140.7655  143.3278  151.2476 LP  0  0  0  0  0  0  0  0  0  0  0  0  # atno 17343 bound_to 10162
  155.9669  130.4452  150.5493 LP  0  0  0  0  0  0  0  0  0  0  0  0  # atno 17370 bound_to 10713
  157.3360  131.0708  151.1824 LP  0  0  0  0  0  0  0  0  0  0  0  0  # atno 17371 bound_to 10713
  140.8811  133.7917  155.9468 LP  0  0  0  0  0  0  0  0  0  0  0  0  # atno 17394 bound_to 11000
  140.8852  134.2562  157.5123 LP  0  0  0  0  0  0  0  0  0  0  0  0  # atno 17395 bound_to 11000

$$$$
