AV-unprocessed.smi:2814|AV-procd|sdf|10839|dock5
  -GOLD-   2272015283D 1   1.00000     0.00000
 Structure written by MMmdl.
 37 38  0  0  0  0  0  0  0  0  1 V2000
  146.0161  130.0857  151.7259 C   0  0  0  0  0  0  0  0  0  0  0  0
  145.4502  131.4441  151.3681 C   0  0  0  0  0  0  0  0  0  0  0  0
  146.2054  132.6192  151.5689 C   0  0  0  0  0  0  0  0  0  0  0  0
  145.6296  133.8633  151.2149 C   0  0  0  0  0  0  0  0  0  0  0  0
  146.2748  135.1180  151.3851 N   0  0  0  0  0  0  0  0  0  0  0  0
  145.7206  136.3325  151.5416 C   0  0  0  0  0  0  0  0  0  0  0  0
  144.5127  136.5634  151.5948 O   0  0  0  0  0  0  0  0  0  0  0  0
  146.6619  137.2814  151.6499 N   0  0  0  0  0  0  0  0  0  0  0  0
  146.4189  138.7114  151.8289 C   0  0  0  0  0  0  0  0  0  0  0  0
  147.1335  139.2808  153.0756 C   0  0  0  0  0  0  0  0  0  0  0  0
  148.4546  138.7692  153.1002 O   0  0  0  0  0  0  0  0  0  0  0  0
  147.1741  140.8131  153.1734 C   0  0  0  0  0  0  0  0  0  0  0  0
  147.3768  141.1326  154.6599 C   0  0  0  0  0  0  0  0  0  0  0  0
  146.9322  139.8845  155.4371 C   0  0  0  0  0  0  0  0  0  0  0  0
  146.4557  138.8702  154.3895 C   0  0  0  0  0  0  0  0  0  0  0  0
  144.3164  133.8650  150.7016 C   0  0  0  0  0  0  0  0  0  0  0  0
  143.6492  132.6350  150.5390 C   0  0  0  0  0  0  0  0  0  0  0  0
  144.1988  131.4452  150.8598 N   0  0  0  0  0  0  0  0  0  0  0  0
  147.0184  130.1717  152.1465 H   0  0  0  0  0  0  0  0  0  0  0  0
  146.0720  129.4536  150.8393 H   0  0  0  0  0  0  0  0  0  0  0  0
  145.3805  129.5917  152.4613 H   0  0  0  0  0  0  0  0  0  0  0  0
  147.1937  132.5493  151.9965 H   0  0  0  0  0  0  0  0  0  0  0  0
  147.2816  135.0800  151.4469 H   0  0  0  0  0  0  0  0  0  0  0  0
  147.6289  136.9970  151.5929 H   0  0  0  0  0  0  0  0  0  0  0  0
  146.7345  139.2546  150.9365 H   0  0  0  0  0  0  0  0  0  0  0  0
  145.3429  138.8715  151.9067 H   0  0  0  0  0  0  0  0  0  0  0  0
  148.4459  137.9035  152.7211 H   0  0  0  0  0  0  0  0  0  0  0  0
  147.9392  141.2635  152.5395 H   0  0  0  0  0  0  0  0  0  0  0  0
  146.2127  141.2214  152.8590 H   0  0  0  0  0  0  0  0  0  0  0  0
  148.4289  141.3378  154.8611 H   0  0  0  0  0  0  0  0  0  0  0  0
  146.8111  142.0174  154.9541 H   0  0  0  0  0  0  0  0  0  0  0  0
  147.7772  139.4787  155.9947 H   0  0  0  0  0  0  0  0  0  0  0  0
  146.1461  140.1110  156.1583 H   0  0  0  0  0  0  0  0  0  0  0  0
  145.3732  138.9596  154.2856 H   0  0  0  0  0  0  0  0  0  0  0  0
  146.6649  137.8387  154.6770 H   0  0  0  0  0  0  0  0  0  0  0  0
  143.8273  134.7891  150.4298 H   0  0  0  0  0  0  0  0  0  0  0  0
  142.6458  132.6066  150.1411 H   0  0  0  0  0  0  0  0  0  0  0  0
  1  2  1  0  0  0  0
  1 19  1  0  0  0  0
  1 20  1  0  0  0  0
  1 21  1  0  0  0  0
  2 18  1  0  0  0  0
  2  3  2  0  0  0  0
  3  4  1  0  0  0  0
  3 22  1  0  0  0  0
  4  5  1  0  0  0  0
  4 16  2  0  0  0  0
  5  6  1  0  0  0  0
  5 23  1  0  0  0  0
  6  7  2  0  0  0  0
  6  8  1  0  0  0  0
  8  9  1  0  0  0  0
  8 24  1  0  0  0  0
  9 10  1  0  0  0  0
  9 25  1  0  0  0  0
  9 26  1  0  0  0  0
 10 15  1  0  0  0  0
 10 11  1  0  0  0  0
 10 12  1  0  0  0  0
 11 27  1  0  0  0  0
 12 13  1  0  0  0  0
 12 28  1  0  0  0  0
 12 29  1  0  0  0  0
 13 14  1  0  0  0  0
 13 30  1  0  0  0  0
 13 31  1  0  0  0  0
 14 15  1  0  0  0  0
 14 32  1  0  0  0  0
 14 33  1  0  0  0  0
 15 34  1  0  0  0  0
 15 35  1  0  0  0  0
 16 17  1  0  0  0  0
 16 36  1  0  0  0  0
 17 18  2  0  0  0  0
 17 37  1  0  0  0  0
M  END
> <s_m_source_file>
AV-unprocessed.smi

> <i_m_source_file_index>
2814

> <i_lp_mmshare_version>
43012

> <i_f3d_flags>
0

> <s_epik_input>
W0NIM11jMVtjSF1jKFtjSF1bY0hdbjEpW05IXUMoPU8pW05IXVtDSDJdQzIoW09IXSlbQ0gyXVtDSDJdW0NIMl1bQ0gyXTI=

> <s_epik_cmdline>
J2VwaWtfcHl0aG9uJywgJy1waCcsICc3LjAnLCAnLXRuJywgJzgnLCAnLW1hJywgJzIwMCcsICctbWV0YWxfYmluZGluZycsICctaW1hZScsICc8aW5maWxlLm1hZT4nLCAnLW9tYWUnLCAnPG91dGZpbGUubWFlPic=

> <r_epik_Ionization_Penalty>
0.405099

> <r_epik_Ionization_Penalty_Charging>
0

> <r_epik_Ionization_Penalty_Neutral>
0.405099

> <r_epik_State_Penalty>
0.404681

> <r_epik_Charging_Adjusted_Penalty>
0.404681

> <i_epik_Tot_Q>
0

> <i_epik_Tot_abs_Q>
0

> <r_epik_Metal_State_Penalty>
0.238286

> <b_epik_Metal_Only>
0

> <s_lp_Force_Field>
OPLS_2005

> <r_lp_Energy>
28.9703

> <b_lp_Chiralities_Consistent>
1

> <s_lp_Variant>
AV-unprocessed.smi:2814-1

> <Gold.Version>
5.8.1

> <Gold.Id.Protein>
6NUR|6NUR_protein|mol2

> <Gold.PLP.Fitness>
43.8106

> <Gold.PLP.PLP>
-32.6947

> <Gold.PLP.part.hbond>
-3.9409

> <Gold.PLP.part.metal>
0.0000

> <Gold.PLP.part.buried>
-6.0788

> <Gold.PLP.part.nonpolar>
-26.3326

> <Gold.PLP.part.repulsive>
2.6713

> <Gold.PLP.ligand.clash>
0.0000

> <Gold.PLP.ligand.torsion>
0.2879

> <Gold.PLP.Chemscore.Hbond>
2.8960

> <Gold.PLP.Chemscore.CHOScore>
1.0000

> <Gold.PLP.Chemscore.Metal>
0.0000

> <Gold.Chemscore.Hbonds>
donor molecule, donor type, donor heavy atom, donor atom, acceptor molecule, acceptor atom, score
      L1  H     5    23       P1  7948  0.88
      L1  H     8    24       P1  7948  0.98
      L1  H    11    27       P1  7948  1.00
      L1  C    17    37       P1 10186  1.00

> <Gold.PLP.Chemscore.Internal.Correction>
0.0037

> <Gold.Rescore>
     Score         DG    S(hbond)    S(metal)    S(lipo)     H(rot)  DE(clash)    DE(int)     intcor
     16.36     -19.41       2.65        0.00      80.94       1.71       1.41       1.64       ----

> <Gold.Chemscore.Fitness>
16.3596

> <Gold.Chemscore.DG>
-19.4076

> <Gold.Chemscore.ZeroCoef>
-5.4800

> <Gold.Chemscore.Hbond>
2.6457

> <Gold.Chemscore.Metal>
0.0000

> <Gold.Chemscore.Lipo>
80.9352

> <Gold.Chemscore.Internal_Hbond>
0.0000

> <Gold.Chemscore.DEClash>
1.4053

> <Gold.Chemscore.DEInternal>
1.6427

> <Gold.Chemscore.Rot>
1.7103

> <Gold.Chemscore.Internal.Correction>
   9.000000E+99

> <Gold.Chemscore.Hbonds>
donor molecule, donor type, donor heavy atom, donor atom, acceptor molecule, acceptor atom, score
      L1  H     5    23       P1  7948  0.61
      L1  H     8    24       P1  7948  0.91
      L1  H    11    27       P1  7948  0.99

> <Gold.Chemscore.Hbond.Weighted>
-8.8366

> <Gold.Chemscore.Metal.Weighted>
-0.0000

> <Gold.Chemscore.Lipo.Weighted>
-9.4694

> <Gold.Chemscore.Internal_Hbond.Weighted>
0.0000

> <Gold.Chemscore.DEClash.Weighted>
1.4053

> <Gold.Chemscore.DEInternal.Weighted>
1.6427

> <Gold.Chemscore.Rot.Weighted>
4.3785

> <Gold.Chemscore.Internal.Correction.Weighted>
   9.000000E+99

> <Gold.Protein.RotatedTorsions>
[ 6907 6896 6895 6894 ] final  124.74 input  -60.11 | X-H torsion
[ 7974 7965 7964 7962 ] final -158.63 input  175.53 | X-H torsion
[ 8008 7997 7996 7995 ] final  100.08 input   59.86 | X-H torsion
[ 10167 10162 10161 10158 ] final  143.43 input  -65.29 | X-H torsion
[ 10718 10713 10712 10709 ] final  -58.68 input   66.30 | X-H torsion
[ 10763 10752 10751 10750 ] final  166.12 input  -60.55 | X-H torsion
[ 11005 11000 10999 10996 ] final  -45.95 input  -57.11 | X-H torsion

> <Gold.Protein.ActiveResidues>
 VAL166  LYS551  ARG553  GLY616  TRP617  ASP618  TYR619  PRO620  LYS621  CYS622 
 ASP623  PHE694  ASN695  SER759  ASP760  ASP761  ALA762  ILE779  LEU786  VAL792 
 PHE793  MET794  SER795  GLU796  ALA797  LYS798  CYS799  TRP800  GLU811  SER814 

> <Gold.Protein.RotatedAtoms>
  152.4052  133.6878  159.6349 H   0  0  0  0  0  0  0  0  0  0  0  0  # atno 6907 bound_to 6896
  150.7938  133.8722  159.3270 H   0  0  0  0  0  0  0  0  0  0  0  0  # atno 6908 bound_to 6896
  151.6478  135.1007  160.0206 H   0  0  0  0  0  0  0  0  0  0  0  0  # atno 6909 bound_to 6896
  144.7498  140.3800  143.6057 H   0  0  0  0  0  0  0  0  0  0  0  0  # atno 7974 bound_to 7965
  156.1169  140.3219  155.8152 H   0  0  0  0  0  0  0  0  0  0  0  0  # atno 8008 bound_to 7997
  155.4574  140.0537  157.3012 H   0  0  0  0  0  0  0  0  0  0  0  0  # atno 8009 bound_to 7997
  154.4799  140.2048  155.9802 H   0  0  0  0  0  0  0  0  0  0  0  0  # atno 8010 bound_to 7997
  139.4970  144.6041  151.6417 H   0  0  0  0  0  0  0  0  0  0  0  0  # atno 10167 bound_to 10162
  156.1117  130.4174  150.0611 H   0  0  0  0  0  0  0  0  0  0  0  0  # atno 10718 bound_to 10713
  154.3342  135.2754  155.2456 H   0  0  0  0  0  0  0  0  0  0  0  0  # atno 10763 bound_to 10752
  154.4754  135.5872  153.6355 H   0  0  0  0  0  0  0  0  0  0  0  0  # atno 10764 bound_to 10752
  152.9863  135.6098  154.3538 H   0  0  0  0  0  0  0  0  0  0  0  0  # atno 10765 bound_to 10752
  141.0548  133.6730  156.3085 H   0  0  0  0  0  0  0  0  0  0  0  0  # atno 11005 bound_to 11000
  145.6987  139.1656  143.2605 LP  0  0  0  0  0  0  0  0  0  0  0  0  # atno 17320 bound_to 7965
  146.1431  140.7030  142.9358 LP  0  0  0  0  0  0  0  0  0  0  0  0  # atno 17321 bound_to 7965
  140.5698  144.0128  150.6211 LP  0  0  0  0  0  0  0  0  0  0  0  0  # atno 17342 bound_to 10162
  140.3241  143.3118  152.0754 LP  0  0  0  0  0  0  0  0  0  0  0  0  # atno 17343 bound_to 10162
  156.8572  130.9479  151.3621 LP  0  0  0  0  0  0  0  0  0  0  0  0  # atno 17370 bound_to 10713
  157.6298  130.8720  149.9254 LP  0  0  0  0  0  0  0  0  0  0  0  0  # atno 17371 bound_to 10713
  140.5985  134.5578  157.5513 LP  0  0  0  0  0  0  0  0  0  0  0  0  # atno 17394 bound_to 11000
  139.9380  134.7838  156.0751 LP  0  0  0  0  0  0  0  0  0  0  0  0  # atno 17395 bound_to 11000

$$$$
