AV-unprocessed.smi:1166|AV-procd|sdf|4937|dock3
  -GOLD-   22720 3523D 1   1.00000     0.00000
 Structure written by MMmdl.
 46 47  0  0  0  0  0  0  0  0  1 V2000
  151.5700  144.5081  157.8118 C   0  0  0  0  0  0  0  0  0  0  0  0
  151.8655  144.4330  159.2390 N   0  0  0  0  0  0  0  0  0  0  0  0
  151.5501  145.5615  160.1062 C   0  0  0  0  0  0  0  0  0  0  0  0
  152.5101  143.2899  159.7651 C   0  0  0  0  0  0  0  0  0  0  0  0
  152.8819  143.2124  161.1303 C   0  0  0  0  0  0  0  0  0  0  0  0
  153.5232  142.0533  161.6079 C   0  0  0  0  0  0  0  0  0  0  0  0
  153.7747  140.9891  160.7118 C   0  0  0  0  0  0  0  0  0  0  0  0
  154.4309  139.7778  161.0617 N   0  0  0  0  0  0  0  0  0  0  0  0
  154.9864  138.8577  160.2546 C   0  0  0  0  0  0  0  0  0  0  0  0
  155.0550  138.9313  159.0280 O   0  0  0  0  0  0  0  0  0  0  0  0
  155.4860  137.8346  160.9623 N   0  0  0  0  0  0  0  0  0  0  0  0
  156.1578  136.6677  160.3987 C   0  0  1  0  0  0  0  0  0  0  0  0
  157.5499  136.4833  161.0253 C   0  0  0  0  0  0  0  0  0  0  0  0
  158.2098  135.2215  160.4582 C   0  0  0  0  0  0  0  0  0  0  0  0
  157.3225  133.9824  160.6700 C   0  0  0  0  0  0  0  0  0  0  0  0
  155.9588  134.1908  160.1419 N   0  0  0  0  0  0  0  0  0  0  0  0
  155.5032  133.4981  158.6118 S   0  0  0  0  0  0  0  0  0  0  0  0
  155.9693  134.7814  157.3788 C   0  0  0  0  0  0  0  0  0  0  0  0
  156.3488  132.3160  158.3851 O   0  0  0  0  0  0  0  0  0  0  0  0
  154.0388  133.3597  158.5986 O   0  0  0  0  0  0  0  0  0  0  0  0
  155.2897  135.4147  160.6263 C   0  0  0  0  0  0  0  0  0  0  0  0
  153.3790  141.1612  159.3710 C   0  0  0  0  0  0  0  0  0  0  0  0
  152.7635  142.2694  158.9097 N   0  0  0  0  0  0  0  0  0  0  0  0
  150.9169  143.6881  157.5121 H   0  0  0  0  0  0  0  0  0  0  0  0
  152.4890  144.4514  157.2275 H   0  0  0  0  0  0  0  0  0  0  0  0
  151.0690  145.4420  157.5569 H   0  0  0  0  0  0  0  0  0  0  0  0
  152.4570  145.9600  160.5620 H   0  0  0  0  0  0  0  0  0  0  0  0
  150.8648  145.2568  160.8975 H   0  0  0  0  0  0  0  0  0  0  0  0
  151.0759  146.3702  159.5496 H   0  0  0  0  0  0  0  0  0  0  0  0
  152.6926  144.0197  161.8211 H   0  0  0  0  0  0  0  0  0  0  0  0
  153.8187  142.0149  162.6443 H   0  0  0  0  0  0  0  0  0  0  0  0
  154.5242  139.6108  162.0530 H   0  0  0  0  0  0  0  0  0  0  0  0
  155.3900  137.8611  161.9669 H   0  0  0  0  0  0  0  0  0  0  0  0
  156.2735  136.8191  159.3253 H   0  0  0  0  0  0  0  0  0  0  0  0
  158.1791  137.3510  160.8237 H   0  0  0  0  0  0  0  0  0  0  0  0
  157.4665  136.4006  162.1100 H   0  0  0  0  0  0  0  0  0  0  0  0
  158.4129  135.3613  159.3973 H   0  0  0  0  0  0  0  0  0  0  0  0
  159.1782  135.0657  160.9343 H   0  0  0  0  0  0  0  0  0  0  0  0
  157.7789  133.1062  160.2102 H   0  0  0  0  0  0  0  0  0  0  0  0
  157.2484  133.7655  161.7361 H   0  0  0  0  0  0  0  0  0  0  0  0
  155.7309  134.4170  156.3799 H   0  0  0  0  0  0  0  0  0  0  0  0
  157.0379  134.9809  157.4358 H   0  0  0  0  0  0  0  0  0  0  0  0
  155.4079  135.6956  157.5625 H   0  0  0  0  0  0  0  0  0  0  0  0
  155.0875  135.2929  161.6912 H   0  0  0  0  0  0  0  0  0  0  0  0
  154.3199  135.5296  160.1422 H   0  0  0  0  0  0  0  0  0  0  0  0
  153.5581  140.3840  158.6425 H   0  0  0  0  0  0  0  0  0  0  0  0
  1  2  1  0  0  0  0
  1 24  1  0  0  0  0
  1 25  1  0  0  0  0
  1 26  1  0  0  0  0
  2  3  1  0  0  0  0
  2  4  1  0  0  0  0
  3 27  1  0  0  0  0
  3 28  1  0  0  0  0
  3 29  1  0  0  0  0
  4 23  1  0  0  0  0
  4  5  2  0  0  0  0
  5  6  1  0  0  0  0
  5 30  1  0  0  0  0
  6  7  2  0  0  0  0
  6 31  1  0  0  0  0
  7  8  1  0  0  0  0
  7 22  1  0  0  0  0
  8  9  1  0  0  0  0
  8 32  1  0  0  0  0
  9 10  2  0  0  0  0
  9 11  1  0  0  0  0
 11 12  1  0  0  0  0
 11 33  1  0  0  0  0
 12 21  1  0  0  0  0
 12 13  1  0  0  0  0
 12 34  1  0  0  0  0
 13 14  1  0  0  0  0
 13 35  1  0  0  0  0
 13 36  1  0  0  0  0
 14 15  1  0  0  0  0
 14 37  1  0  0  0  0
 14 38  1  0  0  0  0
 15 16  1  0  0  0  0
 15 39  1  0  0  0  0
 15 40  1  0  0  0  0
 16 17  1  0  0  0  0
 16 21  1  0  0  0  0
 17 18  1  0  0  0  0
 17 19  2  0  0  0  0
 17 20  2  0  0  0  0
 18 41  1  0  0  0  0
 18 42  1  0  0  0  0
 18 43  1  0  0  0  0
 21 44  1  0  0  0  0
 21 45  1  0  0  0  0
 22 23  2  0  0  0  0
 22 46  1  0  0  0  0
M  END
> <s_m_source_file>
AV-unprocessed.smi

> <i_m_source_file_index>
1166

> <i_lp_mmshare_version>
43012

> <i_f3d_flags>
0

> <s_epik_input>
W0NIM11OKFtDSDNdKWMxW2NIXVtjSF1jKFtjSF1uMSlbTkhdQyg9TylbTkhdW0NAQEhdMltDSDJdW0NIMl1bQ0gyXU4oW0NIMl0yKVMoPU8pKD1PKVtDSDNd

> <s_epik_cmdline>
J2VwaWtfcHl0aG9uJywgJy1waCcsICc3LjAnLCAnLXRuJywgJzgnLCAnLW1hJywgJzIwMCcsICctbWV0YWxfYmluZGluZycsICctaW1hZScsICc8aW5maWxlLm1hZT4nLCAnLW9tYWUnLCAnPG91dGZpbGUubWFlPic=

> <r_lp_tautomer_probability>
1

> <r_epik_Ionization_Penalty>
0.585334

> <r_epik_Ionization_Penalty_Charging>
0

> <r_epik_Ionization_Penalty_Neutral>
0.585334

> <r_epik_State_Penalty>
0.597345

> <r_epik_Charging_Adjusted_Penalty>
0.597345

> <i_epik_Tot_Q>
0

> <i_epik_Tot_abs_Q>
0

> <r_epik_Metal_State_Penalty>
0.29678

> <b_epik_Metal_Only>
0

> <s_lp_Force_Field>
OPLS_2005

> <r_lp_Energy>
2.0747

> <b_lp_Chiralities_Consistent>
1

> <s_lp_Variant>
AV-unprocessed.smi:1166-4

> <Gold.Version>
5.8.1

> <Gold.Id.Protein>
6NUR|6NUR_protein|mol2

> <Gold.PLP.Fitness>
43.4772

> <Gold.PLP.PLP>
-37.6827

> <Gold.PLP.part.hbond>
-2.0000

> <Gold.PLP.part.metal>
0.0000

> <Gold.PLP.part.buried>
-5.0596

> <Gold.PLP.part.nonpolar>
-30.2710

> <Gold.PLP.part.repulsive>
0.0152

> <Gold.PLP.ligand.clash>
0.0000

> <Gold.PLP.ligand.torsion>
1.1338

> <Gold.PLP.Chemscore.Hbond>
2.0000

> <Gold.PLP.Chemscore.CHOScore>
0.0000

> <Gold.PLP.Chemscore.Metal>
0.0000

> <Gold.Chemscore.Hbonds>
donor molecule, donor type, donor heavy atom, donor atom, acceptor molecule, acceptor atom, score
      P1  H  6896  6907       L1    20  1.00
      P1  H  7997  8008       L1    10  1.00

> <Gold.PLP.Chemscore.Internal.Correction>
2.0621

> <Gold.Rescore>
     Score         DG    S(hbond)    S(metal)    S(lipo)     H(rot)  DE(clash)    DE(int)     intcor
     15.96     -18.46       2.00        0.00      75.79       1.00       0.02       2.48       ----

> <Gold.Chemscore.Fitness>
15.9581

> <Gold.Chemscore.DG>
-18.4615

> <Gold.Chemscore.ZeroCoef>
-5.4800

> <Gold.Chemscore.Hbond>
1.9981

> <Gold.Chemscore.Metal>
0.0000

> <Gold.Chemscore.Lipo>
75.7929

> <Gold.Chemscore.Internal_Hbond>
0.0000

> <Gold.Chemscore.DEClash>
0.0249

> <Gold.Chemscore.DEInternal>
2.4785

> <Gold.Chemscore.Rot>
1.0000

> <Gold.Chemscore.Internal.Correction>
   9.000000E+99

> <Gold.Chemscore.Hbonds>
donor molecule, donor type, donor heavy atom, donor atom, acceptor molecule, acceptor atom, score
      P1  H  6896  6907       L1    20  0.99
      P1  H  7997  8008       L1    10  0.96

> <Gold.Chemscore.Hbond.Weighted>
-6.6738

> <Gold.Chemscore.Metal.Weighted>
-0.0000

> <Gold.Chemscore.Lipo.Weighted>
-8.8678

> <Gold.Chemscore.Internal_Hbond.Weighted>
0.0000

> <Gold.Chemscore.DEClash.Weighted>
0.0249

> <Gold.Chemscore.DEInternal.Weighted>
2.4785

> <Gold.Chemscore.Rot.Weighted>
2.5600

> <Gold.Chemscore.Internal.Correction.Weighted>
   9.000000E+99

> <Gold.Protein.RotatedTorsions>
[ 6907 6896 6895 6894 ] final  132.45 input  -60.11 | X-H torsion
[ 7974 7965 7964 7962 ] final -155.48 input  175.53 | X-H torsion
[ 8008 7997 7996 7995 ] final -122.48 input   59.86 | X-H torsion
[ 10167 10162 10161 10158 ] final -114.14 input  -65.29 | X-H torsion
[ 10718 10713 10712 10709 ] final   15.90 input   66.30 | X-H torsion
[ 10763 10752 10751 10750 ] final  149.56 input  -60.55 | X-H torsion
[ 11005 11000 10999 10996 ] final   66.79 input  -57.11 | X-H torsion

> <Gold.Protein.ActiveResidues>
 VAL166  LYS551  ARG553  GLY616  TRP617  ASP618  TYR619  PRO620  LYS621  CYS622 
 ASP623  PHE694  ASN695  SER759  ASP760  ASP761  ALA762  ILE779  LEU786  VAL792 
 PHE793  MET794  SER795  GLU796  ALA797  LYS798  CYS799  TRP800  GLU811  SER814 

> <Gold.Protein.RotatedAtoms>
  152.3322  133.5971  159.5817 H   0  0  0  0  0  0  0  0  0  0  0  0  # atno 6907 bound_to 6896
  150.7430  133.9850  159.3597 H   0  0  0  0  0  0  0  0  0  0  0  0  # atno 6908 bound_to 6896
  151.7723  135.0784  160.0413 H   0  0  0  0  0  0  0  0  0  0  0  0  # atno 6909 bound_to 6896
  144.7638  140.4243  143.5957 H   0  0  0  0  0  0  0  0  0  0  0  0  # atno 7974 bound_to 7965
  155.1649  140.0407  157.2850 H   0  0  0  0  0  0  0  0  0  0  0  0  # atno 8008 bound_to 7997
  154.6310  140.2524  155.7407 H   0  0  0  0  0  0  0  0  0  0  0  0  # atno 8009 bound_to 7997
  156.2484  140.2875  156.0662 H   0  0  0  0  0  0  0  0  0  0  0  0  # atno 8010 bound_to 7997
  140.1042  143.4586  152.1793 H   0  0  0  0  0  0  0  0  0  0  0  0  # atno 10167 bound_to 10162
  157.0602  130.6305  149.5784 H   0  0  0  0  0  0  0  0  0  0  0  0  # atno 10718 bound_to 10713
  154.0732  135.2865  155.3304 H   0  0  0  0  0  0  0  0  0  0  0  0  # atno 10763 bound_to 10752
  154.6733  135.5291  153.8170 H   0  0  0  0  0  0  0  0  0  0  0  0  # atno 10764 bound_to 10752
  153.0477  135.6563  154.0912 H   0  0  0  0  0  0  0  0  0  0  0  0  # atno 10765 bound_to 10752
  139.9810  134.6744  156.0262 H   0  0  0  0  0  0  0  0  0  0  0  0  # atno 11005 bound_to 11000
  145.6534  139.1569  143.2849 LP  0  0  0  0  0  0  0  0  0  0  0  0  # atno 17320 bound_to 7965
  146.1727  140.6621  142.9226 LP  0  0  0  0  0  0  0  0  0  0  0  0  # atno 17321 bound_to 7965
  139.5655  144.7432  151.4036 LP  0  0  0  0  0  0  0  0  0  0  0  0  # atno 17342 bound_to 10162
  140.6961  143.7745  150.7329 LP  0  0  0  0  0  0  0  0  0  0  0  0  # atno 17343 bound_to 10162
  155.9981  130.5054  150.7558 LP  0  0  0  0  0  0  0  0  0  0  0  0  # atno 17370 bound_to 10713
  157.4961  131.0915  151.0370 LP  0  0  0  0  0  0  0  0  0  0  0  0  # atno 17371 bound_to 10713
  141.1482  133.6552  156.3932 LP  0  0  0  0  0  0  0  0  0  0  0  0  # atno 17394 bound_to 11000
  140.5096  134.6407  157.5279 LP  0  0  0  0  0  0  0  0  0  0  0  0  # atno 17395 bound_to 11000

$$$$
