AV-unprocessed.smi:2419|AV-procd|sdf|9553|dock3
  -GOLD-   2272013183D 1   1.00000     0.00000
 Structure written by MMmdl.
 27 28  0  0  0  0  0  0  0  0  2 V2000
  151.2282  140.9799  157.4342 O   0  0  0  0  0  0  0  0  0  0  0  0
  150.7066  142.0137  157.0101 C   0  0  0  0  0  0  0  0  0  0  0  0
  149.6339  141.9395  156.2116 N   0  0  0  0  0  0  0  0  0  0  0  0
  148.9866  140.7048  155.7829 C   0  0  0  0  0  0  0  0  0  0  0  0
  148.5894  140.7697  154.3022 C   0  0  0  0  0  0  0  0  0  0  0  0
  149.8107  140.7870  153.5888 O   0  0  0  0  0  0  0  0  0  0  0  0
  147.6019  139.7052  153.7894 C   0  0  0  0  0  0  0  0  0  0  0  0
  146.9003  140.7829  152.9609 C   0  0  0  0  0  0  0  0  0  0  0  0
  147.5654  141.8305  153.8550 C   0  0  0  0  0  0  0  0  0  0  0  0
  151.1080  143.2794  157.2687 N   0  5  0  0  0  0  0  0  0  0  0  0
  151.4976  143.6207  158.5079 C   0  0  0  0  0  0  0  0  0  0  0  0
  151.7785  142.7216  159.4582 N   0  0  0  0  0  0  0  0  0  0  0  0
  152.1576  143.2971  160.6723 C   0  0  0  0  0  0  0  0  0  0  0  0
  152.1553  144.6666  160.6494 C   0  0  0  0  0  0  0  0  0  0  0  0
  151.6757  145.2780  159.0918 S   0  0  0  0  0  0  0  0  0  0  0  0
  149.2374  142.8054  155.8772 H   0  0  0  0  0  0  0  0  0  0  0  0
  149.6390  139.8544  155.9904 H   0  0  0  0  0  0  0  0  0  0  0  0
  148.0984  140.5623  156.4000 H   0  0  0  0  0  0  0  0  0  0  0  0
  149.6370  140.4205  152.7356 H   0  0  0  0  0  0  0  0  0  0  0  0
  148.0519  138.9079  153.1969 H   0  0  0  0  0  0  0  0  0  0  0  0
  146.9608  139.3003  154.5741 H   0  0  0  0  0  0  0  0  0  0  0  0
  147.2555  140.8210  151.9301 H   0  0  0  0  0  0  0  0  0  0  0  0
  145.8116  140.7629  153.0157 H   0  0  0  0  0  0  0  0  0  0  0  0
  146.9141  142.1616  154.6656 H   0  0  0  0  0  0  0  0  0  0  0  0
  147.9897  142.6779  153.3152 H   0  0  0  0  0  0  0  0  0  0  0  0
  152.4106  142.6547  161.5026 H   0  0  0  0  0  0  0  0  0  0  0  0
  152.4037  145.3494  161.4477 H   0  0  0  0  0  0  0  0  0  0  0  0
  1  2  2  0  0  0  0
  2  3  1  0  0  0  0
  2 10  1  0  0  0  0
  3  4  1  0  0  0  0
  3 16  1  0  0  0  0
  4  5  1  0  0  0  0
  4 17  1  0  0  0  0
  4 18  1  0  0  0  0
  5  9  1  0  0  0  0
  5  6  1  0  0  0  0
  5  7  1  0  0  0  0
  6 19  1  0  0  0  0
  7  8  1  0  0  0  0
  7 20  1  0  0  0  0
  7 21  1  0  0  0  0
  8  9  1  0  0  0  0
  8 22  1  0  0  0  0
  8 23  1  0  0  0  0
  9 24  1  0  0  0  0
  9 25  1  0  0  0  0
 10 11  1  0  0  0  0
 11 15  1  0  0  0  0
 11 12  2  0  0  0  0
 12 13  1  0  0  0  0
 13 14  2  0  0  0  0
 13 26  1  0  0  0  0
 14 15  1  0  0  0  0
 14 27  1  0  0  0  0
M  CHG  1  10  -1
M  END
> <s_m_source_file>
AV-unprocessed.smi

> <i_m_source_file_index>
2419

> <i_lp_mmshare_version>
43012

> <i_f3d_flags>
0

> <s_epik_input>
czFbY0hdW2NIXW5jMVtOSF1DKD1PKVtOSF1bQ0gyXUMyKFtPSF0pW0NIMl1bQ0gyXVtDSDJdMg==

> <s_epik_cmdline>
J2VwaWtfcHl0aG9uJywgJy1waCcsICc3LjAnLCAnLXRuJywgJzgnLCAnLW1hJywgJzIwMCcsICctbWV0YWxfYmluZGluZycsICctaW1hZScsICc8aW5maWxlLm1hZT4nLCAnLW9tYWUnLCAnPG91dGZpbGUubWFlPic=

> <r_lp_tautomer_probability>
0.999

> <r_epik_Ionization_Penalty>
8.31551

> <r_epik_Ionization_Penalty_Charging>
6.6872

> <r_epik_Ionization_Penalty_Neutral>
1.62831

> <r_epik_State_Penalty>
6.68737

> <r_epik_Charging_Adjusted_Penalty>
13.3746

> <i_epik_Tot_Q>
-1

> <i_epik_Tot_abs_Q>
1

> <r_epik_Metal_State_Penalty>
2.60943

> <b_epik_Metal_Only>
1

> <s_lp_Force_Field>
OPLS_2005

> <r_lp_Energy>
8.45088

> <b_lp_Chiralities_Consistent>
1

> <s_lp_Variant>
AV-unprocessed.smi:2419-2

> <Gold.Version>
5.8.1

> <Gold.Id.Protein>
6NUR|6NUR_protein|mol2

> <Gold.PLP.Fitness>
38.7577

> <Gold.PLP.PLP>
-32.7111

> <Gold.PLP.part.hbond>
-3.7335

> <Gold.PLP.part.metal>
0.0000

> <Gold.PLP.part.buried>
-5.5977

> <Gold.PLP.part.nonpolar>
-24.1041

> <Gold.PLP.part.repulsive>
0.4348

> <Gold.PLP.ligand.clash>
0.0000

> <Gold.PLP.ligand.torsion>
0.5727

> <Gold.PLP.Chemscore.Hbond>
2.3648

> <Gold.PLP.Chemscore.CHOScore>
0.0000

> <Gold.PLP.Chemscore.Metal>
0.0000

> <Gold.Chemscore.Hbonds>
donor molecule, donor type, donor heavy atom, donor atom, acceptor molecule, acceptor atom, score
      L1  H     3    16       P1  8028  1.00
      L1  H     6    19       P1  7957  1.00
      P1  H  7989  7998       L1     6  0.36

> <Gold.PLP.Chemscore.Internal.Correction>
0.0977

> <Gold.Rescore>
     Score         DG    S(hbond)    S(metal)    S(lipo)     H(rot)  DE(clash)    DE(int)     intcor
     13.68     -15.91       2.08        0.00      70.84       1.88       0.19       2.04       ----

> <Gold.Chemscore.Fitness>
13.6779

> <Gold.Chemscore.DG>
-15.9072

> <Gold.Chemscore.ZeroCoef>
-5.4800

> <Gold.Chemscore.Hbond>
2.0787

> <Gold.Chemscore.Metal>
0.0000

> <Gold.Chemscore.Lipo>
70.8443

> <Gold.Chemscore.Internal_Hbond>
0.0000

> <Gold.Chemscore.DEClash>
0.1902

> <Gold.Chemscore.DEInternal>
2.0391

> <Gold.Chemscore.Rot>
1.8767

> <Gold.Chemscore.Internal.Correction>
   9.000000E+99

> <Gold.Chemscore.Hbonds>
donor molecule, donor type, donor heavy atom, donor atom, acceptor molecule, acceptor atom, score
      L1  H     3    16       P1  8028  0.98
      L1  H     6    19       P1  7957  0.99
      P1  H  7989  7998       L1     6  0.07

> <Gold.Chemscore.Hbond.Weighted>
-6.9427

> <Gold.Chemscore.Metal.Weighted>
-0.0000

> <Gold.Chemscore.Lipo.Weighted>
-8.2888

> <Gold.Chemscore.Internal_Hbond.Weighted>
0.0000

> <Gold.Chemscore.DEClash.Weighted>
0.1902

> <Gold.Chemscore.DEInternal.Weighted>
2.0391

> <Gold.Chemscore.Rot.Weighted>
4.8043

> <Gold.Chemscore.Internal.Correction.Weighted>
   9.000000E+99

> <Gold.Protein.RotatedTorsions>
[ 6907 6896 6895 6894 ] final  105.27 input  -60.11 | X-H torsion
[ 7974 7965 7964 7962 ] final  -25.72 input  175.53 | X-H torsion
[ 8008 7997 7996 7995 ] final -170.27 input   59.86 | X-H torsion
[ 10167 10162 10161 10158 ] final  -75.73 input  -65.29 | X-H torsion
[ 10718 10713 10712 10709 ] final   53.55 input   66.30 | X-H torsion
[ 10763 10752 10751 10750 ] final -118.72 input  -60.55 | X-H torsion
[ 11005 11000 10999 10996 ] final   -7.26 input  -57.11 | X-H torsion

> <Gold.Protein.ActiveResidues>
 VAL166  LYS551  ARG553  GLY616  TRP617  ASP618  TYR619  PRO620  LYS621  CYS622 
 ASP623  PHE694  ASN695  SER759  ASP760  ASP761  ALA762  ILE779  LEU786  VAL792 
 PHE793  MET794  SER795  GLU796  ALA797  LYS798  CYS799  TRP800  GLU811  SER814 

> <Gold.Protein.RotatedAtoms>
  152.5236  133.9553  159.7691 H   0  0  0  0  0  0  0  0  0  0  0  0  # atno 6907 bound_to 6896
  150.9855  133.6194  159.2723 H   0  0  0  0  0  0  0  0  0  0  0  0  # atno 6908 bound_to 6896
  151.3356  135.0858  159.9406 H   0  0  0  0  0  0  0  0  0  0  0  0  # atno 6909 bound_to 6896
  146.1473  140.4923  142.8626 H   0  0  0  0  0  0  0  0  0  0  0  0  # atno 7974 bound_to 7965
  155.9161  140.1066  157.1242 H   0  0  0  0  0  0  0  0  0  0  0  0  # atno 8008 bound_to 7997
  154.4047  140.1265  156.4684 H   0  0  0  0  0  0  0  0  0  0  0  0  # atno 8009 bound_to 7997
  155.7252  140.3469  155.5036 H   0  0  0  0  0  0  0  0  0  0  0  0  # atno 8010 bound_to 7997
  140.4918  143.2379  151.7895 H   0  0  0  0  0  0  0  0  0  0  0  0  # atno 10167 bound_to 10162
  157.5177  130.8543  149.8517 H   0  0  0  0  0  0  0  0  0  0  0  0  # atno 10718 bound_to 10713
  154.8596  135.4264  154.2184 H   0  0  0  0  0  0  0  0  0  0  0  0  # atno 10763 bound_to 10752
  153.3194  135.6981  153.7049 H   0  0  0  0  0  0  0  0  0  0  0  0  # atno 10764 bound_to 10752
  153.6110  135.3519  155.2952 H   0  0  0  0  0  0  0  0  0  0  0  0  # atno 10765 bound_to 10752
  140.7109  133.8910  155.8750 H   0  0  0  0  0  0  0  0  0  0  0  0  # atno 11005 bound_to 11000
  144.7861  140.5940  143.6572 LP  0  0  0  0  0  0  0  0  0  0  0  0  # atno 17320 bound_to 7965
  145.4907  139.1489  143.3711 LP  0  0  0  0  0  0  0  0  0  0  0  0  # atno 17321 bound_to 7965
  139.4853  144.4639  151.9507 LP  0  0  0  0  0  0  0  0  0  0  0  0  # atno 17342 bound_to 10162
  140.3726  144.2836  150.5918 LP  0  0  0  0  0  0  0  0  0  0  0  0  # atno 17343 bound_to 10162
  156.0331  130.3759  150.1632 LP  0  0  0  0  0  0  0  0  0  0  0  0  # atno 17370 bound_to 10713
  156.9821  130.9867  151.3435 LP  0  0  0  0  0  0  0  0  0  0  0  0  # atno 17371 bound_to 10713
  141.0085  134.1052  157.4245 LP  0  0  0  0  0  0  0  0  0  0  0  0  # atno 17394 bound_to 11000
  139.8872  135.0088  156.6545 LP  0  0  0  0  0  0  0  0  0  0  0  0  # atno 17395 bound_to 11000

$$$$
