AV-unprocessed.smi:443|AV-procd|sdf|2585|dock1
  -GOLD-   2262022573D 1   1.00000     0.00000
 Structure written by MMmdl.
 48 49  0  0  0  0  0  0  0  0  1 V2000
  146.3590  136.6987  156.3948 C   0  0  0  0  0  0  0  0  0  0  0  0
  147.8513  136.5042  156.3856 C   0  0  0  0  0  0  0  0  0  0  0  0
  148.5654  137.5151  156.0148 N   0  0  0  0  0  0  0  0  0  0  0  0
  149.9426  137.4404  155.9494 N   0  0  0  0  0  0  0  0  0  0  0  0
  150.5879  138.6651  155.4575 C   0  0  0  0  0  0  0  0  0  0  0  0
  151.3360  139.4250  156.5758 C   0  0  2  0  0  0  0  0  0  0  0  0
  152.6254  138.8787  156.7602 O   0  0  0  0  0  0  0  0  0  0  0  0
  150.6041  139.4689  157.9297 C   0  0  0  0  0  0  0  0  0  0  0  0
  151.1733  140.4793  158.7541 O   0  0  0  0  0  0  0  0  0  0  0  0
  151.0068  141.8026  158.4012 C   0  0  0  0  0  0  0  0  0  0  0  0
  150.1419  142.2168  157.3550 C   0  0  0  0  0  0  0  0  0  0  0  0
  149.9935  143.5791  157.0386 C   0  0  0  0  0  0  0  0  0  0  0  0
  150.7067  144.5496  157.7605 C   0  0  0  0  0  0  0  0  0  0  0  0
  151.5710  144.1539  158.7961 C   0  0  0  0  0  0  0  0  0  0  0  0
  151.7314  142.7887  159.1239 C   0  0  0  0  0  0  0  0  0  0  0  0
  152.6978  142.4259  160.2539 C   0  0  0  0  0  0  0  0  0  0  0  0
  152.9543  143.5961  161.2201 C   0  0  0  0  0  0  0  0  0  0  0  0
  154.0020  141.8021  159.7335 C   0  0  0  0  0  0  0  0  0  0  0  0
  150.6756  136.3379  156.2743 C   0  0  0  0  0  0  0  0  0  0  0  0
  151.9049  136.3135  156.1981 O   0  0  0  0  0  0  0  0  0  0  0  0
  149.8621  135.1993  156.7073 C   0  0  0  0  0  0  0  0  0  0  0  0
  150.5910  134.0228  157.0567 C   0  0  0  0  0  0  0  0  0  0  0  0
  151.1915  133.0792  157.3552 N   0  0  0  0  0  0  0  0  0  0  0  0
  148.5078  135.2580  156.7663 C   0  0  0  0  0  0  0  0  0  0  0  0
  147.6171  134.1022  157.2010 C   0  0  0  0  0  0  0  0  0  0  0  0
  145.9618  136.6009  157.4051 H   0  0  0  0  0  0  0  0  0  0  0  0
  145.8676  135.9581  155.7637 H   0  0  0  0  0  0  0  0  0  0  0  0
  146.0752  137.6839  156.0224 H   0  0  0  0  0  0  0  0  0  0  0  0
  151.2789  138.4241  154.6481 H   0  0  0  0  0  0  0  0  0  0  0  0
  149.8405  139.3175  155.0021 H   0  0  0  0  0  0  0  0  0  0  0  0
  151.4970  140.4541  156.2529 H   0  0  0  0  0  0  0  0  0  0  0  0
  152.7236  138.1385  156.1811 H   0  0  0  0  0  0  0  0  0  0  0  0
  149.5363  139.6407  157.7838 H   0  0  0  0  0  0  0  0  0  0  0  0
  150.7192  138.4981  158.4135 H   0  0  0  0  0  0  0  0  0  0  0  0
  149.5732  141.5071  156.7745 H   0  0  0  0  0  0  0  0  0  0  0  0
  149.3301  143.8795  156.2408 H   0  0  0  0  0  0  0  0  0  0  0  0
  150.5933  145.5964  157.5198 H   0  0  0  0  0  0  0  0  0  0  0  0
  152.1152  144.9125  159.3393 H   0  0  0  0  0  0  0  0  0  0  0  0
  152.2140  141.6516  160.8507 H   0  0  0  0  0  0  0  0  0  0  0  0
  152.0167  143.9842  161.6188 H   0  0  0  0  0  0  0  0  0  0  0  0
  153.4819  144.4226  160.7458 H   0  0  0  0  0  0  0  0  0  0  0  0
  153.5602  143.2728  162.0668 H   0  0  0  0  0  0  0  0  0  0  0  0
  153.7978  140.9233  159.1218 H   0  0  0  0  0  0  0  0  0  0  0  0
  154.6386  141.4847  160.5598 H   0  0  0  0  0  0  0  0  0  0  0  0
  154.5775  142.5015  159.1311 H   0  0  0  0  0  0  0  0  0  0  0  0
  148.1931  133.2317  157.5135 H   0  0  0  0  0  0  0  0  0  0  0  0
  146.9690  133.7905  156.3812 H   0  0  0  0  0  0  0  0  0  0  0  0
  146.9897  134.3963  158.0429 H   0  0  0  0  0  0  0  0  0  0  0  0
  1  2  1  0  0  0  0
  1 26  1  0  0  0  0
  1 27  1  0  0  0  0
  1 28  1  0  0  0  0
  2 24  1  0  0  0  0
  2  3  2  0  0  0  0
  3  4  1  0  0  0  0
  4  5  1  0  0  0  0
  4 19  1  0  0  0  0
  5  6  1  0  0  0  0
  5 29  1  0  0  0  0
  5 30  1  0  0  0  0
  6  7  1  0  0  0  0
  6  8  1  0  0  0  0
  6 31  1  0  0  0  0
  7 32  1  0  0  0  0
  8  9  1  0  0  0  0
  8 33  1  0  0  0  0
  8 34  1  0  0  0  0
  9 10  1  0  0  0  0
 10 15  1  0  0  0  0
 10 11  2  0  0  0  0
 11 12  1  0  0  0  0
 11 35  1  0  0  0  0
 12 13  2  0  0  0  0
 12 36  1  0  0  0  0
 13 14  1  0  0  0  0
 13 37  1  0  0  0  0
 14 15  2  0  0  0  0
 14 38  1  0  0  0  0
 15 16  1  0  0  0  0
 16 17  1  0  0  0  0
 16 18  1  0  0  0  0
 16 39  1  0  0  0  0
 17 40  1  0  0  0  0
 17 41  1  0  0  0  0
 17 42  1  0  0  0  0
 18 43  1  0  0  0  0
 18 44  1  0  0  0  0
 18 45  1  0  0  0  0
 19 20  2  0  0  0  0
 19 21  1  0  0  0  0
 21 22  1  0  0  0  0
 21 24  2  0  0  0  0
 22 23  3  0  0  0  0
 24 25  1  0  0  0  0
 25 46  1  0  0  0  0
 25 47  1  0  0  0  0
 25 48  1  0  0  0  0
M  END
> <s_m_source_file>
AV-unprocessed.smi

> <i_m_source_file_index>
443

> <i_lp_mmshare_version>
43012

> <i_f3d_flags>
0

> <s_epik_input>
TiNDYyhjMVtDSDNdKWMoPU8pbihuYzFbQ0gzXSlbQ0gyXVtDQEhdKFtPSF0pW0NIMl1PYzJbY0hdW2NIXVtjSF1bY0hdYzJbQ0hdKFtDSDNdKVtDSDNd

> <s_epik_cmdline>
J2VwaWtfcHl0aG9uJywgJy1waCcsICc3LjAnLCAnLXRuJywgJzgnLCAnLW1hJywgJzIwMCcsICctbWV0YWxfYmluZGluZycsICctaW1hZScsICc8aW5maWxlLm1hZT4nLCAnLW9tYWUnLCAnPG91dGZpbGUubWFlPic=

> <r_lp_tautomer_probability>
1

> <r_epik_Ionization_Penalty>
1.17331e-07

> <r_epik_Ionization_Penalty_Charging>
1.57223e-10

> <r_epik_Ionization_Penalty_Neutral>
1.17174e-07

> <r_epik_State_Penalty>
-0

> <r_epik_Charging_Adjusted_Penalty>
1.57223e-10

> <i_epik_Tot_Q>
0

> <i_epik_Tot_abs_Q>
0

> <r_epik_Metal_State_Penalty>
-0

> <b_epik_Metal_Only>
0

> <s_lp_Force_Field>
OPLS_2005

> <r_lp_Energy>
30.066

> <b_lp_Chiralities_Consistent>
1

> <s_lp_Variant>
AV-unprocessed.smi:443-1

> <Gold.Version>
5.8.1

> <Gold.Id.Protein>
6NUR|6NUR_protein|mol2

> <Gold.PLP.Fitness>
53.7633

> <Gold.PLP.PLP>
-49.5519

> <Gold.PLP.part.hbond>
-2.0000

> <Gold.PLP.part.metal>
0.0000

> <Gold.PLP.part.buried>
-3.8558

> <Gold.PLP.part.nonpolar>
-43.7699

> <Gold.PLP.part.repulsive>
0.1690

> <Gold.PLP.ligand.clash>
0.0000

> <Gold.PLP.ligand.torsion>
1.0017

> <Gold.PLP.Chemscore.Hbond>
1.9920

> <Gold.PLP.Chemscore.CHOScore>
0.0000

> <Gold.PLP.Chemscore.Metal>
0.0000

> <Gold.Chemscore.Hbonds>
donor molecule, donor type, donor heavy atom, donor atom, acceptor molecule, acceptor atom, score
      P1  H  6896  6909       L1    23  0.83
      P1  H  7997  8009       L1     7  0.56
      P1  H 10752 10763       L1    20  1.00

> <Gold.PLP.Chemscore.Internal.Correction>
0.2389

> <Gold.Rescore>
     Score         DG    S(hbond)    S(metal)    S(lipo)     H(rot)  DE(clash)    DE(int)     intcor
     16.77     -18.13       1.06        0.00     130.49       2.41       0.06       1.30       ----

> <Gold.Chemscore.Fitness>
16.7671

> <Gold.Chemscore.DG>
-18.1297

> <Gold.Chemscore.ZeroCoef>
-5.4800

> <Gold.Chemscore.Hbond>
1.0623

> <Gold.Chemscore.Metal>
0.0000

> <Gold.Chemscore.Lipo>
130.4860

> <Gold.Chemscore.Internal_Hbond>
0.0000

> <Gold.Chemscore.DEClash>
0.0627

> <Gold.Chemscore.DEInternal>
1.2998

> <Gold.Chemscore.Rot>
2.4084

> <Gold.Chemscore.Internal.Correction>
   9.000000E+99

> <Gold.Chemscore.Hbonds>
donor molecule, donor type, donor heavy atom, donor atom, acceptor molecule, acceptor atom, score
      P1  H  6896  6909       L1    23  0.25
      P1  H  7997  8009       L1     7  0.41
      P1  H 10752 10763       L1    20  0.98

> <Gold.Chemscore.Hbond.Weighted>
-3.5482

> <Gold.Chemscore.Metal.Weighted>
-0.0000

> <Gold.Chemscore.Lipo.Weighted>
-15.2669

> <Gold.Chemscore.Internal_Hbond.Weighted>
0.0000

> <Gold.Chemscore.DEClash.Weighted>
0.0627

> <Gold.Chemscore.DEInternal.Weighted>
1.2998

> <Gold.Chemscore.Rot.Weighted>
6.1655

> <Gold.Chemscore.Internal.Correction.Weighted>
   9.000000E+99

> <Gold.Protein.RotatedTorsions>
[ 6907 6896 6895 6894 ] final  -45.63 input  -60.11 | X-H torsion
[ 7974 7965 7964 7962 ] final  160.50 input  175.53 | X-H torsion
[ 8008 7997 7996 7995 ] final  162.66 input   59.86 | X-H torsion
[ 10167 10162 10161 10158 ] final  -27.76 input  -65.29 | X-H torsion
[ 10718 10713 10712 10709 ] final  165.63 input   66.30 | X-H torsion
[ 10763 10752 10751 10750 ] final   71.72 input  -60.55 | X-H torsion
[ 11005 11000 10999 10996 ] final   50.78 input  -57.11 | X-H torsion

> <Gold.Protein.ActiveResidues>
 VAL166  LYS551  ARG553  GLY616  TRP617  ASP618  TYR619  PRO620  LYS621  CYS622 
 ASP623  PHE694  ASN695  SER759  ASP760  ASP761  ALA762  ILE779  LEU786  VAL792 
 PHE793  MET794  SER795  GLU796  ALA797  LYS798  CYS799  TRP800  GLU811  SER814 

> <Gold.Protein.RotatedAtoms>
  150.9199  134.8617  159.7481 H   0  0  0  0  0  0  0  0  0  0  0  0  # atno 6907 bound_to 6896
  152.4987  134.4234  159.9498 H   0  0  0  0  0  0  0  0  0  0  0  0  # atno 6908 bound_to 6896
  151.4269  133.3642  159.2798 H   0  0  0  0  0  0  0  0  0  0  0  0  # atno 6909 bound_to 6896
  144.7734  139.7766  143.6288 H   0  0  0  0  0  0  0  0  0  0  0  0  # atno 7974 bound_to 7965
  156.2015  140.1744  156.7889 H   0  0  0  0  0  0  0  0  0  0  0  0  # atno 8008 bound_to 7997
  154.5598  140.0702  156.8832 H   0  0  0  0  0  0  0  0  0  0  0  0  # atno 8009 bound_to 7997
  155.2870  140.3353  155.4257 H   0  0  0  0  0  0  0  0  0  0  0  0  # atno 8010 bound_to 7997
  140.7275  143.4066  151.1175 H   0  0  0  0  0  0  0  0  0  0  0  0  # atno 10167 bound_to 10162
  157.0774  131.0383  151.2588 H   0  0  0  0  0  0  0  0  0  0  0  0  # atno 10718 bound_to 10713
  153.0415  135.5126  154.7635 H   0  0  0  0  0  0  0  0  0  0  0  0  # atno 10763 bound_to 10752
  154.6569  135.2933  154.9919 H   0  0  0  0  0  0  0  0  0  0  0  0  # atno 10764 bound_to 10752
  154.0783  135.6667  153.4887 H   0  0  0  0  0  0  0  0  0  0  0  0  # atno 10765 bound_to 10752
  140.0988  134.5109  155.8781 H   0  0  0  0  0  0  0  0  0  0  0  0  # atno 11005 bound_to 11000
  146.1896  139.5129  142.9814 LP  0  0  0  0  0  0  0  0  0  0  0  0  # atno 17320 bound_to 7965
  145.6258  141.0314  143.1890 LP  0  0  0  0  0  0  0  0  0  0  0  0  # atno 17321 bound_to 7965
  139.7694  143.8517  152.3117 LP  0  0  0  0  0  0  0  0  0  0  0  0  # atno 17342 bound_to 10162
  139.8430  144.7201  150.9307 LP  0  0  0  0  0  0  0  0  0  0  0  0  # atno 17343 bound_to 10162
  157.4828  130.7775  149.7431 LP  0  0  0  0  0  0  0  0  0  0  0  0  # atno 17370 bound_to 10713
  155.9933  130.3925  150.2905 LP  0  0  0  0  0  0  0  0  0  0  0  0  # atno 17371 bound_to 10713
  141.2100  133.6690  156.6477 LP  0  0  0  0  0  0  0  0  0  0  0  0  # atno 17394 bound_to 11000
  140.3248  134.7978  157.4281 LP  0  0  0  0  0  0  0  0  0  0  0  0  # atno 17395 bound_to 11000

$$$$
