AV-unprocessed.smi:1289|AV-procd|sdf|5385|dock5
  -GOLD-   22720 4533D 1   1.00000     0.00000
 Structure written by MMmdl.
 37 39  0  0  0  0  0  0  0  0  1 V2000
  156.1171  139.4162  163.6091 N   0  0  0  0  0  0  0  0  0  0  0  0
  155.3937  140.1077  163.0282 C   0  0  0  0  0  0  0  0  0  0  0  0
  154.4852  140.9762  162.2982 C   0  0  0  0  0  0  0  0  0  0  0  0
  154.1536  140.6883  160.9598 C   0  0  0  0  0  0  0  0  0  0  0  0
  153.2705  141.5297  160.2562 C   0  0  0  0  0  0  0  0  0  0  0  0
  152.7065  142.6646  160.8741 C   0  0  0  0  0  0  0  0  0  0  0  0
  151.8505  143.4299  160.1118 O   0  0  0  0  0  0  0  0  0  0  0  0
  151.9667  143.3653  158.6957 C   0  0  0  0  0  0  0  0  0  0  0  0
  150.6177  143.7035  158.0404 C   0  0  2  0  0  0  0  0  0  0  0  0
  149.9670  144.7030  158.8001 O   0  0  0  0  0  0  0  0  0  0  0  0
  149.7092  142.4777  157.8227 C   0  0  0  0  0  0  0  0  0  0  0  0
  150.2543  141.5572  156.8415 N   0  0  0  0  0  0  0  0  0  0  0  0
  150.0149  141.5537  155.5161 C   0  0  0  0  0  0  0  0  0  0  0  0
  150.6157  140.6151  154.7905 N   0  0  0  0  0  0  0  0  0  0  0  0
  151.3311  139.9298  155.7575 C   0  0  0  0  0  0  0  0  0  0  0  0
  152.1855  138.8097  155.6441 C   0  0  0  0  0  0  0  0  0  0  0  0
  152.8158  138.2735  156.7863 C   0  0  0  0  0  0  0  0  0  0  0  0
  152.6011  138.8463  158.0569 C   0  0  0  0  0  0  0  0  0  0  0  0
  151.7529  139.9621  158.1950 C   0  0  0  0  0  0  0  0  0  0  0  0
  151.1271  140.4949  157.0527 C   0  0  0  0  0  0  0  0  0  0  0  0
  153.0470  142.9491  162.2209 C   0  0  0  0  0  0  0  0  0  0  0  0
  153.9311  142.1092  162.9262 C   0  0  0  0  0  0  0  0  0  0  0  0
  154.5718  139.8229  160.4660 H   0  0  0  0  0  0  0  0  0  0  0  0
  153.0210  141.3000  159.2306 H   0  0  0  0  0  0  0  0  0  0  0  0
  152.7433  144.0412  158.3330 H   0  0  0  0  0  0  0  0  0  0  0  0
  152.2493  142.3511  158.4094 H   0  0  0  0  0  0  0  0  0  0  0  0
  150.8282  144.1530  157.0692 H   0  0  0  0  0  0  0  0  0  0  0  0
  149.1265  144.8797  158.4056 H   0  0  0  0  0  0  0  0  0  0  0  0
  149.5769  141.9380  158.7614 H   0  0  0  0  0  0  0  0  0  0  0  0
  148.7144  142.7834  157.4962 H   0  0  0  0  0  0  0  0  0  0  0  0
  149.3594  142.2805  155.0590 H   0  0  0  0  0  0  0  0  0  0  0  0
  152.3558  138.3618  154.6763 H   0  0  0  0  0  0  0  0  0  0  0  0
  153.4671  137.4173  156.6875 H   0  0  0  0  0  0  0  0  0  0  0  0
  153.0873  138.4284  158.9262 H   0  0  0  0  0  0  0  0  0  0  0  0
  151.5841  140.4018  159.1670 H   0  0  0  0  0  0  0  0  0  0  0  0
  152.6435  143.8069  162.7369 H   0  0  0  0  0  0  0  0  0  0  0  0
  154.1796  142.3410  163.9521 H   0  0  0  0  0  0  0  0  0  0  0  0
  1  2  3  0  0  0  0
  2  3  1  0  0  0  0
  3 22  1  0  0  0  0
  3  4  2  0  0  0  0
  4  5  1  0  0  0  0
  4 23  1  0  0  0  0
  5  6  2  0  0  0  0
  5 24  1  0  0  0  0
  6  7  1  0  0  0  0
  6 21  1  0  0  0  0
  7  8  1  0  0  0  0
  8  9  1  0  0  0  0
  8 25  1  0  0  0  0
  8 26  1  0  0  0  0
  9 10  1  0  0  0  0
  9 11  1  0  0  0  0
  9 27  1  0  0  0  0
 10 28  1  0  0  0  0
 11 12  1  0  0  0  0
 11 29  1  0  0  0  0
 11 30  1  0  0  0  0
 12 20  1  0  0  0  0
 12 13  1  0  0  0  0
 13 14  2  0  0  0  0
 13 31  1  0  0  0  0
 14 15  1  0  0  0  0
 15 20  2  0  0  0  0
 15 16  1  0  0  0  0
 16 17  2  0  0  0  0
 16 32  1  0  0  0  0
 17 18  1  0  0  0  0
 17 33  1  0  0  0  0
 18 19  2  0  0  0  0
 18 34  1  0  0  0  0
 19 20  1  0  0  0  0
 19 35  1  0  0  0  0
 21 22  2  0  0  0  0
 21 36  1  0  0  0  0
 22 37  1  0  0  0  0
M  END
> <s_m_source_file>
AV-unprocessed.smi

> <i_m_source_file_index>
1289

> <i_lp_mmshare_version>
43012

> <i_f3d_flags>
0

> <s_epik_input>
TiNDYzFbY0hdW2NIXWMoW2NIXVtjSF0xKU9bQ0gyXVtDQEhdKFtPSF0pW0NIMl1uKFtjSF1uMiljKGMyMylbY0hdW2NIXVtjSF1bY0hdMw==

> <s_epik_cmdline>
J2VwaWtfcHl0aG9uJywgJy1waCcsICc3LjAnLCAnLXRuJywgJzgnLCAnLW1hJywgJzIwMCcsICctbWV0YWxfYmluZGluZycsICctaW1hZScsICc8aW5maWxlLm1hZT4nLCAnLW9tYWUnLCAnPG91dGZpbGUubWFlPic=

> <r_epik_Ionization_Penalty>
0.0590811

> <r_epik_Ionization_Penalty_Charging>
0

> <r_epik_Ionization_Penalty_Neutral>
0.0590811

> <r_epik_State_Penalty>
0.0511328

> <r_epik_Charging_Adjusted_Penalty>
0.0511328

> <i_epik_Tot_Q>
0

> <i_epik_Tot_abs_Q>
0

> <r_epik_Metal_State_Penalty>
5.34017e-05

> <b_epik_Metal_Only>
0

> <s_lp_Force_Field>
OPLS_2005

> <r_lp_Energy>
15.8446

> <b_lp_Chiralities_Consistent>
1

> <s_lp_Variant>
AV-unprocessed.smi:1289-1

> <Gold.Version>
5.8.1

> <Gold.Id.Protein>
6NUR|6NUR_protein|mol2

> <Gold.PLP.Fitness>
51.8426

> <Gold.PLP.PLP>
-45.7341

> <Gold.PLP.part.hbond>
-2.0446

> <Gold.PLP.part.metal>
0.0000

> <Gold.PLP.part.buried>
-0.4706

> <Gold.PLP.part.nonpolar>
-42.1639

> <Gold.PLP.part.repulsive>
0.1329

> <Gold.PLP.ligand.clash>
0.3827

> <Gold.PLP.ligand.torsion>
1.2093

> <Gold.PLP.Chemscore.Hbond>
1.9440

> <Gold.PLP.Chemscore.CHOScore>
1.0000

> <Gold.PLP.Chemscore.Metal>
0.0000

> <Gold.Chemscore.Hbonds>
donor molecule, donor type, donor heavy atom, donor atom, acceptor molecule, acceptor atom, score
      L1  H    10    28       P1  8029  1.00
      P1  H  7989  7998       L1    14  0.96
      L1  C    13    31       P1  8028  0.95

> <Gold.PLP.Chemscore.Internal.Correction>
0.0778

> <Gold.Rescore>
     Score         DG    S(hbond)    S(metal)    S(lipo)     H(rot)  DE(clash)    DE(int)     intcor
     17.41     -18.56       1.61        0.00     120.59       2.50       0.08       1.08       ----

> <Gold.Chemscore.Fitness>
17.4081

> <Gold.Chemscore.DG>
-18.5610

> <Gold.Chemscore.ZeroCoef>
-5.4800

> <Gold.Chemscore.Hbond>
1.6050

> <Gold.Chemscore.Metal>
0.0000

> <Gold.Chemscore.Lipo>
120.5854

> <Gold.Chemscore.Internal_Hbond>
0.0000

> <Gold.Chemscore.DEClash>
0.0778

> <Gold.Chemscore.DEInternal>
1.0751

> <Gold.Chemscore.Rot>
2.4954

> <Gold.Chemscore.Internal.Correction>
   9.000000E+99

> <Gold.Chemscore.Hbonds>
donor molecule, donor type, donor heavy atom, donor atom, acceptor molecule, acceptor atom, score
      L1  H    10    28       P1  8029  0.66
      P1  H  7989  7998       L1    14  0.60

> <Gold.Chemscore.Hbond.Weighted>
-5.3608

> <Gold.Chemscore.Metal.Weighted>
-0.0000

> <Gold.Chemscore.Lipo.Weighted>
-14.1085

> <Gold.Chemscore.Internal_Hbond.Weighted>
0.0000

> <Gold.Chemscore.DEClash.Weighted>
0.0778

> <Gold.Chemscore.DEInternal.Weighted>
1.0751

> <Gold.Chemscore.Rot.Weighted>
6.3883

> <Gold.Chemscore.Internal.Correction.Weighted>
   9.000000E+99

> <Gold.Protein.RotatedTorsions>
[ 6907 6896 6895 6894 ] final  116.45 input  -60.11 | X-H torsion
[ 7974 7965 7964 7962 ] final  169.75 input  175.53 | X-H torsion
[ 8008 7997 7996 7995 ] final -147.28 input   59.86 | X-H torsion
[ 10167 10162 10161 10158 ] final  -99.99 input  -65.29 | X-H torsion
[ 10718 10713 10712 10709 ] final   69.57 input   66.30 | X-H torsion
[ 10763 10752 10751 10750 ] final -176.51 input  -60.55 | X-H torsion
[ 11005 11000 10999 10996 ] final  -81.93 input  -57.11 | X-H torsion

> <Gold.Protein.ActiveResidues>
 VAL166  LYS551  ARG553  GLY616  TRP617  ASP618  TYR619  PRO620  LYS621  CYS622 
 ASP623  PHE694  ASN695  SER759  ASP760  ASP761  ALA762  ILE779  LEU786  VAL792 
 PHE793  MET794  SER795  GLU796  ALA797  LYS798  CYS799  TRP800  GLU811  SER814 

> <Gold.Protein.RotatedAtoms>
  152.4677  133.7959  159.6926 H   0  0  0  0  0  0  0  0  0  0  0  0  # atno 6907 bound_to 6896
  150.8649  133.7579  159.2986 H   0  0  0  0  0  0  0  0  0  0  0  0  # atno 6908 bound_to 6896
  151.5132  135.1068  159.9911 H   0  0  0  0  0  0  0  0  0  0  0  0  # atno 6909 bound_to 6896
  144.7345  139.9100  143.6414 H   0  0  0  0  0  0  0  0  0  0  0  0  # atno 7974 bound_to 7965
  155.5729  140.0636  157.2802 H   0  0  0  0  0  0  0  0  0  0  0  0  # atno 8008 bound_to 7997
  154.4355  140.1865  156.0944 H   0  0  0  0  0  0  0  0  0  0  0  0  # atno 8009 bound_to 7997
  156.0363  140.3301  155.7198 H   0  0  0  0  0  0  0  0  0  0  0  0  # atno 8010 bound_to 7997
  140.2567  143.3435  152.0664 H   0  0  0  0  0  0  0  0  0  0  0  0  # atno 10167 bound_to 10162
  157.6353  130.9432  150.0531 H   0  0  0  0  0  0  0  0  0  0  0  0  # atno 10718 bound_to 10713
  154.5714  135.2828  155.0823 H   0  0  0  0  0  0  0  0  0  0  0  0  # atno 10763 bound_to 10752
  154.2194  135.6394  153.5143 H   0  0  0  0  0  0  0  0  0  0  0  0  # atno 10764 bound_to 10752
  153.0059  135.5511  154.6339 H   0  0  0  0  0  0  0  0  0  0  0  0  # atno 10765 bound_to 10752
  141.1665  133.7220  156.8496 H   0  0  0  0  0  0  0  0  0  0  0  0  # atno 11005 bound_to 11000
  146.1008  139.4003  143.0348 LP  0  0  0  0  0  0  0  0  0  0  0  0  # atno 17320 bound_to 7965
  145.7581  140.9946  143.1214 LP  0  0  0  0  0  0  0  0  0  0  0  0  # atno 17321 bound_to 7965
  139.5029  144.6745  151.6162 LP  0  0  0  0  0  0  0  0  0  0  0  0  # atno 17342 bound_to 10162
  140.5998  143.9630  150.6379 LP  0  0  0  0  0  0  0  0  0  0  0  0  # atno 17343 bound_to 10162
  156.1587  130.3643  149.9331 LP  0  0  0  0  0  0  0  0  0  0  0  0  # atno 17370 bound_to 10713
  156.7334  130.9052  151.3627 LP  0  0  0  0  0  0  0  0  0  0  0  0  # atno 17371 bound_to 10713
  140.1925  134.8955  157.3077 LP  0  0  0  0  0  0  0  0  0  0  0  0  # atno 17394 bound_to 11000
  140.2274  134.3950  155.7537 LP  0  0  0  0  0  0  0  0  0  0  0  0  # atno 17395 bound_to 11000

$$$$
