AV-unprocessed.smi:290|AV-procd|sdf|2237|dock2
  -GOLD-   2262022103D 1   1.00000     0.00000
 Structure written by MMmdl.
 59 62  0  0  0  0  0  0  0  0  2 V2000
  149.9676  138.3315  154.4100 C   0  0  0  0  0  0  0  0  0  0  0  0
  149.9414  139.7995  154.8664 C   0  0  2  0  0  0  0  0  0  0  0  0
  151.2668  140.2812  155.0857 O   0  0  0  0  0  0  0  0  0  0  0  0
  151.4057  140.7328  156.4249 C   0  0  0  0  0  0  0  0  0  0  0  0
  150.0005  141.1660  156.8204 C   0  0  0  0  0  0  0  0  0  0  0  0
  149.1305  140.1137  156.1467 C   0  0  2  0  0  0  0  0  0  0  0  0
  149.0685  138.9793  156.9968 O   0  0  0  0  0  0  0  0  0  0  0  0
  147.6871  140.5867  155.8512 C   0  0  0  0  0  0  0  0  0  0  0  0
  146.9458  139.6774  154.9905 N   0  0  0  0  0  0  0  0  0  0  0  0
  147.2021  139.4029  153.6658 C   0  0  0  0  0  0  0  0  0  0  0  0
  146.3865  138.5518  153.1053 N   0  0  0  0  0  0  0  0  0  0  0  0
  145.5048  138.2077  154.1227 C   0  0  0  0  0  0  0  0  0  0  0  0
  144.3768  137.3441  154.2144 C   0  0  0  0  0  0  0  0  0  0  0  0
  143.8853  136.6017  153.1992 N   0  0  0  0  0  0  0  0  0  0  0  0
  144.6290  136.6665  151.9451 C   0  0  0  0  0  0  0  0  0  0  0  0
  144.6173  135.2500  151.3682 C   0  0  0  0  0  0  0  0  0  0  0  0
  144.5206  134.3768  152.6233 C   0  0  2  0  0  0  0  0  0  0  0  0
  144.1050  132.9603  152.3996 N   0  3  1  0  0  0  0  0  0  0  0  0
  143.0661  132.8271  151.3463 C   0  0  0  0  0  0  0  0  0  0  0  0
  145.2684  132.0636  152.1517 C   0  0  0  0  0  0  0  0  0  0  0  0
  146.0401  132.4078  150.8642 C   0  0  0  0  0  0  0  0  0  0  0  0
  146.5091  131.2311  150.2417 O   0  0  0  0  0  0  0  0  0  0  0  0
  143.5707  135.2107  153.5143 C   0  0  2  0  0  0  0  0  0  0  0  0
  142.0721  134.9584  153.2605 C   0  0  0  0  0  0  0  0  0  0  0  0
  143.7422  137.2492  155.4074 N   0  0  0  0  0  0  0  0  0  0  0  0
  144.1770  137.9591  156.4534 C   0  0  0  0  0  0  0  0  0  0  0  0
  145.2071  138.8061  156.5174 N   0  0  0  0  0  0  0  0  0  0  0  0
  145.8479  138.9010  155.3174 C   0  0  0  0  0  0  0  0  0  0  0  0
  145.5092  134.3586  153.0841 H   0  0  0  0  0  0  0  0  0  0  0  0
  143.7776  135.0041  154.5659 H   0  0  0  0  0  0  0  0  0  0  0  0
  148.9576  137.9533  154.2496 H   0  0  0  0  0  0  0  0  0  0  0  0
  150.4571  137.6901  155.1435 H   0  0  0  0  0  0  0  0  0  0  0  0
  150.5134  138.2286  153.4721 H   0  0  0  0  0  0  0  0  0  0  0  0
  149.5492  140.3997  154.0446 H   0  0  0  0  0  0  0  0  0  0  0  0
  151.7442  139.9041  157.0485 H   0  0  0  0  0  0  0  0  0  0  0  0
  152.1348  141.5394  156.5030 H   0  0  0  0  0  0  0  0  0  0  0  0
  149.8595  141.2297  157.9002 H   0  0  0  0  0  0  0  0  0  0  0  0
  149.7974  142.1508  156.3973 H   0  0  0  0  0  0  0  0  0  0  0  0
  148.1836  138.6482  156.9929 H   0  0  0  0  0  0  0  0  0  0  0  0
  147.1288  140.6934  156.7821 H   0  0  0  0  0  0  0  0  0  0  0  0
  147.6984  141.5744  155.3880 H   0  0  0  0  0  0  0  0  0  0  0  0
  148.0158  139.8618  153.1231 H   0  0  0  0  0  0  0  0  0  0  0  0
  144.1658  137.3769  151.2598 H   0  0  0  0  0  0  0  0  0  0  0  0
  145.6554  136.9951  152.1144 H   0  0  0  0  0  0  0  0  0  0  0  0
  143.7384  135.1136  150.7365 H   0  0  0  0  0  0  0  0  0  0  0  0
  145.5042  135.0475  150.7670 H   0  0  0  0  0  0  0  0  0  0  0  0
  143.4289  133.2106  150.3918 H   0  0  0  0  0  0  0  0  0  0  0  0
  142.1586  133.3695  151.6096 H   0  0  0  0  0  0  0  0  0  0  0  0
  142.7650  131.7913  151.2005 H   0  0  0  0  0  0  0  0  0  0  0  0
  145.9399  132.1024  153.0107 H   0  0  0  0  0  0  0  0  0  0  0  0
  144.9418  131.0268  152.0763 H   0  0  0  0  0  0  0  0  0  0  0  0
  145.4433  132.9837  150.1584 H   0  0  0  0  0  0  0  0  0  0  0  0
  146.9042  133.0246  151.1125 H   0  0  0  0  0  0  0  0  0  0  0  0
  147.4433  131.1709  150.3748 H   0  0  0  0  0  0  0  0  0  0  0  0
  141.7820  133.9453  153.5338 H   0  0  0  0  0  0  0  0  0  0  0  0
  141.8051  135.1123  152.2145 H   0  0  0  0  0  0  0  0  0  0  0  0
  141.4613  135.6363  153.8575 H   0  0  0  0  0  0  0  0  0  0  0  0
  143.6190  137.8324  157.3695 H   0  0  0  0  0  0  0  0  0  0  0  0
  143.6842  132.6508  153.2646 H   0  0  0  0  0  0  0  0  0  0  0  0
  1  2  1  0  0  0  0
  1 31  1  0  0  0  0
  1 32  1  0  0  0  0
  1 33  1  0  0  0  0
  2  6  1  0  0  0  0
  2  3  1  0  0  0  0
  2 34  1  0  0  0  0
  3  4  1  0  0  0  0
  4  5  1  0  0  0  0
  4 35  1  0  0  0  0
  4 36  1  0  0  0  0
  5  6  1  0  0  0  0
  5 37  1  0  0  0  0
  5 38  1  0  0  0  0
  6  7  1  0  0  0  0
  6  8  1  0  0  0  0
  7 39  1  0  0  0  0
  8  9  1  0  0  0  0
  8 40  1  0  0  0  0
  8 41  1  0  0  0  0
  9 28  1  0  0  0  0
  9 10  1  0  0  0  0
 10 11  2  0  0  0  0
 10 42  1  0  0  0  0
 11 12  1  0  0  0  0
 12 28  2  0  0  0  0
 12 13  1  0  0  0  0
 13 14  1  0  0  0  0
 13 25  2  0  0  0  0
 14 23  1  0  0  0  0
 14 15  1  0  0  0  0
 15 16  1  0  0  0  0
 15 43  1  0  0  0  0
 15 44  1  0  0  0  0
 16 17  1  0  0  0  0
 16 45  1  0  0  0  0
 16 46  1  0  0  0  0
 17 29  1  0  0  0  0
 17 18  1  0  0  0  0
 17 23  1  0  0  0  0
 18 19  1  0  0  0  0
 18 20  1  0  0  0  0
 18 59  1  0  0  0  0
 19 47  1  0  0  0  0
 19 48  1  0  0  0  0
 19 49  1  0  0  0  0
 20 21  1  0  0  0  0
 20 50  1  0  0  0  0
 20 51  1  0  0  0  0
 21 22  1  0  0  0  0
 21 52  1  0  0  0  0
 21 53  1  0  0  0  0
 22 54  1  0  0  0  0
 23 30  1  0  0  0  0
 23 24  1  0  0  0  0
 24 55  1  0  0  0  0
 24 56  1  0  0  0  0
 24 57  1  0  0  0  0
 25 26  1  0  0  0  0
 26 27  2  0  0  0  0
 26 58  1  0  0  0  0
 27 28  1  0  0  0  0
M  CHG  1  18   1
M  END
> <s_m_source_file>
AV-unprocessed.smi

> <i_m_source_file_index>
290

> <i_lp_mmshare_version>
43012

> <i_f3d_flags>
0

> <s_epik_input>
W0NIMl0xW0NIMl1PW0NAQEhdKFtDSDNdKVtDQEBdMShbT0hdKVtDSDJdbihbY0hdbjIpYyhjMjMpbltjSF1uYzNONFtDSDJdW0NIMl1bQ0BIXShbQ0BIXTRbQ0gzXSlOKFtDSDNdKVtDSDJdW0NIMl1bT0hd

> <s_epik_cmdline>
J2VwaWtfcHl0aG9uJywgJy1waCcsICc3LjAnLCAnLXRuJywgJzgnLCAnLW1hJywgJzIwMCcsICctbWV0YWxfYmluZGluZycsICctaW1hZScsICc8aW5maWxlLm1hZT4nLCAnLW9tYWUnLCAnPG91dGZpbGUubWFlPic=

> <r_lp_tautomer_probability>
1

> <r_epik_Ionization_Penalty>
0.0036983

> <r_epik_Ionization_Penalty_Charging>
0.0032725

> <r_epik_Ionization_Penalty_Neutral>
0.000425798

> <r_epik_State_Penalty>
-0

> <r_epik_Charging_Adjusted_Penalty>
0.0032725

> <i_epik_Tot_Q>
1

> <i_epik_Tot_abs_Q>
1

> <r_epik_Metal_State_Penalty>
-0

> <b_epik_Metal_Only>
0

> <s_lp_Force_Field>
OPLS_2005

> <r_lp_Energy>
65.7953

> <b_lp_Chiralities_Consistent>
1

> <s_lp_Variant>
AV-unprocessed.smi:290-23

> <Gold.Version>
5.8.1

> <Gold.Id.Protein>
6NUR|6NUR_protein|mol2

> <Gold.PLP.Fitness>
44.8561

> <Gold.PLP.PLP>
-31.6911

> <Gold.PLP.part.hbond>
-2.8650

> <Gold.PLP.part.metal>
0.0000

> <Gold.PLP.part.buried>
-4.7613

> <Gold.PLP.part.nonpolar>
-26.2183

> <Gold.PLP.part.repulsive>
0.4786

> <Gold.PLP.ligand.clash>
0.0000

> <Gold.PLP.ligand.torsion>
1.1006

> <Gold.PLP.Chemscore.Hbond>
3.9825

> <Gold.PLP.Chemscore.CHOScore>
1.0000

> <Gold.PLP.Chemscore.Metal>
0.0000

> <Gold.Chemscore.Hbonds>
donor molecule, donor type, donor heavy atom, donor atom, acceptor molecule, acceptor atom, score
      L1  H    18    59       P1 10957  2.00
      L1  H    22    54       P1 10747  1.00
      P1  H  7989  7998       L1     3  1.00
      L1  C    10    42       P1  7957  1.00

> <Gold.PLP.Chemscore.Internal.Correction>
0.4187

> <Gold.Rescore>
     Score         DG    S(hbond)    S(metal)    S(lipo)     H(rot)  DE(clash)    DE(int)     intcor
      8.93     -12.92       2.35        0.00      76.72       3.67       0.47       3.52       ----

> <Gold.Chemscore.Fitness>
8.9286

> <Gold.Chemscore.DG>
-12.9222

> <Gold.Chemscore.ZeroCoef>
-5.4800

> <Gold.Chemscore.Hbond>
2.3504

> <Gold.Chemscore.Metal>
0.0000

> <Gold.Chemscore.Lipo>
76.7194

> <Gold.Chemscore.Internal_Hbond>
0.0000

> <Gold.Chemscore.DEClash>
0.4690

> <Gold.Chemscore.DEInternal>
3.5246

> <Gold.Chemscore.Rot>
3.6658

> <Gold.Chemscore.Internal.Correction>
   9.000000E+99

> <Gold.Chemscore.Hbonds>
donor molecule, donor type, donor heavy atom, donor atom, acceptor molecule, acceptor atom, score
      L1  H    18    59       P1 10957  0.33
      L1  H    22    54       P1 10747  0.96
      P1  H  7989  7998       L1     3  0.25

> <Gold.Chemscore.Hbond.Weighted>
-7.8505

> <Gold.Chemscore.Metal.Weighted>
-0.0000

> <Gold.Chemscore.Lipo.Weighted>
-8.9762

> <Gold.Chemscore.Internal_Hbond.Weighted>
0.0000

> <Gold.Chemscore.DEClash.Weighted>
0.4690

> <Gold.Chemscore.DEInternal.Weighted>
3.5246

> <Gold.Chemscore.Rot.Weighted>
9.3844

> <Gold.Chemscore.Internal.Correction.Weighted>
   9.000000E+99

> <Gold.Protein.RotatedTorsions>
[ 6907 6896 6895 6894 ] final  -43.30 input  -60.11 | X-H torsion
[ 7974 7965 7964 7962 ] final   19.09 input  175.53 | X-H torsion
[ 8008 7997 7996 7995 ] final  154.55 input   59.86 | X-H torsion
[ 10167 10162 10161 10158 ] final -118.43 input  -65.29 | X-H torsion
[ 10718 10713 10712 10709 ] final   80.58 input   66.30 | X-H torsion
[ 10763 10752 10751 10750 ] final  -11.99 input  -60.55 | X-H torsion
[ 11005 11000 10999 10996 ] final   41.24 input  -57.11 | X-H torsion

> <Gold.Protein.ActiveResidues>
 VAL166  LYS551  ARG553  GLY616  TRP617  ASP618  TYR619  PRO620  LYS621  CYS622 
 ASP623  PHE694  ASN695  SER759  ASP760  ASP761  ALA762  ILE779  LEU786  VAL792 
 PHE793  MET794  SER795  GLU796  ALA797  LYS798  CYS799  TRP800  GLU811  SER814 

> <Gold.Protein.RotatedAtoms>
  150.9454  134.8860  159.7638 H   0  0  0  0  0  0  0  0  0  0  0  0  # atno 6907 bound_to 6896
  152.5098  134.3882  159.9384 H   0  0  0  0  0  0  0  0  0  0  0  0  # atno 6908 bound_to 6896
  151.3900  133.3752  159.2754 H   0  0  0  0  0  0  0  0  0  0  0  0  # atno 6909 bound_to 6896
  146.2162  139.8363  142.8650 H   0  0  0  0  0  0  0  0  0  0  0  0  # atno 7974 bound_to 7965
  156.2525  140.1963  156.6664 H   0  0  0  0  0  0  0  0  0  0  0  0  # atno 8008 bound_to 7997
  154.6426  140.0582  156.9888 H   0  0  0  0  0  0  0  0  0  0  0  0  # atno 8009 bound_to 7997
  155.1540  140.3254  155.4428 H   0  0  0  0  0  0  0  0  0  0  0  0  # atno 8010 bound_to 7997
  140.0576  143.4999  152.2049 H   0  0  0  0  0  0  0  0  0  0  0  0  # atno 10167 bound_to 10162
  157.6810  130.9965  150.2100 H   0  0  0  0  0  0  0  0  0  0  0  0  # atno 10718 bound_to 10713
  153.4918  135.7017  153.5880 H   0  0  0  0  0  0  0  0  0  0  0  0  # atno 10763 bound_to 10752
  153.4049  135.3863  155.2012 H   0  0  0  0  0  0  0  0  0  0  0  0  # atno 10764 bound_to 10752
  154.8716  135.3890  154.4379 H   0  0  0  0  0  0  0  0  0  0  0  0  # atno 10765 bound_to 10752
  140.1853  134.4053  155.8177 H   0  0  0  0  0  0  0  0  0  0  0  0  # atno 11005 bound_to 11000
  145.2945  141.0176  143.3644 LP  0  0  0  0  0  0  0  0  0  0  0  0  # atno 17320 bound_to 7965
  144.9052  139.4598  143.6613 LP  0  0  0  0  0  0  0  0  0  0  0  0  # atno 17321 bound_to 7965
  139.5914  144.7551  151.3392 LP  0  0  0  0  0  0  0  0  0  0  0  0  # atno 17342 bound_to 10162
  140.7187  143.7195  150.7707 LP  0  0  0  0  0  0  0  0  0  0  0  0  # atno 17343 bound_to 10162
  156.2773  130.3729  149.7971 LP  0  0  0  0  0  0  0  0  0  0  0  0  # atno 17370 bound_to 10713
  156.5670  130.8408  151.3345 LP  0  0  0  0  0  0  0  0  0  0  0  0  # atno 17371 bound_to 10713
  141.2224  133.7020  156.8002 LP  0  0  0  0  0  0  0  0  0  0  0  0  # atno 17394 bound_to 11000
  140.2221  134.8749  157.3388 LP  0  0  0  0  0  0  0  0  0  0  0  0  # atno 17395 bound_to 11000

$$$$
