AV-unprocessed.smi:671|AV-procd|sdf|3285|dock6
  -GOLD-   22720 0243D 1   1.00000     0.00000
 Structure written by MMmdl.
 50 51  0  0  0  0  0  0  0  0  2 V2000
  150.8621  138.6452  154.4978 C   0  0  0  0  0  0  0  0  0  0  0  0
  149.5652  139.2645  154.0954 C   0  0  0  0  0  0  0  0  0  0  0  0
  148.7247  138.7459  153.1611 N   0  3  0  0  0  0  0  0  0  0  0  0
  147.6479  139.5312  153.0191 N   0  0  0  0  0  0  0  0  0  0  0  0
  146.6193  139.1446  152.0534 C   0  0  0  0  0  0  0  0  0  0  0  0
  147.7350  140.6073  153.8526 C   0  0  0  0  0  0  0  0  0  0  0  0
  146.7028  141.6841  153.9487 C   0  0  0  0  0  0  0  0  0  0  0  0
  148.9463  140.4394  154.5384 C   0  0  0  0  0  0  0  0  0  0  0  0
  149.5128  141.3613  155.5822 C   0  0  0  0  0  0  0  0  0  0  0  0
  148.9141  141.1289  156.9886 C   0  0  2  0  0  0  0  0  0  0  0  0
  147.9243  142.2305  157.3983 C   0  0  0  0  0  0  0  0  0  0  0  0
  149.9793  141.0531  157.9921 N   0  0  0  0  0  0  0  0  0  0  0  0
  150.9701  141.9351  158.2220 C   0  0  0  0  0  0  0  0  0  0  0  0
  151.0896  142.9641  157.5604 O   0  0  0  0  0  0  0  0  0  0  0  0
  151.8027  141.5889  159.2183 N   0  0  0  0  0  0  0  0  0  0  0  0
  152.9904  142.3234  159.6520 C   0  0  2  0  0  0  0  0  0  0  0  0
  153.7851  141.4723  160.6617 C   0  0  0  0  0  0  0  0  0  0  0  0
  153.6244  142.1398  162.0354 C   0  0  0  0  0  0  0  0  0  0  0  0
  152.5226  143.1859  161.8679 C   0  0  0  0  0  0  0  0  0  0  0  0
  152.6345  143.6208  160.4062 C   0  0  2  0  0  0  0  0  0  0  0  0
  151.4138  144.4032  159.8923 C   0  0  0  0  0  0  0  0  0  0  0  0
  150.9570  138.6311  155.5833 H   0  0  0  0  0  0  0  0  0  0  0  0
  151.6934  139.2160  154.0839 H   0  0  0  0  0  0  0  0  0  0  0  0
  150.9290  137.6199  154.1334 H   0  0  0  0  0  0  0  0  0  0  0  0
  145.6838  139.6519  152.2896 H   0  0  0  0  0  0  0  0  0  0  0  0
  146.4621  138.0660  152.0972 H   0  0  0  0  0  0  0  0  0  0  0  0
  146.9451  139.4289  151.0525 H   0  0  0  0  0  0  0  0  0  0  0  0
  147.0588  142.5202  154.5490 H   0  0  0  0  0  0  0  0  0  0  0  0
  145.7960  141.2922  154.4094 H   0  0  0  0  0  0  0  0  0  0  0  0
  146.4549  142.0591  152.9553 H   0  0  0  0  0  0  0  0  0  0  0  0
  150.5940  141.2243  155.6150 H   0  0  0  0  0  0  0  0  0  0  0  0
  149.3752  142.4032  155.2942 H   0  0  0  0  0  0  0  0  0  0  0  0
  148.3651  140.1859  156.9948 H   0  0  0  0  0  0  0  0  0  0  0  0
  147.0674  142.2674  156.7256 H   0  0  0  0  0  0  0  0  0  0  0  0
  148.3971  143.2131  157.3910 H   0  0  0  0  0  0  0  0  0  0  0  0
  147.5374  142.0553  158.4028 H   0  0  0  0  0  0  0  0  0  0  0  0
  149.9667  140.2330  158.5815 H   0  0  0  0  0  0  0  0  0  0  0  0
  151.6076  140.7287  159.7084 H   0  0  0  0  0  0  0  0  0  0  0  0
  153.6195  142.5556  158.7907 H   0  0  0  0  0  0  0  0  0  0  0  0
  153.4330  140.4400  160.6871 H   0  0  0  0  0  0  0  0  0  0  0  0
  154.8399  141.4351  160.3875 H   0  0  0  0  0  0  0  0  0  0  0  0
  153.3902  141.4211  162.8213 H   0  0  0  0  0  0  0  0  0  0  0  0
  154.5572  142.6334  162.3111 H   0  0  0  0  0  0  0  0  0  0  0  0
  151.5492  142.7279  162.0479 H   0  0  0  0  0  0  0  0  0  0  0  0
  152.6309  144.0188  162.5633 H   0  0  0  0  0  0  0  0  0  0  0  0
  153.5007  144.2807  160.3317 H   0  0  0  0  0  0  0  0  0  0  0  0
  150.4898  143.8345  160.0003 H   0  0  0  0  0  0  0  0  0  0  0  0
  151.5301  144.6588  158.8388 H   0  0  0  0  0  0  0  0  0  0  0  0
  151.2910  145.3342  160.4459 H   0  0  0  0  0  0  0  0  0  0  0  0
  148.8309  137.8998  152.6156 H   0  0  0  0  0  0  0  0  0  0  0  0
  1  2  1  0  0  0  0
  1 22  1  0  0  0  0
  1 23  1  0  0  0  0
  1 24  1  0  0  0  0
  2  8  1  0  0  0  0
  2  3  2  0  0  0  0
  3  4  1  0  0  0  0
  3 50  1  0  0  0  0
  4  5  1  0  0  0  0
  4  6  1  0  0  0  0
  5 25  1  0  0  0  0
  5 26  1  0  0  0  0
  5 27  1  0  0  0  0
  6  7  1  0  0  0  0
  6  8  2  0  0  0  0
  7 28  1  0  0  0  0
  7 29  1  0  0  0  0
  7 30  1  0  0  0  0
  8  9  1  0  0  0  0
  9 10  1  0  0  0  0
  9 31  1  0  0  0  0
  9 32  1  0  0  0  0
 10 11  1  0  0  0  0
 10 12  1  0  0  0  0
 10 33  1  0  0  0  0
 11 34  1  0  0  0  0
 11 35  1  0  0  0  0
 11 36  1  0  0  0  0
 12 13  1  0  0  0  0
 12 37  1  0  0  0  0
 13 14  2  0  0  0  0
 13 15  1  0  0  0  0
 15 16  1  0  0  0  0
 15 38  1  0  0  0  0
 16 20  1  0  0  0  0
 16 17  1  0  0  0  0
 16 39  1  0  0  0  0
 17 18  1  0  0  0  0
 17 40  1  0  0  0  0
 17 41  1  0  0  0  0
 18 19  1  0  0  0  0
 18 42  1  0  0  0  0
 18 43  1  0  0  0  0
 19 20  1  0  0  0  0
 19 44  1  0  0  0  0
 19 45  1  0  0  0  0
 20 21  1  0  0  0  0
 20 46  1  0  0  0  0
 21 47  1  0  0  0  0
 21 48  1  0  0  0  0
 21 49  1  0  0  0  0
M  CHG  1   3   1
M  END
> <s_m_source_file>
AV-unprocessed.smi

> <i_m_source_file_index>
671

> <i_lp_mmshare_version>
43012

> <i_f3d_flags>
0

> <s_epik_input>
W0NIM11jMW5uKFtDSDNdKWMoW0NIM10pYzFbQ0gyXVtDQEhdKFtDSDNdKVtOSF1DKD1PKVtOSF1bQ0BASF0yW0NIMl1bQ0gyXVtDSDJdW0NASF0yW0NIM10=

> <s_epik_cmdline>
J2VwaWtfcHl0aG9uJywgJy1waCcsICc3LjAnLCAnLXRuJywgJzgnLCAnLW1hJywgJzIwMCcsICctbWV0YWxfYmluZGluZycsICctaW1hZScsICc8aW5maWxlLm1hZT4nLCAnLW9tYWUnLCAnPG91dGZpbGUubWFlPic=

> <r_lp_tautomer_probability>
1

> <r_epik_Ionization_Penalty>
2.28705

> <r_epik_Ionization_Penalty_Charging>
2.28698

> <r_epik_Ionization_Penalty_Neutral>
6.23157e-05

> <r_epik_State_Penalty>
2.43671

> <r_epik_Charging_Adjusted_Penalty>
4.72369

> <i_epik_Tot_Q>
1

> <i_epik_Tot_abs_Q>
1

> <r_epik_Metal_State_Penalty>
2.44911

> <b_epik_Metal_Only>
0

> <s_lp_Force_Field>
OPLS_2005

> <r_lp_Energy>
35.629

> <b_lp_Chiralities_Consistent>
1

> <s_lp_Variant>
AV-unprocessed.smi:671-13

> <Gold.Version>
5.8.1

> <Gold.Id.Protein>
6NUR|6NUR_protein|mol2

> <Gold.PLP.Fitness>
52.8436

> <Gold.PLP.PLP>
-49.1440

> <Gold.PLP.part.hbond>
-2.0000

> <Gold.PLP.part.metal>
0.0000

> <Gold.PLP.part.buried>
-0.4028

> <Gold.PLP.part.nonpolar>
-46.0612

> <Gold.PLP.part.repulsive>
0.4545

> <Gold.PLP.ligand.clash>
0.0000

> <Gold.PLP.ligand.torsion>
1.1645

> <Gold.PLP.Chemscore.Hbond>
2.0000

> <Gold.PLP.Chemscore.CHOScore>
0.0000

> <Gold.PLP.Chemscore.Metal>
0.0000

> <Gold.Chemscore.Hbonds>
donor molecule, donor type, donor heavy atom, donor atom, acceptor molecule, acceptor atom, score
      L1  H     3    50       P1  7948  2.00

> <Gold.PLP.Chemscore.Internal.Correction>
0.0286

> <Gold.Rescore>
     Score         DG    S(hbond)    S(metal)    S(lipo)     H(rot)  DE(clash)    DE(int)     intcor
     17.45     -19.18       1.00        0.00     121.47       1.51       0.55       1.18       ----

> <Gold.Chemscore.Fitness>
17.4494

> <Gold.Chemscore.DG>
-19.1771

> <Gold.Chemscore.ZeroCoef>
-5.4800

> <Gold.Chemscore.Hbond>
1.0000

> <Gold.Chemscore.Metal>
0.0000

> <Gold.Chemscore.Lipo>
121.4691

> <Gold.Chemscore.Internal_Hbond>
0.0000

> <Gold.Chemscore.DEClash>
0.5461

> <Gold.Chemscore.DEInternal>
1.1817

> <Gold.Chemscore.Rot>
1.5057

> <Gold.Chemscore.Internal.Correction>
   9.000000E+99

> <Gold.Chemscore.Hbonds>
donor molecule, donor type, donor heavy atom, donor atom, acceptor molecule, acceptor atom, score
      L1  H     3    50       P1  7948  1.00

> <Gold.Chemscore.Hbond.Weighted>
-3.3399

> <Gold.Chemscore.Metal.Weighted>
-0.0000

> <Gold.Chemscore.Lipo.Weighted>
-14.2119

> <Gold.Chemscore.Internal_Hbond.Weighted>
0.0000

> <Gold.Chemscore.DEClash.Weighted>
0.5461

> <Gold.Chemscore.DEInternal.Weighted>
1.1817

> <Gold.Chemscore.Rot.Weighted>
3.8547

> <Gold.Chemscore.Internal.Correction.Weighted>
   9.000000E+99

> <Gold.Protein.RotatedTorsions>
[ 6907 6896 6895 6894 ] final  -38.34 input  -60.11 | X-H torsion
[ 7974 7965 7964 7962 ] final  -69.41 input  175.53 | X-H torsion
[ 8008 7997 7996 7995 ] final  148.80 input   59.86 | X-H torsion
[ 10167 10162 10161 10158 ] final -172.08 input  -65.29 | X-H torsion
[ 10718 10713 10712 10709 ] final   29.09 input   66.30 | X-H torsion
[ 10763 10752 10751 10750 ] final  104.65 input  -60.55 | X-H torsion
[ 11005 11000 10999 10996 ] final   80.72 input  -57.11 | X-H torsion

> <Gold.Protein.ActiveResidues>
 VAL166  LYS551  ARG553  GLY616  TRP617  ASP618  TYR619  PRO620  LYS621  CYS622 
 ASP623  PHE694  ASN695  SER759  ASP760  ASP761  ALA762  ILE779  LEU786  VAL792 
 PHE793  MET794  SER795  GLU796  ALA797  LYS798  CYS799  TRP800  GLU811  SER814 

> <Gold.Protein.RotatedAtoms>
  151.0037  134.9342  159.7967 H   0  0  0  0  0  0  0  0  0  0  0  0  # atno 6907 bound_to 6896
  152.5284  134.3121  159.9127 H   0  0  0  0  0  0  0  0  0  0  0  0  # atno 6908 bound_to 6896
  151.3126  133.4032  159.2682 H   0  0  0  0  0  0  0  0  0  0  0  0  # atno 6909 bound_to 6896
  145.7041  140.9105  143.0715 H   0  0  0  0  0  0  0  0  0  0  0  0  # atno 7974 bound_to 7965
  156.2778  140.2119  156.5756 H   0  0  0  0  0  0  0  0  0  0  0  0  # atno 8008 bound_to 7997
  154.7100  140.0513  157.0564 H   0  0  0  0  0  0  0  0  0  0  0  0  # atno 8009 bound_to 7997
  155.0618  140.3167  155.4661 H   0  0  0  0  0  0  0  0  0  0  0  0  # atno 8010 bound_to 7997
  139.5765  144.1521  152.1457 H   0  0  0  0  0  0  0  0  0  0  0  0  # atno 10167 bound_to 10162
  157.2420  130.7074  149.6363 H   0  0  0  0  0  0  0  0  0  0  0  0  # atno 10718 bound_to 10713
  153.3688  135.3936  155.1773 H   0  0  0  0  0  0  0  0  0  0  0  0  # atno 10763 bound_to 10752
  154.8691  135.3697  154.5004 H   0  0  0  0  0  0  0  0  0  0  0  0  # atno 10764 bound_to 10752
  153.5470  135.7083  153.5670 H   0  0  0  0  0  0  0  0  0  0  0  0  # atno 10765 bound_to 10752
  139.9124  134.7942  156.1946 H   0  0  0  0  0  0  0  0  0  0  0  0  # atno 11005 bound_to 11000
  144.6960  139.8986  143.7457 LP  0  0  0  0  0  0  0  0  0  0  0  0  # atno 17320 bound_to 7965
  146.0772  139.3760  143.0487 LP  0  0  0  0  0  0  0  0  0  0  0  0  # atno 17321 bound_to 7965
  140.1065  144.5494  150.6954 LP  0  0  0  0  0  0  0  0  0  0  0  0  # atno 17342 bound_to 10162
  140.7047  143.2459  151.4761 LP  0  0  0  0  0  0  0  0  0  0  0  0  # atno 17343 bound_to 10162
  155.9669  130.4455  150.5503 LP  0  0  0  0  0  0  0  0  0  0  0  0  # atno 17370 bound_to 10713
  157.3369  131.0709  151.1818 LP  0  0  0  0  0  0  0  0  0  0  0  0  # atno 17371 bound_to 10713
  141.0562  133.6864  156.1865 LP  0  0  0  0  0  0  0  0  0  0  0  0  # atno 17394 bound_to 11000
  140.6733  134.4845  157.5587 LP  0  0  0  0  0  0  0  0  0  0  0  0  # atno 17395 bound_to 11000

$$$$
