AV-unprocessed.smi:342|AV-procd|sdf|2386|dock7
  -GOLD-   2262022313D 1   1.00000     0.00000
 Structure written by MMmdl.
 42 44  0  0  0  0  0  0  0  0  2 V2000
  150.5437  142.8061  155.9925 O   0  0  0  0  0  0  0  0  0  0  0  0
  150.3987  141.4530  155.6114 C   0  0  2  0  0  0  0  0  0  0  0  0
  149.2220  141.3384  154.6175 C   0  0  0  0  0  0  0  0  0  0  0  0
  148.0882  142.2292  154.9718 N   0  3  0  0  0  0  0  0  0  0  0  0
  147.0518  142.3233  153.9132 C   0  0  0  0  0  0  0  0  0  0  0  0
  145.9376  143.2942  154.3391 C   0  0  0  0  0  0  0  0  0  0  0  0
  145.3757  142.8644  155.5728 O   0  0  0  0  0  0  0  0  0  0  0  0
  146.3386  142.8510  156.6192 C   0  0  0  0  0  0  0  0  0  0  0  0
  147.4684  141.8677  156.2688 C   0  0  0  0  0  0  0  0  0  0  0  0
  150.2154  140.6170  156.8956 C   0  0  0  0  0  0  0  0  0  0  0  0
  151.4291  140.5388  157.6992 N   0  0  0  0  0  0  0  0  0  0  0  0
  152.3494  139.5392  157.7557 C   0  0  0  0  0  0  0  0  0  0  0  0
  152.2225  138.2764  156.9485 C   0  0  0  0  0  0  0  0  0  0  0  0
  152.2381  138.5416  155.6414 F   0  0  0  0  0  0  0  0  0  0  0  0
  153.2354  137.4501  157.2089 F   0  0  0  0  0  0  0  0  0  0  0  0
  151.0769  137.6523  157.2203 F   0  0  0  0  0  0  0  0  0  0  0  0
  153.3731  139.7480  158.5866 N   0  0  0  0  0  0  0  0  0  0  0  0
  153.0828  140.9817  159.1322 C   0  0  0  0  0  0  0  0  0  0  0  0
  153.7846  141.7507  160.0877 C   0  0  0  0  0  0  0  0  0  0  0  0
  153.2823  143.0000  160.5064 C   0  0  0  0  0  0  0  0  0  0  0  0
  152.0733  143.4960  159.9778 C   0  0  0  0  0  0  0  0  0  0  0  0
  151.3593  142.7457  159.0238 C   0  0  0  0  0  0  0  0  0  0  0  0
  151.8673  141.5009  158.6052 C   0  0  0  0  0  0  0  0  0  0  0  0
  149.8898  143.3199  155.5426 H   0  0  0  0  0  0  0  0  0  0  0  0
  151.3264  141.1477  155.1307 H   0  0  0  0  0  0  0  0  0  0  0  0
  149.5398  141.5689  153.6000 H   0  0  0  0  0  0  0  0  0  0  0  0
  148.8829  140.3016  154.6026 H   0  0  0  0  0  0  0  0  0  0  0  0
  147.4880  142.6668  152.9765 H   0  0  0  0  0  0  0  0  0  0  0  0
  146.6293  141.3349  153.7240 H   0  0  0  0  0  0  0  0  0  0  0  0
  146.3219  144.3112  154.4342 H   0  0  0  0  0  0  0  0  0  0  0  0
  145.1524  143.3200  153.5834 H   0  0  0  0  0  0  0  0  0  0  0  0
  146.7314  143.8559  156.7820 H   0  0  0  0  0  0  0  0  0  0  0  0
  145.8497  142.5469  157.5447 H   0  0  0  0  0  0  0  0  0  0  0  0
  147.0764  140.8506  156.2161 H   0  0  0  0  0  0  0  0  0  0  0  0
  148.2221  141.8813  157.0573 H   0  0  0  0  0  0  0  0  0  0  0  0
  149.4328  141.0560  157.5160 H   0  0  0  0  0  0  0  0  0  0  0  0
  149.8736  139.6140  156.6445 H   0  0  0  0  0  0  0  0  0  0  0  0
  154.7095  141.3775  160.5020 H   0  0  0  0  0  0  0  0  0  0  0  0
  153.8257  143.5788  161.2389 H   0  0  0  0  0  0  0  0  0  0  0  0
  151.6939  144.4525  160.3070 H   0  0  0  0  0  0  0  0  0  0  0  0
  150.4304  143.1236  158.6236 H   0  0  0  0  0  0  0  0  0  0  0  0
  148.4777  143.1538  155.0913 H   0  0  0  0  0  0  0  0  0  0  0  0
  1  2  1  0  0  0  0
  1 24  1  0  0  0  0
  2  3  1  0  0  0  0
  2 10  1  0  0  0  0
  2 25  1  0  0  0  0
  3  4  1  0  0  0  0
  3 26  1  0  0  0  0
  3 27  1  0  0  0  0
  4  9  1  0  0  0  0
  4  5  1  0  0  0  0
  4 42  1  0  0  0  0
  5  6  1  0  0  0  0
  5 28  1  0  0  0  0
  5 29  1  0  0  0  0
  6  7  1  0  0  0  0
  6 30  1  0  0  0  0
  6 31  1  0  0  0  0
  7  8  1  0  0  0  0
  8  9  1  0  0  0  0
  8 32  1  0  0  0  0
  8 33  1  0  0  0  0
  9 34  1  0  0  0  0
  9 35  1  0  0  0  0
 10 11  1  0  0  0  0
 10 36  1  0  0  0  0
 10 37  1  0  0  0  0
 11 23  1  0  0  0  0
 11 12  1  0  0  0  0
 12 13  1  0  0  0  0
 12 17  2  0  0  0  0
 13 14  1  0  0  0  0
 13 15  1  0  0  0  0
 13 16  1  0  0  0  0
 17 18  1  0  0  0  0
 18 23  2  0  0  0  0
 18 19  1  0  0  0  0
 19 20  2  0  0  0  0
 19 38  1  0  0  0  0
 20 21  1  0  0  0  0
 20 39  1  0  0  0  0
 21 22  2  0  0  0  0
 21 40  1  0  0  0  0
 22 23  1  0  0  0  0
 22 41  1  0  0  0  0
M  CHG  1   4   1
M  END
> <s_m_source_file>
AV-unprocessed.smi

> <i_m_source_file_index>
342

> <i_lp_mmshare_version>
43012

> <i_f3d_flags>
0

> <s_epik_input>
W2NIXTFbY0hdW2NIXVtjSF1jKGMxMiluKGMobjIpQyhGKShGKUYpW0NIMl1bQ0BIXShbT0hdKVtDSDJdTjNbQ0gyXVtDSDJdT1tDSDJdW0NIMl0z

> <s_epik_cmdline>
J2VwaWtfcHl0aG9uJywgJy1waCcsICc3LjAnLCAnLXRuJywgJzgnLCAnLW1hJywgJzIwMCcsICctbWV0YWxfYmluZGluZycsICctaW1hZScsICc8aW5maWxlLm1hZT4nLCAnLW9tYWUnLCAnPG91dGZpbGUubWFlPic=

> <r_epik_Ionization_Penalty>
0.608409

> <r_epik_Ionization_Penalty_Charging>
0.608065

> <r_epik_Ionization_Penalty_Neutral>
0.000344684

> <r_epik_State_Penalty>
0.623026

> <r_epik_Charging_Adjusted_Penalty>
1.23109

> <i_epik_Tot_Q>
1

> <i_epik_Tot_abs_Q>
1

> <r_epik_Metal_State_Penalty>
0.623013

> <b_epik_Metal_Only>
0

> <s_lp_Force_Field>
OPLS_2005

> <r_lp_Energy>
26.0931

> <b_lp_Chiralities_Consistent>
1

> <s_lp_Variant>
AV-unprocessed.smi:342-3

> <Gold.Version>
5.8.1

> <Gold.Id.Protein>
6NUR|6NUR_protein|mol2

> <Gold.PLP.Fitness>
55.1176

> <Gold.PLP.PLP>
-44.4593

> <Gold.PLP.part.hbond>
-2.8493

> <Gold.PLP.part.metal>
0.0000

> <Gold.PLP.part.buried>
-6.4580

> <Gold.PLP.part.nonpolar>
-34.8048

> <Gold.PLP.part.repulsive>
0.2813

> <Gold.PLP.ligand.clash>
0.0000

> <Gold.PLP.ligand.torsion>
0.6193

> <Gold.PLP.Chemscore.Hbond>
3.9440

> <Gold.PLP.Chemscore.CHOScore>
0.0000

> <Gold.PLP.Chemscore.Metal>
0.0000

> <Gold.Chemscore.Hbonds>
donor molecule, donor type, donor heavy atom, donor atom, acceptor molecule, acceptor atom, score
      L1  H     1    24       P1  8028  0.90
      L1  H     4    42       P1  8028  2.00
      P1  H  7997  8009       L1    17  0.87

> <Gold.PLP.Chemscore.Internal.Correction>
0.0648

> <Gold.Rescore>
     Score         DG    S(hbond)    S(metal)    S(lipo)     H(rot)  DE(clash)    DE(int)     intcor
     18.48     -19.25       2.25        0.00     104.24       2.32       0.10       0.67       ----

> <Gold.Chemscore.Fitness>
18.4806

> <Gold.Chemscore.DG>
-19.2521

> <Gold.Chemscore.ZeroCoef>
-5.4800

> <Gold.Chemscore.Hbond>
2.2505

> <Gold.Chemscore.Metal>
0.0000

> <Gold.Chemscore.Lipo>
104.2412

> <Gold.Chemscore.Internal_Hbond>
0.0000

> <Gold.Chemscore.DEClash>
0.1009

> <Gold.Chemscore.DEInternal>
0.6705

> <Gold.Chemscore.Rot>
2.3206

> <Gold.Chemscore.Internal.Correction>
   9.000000E+99

> <Gold.Chemscore.Hbonds>
donor molecule, donor type, donor heavy atom, donor atom, acceptor molecule, acceptor atom, score
      L1  H     1    24       P1  8028  0.87
      L1  H     4    42       P1  8028  1.00
      P1  H  7997  8009       L1    17  0.17

> <Gold.Chemscore.Hbond.Weighted>
-7.5166

> <Gold.Chemscore.Metal.Weighted>
-0.0000

> <Gold.Chemscore.Lipo.Weighted>
-12.1962

> <Gold.Chemscore.Internal_Hbond.Weighted>
0.0000

> <Gold.Chemscore.DEClash.Weighted>
0.1009

> <Gold.Chemscore.DEInternal.Weighted>
0.6705

> <Gold.Chemscore.Rot.Weighted>
5.9407

> <Gold.Chemscore.Internal.Correction.Weighted>
   9.000000E+99

> <Gold.Protein.RotatedTorsions>
[ 6907 6896 6895 6894 ] final   24.38 input  -60.11 | X-H torsion
[ 7974 7965 7964 7962 ] final -135.55 input  175.53 | X-H torsion
[ 8008 7997 7996 7995 ] final  128.83 input   59.86 | X-H torsion
[ 10167 10162 10161 10158 ] final  131.42 input  -65.29 | X-H torsion
[ 10718 10713 10712 10709 ] final  177.05 input   66.30 | X-H torsion
[ 10763 10752 10751 10750 ] final   22.02 input  -60.55 | X-H torsion
[ 11005 11000 10999 10996 ] final  110.51 input  -57.11 | X-H torsion

> <Gold.Protein.ActiveResidues>
 VAL166  LYS551  ARG553  GLY616  TRP617  ASP618  TYR619  PRO620  LYS621  CYS622 
 ASP623  PHE694  ASN695  SER759  ASP760  ASP761  ALA762  ILE779  LEU786  VAL792 
 PHE793  MET794  SER795  GLU796  ALA797  LYS798  CYS799  TRP800  GLU811  SER814 

> <Gold.Protein.RotatedAtoms>
  151.9567  135.0143  160.0544 H   0  0  0  0  0  0  0  0  0  0  0  0  # atno 6907 bound_to 6896
  152.1905  133.4765  159.5014 H   0  0  0  0  0  0  0  0  0  0  0  0  # atno 6908 bound_to 6896
  150.6934  134.1635  159.4228 H   0  0  0  0  0  0  0  0  0  0  0  0  # atno 6909 bound_to 6896
  144.9004  140.6764  143.5088 H   0  0  0  0  0  0  0  0  0  0  0  0  # atno 7974 bound_to 7965
  156.2923  140.2635  156.2499 H   0  0  0  0  0  0  0  0  0  0  0  0  # atno 8008 bound_to 7997
  154.9893  140.0389  157.2331 H   0  0  0  0  0  0  0  0  0  0  0  0  # atno 8009 bound_to 7997
  154.7701  140.2776  155.6150 H   0  0  0  0  0  0  0  0  0  0  0  0  # atno 8010 bound_to 7997
  139.5385  144.6707  151.4705 H   0  0  0  0  0  0  0  0  0  0  0  0  # atno 10167 bound_to 10162
  156.9111  130.9910  151.3020 H   0  0  0  0  0  0  0  0  0  0  0  0  # atno 10718 bound_to 10713
  153.0948  135.6657  153.9783 H   0  0  0  0  0  0  0  0  0  0  0  0  # atno 10763 bound_to 10752
  153.9370  135.2998  155.3445 H   0  0  0  0  0  0  0  0  0  0  0  0  # atno 10764 bound_to 10752
  154.7366  135.5098  153.9126 H   0  0  0  0  0  0  0  0  0  0  0  0  # atno 10765 bound_to 10752
  139.8883  134.9485  156.6289 H   0  0  0  0  0  0  0  0  0  0  0  0  # atno 11005 bound_to 11000
  145.3626  139.1678  143.4375 LP  0  0  0  0  0  0  0  0  0  0  0  0  # atno 17320 bound_to 7965
  146.3105  140.3690  142.8672 LP  0  0  0  0  0  0  0  0  0  0  0  0  # atno 17321 bound_to 7965
  140.6603  143.8512  150.6881 LP  0  0  0  0  0  0  0  0  0  0  0  0  # atno 17342 bound_to 10162
  140.1904  143.4041  152.1867 LP  0  0  0  0  0  0  0  0  0  0  0  0  # atno 17343 bound_to 10162
  157.5967  130.8482  149.8739 LP  0  0  0  0  0  0  0  0  0  0  0  0  # atno 17370 bound_to 10713
  156.0535  130.3713  150.1144 LP  0  0  0  0  0  0  0  0  0  0  0  0  # atno 17371 bound_to 10713
  140.7681  133.8761  155.8470 LP  0  0  0  0  0  0  0  0  0  0  0  0  # atno 17394 bound_to 11000
  140.9865  134.1336  157.4447 LP  0  0  0  0  0  0  0  0  0  0  0  0  # atno 17395 bound_to 11000

$$$$
