AV-unprocessed.smi:2496|AV-procd|sdf|9826|dock2
  -GOLD-   2272013453D 1   1.00000     0.00000
 Structure written by MMmdl.
 40 40  0  0  0  0  0  0  0  0  1 V2000
  151.0700  141.8786  156.1457 C   0  0  0  0  0  0  0  0  0  0  0  0
  151.1399  140.3919  155.9420 C   0  0  0  0  0  0  0  0  0  0  0  0
  151.2537  139.9135  154.7129 N   0  0  0  0  0  0  0  0  0  0  0  0
  151.2981  138.5826  154.8883 N   0  0  0  0  0  0  0  0  0  0  0  0
  151.2169  138.2067  156.2082 C   0  0  0  0  0  0  0  0  0  0  0  0
  151.2602  136.7704  156.6141 C   0  0  0  0  0  0  0  0  0  0  0  0
  151.1075  139.3651  156.9356 C   0  0  0  0  0  0  0  0  0  0  0  0
  150.9989  139.5595  158.4351 C   0  0  1  0  0  0  0  0  0  0  0  0
  150.6745  138.2418  159.1638 C   0  0  0  0  0  0  0  0  0  0  0  0
  152.2743  140.2418  158.9569 C   0  0  0  0  0  0  0  0  0  0  0  0
  153.3842  139.7449  158.7617 O   0  0  0  0  0  0  0  0  0  0  0  0
  152.0920  141.3965  159.6178 N   0  0  0  0  0  0  0  0  0  0  0  0
  153.1457  142.2781  160.1145 C   0  0  2  0  0  0  0  0  0  0  0  0
  153.2428  142.1197  161.6429 C   0  0  0  0  0  0  0  0  0  0  0  0
  152.8703  143.7359  159.6593 C   0  0  0  0  0  0  0  0  0  0  0  0
  151.6469  144.3495  160.3704 C   0  0  0  0  0  0  0  0  0  0  0  0
  152.6879  143.8477  158.1351 C   0  0  0  0  0  0  0  0  0  0  0  0
  151.3858  137.9481  154.1071 H   0  0  0  0  0  0  0  0  0  0  0  0
  151.8647  142.2170  156.8106 H   0  0  0  0  0  0  0  0  0  0  0  0
  150.1180  142.1652  156.5928 H   0  0  0  0  0  0  0  0  0  0  0  0
  151.1718  142.4229  155.2061 H   0  0  0  0  0  0  0  0  0  0  0  0
  151.8456  136.6382  157.5237 H   0  0  0  0  0  0  0  0  0  0  0  0
  151.7131  136.1548  155.8367 H   0  0  0  0  0  0  0  0  0  0  0  0
  150.2552  136.3921  156.8003 H   0  0  0  0  0  0  0  0  0  0  0  0
  150.1820  140.2462  158.6599 H   0  0  0  0  0  0  0  0  0  0  0  0
  151.4543  137.4934  159.0240 H   0  0  0  0  0  0  0  0  0  0  0  0
  149.7399  137.8171  158.7967 H   0  0  0  0  0  0  0  0  0  0  0  0
  150.5591  138.4015  160.2363 H   0  0  0  0  0  0  0  0  0  0  0  0
  151.1431  141.7218  159.7319 H   0  0  0  0  0  0  0  0  0  0  0  0
  154.0990  141.9704  159.6805 H   0  0  0  0  0  0  0  0  0  0  0  0
  154.0949  142.6614  162.0522 H   0  0  0  0  0  0  0  0  0  0  0  0
  153.3731  141.0731  161.9208 H   0  0  0  0  0  0  0  0  0  0  0  0
  152.3425  142.4841  162.1386 H   0  0  0  0  0  0  0  0  0  0  0  0
  153.7356  144.3436  159.9286 H   0  0  0  0  0  0  0  0  0  0  0  0
  150.7488  143.7573  160.1916 H   0  0  0  0  0  0  0  0  0  0  0  0
  151.4524  145.3616  160.0151 H   0  0  0  0  0  0  0  0  0  0  0  0
  151.7912  144.4172  161.4491 H   0  0  0  0  0  0  0  0  0  0  0  0
  151.8719  143.2145  157.7862 H   0  0  0  0  0  0  0  0  0  0  0  0
  153.5902  143.5606  157.5961 H   0  0  0  0  0  0  0  0  0  0  0  0
  152.4597  144.8727  157.8419 H   0  0  0  0  0  0  0  0  0  0  0  0
  1  2  1  0  0  0  0
  1 19  1  0  0  0  0
  1 20  1  0  0  0  0
  1 21  1  0  0  0  0
  2  7  1  0  0  0  0
  2  3  2  0  0  0  0
  3  4  1  0  0  0  0
  4 18  1  0  0  0  0
  4  5  1  0  0  0  0
  5  6  1  0  0  0  0
  5  7  2  0  0  0  0
  6 22  1  0  0  0  0
  6 23  1  0  0  0  0
  6 24  1  0  0  0  0
  7  8  1  0  0  0  0
  8  9  1  0  0  0  0
  8 10  1  0  0  0  0
  8 25  1  0  0  0  0
  9 26  1  0  0  0  0
  9 27  1  0  0  0  0
  9 28  1  0  0  0  0
 10 11  2  0  0  0  0
 10 12  1  0  0  0  0
 12 13  1  0  0  0  0
 12 29  1  0  0  0  0
 13 14  1  0  0  0  0
 13 15  1  0  0  0  0
 13 30  1  0  0  0  0
 14 31  1  0  0  0  0
 14 32  1  0  0  0  0
 14 33  1  0  0  0  0
 15 16  1  0  0  0  0
 15 17  1  0  0  0  0
 15 34  1  0  0  0  0
 16 35  1  0  0  0  0
 16 36  1  0  0  0  0
 16 37  1  0  0  0  0
 17 38  1  0  0  0  0
 17 39  1  0  0  0  0
 17 40  1  0  0  0  0
M  END
> <s_m_source_file>
AV-unprocessed.smi

> <i_m_source_file_index>
2496

> <i_lp_mmshare_version>
43012

> <i_f3d_flags>
0

> <s_epik_input>
W0NIM11jMW5bbkhdYyhbQ0gzXSljMVtDQEhdKFtDSDNdKUMoPU8pW05IXVtDQEhdKFtDSDNdKVtDSF0oW0NIM10pW0NIM10=

> <s_epik_cmdline>
J2VwaWtfcHl0aG9uJywgJy1waCcsICc3LjAnLCAnLXRuJywgJzgnLCAnLW1hJywgJzIwMCcsICctbWV0YWxfYmluZGluZycsICctaW1hZScsICc8aW5maWxlLm1hZT4nLCAnLW9tYWUnLCAnPG91dGZpbGUubWFlPic=

> <r_lp_tautomer_probability>
1

> <r_epik_Ionization_Penalty>
0.000456212

> <r_epik_Ionization_Penalty_Charging>
0

> <r_epik_Ionization_Penalty_Neutral>
0.000456212

> <r_epik_State_Penalty>
-0

> <r_epik_Charging_Adjusted_Penalty>
0

> <i_epik_Tot_Q>
0

> <i_epik_Tot_abs_Q>
0

> <r_epik_Metal_State_Penalty>
-0

> <b_epik_Metal_Only>
0

> <s_lp_Force_Field>
OPLS_2005

> <r_lp_Energy>
1.41326

> <b_lp_Chiralities_Consistent>
1

> <s_lp_Variant>
AV-unprocessed.smi:2496-2

> <Gold.Version>
5.8.1

> <Gold.Id.Protein>
6NUR|6NUR_protein|mol2

> <Gold.PLP.Fitness>
41.2346

> <Gold.PLP.PLP>
-36.0718

> <Gold.PLP.part.hbond>
-1.9686

> <Gold.PLP.part.metal>
0.0000

> <Gold.PLP.part.buried>
-5.4649

> <Gold.PLP.part.nonpolar>
-29.4483

> <Gold.PLP.part.repulsive>
0.3353

> <Gold.PLP.ligand.clash>
0.0000

> <Gold.PLP.ligand.torsion>
0.4740

> <Gold.PLP.Chemscore.Hbond>
2.0000

> <Gold.PLP.Chemscore.CHOScore>
0.0000

> <Gold.PLP.Chemscore.Metal>
0.0000

> <Gold.Chemscore.Hbonds>
donor molecule, donor type, donor heavy atom, donor atom, acceptor molecule, acceptor atom, score
      P1  H  7989  7998       L1     3  1.00
      P1  H  7997  8008       L1    11  0.75

> <Gold.PLP.Chemscore.Internal.Correction>
0.1108

> <Gold.Rescore>
     Score         DG    S(hbond)    S(metal)    S(lipo)     H(rot)  DE(clash)    DE(int)     intcor
     17.39     -18.98       1.87        0.00      94.22       1.47       0.02       1.57       ----

> <Gold.Chemscore.Fitness>
17.3918

> <Gold.Chemscore.DG>
-18.9827

> <Gold.Chemscore.ZeroCoef>
-5.4800

> <Gold.Chemscore.Hbond>
1.8660

> <Gold.Chemscore.Metal>
0.0000

> <Gold.Chemscore.Lipo>
94.2205

> <Gold.Chemscore.Internal_Hbond>
0.0000

> <Gold.Chemscore.DEClash>
0.0234

> <Gold.Chemscore.DEInternal>
1.5675

> <Gold.Chemscore.Rot>
1.4662

> <Gold.Chemscore.Internal.Correction>
   9.000000E+99

> <Gold.Chemscore.Hbonds>
donor molecule, donor type, donor heavy atom, donor atom, acceptor molecule, acceptor atom, score
      P1  H  7989  7998       L1     3  0.97
      P1  H  7997  8008       L1    11  0.74

> <Gold.Chemscore.Hbond.Weighted>
-6.2324

> <Gold.Chemscore.Metal.Weighted>
-0.0000

> <Gold.Chemscore.Lipo.Weighted>
-11.0238

> <Gold.Chemscore.Internal_Hbond.Weighted>
0.0000

> <Gold.Chemscore.DEClash.Weighted>
0.0234

> <Gold.Chemscore.DEInternal.Weighted>
1.5675

> <Gold.Chemscore.Rot.Weighted>
3.7534

> <Gold.Chemscore.Internal.Correction.Weighted>
   9.000000E+99

> <Gold.Protein.RotatedTorsions>
[ 6907 6896 6895 6894 ] final  145.06 input  -60.11 | X-H torsion
[ 7974 7965 7964 7962 ] final   59.91 input  175.53 | X-H torsion
[ 8008 7997 7996 7995 ] final  -85.81 input   59.86 | X-H torsion
[ 10167 10162 10161 10158 ] final -166.20 input  -65.29 | X-H torsion
[ 10718 10713 10712 10709 ] final  -56.30 input   66.30 | X-H torsion
[ 10763 10752 10751 10750 ] final -163.41 input  -60.55 | X-H torsion
[ 11005 11000 10999 10996 ] final  102.02 input  -57.11 | X-H torsion

> <Gold.Protein.ActiveResidues>
 VAL166  LYS551  ARG553  GLY616  TRP617  ASP618  TYR619  PRO620  LYS621  CYS622 
 ASP623  PHE694  ASN695  SER759  ASP760  ASP761  ALA762  ILE779  LEU786  VAL792 
 PHE793  MET794  SER795  GLU796  ALA797  LYS798  CYS799  TRP800  GLU811  SER814 

> <Gold.Protein.RotatedAtoms>
  152.1857  133.4738  159.4980 H   0  0  0  0  0  0  0  0  0  0  0  0  # atno 6907 bound_to 6896
  150.6942  134.1777  159.4245 H   0  0  0  0  0  0  0  0  0  0  0  0  # atno 6908 bound_to 6896
  151.9690  135.0086  160.0602 H   0  0  0  0  0  0  0  0  0  0  0  0  # atno 6909 bound_to 6896
  145.9019  139.3587  143.0587 H   0  0  0  0  0  0  0  0  0  0  0  0  # atno 7974 bound_to 7965
  154.6448  140.0586  156.9888 H   0  0  0  0  0  0  0  0  0  0  0  0  # atno 8008 bound_to 7997
  155.1461  140.3270  155.4423 H   0  0  0  0  0  0  0  0  0  0  0  0  # atno 8009 bound_to 7997
  156.2548  140.1955  156.6574 H   0  0  0  0  0  0  0  0  0  0  0  0  # atno 8010 bound_to 7997
  139.6131  144.0775  152.1861 H   0  0  0  0  0  0  0  0  0  0  0  0  # atno 10167 bound_to 10162
  156.1300  130.4160  150.0286 H   0  0  0  0  0  0  0  0  0  0  0  0  # atno 10718 bound_to 10713
  154.7124  135.3009  154.9176 H   0  0  0  0  0  0  0  0  0  0  0  0  # atno 10763 bound_to 10752
  154.0073  135.6699  153.4767 H   0  0  0  0  0  0  0  0  0  0  0  0  # atno 10764 bound_to 10752
  153.0766  135.5031  154.8331 H   0  0  0  0  0  0  0  0  0  0  0  0  # atno 10765 bound_to 10752
  139.8775  134.9207  156.4995 H   0  0  0  0  0  0  0  0  0  0  0  0  # atno 11005 bound_to 11000
  145.8780  140.9380  143.0616 LP  0  0  0  0  0  0  0  0  0  0  0  0  # atno 17320 bound_to 7965
  144.6736  140.0743  143.7472 LP  0  0  0  0  0  0  0  0  0  0  0  0  # atno 17321 bound_to 7965
  140.0398  144.6016  150.7420 LP  0  0  0  0  0  0  0  0  0  0  0  0  # atno 17342 bound_to 10162
  140.7332  143.2715  151.3874 LP  0  0  0  0  0  0  0  0  0  0  0  0  # atno 17343 bound_to 10162
  156.8201  130.9355  151.3641 LP  0  0  0  0  0  0  0  0  0  0  0  0  # atno 17370 bound_to 10713
  157.6478  130.8859  149.9574 LP  0  0  0  0  0  0  0  0  0  0  0  0  # atno 17371 bound_to 10713
  140.8600  133.8067  155.9255 LP  0  0  0  0  0  0  0  0  0  0  0  0  # atno 17394 bound_to 11000
  140.9059  134.2320  157.5014 LP  0  0  0  0  0  0  0  0  0  0  0  0  # atno 17395 bound_to 11000

$$$$
