AV-unprocessed.smi:261|AV-procd|sdf|1984|dock2
  -GOLD-   2262021163D 1   1.00000     0.00000
 Structure written by MMmdl.
 51 54  0  0  0  0  0  0  0  0  1 V2000
  152.6621  144.3667  158.1172 C   0  0  0  0  0  0  0  0  0  0  0  0
  151.3289  144.1027  157.7121 O   0  0  0  0  0  0  0  0  0  0  0  0
  151.1868  142.8905  156.9861 C   0  0  2  0  0  0  0  0  0  0  0  0
  149.7531  142.6266  156.5159 C   0  0  0  0  0  0  0  0  0  0  0  0
  149.6751  141.0978  156.3651 C   0  0  1  0  0  0  0  0  0  0  0  0
  150.0434  140.6432  154.9415 C   0  0  0  0  0  0  0  0  0  0  0  0
  149.2118  141.0062  153.9623 N   0  0  0  0  0  0  0  0  0  0  0  0
  151.0624  139.9900  154.7230 O   0  0  0  0  0  0  0  0  0  0  0  0
  150.6344  140.6116  157.3602 N   0  0  0  0  0  0  0  0  0  0  0  0
  150.5896  139.3631  157.9021 C   0  0  0  0  0  0  0  0  0  0  0  0
  151.7137  138.8750  158.4915 N   0  0  0  0  0  0  0  0  0  0  0  0
  151.7246  137.6596  159.0436 C   0  0  0  0  0  0  0  0  0  0  0  0
  150.7348  136.7704  159.1185 N   0  0  0  0  0  0  0  0  0  0  0  0
  149.6006  137.2465  158.5310 C   0  0  0  0  0  0  0  0  0  0  0  0
  149.4391  138.5169  157.9042 C   0  0  0  0  0  0  0  0  0  0  0  0
  148.1376  138.6313  157.4255 N   0  0  0  0  0  0  0  0  0  0  0  0
  147.5659  137.5068  157.7564 C   0  0  0  0  0  0  0  0  0  0  0  0
  148.3713  136.6189  158.4298 N   0  0  0  0  0  0  0  0  0  0  0  0
  147.9978  135.3038  158.9242 C   0  0  0  0  0  0  0  0  0  0  0  0
  147.9570  135.1979  160.4654 C   0  0  2  0  0  0  0  0  0  0  0  0
  147.2373  134.0497  160.8720 O   0  0  0  0  0  0  0  0  0  0  0  0
  147.4358  136.4553  161.1994 C   0  0  2  0  0  0  0  0  0  0  0  0
  147.5626  136.4427  162.7211 C   0  0  0  0  0  0  0  0  0  0  0  0
  146.6229  137.5641  163.1197 C   0  0  0  0  0  0  0  0  0  0  0  0
  145.5745  137.5759  162.0013 C   0  0  0  0  0  0  0  0  0  0  0  0
  146.0515  136.6928  160.9910 O   0  0  0  0  0  0  0  0  0  0  0  0
  151.4693  141.6847  157.8830 C   0  0  0  0  0  0  0  0  0  0  0  0
  151.8700  142.8668  156.1347 H   0  0  0  0  0  0  0  0  0  0  0  0
  148.6635  140.7657  156.6050 H   0  0  0  0  0  0  0  0  0  0  0  0
  152.6902  145.2895  158.6966 H   0  0  0  0  0  0  0  0  0  0  0  0
  153.3243  144.4922  157.2603 H   0  0  0  0  0  0  0  0  0  0  0  0
  153.0502  143.5643  158.7457 H   0  0  0  0  0  0  0  0  0  0  0  0
  149.0497  142.9487  157.2853 H   0  0  0  0  0  0  0  0  0  0  0  0
  149.5041  143.1664  155.6012 H   0  0  0  0  0  0  0  0  0  0  0  0
  149.4099  140.7415  153.0085 H   0  0  0  0  0  0  0  0  0  0  0  0
  148.3908  141.5520  154.1802 H   0  0  0  0  0  0  0  0  0  0  0  0
  152.6601  137.3575  159.4902 H   0  0  0  0  0  0  0  0  0  0  0  0
  146.5327  137.2962  157.5224 H   0  0  0  0  0  0  0  0  0  0  0  0
  147.0251  135.0454  158.5042 H   0  0  0  0  0  0  0  0  0  0  0  0
  148.7021  134.5728  158.5252 H   0  0  0  0  0  0  0  0  0  0  0  0
  148.9825  135.0352  160.7987 H   0  0  0  0  0  0  0  0  0  0  0  0
  147.1993  133.4466  160.1459 H   0  0  0  0  0  0  0  0  0  0  0  0
  147.9721  137.3254  160.8158 H   0  0  0  0  0  0  0  0  0  0  0  0
  147.2049  135.5004  163.1372 H   0  0  0  0  0  0  0  0  0  0  0  0
  148.5851  136.6018  163.0643 H   0  0  0  0  0  0  0  0  0  0  0  0
  146.1848  137.4099  164.1061 H   0  0  0  0  0  0  0  0  0  0  0  0
  147.1597  138.5134  163.1346 H   0  0  0  0  0  0  0  0  0  0  0  0
  144.6021  137.2315  162.3537 H   0  0  0  0  0  0  0  0  0  0  0  0
  145.4507  138.5793  161.5920 H   0  0  0  0  0  0  0  0  0  0  0  0
  152.5285  141.4268  157.8630 H   0  0  0  0  0  0  0  0  0  0  0  0
  151.1781  141.8920  158.9140 H   0  0  0  0  0  0  0  0  0  0  0  0
  1  2  1  0  0  0  0
  1 30  1  0  0  0  0
  1 31  1  0  0  0  0
  1 32  1  0  0  0  0
  2  3  1  0  0  0  0
  3 28  1  0  0  0  0
  3 27  1  0  0  0  0
  3  4  1  0  0  0  0
  4  5  1  0  0  0  0
  4 33  1  0  0  0  0
  4 34  1  0  0  0  0
  5 29  1  0  0  0  0
  5  6  1  0  0  0  0
  5  9  1  0  0  0  0
  6  7  1  0  0  0  0
  6  8  2  0  0  0  0
  7 35  1  0  0  0  0
  7 36  1  0  0  0  0
  9 10  1  0  0  0  0
  9 27  1  0  0  0  0
 10 15  1  0  0  0  0
 10 11  2  0  0  0  0
 11 12  1  0  0  0  0
 12 13  2  0  0  0  0
 12 37  1  0  0  0  0
 13 14  1  0  0  0  0
 14 18  1  0  0  0  0
 14 15  2  0  0  0  0
 15 16  1  0  0  0  0
 16 17  2  0  0  0  0
 17 18  1  0  0  0  0
 17 38  1  0  0  0  0
 18 19  1  0  0  0  0
 19 20  1  0  0  0  0
 19 39  1  0  0  0  0
 19 40  1  0  0  0  0
 20 21  1  0  0  0  0
 20 22  1  0  0  0  0
 20 41  1  0  0  0  0
 21 42  1  0  0  0  0
 22 26  1  0  0  0  0
 22 23  1  0  0  0  0
 22 43  1  0  0  0  0
 23 24  1  0  0  0  0
 23 44  1  0  0  0  0
 23 45  1  0  0  0  0
 24 25  1  0  0  0  0
 24 46  1  0  0  0  0
 24 47  1  0  0  0  0
 25 26  1  0  0  0  0
 25 48  1  0  0  0  0
 25 49  1  0  0  0  0
 27 50  1  0  0  0  0
 27 51  1  0  0  0  0
M  END
> <s_m_source_file>
AV-unprocessed.smi

> <i_m_source_file_index>
261

> <i_lp_mmshare_version>
43012

> <i_f3d_flags>
0

> <s_epik_input>
W0NIM11PW0NASF0xW0NIMl1bQ0BASF0oQyg9TylbTkgyXSlOKFtDSDJdMSljKG5bY0hdbjIpYyhjMjMpbltjSF1uM1tDSDJdW0NASF0oW09IXSlbQ0BASF00W0NIMl1bQ0gyXVtDSDJdTzQ=

> <s_epik_cmdline>
J2VwaWtfcHl0aG9uJywgJy1waCcsICc3LjAnLCAnLXRuJywgJzgnLCAnLW1hJywgJzIwMCcsICctbWV0YWxfYmluZGluZycsICctaW1hZScsICc8aW5maWxlLm1hZT4nLCAnLW9tYWUnLCAnPG91dGZpbGUubWFlPic=

> <r_lp_tautomer_probability>
1

> <r_epik_Ionization_Penalty>
0.000713824

> <r_epik_Ionization_Penalty_Charging>
0

> <r_epik_Ionization_Penalty_Neutral>
0.000713824

> <r_epik_State_Penalty>
0.000402132

> <r_epik_Charging_Adjusted_Penalty>
0.000402132

> <i_epik_Tot_Q>
0

> <i_epik_Tot_abs_Q>
0

> <r_epik_Metal_State_Penalty>
-0

> <b_epik_Metal_Only>
0

> <s_lp_Force_Field>
OPLS_2005

> <r_lp_Energy>
44.2831

> <b_lp_Chiralities_Consistent>
1

> <s_lp_Variant>
AV-unprocessed.smi:261-2

> <Gold.Version>
5.8.1

> <Gold.Id.Protein>
6NUR|6NUR_protein|mol2

> <Gold.PLP.Fitness>
46.6519

> <Gold.PLP.PLP>
-38.9083

> <Gold.PLP.part.hbond>
-2.9787

> <Gold.PLP.part.metal>
0.0000

> <Gold.PLP.part.buried>
-2.5692

> <Gold.PLP.part.nonpolar>
-33.8134

> <Gold.PLP.part.repulsive>
0.5317

> <Gold.PLP.ligand.clash>
0.0000

> <Gold.PLP.ligand.torsion>
0.6384

> <Gold.PLP.Chemscore.Hbond>
2.9500

> <Gold.PLP.Chemscore.CHOScore>
0.0000

> <Gold.PLP.Chemscore.Metal>
0.0000

> <Gold.Chemscore.Hbonds>
donor molecule, donor type, donor heavy atom, donor atom, acceptor molecule, acceptor atom, score
      L1  H     7    35       P1  7957  1.00
      P1  H  6896  6907       L1    13  1.00
      P1  H  7989  7998       L1     8  0.90

> <Gold.PLP.Chemscore.Internal.Correction>
0.1705

> <Gold.Rescore>
     Score         DG    S(hbond)    S(metal)    S(lipo)     H(rot)  DE(clash)    DE(int)     intcor
     11.54     -15.26       2.27        0.00      88.48       3.18       2.40       1.32       ----

> <Gold.Chemscore.Fitness>
11.5440

> <Gold.Chemscore.DG>
-15.2631

> <Gold.Chemscore.ZeroCoef>
-5.4800

> <Gold.Chemscore.Hbond>
2.2695

> <Gold.Chemscore.Metal>
0.0000

> <Gold.Chemscore.Lipo>
88.4758

> <Gold.Chemscore.Internal_Hbond>
0.0000

> <Gold.Chemscore.DEClash>
2.3997

> <Gold.Chemscore.DEInternal>
1.3193

> <Gold.Chemscore.Rot>
3.1831

> <Gold.Chemscore.Internal.Correction>
   9.000000E+99

> <Gold.Chemscore.Hbonds>
donor molecule, donor type, donor heavy atom, donor atom, acceptor molecule, acceptor atom, score
      L1  H     7    35       P1  7957  0.97
      P1  H  6896  6907       L1    13  0.96
      P1  H  7989  7998       L1     8  0.18

> <Gold.Chemscore.Hbond.Weighted>
-7.5801

> <Gold.Chemscore.Metal.Weighted>
-0.0000

> <Gold.Chemscore.Lipo.Weighted>
-10.3517

> <Gold.Chemscore.Internal_Hbond.Weighted>
0.0000

> <Gold.Chemscore.DEClash.Weighted>
2.3997

> <Gold.Chemscore.DEInternal.Weighted>
1.3193

> <Gold.Chemscore.Rot.Weighted>
8.1486

> <Gold.Chemscore.Internal.Correction.Weighted>
   9.000000E+99

> <Gold.Protein.RotatedTorsions>
[ 6907 6896 6895 6894 ] final  -31.22 input  -60.11 | X-H torsion
[ 7974 7965 7964 7962 ] final  116.71 input  175.53 | X-H torsion
[ 8008 7997 7996 7995 ] final -110.45 input   59.86 | X-H torsion
[ 10167 10162 10161 10158 ] final  -99.39 input  -65.29 | X-H torsion
[ 10718 10713 10712 10709 ] final   39.41 input   66.30 | X-H torsion
[ 10763 10752 10751 10750 ] final  -51.66 input  -60.55 | X-H torsion
[ 11005 11000 10999 10996 ] final   35.39 input  -57.11 | X-H torsion

> <Gold.Protein.ActiveResidues>
 VAL166  LYS551  ARG553  GLY616  TRP617  ASP618  TYR619  PRO620  LYS621  CYS622 
 ASP623  PHE694  ASN695  SER759  ASP760  ASP761  ALA762  ILE779  LEU786  VAL792 
 PHE793  MET794  SER795  GLU796  ALA797  LYS798  CYS799  TRP800  GLU811  SER814 

> <Gold.Protein.RotatedAtoms>
  151.0950  134.9939  159.8421 H   0  0  0  0  0  0  0  0  0  0  0  0  # atno 6907 bound_to 6896
  152.5432  134.2019  159.8725 H   0  0  0  0  0  0  0  0  0  0  0  0  # atno 6908 bound_to 6896
  151.2057  133.4540  159.2630 H   0  0  0  0  0  0  0  0  0  0  0  0  # atno 6909 bound_to 6896
  145.1763  139.3074  143.4441 H   0  0  0  0  0  0  0  0  0  0  0  0  # atno 7974 bound_to 7965
  154.9747  140.0397  157.2250 H   0  0  0  0  0  0  0  0  0  0  0  0  # atno 8008 bound_to 7997
  154.7769  140.2812  155.6072 H   0  0  0  0  0  0  0  0  0  0  0  0  # atno 8009 bound_to 7997
  156.2930  140.2599  156.2585 H   0  0  0  0  0  0  0  0  0  0  0  0  # atno 8010 bound_to 7997
  140.2629  143.3395  152.0608 H   0  0  0  0  0  0  0  0  0  0  0  0  # atno 10167 bound_to 10162
  157.3702  130.7697  149.7113 H   0  0  0  0  0  0  0  0  0  0  0  0  # atno 10718 bound_to 10713
  154.1302  135.6521  153.4920 H   0  0  0  0  0  0  0  0  0  0  0  0  # atno 10763 bound_to 10752
  153.0197  135.5291  154.7009 H   0  0  0  0  0  0  0  0  0  0  0  0  # atno 10764 bound_to 10752
  154.6241  135.2968  155.0263 H   0  0  0  0  0  0  0  0  0  0  0  0  # atno 10765 bound_to 10752
  140.2431  134.3391  155.7918 H   0  0  0  0  0  0  0  0  0  0  0  0  # atno 11005 bound_to 11000
  146.3460  140.1926  142.8589 LP  0  0  0  0  0  0  0  0  0  0  0  0  # atno 17320 bound_to 7965
  145.0182  140.8771  143.5183 LP  0  0  0  0  0  0  0  0  0  0  0  0  # atno 17321 bound_to 7965
  139.5011  144.6707  151.6250 LP  0  0  0  0  0  0  0  0  0  0  0  0  # atno 17342 bound_to 10162
  140.5951  143.9710  150.6349 LP  0  0  0  0  0  0  0  0  0  0  0  0  # atno 17343 bound_to 10162
  155.9754  130.4089  150.3853 LP  0  0  0  0  0  0  0  0  0  0  0  0  # atno 17370 bound_to 10713
  157.1942  131.0422  151.2684 LP  0  0  0  0  0  0  0  0  0  0  0  0  # atno 17371 bound_to 10713
  141.2208  133.7310  156.8918 LP  0  0  0  0  0  0  0  0  0  0  0  0  # atno 17394 bound_to 11000
  140.1633  134.9151  157.2742 LP  0  0  0  0  0  0  0  0  0  0  0  0  # atno 17395 bound_to 11000

$$$$
