AV-unprocessed.smi:3277|AV-procd|sdf|12539|dock1
  -GOLD-   2272018453D 1   1.00000     0.00000
 Structure written by MMmdl.
 35 37  0  0  0  0  0  0  0  0  1 V2000
  148.6744  136.7699  155.4692 C   0  0  0  0  0  0  0  0  0  0  0  0
  149.6520  137.8225  155.2393 N   0  0  0  0  0  0  0  0  0  0  0  0
  150.9796  137.6510  155.3226 C   0  0  0  0  0  0  0  0  0  0  0  0
  151.5054  136.5774  155.6163 O   0  0  0  0  0  0  0  0  0  0  0  0
  151.8483  138.8754  155.0289 C   0  0  0  0  0  0  0  0  0  0  0  0
  151.3660  139.9981  155.8899 C   0  0  0  0  0  0  0  0  0  0  0  0
  151.7967  140.2090  157.1363 N   0  0  0  0  0  0  0  0  0  0  0  0
  151.2056  141.3264  157.7368 C   0  0  0  0  0  0  0  0  0  0  0  0
  151.5691  141.7344  159.1404 C   0  0  1  0  0  0  0  0  0  0  0  0
  152.6761  140.8856  159.8019 C   0  0  0  0  0  0  0  0  0  0  0  0
  153.6336  141.9587  160.3563 C   0  0  2  0  0  0  0  0  0  0  0  0
  152.9470  142.7405  161.4942 C   0  0  0  0  0  0  0  0  0  0  0  0
  151.9315  143.6245  160.7412 C   0  0  0  0  0  0  0  0  0  0  0  0
  152.1162  143.1750  159.2788 C   0  0  1  0  0  0  0  0  0  0  0  0
  153.6311  142.9831  159.2289 C   0  0  0  0  0  0  0  0  0  0  0  0
  150.3009  141.9561  156.9179 C   0  0  0  0  0  0  0  0  0  0  0  0
  150.1631  141.1724  155.3681 S   0  0  0  0  0  0  0  0  0  0  0  0
  147.6662  137.1672  155.3527 H   0  0  0  0  0  0  0  0  0  0  0  0
  148.7677  136.3654  156.4780 H   0  0  0  0  0  0  0  0  0  0  0  0
  148.8046  135.9565  154.7542 H   0  0  0  0  0  0  0  0  0  0  0  0
  149.2990  138.7360  154.9929 H   0  0  0  0  0  0  0  0  0  0  0  0
  152.8984  138.6719  155.2424 H   0  0  0  0  0  0  0  0  0  0  0  0
  151.7701  139.1518  153.9763 H   0  0  0  0  0  0  0  0  0  0  0  0
  150.6665  141.6501  159.7481 H   0  0  0  0  0  0  0  0  0  0  0  0
  152.2886  140.2214  160.5754 H   0  0  0  0  0  0  0  0  0  0  0  0
  153.1983  140.2689  159.0688 H   0  0  0  0  0  0  0  0  0  0  0  0
  154.6169  141.5699  160.6222 H   0  0  0  0  0  0  0  0  0  0  0  0
  152.4664  142.0773  162.2144 H   0  0  0  0  0  0  0  0  0  0  0  0
  153.6657  143.3580  162.0344 H   0  0  0  0  0  0  0  0  0  0  0  0
  150.9107  143.4901  161.1008 H   0  0  0  0  0  0  0  0  0  0  0  0
  152.1851  144.6794  160.8538 H   0  0  0  0  0  0  0  0  0  0  0  0
  151.7044  143.8826  158.5580 H   0  0  0  0  0  0  0  0  0  0  0  0
  154.1905  143.8895  159.4668 H   0  0  0  0  0  0  0  0  0  0  0  0
  153.9954  142.5838  158.2819 H   0  0  0  0  0  0  0  0  0  0  0  0
  149.7077  142.8324  157.1331 H   0  0  0  0  0  0  0  0  0  0  0  0
  1  2  1  0  0  0  0
  1 18  1  0  0  0  0
  1 19  1  0  0  0  0
  1 20  1  0  0  0  0
  2  3  1  0  0  0  0
  2 21  1  0  0  0  0
  3  4  2  0  0  0  0
  3  5  1  0  0  0  0
  5  6  1  0  0  0  0
  5 22  1  0  0  0  0
  5 23  1  0  0  0  0
  6 17  1  0  0  0  0
  6  7  2  0  0  0  0
  7  8  1  0  0  0  0
  8  9  1  0  0  0  0
  8 16  2  0  0  0  0
  9 14  1  0  0  0  0
  9 10  1  0  0  0  0
  9 24  1  0  0  0  0
 10 11  1  0  0  0  0
 10 25  1  0  0  0  0
 10 26  1  0  0  0  0
 11 15  1  0  0  0  0
 11 12  1  0  0  0  0
 11 27  1  0  0  0  0
 12 13  1  0  0  0  0
 12 28  1  0  0  0  0
 12 29  1  0  0  0  0
 13 14  1  0  0  0  0
 13 30  1  0  0  0  0
 13 31  1  0  0  0  0
 14 15  1  0  0  0  0
 14 32  1  0  0  0  0
 15 33  1  0  0  0  0
 15 34  1  0  0  0  0
 16 17  1  0  0  0  0
 16 35  1  0  0  0  0
M  END
> <s_m_source_file>
AV-unprocessed.smi

> <i_m_source_file_index>
3277

> <i_lp_mmshare_version>
43012

> <i_f3d_flags>
0

> <s_epik_input>
W0NIM11bTkhdQyg9TylbQ0gyXWMxbmMoW2NIXXMxKVtDQEhdKFtDSDJdW0NAQEhdMjMpW0NAQEhdKFtDSDJdMylbQ0gyXVtDSDJdMg==

> <s_epik_cmdline>
J2VwaWtfcHl0aG9uJywgJy1waCcsICc3LjAnLCAnLXRuJywgJzgnLCAnLW1hJywgJzIwMCcsICctbWV0YWxfYmluZGluZycsICctaW1hZScsICc8aW5maWxlLm1hZT4nLCAnLW9tYWUnLCAnPG91dGZpbGUubWFlPic=

> <r_lp_tautomer_probability>
1

> <r_epik_Ionization_Penalty>
8.50008e-05

> <r_epik_Ionization_Penalty_Charging>
0

> <r_epik_Ionization_Penalty_Neutral>
8.50008e-05

> <r_epik_State_Penalty>
-0

> <r_epik_Charging_Adjusted_Penalty>
0

> <i_epik_Tot_Q>
0

> <i_epik_Tot_abs_Q>
0

> <r_epik_Metal_State_Penalty>
-0

> <b_epik_Metal_Only>
0

> <s_lp_Force_Field>
OPLS_2005

> <r_lp_Energy>
44.5578

> <b_lp_Chiralities_Consistent>
1

> <s_lp_Variant>
AV-unprocessed.smi:3277-4

> <Gold.Version>
5.8.1

> <Gold.Id.Protein>
6NUR|6NUR_protein|mol2

> <Gold.PLP.Fitness>
43.8735

> <Gold.PLP.PLP>
-38.7484

> <Gold.PLP.part.hbond>
-1.0000

> <Gold.PLP.part.metal>
0.0000

> <Gold.PLP.part.buried>
-3.6827

> <Gold.PLP.part.nonpolar>
-33.4158

> <Gold.PLP.part.repulsive>
0.0814

> <Gold.PLP.ligand.clash>
0.0000

> <Gold.PLP.ligand.torsion>
0.4369

> <Gold.PLP.Chemscore.Hbond>
1.0000

> <Gold.PLP.Chemscore.CHOScore>
0.9992

> <Gold.PLP.Chemscore.Metal>
0.0000

> <Gold.Chemscore.Hbonds>
donor molecule, donor type, donor heavy atom, donor atom, acceptor molecule, acceptor atom, score
      P1  H 10752 10763       L1     4  1.00
      L1  C    16    35       P1  8028  1.00

> <Gold.PLP.Chemscore.Internal.Correction>
0.0013

> <Gold.Rescore>
     Score         DG    S(hbond)    S(metal)    S(lipo)     H(rot)  DE(clash)    DE(int)     intcor
     17.79     -18.37       0.98        0.00     112.95       1.41       0.13       0.44       ----

> <Gold.Chemscore.Fitness>
17.7902

> <Gold.Chemscore.DG>
-18.3669

> <Gold.Chemscore.ZeroCoef>
-5.4800

> <Gold.Chemscore.Hbond>
0.9840

> <Gold.Chemscore.Metal>
0.0000

> <Gold.Chemscore.Lipo>
112.9517

> <Gold.Chemscore.Internal_Hbond>
0.0000

> <Gold.Chemscore.DEClash>
0.1349

> <Gold.Chemscore.DEInternal>
0.4418

> <Gold.Chemscore.Rot>
1.4122

> <Gold.Chemscore.Internal.Correction>
   9.000000E+99

> <Gold.Chemscore.Hbonds>
donor molecule, donor type, donor heavy atom, donor atom, acceptor molecule, acceptor atom, score
      P1  H 10752 10763       L1     4  0.95

> <Gold.Chemscore.Hbond.Weighted>
-3.2866

> <Gold.Chemscore.Metal.Weighted>
-0.0000

> <Gold.Chemscore.Lipo.Weighted>
-13.2153

> <Gold.Chemscore.Internal_Hbond.Weighted>
0.0000

> <Gold.Chemscore.DEClash.Weighted>
0.1349

> <Gold.Chemscore.DEInternal.Weighted>
0.4418

> <Gold.Chemscore.Rot.Weighted>
3.6151

> <Gold.Chemscore.Internal.Correction.Weighted>
   9.000000E+99

> <Gold.Protein.RotatedTorsions>
[ 6907 6896 6895 6894 ] final  132.02 input  -60.11 | X-H torsion
[ 7974 7965 7964 7962 ] final  113.38 input  175.53 | X-H torsion
[ 8008 7997 7996 7995 ] final  166.70 input   59.86 | X-H torsion
[ 10167 10162 10161 10158 ] final  109.12 input  -65.29 | X-H torsion
[ 10718 10713 10712 10709 ] final  131.15 input   66.30 | X-H torsion
[ 10763 10752 10751 10750 ] final   59.90 input  -60.55 | X-H torsion
[ 11005 11000 10999 10996 ] final  111.73 input  -57.11 | X-H torsion

> <Gold.Protein.ActiveResidues>
 VAL166  LYS551  ARG553  GLY616  TRP617  ASP618  TYR619  PRO620  LYS621  CYS622 
 ASP623  PHE694  ASN695  SER759  ASP760  ASP761  ALA762  ILE779  LEU786  VAL792 
 PHE793  MET794  SER795  GLU796  ALA797  LYS798  CYS799  TRP800  GLU811  SER814 

> <Gold.Protein.RotatedAtoms>
  152.3367  133.6019  159.5846 H   0  0  0  0  0  0  0  0  0  0  0  0  # atno 6907 bound_to 6896
  150.7454  133.9786  159.3577 H   0  0  0  0  0  0  0  0  0  0  0  0  # atno 6908 bound_to 6896
  151.7654  135.0800  160.0403 H   0  0  0  0  0  0  0  0  0  0  0  0  # atno 6909 bound_to 6896
  145.2177  139.2877  143.4235 H   0  0  0  0  0  0  0  0  0  0  0  0  # atno 7974 bound_to 7965
  156.1697  140.1636  156.8470 H   0  0  0  0  0  0  0  0  0  0  0  0  # atno 8008 bound_to 7997
  154.5243  140.0771  156.8265 H   0  0  0  0  0  0  0  0  0  0  0  0  # atno 8009 bound_to 7997
  155.3539  140.3391  155.4242 H   0  0  0  0  0  0  0  0  0  0  0  0  # atno 8010 bound_to 7997
  139.6791  144.7120  151.1547 H   0  0  0  0  0  0  0  0  0  0  0  0  # atno 10167 bound_to 10162
  157.4995  131.1093  150.9447 H   0  0  0  0  0  0  0  0  0  0  0  0  # atno 10718 bound_to 10713
  152.9906  135.5555  154.5787 H   0  0  0  0  0  0  0  0  0  0  0  0  # atno 10763 bound_to 10752
  154.5173  135.2805  155.1294 H   0  0  0  0  0  0  0  0  0  0  0  0  # atno 10764 bound_to 10752
  154.2662  135.6371  153.5346 H   0  0  0  0  0  0  0  0  0  0  0  0  # atno 10765 bound_to 10752
  139.8910  134.9514  156.6476 H   0  0  0  0  0  0  0  0  0  0  0  0  # atno 11005 bound_to 11000
  146.3383  140.2472  142.8597 LP  0  0  0  0  0  0  0  0  0  0  0  0  # atno 17320 bound_to 7965
  144.9796  140.8446  143.5406 LP  0  0  0  0  0  0  0  0  0  0  0  0  # atno 17321 bound_to 7965
  140.7646  143.5726  150.8979 LP  0  0  0  0  0  0  0  0  0  0  0  0  # atno 17342 bound_to 10162
  139.9397  143.6397  152.3057 LP  0  0  0  0  0  0  0  0  0  0  0  0  # atno 17343 bound_to 10162
  157.0123  130.5641  149.5322 LP  0  0  0  0  0  0  0  0  0  0  0  0  # atno 17370 bound_to 10713
  156.0220  130.5315  150.8303 LP  0  0  0  0  0  0  0  0  0  0  0  0  # atno 17371 bound_to 10713
  140.7545  133.8869  155.8372 LP  0  0  0  0  0  0  0  0  0  0  0  0  # atno 17394 bound_to 11000
  140.9973  134.1198  157.4351 LP  0  0  0  0  0  0  0  0  0  0  0  0  # atno 17395 bound_to 11000

$$$$
