AV-unprocessed.smi:2061|AV-procd|sdf|8377|dock4
  -GOLD-   2272011 53D 1   1.00000     0.00000
 Structure written by MMmdl.
 44 45  0  0  0  0  0  0  0  0  2 V2000
  149.4909  131.3514  154.2234 C   0  0  0  0  0  0  0  0  0  0  0  0
  149.8121  132.7399  154.6599 C   0  0  0  0  0  0  0  0  0  0  0  0
  149.3555  133.9653  154.2651 C   0  0  0  0  0  0  0  0  0  0  0  0
  150.0801  134.8647  155.0944 C   0  0  0  0  0  0  0  0  0  0  0  0
  149.9952  136.2036  155.0709 N   0  5  0  0  0  0  0  0  0  0  0  0
  151.0323  136.9618  155.4952 C   0  0  0  0  0  0  0  0  0  0  0  0
  152.1930  136.5822  155.6656 O   0  0  0  0  0  0  0  0  0  0  0  0
  150.6961  138.2357  155.7469 N   0  0  0  0  0  0  0  0  0  0  0  0
  151.5816  139.2945  156.2284 C   0  0  0  0  0  0  0  0  0  0  0  0
  150.8177  140.5934  156.6139 C   0  0  1  0  0  0  0  0  0  0  0  0
  149.4510  140.2086  157.2368 C   0  0  0  0  0  0  0  0  0  0  0  0
  151.6061  141.5033  157.4801 N   0  0  0  0  0  0  0  0  0  0  0  0
  152.2691  140.7976  158.5806 C   0  0  0  0  0  0  0  0  0  0  0  0
  153.1036  141.7303  159.4770 C   0  0  2  0  0  0  0  0  0  0  0  0
  153.7147  140.9858  160.6689 C   0  0  0  0  0  0  0  0  0  0  0  0
  152.2755  142.7697  159.9864 O   0  0  0  0  0  0  0  0  0  0  0  0
  151.5836  143.5203  158.9916 C   0  0  1  0  0  0  0  0  0  0  0  0
  152.5224  144.4779  158.2374 C   0  0  0  0  0  0  0  0  0  0  0  0
  150.7939  142.5797  158.0595 C   0  0  0  0  0  0  0  0  0  0  0  0
  150.9132  134.2407  155.9100 N   0  0  0  0  0  0  0  0  0  0  0  0
  150.7439  132.8772  155.6410 O   0  0  0  0  0  0  0  0  0  0  0  0
  149.8966  131.1571  153.2306 H   0  0  0  0  0  0  0  0  0  0  0  0
  148.4125  131.1987  154.1845 H   0  0  0  0  0  0  0  0  0  0  0  0
  149.9106  130.6164  154.9107 H   0  0  0  0  0  0  0  0  0  0  0  0
  148.6195  134.1849  153.5065 H   0  0  0  0  0  0  0  0  0  0  0  0
  149.7323  138.4918  155.5907 H   0  0  0  0  0  0  0  0  0  0  0  0
  152.1985  138.9598  157.0640 H   0  0  0  0  0  0  0  0  0  0  0  0
  152.2624  139.4676  155.3978 H   0  0  0  0  0  0  0  0  0  0  0  0
  150.6029  141.1209  155.6832 H   0  0  0  0  0  0  0  0  0  0  0  0
  148.8892  139.5170  156.6107 H   0  0  0  0  0  0  0  0  0  0  0  0
  148.7920  141.0659  157.3610 H   0  0  0  0  0  0  0  0  0  0  0  0
  149.5814  139.7356  158.2105 H   0  0  0  0  0  0  0  0  0  0  0  0
  151.5248  140.2760  159.1846 H   0  0  0  0  0  0  0  0  0  0  0  0
  152.9507  140.0415  158.1961 H   0  0  0  0  0  0  0  0  0  0  0  0
  153.9161  142.1646  158.8939 H   0  0  0  0  0  0  0  0  0  0  0  0
  154.3766  140.1862  160.3349 H   0  0  0  0  0  0  0  0  0  0  0  0
  152.9411  140.5405  161.2950 H   0  0  0  0  0  0  0  0  0  0  0  0
  154.2998  141.6622  161.2927 H   0  0  0  0  0  0  0  0  0  0  0  0
  150.8633  144.1406  159.5258 H   0  0  0  0  0  0  0  0  0  0  0  0
  151.9566  145.1274  157.5692 H   0  0  0  0  0  0  0  0  0  0  0  0
  153.2514  143.9436  157.6286 H   0  0  0  0  0  0  0  0  0  0  0  0
  153.0688  145.1152  158.9330 H   0  0  0  0  0  0  0  0  0  0  0  0
  150.3553  143.2003  157.2809 H   0  0  0  0  0  0  0  0  0  0  0  0
  149.9637  142.1442  158.6177 H   0  0  0  0  0  0  0  0  0  0  0  0
  1  2  1  0  0  0  0
  1 22  1  0  0  0  0
  1 23  1  0  0  0  0
  1 24  1  0  0  0  0
  2 21  1  0  0  0  0
  2  3  2  0  0  0  0
  3  4  1  0  0  0  0
  3 25  1  0  0  0  0
  4  5  1  0  0  0  0
  4 20  2  0  0  0  0
  5  6  1  0  0  0  0
  6  7  2  0  0  0  0
  6  8  1  0  0  0  0
  8  9  1  0  0  0  0
  8 26  1  0  0  0  0
  9 10  1  0  0  0  0
  9 27  1  0  0  0  0
  9 28  1  0  0  0  0
 10 11  1  0  0  0  0
 10 12  1  0  0  0  0
 10 29  1  0  0  0  0
 11 30  1  0  0  0  0
 11 31  1  0  0  0  0
 11 32  1  0  0  0  0
 12 19  1  0  0  0  0
 12 13  1  0  0  0  0
 13 14  1  0  0  0  0
 13 33  1  0  0  0  0
 13 34  1  0  0  0  0
 14 15  1  0  0  0  0
 14 16  1  0  0  0  0
 14 35  1  0  0  0  0
 15 36  1  0  0  0  0
 15 37  1  0  0  0  0
 15 38  1  0  0  0  0
 16 17  1  0  0  0  0
 17 18  1  0  0  0  0
 17 19  1  0  0  0  0
 17 39  1  0  0  0  0
 18 40  1  0  0  0  0
 18 41  1  0  0  0  0
 18 42  1  0  0  0  0
 19 43  1  0  0  0  0
 19 44  1  0  0  0  0
 20 21  1  0  0  0  0
M  CHG  1   5  -1
M  END
> <s_m_source_file>
AV-unprocessed.smi

> <i_m_source_file_index>
2061

> <i_lp_mmshare_version>
43012

> <i_f3d_flags>
0

> <s_epik_input>
W0NIM11jMVtjSF1jKG5vMSlbTkhdQyg9TylbTkhdW0NIMl1bQ0BIXShbQ0gzXSlOMltDSDJdW0NAQEhdKFtDSDNdKU9bQ0BASF0oW0NIM10pW0NIMl0y

> <s_epik_cmdline>
J2VwaWtfcHl0aG9uJywgJy1waCcsICc3LjAnLCAnLXRuJywgJzgnLCAnLW1hJywgJzIwMCcsICctbWV0YWxfYmluZGluZycsICctaW1hZScsICc8aW5maWxlLm1hZT4nLCAnLW9tYWUnLCAnPG91dGZpbGUubWFlPic=

> <r_epik_Ionization_Penalty>
6.88367

> <r_epik_Ionization_Penalty_Charging>
6.57198

> <r_epik_Ionization_Penalty_Neutral>
0.311681

> <r_epik_State_Penalty>
6.77619

> <r_epik_Charging_Adjusted_Penalty>
13.3482

> <i_epik_Tot_Q>
-1

> <i_epik_Tot_abs_Q>
1

> <r_epik_Metal_State_Penalty>
2.70524

> <b_epik_Metal_Only>
1

> <s_lp_Force_Field>
OPLS_2005

> <r_lp_Energy>
24.2039

> <b_lp_Chiralities_Consistent>
1

> <s_lp_Variant>
AV-unprocessed.smi:2061-18

> <Gold.Version>
5.8.1

> <Gold.Id.Protein>
6NUR|6NUR_protein|mol2

> <Gold.PLP.Fitness>
38.8376

> <Gold.PLP.PLP>
-37.0829

> <Gold.PLP.part.hbond>
-0.9110

> <Gold.PLP.part.metal>
0.0000

> <Gold.PLP.part.buried>
-5.8975

> <Gold.PLP.part.nonpolar>
-31.6131

> <Gold.PLP.part.repulsive>
0.2602

> <Gold.PLP.ligand.clash>
0.0000

> <Gold.PLP.ligand.torsion>
0.6579

> <Gold.PLP.Chemscore.Hbond>
1.0000

> <Gold.PLP.Chemscore.CHOScore>
0.0000

> <Gold.PLP.Chemscore.Metal>
0.0000

> <Gold.Chemscore.Hbonds>
donor molecule, donor type, donor heavy atom, donor atom, acceptor molecule, acceptor atom, score
      P1  H 10752 10764       L1     7  1.00

> <Gold.PLP.Chemscore.Internal.Correction>
0.0704

> <Gold.Rescore>
     Score         DG    S(hbond)    S(metal)    S(lipo)     H(rot)  DE(clash)    DE(int)     intcor
     14.12     -16.25       0.98        0.00      97.29       1.52       0.13       2.00       ----

> <Gold.Chemscore.Fitness>
14.1214

> <Gold.Chemscore.DG>
-16.2498

> <Gold.Chemscore.ZeroCoef>
-5.4800

> <Gold.Chemscore.Hbond>
0.9807

> <Gold.Chemscore.Metal>
0.0000

> <Gold.Chemscore.Lipo>
97.2900

> <Gold.Chemscore.Internal_Hbond>
0.0000

> <Gold.Chemscore.DEClash>
0.1257

> <Gold.Chemscore.DEInternal>
2.0027

> <Gold.Chemscore.Rot>
1.5190

> <Gold.Chemscore.Internal.Correction>
   9.000000E+99

> <Gold.Chemscore.Hbonds>
donor molecule, donor type, donor heavy atom, donor atom, acceptor molecule, acceptor atom, score
      P1  H 10752 10764       L1     7  0.94

> <Gold.Chemscore.Hbond.Weighted>
-3.2755

> <Gold.Chemscore.Metal.Weighted>
-0.0000

> <Gold.Chemscore.Lipo.Weighted>
-11.3829

> <Gold.Chemscore.Internal_Hbond.Weighted>
0.0000

> <Gold.Chemscore.DEClash.Weighted>
0.1257

> <Gold.Chemscore.DEInternal.Weighted>
2.0027

> <Gold.Chemscore.Rot.Weighted>
3.8886

> <Gold.Chemscore.Internal.Correction.Weighted>
   9.000000E+99

> <Gold.Protein.RotatedTorsions>
[ 6907 6896 6895 6894 ] final   46.92 input  -60.11 | X-H torsion
[ 7974 7965 7964 7962 ] final  -43.70 input  175.53 | X-H torsion
[ 8008 7997 7996 7995 ] final  -65.31 input   59.86 | X-H torsion
[ 10167 10162 10161 10158 ] final -132.95 input  -65.29 | X-H torsion
[ 10718 10713 10712 10709 ] final -179.75 input   66.30 | X-H torsion
[ 10763 10752 10751 10750 ] final  -43.70 input  -60.55 | X-H torsion
[ 11005 11000 10999 10996 ] final   57.67 input  -57.11 | X-H torsion

> <Gold.Protein.ActiveResidues>
 VAL166  LYS551  ARG553  GLY616  TRP617  ASP618  TYR619  PRO620  LYS621  CYS622 
 ASP623  PHE694  ASN695  SER759  ASP760  ASP761  ALA762  ILE779  LEU786  VAL792 
 PHE793  MET794  SER795  GLU796  ALA797  LYS798  CYS799  TRP800  GLU811  SER814 

> <Gold.Protein.RotatedAtoms>
  152.2620  134.8024  160.0428 H   0  0  0  0  0  0  0  0  0  0  0  0  # atno 6907 bound_to 6896
  151.8667  133.3462  159.3729 H   0  0  0  0  0  0  0  0  0  0  0  0  # atno 6908 bound_to 6896
  150.7120  134.5080  159.5638 H   0  0  0  0  0  0  0  0  0  0  0  0  # atno 6909 bound_to 6896
  145.9994  140.7092  142.9278 H   0  0  0  0  0  0  0  0  0  0  0  0  # atno 7974 bound_to 7965
  154.4664  140.0935  156.7031 H   0  0  0  0  0  0  0  0  0  0  0  0  # atno 8008 bound_to 7997
  155.4846  140.3469  155.4327 H   0  0  0  0  0  0  0  0  0  0  0  0  # atno 8009 bound_to 7997
  156.0964  140.1410  156.9514 H   0  0  0  0  0  0  0  0  0  0  0  0  # atno 8010 bound_to 7997
  139.9033  143.6581  152.2590 H   0  0  0  0  0  0  0  0  0  0  0  0  # atno 10167 bound_to 10162
  156.8637  130.9760  151.3081 H   0  0  0  0  0  0  0  0  0  0  0  0  # atno 10718 bound_to 10713
  154.0000  135.6695  153.4758 H   0  0  0  0  0  0  0  0  0  0  0  0  # atno 10763 bound_to 10752
  153.0667  135.4997  154.8211 H   0  0  0  0  0  0  0  0  0  0  0  0  # atno 10764 bound_to 10752
  154.7059  135.3087  154.9235 H   0  0  0  0  0  0  0  0  0  0  0  0  # atno 10765 bound_to 10752
  140.0435  134.5839  155.9352 H   0  0  0  0  0  0  0  0  0  0  0  0  # atno 11005 bound_to 11000
  144.6914  140.3206  143.7233 LP  0  0  0  0  0  0  0  0  0  0  0  0  # atno 17320 bound_to 7965
  145.7511  139.1794  143.2321 LP  0  0  0  0  0  0  0  0  0  0  0  0  # atno 17321 bound_to 7965
  139.7006  144.7635  151.1280 LP  0  0  0  0  0  0  0  0  0  0  0  0  # atno 17342 bound_to 10162
  140.7702  143.5463  150.9255 LP  0  0  0  0  0  0  0  0  0  0  0  0  # atno 17343 bound_to 10162
  157.6235  130.8674  149.9150 LP  0  0  0  0  0  0  0  0  0  0  0  0  # atno 17370 bound_to 10713
  156.0763  130.3678  150.0671 LP  0  0  0  0  0  0  0  0  0  0  0  0  # atno 17371 bound_to 10713
  141.1895  133.6565  156.5370 LP  0  0  0  0  0  0  0  0  0  0  0  0  # atno 17394 bound_to 11000
  140.4031  134.7339  157.4792 LP  0  0  0  0  0  0  0  0  0  0  0  0  # atno 17395 bound_to 11000

$$$$
