AV-unprocessed.smi:2309|AV-procd|sdf|9254|dock8
  -GOLD-   2272012473D 1   1.00000     0.00000
 Structure written by MMmdl.
 34 35  0  0  0  0  0  0  0  0  1 V2000
  151.6151  138.0154  153.9713 C   0  0  0  0  0  0  0  0  0  0  0  0
  151.3376  138.9771  155.1131 C   0  0  0  0  0  0  0  0  0  0  0  0
  150.8506  140.2333  154.7406 N   0  0  0  0  0  0  0  0  0  0  0  0
  150.5892  141.1182  155.6463 C   0  0  0  0  0  0  0  0  0  0  0  0
  150.7791  140.8543  157.0129 N   0  0  0  0  0  0  0  0  0  0  0  0
  150.4498  141.9501  157.9407 C   0  0  0  0  0  0  0  0  0  0  0  0
  151.6183  142.9467  158.1122 C   0  0  1  0  0  0  0  0  0  0  0  0
  151.0932  144.2608  158.0891 O   0  0  0  0  0  0  0  0  0  0  0  0
  152.3819  142.6676  159.4056 C   0  0  0  0  0  0  0  0  0  0  0  0
  153.2012  141.5182  159.4984 C   0  0  0  0  0  0  0  0  0  0  0  0
  153.9220  141.2420  160.6755 C   0  0  0  0  0  0  0  0  0  0  0  0
  154.9128  139.8330  160.7694 Cl  0  0  0  0  0  0  0  0  0  0  0  0
  153.8357  142.1166  161.7735 C   0  0  0  0  0  0  0  0  0  0  0  0
  153.0330  143.2686  161.6892 C   0  0  0  0  0  0  0  0  0  0  0  0
  152.3099  143.5513  160.5130 C   0  0  0  0  0  0  0  0  0  0  0  0
  151.3585  144.9944  160.4664 Cl  0  0  0  0  0  0  0  0  0  0  0  0
  151.2514  139.6555  157.4621 C   0  0  0  0  0  0  0  0  0  0  0  0
  151.4194  139.4350  158.6627 O   0  0  0  0  0  0  0  0  0  0  0  0
  151.5447  138.6584  156.4199 C   0  0  0  0  0  0  0  0  0  0  0  0
  152.0760  137.3085  156.8853 C   0  0  0  0  0  0  0  0  0  0  0  0
  151.0077  137.1158  154.0732 H   0  0  0  0  0  0  0  0  0  0  0  0
  152.6668  137.7279  153.9613 H   0  0  0  0  0  0  0  0  0  0  0  0
  151.3829  138.4670  153.0059 H   0  0  0  0  0  0  0  0  0  0  0  0
  150.2136  142.1147  155.4079 H   0  0  0  0  0  0  0  0  0  0  0  0
  149.5372  142.4769  157.6537 H   0  0  0  0  0  0  0  0  0  0  0  0
  150.2099  141.5100  158.9107 H   0  0  0  0  0  0  0  0  0  0  0  0
  152.3010  142.8791  157.2664 H   0  0  0  0  0  0  0  0  0  0  0  0
  150.4386  144.3099  157.4091 H   0  0  0  0  0  0  0  0  0  0  0  0
  153.2847  140.8407  158.6612 H   0  0  0  0  0  0  0  0  0  0  0  0
  154.3876  141.9086  162.6785 H   0  0  0  0  0  0  0  0  0  0  0  0
  152.9755  143.9416  162.5321 H   0  0  0  0  0  0  0  0  0  0  0  0
  153.0156  137.4401  157.4228 H   0  0  0  0  0  0  0  0  0  0  0  0
  152.2609  136.6140  156.0675 H   0  0  0  0  0  0  0  0  0  0  0  0
  151.3625  136.8357  157.5609 H   0  0  0  0  0  0  0  0  0  0  0  0
  1  2  1  0  0  0  0
  1 21  1  0  0  0  0
  1 22  1  0  0  0  0
  1 23  1  0  0  0  0
  2 19  2  0  0  0  0
  2  3  1  0  0  0  0
  3  4  2  0  0  0  0
  4  5  1  0  0  0  0
  4 24  1  0  0  0  0
  5  6  1  0  0  0  0
  5 17  1  0  0  0  0
  6  7  1  0  0  0  0
  6 25  1  0  0  0  0
  6 26  1  0  0  0  0
  7  8  1  0  0  0  0
  7  9  1  0  0  0  0
  7 27  1  0  0  0  0
  8 28  1  0  0  0  0
  9 15  1  0  0  0  0
  9 10  2  0  0  0  0
 10 11  1  0  0  0  0
 10 29  1  0  0  0  0
 11 12  1  0  0  0  0
 11 13  2  0  0  0  0
 13 14  1  0  0  0  0
 13 30  1  0  0  0  0
 14 15  2  0  0  0  0
 14 31  1  0  0  0  0
 15 16  1  0  0  0  0
 17 18  2  0  0  0  0
 17 19  1  0  0  0  0
 19 20  1  0  0  0  0
 20 32  1  0  0  0  0
 20 33  1  0  0  0  0
 20 34  1  0  0  0  0
M  END
> <s_m_source_file>
AV-unprocessed.smi

> <i_m_source_file_index>
2309

> <i_lp_mmshare_version>
43012

> <i_f3d_flags>
0

> <s_epik_input>
W0NIM11jMW5bY0hdbihjKD1PKWMxW0NIM10pW0NIMl1bQ0BIXShbT0hdKWMyW2NIXWMoQ2wpW2NIXVtjSF1jMkNs

> <s_epik_cmdline>
J2VwaWtfcHl0aG9uJywgJy1waCcsICc3LjAnLCAnLXRuJywgJzgnLCAnLW1hJywgJzIwMCcsICctbWV0YWxfYmluZGluZycsICctaW1hZScsICc8aW5maWxlLm1hZT4nLCAnLW9tYWUnLCAnPG91dGZpbGUubWFlPic=

> <r_lp_tautomer_probability>
1

> <r_epik_Ionization_Penalty>
5.09224e-05

> <r_epik_Ionization_Penalty_Charging>
7.56727e-08

> <r_epik_Ionization_Penalty_Neutral>
5.08468e-05

> <r_epik_State_Penalty>
-0

> <r_epik_Charging_Adjusted_Penalty>
7.56727e-08

> <i_epik_Tot_Q>
0

> <i_epik_Tot_abs_Q>
0

> <r_epik_Metal_State_Penalty>
-0

> <b_epik_Metal_Only>
0

> <s_lp_Force_Field>
OPLS_2005

> <r_lp_Energy>
18.7705

> <b_lp_Chiralities_Consistent>
1

> <s_lp_Variant>
AV-unprocessed.smi:2309-2

> <Gold.Version>
5.8.1

> <Gold.Id.Protein>
6NUR|6NUR_protein|mol2

> <Gold.PLP.Fitness>
51.5980

> <Gold.PLP.PLP>
-47.9455

> <Gold.PLP.part.hbond>
-2.0000

> <Gold.PLP.part.metal>
0.0000

> <Gold.PLP.part.buried>
-6.1068

> <Gold.PLP.part.nonpolar>
-40.4728

> <Gold.PLP.part.repulsive>
0.0673

> <Gold.PLP.ligand.clash>
0.0000

> <Gold.PLP.ligand.torsion>
1.1782

> <Gold.PLP.Chemscore.Hbond>
2.0000

> <Gold.PLP.Chemscore.CHOScore>
0.0000

> <Gold.PLP.Chemscore.Metal>
0.0000

> <Gold.Chemscore.Hbonds>
donor molecule, donor type, donor heavy atom, donor atom, acceptor molecule, acceptor atom, score
      L1  H     8    28       P1  8028  0.21
      P1  H  7989  7998       L1     3  1.00

> <Gold.PLP.Chemscore.Internal.Correction>
0.0088

> <Gold.Rescore>
     Score         DG    S(hbond)    S(metal)    S(lipo)     H(rot)  DE(clash)    DE(int)     intcor
     15.10     -17.88       0.98        0.00     120.31       1.93       0.08       2.70       ----

> <Gold.Chemscore.Fitness>
15.1015

> <Gold.Chemscore.DG>
-17.8841

> <Gold.Chemscore.ZeroCoef>
-5.4800

> <Gold.Chemscore.Hbond>
0.9760

> <Gold.Chemscore.Metal>
0.0000

> <Gold.Chemscore.Lipo>
120.3074

> <Gold.Chemscore.Internal_Hbond>
0.0000

> <Gold.Chemscore.DEClash>
0.0850

> <Gold.Chemscore.DEInternal>
2.6976

> <Gold.Chemscore.Rot>
1.9265

> <Gold.Chemscore.Internal.Correction>
   9.000000E+99

> <Gold.Chemscore.Hbonds>
donor molecule, donor type, donor heavy atom, donor atom, acceptor molecule, acceptor atom, score
      L1  H     8    28       P1  8028  0.16
      P1  H  7989  7998       L1     3  0.66

> <Gold.Chemscore.Hbond.Weighted>
-3.2599

> <Gold.Chemscore.Metal.Weighted>
-0.0000

> <Gold.Chemscore.Lipo.Weighted>
-14.0760

> <Gold.Chemscore.Internal_Hbond.Weighted>
0.0000

> <Gold.Chemscore.DEClash.Weighted>
0.0850

> <Gold.Chemscore.DEInternal.Weighted>
2.6976

> <Gold.Chemscore.Rot.Weighted>
4.9317

> <Gold.Chemscore.Internal.Correction.Weighted>
   9.000000E+99

> <Gold.Protein.RotatedTorsions>
[ 6907 6896 6895 6894 ] final  123.64 input  -60.11 | X-H torsion
[ 7974 7965 7964 7962 ] final   41.29 input  175.53 | X-H torsion
[ 8008 7997 7996 7995 ] final   59.02 input   59.86 | X-H torsion
[ 10167 10162 10161 10158 ] final   12.24 input  -65.29 | X-H torsion
[ 10718 10713 10712 10709 ] final -127.38 input   66.30 | X-H torsion
[ 10763 10752 10751 10750 ] final   -7.10 input  -60.55 | X-H torsion
[ 11005 11000 10999 10996 ] final  141.84 input  -57.11 | X-H torsion

> <Gold.Protein.ActiveResidues>
 VAL166  LYS551  ARG553  GLY616  TRP617  ASP618  TYR619  PRO620  LYS621  CYS622 
 ASP623  PHE694  ASN695  SER759  ASP760  ASP761  ALA762  ILE779  LEU786  VAL792 
 PHE793  MET794  SER795  GLU796  ALA797  LYS798  CYS799  TRP800  GLU811  SER814 

> <Gold.Protein.RotatedAtoms>
  152.4145  133.7016  159.6426 H   0  0  0  0  0  0  0  0  0  0  0  0  # atno 6907 bound_to 6896
  150.8023  133.8565  159.3228 H   0  0  0  0  0  0  0  0  0  0  0  0  # atno 6908 bound_to 6896
  151.6298  135.1026  160.0171 H   0  0  0  0  0  0  0  0  0  0  0  0  # atno 6909 bound_to 6896
  146.0835  139.5433  142.9521 H   0  0  0  0  0  0  0  0  0  0  0  0  # atno 7974 bound_to 7965
  155.5594  140.3488  155.4488 H   0  0  0  0  0  0  0  0  0  0  0  0  # atno 8008 bound_to 7997
  156.0525  140.1321  157.0060 H   0  0  0  0  0  0  0  0  0  0  0  0  # atno 8009 bound_to 7997
  154.4441  140.1002  156.6382 H   0  0  0  0  0  0  0  0  0  0  0  0  # atno 8010 bound_to 7997
  140.6081  143.8466  150.7035 H   0  0  0  0  0  0  0  0  0  0  0  0  # atno 10167 bound_to 10162
  156.1852  130.6758  151.0355 H   0  0  0  0  0  0  0  0  0  0  0  0  # atno 10718 bound_to 10713
  153.4217  135.7010  153.6290 H   0  0  0  0  0  0  0  0  0  0  0  0  # atno 10763 bound_to 10752
  153.4742  135.3708  155.2407 H   0  0  0  0  0  0  0  0  0  0  0  0  # atno 10764 bound_to 10752
  154.8722  135.4050  154.3586 H   0  0  0  0  0  0  0  0  0  0  0  0  # atno 10765 bound_to 10752
  140.0431  134.9294  157.0880 H   0  0  0  0  0  0  0  0  0  0  0  0  # atno 11005 bound_to 11000
  145.6173  141.0329  143.1934 LP  0  0  0  0  0  0  0  0  0  0  0  0  # atno 17320 bound_to 7965
  144.7310  139.7727  143.7347 LP  0  0  0  0  0  0  0  0  0  0  0  0  # atno 17321 bound_to 7965
  140.2028  143.3946  152.1778 LP  0  0  0  0  0  0  0  0  0  0  0  0  # atno 17342 bound_to 10162
  139.5340  144.7190  151.4957 LP  0  0  0  0  0  0  0  0  0  0  0  0  # atno 17343 bound_to 10162
  157.6894  131.0815  150.7151 LP  0  0  0  0  0  0  0  0  0  0  0  0  # atno 17370 bound_to 10713
  156.7207  130.4680  149.5523 LP  0  0  0  0  0  0  0  0  0  0  0  0  # atno 17371 bound_to 10713
  140.4036  134.2056  155.7163 LP  0  0  0  0  0  0  0  0  0  0  0  0  # atno 17394 bound_to 11000
  141.1893  133.8241  157.0961 LP  0  0  0  0  0  0  0  0  0  0  0  0  # atno 17395 bound_to 11000

$$$$
