AV-unprocessed.smi:1259|AV-procd|sdf|5292|dock6
  -GOLD-   22720 4413D 1   1.00000     0.00000
 Structure written by MMmdl.
 34 35  0  0  0  0  0  0  0  0  1 V2000
  153.8104  141.6939  160.7534 C   0  0  0  0  0  0  0  0  0  0  0  0
  152.8179  142.3509  159.8402 C   0  0  0  0  0  0  0  0  0  0  0  0
  152.0297  141.7449  158.8190 C   0  0  0  0  0  0  0  0  0  0  0  0
  151.3179  142.8018  158.3208 C   0  0  0  0  0  0  0  0  0  0  0  0
  150.3946  142.8166  157.3229 N   0  0  0  0  0  0  0  0  0  0  0  0
  149.7565  141.7802  156.7521 C   0  0  0  0  0  0  0  0  0  0  0  0
  149.9022  140.5965  157.0573 O   0  0  0  0  0  0  0  0  0  0  0  0
  148.9238  142.1991  155.7878 N   0  0  0  0  0  0  0  0  0  0  0  0
  148.0883  141.3373  154.9576 C   0  0  1  0  0  0  0  0  0  0  0  0
  147.1712  142.2208  154.1007 C   0  0  0  0  0  0  0  0  0  0  0  0
  148.8856  140.3804  154.0867 C   0  0  0  0  0  0  0  0  0  0  0  0
  148.4015  138.9721  153.8349 C   0  0  0  0  0  0  0  0  0  0  0  0
  149.6306  139.2086  154.6817 C   0  0  0  0  0  0  0  0  0  0  0  0
  151.6732  143.9412  159.0086 N   0  0  0  0  0  0  0  0  0  0  0  0
  151.1946  145.3010  158.8529 C   0  0  0  0  0  0  0  0  0  0  0  0
  152.6003  143.6568  159.9485 N   0  0  0  0  0  0  0  0  0  0  0  0
  153.9229  140.6356  160.5171 H   0  0  0  0  0  0  0  0  0  0  0  0
  153.4952  141.7695  161.7943 H   0  0  0  0  0  0  0  0  0  0  0  0
  154.7926  142.1591  160.6666 H   0  0  0  0  0  0  0  0  0  0  0  0
  152.0054  140.7074  158.5213 H   0  0  0  0  0  0  0  0  0  0  0  0
  150.1695  143.7311  156.9600 H   0  0  0  0  0  0  0  0  0  0  0  0
  148.8683  143.1908  155.6077 H   0  0  0  0  0  0  0  0  0  0  0  0
  147.4459  140.7440  155.6111 H   0  0  0  0  0  0  0  0  0  0  0  0
  146.4901  141.6152  153.5020 H   0  0  0  0  0  0  0  0  0  0  0  0
  147.7465  142.8466  153.4176 H   0  0  0  0  0  0  0  0  0  0  0  0
  146.5627  142.8776  154.7234 H   0  0  0  0  0  0  0  0  0  0  0  0
  149.3652  140.8653  153.2382 H   0  0  0  0  0  0  0  0  0  0  0  0
  147.4970  138.6472  154.3450 H   0  0  0  0  0  0  0  0  0  0  0  0
  148.5481  138.5618  152.8378 H   0  0  0  0  0  0  0  0  0  0  0  0
  150.5973  138.9581  154.2497 H   0  0  0  0  0  0  0  0  0  0  0  0
  149.5403  139.0372  155.7526 H   0  0  0  0  0  0  0  0  0  0  0  0
  150.2121  145.3969  159.3154 H   0  0  0  0  0  0  0  0  0  0  0  0
  151.1172  145.5477  157.7939 H   0  0  0  0  0  0  0  0  0  0  0  0
  151.8815  146.0040  159.3259 H   0  0  0  0  0  0  0  0  0  0  0  0
  1  2  1  0  0  0  0
  1 17  1  0  0  0  0
  1 18  1  0  0  0  0
  1 19  1  0  0  0  0
  2 16  2  0  0  0  0
  2  3  1  0  0  0  0
  3  4  2  0  0  0  0
  3 20  1  0  0  0  0
  4  5  1  0  0  0  0
  4 14  1  0  0  0  0
  5  6  1  0  0  0  0
  5 21  1  0  0  0  0
  6  7  2  0  0  0  0
  6  8  1  0  0  0  0
  8  9  1  0  0  0  0
  8 22  1  0  0  0  0
  9 10  1  0  0  0  0
  9 11  1  0  0  0  0
  9 23  1  0  0  0  0
 10 24  1  0  0  0  0
 10 25  1  0  0  0  0
 10 26  1  0  0  0  0
 11 13  1  0  0  0  0
 11 12  1  0  0  0  0
 11 27  1  0  0  0  0
 12 13  1  0  0  0  0
 12 28  1  0  0  0  0
 12 29  1  0  0  0  0
 13 30  1  0  0  0  0
 13 31  1  0  0  0  0
 14 15  1  0  0  0  0
 14 16  1  0  0  0  0
 15 32  1  0  0  0  0
 15 33  1  0  0  0  0
 15 34  1  0  0  0  0
M  END
> <s_m_source_file>
AV-unprocessed.smi

> <i_m_source_file_index>
1259

> <i_lp_mmshare_version>
43012

> <i_f3d_flags>
0

> <s_epik_input>
W0NIM11jMVtjSF1jKG4objEpW0NIM10pW05IXUMoPU8pW05IXVtDQEhdKFtDSDNdKVtDSF0yW0NIMl1bQ0gyXTI=

> <s_epik_cmdline>
J2VwaWtfcHl0aG9uJywgJy1waCcsICc3LjAnLCAnLXRuJywgJzgnLCAnLW1hJywgJzIwMCcsICctbWV0YWxfYmluZGluZycsICctaW1hZScsICc8aW5maWxlLm1hZT4nLCAnLW9tYWUnLCAnPG91dGZpbGUubWFlPic=

> <r_lp_tautomer_probability>
1

> <r_epik_Ionization_Penalty>
0.000100032

> <r_epik_Ionization_Penalty_Charging>
0

> <r_epik_Ionization_Penalty_Neutral>
0.000100032

> <r_epik_State_Penalty>
-0

> <r_epik_Charging_Adjusted_Penalty>
0

> <i_epik_Tot_Q>
0

> <i_epik_Tot_abs_Q>
0

> <r_epik_Metal_State_Penalty>
-0

> <b_epik_Metal_Only>
0

> <s_lp_Force_Field>
OPLS_2005

> <r_lp_Energy>
14.2964

> <b_lp_Chiralities_Consistent>
1

> <s_lp_Variant>
AV-unprocessed.smi:1259-2

> <Gold.Version>
5.8.1

> <Gold.Id.Protein>
6NUR|6NUR_protein|mol2

> <Gold.PLP.Fitness>
40.9127

> <Gold.PLP.PLP>
-35.7196

> <Gold.PLP.part.hbond>
-1.9670

> <Gold.PLP.part.metal>
0.0000

> <Gold.PLP.part.buried>
-2.7816

> <Gold.PLP.part.nonpolar>
-30.9333

> <Gold.PLP.part.repulsive>
0.1582

> <Gold.PLP.ligand.clash>
0.0000

> <Gold.PLP.ligand.torsion>
0.6433

> <Gold.PLP.Chemscore.Hbond>
1.8064

> <Gold.PLP.Chemscore.CHOScore>
0.0000

> <Gold.PLP.Chemscore.Metal>
0.0000

> <Gold.Chemscore.Hbonds>
donor molecule, donor type, donor heavy atom, donor atom, acceptor molecule, acceptor atom, score
      L1  H     5    21       P1  8028  0.80
      L1  H     8    22       P1  8028  0.99

> <Gold.PLP.Chemscore.Internal.Correction>
1.0607

> <Gold.Rescore>
     Score         DG    S(hbond)    S(metal)    S(lipo)     H(rot)  DE(clash)    DE(int)     intcor
     14.17     -17.45       1.90        0.00      74.39       1.20       0.22       3.06       ----

> <Gold.Chemscore.Fitness>
14.1692

> <Gold.Chemscore.DG>
-17.4464

> <Gold.Chemscore.ZeroCoef>
-5.4800

> <Gold.Chemscore.Hbond>
1.8958

> <Gold.Chemscore.Metal>
0.0000

> <Gold.Chemscore.Lipo>
74.3924

> <Gold.Chemscore.Internal_Hbond>
0.0000

> <Gold.Chemscore.DEClash>
0.2210

> <Gold.Chemscore.DEInternal>
3.0561

> <Gold.Chemscore.Rot>
1.1990

> <Gold.Chemscore.Internal.Correction>
   9.000000E+99

> <Gold.Chemscore.Hbonds>
donor molecule, donor type, donor heavy atom, donor atom, acceptor molecule, acceptor atom, score
      L1  H     5    21       P1  8028  0.76
      L1  H     8    22       P1  8028  0.92

> <Gold.Chemscore.Hbond.Weighted>
-6.3320

> <Gold.Chemscore.Metal.Weighted>
-0.0000

> <Gold.Chemscore.Lipo.Weighted>
-8.7039

> <Gold.Chemscore.Internal_Hbond.Weighted>
0.0000

> <Gold.Chemscore.DEClash.Weighted>
0.2210

> <Gold.Chemscore.DEInternal.Weighted>
3.0561

> <Gold.Chemscore.Rot.Weighted>
3.0695

> <Gold.Chemscore.Internal.Correction.Weighted>
   9.000000E+99

> <Gold.Protein.RotatedTorsions>
[ 6907 6896 6895 6894 ] final  -87.44 input  -60.11 | X-H torsion
[ 7974 7965 7964 7962 ] final -169.92 input  175.53 | X-H torsion
[ 8008 7997 7996 7995 ] final  -69.10 input   59.86 | X-H torsion
[ 10167 10162 10161 10158 ] final  -60.47 input  -65.29 | X-H torsion
[ 10718 10713 10712 10709 ] final -168.82 input   66.30 | X-H torsion
[ 10763 10752 10751 10750 ] final  -81.89 input  -60.55 | X-H torsion
[ 11005 11000 10999 10996 ] final  -83.30 input  -57.11 | X-H torsion

> <Gold.Protein.ActiveResidues>
 VAL166  LYS551  ARG553  GLY616  TRP617  ASP618  TYR619  PRO620  LYS621  CYS622 
 ASP623  PHE694  ASN695  SER759  ASP760  ASP761  ALA762  ILE779  LEU786  VAL792 
 PHE793  MET794  SER795  GLU796  ALA797  LYS798  CYS799  TRP800  GLU811  SER814 

> <Gold.Protein.RotatedAtoms>
  150.6866  134.2896  159.4660 H   0  0  0  0  0  0  0  0  0  0  0  0  # atno 6907 bound_to 6896
  152.0802  134.9473  160.0583 H   0  0  0  0  0  0  0  0  0  0  0  0  # atno 6908 bound_to 6896
  152.0829  133.4127  159.4546 H   0  0  0  0  0  0  0  0  0  0  0  0  # atno 6909 bound_to 6896
  144.7178  140.2150  143.6323 H   0  0  0  0  0  0  0  0  0  0  0  0  # atno 7974 bound_to 7965
  154.4914  140.0860  156.7603 H   0  0  0  0  0  0  0  0  0  0  0  0  # atno 8008 bound_to 7997
  155.4221  140.3446  155.4254 H   0  0  0  0  0  0  0  0  0  0  0  0  # atno 8009 bound_to 7997
  156.1335  140.1508  156.9017 H   0  0  0  0  0  0  0  0  0  0  0  0  # atno 8010 bound_to 7997
  140.6069  143.2376  151.5800 H   0  0  0  0  0  0  0  0  0  0  0  0  # atno 10167 bound_to 10162
  156.7025  130.9202  151.3081 H   0  0  0  0  0  0  0  0  0  0  0  0  # atno 10718 bound_to 10713
  154.5691  135.5610  153.7078 H   0  0  0  0  0  0  0  0  0  0  0  0  # atno 10763 bound_to 10752
  153.0043  135.6292  154.2138 H   0  0  0  0  0  0  0  0  0  0  0  0  # atno 10764 bound_to 10752
  154.2078  135.2875  155.2949 H   0  0  0  0  0  0  0  0  0  0  0  0  # atno 10765 bound_to 10752
  141.1658  133.7287  156.8699 H   0  0  0  0  0  0  0  0  0  0  0  0  # atno 11005 bound_to 11000
  145.8555  139.2196  143.1747 LP  0  0  0  0  0  0  0  0  0  0  0  0  # atno 17320 bound_to 7965
  146.0221  140.8338  142.9918 LP  0  0  0  0  0  0  0  0  0  0  0  0  # atno 17321 bound_to 7965
  139.5332  144.2856  152.1193 LP  0  0  0  0  0  0  0  0  0  0  0  0  # atno 17342 bound_to 10162
  140.2048  144.4622  150.6414 LP  0  0  0  0  0  0  0  0  0  0  0  0  # atno 17343 bound_to 10162
  157.6967  130.9290  150.0666 LP  0  0  0  0  0  0  0  0  0  0  0  0  # atno 17370 bound_to 10713
  156.1718  130.3647  149.9154 LP  0  0  0  0  0  0  0  0  0  0  0  0  # atno 17371 bound_to 10713
  140.1789  134.9047  157.2924 LP  0  0  0  0  0  0  0  0  0  0  0  0  # atno 17394 bound_to 11000
  140.2418  134.3787  155.7478 LP  0  0  0  0  0  0  0  0  0  0  0  0  # atno 17395 bound_to 11000

$$$$
