AV-unprocessed.smi:151|AV-procd|sdf|1244|dock1
  -GOLD-   2262018463D 1   1.00000     0.00000
 Structure written by MMmdl.
 56 59  0  0  0  0  0  0  0  0  1 V2000
  151.6754  138.3626  154.4176 C   0  0  0  0  0  0  0  0  0  0  0  0
  150.1885  138.1197  154.7270 C   0  0  0  0  0  0  0  0  0  0  0  0
  149.2177  139.2099  154.2018 C   0  0  2  0  0  0  0  0  0  0  0  0
  149.7831  140.6253  154.4506 C   0  0  0  0  0  0  0  0  0  0  0  0
  148.8739  141.6263  154.0012 O   0  0  0  0  0  0  0  0  0  0  0  0
  147.5721  141.5699  154.5893 C   0  0  0  0  0  0  0  0  0  0  0  0
  147.6130  141.8916  156.0989 C   0  0  0  0  0  0  0  0  0  0  0  0
  146.7470  142.6446  153.8644 C   0  0  0  0  0  0  0  0  0  0  0  0
  146.9715  140.1771  154.3145 C   0  0  0  0  0  0  0  0  0  0  0  0
  147.8626  139.1096  154.7574 N   0  0  0  0  0  0  0  0  0  0  0  0
  147.2274  137.9164  154.6790 C   0  0  0  0  0  0  0  0  0  0  0  0
  147.2467  137.0538  155.7295 N   0  0  0  0  0  0  0  0  0  0  0  0
  146.6349  135.8700  155.6313 C   0  0  0  0  0  0  0  0  0  0  0  0
  145.9697  135.3577  154.5938 N   0  0  0  0  0  0  0  0  0  0  0  0
  145.9622  136.2148  153.5321 C   0  0  0  0  0  0  0  0  0  0  0  0
  146.5654  137.5028  153.4930 C   0  0  0  0  0  0  0  0  0  0  0  0
  146.3600  138.0909  152.2522 N   0  0  0  0  0  0  0  0  0  0  0  0
  145.6706  137.2005  151.5927 C   0  0  0  0  0  0  0  0  0  0  0  0
  145.3867  136.0422  152.2829 N   0  0  0  0  0  0  0  0  0  0  0  0
  144.6421  134.9176  151.7880 C   0  0  0  0  0  0  0  0  0  0  0  0
  144.6973  133.5591  152.4936 C   0  0  0  0  0  0  0  0  0  0  0  0
  144.6464  132.8402  151.1246 C   0  0  0  0  0  0  0  0  0  0  0  0
  145.6393  131.6790  150.9265 C   0  0  0  0  0  0  0  0  0  0  0  0
  146.9594  132.0133  151.3061 O   0  0  0  0  0  0  0  0  0  0  0  0
  143.2750  132.2699  150.7060 C   0  0  0  0  0  0  0  0  0  0  0  0
  143.1614  132.0412  149.3158 O   0  0  0  0  0  0  0  0  0  0  0  0
  145.0411  134.1975  150.4951 C   0  0  0  0  0  0  0  0  0  0  0  0
  152.2882  137.5700  154.8473 H   0  0  0  0  0  0  0  0  0  0  0  0
  152.0236  139.3071  154.8361 H   0  0  0  0  0  0  0  0  0  0  0  0
  151.8714  138.3767  153.3462 H   0  0  0  0  0  0  0  0  0  0  0  0
  149.8963  137.1566  154.3077 H   0  0  0  0  0  0  0  0  0  0  0  0
  150.0737  138.0035  155.8043 H   0  0  0  0  0  0  0  0  0  0  0  0
  149.1339  139.0865  153.1210 H   0  0  0  0  0  0  0  0  0  0  0  0
  150.0195  140.7892  155.5006 H   0  0  0  0  0  0  0  0  0  0  0  0
  150.7201  140.7504  153.9076 H   0  0  0  0  0  0  0  0  0  0  0  0
  146.6050  141.9584  156.5090 H   0  0  0  0  0  0  0  0  0  0  0  0
  148.1090  142.8446  156.2850 H   0  0  0  0  0  0  0  0  0  0  0  0
  148.1354  141.1281  156.6750 H   0  0  0  0  0  0  0  0  0  0  0  0
  145.7170  142.6628  154.2220 H   0  0  0  0  0  0  0  0  0  0  0  0
  146.7203  142.4645  152.7892 H   0  0  0  0  0  0  0  0  0  0  0  0
  147.1698  143.6378  154.0198 H   0  0  0  0  0  0  0  0  0  0  0  0
  146.0011  140.0914  154.8068 H   0  0  0  0  0  0  0  0  0  0  0  0
  146.7927  140.0561  153.2446 H   0  0  0  0  0  0  0  0  0  0  0  0
  146.6865  135.2428  156.5089 H   0  0  0  0  0  0  0  0  0  0  0  0
  145.3474  137.3683  150.5755 H   0  0  0  0  0  0  0  0  0  0  0  0
  143.6057  135.2500  151.7145 H   0  0  0  0  0  0  0  0  0  0  0  0
  145.6317  133.4058  153.0343 H   0  0  0  0  0  0  0  0  0  0  0  0
  143.8443  133.3621  153.1437 H   0  0  0  0  0  0  0  0  0  0  0  0
  145.3373  130.8081  151.5095 H   0  0  0  0  0  0  0  0  0  0  0  0
  145.6645  131.3643  149.8826 H   0  0  0  0  0  0  0  0  0  0  0  0
  147.5610  131.5056  150.7833 H   0  0  0  0  0  0  0  0  0  0  0  0
  143.0806  131.3232  151.2115 H   0  0  0  0  0  0  0  0  0  0  0  0
  142.4711  132.9479  150.9946 H   0  0  0  0  0  0  0  0  0  0  0  0
  142.4183  131.4775  149.1635 H   0  0  0  0  0  0  0  0  0  0  0  0
  144.4476  134.4854  149.6270 H   0  0  0  0  0  0  0  0  0  0  0  0
  146.1047  134.2842  150.2730 H   0  0  0  0  0  0  0  0  0  0  0  0
  1  2  1  0  0  0  0
  1 28  1  0  0  0  0
  1 29  1  0  0  0  0
  1 30  1  0  0  0  0
  2  3  1  0  0  0  0
  2 31  1  0  0  0  0
  2 32  1  0  0  0  0
  3 10  1  0  0  0  0
  3  4  1  0  0  0  0
  3 33  1  0  0  0  0
  4  5  1  0  0  0  0
  4 34  1  0  0  0  0
  4 35  1  0  0  0  0
  5  6  1  0  0  0  0
  6  7  1  0  0  0  0
  6  8  1  0  0  0  0
  6  9  1  0  0  0  0
  7 36  1  0  0  0  0
  7 37  1  0  0  0  0
  7 38  1  0  0  0  0
  8 39  1  0  0  0  0
  8 40  1  0  0  0  0
  8 41  1  0  0  0  0
  9 10  1  0  0  0  0
  9 42  1  0  0  0  0
  9 43  1  0  0  0  0
 10 11  1  0  0  0  0
 11 16  1  0  0  0  0
 11 12  2  0  0  0  0
 12 13  1  0  0  0  0
 13 14  2  0  0  0  0
 13 44  1  0  0  0  0
 14 15  1  0  0  0  0
 15 19  1  0  0  0  0
 15 16  2  0  0  0  0
 16 17  1  0  0  0  0
 17 18  2  0  0  0  0
 18 19  1  0  0  0  0
 18 45  1  0  0  0  0
 19 20  1  0  0  0  0
 20 27  1  0  0  0  0
 20 21  1  0  0  0  0
 20 46  1  0  0  0  0
 21 22  1  0  0  0  0
 21 47  1  0  0  0  0
 21 48  1  0  0  0  0
 22 23  1  0  0  0  0
 22 25  1  0  0  0  0
 22 27  1  0  0  0  0
 23 24  1  0  0  0  0
 23 49  1  0  0  0  0
 23 50  1  0  0  0  0
 24 51  1  0  0  0  0
 25 26  1  0  0  0  0
 25 52  1  0  0  0  0
 25 53  1  0  0  0  0
 26 54  1  0  0  0  0
 27 55  1  0  0  0  0
 27 56  1  0  0  0  0
M  END
> <s_m_source_file>
AV-unprocessed.smi

> <i_m_source_file_index>
151

> <i_lp_mmshare_version>
43012

> <i_f3d_flags>
0

> <s_epik_input>
W0NIM11DMShbQ0gzXSlPW0NIMl1bQ0BASF0oW0NIMl1bQ0gzXSlOKFtDSDJdMSljKG5bY0hdbjIpYyhjMjMpbltjSF1uM1tDSF0oW0NIMl00KVtDSDJdQzQoW0NIMl1bT0hdKVtDSDJdW09IXQ==

> <s_epik_cmdline>
J2VwaWtfcHl0aG9uJywgJy1waCcsICc3LjAnLCAnLXRuJywgJzgnLCAnLW1hJywgJzIwMCcsICctbWV0YWxfYmluZGluZycsICctaW1hZScsICc8aW5maWxlLm1hZT4nLCAnLW9tYWUnLCAnPG91dGZpbGUubWFlPic=

> <r_lp_tautomer_probability>
1

> <r_epik_Ionization_Penalty>
0.000102837

> <r_epik_Ionization_Penalty_Charging>
0

> <r_epik_Ionization_Penalty_Neutral>
0.000102837

> <r_epik_State_Penalty>
-0

> <r_epik_Charging_Adjusted_Penalty>
0

> <i_epik_Tot_Q>
0

> <i_epik_Tot_abs_Q>
0

> <r_epik_Metal_State_Penalty>
-0

> <b_epik_Metal_Only>
0

> <s_lp_Force_Field>
OPLS_2005

> <r_lp_Energy>
52.7657

> <b_lp_Chiralities_Consistent>
1

> <s_lp_Variant>
AV-unprocessed.smi:151-1

> <Gold.Version>
5.8.1

> <Gold.Id.Protein>
6NUR|6NUR_protein|mol2

> <Gold.PLP.Fitness>
49.0161

> <Gold.PLP.PLP>
-39.6381

> <Gold.PLP.part.hbond>
-4.5229

> <Gold.PLP.part.metal>
0.0000

> <Gold.PLP.part.buried>
-1.6028

> <Gold.PLP.part.nonpolar>
-33.8268

> <Gold.PLP.part.repulsive>
0.6614

> <Gold.PLP.ligand.clash>
0.0000

> <Gold.PLP.ligand.torsion>
0.9442

> <Gold.PLP.Chemscore.Hbond>
2.5632

> <Gold.PLP.Chemscore.CHOScore>
0.9997

> <Gold.PLP.Chemscore.Metal>
0.0000

> <Gold.Chemscore.Hbonds>
donor molecule, donor type, donor heavy atom, donor atom, acceptor molecule, acceptor atom, score
      L1  H    24    51       P1 10747  1.00
      L1  H    26    54       P1 10952  1.00
      P1  H  8011  8017       L1     5  0.58
      L1  C    18    45       P1 10171  1.00

> <Gold.PLP.Chemscore.Internal.Correction>
0.5776

> <Gold.Rescore>
     Score         DG    S(hbond)    S(metal)    S(lipo)     H(rot)  DE(clash)    DE(int)     intcor
     11.85     -15.58       2.30        0.00      91.86       3.26       0.99       2.74       ----

> <Gold.Chemscore.Fitness>
11.8490

> <Gold.Chemscore.DG>
-15.5779

> <Gold.Chemscore.ZeroCoef>
-5.4800

> <Gold.Chemscore.Hbond>
2.3040

> <Gold.Chemscore.Metal>
0.0000

> <Gold.Chemscore.Lipo>
91.8562

> <Gold.Chemscore.Internal_Hbond>
0.0000

> <Gold.Chemscore.DEClash>
0.9890

> <Gold.Chemscore.DEInternal>
2.7399

> <Gold.Chemscore.Rot>
3.2596

> <Gold.Chemscore.Internal.Correction>
   9.000000E+99

> <Gold.Chemscore.Hbonds>
donor molecule, donor type, donor heavy atom, donor atom, acceptor molecule, acceptor atom, score
      L1  H    24    51       P1 10747  0.99
      L1  H    26    54       P1 10952  0.96
      P1  H  8011  8017       L1     5  0.25

> <Gold.Chemscore.Hbond.Weighted>
-7.6954

> <Gold.Chemscore.Metal.Weighted>
-0.0000

> <Gold.Chemscore.Lipo.Weighted>
-10.7472

> <Gold.Chemscore.Internal_Hbond.Weighted>
0.0000

> <Gold.Chemscore.DEClash.Weighted>
0.9890

> <Gold.Chemscore.DEInternal.Weighted>
2.7399

> <Gold.Chemscore.Rot.Weighted>
8.3447

> <Gold.Chemscore.Internal.Correction.Weighted>
   9.000000E+99

> <Gold.Protein.RotatedTorsions>
[ 6907 6896 6895 6894 ] final  -52.43 input  -60.11 | X-H torsion
[ 7974 7965 7964 7962 ] final  109.21 input  175.53 | X-H torsion
[ 8008 7997 7996 7995 ] final  -54.98 input   59.86 | X-H torsion
[ 10167 10162 10161 10158 ] final   92.57 input  -65.29 | X-H torsion
[ 10718 10713 10712 10709 ] final   71.80 input   66.30 | X-H torsion
[ 10763 10752 10751 10750 ] final  138.01 input  -60.55 | X-H torsion
[ 11005 11000 10999 10996 ] final -141.59 input  -57.11 | X-H torsion

> <Gold.Protein.ActiveResidues>
 VAL166  LYS551  ARG553  GLY616  TRP617  ASP618  TYR619  PRO620  LYS621  CYS622 
 ASP623  PHE694  ASN695  SER759  ASP760  ASP761  ALA762  ILE779  LEU786  VAL792 
 PHE793  MET794  SER795  GLU796  ALA797  LYS798  CYS799  TRP800  GLU811  SER814 

> <Gold.Protein.RotatedAtoms>
  150.8518  134.7845  159.7014 H   0  0  0  0  0  0  0  0  0  0  0  0  # atno 6907 bound_to 6896
  152.4581  134.5243  159.9802 H   0  0  0  0  0  0  0  0  0  0  0  0  # atno 6908 bound_to 6896
  151.5363  133.3402  159.2963 H   0  0  0  0  0  0  0  0  0  0  0  0  # atno 6909 bound_to 6896
  145.2707  139.2668  143.3968 H   0  0  0  0  0  0  0  0  0  0  0  0  # atno 7974 bound_to 7965
  154.4180  140.1163  156.5403 H   0  0  0  0  0  0  0  0  0  0  0  0  # atno 8008 bound_to 7997
  155.6515  140.3496  155.4731 H   0  0  0  0  0  0  0  0  0  0  0  0  # atno 8009 bound_to 7997
  155.9789  140.1156  157.0735 H   0  0  0  0  0  0  0  0  0  0  0  0  # atno 8010 bound_to 7997
  139.8264  144.6707  150.9454 H   0  0  0  0  0  0  0  0  0  0  0  0  # atno 10167 bound_to 10162
  157.6470  130.9547  150.0840 H   0  0  0  0  0  0  0  0  0  0  0  0  # atno 10718 bound_to 10713
  153.8825  135.3042  155.3445 H   0  0  0  0  0  0  0  0  0  0  0  0  # atno 10763 bound_to 10752
  154.7754  135.4864  153.9737 H   0  0  0  0  0  0  0  0  0  0  0  0  # atno 10764 bound_to 10752
  153.1343  135.6810  153.9225 H   0  0  0  0  0  0  0  0  0  0  0  0  # atno 10765 bound_to 10752
  140.8309  134.2518  157.4857 H   0  0  0  0  0  0  0  0  0  0  0  0  # atno 11005 bound_to 11000
  146.3247  140.3149  142.8629 LP  0  0  0  0  0  0  0  0  0  0  0  0  # atno 17320 bound_to 7965
  144.9337  140.8003  143.5673 LP  0  0  0  0  0  0  0  0  0  0  0  0  # atno 17321 bound_to 7965
  140.7810  143.4042  151.1098 LP  0  0  0  0  0  0  0  0  0  0  0  0  # atno 17342 bound_to 10162
  139.7699  143.8510  152.3118 LP  0  0  0  0  0  0  0  0  0  0  0  0  # atno 17343 bound_to 10162
  156.1808  130.3650  149.9038 LP  0  0  0  0  0  0  0  0  0  0  0  0  # atno 17370 bound_to 10713
  156.6990  130.8926  151.3597 LP  0  0  0  0  0  0  0  0  0  0  0  0  # atno 17371 bound_to 10713
  139.8705  134.9586  156.4304 LP  0  0  0  0  0  0  0  0  0  0  0  0  # atno 17394 bound_to 11000
  140.8999  133.7787  155.9668 LP  0  0  0  0  0  0  0  0  0  0  0  0  # atno 17395 bound_to 11000

$$$$
