AV-unprocessed.smi:2804|AV-procd|sdf|10810|dock8
  -GOLD-   2272015243D 1   1.00000     0.00000
 Structure written by MMmdl.
 35 36  0  0  0  0  0  0  0  0  1 V2000
  156.3029  139.9195  161.1839 C   0  0  0  0  0  0  0  0  0  0  0  0
  155.3762  140.6002  160.1713 C   0  0  0  0  0  0  0  0  0  0  0  0
  154.0116  140.9669  160.7752 C   0  0  0  0  0  0  0  0  0  0  0  0
  153.0955  141.4612  159.7504 N   0  0  0  0  0  0  0  0  0  0  0  0
  152.7086  140.8048  158.6314 C   0  0  0  0  0  0  0  0  0  0  0  0
  153.0606  139.6732  158.2987 O   0  0  0  0  0  0  0  0  0  0  0  0
  151.8758  141.6150  157.9361 N   0  0  0  0  0  0  0  0  0  0  0  0
  151.2387  141.3132  156.6526 C   0  0  0  0  0  0  0  0  0  0  0  0
  150.3631  140.0304  156.6547 C   0  0  1  0  0  0  0  0  0  0  0  0
  149.0968  140.2292  157.2606 O   0  0  0  0  0  0  0  0  0  0  0  0
  150.1611  139.4352  155.2470 C   0  0  0  0  0  0  0  0  0  0  0  0
  149.4086  138.3365  155.3161 F   0  0  0  0  0  0  0  0  0  0  0  0
  149.5852  140.3197  154.4326 F   0  0  0  0  0  0  0  0  0  0  0  0
  151.3432  139.0892  154.7368 F   0  0  0  0  0  0  0  0  0  0  0  0
  151.7367  142.8297  158.6231 C   0  0  0  0  0  0  0  0  0  0  0  0
  151.0057  143.9894  158.3120 C   0  0  0  0  0  0  0  0  0  0  0  0
  151.0855  145.0675  159.2242 C   0  0  0  0  0  0  0  0  0  0  0  0
  151.8770  144.9695  160.3982 C   0  0  0  0  0  0  0  0  0  0  0  0
  152.6053  143.7910  160.6849 C   0  0  0  0  0  0  0  0  0  0  0  0
  152.5060  142.7337  159.7637 C   0  0  0  0  0  0  0  0  0  0  0  0
  157.2602  139.6689  160.7266 H   0  0  0  0  0  0  0  0  0  0  0  0
  155.8631  138.9961  161.5618 H   0  0  0  0  0  0  0  0  0  0  0  0
  156.5012  140.5703  162.0359 H   0  0  0  0  0  0  0  0  0  0  0  0
  155.8625  141.4986  159.7891 H   0  0  0  0  0  0  0  0  0  0  0  0
  155.2336  139.9387  159.3160 H   0  0  0  0  0  0  0  0  0  0  0  0
  153.5753  140.0968  161.2685 H   0  0  0  0  0  0  0  0  0  0  0  0
  154.1322  141.7235  161.5511 H   0  0  0  0  0  0  0  0  0  0  0  0
  150.6511  142.1751  156.3333 H   0  0  0  0  0  0  0  0  0  0  0  0
  152.0176  141.2150  155.8961 H   0  0  0  0  0  0  0  0  0  0  0  0
  150.8729  139.2805  157.2611 H   0  0  0  0  0  0  0  0  0  0  0  0
  149.2259  140.3673  158.1864 H   0  0  0  0  0  0  0  0  0  0  0  0
  150.4088  144.0602  157.4149 H   0  0  0  0  0  0  0  0  0  0  0  0
  150.5386  145.9772  159.0240 H   0  0  0  0  0  0  0  0  0  0  0  0
  151.9253  145.8054  161.0805 H   0  0  0  0  0  0  0  0  0  0  0  0
  153.2123  143.7127  161.5744 H   0  0  0  0  0  0  0  0  0  0  0  0
  1  2  1  0  0  0  0
  1 21  1  0  0  0  0
  1 22  1  0  0  0  0
  1 23  1  0  0  0  0
  2  3  1  0  0  0  0
  2 24  1  0  0  0  0
  2 25  1  0  0  0  0
  3  4  1  0  0  0  0
  3 26  1  0  0  0  0
  3 27  1  0  0  0  0
  4 20  1  0  0  0  0
  4  5  1  0  0  0  0
  5  6  2  0  0  0  0
  5  7  1  0  0  0  0
  7  8  1  0  0  0  0
  7 15  1  0  0  0  0
  8  9  1  0  0  0  0
  8 28  1  0  0  0  0
  8 29  1  0  0  0  0
  9 10  1  0  0  0  0
  9 11  1  0  0  0  0
  9 30  1  0  0  0  0
 10 31  1  0  0  0  0
 11 12  1  0  0  0  0
 11 13  1  0  0  0  0
 11 14  1  0  0  0  0
 15 20  2  0  0  0  0
 15 16  1  0  0  0  0
 16 17  2  0  0  0  0
 16 32  1  0  0  0  0
 17 18  1  0  0  0  0
 17 33  1  0  0  0  0
 18 19  2  0  0  0  0
 18 34  1  0  0  0  0
 19 20  1  0  0  0  0
 19 35  1  0  0  0  0
M  END
> <s_m_source_file>
AV-unprocessed.smi

> <i_m_source_file_index>
2804

> <i_lp_mmshare_version>
43012

> <i_f3d_flags>
0

> <s_epik_input>
W2NIXTFbY0hdW2NIXVtjSF1jKGMxMiluKFtDSDJdW0NIMl1bQ0gzXSljKD1PKW4yW0NIMl1bQ0BIXShbT0hdKUMoRikoRilG

> <s_epik_cmdline>
J2VwaWtfcHl0aG9uJywgJy1waCcsICc3LjAnLCAnLXRuJywgJzgnLCAnLW1hJywgJzIwMCcsICctbWV0YWxfYmluZGluZycsICctaW1hZScsICc8aW5maWxlLm1hZT4nLCAnLW9tYWUnLCAnPG91dGZpbGUubWFlPic=

> <r_epik_Ionization_Penalty>
0.0117937

> <r_epik_Ionization_Penalty_Charging>
3.30828e-09

> <r_epik_Ionization_Penalty_Neutral>
0.0117937

> <r_epik_State_Penalty>
0.00909547

> <r_epik_Charging_Adjusted_Penalty>
0.00909547

> <i_epik_Tot_Q>
0

> <i_epik_Tot_abs_Q>
0

> <r_epik_Metal_State_Penalty>
0.00909547

> <b_epik_Metal_Only>
0

> <s_lp_Force_Field>
OPLS_2005

> <r_lp_Energy>
49.0105

> <b_lp_Chiralities_Consistent>
1

> <s_lp_Variant>
AV-unprocessed.smi:2804-2

> <Gold.Version>
5.8.1

> <Gold.Id.Protein>
6NUR|6NUR_protein|mol2

> <Gold.PLP.Fitness>
47.7318

> <Gold.PLP.PLP>
-45.1856

> <Gold.PLP.part.hbond>
-1.0000

> <Gold.PLP.part.metal>
0.0000

> <Gold.PLP.part.buried>
-3.7883

> <Gold.PLP.part.nonpolar>
-39.8814

> <Gold.PLP.part.repulsive>
0.0000

> <Gold.PLP.ligand.clash>
0.0000

> <Gold.PLP.ligand.torsion>
0.2593

> <Gold.PLP.Chemscore.Hbond>
1.0000

> <Gold.PLP.Chemscore.CHOScore>
0.0000

> <Gold.PLP.Chemscore.Metal>
0.0000

> <Gold.Chemscore.Hbonds>
donor molecule, donor type, donor heavy atom, donor atom, acceptor molecule, acceptor atom, score
      P1  H  7997  8009       L1     6  1.00

> <Gold.PLP.Chemscore.Internal.Correction>
0.0649

> <Gold.Rescore>
     Score         DG    S(hbond)    S(metal)    S(lipo)     H(rot)  DE(clash)    DE(int)     intcor
     14.72     -15.21       0.90        0.00     108.15       2.32       0.18       0.30       ----

> <Gold.Chemscore.Fitness>
14.7212

> <Gold.Chemscore.DG>
-15.2078

> <Gold.Chemscore.ZeroCoef>
-5.4800

> <Gold.Chemscore.Hbond>
0.8985

> <Gold.Chemscore.Metal>
0.0000

> <Gold.Chemscore.Lipo>
108.1518

> <Gold.Chemscore.Internal_Hbond>
0.0000

> <Gold.Chemscore.DEClash>
0.1821

> <Gold.Chemscore.DEInternal>
0.3045

> <Gold.Chemscore.Rot>
2.3152

> <Gold.Chemscore.Internal.Correction>
   9.000000E+99

> <Gold.Chemscore.Hbonds>
donor molecule, donor type, donor heavy atom, donor atom, acceptor molecule, acceptor atom, score
      P1  H  7997  8009       L1     6  0.33

> <Gold.Chemscore.Hbond.Weighted>
-3.0009

> <Gold.Chemscore.Metal.Weighted>
-0.0000

> <Gold.Chemscore.Lipo.Weighted>
-12.6538

> <Gold.Chemscore.Internal_Hbond.Weighted>
0.0000

> <Gold.Chemscore.DEClash.Weighted>
0.1821

> <Gold.Chemscore.DEInternal.Weighted>
0.3045

> <Gold.Chemscore.Rot.Weighted>
5.9268

> <Gold.Chemscore.Internal.Correction.Weighted>
   9.000000E+99

> <Gold.Protein.RotatedTorsions>
[ 6907 6896 6895 6894 ] final   42.78 input  -60.11 | X-H torsion
[ 7974 7965 7964 7962 ] final  -93.17 input  175.53 | X-H torsion
[ 8008 7997 7996 7995 ] final  157.89 input   59.86 | X-H torsion
[ 10167 10162 10161 10158 ] final   65.77 input  -65.29 | X-H torsion
[ 10718 10713 10712 10709 ] final -126.18 input   66.30 | X-H torsion
[ 10763 10752 10751 10750 ] final   46.03 input  -60.55 | X-H torsion
[ 11005 11000 10999 10996 ] final  160.90 input  -57.11 | X-H torsion

> <Gold.Protein.ActiveResidues>
 VAL166  LYS551  ARG553  GLY616  TRP617  ASP618  TYR619  PRO620  LYS621  CYS622 
 ASP623  PHE694  ASN695  SER759  ASP760  ASP761  ALA762  ILE779  LEU786  VAL792 
 PHE793  MET794  SER795  GLU796  ALA797  LYS798  CYS799  TRP800  GLU811  SER814 

> <Gold.Protein.RotatedAtoms>
  152.2121  134.8491  160.0495 H   0  0  0  0  0  0  0  0  0  0  0  0  # atno 6907 bound_to 6896
  151.9306  133.3605  159.3937 H   0  0  0  0  0  0  0  0  0  0  0  0  # atno 6908 bound_to 6896
  150.6979  134.4466  159.5361 H   0  0  0  0  0  0  0  0  0  0  0  0  # atno 6909 bound_to 6896
  145.3901  140.9527  143.2345 H   0  0  0  0  0  0  0  0  0  0  0  0  # atno 7974 bound_to 7965
  156.2336  140.1873  156.7178 H   0  0  0  0  0  0  0  0  0  0  0  0  # atno 8008 bound_to 7997
  154.6066  140.0628  156.9467 H   0  0  0  0  0  0  0  0  0  0  0  0  # atno 8009 bound_to 7997
  155.2085  140.3298  155.4335 H   0  0  0  0  0  0  0  0  0  0  0  0  # atno 8010 bound_to 7997
  140.1076  144.4847  150.6998 H   0  0  0  0  0  0  0  0  0  0  0  0  # atno 10167 bound_to 10162
  156.1742  130.6688  151.0219 H   0  0  0  0  0  0  0  0  0  0  0  0  # atno 10718 bound_to 10713
  152.9816  135.6021  154.3533 H   0  0  0  0  0  0  0  0  0  0  0  0  # atno 10763 bound_to 10752
  154.3221  135.2769  155.2516 H   0  0  0  0  0  0  0  0  0  0  0  0  # atno 10764 bound_to 10752
  154.4678  135.5949  153.6356 H   0  0  0  0  0  0  0  0  0  0  0  0  # atno 10765 bound_to 10752
  140.2105  134.8271  157.3115 H   0  0  0  0  0  0  0  0  0  0  0  0  # atno 11005 bound_to 11000
  144.8446  139.5417  143.6884 LP  0  0  0  0  0  0  0  0  0  0  0  0  # atno 17320 bound_to 7965
  146.2802  139.6856  142.9235 LP  0  0  0  0  0  0  0  0  0  0  0  0  # atno 17321 bound_to 7965
  140.6943  143.2394  151.5044 LP  0  0  0  0  0  0  0  0  0  0  0  0  # atno 17342 bound_to 10162
  139.5636  144.2095  152.1731 LP  0  0  0  0  0  0  0  0  0  0  0  0  # atno 17343 bound_to 10162
  157.6824  131.0834  150.7335 LP  0  0  0  0  0  0  0  0  0  0  0  0  # atno 17370 bound_to 10713
  156.7393  130.4734  149.5481 LP  0  0  0  0  0  0  0  0  0  0  0  0  # atno 17371 bound_to 10713
  140.1956  134.4317  155.7691 LP  0  0  0  0  0  0  0  0  0  0  0  0  # atno 17394 bound_to 11000
  141.2226  133.7048  156.8099 LP  0  0  0  0  0  0  0  0  0  0  0  0  # atno 17395 bound_to 11000

$$$$
