AV-unprocessed.smi:1971|AV-procd|sdf|7965|dock10
  -GOLD-   2272010133D 1   1.00000     0.00000
 Structure written by MMmdl.
 44 45  0  0  0  0  0  0  0  0  2 V2000
  150.7307  141.3799  155.8856 C   0  0  0  0  0  0  0  0  0  0  0  0
  151.2317  139.9365  155.7329 C   0  0  0  0  0  0  0  0  0  0  0  0
  150.8680  139.3644  154.4342 N   0  0  0  0  0  0  0  0  0  0  0  0
  151.5514  138.1104  154.0964 C   0  0  0  0  0  0  0  0  0  0  0  0
  151.0745  136.9305  154.9693 C   0  0  0  0  0  0  0  0  0  0  0  0
  149.6068  136.7587  154.8417 N   0  3  0  0  0  0  0  0  0  0  0  0
  149.0783  135.5294  155.5025 C   0  0  1  0  0  0  0  0  0  0  0  0
  147.6957  135.7260  156.1545 C   0  0  0  0  0  0  0  0  0  0  0  0
  149.0851  134.3089  154.5509 C   0  0  0  0  0  0  0  0  0  0  0  0
  148.1648  134.4415  153.4232 N   0  0  0  0  0  0  0  0  0  0  0  0
  147.2253  133.5468  153.0841 C   0  0  0  0  0  0  0  0  0  0  0  0
  147.0568  132.4843  153.6823 O   0  0  0  0  0  0  0  0  0  0  0  0
  146.5158  133.9631  152.0209 N   0  0  0  0  0  0  0  0  0  0  0  0
  145.4494  133.2956  151.3628 C   0  0  0  0  0  0  0  0  0  0  0  0
  144.7219  133.8280  150.3738 N   0  0  0  0  0  0  0  0  0  0  0  0
  143.7402  132.9469  149.9128 C   0  0  0  0  0  0  0  0  0  0  0  0
  143.7334  131.7410  150.5686 C   0  0  0  0  0  0  0  0  0  0  0  0
  144.9664  131.6630  151.7985 S   0  0  0  0  0  0  0  0  0  0  0  0
  148.9025  138.0211  155.1801 C   0  0  0  0  0  0  0  0  0  0  0  0
  149.4219  139.1721  154.2936 C   0  0  0  0  0  0  0  0  0  0  0  0
  150.9019  141.7362  156.9014 H   0  0  0  0  0  0  0  0  0  0  0  0
  149.6604  141.4502  155.6892 H   0  0  0  0  0  0  0  0  0  0  0  0
  151.2454  142.0666  155.2140 H   0  0  0  0  0  0  0  0  0  0  0  0
  152.3058  139.8904  155.9086 H   0  0  0  0  0  0  0  0  0  0  0  0
  150.7661  139.3364  156.5159 H   0  0  0  0  0  0  0  0  0  0  0  0
  151.3528  137.8845  153.0478 H   0  0  0  0  0  0  0  0  0  0  0  0
  152.6315  138.2282  154.1748 H   0  0  0  0  0  0  0  0  0  0  0  0
  151.5760  136.0211  154.6363 H   0  0  0  0  0  0  0  0  0  0  0  0
  151.3570  137.0769  156.0115 H   0  0  0  0  0  0  0  0  0  0  0  0
  149.7724  135.2925  156.3096 H   0  0  0  0  0  0  0  0  0  0  0  0
  147.4092  134.8377  156.7182 H   0  0  0  0  0  0  0  0  0  0  0  0
  146.9160  135.8997  155.4128 H   0  0  0  0  0  0  0  0  0  0  0  0
  147.6895  136.5635  156.8518 H   0  0  0  0  0  0  0  0  0  0  0  0
  150.0944  134.1308  154.1760 H   0  0  0  0  0  0  0  0  0  0  0  0
  148.8054  133.4070  155.0955 H   0  0  0  0  0  0  0  0  0  0  0  0
  148.2269  135.2922  152.8826 H   0  0  0  0  0  0  0  0  0  0  0  0
  146.7621  134.8641  151.6382 H   0  0  0  0  0  0  0  0  0  0  0  0
  143.0873  133.2609  149.1118 H   0  0  0  0  0  0  0  0  0  0  0  0
  143.0803  130.8971  150.4026 H   0  0  0  0  0  0  0  0  0  0  0  0
  147.8321  137.9029  155.0134 H   0  0  0  0  0  0  0  0  0  0  0  0
  149.0302  138.2646  156.2349 H   0  0  0  0  0  0  0  0  0  0  0  0
  148.9015  140.1004  154.5323 H   0  0  0  0  0  0  0  0  0  0  0  0
  149.1982  138.9572  153.2477 H   0  0  0  0  0  0  0  0  0  0  0  0
  149.4476  136.6122  153.8552 H   0  0  0  0  0  0  0  0  0  0  0  0
  1  2  1  0  0  0  0
  1 21  1  0  0  0  0
  1 22  1  0  0  0  0
  1 23  1  0  0  0  0
  2  3  1  0  0  0  0
  2 24  1  0  0  0  0
  2 25  1  0  0  0  0
  3 20  1  0  0  0  0
  3  4  1  0  0  0  0
  4  5  1  0  0  0  0
  4 26  1  0  0  0  0
  4 27  1  0  0  0  0
  5  6  1  0  0  0  0
  5 28  1  0  0  0  0
  5 29  1  0  0  0  0
  6  7  1  0  0  0  0
  6 19  1  0  0  0  0
  6 44  1  0  0  0  0
  7  8  1  0  0  0  0
  7  9  1  0  0  0  0
  7 30  1  0  0  0  0
  8 31  1  0  0  0  0
  8 32  1  0  0  0  0
  8 33  1  0  0  0  0
  9 10  1  0  0  0  0
  9 34  1  0  0  0  0
  9 35  1  0  0  0  0
 10 11  1  0  0  0  0
 10 36  1  0  0  0  0
 11 12  2  0  0  0  0
 11 13  1  0  0  0  0
 13 14  1  0  0  0  0
 13 37  1  0  0  0  0
 14 18  1  0  0  0  0
 14 15  2  0  0  0  0
 15 16  1  0  0  0  0
 16 17  2  0  0  0  0
 16 38  1  0  0  0  0
 17 18  1  0  0  0  0
 17 39  1  0  0  0  0
 19 20  1  0  0  0  0
 19 40  1  0  0  0  0
 19 41  1  0  0  0  0
 20 42  1  0  0  0  0
 20 43  1  0  0  0  0
M  CHG  1   6   1
M  END
> <s_m_source_file>
AV-unprocessed.smi

> <i_m_source_file_index>
1971

> <i_lp_mmshare_version>
43012

> <i_f3d_flags>
0

> <s_epik_input>
W0NIM11bQ0gyXU4xW0NIMl1bQ0gyXU4oW0NIMl1bQ0gyXTEpW0NASF0oW0NIM10pW0NIMl1bTkhdQyg9TylbTkhdYzJuW2NIXVtjSF1zMg==

> <s_epik_cmdline>
J2VwaWtfcHl0aG9uJywgJy1waCcsICc3LjAnLCAnLXRuJywgJzgnLCAnLW1hJywgJzIwMCcsICctbWV0YWxfYmluZGluZycsICctaW1hZScsICc8aW5maWxlLm1hZT4nLCAnLW9tYWUnLCAnPG91dGZpbGUubWFlPic=

> <r_epik_Ionization_Penalty>
0.150098

> <r_epik_Ionization_Penalty_Charging>
0.148467

> <r_epik_Ionization_Penalty_Neutral>
0.00163072

> <r_epik_State_Penalty>
0.974087

> <r_epik_Charging_Adjusted_Penalty>
1.12255

> <i_epik_Tot_Q>
1

> <i_epik_Tot_abs_Q>
1

> <r_epik_Metal_State_Penalty>
1.00741

> <b_epik_Metal_Only>
0

> <s_lp_Force_Field>
OPLS_2005

> <r_lp_Energy>
24.0056

> <b_lp_Chiralities_Consistent>
1

> <s_lp_Variant>
AV-unprocessed.smi:1971-4

> <Gold.Version>
5.8.1

> <Gold.Id.Protein>
6NUR|6NUR_protein|mol2

> <Gold.PLP.Fitness>
45.3045

> <Gold.PLP.PLP>
-31.0448

> <Gold.PLP.part.hbond>
-2.8522

> <Gold.PLP.part.metal>
0.0000

> <Gold.PLP.part.buried>
-3.4068

> <Gold.PLP.part.nonpolar>
-25.8270

> <Gold.PLP.part.repulsive>
0.4223

> <Gold.PLP.ligand.clash>
0.0000

> <Gold.PLP.ligand.torsion>
1.1173

> <Gold.PLP.Chemscore.Hbond>
3.6075

> <Gold.PLP.Chemscore.CHOScore>
1.8497

> <Gold.PLP.Chemscore.Metal>
0.0000

> <Gold.Chemscore.Hbonds>
donor molecule, donor type, donor heavy atom, donor atom, acceptor molecule, acceptor atom, score
      L1  H     6    44       P1  7948  1.85
      L1  H    10    36       P1  7948  1.00
      P1  H  7989  7998       L1     3  0.60
      L1  C    16    38       P1 10186  0.84
      L1  C    17    39       P1 10952  1.00

> <Gold.PLP.Chemscore.Internal.Correction>
0.1228

> <Gold.Rescore>
     Score         DG    S(hbond)    S(metal)    S(lipo)     H(rot)  DE(clash)    DE(int)     intcor
     12.66     -15.27       1.66        0.00      75.41       1.79       0.26       2.35       ----

> <Gold.Chemscore.Fitness>
12.6597

> <Gold.Chemscore.DG>
-15.2689

> <Gold.Chemscore.ZeroCoef>
-5.4800

> <Gold.Chemscore.Hbond>
1.6641

> <Gold.Chemscore.Metal>
0.0000

> <Gold.Chemscore.Lipo>
75.4086

> <Gold.Chemscore.Internal_Hbond>
0.0000

> <Gold.Chemscore.DEClash>
0.2631

> <Gold.Chemscore.DEInternal>
2.3461

> <Gold.Chemscore.Rot>
1.7937

> <Gold.Chemscore.Internal.Correction>
   9.000000E+99

> <Gold.Chemscore.Hbonds>
donor molecule, donor type, donor heavy atom, donor atom, acceptor molecule, acceptor atom, score
      L1  H     6    44       P1  7948  0.78
      L1  H    10    36       P1  7948  0.87
      P1  H  7989  7998       L1     3  0.03

> <Gold.Chemscore.Hbond.Weighted>
-5.5581

> <Gold.Chemscore.Metal.Weighted>
-0.0000

> <Gold.Chemscore.Lipo.Weighted>
-8.8228

> <Gold.Chemscore.Internal_Hbond.Weighted>
0.0000

> <Gold.Chemscore.DEClash.Weighted>
0.2631

> <Gold.Chemscore.DEInternal.Weighted>
2.3461

> <Gold.Chemscore.Rot.Weighted>
4.5919

> <Gold.Chemscore.Internal.Correction.Weighted>
   9.000000E+99

> <Gold.Protein.RotatedTorsions>
[ 6907 6896 6895 6894 ] final  -86.27 input  -60.11 | X-H torsion
[ 7974 7965 7964 7962 ] final  -68.84 input  175.53 | X-H torsion
[ 8008 7997 7996 7995 ] final -155.72 input   59.86 | X-H torsion
[ 10167 10162 10161 10158 ] final -156.29 input  -65.29 | X-H torsion
[ 10718 10713 10712 10709 ] final -132.05 input   66.30 | X-H torsion
[ 10763 10752 10751 10750 ] final  112.51 input  -60.55 | X-H torsion
[ 11005 11000 10999 10996 ] final -102.89 input  -57.11 | X-H torsion

> <Gold.Protein.ActiveResidues>
 VAL166  LYS551  ARG553  GLY616  TRP617  ASP618  TYR619  PRO620  LYS621  CYS622 
 ASP623  PHE694  ASN695  SER759  ASP760  ASP761  ALA762  ILE779  LEU786  VAL792 
 PHE793  MET794  SER795  GLU796  ALA797  LYS798  CYS799  TRP800  GLU811  SER814 

> <Gold.Protein.RotatedAtoms>
  150.6867  134.3076  159.4732 H   0  0  0  0  0  0  0  0  0  0  0  0  # atno 6907 bound_to 6896
  152.0965  134.9369  160.0580 H   0  0  0  0  0  0  0  0  0  0  0  0  # atno 6908 bound_to 6896
  152.0664  133.4051  159.4477 H   0  0  0  0  0  0  0  0  0  0  0  0  # atno 6909 bound_to 6896
  145.7114  140.9077  143.0678 H   0  0  0  0  0  0  0  0  0  0  0  0  # atno 7974 bound_to 7965
  155.7062  140.0772  157.2390 H   0  0  0  0  0  0  0  0  0  0  0  0  # atno 8008 bound_to 7997
  154.4065  140.1638  156.2298 H   0  0  0  0  0  0  0  0  0  0  0  0  # atno 8009 bound_to 7997
  155.9324  140.3390  155.6263 H   0  0  0  0  0  0  0  0  0  0  0  0  # atno 8010 bound_to 7997
  139.6862  143.9497  152.2362 H   0  0  0  0  0  0  0  0  0  0  0  0  # atno 10167 bound_to 10162
  156.2306  130.7035  151.0854 H   0  0  0  0  0  0  0  0  0  0  0  0  # atno 10718 bound_to 10713
  153.4788  135.3684  155.2431 H   0  0  0  0  0  0  0  0  0  0  0  0  # atno 10763 bound_to 10752
  154.8755  135.3949  154.3724 H   0  0  0  0  0  0  0  0  0  0  0  0  # atno 10764 bound_to 10752
  153.4324  135.7082  153.6287 H   0  0  0  0  0  0  0  0  0  0  0  0  # atno 10765 bound_to 10752
  141.1170  133.8595  157.1416 H   0  0  0  0  0  0  0  0  0  0  0  0  # atno 11005 bound_to 11000
  144.6941  139.9080  143.7462 LP  0  0  0  0  0  0  0  0  0  0  0  0  # atno 17320 bound_to 7965
  146.0709  139.3698  143.0524 LP  0  0  0  0  0  0  0  0  0  0  0  0  # atno 17321 bound_to 7965
  139.9301  144.6747  150.8372 LP  0  0  0  0  0  0  0  0  0  0  0  0  # atno 17342 bound_to 10162
  140.7668  143.3315  151.2400 LP  0  0  0  0  0  0  0  0  0  0  0  0  # atno 17343 bound_to 10162
  157.7131  131.0724  150.6428 LP  0  0  0  0  0  0  0  0  0  0  0  0  # atno 17370 bound_to 10713
  156.6495  130.4481  149.5724 LP  0  0  0  0  0  0  0  0  0  0  0  0  # atno 17371 bound_to 10713
  140.0099  134.9992  157.0372 LP  0  0  0  0  0  0  0  0  0  0  0  0  # atno 17394 bound_to 11000
  140.4618  134.1476  155.7192 LP  0  0  0  0  0  0  0  0  0  0  0  0  # atno 17395 bound_to 11000

$$$$
