AV-unprocessed.smi:227|AV-procd|sdf|1731|dock8
  -GOLD-   2262020223D 1   1.00000     0.00000
 Structure written by MMmdl.
 54 58  0  0  0  0  0  0  0  0  1 V2000
  149.5203  137.5567  159.2609 O   0  0  0  0  0  0  0  0  0  0  0  0
  150.2907  137.9885  158.1570 C   0  0  0  0  0  0  0  0  0  0  0  0
  149.8053  137.3541  156.8268 C   0  0  2  0  0  0  0  0  0  0  0  0
  149.9416  135.8077  156.8219 C   0  0  0  0  0  0  0  0  0  0  0  0
  149.2377  135.1616  155.7293 N   0  0  0  0  0  0  0  0  0  0  0  0
  149.7991  134.4176  154.7186 C   0  0  0  0  0  0  0  0  0  0  0  0
  148.9560  133.9595  153.8348 N   0  0  0  0  0  0  0  0  0  0  0  0
  147.7182  134.4258  154.2640 C   0  0  0  0  0  0  0  0  0  0  0  0
  146.3866  134.3322  153.7635 C   0  0  0  0  0  0  0  0  0  0  0  0
  146.0541  133.7015  152.6044 N   0  0  0  0  0  0  0  0  0  0  0  0
  144.6684  133.3869  152.2913 C   0  0  2  0  0  0  0  0  0  0  0  0
  144.8104  132.5014  151.0414 C   0  0  0  0  0  0  0  0  0  0  0  0
  146.0245  133.1467  150.3528 C   0  0  0  0  0  0  0  0  0  0  0  0
  146.3340  134.3109  151.3116 C   0  0  1  0  0  0  0  0  0  0  0  0
  145.2434  135.3974  151.1298 C   0  0  2  0  0  0  0  0  0  0  0  0
  145.6403  136.7896  151.6598 C   0  0  0  0  0  0  0  0  0  0  0  0
  146.3118  137.5197  150.6555 O   0  0  0  0  0  0  0  0  0  0  0  0
  144.0647  134.7471  151.8829 C   0  0  0  0  0  0  0  0  0  0  0  0
  145.4028  134.9093  154.5038 N   0  0  0  0  0  0  0  0  0  0  0  0
  145.6955  135.5643  155.6303 C   0  0  0  0  0  0  0  0  0  0  0  0
  146.8877  135.7593  156.1948 N   0  0  0  0  0  0  0  0  0  0  0  0
  147.8783  135.1636  155.4718 C   0  0  0  0  0  0  0  0  0  0  0  0
  150.5524  137.9600  155.6092 C   0  0  2  0  0  0  0  0  0  0  0  0
  152.0677  137.8421  155.6561 C   0  0  0  0  0  0  0  0  0  0  0  0
  152.5120  138.8947  154.6463 C   0  0  0  0  0  0  0  0  0  0  0  0
  151.5238  139.9168  154.6920 O   0  0  0  0  0  0  0  0  0  0  0  0
  150.4074  139.4794  155.4589 C   0  0  0  0  0  0  0  0  0  0  0  0
  149.4789  136.6124  159.2483 H   0  0  0  0  0  0  0  0  0  0  0  0
  150.2049  139.0732  158.1368 H   0  0  0  0  0  0  0  0  0  0  0  0
  151.3432  137.7633  158.3323 H   0  0  0  0  0  0  0  0  0  0  0  0
  148.7483  137.5983  156.7079 H   0  0  0  0  0  0  0  0  0  0  0  0
  150.9885  135.5132  156.7497 H   0  0  0  0  0  0  0  0  0  0  0  0
  149.5727  135.3970  157.7623 H   0  0  0  0  0  0  0  0  0  0  0  0
  150.8617  134.2347  154.6514 H   0  0  0  0  0  0  0  0  0  0  0  0
  144.1170  132.8916  153.0913 H   0  0  0  0  0  0  0  0  0  0  0  0
  145.0288  131.4687  151.3158 H   0  0  0  0  0  0  0  0  0  0  0  0
  143.9152  132.5069  150.4183 H   0  0  0  0  0  0  0  0  0  0  0  0
  146.8588  132.4450  150.3148 H   0  0  0  0  0  0  0  0  0  0  0  0
  145.8134  133.4736  149.3341 H   0  0  0  0  0  0  0  0  0  0  0  0
  147.3461  134.6853  151.1703 H   0  0  0  0  0  0  0  0  0  0  0  0
  145.0066  135.4983  150.0692 H   0  0  0  0  0  0  0  0  0  0  0  0
  144.7736  137.3635  151.9857 H   0  0  0  0  0  0  0  0  0  0  0  0
  146.3035  136.6928  152.5198 H   0  0  0  0  0  0  0  0  0  0  0  0
  145.6758  138.0319  150.1798 H   0  0  0  0  0  0  0  0  0  0  0  0
  143.1740  134.6430  151.2622 H   0  0  0  0  0  0  0  0  0  0  0  0
  143.7875  135.3269  152.7644 H   0  0  0  0  0  0  0  0  0  0  0  0
  144.8548  135.9991  156.1500 H   0  0  0  0  0  0  0  0  0  0  0  0
  150.1963  137.4859  154.6928 H   0  0  0  0  0  0  0  0  0  0  0  0
  152.4396  138.0978  156.6494 H   0  0  0  0  0  0  0  0  0  0  0  0
  152.4378  136.8501  155.3976 H   0  0  0  0  0  0  0  0  0  0  0  0
  153.5046  139.2883  154.8657 H   0  0  0  0  0  0  0  0  0  0  0  0
  152.5282  138.4738  153.6404 H   0  0  0  0  0  0  0  0  0  0  0  0
  149.4718  139.7658  154.9779 H   0  0  0  0  0  0  0  0  0  0  0  0
  150.4500  139.9702  156.4323 H   0  0  0  0  0  0  0  0  0  0  0  0
  1  2  1  0  0  0  0
  1 28  1  0  0  0  0
  2  3  1  0  0  0  0
  2 29  1  0  0  0  0
  2 30  1  0  0  0  0
  3  4  1  0  0  0  0
  3 23  1  0  0  0  0
  3 31  1  0  0  0  0
  4  5  1  0  0  0  0
  4 32  1  0  0  0  0
  4 33  1  0  0  0  0
  5 22  1  0  0  0  0
  5  6  1  0  0  0  0
  6  7  2  0  0  0  0
  6 34  1  0  0  0  0
  7  8  1  0  0  0  0
  8 22  2  0  0  0  0
  8  9  1  0  0  0  0
  9 10  1  0  0  0  0
  9 19  2  0  0  0  0
 10 14  1  0  0  0  0
 10 11  1  0  0  0  0
 11 18  1  0  0  0  0
 11 12  1  0  0  0  0
 11 35  1  0  0  0  0
 12 13  1  0  0  0  0
 12 36  1  0  0  0  0
 12 37  1  0  0  0  0
 13 14  1  0  0  0  0
 13 38  1  0  0  0  0
 13 39  1  0  0  0  0
 14 15  1  0  0  0  0
 14 40  1  0  0  0  0
 15 16  1  0  0  0  0
 15 18  1  0  0  0  0
 15 41  1  0  0  0  0
 16 17  1  0  0  0  0
 16 42  1  0  0  0  0
 16 43  1  0  0  0  0
 17 44  1  0  0  0  0
 18 45  1  0  0  0  0
 18 46  1  0  0  0  0
 19 20  1  0  0  0  0
 20 21  2  0  0  0  0
 20 47  1  0  0  0  0
 21 22  1  0  0  0  0
 23 27  1  0  0  0  0
 23 24  1  0  0  0  0
 23 48  1  0  0  0  0
 24 25  1  0  0  0  0
 24 49  1  0  0  0  0
 24 50  1  0  0  0  0
 25 26  1  0  0  0  0
 25 51  1  0  0  0  0
 25 52  1  0  0  0  0
 26 27  1  0  0  0  0
 27 53  1  0  0  0  0
 27 54  1  0  0  0  0
M  END
> <s_m_source_file>
AV-unprocessed.smi

> <i_m_source_file_index>
227

> <i_lp_mmshare_version>
43012

> <i_f3d_flags>
0

> <s_epik_input>
W0NIMl0xT1tDSDJdW0NIMl1bQ0BIXTFbQ0BIXShbQ0gyXVtPSF0pW0NIMl1uKFtjSF1uMiljKGMyMyluW2NIXW5jM04oW0NASF00NSlbQ0BASF0oW0NIMl1bQ0gyXTQpW0NASF0oW0NIMl01KVtDSDJdW09IXQ==

> <s_epik_cmdline>
J2VwaWtfcHl0aG9uJywgJy1waCcsICc3LjAnLCAnLXRuJywgJzgnLCAnLW1hJywgJzIwMCcsICctbWV0YWxfYmluZGluZycsICctaW1hZScsICc8aW5maWxlLm1hZT4nLCAnLW9tYWUnLCAnPG91dGZpbGUubWFlPic=

> <r_lp_tautomer_probability>
1

> <r_epik_Ionization_Penalty>
0.0055791

> <r_epik_Ionization_Penalty_Charging>
0

> <r_epik_Ionization_Penalty_Neutral>
0.0055791

> <r_epik_State_Penalty>
0.00401299

> <r_epik_Charging_Adjusted_Penalty>
0.00401299

> <i_epik_Tot_Q>
0

> <i_epik_Tot_abs_Q>
0

> <r_epik_Metal_State_Penalty>
-0

> <b_epik_Metal_Only>
0

> <s_lp_Force_Field>
OPLS_2005

> <r_lp_Energy>
88.0051

> <b_lp_Chiralities_Consistent>
1

> <s_lp_Variant>
AV-unprocessed.smi:227-5

> <Gold.Version>
5.8.1

> <Gold.Id.Protein>
6NUR|6NUR_protein|mol2

> <Gold.PLP.Fitness>
43.8206

> <Gold.PLP.PLP>
-36.0711

> <Gold.PLP.part.hbond>
-4.5506

> <Gold.PLP.part.metal>
0.0000

> <Gold.PLP.part.buried>
-6.1676

> <Gold.PLP.part.nonpolar>
-26.2345

> <Gold.PLP.part.repulsive>
0.9672

> <Gold.PLP.ligand.clash>
0.0000

> <Gold.PLP.ligand.torsion>
0.7324

> <Gold.PLP.Chemscore.Hbond>
2.9913

> <Gold.PLP.Chemscore.CHOScore>
0.0000

> <Gold.PLP.Chemscore.Metal>
0.0000

> <Gold.Chemscore.Hbonds>
donor molecule, donor type, donor heavy atom, donor atom, acceptor molecule, acceptor atom, score
      L1  H    17    44       P1 10171  1.00
      P1  H  7954  7966       L1    17  0.99
      P1  H  7989  7998       L1    26  0.99

> <Gold.PLP.Chemscore.Internal.Correction>
0.2405

> <Gold.Rescore>
     Score         DG    S(hbond)    S(metal)    S(lipo)     H(rot)  DE(clash)    DE(int)     intcor
      9.88     -12.70       2.29        0.00      75.40       3.61       0.32       2.51       ----

> <Gold.Chemscore.Fitness>
9.8778

> <Gold.Chemscore.DG>
-12.6997

> <Gold.Chemscore.ZeroCoef>
-5.4800

> <Gold.Chemscore.Hbond>
2.2851

> <Gold.Chemscore.Metal>
0.0000

> <Gold.Chemscore.Lipo>
75.3992

> <Gold.Chemscore.Internal_Hbond>
0.0000

> <Gold.Chemscore.DEClash>
0.3166

> <Gold.Chemscore.DEInternal>
2.5052

> <Gold.Chemscore.Rot>
3.6071

> <Gold.Chemscore.Internal.Correction>
   9.000000E+99

> <Gold.Chemscore.Hbonds>
donor molecule, donor type, donor heavy atom, donor atom, acceptor molecule, acceptor atom, score
      L1  H    17    44       P1 10171  0.97
      P1  H  7954  7966       L1    17  0.61
      P1  H  7989  7998       L1    26  0.72

> <Gold.Chemscore.Hbond.Weighted>
-7.6321

> <Gold.Chemscore.Metal.Weighted>
-0.0000

> <Gold.Chemscore.Lipo.Weighted>
-8.8217

> <Gold.Chemscore.Internal_Hbond.Weighted>
0.0000

> <Gold.Chemscore.DEClash.Weighted>
0.3166

> <Gold.Chemscore.DEInternal.Weighted>
2.5052

> <Gold.Chemscore.Rot.Weighted>
9.2342

> <Gold.Chemscore.Internal.Correction.Weighted>
   9.000000E+99

> <Gold.Protein.RotatedTorsions>
[ 6907 6896 6895 6894 ] final -127.17 input  -60.11 | X-H torsion
[ 7974 7965 7964 7962 ] final -154.07 input  175.53 | X-H torsion
[ 8008 7997 7996 7995 ] final   74.88 input   59.86 | X-H torsion
[ 10167 10162 10161 10158 ] final  -23.72 input  -65.29 | X-H torsion
[ 10718 10713 10712 10709 ] final -156.77 input   66.30 | X-H torsion
[ 10763 10752 10751 10750 ] final  170.66 input  -60.55 | X-H torsion
[ 11005 11000 10999 10996 ] final   90.81 input  -57.11 | X-H torsion

> <Gold.Protein.ActiveResidues>
 VAL166  LYS551  ARG553  GLY616  TRP617  ASP618  TYR619  PRO620  LYS621  CYS622 
 ASP623  PHE694  ASN695  SER759  ASP760  ASP761  ALA762  ILE779  LEU786  VAL792 
 PHE793  MET794  SER795  GLU796  ALA797  LYS798  CYS799  TRP800  GLU811  SER814 

> <Gold.Protein.RotatedAtoms>
  150.9045  133.7076  159.2870 H   0  0  0  0  0  0  0  0  0  0  0  0  # atno 6907 bound_to 6896
  151.4583  135.1035  159.9727 H   0  0  0  0  0  0  0  0  0  0  0  0  # atno 6908 bound_to 6896
  152.4896  133.8414  159.7210 H   0  0  0  0  0  0  0  0  0  0  0  0  # atno 6909 bound_to 6896
  144.7708  140.4439  143.5908 H   0  0  0  0  0  0  0  0  0  0  0  0  # atno 7974 bound_to 7965
  155.8048  140.3475  155.5424 H   0  0  0  0  0  0  0  0  0  0  0  0  # atno 8008 bound_to 7997
  155.8501  140.0955  157.1701 H   0  0  0  0  0  0  0  0  0  0  0  0  # atno 8009 bound_to 7997
  154.4007  140.1378  156.3821 H   0  0  0  0  0  0  0  0  0  0  0  0  # atno 8010 bound_to 7997
  140.7288  143.4418  151.0646 H   0  0  0  0  0  0  0  0  0  0  0  0  # atno 10167 bound_to 10162
  156.5312  130.8521  151.2716 H   0  0  0  0  0  0  0  0  0  0  0  0  # atno 10718 bound_to 10713
  154.4008  135.2755  155.2097 H   0  0  0  0  0  0  0  0  0  0  0  0  # atno 10763 bound_to 10752
  154.4124  135.6019  153.5964 H   0  0  0  0  0  0  0  0  0  0  0  0  # atno 10764 bound_to 10752
  152.9831  135.5952  154.4276 H   0  0  0  0  0  0  0  0  0  0  0  0  # atno 10765 bound_to 10752
  139.8849  134.8636  156.3338 H   0  0  0  0  0  0  0  0  0  0  0  0  # atno 11005 bound_to 11000
  145.6330  139.1539  143.2958 LP  0  0  0  0  0  0  0  0  0  0  0  0  # atno 17320 bound_to 7965
  146.1853  140.6432  142.9170 LP  0  0  0  0  0  0  0  0  0  0  0  0  # atno 17321 bound_to 7965
  139.8086  143.7983  152.3169 LP  0  0  0  0  0  0  0  0  0  0  0  0  # atno 17342 bound_to 10162
  139.8025  144.7368  150.9806 LP  0  0  0  0  0  0  0  0  0  0  0  0  # atno 17343 bound_to 10162
  157.7421  130.9884  150.2495 LP  0  0  0  0  0  0  0  0  0  0  0  0  # atno 17370 bound_to 10713
  156.3058  130.3765  149.7707 LP  0  0  0  0  0  0  0  0  0  0  0  0  # atno 17371 bound_to 10713
  140.9705  133.7330  156.0528 LP  0  0  0  0  0  0  0  0  0  0  0  0  # atno 17394 bound_to 11000
  140.7876  134.3654  157.5472 LP  0  0  0  0  0  0  0  0  0  0  0  0  # atno 17395 bound_to 11000

$$$$
