AV-unprocessed.smi:109|AV-procd|sdf|1048|dock2
  -GOLD-   2262018 93D 1   1.00000     0.00000
 Structure written by MMmdl.
 58 61  0  0  0  0  0  0  0  0  1 V2000
  149.2268  141.0375  153.4182 O   0  0  0  0  0  0  0  0  0  0  0  0
  149.2350  140.6529  154.7761 C   0  0  0  0  0  0  0  0  0  0  0  0
  149.9297  141.7329  155.6241 C   0  0  0  0  0  0  0  0  0  0  0  0
  150.4422  141.2293  156.9961 C   0  0  1  0  0  0  0  0  0  0  0  0
  151.0796  139.9211  156.8273 N   0  0  0  0  0  0  0  0  0  0  0  0
  151.0873  138.9942  157.8112 C   0  0  0  0  0  0  0  0  0  0  0  0
  152.2002  138.7537  158.5524 N   0  0  0  0  0  0  0  0  0  0  0  0
  152.1737  137.8359  159.5236 C   0  0  0  0  0  0  0  0  0  0  0  0
  151.1576  137.0628  159.9137 N   0  0  0  0  0  0  0  0  0  0  0  0
  150.0383  137.3013  159.1705 C   0  0  0  0  0  0  0  0  0  0  0  0
  149.9229  138.2414  158.1100 C   0  0  0  0  0  0  0  0  0  0  0  0
  148.6339  138.2124  157.5946 N   0  0  0  0  0  0  0  0  0  0  0  0
  148.0248  137.3114  158.3184 C   0  0  0  0  0  0  0  0  0  0  0  0
  148.7978  136.7145  159.2918 N   0  0  0  0  0  0  0  0  0  0  0  0
  148.4196  135.6660  160.2946 C   0  0  2  0  0  0  0  0  0  0  0  0
  148.0514  134.5232  159.5825 O   0  0  0  0  0  0  0  0  0  0  0  0
  146.6740  134.2179  159.7859 C   0  0  2  0  0  0  0  0  0  0  0  0
  146.0532  133.7147  158.4723 C   0  0  0  0  0  0  0  0  0  0  0  0
  144.6767  133.4524  158.6402 O   0  0  0  0  0  0  0  0  0  0  0  0
  146.0498  135.5008  160.3477 C   0  0  1  0  0  0  0  0  0  0  0  0
  144.9713  135.2013  161.2110 O   0  0  0  0  0  0  0  0  0  0  0  0
  147.2030  136.1001  161.1348 C   0  0  2  0  0  0  0  0  0  0  0  0
  147.0509  137.5028  161.2634 O   0  0  0  0  0  0  0  0  0  0  0  0
  151.4381  142.2033  157.6888 C   0  0  0  0  0  0  0  0  0  0  0  0
  151.7283  141.7542  159.1441 C   0  0  0  0  0  0  0  0  0  0  0  0
  152.7062  142.6930  159.8677 C   0  0  0  0  0  0  0  0  0  0  0  0
  152.1901  144.1366  159.8667 C   0  0  0  0  0  0  0  0  0  0  0  0
  151.9235  144.6114  158.4335 C   0  0  0  0  0  0  0  0  0  0  0  0
  150.9489  143.6735  157.7023 C   0  0  0  0  0  0  0  0  0  0  0  0
  149.3252  135.4980  160.8789 H   0  0  0  0  0  0  0  0  0  0  0  0
  146.6484  133.4286  160.5401 H   0  0  0  0  0  0  0  0  0  0  0  0
  145.7348  136.1659  159.5419 H   0  0  0  0  0  0  0  0  0  0  0  0
  147.2920  135.6337  162.1173 H   0  0  0  0  0  0  0  0  0  0  0  0
  149.3996  140.2747  152.8877 H   0  0  0  0  0  0  0  0  0  0  0  0
  148.2070  140.5061  155.1080 H   0  0  0  0  0  0  0  0  0  0  0  0
  149.7464  139.6939  154.8593 H   0  0  0  0  0  0  0  0  0  0  0  0
  150.7550  142.1706  155.0602 H   0  0  0  0  0  0  0  0  0  0  0  0
  149.2022  142.5290  155.7736 H   0  0  0  0  0  0  0  0  0  0  0  0
  149.5777  141.1553  157.6551 H   0  0  0  0  0  0  0  0  0  0  0  0
  151.3845  139.7107  155.8878 H   0  0  0  0  0  0  0  0  0  0  0  0
  153.0983  137.7043  160.0663 H   0  0  0  0  0  0  0  0  0  0  0  0
  146.9868  137.0630  158.1598 H   0  0  0  0  0  0  0  0  0  0  0  0
  146.1916  134.4340  157.6654 H   0  0  0  0  0  0  0  0  0  0  0  0
  146.5365  132.7877  158.1631 H   0  0  0  0  0  0  0  0  0  0  0  0
  144.3750  133.9095  159.4105 H   0  0  0  0  0  0  0  0  0  0  0  0
  144.1669  135.4368  160.7745 H   0  0  0  0  0  0  0  0  0  0  0  0
  146.4797  137.6760  161.9963 H   0  0  0  0  0  0  0  0  0  0  0  0
  152.3777  142.1751  157.1344 H   0  0  0  0  0  0  0  0  0  0  0  0
  150.7934  141.7059  159.7043 H   0  0  0  0  0  0  0  0  0  0  0  0
  152.1445  140.7468  159.1617 H   0  0  0  0  0  0  0  0  0  0  0  0
  152.8556  142.3536  160.8930 H   0  0  0  0  0  0  0  0  0  0  0  0
  153.6819  142.6507  159.3819 H   0  0  0  0  0  0  0  0  0  0  0  0
  151.2721  144.2005  160.4524 H   0  0  0  0  0  0  0  0  0  0  0  0
  152.9139  144.7936  160.3499 H   0  0  0  0  0  0  0  0  0  0  0  0
  151.5218  145.6251  158.4478 H   0  0  0  0  0  0  0  0  0  0  0  0
  152.8644  144.6607  157.8839 H   0  0  0  0  0  0  0  0  0  0  0  0
  150.8330  144.0525  156.6883 H   0  0  0  0  0  0  0  0  0  0  0  0
  149.9660  143.7307  158.1718 H   0  0  0  0  0  0  0  0  0  0  0  0
  1  2  1  0  0  0  0
  1 34  1  0  0  0  0
  2  3  1  0  0  0  0
  2 35  1  0  0  0  0
  2 36  1  0  0  0  0
  3  4  1  0  0  0  0
  3 37  1  0  0  0  0
  3 38  1  0  0  0  0
  4  5  1  0  0  0  0
  4 24  1  0  0  0  0
  4 39  1  0  0  0  0
  5  6  1  0  0  0  0
  5 40  1  0  0  0  0
  6 11  1  0  0  0  0
  6  7  2  0  0  0  0
  7  8  1  0  0  0  0
  8  9  2  0  0  0  0
  8 41  1  0  0  0  0
  9 10  1  0  0  0  0
 10 14  1  0  0  0  0
 10 11  2  0  0  0  0
 11 12  1  0  0  0  0
 12 13  2  0  0  0  0
 13 14  1  0  0  0  0
 13 42  1  0  0  0  0
 14 15  1  0  0  0  0
 15 30  1  0  0  0  0
 15 22  1  0  0  0  0
 15 16  1  0  0  0  0
 16 17  1  0  0  0  0
 17 31  1  0  0  0  0
 17 18  1  0  0  0  0
 17 20  1  0  0  0  0
 18 19  1  0  0  0  0
 18 43  1  0  0  0  0
 18 44  1  0  0  0  0
 19 45  1  0  0  0  0
 20 32  1  0  0  0  0
 20 21  1  0  0  0  0
 20 22  1  0  0  0  0
 21 46  1  0  0  0  0
 22 33  1  0  0  0  0
 22 23  1  0  0  0  0
 23 47  1  0  0  0  0
 24 29  1  0  0  0  0
 24 25  1  0  0  0  0
 24 48  1  0  0  0  0
 25 26  1  0  0  0  0
 25 49  1  0  0  0  0
 25 50  1  0  0  0  0
 26 27  1  0  0  0  0
 26 51  1  0  0  0  0
 26 52  1  0  0  0  0
 27 28  1  0  0  0  0
 27 53  1  0  0  0  0
 27 54  1  0  0  0  0
 28 29  1  0  0  0  0
 28 55  1  0  0  0  0
 28 56  1  0  0  0  0
 29 57  1  0  0  0  0
 29 58  1  0  0  0  0
M  END
> <s_m_source_file>
AV-unprocessed.smi

> <i_m_source_file_index>
109

> <i_lp_mmshare_version>
43012

> <i_f3d_flags>
0

> <s_epik_input>
W0NIMl0xW0NIMl1bQ0gyXVtDSDJdW0NIMl1bQ0hdMVtDQEhdKFtDSDJdW0NIMl1bT0hdKVtOSF1jKG5bY0hdbjIpYyhjMjMpbltjSF1uM1tDQEBIXTRPW0NASF0oW0NIMl1bT0hdKVtDQEBIXShbT0hdKVtDQEhdNFtPSF0=

> <s_epik_cmdline>
J2VwaWtfcHl0aG9uJywgJy1waCcsICc3LjAnLCAnLXRuJywgJzgnLCAnLW1hJywgJzIwMCcsICctbWV0YWxfYmluZGluZycsICctaW1hZScsICc8aW5maWxlLm1hZT4nLCAnLW9tYWUnLCAnPG91dGZpbGUubWFlPic=

> <r_lp_tautomer_probability>
1

> <r_epik_Ionization_Penalty>
0.000793976

> <r_epik_Ionization_Penalty_Charging>
0

> <r_epik_Ionization_Penalty_Neutral>
0.000793976

> <r_epik_State_Penalty>
-0

> <r_epik_Charging_Adjusted_Penalty>
0

> <i_epik_Tot_Q>
0

> <i_epik_Tot_abs_Q>
0

> <r_epik_Metal_State_Penalty>
-0

> <b_epik_Metal_Only>
0

> <s_epik_Chemistry_Notes>
This compound contains an acetal/aminal-like group ( X-CH(R)-Y where X, Y are N, S, or O) that may be acid/base labile, releasing an aldehyde.

> <s_lp_Force_Field>
OPLS_2005

> <r_lp_Energy>
53.2153

> <b_lp_Chiralities_Consistent>
1

> <s_lp_Variant>
AV-unprocessed.smi:109-18

> <Gold.Version>
5.8.1

> <Gold.Id.Protein>
6NUR|6NUR_protein|mol2

> <Gold.PLP.Fitness>
54.0397

> <Gold.PLP.PLP>
-45.0215

> <Gold.PLP.part.hbond>
-5.7087

> <Gold.PLP.part.metal>
0.0000

> <Gold.PLP.part.buried>
-5.0248

> <Gold.PLP.part.nonpolar>
-35.1060

> <Gold.PLP.part.repulsive>
0.0723

> <Gold.PLP.ligand.clash>
0.0000

> <Gold.PLP.ligand.torsion>
1.4044

> <Gold.PLP.Chemscore.Hbond>
3.8869

> <Gold.PLP.Chemscore.CHOScore>
0.0000

> <Gold.PLP.Chemscore.Metal>
0.0000

> <Gold.Chemscore.Hbonds>
donor molecule, donor type, donor heavy atom, donor atom, acceptor molecule, acceptor atom, score
      L1  H     1    34       P1  7957  0.66
      P1  H  6896  6907       L1     9  1.00
      P1  H  6931  6943       L1    23  0.38
      P1  H  6934  6947       L1    23  0.60
      P1  H  8011  8017       L1     1  1.00

> <Gold.PLP.Chemscore.Internal.Correction>
0.1663

> <Gold.Rescore>
     Score         DG    S(hbond)    S(metal)    S(lipo)     H(rot)  DE(clash)    DE(int)     intcor
     10.14     -11.91       2.49        0.00     103.62       5.47       0.26       1.51       ----

> <Gold.Chemscore.Fitness>
10.1371

> <Gold.Chemscore.DG>
-11.9114

> <Gold.Chemscore.ZeroCoef>
-5.4800

> <Gold.Chemscore.Hbond>
2.4854

> <Gold.Chemscore.Metal>
0.0000

> <Gold.Chemscore.Lipo>
103.6207

> <Gold.Chemscore.Internal_Hbond>
0.0000

> <Gold.Chemscore.DEClash>
0.2632

> <Gold.Chemscore.DEInternal>
1.5110

> <Gold.Chemscore.Rot>
5.4662

> <Gold.Chemscore.Internal.Correction>
   9.000000E+99

> <Gold.Chemscore.Hbonds>
donor molecule, donor type, donor heavy atom, donor atom, acceptor molecule, acceptor atom, score
      L1  H     1    34       P1  7957  0.66
      P1  H  6896  6907       L1     9  0.58
      P1  H  6931  6943       L1    23  0.09
      P1  H  6934  6947       L1    23  0.04
      P1  H  8011  8017       L1     1  0.34

> <Gold.Chemscore.Hbond.Weighted>
-8.3013

> <Gold.Chemscore.Metal.Weighted>
-0.0000

> <Gold.Chemscore.Lipo.Weighted>
-12.1236

> <Gold.Chemscore.Internal_Hbond.Weighted>
0.0000

> <Gold.Chemscore.DEClash.Weighted>
0.2632

> <Gold.Chemscore.DEInternal.Weighted>
1.5110

> <Gold.Chemscore.Rot.Weighted>
13.9935

> <Gold.Chemscore.Internal.Correction.Weighted>
   9.000000E+99

> <Gold.Protein.RotatedTorsions>
[ 6907 6896 6895 6894 ] final   -9.28 input  -60.11 | X-H torsion
[ 7974 7965 7964 7962 ] final -179.84 input  175.53 | X-H torsion
[ 8008 7997 7996 7995 ] final   -4.31 input   59.86 | X-H torsion
[ 10167 10162 10161 10158 ] final   38.95 input  -65.29 | X-H torsion
[ 10718 10713 10712 10709 ] final -138.36 input   66.30 | X-H torsion
[ 10763 10752 10751 10750 ] final   76.21 input  -60.55 | X-H torsion
[ 11005 11000 10999 10996 ] final  -20.04 input  -57.11 | X-H torsion

> <Gold.Protein.ActiveResidues>
 VAL166  LYS551  ARG553  GLY616  TRP617  ASP618  TYR619  PRO620  LYS621  CYS622 
 ASP623  PHE694  ASN695  SER759  ASP760  ASP761  ALA762  ILE779  LEU786  VAL792 
 PHE793  MET794  SER795  GLU796  ALA797  LYS798  CYS799  TRP800  GLU811  SER814 

> <Gold.Protein.RotatedAtoms>
  151.4202  135.0997  159.9611 H   0  0  0  0  0  0  0  0  0  0  0  0  # atno 6907 bound_to 6896
  152.4991  133.8714  159.7311 H   0  0  0  0  0  0  0  0  0  0  0  0  # atno 6908 bound_to 6896
  150.9229  133.6802  159.2856 H   0  0  0  0  0  0  0  0  0  0  0  0  # atno 6909 bound_to 6896
  144.7139  140.0657  143.6431 H   0  0  0  0  0  0  0  0  0  0  0  0  # atno 7974 bound_to 7965
  154.6157  140.2487  155.7612 H   0  0  0  0  0  0  0  0  0  0  0  0  # atno 8008 bound_to 7997
  156.2397  140.2937  156.0360 H   0  0  0  0  0  0  0  0  0  0  0  0  # atno 8009 bound_to 7997
  155.1979  140.0393  157.2902 H   0  0  0  0  0  0  0  0  0  0  0  0  # atno 8010 bound_to 7997
  140.3887  144.1882  150.6130 H   0  0  0  0  0  0  0  0  0  0  0  0  # atno 10167 bound_to 10162
  156.2985  130.7415  151.1460 H   0  0  0  0  0  0  0  0  0  0  0  0  # atno 10718 bound_to 10713
  153.0709  135.4960  154.8302 H   0  0  0  0  0  0  0  0  0  0  0  0  # atno 10763 bound_to 10752
  154.7021  135.3003  154.9328 H   0  0  0  0  0  0  0  0  0  0  0  0  # atno 10764 bound_to 10752
  154.0048  135.6761  153.4814 H   0  0  0  0  0  0  0  0  0  0  0  0  # atno 10765 bound_to 10752
  140.8426  133.7915  155.9877 H   0  0  0  0  0  0  0  0  0  0  0  0  # atno 11005 bound_to 11000
  145.9826  139.2952  143.1033 LP  0  0  0  0  0  0  0  0  0  0  0  0  # atno 17320 bound_to 7965
  145.8994  140.9253  143.0511 LP  0  0  0  0  0  0  0  0  0  0  0  0  # atno 17321 bound_to 7965
  140.4862  143.2362  151.8884 LP  0  0  0  0  0  0  0  0  0  0  0  0  # atno 17342 bound_to 10162
  139.4790  144.5215  151.8794 LP  0  0  0  0  0  0  0  0  0  0  0  0  # atno 17343 bound_to 10162
  157.7362  131.0565  150.5429 LP  0  0  0  0  0  0  0  0  0  0  0  0  # atno 17370 bound_to 10713
  156.5554  130.4242  149.6088 LP  0  0  0  0  0  0  0  0  0  0  0  0  # atno 17371 bound_to 10713
  140.8879  134.2532  157.5110 LP  0  0  0  0  0  0  0  0  0  0  0  0  # atno 17394 bound_to 11000
  139.8703  134.9647  156.4504 LP  0  0  0  0  0  0  0  0  0  0  0  0  # atno 17395 bound_to 11000

$$$$
