AV-unprocessed.smi:2864|AV-procd|sdf|11014|dock2
  -GOLD-   2272015473D 1   1.00000     0.00000
 Structure written by MMmdl.
 37 38  0  0  0  0  0  0  0  0  1 V2000
  153.6603  139.8151  160.3603 C   0  0  0  0  0  0  0  0  0  0  0  0
  153.0191  141.1462  160.0261 C   0  0  0  0  0  0  0  0  0  0  0  0
  153.3888  142.3111  160.7235 C   0  0  0  0  0  0  0  0  0  0  0  0
  152.7920  143.5426  160.3995 C   0  0  0  0  0  0  0  0  0  0  0  0
  151.8195  143.6280  159.3798 C   0  0  0  0  0  0  0  0  0  0  0  0
  151.2270  144.9936  159.0704 C   0  0  0  0  0  0  0  0  0  0  0  0
  151.4316  142.4506  158.6807 C   0  0  0  0  0  0  0  0  0  0  0  0
  150.3915  142.4470  157.5596 C   0  0  1  0  0  0  0  0  0  0  0  0
  150.7488  143.2842  156.4781 O   0  0  0  0  0  0  0  0  0  0  0  0
  150.0914  141.0178  157.0453 C   0  0  0  0  0  0  0  0  0  0  0  0
  149.2011  141.0387  155.8801 N   0  0  0  0  0  0  0  0  0  0  0  0
  147.9935  141.6770  156.1042 N   0  0  0  0  0  0  0  0  0  0  0  0
  147.1135  141.7995  155.1633 C   0  0  0  0  0  0  0  0  0  0  0  0
  145.8312  142.5195  155.5006 C   0  0  0  0  0  0  0  0  0  0  0  0
  145.8922  143.0643  156.7160 F   0  0  0  0  0  0  0  0  0  0  0  0
  145.6027  143.4883  154.6133 F   0  0  0  0  0  0  0  0  0  0  0  0
  144.8059  141.6672  155.4695 F   0  0  0  0  0  0  0  0  0  0  0  0
  147.4032  141.2478  153.8499 C   0  0  0  0  0  0  0  0  0  0  0  0
  148.5867  140.6352  153.6322 C   0  0  0  0  0  0  0  0  0  0  0  0
  149.5913  140.5084  154.6850 C   0  0  0  0  0  0  0  0  0  0  0  0
  150.6893  139.9808  154.5106 O   0  0  0  0  0  0  0  0  0  0  0  0
  152.0454  141.2215  159.0118 C   0  0  0  0  0  0  0  0  0  0  0  0
  154.5010  139.9389  161.0437 H   0  0  0  0  0  0  0  0  0  0  0  0
  154.0287  139.3329  159.4544 H   0  0  0  0  0  0  0  0  0  0  0  0
  152.9320  139.1539  160.8304 H   0  0  0  0  0  0  0  0  0  0  0  0
  154.1326  142.2670  161.5057 H   0  0  0  0  0  0  0  0  0  0  0  0
  153.0904  144.4288  160.9404 H   0  0  0  0  0  0  0  0  0  0  0  0
  150.2066  145.0611  159.4478 H   0  0  0  0  0  0  0  0  0  0  0  0
  151.2175  145.1895  157.9992 H   0  0  0  0  0  0  0  0  0  0  0  0
  151.8058  145.7897  159.5398 H   0  0  0  0  0  0  0  0  0  0  0  0
  149.4755  142.8854  157.9592 H   0  0  0  0  0  0  0  0  0  0  0  0
  149.9655  143.6970  156.1484 H   0  0  0  0  0  0  0  0  0  0  0  0
  151.0125  140.4761  156.8210 H   0  0  0  0  0  0  0  0  0  0  0  0
  149.6189  140.4259  157.8319 H   0  0  0  0  0  0  0  0  0  0  0  0
  146.6759  141.3293  153.0560 H   0  0  0  0  0  0  0  0  0  0  0  0
  148.7982  140.2274  152.6545 H   0  0  0  0  0  0  0  0  0  0  0  0
  151.7706  140.3216  158.4803 H   0  0  0  0  0  0  0  0  0  0  0  0
  1  2  1  0  0  0  0
  1 23  1  0  0  0  0
  1 24  1  0  0  0  0
  1 25  1  0  0  0  0
  2 22  1  0  0  0  0
  2  3  2  0  0  0  0
  3  4  1  0  0  0  0
  3 26  1  0  0  0  0
  4  5  2  0  0  0  0
  4 27  1  0  0  0  0
  5  6  1  0  0  0  0
  5  7  1  0  0  0  0
  6 28  1  0  0  0  0
  6 29  1  0  0  0  0
  6 30  1  0  0  0  0
  7  8  1  0  0  0  0
  7 22  2  0  0  0  0
  8  9  1  0  0  0  0
  8 10  1  0  0  0  0
  8 31  1  0  0  0  0
  9 32  1  0  0  0  0
 10 11  1  0  0  0  0
 10 33  1  0  0  0  0
 10 34  1  0  0  0  0
 11 20  1  0  0  0  0
 11 12  1  0  0  0  0
 12 13  2  0  0  0  0
 13 14  1  0  0  0  0
 13 18  1  0  0  0  0
 14 15  1  0  0  0  0
 14 16  1  0  0  0  0
 14 17  1  0  0  0  0
 18 19  2  0  0  0  0
 18 35  1  0  0  0  0
 19 20  1  0  0  0  0
 19 36  1  0  0  0  0
 20 21  2  0  0  0  0
 22 37  1  0  0  0  0
M  END
> <s_m_source_file>
AV-unprocessed.smi

> <i_m_source_file_index>
2864

> <i_lp_mmshare_version>
43012

> <i_f3d_flags>
0

> <s_epik_input>
W0NIM11jMVtjSF1bY0hdYyhbQ0gzXSljKFtjSF0xKVtDQEhdKFtPSF0pW0NIMl1uMm5jKEMoRikoRilGKVtjSF1bY0hdYzI9Tw==

> <s_epik_cmdline>
J2VwaWtfcHl0aG9uJywgJy1waCcsICc3LjAnLCAnLXRuJywgJzgnLCAnLW1hJywgJzIwMCcsICctbWV0YWxfYmluZGluZycsICctaW1hZScsICc8aW5maWxlLm1hZT4nLCAnLW9tYWUnLCAnPG91dGZpbGUubWFlPic=

> <r_lp_tautomer_probability>
1

> <r_epik_Ionization_Penalty>
5.25156e-08

> <r_epik_Ionization_Penalty_Charging>
3.92872e-09

> <r_epik_Ionization_Penalty_Neutral>
4.85868e-08

> <r_epik_State_Penalty>
-0

> <r_epik_Charging_Adjusted_Penalty>
3.92872e-09

> <i_epik_Tot_Q>
0

> <i_epik_Tot_abs_Q>
0

> <r_epik_Metal_State_Penalty>
-0

> <b_epik_Metal_Only>
0

> <s_lp_Force_Field>
OPLS_2005

> <r_lp_Energy>
33.8366

> <b_lp_Chiralities_Consistent>
1

> <s_lp_Variant>
AV-unprocessed.smi:2864-2

> <Gold.Version>
5.8.1

> <Gold.Id.Protein>
6NUR|6NUR_protein|mol2

> <Gold.PLP.Fitness>
51.6427

> <Gold.PLP.PLP>
-46.0724

> <Gold.PLP.part.hbond>
-1.8005

> <Gold.PLP.part.metal>
0.0000

> <Gold.PLP.part.buried>
-4.7234

> <Gold.PLP.part.nonpolar>
-40.5355

> <Gold.PLP.part.repulsive>
0.2251

> <Gold.PLP.ligand.clash>
0.0000

> <Gold.PLP.ligand.torsion>
0.2404

> <Gold.PLP.Chemscore.Hbond>
2.0000

> <Gold.PLP.Chemscore.CHOScore>
0.0000

> <Gold.PLP.Chemscore.Metal>
0.0000

> <Gold.Chemscore.Hbonds>
donor molecule, donor type, donor heavy atom, donor atom, acceptor molecule, acceptor atom, score
      L1  H     9    32       P1  8028  1.00
      P1  H  7989  7998       L1    21  1.00

> <Gold.PLP.Chemscore.Internal.Correction>
0.0511

> <Gold.Rescore>
     Score         DG    S(hbond)    S(metal)    S(lipo)     H(rot)  DE(clash)    DE(int)     intcor
     20.03     -20.41       1.97        0.00     116.21       2.05       0.19       0.18       ----

> <Gold.Chemscore.Fitness>
20.0290

> <Gold.Chemscore.DG>
-20.4062

> <Gold.Chemscore.ZeroCoef>
-5.4800

> <Gold.Chemscore.Hbond>
1.9707

> <Gold.Chemscore.Metal>
0.0000

> <Gold.Chemscore.Lipo>
116.2088

> <Gold.Chemscore.Internal_Hbond>
0.0000

> <Gold.Chemscore.DEClash>
0.1937

> <Gold.Chemscore.DEInternal>
0.1834

> <Gold.Chemscore.Rot>
2.0517

> <Gold.Chemscore.Internal.Correction>
   9.000000E+99

> <Gold.Chemscore.Hbonds>
donor molecule, donor type, donor heavy atom, donor atom, acceptor molecule, acceptor atom, score
      L1  H     9    32       P1  8028  0.96
      P1  H  7989  7998       L1    21  0.78

> <Gold.Chemscore.Hbond.Weighted>
-6.5821

> <Gold.Chemscore.Metal.Weighted>
-0.0000

> <Gold.Chemscore.Lipo.Weighted>
-13.5964

> <Gold.Chemscore.Internal_Hbond.Weighted>
0.0000

> <Gold.Chemscore.DEClash.Weighted>
0.1937

> <Gold.Chemscore.DEInternal.Weighted>
0.1834

> <Gold.Chemscore.Rot.Weighted>
5.2524

> <Gold.Chemscore.Internal.Correction.Weighted>
   9.000000E+99

> <Gold.Protein.RotatedTorsions>
[ 6907 6896 6895 6894 ] final  105.26 input  -60.11 | X-H torsion
[ 7974 7965 7964 7962 ] final  -32.34 input  175.53 | X-H torsion
[ 8008 7997 7996 7995 ] final -146.42 input   59.86 | X-H torsion
[ 10167 10162 10161 10158 ] final  -50.18 input  -65.29 | X-H torsion
[ 10718 10713 10712 10709 ] final -120.58 input   66.30 | X-H torsion
[ 10763 10752 10751 10750 ] final -124.93 input  -60.55 | X-H torsion
[ 11005 11000 10999 10996 ] final -170.45 input  -57.11 | X-H torsion

> <Gold.Protein.ActiveResidues>
 VAL166  LYS551  ARG553  GLY616  TRP617  ASP618  TYR619  PRO620  LYS621  CYS622 
 ASP623  PHE694  ASN695  SER759  ASP760  ASP761  ALA762  ILE779  LEU786  VAL792 
 PHE793  MET794  SER795  GLU796  ALA797  LYS798  CYS799  TRP800  GLU811  SER814 

> <Gold.Protein.RotatedAtoms>
  152.5236  133.9555  159.7691 H   0  0  0  0  0  0  0  0  0  0  0  0  # atno 6907 bound_to 6896
  150.9856  133.6193  159.2723 H   0  0  0  0  0  0  0  0  0  0  0  0  # atno 6908 bound_to 6896
  151.3355  135.0857  159.9406 H   0  0  0  0  0  0  0  0  0  0  0  0  # atno 6909 bound_to 6896
  146.0997  140.5780  142.8826 H   0  0  0  0  0  0  0  0  0  0  0  0  # atno 7974 bound_to 7965
  155.5591  140.0623  157.2833 H   0  0  0  0  0  0  0  0  0  0  0  0  # atno 8008 bound_to 7997
  154.4396  140.1889  156.0809 H   0  0  0  0  0  0  0  0  0  0  0  0  # atno 8009 bound_to 7997
  156.0460  140.3290  155.7301 H   0  0  0  0  0  0  0  0  0  0  0  0  # atno 8010 bound_to 7997
  140.6650  143.2668  151.4322 H   0  0  0  0  0  0  0  0  0  0  0  0  # atno 10167 bound_to 10162
  156.1269  130.6366  150.9558 H   0  0  0  0  0  0  0  0  0  0  0  0  # atno 10718 bound_to 10713
  154.8730  135.4047  154.3186 H   0  0  0  0  0  0  0  0  0  0  0  0  # atno 10763 bound_to 10752
  153.4018  135.7018  153.6426 H   0  0  0  0  0  0  0  0  0  0  0  0  # atno 10764 bound_to 10752
  153.5166  135.3696  155.2583 H   0  0  0  0  0  0  0  0  0  0  0  0  # atno 10765 bound_to 10752
  140.5194  134.5724  157.5043 H   0  0  0  0  0  0  0  0  0  0  0  0  # atno 11005 bound_to 11000
  144.7423  140.4975  143.6860 LP  0  0  0  0  0  0  0  0  0  0  0  0  # atno 17320 bound_to 7965
  145.5878  139.1493  143.3199 LP  0  0  0  0  0  0  0  0  0  0  0  0  # atno 17321 bound_to 7965
  139.5895  144.1529  152.2071 LP  0  0  0  0  0  0  0  0  0  0  0  0  # atno 17342 bound_to 10162
  140.0880  144.5645  150.7075 LP  0  0  0  0  0  0  0  0  0  0  0  0  # atno 17343 bound_to 10162
  157.6450  131.0905  150.8172 LP  0  0  0  0  0  0  0  0  0  0  0  0  # atno 17370 bound_to 10713
  156.8261  130.5000  149.5337 LP  0  0  0  0  0  0  0  0  0  0  0  0  # atno 17371 bound_to 10713
  139.9614  134.7446  156.0229 LP  0  0  0  0  0  0  0  0  0  0  0  0  # atno 17394 bound_to 11000
  141.1342  133.6579  156.3549 LP  0  0  0  0  0  0  0  0  0  0  0  0  # atno 17395 bound_to 11000

$$$$
