AV-unprocessed.smi:302|AV-procd|sdf|2272|dock1
  -GOLD-   2262022163D 1   1.00000     0.00000
 Structure written by MMmdl.
 44 45  0  0  0  0  0  0  0  0  1 V2000
  153.2018  138.6434  154.8964 C   0  0  0  0  0  0  0  0  0  0  0  0
  152.3028  138.7159  156.1324 C   0  0  0  0  0  0  0  0  0  0  0  0
  151.6022  137.4834  156.2602 O   0  0  0  0  0  0  0  0  0  0  0  0
  150.9376  137.0264  155.0837 C   0  0  2  0  0  0  0  0  0  0  0  0
  149.6835  137.9063  154.9015 C   0  0  0  0  0  0  0  0  0  0  0  0
  149.9681  139.2912  154.3005 C   0  0  0  0  0  0  0  0  0  0  0  0
  150.5963  135.5313  155.2187 C   0  0  0  0  0  0  0  0  0  0  0  0
  151.0469  134.8859  156.1649 O   0  0  0  0  0  0  0  0  0  0  0  0
  149.8291  135.0178  154.2394 N   0  0  0  0  0  0  0  0  0  0  0  0
  149.3808  133.6799  154.0759 C   0  0  0  0  0  0  0  0  0  0  0  0
  149.8353  132.5865  154.8485 C   0  0  0  0  0  0  0  0  0  0  0  0
  149.3059  131.3065  154.5958 C   0  0  0  0  0  0  0  0  0  0  0  0
  148.3285  131.1471  153.5851 C   0  0  0  0  0  0  0  0  0  0  0  0
  147.7919  129.8706  153.3087 N   0  0  0  0  0  0  0  0  0  0  0  0
  146.7246  129.8253  152.3124 C   0  0  0  0  0  0  0  0  0  0  0  0
  146.0161  128.4602  152.3508 C   0  0  0  0  0  0  0  0  0  0  0  0
  146.9698  127.4155  152.1879 O   0  0  0  0  0  0  0  0  0  0  0  0
  147.9359  127.4128  153.2334 C   0  0  0  0  0  0  0  0  0  0  0  0
  148.7138  128.7393  153.2231 C   0  0  0  0  0  0  0  0  0  0  0  0
  147.8875  132.2008  152.8547 N   0  0  0  0  0  0  0  0  0  0  0  0
  148.3955  133.4261  153.1018 C   0  0  0  0  0  0  0  0  0  0  0  0
  153.7603  139.5707  154.7659 H   0  0  0  0  0  0  0  0  0  0  0  0
  152.6130  138.4779  153.9935 H   0  0  0  0  0  0  0  0  0  0  0  0
  153.9210  137.8285  154.9828 H   0  0  0  0  0  0  0  0  0  0  0  0
  152.9104  138.8963  157.0204 H   0  0  0  0  0  0  0  0  0  0  0  0
  151.6123  139.5537  156.0290 H   0  0  0  0  0  0  0  0  0  0  0  0
  151.5923  137.1821  154.2238 H   0  0  0  0  0  0  0  0  0  0  0  0
  148.9471  137.3879  154.2858 H   0  0  0  0  0  0  0  0  0  0  0  0
  149.2107  138.0443  155.8744 H   0  0  0  0  0  0  0  0  0  0  0  0
  149.0549  139.8845  154.2516 H   0  0  0  0  0  0  0  0  0  0  0  0
  150.3649  139.2178  153.2877 H   0  0  0  0  0  0  0  0  0  0  0  0
  150.6891  139.8418  154.9051 H   0  0  0  0  0  0  0  0  0  0  0  0
  149.6026  135.6463  153.4822 H   0  0  0  0  0  0  0  0  0  0  0  0
  150.5690  132.7029  155.6310 H   0  0  0  0  0  0  0  0  0  0  0  0
  149.6661  130.4651  155.1685 H   0  0  0  0  0  0  0  0  0  0  0  0
  145.9877  130.6110  152.4706 H   0  0  0  0  0  0  0  0  0  0  0  0
  147.1586  129.9920  151.3257 H   0  0  0  0  0  0  0  0  0  0  0  0
  145.4754  128.3296  153.2896 H   0  0  0  0  0  0  0  0  0  0  0  0
  145.2806  128.3972  151.5489 H   0  0  0  0  0  0  0  0  0  0  0  0
  147.4459  127.2569  154.1960 H   0  0  0  0  0  0  0  0  0  0  0  0
  148.6185  126.5760  153.0850 H   0  0  0  0  0  0  0  0  0  0  0  0
  149.3014  128.8210  152.3075 H   0  0  0  0  0  0  0  0  0  0  0  0
  149.4108  128.7541  154.0621 H   0  0  0  0  0  0  0  0  0  0  0  0
  148.0068  134.2293  152.4928 H   0  0  0  0  0  0  0  0  0  0  0  0
  1  2  1  0  0  0  0
  1 22  1  0  0  0  0
  1 23  1  0  0  0  0
  1 24  1  0  0  0  0
  2  3  1  0  0  0  0
  2 25  1  0  0  0  0
  2 26  1  0  0  0  0
  3  4  1  0  0  0  0
  4  5  1  0  0  0  0
  4  7  1  0  0  0  0
  4 27  1  0  0  0  0
  5  6  1  0  0  0  0
  5 28  1  0  0  0  0
  5 29  1  0  0  0  0
  6 30  1  0  0  0  0
  6 31  1  0  0  0  0
  6 32  1  0  0  0  0
  7  8  2  0  0  0  0
  7  9  1  0  0  0  0
  9 10  1  0  0  0  0
  9 33  1  0  0  0  0
 10 21  1  0  0  0  0
 10 11  2  0  0  0  0
 11 12  1  0  0  0  0
 11 34  1  0  0  0  0
 12 13  2  0  0  0  0
 12 35  1  0  0  0  0
 13 14  1  0  0  0  0
 13 20  1  0  0  0  0
 14 19  1  0  0  0  0
 14 15  1  0  0  0  0
 15 16  1  0  0  0  0
 15 36  1  0  0  0  0
 15 37  1  0  0  0  0
 16 17  1  0  0  0  0
 16 38  1  0  0  0  0
 16 39  1  0  0  0  0
 17 18  1  0  0  0  0
 18 19  1  0  0  0  0
 18 40  1  0  0  0  0
 18 41  1  0  0  0  0
 19 42  1  0  0  0  0
 19 43  1  0  0  0  0
 20 21  2  0  0  0  0
 21 44  1  0  0  0  0
M  END
> <s_m_source_file>
AV-unprocessed.smi

> <i_m_source_file_index>
302

> <i_lp_mmshare_version>
43012

> <i_f3d_flags>
0

> <s_epik_input>
W0NIM11bQ0gyXU9bQ0BIXShbQ0gyXVtDSDNdKUMoPU8pW05IXWMxW2NIXVtjSF1jKG5bY0hdMSlOMltDSDJdW0NIMl1PW0NIMl1bQ0gyXTI=

> <s_epik_cmdline>
J2VwaWtfcHl0aG9uJywgJy1waCcsICc3LjAnLCAnLXRuJywgJzgnLCAnLW1hJywgJzIwMCcsICctbWV0YWxfYmluZGluZycsICctaW1hZScsICc8aW5maWxlLm1hZT4nLCAnLW9tYWUnLCAnPG91dGZpbGUubWFlPic=

> <r_lp_tautomer_probability>
1

> <r_epik_Ionization_Penalty>
0.000497413

> <r_epik_Ionization_Penalty_Charging>
0

> <r_epik_Ionization_Penalty_Neutral>
0.000497413

> <r_epik_State_Penalty>
0.000308489

> <r_epik_Charging_Adjusted_Penalty>
0.000308489

> <i_epik_Tot_Q>
0

> <i_epik_Tot_abs_Q>
0

> <r_epik_Metal_State_Penalty>
-0

> <b_epik_Metal_Only>
0

> <s_lp_Force_Field>
OPLS_2005

> <r_lp_Energy>
24.0205

> <b_lp_Chiralities_Consistent>
1

> <s_lp_Variant>
AV-unprocessed.smi:302-1

> <Gold.Version>
5.8.1

> <Gold.Id.Protein>
6NUR|6NUR_protein|mol2

> <Gold.PLP.Fitness>
38.9919

> <Gold.PLP.PLP>
-34.2243

> <Gold.PLP.part.hbond>
-2.4772

> <Gold.PLP.part.metal>
0.0000

> <Gold.PLP.part.buried>
-1.4515

> <Gold.PLP.part.nonpolar>
-31.0272

> <Gold.PLP.part.repulsive>
0.3291

> <Gold.PLP.ligand.clash>
0.0000

> <Gold.PLP.ligand.torsion>
0.6743

> <Gold.PLP.Chemscore.Hbond>
1.0000

> <Gold.PLP.Chemscore.CHOScore>
0.8942

> <Gold.PLP.Chemscore.Metal>
0.0000

> <Gold.Chemscore.Hbonds>
donor molecule, donor type, donor heavy atom, donor atom, acceptor molecule, acceptor atom, score
      L1  H     9    33       P1  7948  0.80
      L1  C    21    44       P1  7948  0.99

> <Gold.PLP.Chemscore.Internal.Correction>
0.4335

> <Gold.Rescore>
     Score         DG    S(hbond)    S(metal)    S(lipo)     H(rot)  DE(clash)    DE(int)     intcor
     11.35     -13.44       0.85        0.00      79.46       1.63       0.13       1.96       ----

> <Gold.Chemscore.Fitness>
11.3523

> <Gold.Chemscore.DG>
-13.4410

> <Gold.Chemscore.ZeroCoef>
-5.4800

> <Gold.Chemscore.Hbond>
0.8464

> <Gold.Chemscore.Metal>
0.0000

> <Gold.Chemscore.Lipo>
79.4582

> <Gold.Chemscore.Internal_Hbond>
0.0000

> <Gold.Chemscore.DEClash>
0.1334

> <Gold.Chemscore.DEInternal>
1.9554

> <Gold.Chemscore.Rot>
1.6260

> <Gold.Chemscore.Internal.Correction>
   9.000000E+99

> <Gold.Chemscore.Hbonds>
donor molecule, donor type, donor heavy atom, donor atom, acceptor molecule, acceptor atom, score
      L1  H     9    33       P1  7948  0.12

> <Gold.Chemscore.Hbond.Weighted>
-2.8270

> <Gold.Chemscore.Metal.Weighted>
-0.0000

> <Gold.Chemscore.Lipo.Weighted>
-9.2966

> <Gold.Chemscore.Internal_Hbond.Weighted>
0.0000

> <Gold.Chemscore.DEClash.Weighted>
0.1334

> <Gold.Chemscore.DEInternal.Weighted>
1.9554

> <Gold.Chemscore.Rot.Weighted>
4.1626

> <Gold.Chemscore.Internal.Correction.Weighted>
   9.000000E+99

> <Gold.Protein.RotatedTorsions>
[ 6907 6896 6895 6894 ] final  128.71 input  -60.11 | X-H torsion
[ 7974 7965 7964 7962 ] final -154.17 input  175.53 | X-H torsion
[ 8008 7997 7996 7995 ] final   -1.80 input   59.86 | X-H torsion
[ 10167 10162 10161 10158 ] final  179.28 input  -65.29 | X-H torsion
[ 10718 10713 10712 10709 ] final  117.66 input   66.30 | X-H torsion
[ 10763 10752 10751 10750 ] final  -61.79 input  -60.55 | X-H torsion
[ 11005 11000 10999 10996 ] final   15.63 input  -57.11 | X-H torsion

> <Gold.Protein.ActiveResidues>
 VAL166  LYS551  ARG553  GLY616  TRP617  ASP618  TYR619  PRO620  LYS621  CYS622 
 ASP623  PHE694  ASN695  SER759  ASP760  ASP761  ALA762  ILE779  LEU786  VAL792 
 PHE793  MET794  SER795  GLU796  ALA797  LYS798  CYS799  TRP800  GLU811  SER814 

> <Gold.Protein.RotatedAtoms>
  152.3693  133.6398  159.6074 H   0  0  0  0  0  0  0  0  0  0  0  0  # atno 6907 bound_to 6896
  150.7657  133.9296  159.3432 H   0  0  0  0  0  0  0  0  0  0  0  0  # atno 6908 bound_to 6896
  151.7122  135.0911  160.0321 H   0  0  0  0  0  0  0  0  0  0  0  0  # atno 6909 bound_to 6896
  144.7703  140.4425  143.5912 H   0  0  0  0  0  0  0  0  0  0  0  0  # atno 7974 bound_to 7965
  154.6428  140.2550  155.7303 H   0  0  0  0  0  0  0  0  0  0  0  0  # atno 8008 bound_to 7997
  156.2537  140.2884  156.0749 H   0  0  0  0  0  0  0  0  0  0  0  0  # atno 8009 bound_to 7997
  155.1571  140.0383  157.2824 H   0  0  0  0  0  0  0  0  0  0  0  0  # atno 8010 bound_to 7997
  139.5330  144.2580  152.0731 H   0  0  0  0  0  0  0  0  0  0  0  0  # atno 10167 bound_to 10162
  157.6082  131.1039  150.7646 H   0  0  0  0  0  0  0  0  0  0  0  0  # atno 10718 bound_to 10713
  154.2900  135.6255  153.5381 H   0  0  0  0  0  0  0  0  0  0  0  0  # atno 10763 bound_to 10752
  152.9854  135.5653  154.5400 H   0  0  0  0  0  0  0  0  0  0  0  0  # atno 10764 bound_to 10752
  154.5009  135.2872  155.1397 H   0  0  0  0  0  0  0  0  0  0  0  0  # atno 10765 bound_to 10752
  140.4561  134.1175  155.7709 H   0  0  0  0  0  0  0  0  0  0  0  0  # atno 11005 bound_to 11000
  145.6344  139.1541  143.2951 LP  0  0  0  0  0  0  0  0  0  0  0  0  # atno 17320 bound_to 7965
  146.1844  140.6446  142.9174 LP  0  0  0  0  0  0  0  0  0  0  0  0  # atno 17321 bound_to 7965
  140.2046  144.4624  150.6415 LP  0  0  0  0  0  0  0  0  0  0  0  0  # atno 17342 bound_to 10162
  140.6519  143.2227  151.6057 LP  0  0  0  0  0  0  0  0  0  0  0  0  # atno 17343 bound_to 10162
  156.8030  130.4927  149.5367 LP  0  0  0  0  0  0  0  0  0  0  0  0  # atno 17370 bound_to 10713
  156.1175  130.6086  151.0143 LP  0  0  0  0  0  0  0  0  0  0  0  0  # atno 17371 bound_to 10713
  141.1642  133.8734  157.1761 LP  0  0  0  0  0  0  0  0  0  0  0  0  # atno 17394 bound_to 11000
  139.9975  135.0041  157.0116 LP  0  0  0  0  0  0  0  0  0  0  0  0  # atno 17395 bound_to 11000

$$$$
