AV-unprocessed.smi:2359|AV-procd|sdf|9407|dock10
  -GOLD-   2272013 43D 1   1.00000     0.00000
 Structure written by MMmdl.
 40 41  0  0  0  0  0  0  0  0  1 V2000
  146.1204  129.2172  152.7057 C   0  0  0  0  0  0  0  0  0  0  0  0
  146.8197  130.5390  152.9439 C   0  0  0  0  0  0  0  0  0  0  0  0
  146.4225  131.7075  152.2665 C   0  0  0  0  0  0  0  0  0  0  0  0
  147.1104  132.9085  152.5254 C   0  0  0  0  0  0  0  0  0  0  0  0
  148.1772  132.9140  153.4521 C   0  0  0  0  0  0  0  0  0  0  0  0
  148.8076  134.1737  153.6336 N   0  0  0  0  0  0  0  0  0  0  0  0
  149.5231  134.6026  154.6882 C   0  0  0  0  0  0  0  0  0  0  0  0
  149.7331  133.9590  155.7170 O   0  0  0  0  0  0  0  0  0  0  0  0
  149.9895  135.8431  154.4842 N   0  0  0  0  0  0  0  0  0  0  0  0
  150.8037  136.5984  155.4292 C   0  0  0  0  0  0  0  0  0  0  0  0
  151.2017  137.9712  154.8612 C   0  0  0  0  0  0  0  0  0  0  0  0
  150.1236  139.0432  155.0853 C   0  0  2  0  0  0  0  0  0  0  0  0
  148.9469  138.8930  154.1012 C   0  0  0  0  0  0  0  0  0  0  0  0
  147.9304  140.0234  154.2988 C   0  0  0  0  0  0  0  0  0  0  0  0
  148.6421  141.3785  154.2273 C   0  0  0  0  0  0  0  0  0  0  0  0
  149.8352  141.4068  155.1952 C   0  0  0  0  0  0  0  0  0  0  0  0
  150.7186  140.3276  154.9066 O   0  0  0  0  0  0  0  0  0  0  0  0
  148.5516  131.7830  154.1006 N   0  0  0  0  0  0  0  0  0  0  0  0
  147.8918  130.6323  153.8522 C   0  0  0  0  0  0  0  0  0  0  0  0
  145.2714  129.3340  152.0317 H   0  0  0  0  0  0  0  0  0  0  0  0
  145.7542  128.8076  153.6473 H   0  0  0  0  0  0  0  0  0  0  0  0
  146.8118  128.4995  152.2638 H   0  0  0  0  0  0  0  0  0  0  0  0
  145.6065  131.6886  151.5591 H   0  0  0  0  0  0  0  0  0  0  0  0
  146.8194  133.8143  152.0132 H   0  0  0  0  0  0  0  0  0  0  0  0
  148.7131  134.8201  152.8645 H   0  0  0  0  0  0  0  0  0  0  0  0
  149.7687  136.2982  153.6106 H   0  0  0  0  0  0  0  0  0  0  0  0
  150.2730  136.7146  156.3756 H   0  0  0  0  0  0  0  0  0  0  0  0
  151.6959  136.0103  155.6457 H   0  0  0  0  0  0  0  0  0  0  0  0
  152.1416  138.2976  155.3084 H   0  0  0  0  0  0  0  0  0  0  0  0
  151.3884  137.8742  153.7907 H   0  0  0  0  0  0  0  0  0  0  0  0
  149.7514  138.9584  156.1081 H   0  0  0  0  0  0  0  0  0  0  0  0
  149.3192  138.9130  153.0761 H   0  0  0  0  0  0  0  0  0  0  0  0
  148.4594  137.9271  154.2378 H   0  0  0  0  0  0  0  0  0  0  0  0
  147.1449  139.9660  153.5451 H   0  0  0  0  0  0  0  0  0  0  0  0
  147.4444  139.9147  155.2693 H   0  0  0  0  0  0  0  0  0  0  0  0
  148.9953  141.5544  153.2106 H   0  0  0  0  0  0  0  0  0  0  0  0
  147.9456  142.1839  154.4609 H   0  0  0  0  0  0  0  0  0  0  0  0
  150.3803  142.3452  155.0904 H   0  0  0  0  0  0  0  0  0  0  0  0
  149.4987  141.3481  156.2314 H   0  0  0  0  0  0  0  0  0  0  0  0
  148.2314  129.7613  154.3934 H   0  0  0  0  0  0  0  0  0  0  0  0
  1  2  1  0  0  0  0
  1 20  1  0  0  0  0
  1 21  1  0  0  0  0
  1 22  1  0  0  0  0
  2 19  1  0  0  0  0
  2  3  2  0  0  0  0
  3  4  1  0  0  0  0
  3 23  1  0  0  0  0
  4  5  2  0  0  0  0
  4 24  1  0  0  0  0
  5  6  1  0  0  0  0
  5 18  1  0  0  0  0
  6  7  1  0  0  0  0
  6 25  1  0  0  0  0
  7  8  2  0  0  0  0
  7  9  1  0  0  0  0
  9 10  1  0  0  0  0
  9 26  1  0  0  0  0
 10 11  1  0  0  0  0
 10 27  1  0  0  0  0
 10 28  1  0  0  0  0
 11 12  1  0  0  0  0
 11 29  1  0  0  0  0
 11 30  1  0  0  0  0
 12 17  1  0  0  0  0
 12 13  1  0  0  0  0
 12 31  1  0  0  0  0
 13 14  1  0  0  0  0
 13 32  1  0  0  0  0
 13 33  1  0  0  0  0
 14 15  1  0  0  0  0
 14 34  1  0  0  0  0
 14 35  1  0  0  0  0
 15 16  1  0  0  0  0
 15 36  1  0  0  0  0
 15 37  1  0  0  0  0
 16 17  1  0  0  0  0
 16 38  1  0  0  0  0
 16 39  1  0  0  0  0
 18 19  2  0  0  0  0
 19 40  1  0  0  0  0
M  END
> <s_m_source_file>
AV-unprocessed.smi

> <i_m_source_file_index>
2359

> <i_lp_mmshare_version>
43012

> <i_f3d_flags>
0

> <s_epik_input>
W0NIM11jMVtjSF1bY0hdYyhuW2NIXTEpW05IXUMoPU8pW05IXVtDSDJdW0NIMl1bQ0BASF0yW0NIMl1bQ0gyXVtDSDJdW0NIMl1PMg==

> <s_epik_cmdline>
J2VwaWtfcHl0aG9uJywgJy1waCcsICc3LjAnLCAnLXRuJywgJzgnLCAnLW1hJywgJzIwMCcsICctbWV0YWxfYmluZGluZycsICctaW1hZScsICc8aW5maWxlLm1hZT4nLCAnLW9tYWUnLCAnPG91dGZpbGUubWFlPic=

> <r_lp_tautomer_probability>
1

> <r_epik_Ionization_Penalty>
5.73679e-05

> <r_epik_Ionization_Penalty_Charging>
0

> <r_epik_Ionization_Penalty_Neutral>
5.73679e-05

> <r_epik_State_Penalty>
-0

> <r_epik_Charging_Adjusted_Penalty>
0

> <i_epik_Tot_Q>
0

> <i_epik_Tot_abs_Q>
0

> <r_epik_Metal_State_Penalty>
-0

> <b_epik_Metal_Only>
0

> <s_lp_Force_Field>
OPLS_2005

> <r_lp_Energy>
10.9797

> <b_lp_Chiralities_Consistent>
1

> <s_lp_Variant>
AV-unprocessed.smi:2359-1

> <Gold.Version>
5.8.1

> <Gold.Id.Protein>
6NUR|6NUR_protein|mol2

> <Gold.PLP.Fitness>
42.1983

> <Gold.PLP.PLP>
-34.3044

> <Gold.PLP.part.hbond>
-3.6112

> <Gold.PLP.part.metal>
0.0000

> <Gold.PLP.part.buried>
-2.7350

> <Gold.PLP.part.nonpolar>
-27.9860

> <Gold.PLP.part.repulsive>
0.2199

> <Gold.PLP.ligand.clash>
0.0000

> <Gold.PLP.ligand.torsion>
0.3935

> <Gold.PLP.Chemscore.Hbond>
2.8920

> <Gold.PLP.Chemscore.CHOScore>
0.0000

> <Gold.PLP.Chemscore.Metal>
0.0000

> <Gold.Chemscore.Hbonds>
donor molecule, donor type, donor heavy atom, donor atom, acceptor molecule, acceptor atom, score
      L1  H     6    25       P1  7948  0.90
      L1  H     9    26       P1  7948  0.99
      P1  H  7989  7998       L1    17  1.00

> <Gold.PLP.Chemscore.Internal.Correction>
0.0050

> <Gold.Rescore>
     Score         DG    S(hbond)    S(metal)    S(lipo)     H(rot)  DE(clash)    DE(int)     intcor
     16.52     -18.19       2.26        0.00      75.21       1.42       0.07       1.60       ----

> <Gold.Chemscore.Fitness>
16.5223

> <Gold.Chemscore.DG>
-18.1873

> <Gold.Chemscore.ZeroCoef>
-5.4800

> <Gold.Chemscore.Hbond>
2.2622

> <Gold.Chemscore.Metal>
0.0000

> <Gold.Chemscore.Lipo>
75.2074

> <Gold.Chemscore.Internal_Hbond>
0.0000

> <Gold.Chemscore.DEClash>
0.0660

> <Gold.Chemscore.DEInternal>
1.5991

> <Gold.Chemscore.Rot>
1.4248

> <Gold.Chemscore.Internal.Correction>
   9.000000E+99

> <Gold.Chemscore.Hbonds>
donor molecule, donor type, donor heavy atom, donor atom, acceptor molecule, acceptor atom, score
      L1  H     6    25       P1  7948  0.18
      L1  H     9    26       P1  7948  0.28
      P1  H  7989  7998       L1    17  0.44

> <Gold.Chemscore.Hbond.Weighted>
-7.5557

> <Gold.Chemscore.Metal.Weighted>
-0.0000

> <Gold.Chemscore.Lipo.Weighted>
-8.7993

> <Gold.Chemscore.Internal_Hbond.Weighted>
0.0000

> <Gold.Chemscore.DEClash.Weighted>
0.0660

> <Gold.Chemscore.DEInternal.Weighted>
1.5991

> <Gold.Chemscore.Rot.Weighted>
3.6476

> <Gold.Chemscore.Internal.Correction.Weighted>
   9.000000E+99

> <Gold.Protein.RotatedTorsions>
[ 6907 6896 6895 6894 ] final    6.24 input  -60.11 | X-H torsion
[ 7974 7965 7964 7962 ] final   62.87 input  175.53 | X-H torsion
[ 8008 7997 7996 7995 ] final  -94.39 input   59.86 | X-H torsion
[ 10167 10162 10161 10158 ] final  -18.67 input  -65.29 | X-H torsion
[ 10718 10713 10712 10709 ] final   34.48 input   66.30 | X-H torsion
[ 10763 10752 10751 10750 ] final  -95.27 input  -60.55 | X-H torsion
[ 11005 11000 10999 10996 ] final   28.06 input  -57.11 | X-H torsion

> <Gold.Protein.ActiveResidues>
 VAL166  LYS551  ARG553  GLY616  TRP617  ASP618  TYR619  PRO620  LYS621  CYS622 
 ASP623  PHE694  ASN695  SER759  ASP760  ASP761  ALA762  ILE779  LEU786  VAL792 
 PHE793  MET794  SER795  GLU796  ALA797  LYS798  CYS799  TRP800  GLU811  SER814 

> <Gold.Protein.RotatedAtoms>
  151.6706  135.0976  160.0196 H   0  0  0  0  0  0  0  0  0  0  0  0  # atno 6907 bound_to 6896
  152.3894  133.6653  159.6233 H   0  0  0  0  0  0  0  0  0  0  0  0  # atno 6908 bound_to 6896
  150.7812  133.8897  159.3351 H   0  0  0  0  0  0  0  0  0  0  0  0  # atno 6909 bound_to 6896
  145.8684  139.3361  143.0777 H   0  0  0  0  0  0  0  0  0  0  0  0  # atno 7974 bound_to 7965
  154.7478  140.0490  157.0867 H   0  0  0  0  0  0  0  0  0  0  0  0  # atno 8008 bound_to 7997
  155.0095  140.3134  155.4816 H   0  0  0  0  0  0  0  0  0  0  0  0  # atno 8009 bound_to 7997
  156.2879  140.2187  156.5209 H   0  0  0  0  0  0  0  0  0  0  0  0  # atno 8010 bound_to 7997
  140.7261  143.4894  151.0012 H   0  0  0  0  0  0  0  0  0  0  0  0  # atno 10167 bound_to 10162
  157.3109  130.7398  149.6724 H   0  0  0  0  0  0  0  0  0  0  0  0  # atno 10718 bound_to 10713
  154.7132  135.5127  153.8698 H   0  0  0  0  0  0  0  0  0  0  0  0  # atno 10763 bound_to 10752
  153.0798  135.6628  154.0077 H   0  0  0  0  0  0  0  0  0  0  0  0  # atno 10764 bound_to 10752
  153.9915  135.3019  155.3391 H   0  0  0  0  0  0  0  0  0  0  0  0  # atno 10765 bound_to 10752
  140.3196  134.2558  155.7719 H   0  0  0  0  0  0  0  0  0  0  0  0  # atno 11005 bound_to 11000
  145.9166  140.9144  143.0427 LP  0  0  0  0  0  0  0  0  0  0  0  0  # atno 17320 bound_to 7965
  144.6726  140.1231  143.7448 LP  0  0  0  0  0  0  0  0  0  0  0  0  # atno 17321 bound_to 7965
  139.8597  143.7330  152.3174 LP  0  0  0  0  0  0  0  0  0  0  0  0  # atno 17342 bound_to 10162
  139.7541  144.7525  151.0461 LP  0  0  0  0  0  0  0  0  0  0  0  0  # atno 17343 bound_to 10162
  155.9678  130.4252  150.4641 LP  0  0  0  0  0  0  0  0  0  0  0  0  # atno 17370 bound_to 10713
  157.2640  131.0573  151.2302 LP  0  0  0  0  0  0  0  0  0  0  0  0  # atno 17371 bound_to 10713
  141.2089  133.7763  157.0027 LP  0  0  0  0  0  0  0  0  0  0  0  0  # atno 17394 bound_to 11000
  140.0953  134.9568  157.1840 LP  0  0  0  0  0  0  0  0  0  0  0  0  # atno 17395 bound_to 11000

$$$$
