AV-unprocessed.smi:2587|AV-procd|sdf|10146|dock9
  -GOLD-   2272014163D 1   1.00000     0.00000
 Structure written by MMmdl.
 39 40  0  0  0  0  0  0  0  0  1 V2000
  145.7652  143.1427  154.2245 C   0  0  0  0  0  0  0  0  0  0  0  0
  146.7566  142.2549  154.0582 C   0  0  0  0  0  0  0  0  0  0  0  0
  147.9748  142.1563  154.9542 C   0  0  0  0  0  0  0  0  0  0  0  0
  148.8785  141.0749  154.5631 N   0  0  0  0  0  0  0  0  0  0  0  0
  148.6421  140.4032  153.2879 C   0  0  0  0  0  0  0  0  0  0  0  0
  147.5489  139.3287  153.3881 C   0  0  0  0  0  0  0  0  0  0  0  0
  147.4485  138.6445  152.1589 O   0  0  0  0  0  0  0  0  0  0  0  0
  150.0596  140.8284  155.3054 C   0  0  0  0  0  0  0  0  0  0  0  0
  150.4128  141.5944  156.4456 C   0  0  0  0  0  0  0  0  0  0  0  0
  151.6159  141.2668  157.1155 C   0  0  0  0  0  0  0  0  0  0  0  0
  152.0275  141.9884  158.2569 N   0  0  0  0  0  0  0  0  0  0  0  0
  151.3473  143.2480  158.5522 C   0  0  0  0  0  0  0  0  0  0  0  0
  152.1097  144.0273  159.6371 C   0  0  0  0  0  0  0  0  0  0  0  0
  152.2760  143.2080  160.7893 O   0  0  0  0  0  0  0  0  0  0  0  0
  153.0379  142.0400  160.5025 C   0  0  0  0  0  0  0  0  0  0  0  0
  152.3109  141.1893  159.4467 C   0  0  0  0  0  0  0  0  0  0  0  0
  152.3889  140.2458  156.6751 N   0  0  0  0  0  0  0  0  0  0  0  0
  151.9751  139.5838  155.5955 C   0  0  0  0  0  0  0  0  0  0  0  0
  150.8659  139.8196  154.8956 N   0  0  0  0  0  0  0  0  0  0  0  0
  145.7842  143.8611  155.0311 H   0  0  0  0  0  0  0  0  0  0  0  0
  144.9198  143.1618  153.5527 H   0  0  0  0  0  0  0  0  0  0  0  0
  146.7005  141.5499  153.2414 H   0  0  0  0  0  0  0  0  0  0  0  0
  148.5126  143.1050  154.9287 H   0  0  0  0  0  0  0  0  0  0  0  0
  147.6497  142.0274  155.9870 H   0  0  0  0  0  0  0  0  0  0  0  0
  148.4120  141.1281  152.5073 H   0  0  0  0  0  0  0  0  0  0  0  0
  149.5755  139.9340  152.9741 H   0  0  0  0  0  0  0  0  0  0  0  0
  147.7809  138.6115  154.1758 H   0  0  0  0  0  0  0  0  0  0  0  0
  146.5815  139.7721  153.6255 H   0  0  0  0  0  0  0  0  0  0  0  0
  147.8115  137.7786  152.2659 H   0  0  0  0  0  0  0  0  0  0  0  0
  149.7842  142.3880  156.8163 H   0  0  0  0  0  0  0  0  0  0  0  0
  151.2765  143.8602  157.6521 H   0  0  0  0  0  0  0  0  0  0  0  0
  150.3300  143.0399  158.8868 H   0  0  0  0  0  0  0  0  0  0  0  0
  153.0826  144.3563  159.2680 H   0  0  0  0  0  0  0  0  0  0  0  0
  151.5552  144.9237  159.9149 H   0  0  0  0  0  0  0  0  0  0  0  0
  154.0349  142.3187  160.1573 H   0  0  0  0  0  0  0  0  0  0  0  0
  153.1684  141.4672  161.4207 H   0  0  0  0  0  0  0  0  0  0  0  0
  151.3689  140.8177  159.8521 H   0  0  0  0  0  0  0  0  0  0  0  0
  152.9212  140.3177  159.2149 H   0  0  0  0  0  0  0  0  0  0  0  0
  152.6016  138.7737  155.2528 H   0  0  0  0  0  0  0  0  0  0  0  0
  1  2  2  0  0  0  0
  1 20  1  0  0  0  0
  1 21  1  0  0  0  0
  2  3  1  0  0  0  0
  2 22  1  0  0  0  0
  3  4  1  0  0  0  0
  3 23  1  0  0  0  0
  3 24  1  0  0  0  0
  4  5  1  0  0  0  0
  4  8  1  0  0  0  0
  5  6  1  0  0  0  0
  5 25  1  0  0  0  0
  5 26  1  0  0  0  0
  6  7  1  0  0  0  0
  6 27  1  0  0  0  0
  6 28  1  0  0  0  0
  7 29  1  0  0  0  0
  8 19  1  0  0  0  0
  8  9  2  0  0  0  0
  9 10  1  0  0  0  0
  9 30  1  0  0  0  0
 10 11  1  0  0  0  0
 10 17  2  0  0  0  0
 11 16  1  0  0  0  0
 11 12  1  0  0  0  0
 12 13  1  0  0  0  0
 12 31  1  0  0  0  0
 12 32  1  0  0  0  0
 13 14  1  0  0  0  0
 13 33  1  0  0  0  0
 13 34  1  0  0  0  0
 14 15  1  0  0  0  0
 15 16  1  0  0  0  0
 15 35  1  0  0  0  0
 15 36  1  0  0  0  0
 16 37  1  0  0  0  0
 16 38  1  0  0  0  0
 17 18  1  0  0  0  0
 18 19  2  0  0  0  0
 18 39  1  0  0  0  0
M  END
> <s_m_source_file>
AV-unprocessed.smi

> <i_m_source_file_index>
2587

> <i_lp_mmshare_version>
43012

> <i_f3d_flags>
0

> <s_epik_input>
W0NIMl09W0NIXVtDSDJdTihbQ0gyXVtDSDJdW09IXSljMVtjSF1jKG5bY0hdbjEpTjJbQ0gyXVtDSDJdT1tDSDJdW0NIMl0y

> <s_epik_cmdline>
J2VwaWtfcHl0aG9uJywgJy1waCcsICc3LjAnLCAnLXRuJywgJzgnLCAnLW1hJywgJzIwMCcsICctbWV0YWxfYmluZGluZycsICctaW1hZScsICc8aW5maWxlLm1hZT4nLCAnLW9tYWUnLCAnPG91dGZpbGUubWFlPic=

> <r_lp_tautomer_probability>
1

> <r_epik_Ionization_Penalty>
0.00218234

> <r_epik_Ionization_Penalty_Charging>
0

> <r_epik_Ionization_Penalty_Neutral>
0.00218234

> <r_epik_State_Penalty>
0.00992355

> <r_epik_Charging_Adjusted_Penalty>
0.00992355

> <i_epik_Tot_Q>
0

> <i_epik_Tot_abs_Q>
0

> <r_epik_Metal_State_Penalty>
0.00985368

> <b_epik_Metal_Only>
0

> <s_lp_Force_Field>
OPLS_2005

> <r_lp_Energy>
11.4622

> <b_lp_Chiralities_Consistent>
1

> <s_lp_Variant>
AV-unprocessed.smi:2587-1

> <Gold.Version>
5.8.1

> <Gold.Id.Protein>
6NUR|6NUR_protein|mol2

> <Gold.PLP.Fitness>
47.1520

> <Gold.PLP.PLP>
-39.8511

> <Gold.PLP.part.hbond>
-4.0000

> <Gold.PLP.part.metal>
0.0000

> <Gold.PLP.part.buried>
2.6959

> <Gold.PLP.part.nonpolar>
-38.3403

> <Gold.PLP.part.repulsive>
0.1213

> <Gold.PLP.ligand.clash>
0.0000

> <Gold.PLP.ligand.torsion>
0.4798

> <Gold.PLP.Chemscore.Hbond>
2.5700

> <Gold.PLP.Chemscore.CHOScore>
0.0000

> <Gold.PLP.Chemscore.Metal>
0.0000

> <Gold.Chemscore.Hbonds>
donor molecule, donor type, donor heavy atom, donor atom, acceptor molecule, acceptor atom, score
      L1  H     7    29       P1  7948  1.00
      P1  H  7989  7998       L1    19  0.58
      P1  H  7997  8010       L1    17  1.00

> <Gold.PLP.Chemscore.Internal.Correction>
0.5505

> <Gold.Rescore>
     Score         DG    S(hbond)    S(metal)    S(lipo)     H(rot)  DE(clash)    DE(int)     intcor
     11.20     -14.86       1.76        0.00      85.04       2.51       3.15       0.51       ----

> <Gold.Chemscore.Fitness>
11.2020

> <Gold.Chemscore.DG>
-14.8647

> <Gold.Chemscore.ZeroCoef>
-5.4800

> <Gold.Chemscore.Hbond>
1.7565

> <Gold.Chemscore.Metal>
0.0000

> <Gold.Chemscore.Lipo>
85.0377

> <Gold.Chemscore.Internal_Hbond>
0.0000

> <Gold.Chemscore.DEClash>
3.1547

> <Gold.Chemscore.DEInternal>
0.5080

> <Gold.Chemscore.Rot>
2.5123

> <Gold.Chemscore.Internal.Correction>
   9.000000E+99

> <Gold.Chemscore.Hbonds>
donor molecule, donor type, donor heavy atom, donor atom, acceptor molecule, acceptor atom, score
      L1  H     7    29       P1  7948  0.98
      P1  H  7989  7998       L1    19  0.01
      P1  H  7997  8010       L1    17  0.33

> <Gold.Chemscore.Hbond.Weighted>
-5.8668

> <Gold.Chemscore.Metal.Weighted>
-0.0000

> <Gold.Chemscore.Lipo.Weighted>
-9.9494

> <Gold.Chemscore.Internal_Hbond.Weighted>
0.0000

> <Gold.Chemscore.DEClash.Weighted>
3.1547

> <Gold.Chemscore.DEInternal.Weighted>
0.5080

> <Gold.Chemscore.Rot.Weighted>
6.4315

> <Gold.Chemscore.Internal.Correction.Weighted>
   9.000000E+99

> <Gold.Protein.RotatedTorsions>
[ 6907 6896 6895 6894 ] final  -72.94 input  -60.11 | X-H torsion
[ 7974 7965 7964 7962 ] final   78.93 input  175.53 | X-H torsion
[ 8008 7997 7996 7995 ] final   68.33 input   59.86 | X-H torsion
[ 10167 10162 10161 10158 ] final   15.88 input  -65.29 | X-H torsion
[ 10718 10713 10712 10709 ] final  126.31 input   66.30 | X-H torsion
[ 10763 10752 10751 10750 ] final  -58.26 input  -60.55 | X-H torsion
[ 11005 11000 10999 10996 ] final  106.09 input  -57.11 | X-H torsion

> <Gold.Protein.ActiveResidues>
 VAL166  LYS551  ARG553  GLY616  TRP617  ASP618  TYR619  PRO620  LYS621  CYS622 
 ASP623  PHE694  ASN695  SER759  ASP760  ASP761  ALA762  ILE779  LEU786  VAL792 
 PHE793  MET794  SER795  GLU796  ALA797  LYS798  CYS799  TRP800  GLU811  SER814 

> <Gold.Protein.RotatedAtoms>
  150.7150  134.5089  159.5597 H   0  0  0  0  0  0  0  0  0  0  0  0  # atno 6907 bound_to 6896
  152.2670  134.7970  160.0430 H   0  0  0  0  0  0  0  0  0  0  0  0  # atno 6908 bound_to 6896
  151.8664  133.3431  159.3757 H   0  0  0  0  0  0  0  0  0  0  0  0  # atno 6909 bound_to 6896
  145.6708  139.2496  143.1869 H   0  0  0  0  0  0  0  0  0  0  0  0  # atno 7974 bound_to 7965
  155.7066  140.3495  155.4956 H   0  0  0  0  0  0  0  0  0  0  0  0  # atno 8008 bound_to 7997
  155.9393  140.1098  157.1091 H   0  0  0  0  0  0  0  0  0  0  0  0  # atno 8009 bound_to 7997
  154.4099  140.1216  156.4892 H   0  0  0  0  0  0  0  0  0  0  0  0  # atno 8010 bound_to 7997
  140.5836  143.8933  150.6811 H   0  0  0  0  0  0  0  0  0  0  0  0  # atno 10167 bound_to 10162
  157.5429  131.1096  150.8829 H   0  0  0  0  0  0  0  0  0  0  0  0  # atno 10718 bound_to 10713
  154.2353  135.6353  153.5189 H   0  0  0  0  0  0  0  0  0  0  0  0  # atno 10763 bound_to 10752
  152.9940  135.5529  154.5968 H   0  0  0  0  0  0  0  0  0  0  0  0  # atno 10764 bound_to 10752
  154.5461  135.2898  155.1026 H   0  0  0  0  0  0  0  0  0  0  0  0  # atno 10765 bound_to 10752
  139.8810  134.9358  156.5614 H   0  0  0  0  0  0  0  0  0  0  0  0  # atno 11005 bound_to 11000
  146.1047  140.7502  142.9532 LP  0  0  0  0  0  0  0  0  0  0  0  0  # atno 17320 bound_to 7965
  144.7057  140.3843  143.7120 LP  0  0  0  0  0  0  0  0  0  0  0  0  # atno 17321 bound_to 7965
  140.2438  143.3644  152.1464 LP  0  0  0  0  0  0  0  0  0  0  0  0  # atno 17342 bound_to 10162
  139.5184  144.7006  151.5505 LP  0  0  0  0  0  0  0  0  0  0  0  0  # atno 17343 bound_to 10162
  156.9376  130.5372  149.5279 LP  0  0  0  0  0  0  0  0  0  0  0  0  # atno 17370 bound_to 10713
  156.0512  130.5581  150.8992 LP  0  0  0  0  0  0  0  0  0  0  0  0  # atno 17371 bound_to 10713
  140.8167  133.8386  155.8858 LP  0  0  0  0  0  0  0  0  0  0  0  0  # atno 17394 bound_to 11000
  140.9456  134.1844  157.4765 LP  0  0  0  0  0  0  0  0  0  0  0  0  # atno 17395 bound_to 11000

$$$$
