AV-unprocessed.smi:34|AV-procd|sdf|246|dock7
  -GOLD-   2262016 03D 1   1.00000     0.00000
 Structure written by MMmdl.
 54 58  0  0  0  0  0  0  0  0  2 V2000
  153.8847  141.2018  161.9705 O   0  0  0  0  0  0  0  0  0  0  0  0
  153.7972  141.5005  160.7775 C   0  0  0  0  0  0  0  0  0  0  0  0
  154.1307  140.7420  159.7026 N   0  5  0  0  0  0  0  0  0  0  0  0
  153.7147  139.4687  159.6284 C   0  0  0  0  0  0  0  0  0  0  0  0
  153.9803  138.6015  160.6382 N   0  0  0  0  0  0  0  0  0  0  0  0
  153.5679  137.3315  160.5635 C   0  0  0  0  0  0  0  0  0  0  0  0
  152.8889  136.7258  159.5850 N   0  0  0  0  0  0  0  0  0  0  0  0
  152.6237  137.5826  158.5564 C   0  0  0  0  0  0  0  0  0  0  0  0
  153.0056  138.9556  158.5077 C   0  0  0  0  0  0  0  0  0  0  0  0
  152.5863  139.5418  157.3232 N   0  0  0  0  0  0  0  0  0  0  0  0
  151.9814  138.5221  156.7189 C   0  0  0  0  0  0  0  0  0  0  0  0
  151.9478  137.3413  157.3689 N   0  0  0  0  0  0  0  0  0  0  0  0
  151.3341  136.0679  156.8759 C   0  0  1  0  0  0  0  0  0  0  0  0
  150.4979  135.5663  157.8801 O   0  0  0  0  0  0  0  0  0  0  0  0
  149.1464  135.5443  157.4259 C   0  0  2  0  0  0  0  0  0  0  0  0
  148.3530  134.4357  158.1290 C   0  0  0  0  0  0  0  0  0  0  0  0
  147.7272  134.9635  159.2878 O   0  0  0  0  0  0  0  0  0  0  0  0
  146.5349  135.5827  159.1857 C   0  0  0  0  0  0  0  0  0  0  0  0
  146.1578  136.1728  158.1712 O   0  0  0  0  0  0  0  0  0  0  0  0
  145.7213  135.4871  160.4319 C   0  0  0  0  0  0  0  0  0  0  0  0
  146.2306  134.7660  161.5373 C   0  0  0  0  0  0  0  0  0  0  0  0
  145.4838  134.6529  162.7259 C   0  0  0  0  0  0  0  0  0  0  0  0
  144.2197  135.2623  162.8251 C   0  0  0  0  0  0  0  0  0  0  0  0
  143.7029  135.9848  161.7338 C   0  0  0  0  0  0  0  0  0  0  0  0
  144.4475  136.0971  160.5431 C   0  0  0  0  0  0  0  0  0  0  0  0
  149.2845  135.3905  155.9117 C   0  0  2  0  0  0  0  0  0  0  0  0
  149.5820  134.1183  155.6291 F   0  0  0  0  0  0  0  0  0  0  0  0
  150.4686  136.3010  155.6275 C   0  0  2  0  0  0  0  0  0  0  0  0
  151.1038  135.9335  154.4196 O   0  0  0  0  0  0  0  0  0  0  0  0
  153.3319  142.8838  160.4088 C   0  0  0  0  0  0  0  0  0  0  0  0
  152.8606  143.7557  161.4170 C   0  0  0  0  0  0  0  0  0  0  0  0
  152.3973  145.0451  161.0903 C   0  0  0  0  0  0  0  0  0  0  0  0
  152.3913  145.4735  159.7496 C   0  0  0  0  0  0  0  0  0  0  0  0
  152.8448  144.6094  158.7355 C   0  0  0  0  0  0  0  0  0  0  0  0
  153.3083  143.3199  159.0613 C   0  0  0  0  0  0  0  0  0  0  0  0
  153.8175  136.7105  161.4108 H   0  0  0  0  0  0  0  0  0  0  0  0
  151.5329  138.6428  155.7436 H   0  0  0  0  0  0  0  0  0  0  0  0
  152.1678  135.3828  156.7146 H   0  0  0  0  0  0  0  0  0  0  0  0
  148.6870  136.5060  157.6508 H   0  0  0  0  0  0  0  0  0  0  0  0
  147.6094  134.0106  157.4533 H   0  0  0  0  0  0  0  0  0  0  0  0
  149.0253  133.6282  158.4219 H   0  0  0  0  0  0  0  0  0  0  0  0
  147.1984  134.2885  161.4845 H   0  0  0  0  0  0  0  0  0  0  0  0
  145.8823  134.0973  163.5620 H   0  0  0  0  0  0  0  0  0  0  0  0
  143.6474  135.1758  163.7370 H   0  0  0  0  0  0  0  0  0  0  0  0
  142.7333  136.4543  161.8093 H   0  0  0  0  0  0  0  0  0  0  0  0
  144.0217  136.6587  159.7246 H   0  0  0  0  0  0  0  0  0  0  0  0
  148.3830  135.6589  155.3604 H   0  0  0  0  0  0  0  0  0  0  0  0
  150.1384  137.3390  155.5777 H   0  0  0  0  0  0  0  0  0  0  0  0
  150.5374  136.1679  153.7003 H   0  0  0  0  0  0  0  0  0  0  0  0
  152.8562  143.4413  162.4507 H   0  0  0  0  0  0  0  0  0  0  0  0
  152.0446  145.7045  161.8695 H   0  0  0  0  0  0  0  0  0  0  0  0
  152.0357  146.4617  159.4989 H   0  0  0  0  0  0  0  0  0  0  0  0
  152.8352  144.9338  157.7054 H   0  0  0  0  0  0  0  0  0  0  0  0
  153.6422  142.6690  158.2659 H   0  0  0  0  0  0  0  0  0  0  0  0
  1  2  2  0  0  0  0
  2  3  1  0  0  0  0
  2 30  1  0  0  0  0
  3  4  1  0  0  0  0
  4  9  1  0  0  0  0
  4  5  2  0  0  0  0
  5  6  1  0  0  0  0
  6  7  2  0  0  0  0
  6 36  1  0  0  0  0
  7  8  1  0  0  0  0
  8 12  1  0  0  0  0
  8  9  2  0  0  0  0
  9 10  1  0  0  0  0
 10 11  2  0  0  0  0
 11 12  1  0  0  0  0
 11 37  1  0  0  0  0
 12 13  1  0  0  0  0
 13 28  1  0  0  0  0
 13 14  1  0  0  0  0
 13 38  1  0  0  0  0
 14 15  1  0  0  0  0
 15 16  1  0  0  0  0
 15 26  1  0  0  0  0
 15 39  1  0  0  0  0
 16 17  1  0  0  0  0
 16 40  1  0  0  0  0
 16 41  1  0  0  0  0
 17 18  1  0  0  0  0
 18 19  2  0  0  0  0
 18 20  1  0  0  0  0
 20 25  1  0  0  0  0
 20 21  2  0  0  0  0
 21 22  1  0  0  0  0
 21 42  1  0  0  0  0
 22 23  2  0  0  0  0
 22 43  1  0  0  0  0
 23 24  1  0  0  0  0
 23 44  1  0  0  0  0
 24 25  2  0  0  0  0
 24 45  1  0  0  0  0
 25 46  1  0  0  0  0
 26 27  1  0  0  0  0
 26 28  1  0  0  0  0
 26 47  1  0  0  0  0
 28 29  1  0  0  0  0
 28 48  1  0  0  0  0
 29 49  1  0  0  0  0
 30 35  1  0  0  0  0
 30 31  2  0  0  0  0
 31 32  1  0  0  0  0
 31 50  1  0  0  0  0
 32 33  2  0  0  0  0
 32 51  1  0  0  0  0
 33 34  1  0  0  0  0
 33 52  1  0  0  0  0
 34 35  2  0  0  0  0
 34 53  1  0  0  0  0
 35 54  1  0  0  0  0
M  CHG  1   3  -1
M  END
> <s_m_source_file>
AV-unprocessed.smi

> <i_m_source_file_index>
34

> <i_lp_mmshare_version>
43012

> <i_f3d_flags>
0

> <s_epik_input>
W2NIXTFbY0hdW2NIXVtjSF1bY0hdYzFDKD1PKVtOSF1jKG5bY0hdbjIpYyhjMjMpbltjSF1uM1tDQEBIXTRPW0NASF0oW0NAQEhdKEYpW0NASF00W09IXSlbQ0gyXU9DKD1PKWM1W2NIXVtjSF1bY0hdW2NIXVtjSF01

> <s_epik_cmdline>
J2VwaWtfcHl0aG9uJywgJy1waCcsICc3LjAnLCAnLXRuJywgJzgnLCAnLW1hJywgJzIwMCcsICctbWV0YWxfYmluZGluZycsICctaW1hZScsICc8aW5maWxlLm1hZT4nLCAnLW9tYWUnLCAnPG91dGZpbGUubWFlPic=

> <r_lp_tautomer_probability>
1

> <r_epik_Ionization_Penalty>
4.33227

> <r_epik_Ionization_Penalty_Charging>
3.41027

> <r_epik_Ionization_Penalty_Neutral>
0.922001

> <r_epik_State_Penalty>
3.41358

> <r_epik_Charging_Adjusted_Penalty>
6.82385

> <i_epik_Tot_Q>
-1

> <i_epik_Tot_abs_Q>
1

> <r_epik_Metal_State_Penalty>
0.496292

> <b_epik_Metal_Only>
1

> <s_epik_Chemistry_Notes>
This compound has an ester and may undergo hydrolysis at high or low pH. This compound contains an acetal/aminal-like group ( X-CH(R)-Y where X, Y are N, S, or O) that may be acid/base labile, releasing an aldehyde.

> <s_lp_Force_Field>
OPLS_2005

> <r_lp_Energy>
46.0199

> <b_lp_Chiralities_Consistent>
1

> <s_lp_Variant>
AV-unprocessed.smi:34-32

> <Gold.Version>
5.8.1

> <Gold.Id.Protein>
6NUR|6NUR_protein|mol2

> <Gold.PLP.Fitness>
59.5158

> <Gold.PLP.PLP>
-54.6986

> <Gold.PLP.part.hbond>
-4.9291

> <Gold.PLP.part.metal>
0.0000

> <Gold.PLP.part.buried>
-7.1426

> <Gold.PLP.part.nonpolar>
-43.4393

> <Gold.PLP.part.repulsive>
0.0102

> <Gold.PLP.ligand.clash>
0.0000

> <Gold.PLP.ligand.torsion>
1.9732

> <Gold.PLP.Chemscore.Hbond>
2.7580

> <Gold.PLP.Chemscore.CHOScore>
0.0000

> <Gold.PLP.Chemscore.Metal>
0.0000

> <Gold.Chemscore.Hbonds>
donor molecule, donor type, donor heavy atom, donor atom, acceptor molecule, acceptor atom, score
      L1  H    29    49       P1  7949  0.06
      P1  H  6896  6907       L1     7  1.00
      P1  H  6896  6909       L1    14  0.48
      P1  H  7997  8009       L1    10  0.02
      P1  H 10752 10764       L1    29  1.00

> <Gold.PLP.Chemscore.Internal.Correction>
0.4897

> <Gold.Rescore>
     Score         DG    S(hbond)    S(metal)    S(lipo)     H(rot)  DE(clash)    DE(int)     intcor
     17.76     -21.15       2.41        0.00     124.10       2.69       0.08       3.31       ----

> <Gold.Chemscore.Fitness>
17.7583

> <Gold.Chemscore.DG>
-21.1487

> <Gold.Chemscore.ZeroCoef>
-5.4800

> <Gold.Chemscore.Hbond>
2.4091

> <Gold.Chemscore.Metal>
0.0000

> <Gold.Chemscore.Lipo>
124.1020

> <Gold.Chemscore.Internal_Hbond>
0.0000

> <Gold.Chemscore.DEClash>
0.0768

> <Gold.Chemscore.DEInternal>
3.3135

> <Gold.Chemscore.Rot>
2.6944

> <Gold.Chemscore.Internal.Correction>
   9.000000E+99

> <Gold.Chemscore.Hbonds>
donor molecule, donor type, donor heavy atom, donor atom, acceptor molecule, acceptor atom, score
      P1  H  6896  6907       L1     7  0.92
      P1  H  6896  6909       L1    14  0.33
      P1  H  7997  8009       L1    10  0.02
      P1  H 10752 10764       L1    29  0.98

> <Gold.Chemscore.Hbond.Weighted>
-8.0463

> <Gold.Chemscore.Metal.Weighted>
-0.0000

> <Gold.Chemscore.Lipo.Weighted>
-14.5199

> <Gold.Chemscore.Internal_Hbond.Weighted>
0.0000

> <Gold.Chemscore.DEClash.Weighted>
0.0768

> <Gold.Chemscore.DEInternal.Weighted>
3.3135

> <Gold.Chemscore.Rot.Weighted>
6.8975

> <Gold.Chemscore.Internal.Correction.Weighted>
   9.000000E+99

> <Gold.Protein.RotatedTorsions>
[ 6907 6896 6895 6894 ] final   30.05 input  -60.11 | X-H torsion
[ 7974 7965 7964 7962 ] final  -84.96 input  175.53 | X-H torsion
[ 8008 7997 7996 7995 ] final -135.48 input   59.86 | X-H torsion
[ 10167 10162 10161 10158 ] final  -89.49 input  -65.29 | X-H torsion
[ 10718 10713 10712 10709 ] final   71.84 input   66.30 | X-H torsion
[ 10763 10752 10751 10750 ] final  -73.23 input  -60.55 | X-H torsion
[ 11005 11000 10999 10996 ] final   18.51 input  -57.11 | X-H torsion

> <Gold.Protein.ActiveResidues>
 VAL166  LYS551  ARG553  GLY616  TRP617  ASP618  TYR619  PRO620  LYS621  CYS622 
 ASP623  PHE694  ASN695  SER759  ASP760  ASP761  ALA762  ILE779  LEU786  VAL792 
 PHE793  MET794  SER795  GLU796  ALA797  LYS798  CYS799  TRP800  GLU811  SER814 

> <Gold.Protein.RotatedAtoms>
  152.0404  134.9714  160.0573 H   0  0  0  0  0  0  0  0  0  0  0  0  # atno 6907 bound_to 6896
  152.1155  133.4319  159.4659 H   0  0  0  0  0  0  0  0  0  0  0  0  # atno 6908 bound_to 6896
  150.6846  134.2516  159.4556 H   0  0  0  0  0  0  0  0  0  0  0  0  # atno 6909 bound_to 6896
  145.4996  140.9548  143.1767 H   0  0  0  0  0  0  0  0  0  0  0  0  # atno 7974 bound_to 7965
  155.3794  140.0493  157.3044 H   0  0  0  0  0  0  0  0  0  0  0  0  # atno 8008 bound_to 7997
  154.5090  140.2185  155.9156 H   0  0  0  0  0  0  0  0  0  0  0  0  # atno 8009 bound_to 7997
  156.1560  140.3126  155.8732 H   0  0  0  0  0  0  0  0  0  0  0  0  # atno 8010 bound_to 7997
  140.3643  143.2826  151.9577 H   0  0  0  0  0  0  0  0  0  0  0  0  # atno 10167 bound_to 10162
  157.6472  130.9549  150.0846 H   0  0  0  0  0  0  0  0  0  0  0  0  # atno 10718 bound_to 10713
  154.4566  135.5904  153.6227 H   0  0  0  0  0  0  0  0  0  0  0  0  # atno 10763 bound_to 10752
  152.9819  135.6034  154.3538 H   0  0  0  0  0  0  0  0  0  0  0  0  # atno 10764 bound_to 10752
  154.3405  135.2841  155.2404 H   0  0  0  0  0  0  0  0  0  0  0  0  # atno 10765 bound_to 10752
  140.4240  134.1489  155.7675 H   0  0  0  0  0  0  0  0  0  0  0  0  # atno 11005 bound_to 11000
  144.7787  139.6572  143.7163 LP  0  0  0  0  0  0  0  0  0  0  0  0  # atno 17320 bound_to 7965
  146.2234  139.5678  142.9603 LP  0  0  0  0  0  0  0  0  0  0  0  0  # atno 17321 bound_to 7965
  139.4810  144.5964  151.7682 LP  0  0  0  0  0  0  0  0  0  0  0  0  # atno 17342 bound_to 10162
  140.5096  144.1045  150.5991 LP  0  0  0  0  0  0  0  0  0  0  0  0  # atno 17343 bound_to 10162
  156.1812  130.3650  149.9033 LP  0  0  0  0  0  0  0  0  0  0  0  0  # atno 17370 bound_to 10713
  156.6984  130.8923  151.3596 LP  0  0  0  0  0  0  0  0  0  0  0  0  # atno 17371 bound_to 10713
  141.1772  133.8488  157.1380 LP  0  0  0  0  0  0  0  0  0  0  0  0  # atno 17394 bound_to 11000
  140.0180  134.9959  157.0533 LP  0  0  0  0  0  0  0  0  0  0  0  0  # atno 17395 bound_to 11000

$$$$
