AV-unprocessed.smi:2091|AV-procd|sdf|8538|dock2
  -GOLD-   2272011263D 1   1.00000     0.00000
 Structure written by MMmdl.
 36 37  0  0  0  0  0  0  0  0  1 V2000
  150.8638  139.1134  158.0355 O   0  0  0  0  0  0  0  0  0  0  0  0
  151.4592  139.8737  157.2709 C   0  0  0  0  0  0  0  0  0  0  0  0
  151.6485  139.5046  155.7935 C   0  0  0  0  0  0  0  0  0  0  0  0
  150.3904  139.5437  155.0349 N   0  0  0  0  0  0  0  0  0  0  0  0
  149.5949  140.6805  155.0515 C   0  0  0  0  0  0  0  0  0  0  0  0
  148.4227  140.7800  154.3808 C   0  0  0  0  0  0  0  0  0  0  0  0
  147.9293  139.6605  153.5860 C   0  0  0  0  0  0  0  0  0  0  0  0
  146.8829  139.6552  152.9418 O   0  0  0  0  0  0  0  0  0  0  0  0
  148.7559  138.5340  153.5973 N   0  0  0  0  0  0  0  0  0  0  0  0
  149.9637  138.4241  154.2879 C   0  0  0  0  0  0  0  0  0  0  0  0
  150.6151  137.3815  154.2327 O   0  0  0  0  0  0  0  0  0  0  0  0
  151.9572  141.0604  157.6534 N   0  0  0  0  0  0  0  0  0  0  0  0
  151.9047  141.6102  159.0098 C   0  0  2  0  0  0  0  0  0  0  0  0
  151.9829  143.1497  158.8895 C   0  0  0  0  0  0  0  0  0  0  0  0
  151.4182  143.8990  160.1086 C   0  0  0  0  0  0  0  0  0  0  0  0
  152.1945  143.6873  161.4169 C   0  0  0  0  0  0  0  0  0  0  0  0
  152.1955  142.2287  161.9048 C   0  0  0  0  0  0  0  0  0  0  0  0
  153.1397  141.4032  161.1634 N   0  0  0  0  0  0  0  0  0  0  0  0
  153.0964  141.1028  159.8564 C   0  0  0  0  0  0  0  0  0  0  0  0
  153.9955  140.4374  159.3425 O   0  0  0  0  0  0  0  0  0  0  0  0
  148.4545  137.7324  153.0627 H   0  0  0  0  0  0  0  0  0  0  0  0
  152.3732  140.1973  155.3636 H   0  0  0  0  0  0  0  0  0  0  0  0
  152.1074  138.5174  155.7064 H   0  0  0  0  0  0  0  0  0  0  0  0
  149.9193  141.5337  155.6305 H   0  0  0  0  0  0  0  0  0  0  0  0
  147.8469  141.6926  154.4329 H   0  0  0  0  0  0  0  0  0  0  0  0
  152.4340  141.6163  156.9587 H   0  0  0  0  0  0  0  0  0  0  0  0
  150.9623  141.3163  159.4754 H   0  0  0  0  0  0  0  0  0  0  0  0
  153.0051  143.4746  158.6870 H   0  0  0  0  0  0  0  0  0  0  0  0
  151.4001  143.4684  158.0239 H   0  0  0  0  0  0  0  0  0  0  0  0
  151.4052  144.9659  159.8838 H   0  0  0  0  0  0  0  0  0  0  0  0
  150.3753  143.6157  160.2559 H   0  0  0  0  0  0  0  0  0  0  0  0
  153.2180  144.0506  161.3125 H   0  0  0  0  0  0  0  0  0  0  0  0
  151.7349  144.3086  162.1862 H   0  0  0  0  0  0  0  0  0  0  0  0
  152.5001  142.2016  162.9514 H   0  0  0  0  0  0  0  0  0  0  0  0
  151.1946  141.7967  161.8657 H   0  0  0  0  0  0  0  0  0  0  0  0
  153.9259  141.0474  161.6879 H   0  0  0  0  0  0  0  0  0  0  0  0
  1  2  2  0  0  0  0
  2  3  1  0  0  0  0
  2 12  1  0  0  0  0
  3  4  1  0  0  0  0
  3 22  1  0  0  0  0
  3 23  1  0  0  0  0
  4 10  1  0  0  0  0
  4  5  1  0  0  0  0
  5  6  2  0  0  0  0
  5 24  1  0  0  0  0
  6  7  1  0  0  0  0
  6 25  1  0  0  0  0
  7  8  2  0  0  0  0
  7  9  1  0  0  0  0
  9 21  1  0  0  0  0
  9 10  1  0  0  0  0
 10 11  2  0  0  0  0
 12 13  1  0  0  0  0
 12 26  1  0  0  0  0
 13 19  1  0  0  0  0
 13 14  1  0  0  0  0
 13 27  1  0  0  0  0
 14 15  1  0  0  0  0
 14 28  1  0  0  0  0
 14 29  1  0  0  0  0
 15 16  1  0  0  0  0
 15 30  1  0  0  0  0
 15 31  1  0  0  0  0
 16 17  1  0  0  0  0
 16 32  1  0  0  0  0
 16 33  1  0  0  0  0
 17 18  1  0  0  0  0
 17 34  1  0  0  0  0
 17 35  1  0  0  0  0
 18 19  1  0  0  0  0
 18 36  1  0  0  0  0
 19 20  2  0  0  0  0
M  END
> <s_m_source_file>
AV-unprocessed.smi

> <i_m_source_file_index>
2091

> <i_lp_mmshare_version>
43012

> <i_f3d_flags>
0

> <s_epik_input>
Tz1jMVtuSF1jKD1PKVtjSF1bY0hdbjFbQ0gyXUMoPU8pW05IXVtDQEBIXTJbQ0gyXVtDSDJdW0NIMl1bQ0gyXVtOSF1DMj1P

> <s_epik_cmdline>
J2VwaWtfcHl0aG9uJywgJy1waCcsICc3LjAnLCAnLXRuJywgJzgnLCAnLW1hJywgJzIwMCcsICctbWV0YWxfYmluZGluZycsICctaW1hZScsICc8aW5maWxlLm1hZT4nLCAnLW9tYWUnLCAnPG91dGZpbGUubWFlPic=

> <r_lp_tautomer_probability>
0.999537

> <r_epik_Ionization_Penalty>
0.00356328

> <r_epik_Ionization_Penalty_Charging>
0.00356323

> <r_epik_Ionization_Penalty_Neutral>
5.33217e-08

> <r_epik_State_Penalty>
0.00253125

> <r_epik_Charging_Adjusted_Penalty>
0.00609448

> <i_epik_Tot_Q>
0

> <i_epik_Tot_abs_Q>
0

> <r_epik_Metal_State_Penalty>
0.368636

> <b_epik_Metal_Only>
0

> <s_lp_Force_Field>
OPLS_2005

> <r_lp_Energy>
10.0871

> <b_lp_Chiralities_Consistent>
1

> <s_lp_Variant>
AV-unprocessed.smi:2091-1

> <Gold.Version>
5.8.1

> <Gold.Id.Protein>
6NUR|6NUR_protein|mol2

> <Gold.PLP.Fitness>
42.0855

> <Gold.PLP.PLP>
-38.3061

> <Gold.PLP.part.hbond>
-3.0000

> <Gold.PLP.part.metal>
0.0000

> <Gold.PLP.part.buried>
0.3376

> <Gold.PLP.part.nonpolar>
-34.7652

> <Gold.PLP.part.repulsive>
0.8536

> <Gold.PLP.ligand.clash>
0.0000

> <Gold.PLP.ligand.torsion>
0.4933

> <Gold.PLP.Chemscore.Hbond>
1.5880

> <Gold.PLP.Chemscore.CHOScore>
0.0000

> <Gold.PLP.Chemscore.Metal>
0.0000

> <Gold.Chemscore.Hbonds>
donor molecule, donor type, donor heavy atom, donor atom, acceptor molecule, acceptor atom, score
      L1  H     9    21       P1  7948  0.93
      P1  H  7997  8009       L1    20  0.23

> <Gold.PLP.Chemscore.Internal.Correction>
0.0021

> <Gold.Rescore>
     Score         DG    S(hbond)    S(metal)    S(lipo)     H(rot)  DE(clash)    DE(int)     intcor
     16.30     -16.85       2.26        0.00      73.80       1.88       0.28       0.26       ----

> <Gold.Chemscore.Fitness>
16.3024

> <Gold.Chemscore.DG>
-16.8487

> <Gold.Chemscore.ZeroCoef>
-5.4800

> <Gold.Chemscore.Hbond>
2.2630

> <Gold.Chemscore.Metal>
0.0000

> <Gold.Chemscore.Lipo>
73.7980

> <Gold.Chemscore.Internal_Hbond>
0.0000

> <Gold.Chemscore.DEClash>
0.2844

> <Gold.Chemscore.DEInternal>
0.2619

> <Gold.Chemscore.Rot>
1.8844

> <Gold.Chemscore.Internal.Correction>
   9.000000E+99

> <Gold.Chemscore.Hbonds>
donor molecule, donor type, donor heavy atom, donor atom, acceptor molecule, acceptor atom, score
      L1  H     9    21       P1  7948  0.89
      P1  H  7997  8009       L1    20  0.25

> <Gold.Chemscore.Hbond.Weighted>
-7.5586

> <Gold.Chemscore.Metal.Weighted>
-0.0000

> <Gold.Chemscore.Lipo.Weighted>
-8.6344

> <Gold.Chemscore.Internal_Hbond.Weighted>
0.0000

> <Gold.Chemscore.DEClash.Weighted>
0.2844

> <Gold.Chemscore.DEInternal.Weighted>
0.2619

> <Gold.Chemscore.Rot.Weighted>
4.8242

> <Gold.Chemscore.Internal.Correction.Weighted>
   9.000000E+99

> <Gold.Protein.RotatedTorsions>
[ 6907 6896 6895 6894 ] final   94.44 input  -60.11 | X-H torsion
[ 7974 7965 7964 7962 ] final  -60.84 input  175.53 | X-H torsion
[ 8008 7997 7996 7995 ] final  122.03 input   59.86 | X-H torsion
[ 10167 10162 10161 10158 ] final  -70.17 input  -65.29 | X-H torsion
[ 10718 10713 10712 10709 ] final  -37.66 input   66.30 | X-H torsion
[ 10763 10752 10751 10750 ] final  -69.19 input  -60.55 | X-H torsion
[ 11005 11000 10999 10996 ] final   -0.99 input  -57.11 | X-H torsion

> <Gold.Protein.ActiveResidues>
 VAL166  LYS551  ARG553  GLY616  TRP617  ASP618  TYR619  PRO620  LYS621  CYS622 
 ASP623  PHE694  ASN695  SER759  ASP760  ASP761  ALA762  ILE779  LEU786  VAL792 
 PHE793  MET794  SER795  GLU796  ALA797  LYS798  CYS799  TRP800  GLU811  SER814 

> <Gold.Protein.RotatedAtoms>
  152.5449  134.1194  159.8392 H   0  0  0  0  0  0  0  0  0  0  0  0  # atno 6907 bound_to 6896
  151.1252  133.5069  159.2608 H   0  0  0  0  0  0  0  0  0  0  0  0  # atno 6908 bound_to 6896
  151.1736  135.0339  159.8817 H   0  0  0  0  0  0  0  0  0  0  0  0  # atno 6909 bound_to 6896
  145.8107  140.8600  143.0183 H   0  0  0  0  0  0  0  0  0  0  0  0  # atno 7974 bound_to 7965
  156.2711  140.2795  156.1402 H   0  0  0  0  0  0  0  0  0  0  0  0  # atno 8008 bound_to 7997
  155.0962  140.0389  157.2701 H   0  0  0  0  0  0  0  0  0  0  0  0  # atno 8009 bound_to 7997
  154.6851  140.2617  155.6875 H   0  0  0  0  0  0  0  0  0  0  0  0  # atno 8010 bound_to 7997
  140.5374  143.2317  151.7153 H   0  0  0  0  0  0  0  0  0  0  0  0  # atno 10167 bound_to 10162
  156.3127  130.4254  149.8035 H   0  0  0  0  0  0  0  0  0  0  0  0  # atno 10718 bound_to 10713
  154.3999  135.6033  153.5891 H   0  0  0  0  0  0  0  0  0  0  0  0  # atno 10763 bound_to 10752
  152.9788  135.5904  154.4197 H   0  0  0  0  0  0  0  0  0  0  0  0  # atno 10764 bound_to 10752
  154.3994  135.2843  155.2084 H   0  0  0  0  0  0  0  0  0  0  0  0  # atno 10765 bound_to 10752
  140.6424  133.9477  155.8334 H   0  0  0  0  0  0  0  0  0  0  0  0  # atno 11005 bound_to 11000
  144.6758  140.0392  143.7481 LP  0  0  0  0  0  0  0  0  0  0  0  0  # atno 17320 bound_to 7965
  145.9780  139.2919  143.1059 LP  0  0  0  0  0  0  0  0  0  0  0  0  # atno 17321 bound_to 7965
  139.4976  144.4022  152.0169 LP  0  0  0  0  0  0  0  0  0  0  0  0  # atno 17342 bound_to 10162
  140.3128  144.3518  150.6029 LP  0  0  0  0  0  0  0  0  0  0  0  0  # atno 17343 bound_to 10162
  156.5373  130.8284  151.3257 LP  0  0  0  0  0  0  0  0  0  0  0  0  # atno 17370 bound_to 10713
  157.7394  130.9832  150.2314 LP  0  0  0  0  0  0  0  0  0  0  0  0  # atno 17371 bound_to 10713
  141.0597  134.0364  157.3675 LP  0  0  0  0  0  0  0  0  0  0  0  0  # atno 17394 bound_to 11000
  139.9075  135.0183  156.7550 LP  0  0  0  0  0  0  0  0  0  0  0  0  # atno 17395 bound_to 11000

$$$$
