AV-unprocessed.smi:3039|AV-procd|sdf|11591|dock4
  -GOLD-   2272016563D 1   1.00000     0.00000
 Structure written by MMmdl.
 38 39  0  0  0  0  0  0  0  0  1 V2000
  152.9508  139.6012  155.5220 O   0  0  0  0  0  0  0  0  0  0  0  0
  151.8121  139.5510  155.9866 C   0  0  0  0  0  0  0  0  0  0  0  0
  150.7062  138.8339  155.2128 C   0  0  0  0  0  0  0  0  0  0  0  0
  149.6582  139.8213  154.7765 C   0  0  0  0  0  0  0  0  0  0  0  0
  149.6110  141.2229  155.0162 C   0  0  0  0  0  0  0  0  0  0  0  0
  148.4554  141.6128  154.4031 C   0  0  0  0  0  0  0  0  0  0  0  0
  147.8400  140.5491  153.8280 O   0  0  0  0  0  0  0  0  0  0  0  0
  148.6162  139.4098  154.0696 N   0  0  0  0  0  0  0  0  0  0  0  0
  151.4577  140.0976  157.1630 N   0  0  0  0  0  0  0  0  0  0  0  0
  152.3095  140.8482  158.0916 C   0  0  2  0  0  0  0  0  0  0  0  0
  152.7592  139.9357  159.2601 C   0  0  0  0  0  0  0  0  0  0  0  0
  153.9955  140.4613  160.0080 C   0  0  0  0  0  0  0  0  0  0  0  0
  153.6982  141.4332  161.1608 C   0  0  0  0  0  0  0  0  0  0  0  0
  152.5718  142.4489  160.9124 C   0  0  0  0  0  0  0  0  0  0  0  0
  152.5223  143.0361  159.4922 C   0  0  0  0  0  0  0  0  0  0  0  0
  151.6643  142.2051  158.5088 C   0  0  1  0  0  0  0  0  0  0  0  0
  151.2547  143.0704  157.2924 C   0  0  0  0  0  0  0  0  0  0  0  0
  150.6375  144.2768  157.6937 O   0  0  0  0  0  0  0  0  0  0  0  0
  151.1420  138.3367  154.3456 H   0  0  0  0  0  0  0  0  0  0  0  0
  150.2707  138.0481  155.8322 H   0  0  0  0  0  0  0  0  0  0  0  0
  150.3124  141.8417  155.5560 H   0  0  0  0  0  0  0  0  0  0  0  0
  147.9590  142.5655  154.2919 H   0  0  0  0  0  0  0  0  0  0  0  0
  150.4927  139.9928  157.4423 H   0  0  0  0  0  0  0  0  0  0  0  0
  153.2025  141.0758  157.5089 H   0  0  0  0  0  0  0  0  0  0  0  0
  151.9426  139.7461  159.9576 H   0  0  0  0  0  0  0  0  0  0  0  0
  153.0243  138.9619  158.8451 H   0  0  0  0  0  0  0  0  0  0  0  0
  154.5463  139.6146  160.4197 H   0  0  0  0  0  0  0  0  0  0  0  0
  154.6801  140.9292  159.2996 H   0  0  0  0  0  0  0  0  0  0  0  0
  153.4499  140.8628  162.0566 H   0  0  0  0  0  0  0  0  0  0  0  0
  154.6181  141.9682  161.3998 H   0  0  0  0  0  0  0  0  0  0  0  0
  151.6092  141.9978  161.1567 H   0  0  0  0  0  0  0  0  0  0  0  0
  152.6940  143.2627  161.6281 H   0  0  0  0  0  0  0  0  0  0  0  0
  152.0782  144.0288  159.5742 H   0  0  0  0  0  0  0  0  0  0  0  0
  153.5272  143.1986  159.1008 H   0  0  0  0  0  0  0  0  0  0  0  0
  150.7333  141.9816  159.0302 H   0  0  0  0  0  0  0  0  0  0  0  0
  152.1152  143.3069  156.6666 H   0  0  0  0  0  0  0  0  0  0  0  0
  150.5606  142.5226  156.6542 H   0  0  0  0  0  0  0  0  0  0  0  0
  149.8682  144.4120  157.1618 H   0  0  0  0  0  0  0  0  0  0  0  0
  1  2  2  0  0  0  0
  2  3  1  0  0  0  0
  2  9  1  0  0  0  0
  3  4  1  0  0  0  0
  3 19  1  0  0  0  0
  3 20  1  0  0  0  0
  4  8  2  0  0  0  0
  4  5  1  0  0  0  0
  5  6  2  0  0  0  0
  5 21  1  0  0  0  0
  6  7  1  0  0  0  0
  6 22  1  0  0  0  0
  7  8  1  0  0  0  0
  9 10  1  0  0  0  0
  9 23  1  0  0  0  0
 10 16  1  0  0  0  0
 10 11  1  0  0  0  0
 10 24  1  0  0  0  0
 11 12  1  0  0  0  0
 11 25  1  0  0  0  0
 11 26  1  0  0  0  0
 12 13  1  0  0  0  0
 12 27  1  0  0  0  0
 12 28  1  0  0  0  0
 13 14  1  0  0  0  0
 13 29  1  0  0  0  0
 13 30  1  0  0  0  0
 14 15  1  0  0  0  0
 14 31  1  0  0  0  0
 14 32  1  0  0  0  0
 15 16  1  0  0  0  0
 15 33  1  0  0  0  0
 15 34  1  0  0  0  0
 16 17  1  0  0  0  0
 16 35  1  0  0  0  0
 17 18  1  0  0  0  0
 17 36  1  0  0  0  0
 17 37  1  0  0  0  0
 18 38  1  0  0  0  0
M  END
> <s_m_source_file>
AV-unprocessed.smi

> <i_m_source_file_index>
3039

> <i_lp_mmshare_version>
43012

> <i_f3d_flags>
0

> <s_epik_input>
bjFvW2NIXVtjSF1jMVtDSDJdQyg9TylbTkhdW0NAQEhdMltDSDJdW0NIMl1bQ0gyXVtDSDJdW0NIMl1bQ0BIXTJbQ0gyXVtPSF0=

> <s_epik_cmdline>
J2VwaWtfcHl0aG9uJywgJy1waCcsICc3LjAnLCAnLXRuJywgJzgnLCAnLW1hJywgJzIwMCcsICctbWV0YWxfYmluZGluZycsICctaW1hZScsICc8aW5maWxlLm1hZT4nLCAnLW9tYWUnLCAnPG91dGZpbGUubWFlPic=

> <r_lp_tautomer_probability>
1

> <r_epik_Ionization_Penalty>
3.05817e-07

> <r_epik_Ionization_Penalty_Charging>
0

> <r_epik_Ionization_Penalty_Neutral>
3.05817e-07

> <r_epik_State_Penalty>
-0

> <r_epik_Charging_Adjusted_Penalty>
0

> <i_epik_Tot_Q>
0

> <i_epik_Tot_abs_Q>
0

> <r_epik_Metal_State_Penalty>
-0

> <b_epik_Metal_Only>
0

> <s_lp_Force_Field>
OPLS_2005

> <r_lp_Energy>
18.2522

> <b_lp_Chiralities_Consistent>
1

> <s_lp_Variant>
AV-unprocessed.smi:3039-1

> <Gold.Version>
5.8.1

> <Gold.Id.Protein>
6NUR|6NUR_protein|mol2

> <Gold.PLP.Fitness>
46.6058

> <Gold.PLP.PLP>
-38.6356

> <Gold.PLP.part.hbond>
-2.2456

> <Gold.PLP.part.metal>
0.0000

> <Gold.PLP.part.buried>
-4.6778

> <Gold.PLP.part.nonpolar>
-31.7375

> <Gold.PLP.part.repulsive>
0.4312

> <Gold.PLP.ligand.clash>
0.0000

> <Gold.PLP.ligand.torsion>
0.2254

> <Gold.PLP.Chemscore.Hbond>
2.0000

> <Gold.PLP.Chemscore.CHOScore>
0.7737

> <Gold.PLP.Chemscore.Metal>
0.0000

> <Gold.Chemscore.Hbonds>
donor molecule, donor type, donor heavy atom, donor atom, acceptor molecule, acceptor atom, score
      L1  H    18    38       P1  8028  1.00
      P1  H  7997  8008       L1     1  1.00
      L1  C     6    22       P1  8028  0.51

> <Gold.PLP.Chemscore.Internal.Correction>
0.0997

> <Gold.Rescore>
     Score         DG    S(hbond)    S(metal)    S(lipo)     H(rot)  DE(clash)    DE(int)     intcor
     17.99     -18.38       1.90        0.00     105.42       2.26       0.08       0.31       ----

> <Gold.Chemscore.Fitness>
17.9890

> <Gold.Chemscore.DG>
-18.3829

> <Gold.Chemscore.ZeroCoef>
-5.4800

> <Gold.Chemscore.Hbond>
1.9036

> <Gold.Chemscore.Metal>
0.0000

> <Gold.Chemscore.Lipo>
105.4225

> <Gold.Chemscore.Internal_Hbond>
0.0000

> <Gold.Chemscore.DEClash>
0.0811

> <Gold.Chemscore.DEInternal>
0.3128

> <Gold.Chemscore.Rot>
2.2616

> <Gold.Chemscore.Internal.Correction>
   9.000000E+99

> <Gold.Chemscore.Hbonds>
donor molecule, donor type, donor heavy atom, donor atom, acceptor molecule, acceptor atom, score
      L1  H    18    38       P1  8028  0.44
      P1  H  7997  8008       L1     1  0.99

> <Gold.Chemscore.Hbond.Weighted>
-6.3581

> <Gold.Chemscore.Metal.Weighted>
-0.0000

> <Gold.Chemscore.Lipo.Weighted>
-12.3344

> <Gold.Chemscore.Internal_Hbond.Weighted>
0.0000

> <Gold.Chemscore.DEClash.Weighted>
0.0811

> <Gold.Chemscore.DEInternal.Weighted>
0.3128

> <Gold.Chemscore.Rot.Weighted>
5.7896

> <Gold.Chemscore.Internal.Correction.Weighted>
   9.000000E+99

> <Gold.Protein.RotatedTorsions>
[ 6907 6896 6895 6894 ] final   53.62 input  -60.11 | X-H torsion
[ 7974 7965 7964 7962 ] final  155.66 input  175.53 | X-H torsion
[ 8008 7997 7996 7995 ] final  -11.91 input   59.86 | X-H torsion
[ 10167 10162 10161 10158 ] final  -30.12 input  -65.29 | X-H torsion
[ 10718 10713 10712 10709 ] final  167.20 input   66.30 | X-H torsion
[ 10763 10752 10751 10750 ] final  121.99 input  -60.55 | X-H torsion
[ 11005 11000 10999 10996 ] final  -68.31 input  -57.11 | X-H torsion

> <Gold.Protein.ActiveResidues>
 VAL166  LYS551  ARG553  GLY616  TRP617  ASP618  TYR619  PRO620  LYS621  CYS622 
 ASP623  PHE694  ASN695  SER759  ASP760  ASP761  ALA762  ILE779  LEU786  VAL792 
 PHE793  MET794  SER795  GLU796  ALA797  LYS798  CYS799  TRP800  GLU811  SER814 

> <Gold.Protein.RotatedAtoms>
  152.3355  134.7203  160.0277 H   0  0  0  0  0  0  0  0  0  0  0  0  # atno 6907 bound_to 6896
  151.7606  133.3328  159.3425 H   0  0  0  0  0  0  0  0  0  0  0  0  # atno 6908 bound_to 6896
  150.7448  134.6041  159.6096 H   0  0  0  0  0  0  0  0  0  0  0  0  # atno 6909 bound_to 6896
  144.8011  139.7098  143.6181 H   0  0  0  0  0  0  0  0  0  0  0  0  # atno 7974 bound_to 7965
  154.5423  140.2290  155.8620 H   0  0  0  0  0  0  0  0  0  0  0  0  # atno 8008 bound_to 7997
  156.1870  140.3086  155.9220 H   0  0  0  0  0  0  0  0  0  0  0  0  # atno 8009 bound_to 7997
  155.3233  140.0441  157.3030 H   0  0  0  0  0  0  0  0  0  0  0  0  # atno 8010 bound_to 7997
  140.7253  143.3874  151.1491 H   0  0  0  0  0  0  0  0  0  0  0  0  # atno 10167 bound_to 10162
  157.0550  131.0324  151.2667 H   0  0  0  0  0  0  0  0  0  0  0  0  # atno 10718 bound_to 10713
  153.6227  135.3410  155.3016 H   0  0  0  0  0  0  0  0  0  0  0  0  # atno 10763 bound_to 10752
  154.8596  135.4277  154.2190 H   0  0  0  0  0  0  0  0  0  0  0  0  # atno 10764 bound_to 10752
  153.3067  135.7028  153.7226 H   0  0  0  0  0  0  0  0  0  0  0  0  # atno 10765 bound_to 10752
  141.1529  133.6738  156.6427 H   0  0  0  0  0  0  0  0  0  0  0  0  # atno 11005 bound_to 11000
  146.2292  139.5781  142.9566 LP  0  0  0  0  0  0  0  0  0  0  0  0  # atno 17320 bound_to 7965
  145.5551  141.0409  143.2257 LP  0  0  0  0  0  0  0  0  0  0  0  0  # atno 17321 bound_to 7965
  139.7473  143.8832  152.3067 LP  0  0  0  0  0  0  0  0  0  0  0  0  # atno 17342 bound_to 10162
  139.8674  144.7086  150.9028 LP  0  0  0  0  0  0  0  0  0  0  0  0  # atno 17343 bound_to 10162
  157.5000  130.7874  149.7595 LP  0  0  0  0  0  0  0  0  0  0  0  0  # atno 17370 bound_to 10713
  155.9996  130.3888  150.2658 LP  0  0  0  0  0  0  0  0  0  0  0  0  # atno 17371 bound_to 10713
  140.3381  134.7872  157.4377 LP  0  0  0  0  0  0  0  0  0  0  0  0  # atno 17394 bound_to 11000
  140.0961  134.5536  155.8397 LP  0  0  0  0  0  0  0  0  0  0  0  0  # atno 17395 bound_to 11000

$$$$
