AV-unprocessed.smi:1024|AV-procd|sdf|4465|dock8
  -GOLD-   22720 2443D 1   1.00000     0.00000
 Structure written by MMmdl.
 47 49  0  0  0  0  0  0  0  0  1 V2000
  145.9665  139.5819  154.8589 O   0  0  0  0  0  0  0  0  0  0  0  0
  146.9754  139.9376  154.2479 C   0  0  0  0  0  0  0  0  0  0  0  0
  147.2358  139.5173  152.9983 N   0  0  0  0  0  0  0  0  0  0  0  0
  146.4075  138.5978  152.2278 C   0  0  0  0  0  0  0  0  0  0  0  0
  146.0012  137.3720  153.0616 C   0  0  0  0  0  0  0  0  0  0  0  0
  145.3522  136.3668  152.2449 N   0  0  0  0  0  0  0  0  0  0  0  0
  144.1357  136.4809  151.5853 C   0  0  0  0  0  0  0  0  0  0  0  0
  143.9236  135.2817  150.9431 C   0  0  0  0  0  0  0  0  0  0  0  0
  144.9896  134.4207  151.1935 N   0  0  0  0  0  0  0  0  0  0  0  0
  145.7954  135.1322  151.9713 C   0  0  0  0  0  0  0  0  0  0  0  0
  147.8903  140.8000  154.7599 N   0  0  0  0  0  0  0  0  0  0  0  0
  149.2178  141.0961  154.1991 C   0  0  0  0  0  0  0  0  0  0  0  0
  150.2861  140.4003  155.0648 C   0  0  0  0  0  0  0  0  0  0  0  0
  150.2268  140.8179  156.5611 C   0  0  0  0  0  0  0  0  0  0  0  0
  151.1352  139.8549  157.3700 C   0  0  0  0  0  0  0  0  0  0  0  0
  151.3169  140.2712  158.8406 C   0  0  0  0  0  0  0  0  0  0  0  0
  151.8695  141.6984  158.9483 C   0  0  0  0  0  0  0  0  0  0  0  0
  150.9810  142.6921  158.1888 C   0  0  0  0  0  0  0  0  0  0  0  0
  150.7833  142.2620  156.7233 C   0  0  0  0  0  0  0  0  0  0  0  0
  148.7516  140.7052  157.0496 C   0  0  0  0  0  0  0  0  0  0  0  0
  147.7457  141.3820  156.0979 C   0  0  0  0  0  0  0  0  0  0  0  0
  148.0742  139.8591  152.5514 H   0  0  0  0  0  0  0  0  0  0  0  0
  145.5246  139.1153  151.8485 H   0  0  0  0  0  0  0  0  0  0  0  0
  146.9795  138.2806  151.3554 H   0  0  0  0  0  0  0  0  0  0  0  0
  146.8769  136.9230  153.5325 H   0  0  0  0  0  0  0  0  0  0  0  0
  145.3197  137.6575  153.8642 H   0  0  0  0  0  0  0  0  0  0  0  0
  143.5384  137.3799  151.6268 H   0  0  0  0  0  0  0  0  0  0  0  0
  143.0922  134.9748  150.3258 H   0  0  0  0  0  0  0  0  0  0  0  0
  146.7297  134.7458  152.3518 H   0  0  0  0  0  0  0  0  0  0  0  0
  149.3366  140.7879  153.1606 H   0  0  0  0  0  0  0  0  0  0  0  0
  149.3732  142.1753  154.1904 H   0  0  0  0  0  0  0  0  0  0  0  0
  150.1413  139.3218  154.9824 H   0  0  0  0  0  0  0  0  0  0  0  0
  151.2770  140.5971  154.6538 H   0  0  0  0  0  0  0  0  0  0  0  0
  150.7407  138.8389  157.3280 H   0  0  0  0  0  0  0  0  0  0  0  0
  152.1199  139.8097  156.9022 H   0  0  0  0  0  0  0  0  0  0  0  0
  150.3677  140.2001  159.3724 H   0  0  0  0  0  0  0  0  0  0  0  0
  151.9955  139.5772  159.3374 H   0  0  0  0  0  0  0  0  0  0  0  0
  151.9479  141.9913  159.9956 H   0  0  0  0  0  0  0  0  0  0  0  0
  152.8811  141.7287  158.5416 H   0  0  0  0  0  0  0  0  0  0  0  0
  150.0176  142.7860  158.6894 H   0  0  0  0  0  0  0  0  0  0  0  0
  151.4326  143.6839  158.2209 H   0  0  0  0  0  0  0  0  0  0  0  0
  151.7486  142.3309  156.2199 H   0  0  0  0  0  0  0  0  0  0  0  0
  150.1435  142.9887  156.2248 H   0  0  0  0  0  0  0  0  0  0  0  0
  148.4806  139.6518  157.1339 H   0  0  0  0  0  0  0  0  0  0  0  0
  148.6316  141.1155  158.0510 H   0  0  0  0  0  0  0  0  0  0  0  0
  147.9195  142.4571  156.0496 H   0  0  0  0  0  0  0  0  0  0  0  0
  146.7351  141.2728  156.4939 H   0  0  0  0  0  0  0  0  0  0  0  0
  1  2  2  0  0  0  0
  2  3  1  0  0  0  0
  2 11  1  0  0  0  0
  3  4  1  0  0  0  0
  3 22  1  0  0  0  0
  4  5  1  0  0  0  0
  4 23  1  0  0  0  0
  4 24  1  0  0  0  0
  5  6  1  0  0  0  0
  5 25  1  0  0  0  0
  5 26  1  0  0  0  0
  6 10  1  0  0  0  0
  6  7  1  0  0  0  0
  7  8  2  0  0  0  0
  7 27  1  0  0  0  0
  8  9  1  0  0  0  0
  8 28  1  0  0  0  0
  9 10  2  0  0  0  0
 10 29  1  0  0  0  0
 11 21  1  0  0  0  0
 11 12  1  0  0  0  0
 12 13  1  0  0  0  0
 12 30  1  0  0  0  0
 12 31  1  0  0  0  0
 13 14  1  0  0  0  0
 13 32  1  0  0  0  0
 13 33  1  0  0  0  0
 14 19  1  0  0  0  0
 14 15  1  0  0  0  0
 14 20  1  0  0  0  0
 15 16  1  0  0  0  0
 15 34  1  0  0  0  0
 15 35  1  0  0  0  0
 16 17  1  0  0  0  0
 16 36  1  0  0  0  0
 16 37  1  0  0  0  0
 17 18  1  0  0  0  0
 17 38  1  0  0  0  0
 17 39  1  0  0  0  0
 18 19  1  0  0  0  0
 18 40  1  0  0  0  0
 18 41  1  0  0  0  0
 19 42  1  0  0  0  0
 19 43  1  0  0  0  0
 20 21  1  0  0  0  0
 20 44  1  0  0  0  0
 20 45  1  0  0  0  0
 21 46  1  0  0  0  0
 21 47  1  0  0  0  0
M  END
> <s_m_source_file>
AV-unprocessed.smi

> <i_m_source_file_index>
1024

> <i_lp_mmshare_version>
43012

> <i_f3d_flags>
0

> <s_epik_input>
W2NIXTFuW2NIXVtjSF1uMVtDSDJdW0NIMl1bTkhdQyg9TylOKFtDSDJdW0NIMl0yKVtDSDJdW0NIMl1DMjNbQ0gyXVtDSDJdW0NIMl1bQ0gyXVtDSDJdMw==

> <s_epik_cmdline>
J2VwaWtfcHl0aG9uJywgJy1waCcsICc3LjAnLCAnLXRuJywgJzgnLCAnLW1hJywgJzIwMCcsICctbWV0YWxfYmluZGluZycsICctaW1hZScsICc8aW5maWxlLm1hZT4nLCAnLW9tYWUnLCAnPG91dGZpbGUubWFlPic=

> <r_lp_tautomer_probability>
1

> <r_epik_Ionization_Penalty>
0.632392

> <r_epik_Ionization_Penalty_Charging>
0.632323

> <r_epik_Ionization_Penalty_Neutral>
6.90503e-05

> <r_epik_State_Penalty>
0.649284

> <r_epik_Charging_Adjusted_Penalty>
1.28161

> <i_epik_Tot_Q>
0

> <i_epik_Tot_abs_Q>
0

> <r_epik_Metal_State_Penalty>
0.309626

> <b_epik_Metal_Only>
0

> <s_lp_Force_Field>
OPLS_2005

> <r_lp_Energy>
42.875

> <b_lp_Chiralities_Consistent>
1

> <s_lp_Variant>
AV-unprocessed.smi:1024-2

> <Gold.Version>
5.8.1

> <Gold.Id.Protein>
6NUR|6NUR_protein|mol2

> <Gold.PLP.Fitness>
40.5947

> <Gold.PLP.PLP>
-30.6429

> <Gold.PLP.part.hbond>
-1.0000

> <Gold.PLP.part.metal>
0.0000

> <Gold.PLP.part.buried>
1.8535

> <Gold.PLP.part.nonpolar>
-31.5665

> <Gold.PLP.part.repulsive>
0.2671

> <Gold.PLP.ligand.clash>
0.0000

> <Gold.PLP.ligand.torsion>
0.1491

> <Gold.PLP.Chemscore.Hbond>
1.0000

> <Gold.PLP.Chemscore.CHOScore>
2.4063

> <Gold.PLP.Chemscore.Metal>
0.0000

> <Gold.Chemscore.Hbonds>
donor molecule, donor type, donor heavy atom, donor atom, acceptor molecule, acceptor atom, score
      L1  H     3    22       P1  7957  0.91
      L1  C     7    27       P1 10171  0.61
      L1  C     8    28       P1 10186  1.00
      L1  C    10    29       P1  7948  0.45

> <Gold.PLP.Chemscore.Internal.Correction>
0.0310

> <Gold.Rescore>
     Score         DG    S(hbond)    S(metal)    S(lipo)     H(rot)  DE(clash)    DE(int)     intcor
     12.24     -14.69       0.93        0.00      85.43       1.52       1.17       1.28       ----

> <Gold.Chemscore.Fitness>
12.2353

> <Gold.Chemscore.DG>
-14.6928

> <Gold.Chemscore.ZeroCoef>
-5.4800

> <Gold.Chemscore.Hbond>
0.9326

> <Gold.Chemscore.Metal>
0.0000

> <Gold.Chemscore.Lipo>
85.4337

> <Gold.Chemscore.Internal_Hbond>
0.0000

> <Gold.Chemscore.DEClash>
1.1740

> <Gold.Chemscore.DEInternal>
1.2834

> <Gold.Chemscore.Rot>
1.5227

> <Gold.Chemscore.Internal.Correction>
   9.000000E+99

> <Gold.Chemscore.Hbonds>
donor molecule, donor type, donor heavy atom, donor atom, acceptor molecule, acceptor atom, score
      L1  H     3    22       P1  7957  0.87

> <Gold.Chemscore.Hbond.Weighted>
-3.1150

> <Gold.Chemscore.Metal.Weighted>
-0.0000

> <Gold.Chemscore.Lipo.Weighted>
-9.9957

> <Gold.Chemscore.Internal_Hbond.Weighted>
0.0000

> <Gold.Chemscore.DEClash.Weighted>
1.1740

> <Gold.Chemscore.DEInternal.Weighted>
1.2834

> <Gold.Chemscore.Rot.Weighted>
3.8980

> <Gold.Chemscore.Internal.Correction.Weighted>
   9.000000E+99

> <Gold.Protein.RotatedTorsions>
[ 6907 6896 6895 6894 ] final -103.46 input  -60.11 | X-H torsion
[ 7974 7965 7964 7962 ] final   15.86 input  175.53 | X-H torsion
[ 8008 7997 7996 7995 ] final  -52.71 input   59.86 | X-H torsion
[ 10167 10162 10161 10158 ] final -172.31 input  -65.29 | X-H torsion
[ 10718 10713 10712 10709 ] final  -43.12 input   66.30 | X-H torsion
[ 10763 10752 10751 10750 ] final   48.76 input  -60.55 | X-H torsion
[ 11005 11000 10999 10996 ] final -136.11 input  -57.11 | X-H torsion

> <Gold.Protein.ActiveResidues>
 VAL166  LYS551  ARG553  GLY616  TRP617  ASP618  TYR619  PRO620  LYS621  CYS622 
 ASP623  PHE694  ASN695  SER759  ASP760  ASP761  ALA762  ILE779  LEU786  VAL792 
 PHE793  MET794  SER795  GLU796  ALA797  LYS798  CYS799  TRP800  GLU811  SER814 

> <Gold.Protein.RotatedAtoms>
  150.7241  134.0425  159.3770 H   0  0  0  0  0  0  0  0  0  0  0  0  # atno 6907 bound_to 6896
  151.8399  135.0591  160.0456 H   0  0  0  0  0  0  0  0  0  0  0  0  # atno 6908 bound_to 6896
  152.2870  133.5489  159.5570 H   0  0  0  0  0  0  0  0  0  0  0  0  # atno 6909 bound_to 6896
  146.2266  139.8832  142.8567 H   0  0  0  0  0  0  0  0  0  0  0  0  # atno 7974 bound_to 7965
  154.4113  140.1217  156.5035 H   0  0  0  0  0  0  0  0  0  0  0  0  # atno 8008 bound_to 7997
  155.6870  140.3495  155.4859 H   0  0  0  0  0  0  0  0  0  0  0  0  # atno 8009 bound_to 7997
  155.9501  140.1103  157.0973 H   0  0  0  0  0  0  0  0  0  0  0  0  # atno 8010 bound_to 7997
  139.5752  144.1549  152.1440 H   0  0  0  0  0  0  0  0  0  0  0  0  # atno 10167 bound_to 10162
  156.2524  130.4189  149.8635 H   0  0  0  0  0  0  0  0  0  0  0  0  # atno 10718 bound_to 10713
  152.9790  135.5934  154.3978 H   0  0  0  0  0  0  0  0  0  0  0  0  # atno 10763 bound_to 10752
  154.3626  135.2767  155.2313 H   0  0  0  0  0  0  0  0  0  0  0  0  # atno 10764 bound_to 10752
  154.4303  135.6038  153.6119 H   0  0  0  0  0  0  0  0  0  0  0  0  # atno 10765 bound_to 10752
  140.8835  134.1901  157.4575 H   0  0  0  0  0  0  0  0  0  0  0  0  # atno 11005 bound_to 11000
  145.2492  141.0038  143.3891 LP  0  0  0  0  0  0  0  0  0  0  0  0  # atno 17320 bound_to 7965
  144.9388  139.4212  143.6459 LP  0  0  0  0  0  0  0  0  0  0  0  0  # atno 17321 bound_to 7965
  140.1091  144.5473  150.6937 LP  0  0  0  0  0  0  0  0  0  0  0  0  # atno 17342 bound_to 10162
  140.7035  143.2451  151.4796 LP  0  0  0  0  0  0  0  0  0  0  0  0  # atno 17343 bound_to 10162
  156.6179  130.8614  151.3469 LP  0  0  0  0  0  0  0  0  0  0  0  0  # atno 17370 bound_to 10713
  157.7219  130.9570  150.1475 LP  0  0  0  0  0  0  0  0  0  0  0  0  # atno 17371 bound_to 10713
  139.8722  134.9828  156.5170 LP  0  0  0  0  0  0  0  0  0  0  0  0  # atno 17394 bound_to 11000
  140.8432  133.8189  155.9095 LP  0  0  0  0  0  0  0  0  0  0  0  0  # atno 17395 bound_to 11000

$$$$
