AV-unprocessed.smi:176|AV-procd|sdf|1435|dock7
  -GOLD-   2262019223D 1   1.00000     0.00000
 Structure written by MMmdl.
 57 61  0  0  0  0  0  0  0  0  1 V2000
  143.2207  132.6417  149.0528 O   0  0  0  0  0  0  0  0  0  0  0  0
  143.5700  132.1870  150.3452 C   0  0  0  0  0  0  0  0  0  0  0  0
  145.0346  132.4927  150.7115 C   0  0  0  0  0  0  0  0  0  0  0  0
  145.8616  131.9847  149.5116 C   0  0  0  0  0  0  0  0  0  0  0  0
  147.2232  132.3585  149.5665 O   0  0  0  0  0  0  0  0  0  0  0  0
  145.3378  133.9300  151.1950 C   0  0  0  0  0  0  0  0  0  0  0  0
  146.1990  133.3728  152.3354 C   0  0  0  0  0  0  0  0  0  0  0  0
  146.2077  133.9848  153.6324 N   0  0  0  0  0  0  0  0  0  0  0  0
  145.7380  135.2368  153.9607 C   0  0  0  0  0  0  0  0  0  0  0  0
  145.9010  135.5833  155.2085 N   0  0  0  0  0  0  0  0  0  0  0  0
  146.5608  134.5009  155.7791 C   0  0  0  0  0  0  0  0  0  0  0  0
  147.0513  134.2140  157.0853 C   0  0  0  0  0  0  0  0  0  0  0  0
  146.8956  135.0639  158.1334 N   0  0  0  0  0  0  0  0  0  0  0  0
  147.9825  136.0023  158.4127 C   0  0  0  0  0  0  0  0  0  0  0  0
  147.5122  137.1163  159.3618 C   0  0  0  0  0  0  0  0  0  0  0  0
  146.8728  136.5629  160.6547 C   0  0  2  0  0  0  0  0  0  0  0  0
  146.2741  137.6731  161.3000 O   0  0  0  0  0  0  0  0  0  0  0  0
  147.9208  135.9672  161.6271 C   0  0  0  0  0  0  0  0  0  0  0  0
  147.2762  135.3422  162.8774 C   0  0  0  0  0  0  0  0  0  0  0  0
  146.2154  134.2972  162.5020 C   0  0  0  0  0  0  0  0  0  0  0  0
  145.1519  134.8911  161.5626 C   0  0  0  0  0  0  0  0  0  0  0  0
  145.7676  135.5309  160.2987 C   0  0  2  0  0  0  0  0  0  0  0  0
  146.2914  134.4578  159.3186 C   0  0  0  0  0  0  0  0  0  0  0  0
  147.6973  133.0297  157.2618 N   0  0  0  0  0  0  0  0  0  0  0  0
  147.8456  132.1808  156.2407 C   0  0  0  0  0  0  0  0  0  0  0  0
  147.4294  132.3115  154.9802 N   0  0  0  0  0  0  0  0  0  0  0  0
  146.7836  133.4980  154.7931 C   0  0  0  0  0  0  0  0  0  0  0  0
  145.5019  132.0264  152.1089 C   0  0  0  0  0  0  0  0  0  0  0  0
  142.3946  133.0977  149.1070 H   0  0  0  0  0  0  0  0  0  0  0  0
  142.8880  132.6542  151.0564 H   0  0  0  0  0  0  0  0  0  0  0  0
  143.3762  131.1145  150.3826 H   0  0  0  0  0  0  0  0  0  0  0  0
  145.8214  130.8966  149.4500 H   0  0  0  0  0  0  0  0  0  0  0  0
  145.4547  132.3645  148.5738 H   0  0  0  0  0  0  0  0  0  0  0  0
  147.7402  131.5876  149.7445 H   0  0  0  0  0  0  0  0  0  0  0  0
  145.8877  134.5452  150.4822 H   0  0  0  0  0  0  0  0  0  0  0  0
  144.4578  134.4606  151.5605 H   0  0  0  0  0  0  0  0  0  0  0  0
  147.2448  133.3163  152.0314 H   0  0  0  0  0  0  0  0  0  0  0  0
  145.2617  135.8897  153.2440 H   0  0  0  0  0  0  0  0  0  0  0  0
  148.8258  135.4643  158.8469 H   0  0  0  0  0  0  0  0  0  0  0  0
  148.3351  136.4515  157.4833 H   0  0  0  0  0  0  0  0  0  0  0  0
  148.3460  137.7776  159.6001 H   0  0  0  0  0  0  0  0  0  0  0  0
  146.7831  137.7287  158.8286 H   0  0  0  0  0  0  0  0  0  0  0  0
  145.5667  137.3596  161.8423 H   0  0  0  0  0  0  0  0  0  0  0  0
  148.5050  135.1985  161.1208 H   0  0  0  0  0  0  0  0  0  0  0  0
  148.6354  136.7345  161.9280 H   0  0  0  0  0  0  0  0  0  0  0  0
  148.0453  134.8818  163.4981 H   0  0  0  0  0  0  0  0  0  0  0  0
  146.8197  136.1224  163.4878 H   0  0  0  0  0  0  0  0  0  0  0  0
  146.6954  133.4400  162.0295 H   0  0  0  0  0  0  0  0  0  0  0  0
  145.7371  133.9166  163.4048 H   0  0  0  0  0  0  0  0  0  0  0  0
  144.4335  134.1206  161.2805 H   0  0  0  0  0  0  0  0  0  0  0  0
  144.5817  135.6450  162.1068 H   0  0  0  0  0  0  0  0  0  0  0  0
  144.9665  136.0580  159.7773 H   0  0  0  0  0  0  0  0  0  0  0  0
  145.4719  133.7932  159.0480 H   0  0  0  0  0  0  0  0  0  0  0  0
  147.0446  133.8325  159.7985 H   0  0  0  0  0  0  0  0  0  0  0  0
  148.3700  131.2643  156.4672 H   0  0  0  0  0  0  0  0  0  0  0  0
  144.6841  131.8646  152.8124 H   0  0  0  0  0  0  0  0  0  0  0  0
  146.1773  131.1703  152.1033 H   0  0  0  0  0  0  0  0  0  0  0  0
  1  2  1  0  0  0  0
  1 29  1  0  0  0  0
  2  3  1  0  0  0  0
  2 30  1  0  0  0  0
  2 31  1  0  0  0  0
  3 28  1  0  0  0  0
  3  4  1  0  0  0  0
  3  6  1  0  0  0  0
  4  5  1  0  0  0  0
  4 32  1  0  0  0  0
  4 33  1  0  0  0  0
  5 34  1  0  0  0  0
  6  7  1  0  0  0  0
  6 35  1  0  0  0  0
  6 36  1  0  0  0  0
  7  8  1  0  0  0  0
  7 28  1  0  0  0  0
  7 37  1  0  0  0  0
  8 27  1  0  0  0  0
  8  9  1  0  0  0  0
  9 10  2  0  0  0  0
  9 38  1  0  0  0  0
 10 11  1  0  0  0  0
 11 27  2  0  0  0  0
 11 12  1  0  0  0  0
 12 13  1  0  0  0  0
 12 24  2  0  0  0  0
 13 23  1  0  0  0  0
 13 14  1  0  0  0  0
 14 15  1  0  0  0  0
 14 39  1  0  0  0  0
 14 40  1  0  0  0  0
 15 16  1  0  0  0  0
 15 41  1  0  0  0  0
 15 42  1  0  0  0  0
 16 22  1  0  0  0  0
 16 17  1  0  0  0  0
 16 18  1  0  0  0  0
 17 43  1  0  0  0  0
 18 19  1  0  0  0  0
 18 44  1  0  0  0  0
 18 45  1  0  0  0  0
 19 20  1  0  0  0  0
 19 46  1  0  0  0  0
 19 47  1  0  0  0  0
 20 21  1  0  0  0  0
 20 48  1  0  0  0  0
 20 49  1  0  0  0  0
 21 22  1  0  0  0  0
 21 50  1  0  0  0  0
 21 51  1  0  0  0  0
 22 23  1  0  0  0  0
 22 52  1  0  0  0  0
 23 53  1  0  0  0  0
 23 54  1  0  0  0  0
 24 25  1  0  0  0  0
 25 26  2  0  0  0  0
 25 55  1  0  0  0  0
 26 27  1  0  0  0  0
 28 56  1  0  0  0  0
 28 57  1  0  0  0  0
M  END
> <s_m_source_file>
AV-unprocessed.smi

> <i_m_source_file_index>
176

> <i_lp_mmshare_version>
43012

> <i_f3d_flags>
0

> <s_epik_input>
W09IXVtDSDJdQzEoW0NIMl1bT0hdKVtDSDJdW0NIXShbQ0gyXTEpbihbY0hdbjIpYyhjMjMpbltjSF1uYzNOKFtDSDJdW0NIMl00KVtDSDJdW0NAQEhdKFtDQF00NVtPSF0pW0NIMl1bQ0gyXVtDSDJdW0NIMl01

> <s_epik_cmdline>
J2VwaWtfcHl0aG9uJywgJy1waCcsICc3LjAnLCAnLXRuJywgJzgnLCAnLW1hJywgJzIwMCcsICctbWV0YWxfYmluZGluZycsICctaW1hZScsICc8aW5maWxlLm1hZT4nLCAnLW9tYWUnLCAnPG91dGZpbGUubWFlPic=

> <r_lp_tautomer_probability>
1

> <r_epik_Ionization_Penalty>
0.00642876

> <r_epik_Ionization_Penalty_Charging>
0

> <r_epik_Ionization_Penalty_Neutral>
0.00642876

> <r_epik_State_Penalty>
0.00467813

> <r_epik_Charging_Adjusted_Penalty>
0.00467813

> <i_epik_Tot_Q>
0

> <i_epik_Tot_abs_Q>
0

> <r_epik_Metal_State_Penalty>
-0

> <b_epik_Metal_Only>
0

> <s_lp_Force_Field>
OPLS_2005

> <r_lp_Energy>
56.0126

> <b_lp_Chiralities_Consistent>
1

> <s_lp_Variant>
AV-unprocessed.smi:176-3

> <Gold.Version>
5.8.1

> <Gold.Id.Protein>
6NUR|6NUR_protein|mol2

> <Gold.PLP.Fitness>
45.6631

> <Gold.PLP.PLP>
-37.4817

> <Gold.PLP.part.hbond>
-4.3752

> <Gold.PLP.part.metal>
0.0000

> <Gold.PLP.part.buried>
-5.4537

> <Gold.PLP.part.nonpolar>
-27.6785

> <Gold.PLP.part.repulsive>
0.0215

> <Gold.PLP.ligand.clash>
0.0000

> <Gold.PLP.ligand.torsion>
0.7881

> <Gold.PLP.Chemscore.Hbond>
3.0049

> <Gold.PLP.Chemscore.CHOScore>
0.0000

> <Gold.PLP.Chemscore.Metal>
0.0000

> <Gold.Chemscore.Hbonds>
donor molecule, donor type, donor heavy atom, donor atom, acceptor molecule, acceptor atom, score
      L1  H     1    29       P1 10186  1.00
      L1  H     5    34       P1 10747  0.94
      P1  H  6934  6947       L1    17  1.00

> <Gold.PLP.Chemscore.Internal.Correction>
0.7431

> <Gold.Rescore>
     Score         DG    S(hbond)    S(metal)    S(lipo)     H(rot)  DE(clash)    DE(int)     intcor
     15.90     -16.85       2.89        0.00      95.82       3.71       0.21       0.74       ----

> <Gold.Chemscore.Fitness>
15.9007

> <Gold.Chemscore.DG>
-16.8539

> <Gold.Chemscore.ZeroCoef>
-5.4800

> <Gold.Chemscore.Hbond>
2.8930

> <Gold.Chemscore.Metal>
0.0000

> <Gold.Chemscore.Lipo>
95.8226

> <Gold.Chemscore.Internal_Hbond>
0.0000

> <Gold.Chemscore.DEClash>
0.2098

> <Gold.Chemscore.DEInternal>
0.7434

> <Gold.Chemscore.Rot>
3.7109

> <Gold.Chemscore.Internal.Correction>
   9.000000E+99

> <Gold.Chemscore.Hbonds>
donor molecule, donor type, donor heavy atom, donor atom, acceptor molecule, acceptor atom, score
      L1  H     1    29       P1 10186  0.98
      L1  H     5    34       P1 10747  0.88
      P1  H  6934  6947       L1    17  0.69

> <Gold.Chemscore.Hbond.Weighted>
-9.6626

> <Gold.Chemscore.Metal.Weighted>
-0.0000

> <Gold.Chemscore.Lipo.Weighted>
-11.2112

> <Gold.Chemscore.Internal_Hbond.Weighted>
0.0000

> <Gold.Chemscore.DEClash.Weighted>
0.2098

> <Gold.Chemscore.DEInternal.Weighted>
0.7434

> <Gold.Chemscore.Rot.Weighted>
9.5000

> <Gold.Chemscore.Internal.Correction.Weighted>
   9.000000E+99

> <Gold.Protein.RotatedTorsions>
[ 6907 6896 6895 6894 ] final  169.99 input  -60.11 | X-H torsion
[ 7974 7965 7964 7962 ] final -115.11 input  175.53 | X-H torsion
[ 8008 7997 7996 7995 ] final   23.48 input   59.86 | X-H torsion
[ 10167 10162 10161 10158 ] final  107.28 input  -65.29 | X-H torsion
[ 10718 10713 10712 10709 ] final -175.16 input   66.30 | X-H torsion
[ 10763 10752 10751 10750 ] final  111.39 input  -60.55 | X-H torsion
[ 11005 11000 10999 10996 ] final  136.54 input  -57.11 | X-H torsion

> <Gold.Protein.ActiveResidues>
 VAL166  LYS551  ARG553  GLY616  TRP617  ASP618  TYR619  PRO620  LYS621  CYS622 
 ASP623  PHE694  ASN695  SER759  ASP760  ASP761  ALA762  ILE779  LEU786  VAL792 
 PHE793  MET794  SER795  GLU796  ALA797  LYS798  CYS799  TRP800  GLU811  SER814 

> <Gold.Protein.RotatedAtoms>
  151.8232  133.3397  159.3590 H   0  0  0  0  0  0  0  0  0  0  0  0  # atno 6907 bound_to 6896
  150.7288  134.5554  159.5825 H   0  0  0  0  0  0  0  0  0  0  0  0  # atno 6908 bound_to 6896
  152.2991  134.7633  160.0413 H   0  0  0  0  0  0  0  0  0  0  0  0  # atno 6909 bound_to 6896
  145.1123  140.8619  143.3863 H   0  0  0  0  0  0  0  0  0  0  0  0  # atno 7974 bound_to 7965
  154.9816  140.3103  155.4944 H   0  0  0  0  0  0  0  0  0  0  0  0  # atno 8008 bound_to 7997
  156.2952  140.2265  156.4855 H   0  0  0  0  0  0  0  0  0  0  0  0  # atno 8009 bound_to 7997
  154.7784  140.0447  157.1096 H   0  0  0  0  0  0  0  0  0  0  0  0  # atno 8010 bound_to 7997
  139.6940  144.7104  151.1299 H   0  0  0  0  0  0  0  0  0  0  0  0  # atno 10167 bound_to 10162
  156.7958  130.9534  151.3119 H   0  0  0  0  0  0  0  0  0  0  0  0  # atno 10718 bound_to 10713
  153.4626  135.3719  155.2346 H   0  0  0  0  0  0  0  0  0  0  0  0  # atno 10763 bound_to 10752
  154.8757  135.3912  154.3907 H   0  0  0  0  0  0  0  0  0  0  0  0  # atno 10764 bound_to 10752
  153.4483  135.7085  153.6189 H   0  0  0  0  0  0  0  0  0  0  0  0  # atno 10765 bound_to 10752
  140.0053  134.9462  157.0161 H   0  0  0  0  0  0  0  0  0  0  0  0  # atno 11005 bound_to 11000
  145.0833  139.2943  143.5772 LP  0  0  0  0  0  0  0  0  0  0  0  0  # atno 17320 bound_to 7965
  146.3525  140.0347  142.8647 LP  0  0  0  0  0  0  0  0  0  0  0  0  # atno 17321 bound_to 7965
  140.7691  143.5519  150.9195 LP  0  0  0  0  0  0  0  0  0  0  0  0  # atno 17342 bound_to 10162
  139.9197  143.6620  152.3099 LP  0  0  0  0  0  0  0  0  0  0  0  0  # atno 17343 bound_to 10162
  157.6578  130.8940  149.9766 LP  0  0  0  0  0  0  0  0  0  0  0  0  # atno 17370 bound_to 10713
  156.1131  130.3649  150.0014 LP  0  0  0  0  0  0  0  0  0  0  0  0  # atno 17371 bound_to 10713
  140.4653  134.1442  155.7196 LP  0  0  0  0  0  0  0  0  0  0  0  0  # atno 17394 bound_to 11000
  141.1672  133.8680  157.1679 LP  0  0  0  0  0  0  0  0  0  0  0  0  # atno 17395 bound_to 11000

$$$$
