AV-unprocessed.smi:928|AV-procd|sdf|4191|dock1
  -GOLD-   22720 2 93D 1   1.00000     0.00000
 Structure written by MMmdl.
 43 44  0  0  0  0  0  0  0  0  1 V2000
  151.4699  143.8207  157.9338 C   0  0  0  0  0  0  0  0  0  0  0  0
  150.6397  142.5657  158.2240 C   0  0  0  0  0  0  0  0  0  0  0  0
  150.3208  141.7760  156.9975 C   0  0  0  0  0  0  0  0  0  0  0  0
  151.2044  141.2041  156.1154 C   0  0  0  0  0  0  0  0  0  0  0  0
  150.5902  140.5158  155.0667 N   0  0  0  0  0  0  0  0  0  0  0  0
  149.2579  140.5708  155.1322 C   0  0  0  0  0  0  0  0  0  0  0  0
  148.3551  139.8895  154.1597 C   0  0  0  0  0  0  0  0  0  0  0  0
  147.6262  138.6885  154.7840 C   0  0  0  0  0  0  0  0  0  0  0  0
  147.4882  137.5881  153.8374 N   0  0  0  0  0  0  0  0  0  0  0  0
  146.4560  136.7343  153.8015 C   0  0  0  0  0  0  0  0  0  0  0  0
  145.4909  136.7878  154.5643 O   0  0  0  0  0  0  0  0  0  0  0  0
  146.6032  135.8177  152.8346 N   0  0  0  0  0  0  0  0  0  0  0  0
  145.6538  134.7487  152.5298 C   0  0  2  0  0  0  0  0  0  0  0  0
  146.4439  133.4271  152.4342 C   0  0  0  0  0  0  0  0  0  0  0  0
  145.5651  132.2556  151.9732 C   0  0  0  0  0  0  0  0  0  0  0  0
  144.8916  132.5721  150.6316 C   0  0  0  0  0  0  0  0  0  0  0  0
  144.0623  133.8590  150.7332 C   0  0  0  0  0  0  0  0  0  0  0  0
  144.9140  135.0539  151.2041 C   0  0  1  0  0  0  0  0  0  0  0  0
  144.0383  136.1498  151.3810 O   0  0  0  0  0  0  0  0  0  0  0  0
  148.6688  141.4652  156.5281 S   0  0  0  0  0  0  0  0  0  0  0  0
  151.6743  144.3719  158.8518 H   0  0  0  0  0  0  0  0  0  0  0  0
  150.9438  144.4908  157.2534 H   0  0  0  0  0  0  0  0  0  0  0  0
  152.4276  143.5650  157.4792 H   0  0  0  0  0  0  0  0  0  0  0  0
  151.1770  141.9330  158.9312 H   0  0  0  0  0  0  0  0  0  0  0  0
  149.7138  142.8546  158.7227 H   0  0  0  0  0  0  0  0  0  0  0  0
  152.2832  141.2324  156.1606 H   0  0  0  0  0  0  0  0  0  0  0  0
  147.6361  140.6213  153.7899 H   0  0  0  0  0  0  0  0  0  0  0  0
  148.9435  139.5685  153.2991 H   0  0  0  0  0  0  0  0  0  0  0  0
  148.1833  138.3238  155.6475 H   0  0  0  0  0  0  0  0  0  0  0  0
  146.6431  138.9878  155.1522 H   0  0  0  0  0  0  0  0  0  0  0  0
  148.2338  137.4649  153.1680 H   0  0  0  0  0  0  0  0  0  0  0  0
  147.4318  135.8641  152.2599 H   0  0  0  0  0  0  0  0  0  0  0  0
  144.9217  134.6415  153.3329 H   0  0  0  0  0  0  0  0  0  0  0  0
  147.2722  133.5431  151.7333 H   0  0  0  0  0  0  0  0  0  0  0  0
  146.8911  133.1905  153.4005 H   0  0  0  0  0  0  0  0  0  0  0  0
  146.1685  131.3520  151.8825 H   0  0  0  0  0  0  0  0  0  0  0  0
  144.8049  132.0468  152.7271 H   0  0  0  0  0  0  0  0  0  0  0  0
  145.6490  132.6816  149.8543 H   0  0  0  0  0  0  0  0  0  0  0  0
  144.2536  131.7412  150.3295 H   0  0  0  0  0  0  0  0  0  0  0  0
  143.6089  134.0817  149.7665 H   0  0  0  0  0  0  0  0  0  0  0  0
  143.2378  133.6953  151.4292 H   0  0  0  0  0  0  0  0  0  0  0  0
  145.6357  135.3070  150.4258 H   0  0  0  0  0  0  0  0  0  0  0  0
  144.2384  136.8029  150.7279 H   0  0  0  0  0  0  0  0  0  0  0  0
  1  2  1  0  0  0  0
  1 21  1  0  0  0  0
  1 22  1  0  0  0  0
  1 23  1  0  0  0  0
  2  3  1  0  0  0  0
  2 24  1  0  0  0  0
  2 25  1  0  0  0  0
  3 20  1  0  0  0  0
  3  4  2  0  0  0  0
  4  5  1  0  0  0  0
  4 26  1  0  0  0  0
  5  6  2  0  0  0  0
  6  7  1  0  0  0  0
  6 20  1  0  0  0  0
  7  8  1  0  0  0  0
  7 27  1  0  0  0  0
  7 28  1  0  0  0  0
  8  9  1  0  0  0  0
  8 29  1  0  0  0  0
  8 30  1  0  0  0  0
  9 10  1  0  0  0  0
  9 31  1  0  0  0  0
 10 11  2  0  0  0  0
 10 12  1  0  0  0  0
 12 13  1  0  0  0  0
 12 32  1  0  0  0  0
 13 18  1  0  0  0  0
 13 14  1  0  0  0  0
 13 33  1  0  0  0  0
 14 15  1  0  0  0  0
 14 34  1  0  0  0  0
 14 35  1  0  0  0  0
 15 16  1  0  0  0  0
 15 36  1  0  0  0  0
 15 37  1  0  0  0  0
 16 17  1  0  0  0  0
 16 38  1  0  0  0  0
 16 39  1  0  0  0  0
 17 18  1  0  0  0  0
 17 40  1  0  0  0  0
 17 41  1  0  0  0  0
 18 19  1  0  0  0  0
 18 42  1  0  0  0  0
 19 43  1  0  0  0  0
M  END
> <s_m_source_file>
AV-unprocessed.smi

> <i_m_source_file_index>
928

> <i_lp_mmshare_version>
43012

> <i_f3d_flags>
0

> <s_epik_input>
W0NIM11bQ0gyXWMxW2NIXW5jKHMxKVtDSDJdW0NIMl1bTkhdQyg9TylbTkhdW0NAQEhdMltDSDJdW0NIMl1bQ0gyXVtDSDJdW0NASF0yW09IXQ==

> <s_epik_cmdline>
J2VwaWtfcHl0aG9uJywgJy1waCcsICc3LjAnLCAnLXRuJywgJzgnLCAnLW1hJywgJzIwMCcsICctbWV0YWxfYmluZGluZycsICctaW1hZScsICc8aW5maWxlLm1hZT4nLCAnLW9tYWUnLCAnPG91dGZpbGUubWFlPic=

> <r_epik_Ionization_Penalty>
0.000957396

> <r_epik_Ionization_Penalty_Charging>
0

> <r_epik_Ionization_Penalty_Neutral>
0.000957396

> <r_epik_State_Penalty>
0.000586538

> <r_epik_Charging_Adjusted_Penalty>
0.000586538

> <i_epik_Tot_Q>
0

> <i_epik_Tot_abs_Q>
0

> <r_epik_Metal_State_Penalty>
-0

> <b_epik_Metal_Only>
0

> <s_lp_Force_Field>
OPLS_2005

> <r_lp_Energy>
-3.08797

> <b_lp_Chiralities_Consistent>
1

> <s_lp_Variant>
AV-unprocessed.smi:928-1

> <Gold.Version>
5.8.1

> <Gold.Id.Protein>
6NUR|6NUR_protein|mol2

> <Gold.PLP.Fitness>
43.0415

> <Gold.PLP.PLP>
-32.7173

> <Gold.PLP.part.hbond>
-3.9974

> <Gold.PLP.part.metal>
0.0000

> <Gold.PLP.part.buried>
-4.6474

> <Gold.PLP.part.nonpolar>
-24.5131

> <Gold.PLP.part.repulsive>
0.1279

> <Gold.PLP.ligand.clash>
0.0000

> <Gold.PLP.ligand.torsion>
0.6519

> <Gold.PLP.Chemscore.Hbond>
3.8400

> <Gold.PLP.Chemscore.CHOScore>
0.0000

> <Gold.PLP.Chemscore.Metal>
0.0000

> <Gold.Chemscore.Hbonds>
donor molecule, donor type, donor heavy atom, donor atom, acceptor molecule, acceptor atom, score
      L1  H     9    31       P1  7948  0.88
      L1  H    12    32       P1  7948  1.00
      L1  H    19    43       P1 10171  1.00
      P1  H  7989  7998       L1     5  1.00

> <Gold.PLP.Chemscore.Internal.Correction>
0.1080

> <Gold.Rescore>
     Score         DG    S(hbond)    S(metal)    S(lipo)     H(rot)  DE(clash)    DE(int)     intcor
     21.06     -21.67       3.63        0.00      83.04       2.21       0.01       0.60       ----

> <Gold.Chemscore.Fitness>
21.0582

> <Gold.Chemscore.DG>
-21.6676

> <Gold.Chemscore.ZeroCoef>
-5.4800

> <Gold.Chemscore.Hbond>
3.6305

> <Gold.Chemscore.Metal>
0.0000

> <Gold.Chemscore.Lipo>
83.0357

> <Gold.Chemscore.Internal_Hbond>
0.0000

> <Gold.Chemscore.DEClash>
0.0102

> <Gold.Chemscore.DEInternal>
0.5991

> <Gold.Chemscore.Rot>
2.2084

> <Gold.Chemscore.Internal.Correction>
   9.000000E+99

> <Gold.Chemscore.Hbonds>
donor molecule, donor type, donor heavy atom, donor atom, acceptor molecule, acceptor atom, score
      L1  H     9    31       P1  7948  0.86
      L1  H    12    32       P1  7948  0.98
      L1  H    19    43       P1 10171  0.89
      P1  H  7989  7998       L1     5  0.52

> <Gold.Chemscore.Hbond.Weighted>
-12.1259

> <Gold.Chemscore.Metal.Weighted>
-0.0000

> <Gold.Chemscore.Lipo.Weighted>
-9.7152

> <Gold.Chemscore.Internal_Hbond.Weighted>
0.0000

> <Gold.Chemscore.DEClash.Weighted>
0.0102

> <Gold.Chemscore.DEInternal.Weighted>
0.5991

> <Gold.Chemscore.Rot.Weighted>
5.6535

> <Gold.Chemscore.Internal.Correction.Weighted>
   9.000000E+99

> <Gold.Protein.RotatedTorsions>
[ 6907 6896 6895 6894 ] final  -75.20 input  -60.11 | X-H torsion
[ 7974 7965 7964 7962 ] final  132.33 input  175.53 | X-H torsion
[ 8008 7997 7996 7995 ] final  -82.49 input   59.86 | X-H torsion
[ 10167 10162 10161 10158 ] final -119.76 input  -65.29 | X-H torsion
[ 10718 10713 10712 10709 ] final   81.70 input   66.30 | X-H torsion
[ 10763 10752 10751 10750 ] final -153.79 input  -60.55 | X-H torsion
[ 11005 11000 10999 10996 ] final   39.20 input  -57.11 | X-H torsion

> <Gold.Protein.ActiveResidues>
 VAL166  LYS551  ARG553  GLY616  TRP617  ASP618  TYR619  PRO620  LYS621  CYS622 
 ASP623  PHE694  ASN695  SER759  ASP760  ASP761  ALA762  ILE779  LEU786  VAL792 
 PHE793  MET794  SER795  GLU796  ALA797  LYS798  CYS799  TRP800  GLU811  SER814 

> <Gold.Protein.RotatedAtoms>
  150.7067  134.4757  159.5445 H   0  0  0  0  0  0  0  0  0  0  0  0  # atno 6907 bound_to 6896
  152.2404  134.8231  160.0470 H   0  0  0  0  0  0  0  0  0  0  0  0  # atno 6908 bound_to 6896
  151.9015  133.3504  159.3869 H   0  0  0  0  0  0  0  0  0  0  0  0  # atno 6909 bound_to 6896
  144.9980  139.4340  143.5306 H   0  0  0  0  0  0  0  0  0  0  0  0  # atno 7974 bound_to 7965
  154.6092  140.0632  156.9471 H   0  0  0  0  0  0  0  0  0  0  0  0  # atno 8008 bound_to 7997
  155.2002  140.3314  155.4326 H   0  0  0  0  0  0  0  0  0  0  0  0  # atno 8009 bound_to 7997
  156.2366  140.1866  156.7086 H   0  0  0  0  0  0  0  0  0  0  0  0  # atno 8010 bound_to 7997
  140.0432  143.5133  152.2120 H   0  0  0  0  0  0  0  0  0  0  0  0  # atno 10167 bound_to 10162
  157.6839  131.0015  150.2265 H   0  0  0  0  0  0  0  0  0  0  0  0  # atno 10718 bound_to 10713
  154.7904  135.3205  154.7791 H   0  0  0  0  0  0  0  0  0  0  0  0  # atno 10763 bound_to 10752
  153.8481  135.6865  153.4799 H   0  0  0  0  0  0  0  0  0  0  0  0  # atno 10764 bound_to 10752
  153.1572  135.4675  154.9661 H   0  0  0  0  0  0  0  0  0  0  0  0  # atno 10765 bound_to 10752
  140.2051  134.3823  155.8076 H   0  0  0  0  0  0  0  0  0  0  0  0  # atno 11005 bound_to 11000
  146.3446  139.9351  142.8748 LP  0  0  0  0  0  0  0  0  0  0  0  0  # atno 17320 bound_to 7965
  145.2193  140.9928  143.4055 LP  0  0  0  0  0  0  0  0  0  0  0  0  # atno 17321 bound_to 7965
  139.6000  144.7579  151.3193 LP  0  0  0  0  0  0  0  0  0  0  0  0  # atno 17342 bound_to 10162
  140.7251  143.7027  150.7832 LP  0  0  0  0  0  0  0  0  0  0  0  0  # atno 17343 bound_to 10162
  156.2906  130.3745  149.7845 LP  0  0  0  0  0  0  0  0  0  0  0  0  # atno 17370 bound_to 10713
  156.5506  130.8340  151.3298 LP  0  0  0  0  0  0  0  0  0  0  0  0  # atno 17371 bound_to 10713
  141.2227  133.7114  156.8324 LP  0  0  0  0  0  0  0  0  0  0  0  0  # atno 17394 bound_to 11000
  140.2011  134.8896  157.3170 LP  0  0  0  0  0  0  0  0  0  0  0  0  # atno 17395 bound_to 11000

$$$$
