AV-unprocessed.smi:1829|AV-procd|sdf|7430|dock4
  -GOLD-   22720 9113D 1   1.00000     0.00000
 Structure written by MMmdl.
 46 48  0  0  0  0  0  0  0  0  2 V2000
  149.0450  128.0437  152.8463 C   0  0  0  0  0  0  0  0  0  0  0  0
  147.5659  128.1573  152.4459 C   0  0  0  0  0  0  0  0  0  0  0  0
  147.3296  127.6908  151.0005 C   0  0  0  0  0  0  0  0  0  0  0  0
  147.0342  129.5649  152.6823 C   0  0  0  0  0  0  0  0  0  0  0  0
  146.1841  130.1663  151.7303 C   0  0  0  0  0  0  0  0  0  0  0  0
  145.6731  131.4593  151.9501 C   0  0  0  0  0  0  0  0  0  0  0  0
  146.0058  132.1676  153.1237 C   0  0  0  0  0  0  0  0  0  0  0  0
  145.4074  133.5454  153.3696 C   0  0  2  0  0  0  0  0  0  0  0  0
  144.7026  133.6176  154.5914 O   0  0  0  0  0  0  0  0  0  0  0  0
  144.4516  133.9755  152.2369 C   0  0  0  0  0  0  0  0  0  0  0  0
  144.0648  135.3931  152.3241 N   0  0  0  0  0  0  0  0  0  0  0  0
  144.7478  136.5229  151.9755 C   0  0  0  0  0  0  0  0  0  0  0  0
  146.1119  136.6038  151.3741 C   0  0  0  0  0  0  0  0  0  0  0  0
  146.4386  137.9114  150.9602 O   0  0  0  0  0  0  0  0  0  0  0  0
  143.9482  137.5853  152.2735 N   0  3  0  0  0  0  0  0  0  0  0  0
  142.7436  137.1341  152.8136 C   0  0  0  0  0  0  0  0  0  0  0  0
  141.6288  137.8332  153.2660 C   0  0  0  0  0  0  0  0  0  0  0  0
  140.5561  137.0620  153.7593 C   0  0  0  0  0  0  0  0  0  0  0  0
  140.6162  135.6533  153.7880 C   0  0  0  0  0  0  0  0  0  0  0  0
  141.7521  134.9557  153.3268 C   0  0  0  0  0  0  0  0  0  0  0  0
  142.8090  135.7261  152.8434 C   0  0  0  0  0  0  0  0  0  0  0  0
  146.8632  131.5708  154.0730 C   0  0  0  0  0  0  0  0  0  0  0  0
  147.3719  130.2765  153.8543 C   0  0  0  0  0  0  0  0  0  0  0  0
  149.1894  128.3214  153.8910 H   0  0  0  0  0  0  0  0  0  0  0  0
  149.6768  128.6926  152.2393 H   0  0  0  0  0  0  0  0  0  0  0  0
  149.4069  127.0225  152.7251 H   0  0  0  0  0  0  0  0  0  0  0  0
  147.0063  127.4802  153.0929 H   0  0  0  0  0  0  0  0  0  0  0  0
  146.2709  127.7366  150.7432 H   0  0  0  0  0  0  0  0  0  0  0  0
  147.6563  126.6597  150.8646 H   0  0  0  0  0  0  0  0  0  0  0  0
  147.8741  128.3047  150.2826 H   0  0  0  0  0  0  0  0  0  0  0  0
  145.9127  129.6360  150.8291 H   0  0  0  0  0  0  0  0  0  0  0  0
  145.0118  131.9007  151.2190 H   0  0  0  0  0  0  0  0  0  0  0  0
  146.2232  134.2647  153.4468 H   0  0  0  0  0  0  0  0  0  0  0  0
  143.8988  133.1279  154.5032 H   0  0  0  0  0  0  0  0  0  0  0  0
  144.9151  133.8123  151.2632 H   0  0  0  0  0  0  0  0  0  0  0  0
  143.5404  133.3757  152.2465 H   0  0  0  0  0  0  0  0  0  0  0  0
  146.8492  136.2694  152.1044 H   0  0  0  0  0  0  0  0  0  0  0  0
  146.1812  135.9300  150.5215 H   0  0  0  0  0  0  0  0  0  0  0  0
  145.6580  138.3234  150.6222 H   0  0  0  0  0  0  0  0  0  0  0  0
  141.5801  138.9120  153.2440 H   0  0  0  0  0  0  0  0  0  0  0  0
  139.6691  137.5610  154.1224 H   0  0  0  0  0  0  0  0  0  0  0  0
  139.7740  135.0960  154.1719 H   0  0  0  0  0  0  0  0  0  0  0  0
  141.7888  133.8766  153.3531 H   0  0  0  0  0  0  0  0  0  0  0  0
  147.1203  132.0959  154.9814 H   0  0  0  0  0  0  0  0  0  0  0  0
  148.0168  129.8295  154.5966 H   0  0  0  0  0  0  0  0  0  0  0  0
  144.2114  138.5494  152.1140 H   0  0  0  0  0  0  0  0  0  0  0  0
  1  2  1  0  0  0  0
  1 24  1  0  0  0  0
  1 25  1  0  0  0  0
  1 26  1  0  0  0  0
  2  3  1  0  0  0  0
  2  4  1  0  0  0  0
  2 27  1  0  0  0  0
  3 28  1  0  0  0  0
  3 29  1  0  0  0  0
  3 30  1  0  0  0  0
  4 23  1  0  0  0  0
  4  5  2  0  0  0  0
  5  6  1  0  0  0  0
  5 31  1  0  0  0  0
  6  7  2  0  0  0  0
  6 32  1  0  0  0  0
  7  8  1  0  0  0  0
  7 22  1  0  0  0  0
  8  9  1  0  0  0  0
  8 10  1  0  0  0  0
  8 33  1  0  0  0  0
  9 34  1  0  0  0  0
 10 11  1  0  0  0  0
 10 35  1  0  0  0  0
 10 36  1  0  0  0  0
 11 21  1  0  0  0  0
 11 12  1  0  0  0  0
 12 13  1  0  0  0  0
 12 15  2  0  0  0  0
 13 14  1  0  0  0  0
 13 37  1  0  0  0  0
 13 38  1  0  0  0  0
 14 39  1  0  0  0  0
 15 16  1  0  0  0  0
 15 46  1  0  0  0  0
 16 21  2  0  0  0  0
 16 17  1  0  0  0  0
 17 18  2  0  0  0  0
 17 40  1  0  0  0  0
 18 19  1  0  0  0  0
 18 41  1  0  0  0  0
 19 20  2  0  0  0  0
 19 42  1  0  0  0  0
 20 21  1  0  0  0  0
 20 43  1  0  0  0  0
 22 23  2  0  0  0  0
 22 44  1  0  0  0  0
 23 45  1  0  0  0  0
M  CHG  1  15   1
M  END
> <s_m_source_file>
AV-unprocessed.smi

> <i_m_source_file_index>
1829

> <i_lp_mmshare_version>
43012

> <i_f3d_flags>
0

> <s_epik_input>
W0NIM11bQ0hdKFtDSDNdKWMxW2NIXVtjSF1jKFtjSF1bY0hdMSlbQ0BIXShbT0hdKVtDSDJdbihjKG4yKVtDSDJdW09IXSljKGMyMylbY0hdW2NIXVtjSF1bY0hdMw==

> <s_epik_cmdline>
J2VwaWtfcHl0aG9uJywgJy1waCcsICc3LjAnLCAnLXRuJywgJzgnLCAnLW1hJywgJzIwMCcsICctbWV0YWxfYmluZGluZycsICctaW1hZScsICc8aW5maWxlLm1hZT4nLCAnLW9tYWUnLCAnPG91dGZpbGUubWFlPic=

> <r_epik_Ionization_Penalty>
1.35642

> <r_epik_Ionization_Penalty_Charging>
1.35557

> <r_epik_Ionization_Penalty_Neutral>
0.000856322

> <r_epik_State_Penalty>
1.43401

> <r_epik_Charging_Adjusted_Penalty>
2.78958

> <i_epik_Tot_Q>
1

> <i_epik_Tot_abs_Q>
1

> <r_epik_Metal_State_Penalty>
5.47166

> <b_epik_Metal_Only>
0

> <s_lp_Force_Field>
OPLS_2005

> <r_lp_Energy>
15.3194

> <b_lp_Chiralities_Consistent>
1

> <s_lp_Variant>
AV-unprocessed.smi:1829-3

> <Gold.Version>
5.8.1

> <Gold.Id.Protein>
6NUR|6NUR_protein|mol2

> <Gold.PLP.Fitness>
57.0973

> <Gold.PLP.PLP>
-44.3364

> <Gold.PLP.part.hbond>
-5.8281

> <Gold.PLP.part.metal>
0.0000

> <Gold.PLP.part.buried>
-4.6639

> <Gold.PLP.part.nonpolar>
-35.2394

> <Gold.PLP.part.repulsive>
0.0393

> <Gold.PLP.ligand.clash>
0.0000

> <Gold.PLP.ligand.torsion>
0.7720

> <Gold.PLP.Chemscore.Hbond>
4.7280

> <Gold.PLP.Chemscore.CHOScore>
0.0000

> <Gold.PLP.Chemscore.Metal>
0.0000

> <Gold.Chemscore.Hbonds>
donor molecule, donor type, donor heavy atom, donor atom, acceptor molecule, acceptor atom, score
      L1  H     9    34       P1 10957  1.00
      L1  H    14    39       P1 10171  1.00
      L1  H    15    46       P1 10175  1.73
      P1  H  7954  7966       L1    14  1.00

> <Gold.PLP.Chemscore.Internal.Correction>
0.1208

> <Gold.Rescore>
     Score         DG    S(hbond)    S(metal)    S(lipo)     H(rot)  DE(clash)    DE(int)     intcor
     20.37     -22.25       3.52        0.00     103.08       2.75       1.41       0.48       ----

> <Gold.Chemscore.Fitness>
20.3664

> <Gold.Chemscore.DG>
-22.2507

> <Gold.Chemscore.ZeroCoef>
-5.4800

> <Gold.Chemscore.Hbond>
3.5219

> <Gold.Chemscore.Metal>
0.0000

> <Gold.Chemscore.Lipo>
103.0781

> <Gold.Chemscore.Internal_Hbond>
0.0000

> <Gold.Chemscore.DEClash>
1.4089

> <Gold.Chemscore.DEInternal>
0.4754

> <Gold.Chemscore.Rot>
2.7550

> <Gold.Chemscore.Internal.Correction>
   9.000000E+99

> <Gold.Chemscore.Hbonds>
donor molecule, donor type, donor heavy atom, donor atom, acceptor molecule, acceptor atom, score
      L1  H     9    34       P1 10957  0.99
      L1  H    14    39       P1 10171  0.98
      L1  H    15    46       P1 10175  0.82
      P1  H  7954  7966       L1    14  0.64

> <Gold.Chemscore.Hbond.Weighted>
-11.7633

> <Gold.Chemscore.Metal.Weighted>
-0.0000

> <Gold.Chemscore.Lipo.Weighted>
-12.0601

> <Gold.Chemscore.Internal_Hbond.Weighted>
0.0000

> <Gold.Chemscore.DEClash.Weighted>
1.4089

> <Gold.Chemscore.DEInternal.Weighted>
0.4754

> <Gold.Chemscore.Rot.Weighted>
7.0527

> <Gold.Chemscore.Internal.Correction.Weighted>
   9.000000E+99

> <Gold.Protein.RotatedTorsions>
[ 6907 6896 6895 6894 ] final -131.26 input  -60.11 | X-H torsion
[ 7974 7965 7964 7962 ] final  -23.70 input  175.53 | X-H torsion
[ 8008 7997 7996 7995 ] final   97.93 input   59.86 | X-H torsion
[ 10167 10162 10161 10158 ] final   38.09 input  -65.29 | X-H torsion
[ 10718 10713 10712 10709 ] final    4.11 input   66.30 | X-H torsion
[ 10763 10752 10751 10750 ] final  130.12 input  -60.55 | X-H torsion
[ 11005 11000 10999 10996 ] final   11.70 input  -57.11 | X-H torsion

> <Gold.Protein.ActiveResidues>
 VAL166  LYS551  ARG553  GLY616  TRP617  ASP618  TYR619  PRO620  LYS621  CYS622 
 ASP623  PHE694  ASN695  SER759  ASP760  ASP761  ALA762  ILE779  LEU786  VAL792 
 PHE793  MET794  SER795  GLU796  ALA797  LYS798  CYS799  TRP800  GLU811  SER814 

> <Gold.Protein.RotatedAtoms>
  150.9490  133.6571  159.2775 H   0  0  0  0  0  0  0  0  0  0  0  0  # atno 6907 bound_to 6896
  151.3934  135.0958  159.9543 H   0  0  0  0  0  0  0  0  0  0  0  0  # atno 6908 bound_to 6896
  152.5102  133.8999  159.7490 H   0  0  0  0  0  0  0  0  0  0  0  0  # atno 6909 bound_to 6896
  146.1600  140.4651  142.8575 H   0  0  0  0  0  0  0  0  0  0  0  0  # atno 7974 bound_to 7965
  156.0953  140.3251  155.7869 H   0  0  0  0  0  0  0  0  0  0  0  0  # atno 8008 bound_to 7997
  155.4929  140.0563  157.2968 H   0  0  0  0  0  0  0  0  0  0  0  0  # atno 8009 bound_to 7997
  154.4662  140.1990  156.0127 H   0  0  0  0  0  0  0  0  0  0  0  0  # atno 8010 bound_to 7997
  140.3970  144.1775  150.6132 H   0  0  0  0  0  0  0  0  0  0  0  0  # atno 10167 bound_to 10162
  156.8877  130.5676  149.5651 H   0  0  0  0  0  0  0  0  0  0  0  0  # atno 10718 bound_to 10713
  153.7529  135.3207  155.3324 H   0  0  0  0  0  0  0  0  0  0  0  0  # atno 10763 bound_to 10752
  154.8257  135.4571  154.0914 H   0  0  0  0  0  0  0  0  0  0  0  0  # atno 10764 bound_to 10752
  153.2122  135.6937  153.8183 H   0  0  0  0  0  0  0  0  0  0  0  0  # atno 10765 bound_to 10752
  140.5003  134.0752  155.7792 H   0  0  0  0  0  0  0  0  0  0  0  0  # atno 11005 bound_to 11000
  144.8014  140.6221  143.6475 LP  0  0  0  0  0  0  0  0  0  0  0  0  # atno 17320 bound_to 7965
  145.4611  139.1513  143.3865 LP  0  0  0  0  0  0  0  0  0  0  0  0  # atno 17321 bound_to 7965
  140.4780  143.2389  151.8996 LP  0  0  0  0  0  0  0  0  0  0  0  0  # atno 17342 bound_to 10162
  139.4786  144.5300  151.8680 LP  0  0  0  0  0  0  0  0  0  0  0  0  # atno 17343 bound_to 10162
  156.0645  130.5691  150.9260 LP  0  0  0  0  0  0  0  0  0  0  0  0  # atno 17370 bound_to 10713
  157.6102  131.0937  150.8808 LP  0  0  0  0  0  0  0  0  0  0  0  0  # atno 17371 bound_to 10713
  141.1439  133.9090  157.2262 LP  0  0  0  0  0  0  0  0  0  0  0  0  # atno 17394 bound_to 11000
  139.9717  135.0126  156.9529 LP  0  0  0  0  0  0  0  0  0  0  0  0  # atno 17395 bound_to 11000

$$$$
