AV-unprocessed.smi:1452|AV-procd|sdf|5905|dock2
  -GOLD-   22720 5593D 1   1.00000     0.00000
 Structure written by MMmdl.
 40 42  0  0  0  0  0  0  0  0  2 V2000
  150.0814  134.2108  155.7217 O   0  0  0  0  0  0  0  0  0  0  0  0
  149.7259  134.7852  154.6943 C   0  0  0  0  0  0  0  0  0  0  0  0
  150.1564  136.0330  154.4094 N   0  0  0  0  0  0  0  0  0  0  0  0
  151.0232  136.9201  155.1143 C   0  0  0  0  0  0  0  0  0  0  0  0
  150.9841  138.2585  154.6613 C   0  0  0  0  0  0  0  0  0  0  0  0
  151.7989  139.2273  155.2781 C   0  0  0  0  0  0  0  0  0  0  0  0
  152.6374  138.8333  156.3354 C   0  0  0  0  0  0  0  0  0  0  0  0
  152.6201  137.4823  156.7258 C   0  0  0  0  0  0  0  0  0  0  0  0
  151.8394  136.5525  156.1352 N   0  0  0  0  0  0  0  0  0  0  0  0
  148.8986  134.2217  153.7989 N   0  0  0  0  0  0  0  0  0  0  0  0
  148.3057  132.8928  153.9043 C   0  0  2  0  0  0  0  0  0  0  0  0
  149.3415  131.7929  154.1025 C   0  0  0  0  0  0  0  0  0  0  0  0
  148.5685  130.5423  153.6815 C   0  0  0  0  0  0  0  0  0  0  0  0
  147.6563  130.9739  152.5978 N   0  3  1  0  0  0  0  0  0  0  0  0
  146.3489  130.2734  152.5760 C   0  0  0  0  0  0  0  0  0  0  0  0
  145.4786  130.7794  151.4108 C   0  0  0  0  0  0  0  0  0  0  0  0
  145.3790  132.3182  151.3534 C   0  0  0  0  0  0  0  0  0  0  0  0
  146.1418  132.9991  152.5003 C   0  0  0  0  0  0  0  0  0  0  0  0
  147.5871  132.4630  152.6143 C   0  0  1  0  0  0  0  0  0  0  0  0
  149.8139  136.3993  153.5330 H   0  0  0  0  0  0  0  0  0  0  0  0
  150.3347  138.5466  153.8471 H   0  0  0  0  0  0  0  0  0  0  0  0
  151.7801  140.2546  154.9450 H   0  0  0  0  0  0  0  0  0  0  0  0
  153.2766  139.5471  156.8337 H   0  0  0  0  0  0  0  0  0  0  0  0
  153.2487  137.1380  157.5334 H   0  0  0  0  0  0  0  0  0  0  0  0
  148.6608  134.7650  152.9806 H   0  0  0  0  0  0  0  0  0  0  0  0
  147.6123  132.8526  154.7469 H   0  0  0  0  0  0  0  0  0  0  0  0
  150.1945  131.9461  153.4393 H   0  0  0  0  0  0  0  0  0  0  0  0
  149.7129  131.7363  155.1264 H   0  0  0  0  0  0  0  0  0  0  0  0
  149.2246  129.7358  153.3534 H   0  0  0  0  0  0  0  0  0  0  0  0
  147.9898  130.1762  154.5312 H   0  0  0  0  0  0  0  0  0  0  0  0
  146.5132  129.1995  152.4800 H   0  0  0  0  0  0  0  0  0  0  0  0
  145.8318  130.4282  153.5244 H   0  0  0  0  0  0  0  0  0  0  0  0
  145.8912  130.4143  150.4693 H   0  0  0  0  0  0  0  0  0  0  0  0
  144.4813  130.3452  151.4882 H   0  0  0  0  0  0  0  0  0  0  0  0
  145.7818  132.6666  150.4015 H   0  0  0  0  0  0  0  0  0  0  0  0
  144.3338  132.6286  151.3699 H   0  0  0  0  0  0  0  0  0  0  0  0
  146.1520  134.0783  152.3468 H   0  0  0  0  0  0  0  0  0  0  0  0
  145.6059  132.8338  153.4361 H   0  0  0  0  0  0  0  0  0  0  0  0
  148.1611  132.7999  151.7494 H   0  0  0  0  0  0  0  0  0  0  0  0
  148.1145  130.7396  151.7288 H   0  0  0  0  0  0  0  0  0  0  0  0
  1  2  2  0  0  0  0
  2  3  1  0  0  0  0
  2 10  1  0  0  0  0
  3  4  1  0  0  0  0
  3 20  1  0  0  0  0
  4  9  1  0  0  0  0
  4  5  2  0  0  0  0
  5  6  1  0  0  0  0
  5 21  1  0  0  0  0
  6  7  2  0  0  0  0
  6 22  1  0  0  0  0
  7  8  1  0  0  0  0
  7 23  1  0  0  0  0
  8  9  2  0  0  0  0
  8 24  1  0  0  0  0
 10 11  1  0  0  0  0
 10 25  1  0  0  0  0
 11 19  1  0  0  0  0
 11 12  1  0  0  0  0
 11 26  1  0  0  0  0
 12 13  1  0  0  0  0
 12 27  1  0  0  0  0
 12 28  1  0  0  0  0
 13 14  1  0  0  0  0
 13 29  1  0  0  0  0
 13 30  1  0  0  0  0
 14 19  1  0  0  0  0
 14 15  1  0  0  0  0
 14 40  1  0  0  0  0
 15 16  1  0  0  0  0
 15 31  1  0  0  0  0
 15 32  1  0  0  0  0
 16 17  1  0  0  0  0
 16 33  1  0  0  0  0
 16 34  1  0  0  0  0
 17 18  1  0  0  0  0
 17 35  1  0  0  0  0
 17 36  1  0  0  0  0
 18 19  1  0  0  0  0
 18 37  1  0  0  0  0
 18 38  1  0  0  0  0
 19 39  1  0  0  0  0
M  CHG  1  14   1
M  END
> <s_m_source_file>
AV-unprocessed.smi

> <i_m_source_file_index>
1452

> <i_lp_mmshare_version>
43012

> <i_f3d_flags>
0

> <s_epik_input>
W0NIMl0xW0NIMl1bQ0gyXVtDSDJdW0NASF0oTjEyKVtDQEBIXShbQ0gyXVtDSDJdMilbTkhdQyg9TylbTkhdYzNbY0hdW2NIXVtjSF1bY0hdbjM=

> <s_epik_cmdline>
J2VwaWtfcHl0aG9uJywgJy1waCcsICc3LjAnLCAnLXRuJywgJzgnLCAnLW1hJywgJzIwMCcsICctbWV0YWxfYmluZGluZycsICctaW1hZScsICc8aW5maWxlLm1hZT4nLCAnLW9tYWUnLCAnPG91dGZpbGUubWFlPic=

> <r_epik_Ionization_Penalty>
0.00100813

> <r_epik_Ionization_Penalty_Charging>
0.000974069

> <r_epik_Ionization_Penalty_Neutral>
3.40643e-05

> <r_epik_State_Penalty>
0.000633842

> <r_epik_Charging_Adjusted_Penalty>
0.00160791

> <i_epik_Tot_Q>
1

> <i_epik_Tot_abs_Q>
1

> <r_epik_Metal_State_Penalty>
-0

> <b_epik_Metal_Only>
0

> <s_lp_Force_Field>
OPLS_2005

> <r_lp_Energy>
44.0476

> <b_lp_Chiralities_Consistent>
1

> <s_lp_Variant>
AV-unprocessed.smi:1452-3

> <Gold.Version>
5.8.1

> <Gold.Id.Protein>
6NUR|6NUR_protein|mol2

> <Gold.PLP.Fitness>
46.3078

> <Gold.PLP.PLP>
-34.5021

> <Gold.PLP.part.hbond>
-4.8651

> <Gold.PLP.part.metal>
0.0000

> <Gold.PLP.part.buried>
-1.4042

> <Gold.PLP.part.nonpolar>
-28.1351

> <Gold.PLP.part.repulsive>
0.1246

> <Gold.PLP.ligand.clash>
0.0000

> <Gold.PLP.ligand.torsion>
0.1010

> <Gold.PLP.Chemscore.Hbond>
4.0000

> <Gold.PLP.Chemscore.CHOScore>
0.0000

> <Gold.PLP.Chemscore.Metal>
0.0000

> <Gold.Chemscore.Hbonds>
donor molecule, donor type, donor heavy atom, donor atom, acceptor molecule, acceptor atom, score
      L1  H     3    20       P1  7948  1.00
      L1  H    10    25       P1  7948  1.00
      L1  H    14    40       P1 10747  1.00
      P1  H 10752 10763       L1     9  0.98

> <Gold.PLP.Chemscore.Internal.Correction>
0.0077

> <Gold.Rescore>
     Score         DG    S(hbond)    S(metal)    S(lipo)     H(rot)  DE(clash)    DE(int)     intcor
     20.50     -21.83       3.17        0.00      71.21       1.00       0.00       1.33       ----

> <Gold.Chemscore.Fitness>
20.4963

> <Gold.Chemscore.DG>
-21.8331

> <Gold.Chemscore.ZeroCoef>
-5.4800

> <Gold.Chemscore.Hbond>
3.1679

> <Gold.Chemscore.Metal>
0.0000

> <Gold.Chemscore.Lipo>
71.2150

> <Gold.Chemscore.Internal_Hbond>
0.0000

> <Gold.Chemscore.DEClash>
0.0021

> <Gold.Chemscore.DEInternal>
1.3346

> <Gold.Chemscore.Rot>
1.0000

> <Gold.Chemscore.Internal.Correction>
   9.000000E+99

> <Gold.Chemscore.Hbonds>
donor molecule, donor type, donor heavy atom, donor atom, acceptor molecule, acceptor atom, score
      L1  H     3    20       P1  7948  0.25
      L1  H    10    25       P1  7948  0.24
      L1  H    14    40       P1 10747  1.00
      P1  H 10752 10763       L1     9  0.08

> <Gold.Chemscore.Hbond.Weighted>
-10.5809

> <Gold.Chemscore.Metal.Weighted>
-0.0000

> <Gold.Chemscore.Lipo.Weighted>
-8.3322

> <Gold.Chemscore.Internal_Hbond.Weighted>
0.0000

> <Gold.Chemscore.DEClash.Weighted>
0.0021

> <Gold.Chemscore.DEInternal.Weighted>
1.3346

> <Gold.Chemscore.Rot.Weighted>
2.5600

> <Gold.Chemscore.Internal.Correction.Weighted>
   9.000000E+99

> <Gold.Protein.RotatedTorsions>
[ 6907 6896 6895 6894 ] final   11.13 input  -60.11 | X-H torsion
[ 7974 7965 7964 7962 ] final   43.48 input  175.53 | X-H torsion
[ 8008 7997 7996 7995 ] final -141.72 input   59.86 | X-H torsion
[ 10167 10162 10161 10158 ] final -137.46 input  -65.29 | X-H torsion
[ 10718 10713 10712 10709 ] final   57.38 input   66.30 | X-H torsion
[ 10763 10752 10751 10750 ] final   98.54 input  -60.55 | X-H torsion
[ 11005 11000 10999 10996 ] final -167.89 input  -57.11 | X-H torsion

> <Gold.Protein.ActiveResidues>
 VAL166  LYS551  ARG553  GLY616  TRP617  ASP618  TYR619  PRO620  LYS621  CYS622 
 ASP623  PHE694  ASN695  SER759  ASP760  ASP761  ALA762  ILE779  LEU786  VAL792 
 PHE793  MET794  SER795  GLU796  ALA797  LYS798  CYS799  TRP800  GLU811  SER814 

> <Gold.Protein.RotatedAtoms>
  151.7494  135.0836  160.0328 H   0  0  0  0  0  0  0  0  0  0  0  0  # atno 6907 bound_to 6896
  152.3427  133.6081  159.5896 H   0  0  0  0  0  0  0  0  0  0  0  0  # atno 6908 bound_to 6896
  150.7489  133.9613  159.3558 H   0  0  0  0  0  0  0  0  0  0  0  0  # atno 6909 bound_to 6896
  146.0651  139.5182  142.9633 H   0  0  0  0  0  0  0  0  0  0  0  0  # atno 7974 bound_to 7965
  155.4824  140.0561  157.2965 H   0  0  0  0  0  0  0  0  0  0  0  0  # atno 8008 bound_to 7997
  154.4655  140.2016  156.0082 H   0  0  0  0  0  0  0  0  0  0  0  0  # atno 8009 bound_to 7997
  156.0966  140.3225  155.7891 H   0  0  0  0  0  0  0  0  0  0  0  0  # atno 8010 bound_to 7997
  139.8576  143.7119  152.2653 H   0  0  0  0  0  0  0  0  0  0  0  0  # atno 10167 bound_to 10162
  157.5509  130.8765  149.8962 H   0  0  0  0  0  0  0  0  0  0  0  0  # atno 10718 bound_to 10713
  153.2903  135.4145  155.1160 H   0  0  0  0  0  0  0  0  0  0  0  0  # atno 10763 bound_to 10752
  154.8518  135.3516  154.5991 H   0  0  0  0  0  0  0  0  0  0  0  0  # atno 10764 bound_to 10752
  153.6413  135.7056  153.5298 H   0  0  0  0  0  0  0  0  0  0  0  0  # atno 10765 bound_to 10752
  140.5482  134.5455  157.5116 H   0  0  0  0  0  0  0  0  0  0  0  0  # atno 11005 bound_to 11000
  145.6491  141.0267  143.1770 LP  0  0  0  0  0  0  0  0  0  0  0  0  # atno 17320 bound_to 7965
  144.7198  139.8070  143.7386 LP  0  0  0  0  0  0  0  0  0  0  0  0  # atno 17321 bound_to 7965
  139.7405  144.7560  151.0660 LP  0  0  0  0  0  0  0  0  0  0  0  0  # atno 17342 bound_to 10162
  140.7779  143.4978  150.9810 LP  0  0  0  0  0  0  0  0  0  0  0  0  # atno 17343 bound_to 10162
  156.0576  130.3705  150.1055 LP  0  0  0  0  0  0  0  0  0  0  0  0  # atno 17370 bound_to 10713
  156.9228  130.9688  151.3546 LP  0  0  0  0  0  0  0  0  0  0  0  0  # atno 17371 bound_to 10713
  139.9469  134.7686  156.0541 LP  0  0  0  0  0  0  0  0  0  0  0  0  # atno 17394 bound_to 11000
  141.1187  133.6619  156.3160 LP  0  0  0  0  0  0  0  0  0  0  0  0  # atno 17395 bound_to 11000

$$$$
