AV-unprocessed.smi:1402|AV-procd|sdf|5696|dock2
  -GOLD-   22720 5323D 1   1.00000     0.00000
 Structure written by MMmdl.
 44 45  0  0  0  0  0  0  0  0  1 V2000
  150.5218  142.0344  156.7413 C   0  0  0  0  0  0  0  0  0  0  0  0
  150.2583  140.8594  155.8469 C   0  0  0  0  0  0  0  0  0  0  0  0
  149.1574  140.6568  154.9651 C   0  0  0  0  0  0  0  0  0  0  0  0
  149.4273  139.4301  154.4226 C   0  0  0  0  0  0  0  0  0  0  0  0
  148.7083  138.7319  153.5040 N   0  0  0  0  0  0  0  0  0  0  0  0
  147.3898  138.7968  153.2498 C   0  0  0  0  0  0  0  0  0  0  0  0
  146.5945  139.5577  153.8019 O   0  0  0  0  0  0  0  0  0  0  0  0
  147.0329  137.9036  152.3157 N   0  0  0  0  0  0  0  0  0  0  0  0
  145.6627  137.6470  151.8867 C   0  0  0  0  0  0  0  0  0  0  0  0
  145.0048  136.5414  152.7384 C   0  0  0  0  0  0  0  0  0  0  0  0
  144.7182  135.3393  151.9466 N   0  0  0  0  0  0  0  0  0  0  0  0
  145.7297  134.9683  150.9450 C   0  0  0  0  0  0  0  0  0  0  0  0
  146.5242  133.6914  151.3048 C   0  0  0  0  0  0  0  0  0  0  0  0
  145.7695  132.6289  152.1285 C   0  0  0  0  0  0  0  0  0  0  0  0
  144.3976  132.2118  151.5573 C   0  0  0  0  0  0  0  0  0  0  0  0
  143.3844  133.3508  151.2884 C   0  0  0  0  0  0  0  0  0  0  0  0
  143.5964  134.6059  152.1502 C   0  0  0  0  0  0  0  0  0  0  0  0
  142.7475  134.8952  152.9937 O   0  0  0  0  0  0  0  0  0  0  0  0
  150.6139  138.9630  154.9466 N   0  0  0  0  0  0  0  0  0  0  0  0
  151.3268  137.7253  154.6952 C   0  0  0  0  0  0  0  0  0  0  0  0
  151.1210  139.8496  155.8297 N   0  0  0  0  0  0  0  0  0  0  0  0
  149.7567  142.8015  156.6207 H   0  0  0  0  0  0  0  0  0  0  0  0
  151.4865  142.4902  156.5184 H   0  0  0  0  0  0  0  0  0  0  0  0
  150.5278  141.7345  157.7893 H   0  0  0  0  0  0  0  0  0  0  0  0
  148.3211  141.3132  154.7771 H   0  0  0  0  0  0  0  0  0  0  0  0
  149.2264  138.0333  152.9918 H   0  0  0  0  0  0  0  0  0  0  0  0
  147.7528  137.3242  151.9094 H   0  0  0  0  0  0  0  0  0  0  0  0
  145.0627  138.5591  151.8728 H   0  0  0  0  0  0  0  0  0  0  0  0
  145.7124  137.3148  150.8495 H   0  0  0  0  0  0  0  0  0  0  0  0
  145.6711  136.2785  153.5611 H   0  0  0  0  0  0  0  0  0  0  0  0
  144.1003  136.9035  153.2314 H   0  0  0  0  0  0  0  0  0  0  0  0
  145.2434  134.8385  149.9781 H   0  0  0  0  0  0  0  0  0  0  0  0
  146.4282  135.7892  150.7779 H   0  0  0  0  0  0  0  0  0  0  0  0
  146.9002  133.2410  150.3855 H   0  0  0  0  0  0  0  0  0  0  0  0
  147.4089  133.9827  151.8717 H   0  0  0  0  0  0  0  0  0  0  0  0
  146.3984  131.7427  152.2171 H   0  0  0  0  0  0  0  0  0  0  0  0
  145.6432  132.9873  153.1510 H   0  0  0  0  0  0  0  0  0  0  0  0
  144.5538  131.6608  150.6292 H   0  0  0  0  0  0  0  0  0  0  0  0
  143.9452  131.4985  152.2470 H   0  0  0  0  0  0  0  0  0  0  0  0
  143.4111  133.6366  150.2372 H   0  0  0  0  0  0  0  0  0  0  0  0
  142.3729  132.9748  151.4482 H   0  0  0  0  0  0  0  0  0  0  0  0
  150.8161  137.1324  153.9366 H   0  0  0  0  0  0  0  0  0  0  0  0
  151.3855  137.1433  155.6154 H   0  0  0  0  0  0  0  0  0  0  0  0
  152.3364  137.9462  154.3479 H   0  0  0  0  0  0  0  0  0  0  0  0
  1  2  1  0  0  0  0
  1 22  1  0  0  0  0
  1 23  1  0  0  0  0
  1 24  1  0  0  0  0
  2 21  2  0  0  0  0
  2  3  1  0  0  0  0
  3  4  2  0  0  0  0
  3 25  1  0  0  0  0
  4  5  1  0  0  0  0
  4 19  1  0  0  0  0
  5  6  1  0  0  0  0
  5 26  1  0  0  0  0
  6  7  2  0  0  0  0
  6  8  1  0  0  0  0
  8  9  1  0  0  0  0
  8 27  1  0  0  0  0
  9 10  1  0  0  0  0
  9 28  1  0  0  0  0
  9 29  1  0  0  0  0
 10 11  1  0  0  0  0
 10 30  1  0  0  0  0
 10 31  1  0  0  0  0
 11 17  1  0  0  0  0
 11 12  1  0  0  0  0
 12 13  1  0  0  0  0
 12 32  1  0  0  0  0
 12 33  1  0  0  0  0
 13 14  1  0  0  0  0
 13 34  1  0  0  0  0
 13 35  1  0  0  0  0
 14 15  1  0  0  0  0
 14 36  1  0  0  0  0
 14 37  1  0  0  0  0
 15 16  1  0  0  0  0
 15 38  1  0  0  0  0
 15 39  1  0  0  0  0
 16 17  1  0  0  0  0
 16 40  1  0  0  0  0
 16 41  1  0  0  0  0
 17 18  2  0  0  0  0
 19 20  1  0  0  0  0
 19 21  1  0  0  0  0
 20 42  1  0  0  0  0
 20 43  1  0  0  0  0
 20 44  1  0  0  0  0
M  END
> <s_m_source_file>
AV-unprocessed.smi

> <i_m_source_file_index>
1402

> <i_lp_mmshare_version>
43012

> <i_f3d_flags>
0

> <s_epik_input>
W0NIM11jMVtjSF1jKG4objEpW0NIM10pW05IXUMoPU8pW05IXVtDSDJdW0NIMl1OMltDSDJdW0NIMl1bQ0gyXVtDSDJdW0NIMl1DMj1P

> <s_epik_cmdline>
J2VwaWtfcHl0aG9uJywgJy1waCcsICc3LjAnLCAnLXRuJywgJzgnLCAnLW1hJywgJzIwMCcsICctbWV0YWxfYmluZGluZycsICctaW1hZScsICc8aW5maWxlLm1hZT4nLCAnLW9tYWUnLCAnPG91dGZpbGUubWFlPic=

> <r_lp_tautomer_probability>
1

> <r_epik_Ionization_Penalty>
9.00432e-05

> <r_epik_Ionization_Penalty_Charging>
0

> <r_epik_Ionization_Penalty_Neutral>
9.00432e-05

> <r_epik_State_Penalty>
-0

> <r_epik_Charging_Adjusted_Penalty>
0

> <i_epik_Tot_Q>
0

> <i_epik_Tot_abs_Q>
0

> <r_epik_Metal_State_Penalty>
-0

> <b_epik_Metal_Only>
0

> <s_lp_Force_Field>
OPLS_2005

> <r_lp_Energy>
25.7606

> <b_lp_Chiralities_Consistent>
1

> <s_lp_Variant>
AV-unprocessed.smi:1402-1

> <Gold.Version>
5.8.1

> <Gold.Id.Protein>
6NUR|6NUR_protein|mol2

> <Gold.PLP.Fitness>
43.2335

> <Gold.PLP.PLP>
-40.0444

> <Gold.PLP.part.hbond>
-3.5222

> <Gold.PLP.part.metal>
0.0000

> <Gold.PLP.part.buried>
-2.5754

> <Gold.PLP.part.nonpolar>
-34.9423

> <Gold.PLP.part.repulsive>
0.4870

> <Gold.PLP.ligand.clash>
0.0000

> <Gold.PLP.ligand.torsion>
1.0074

> <Gold.PLP.Chemscore.Hbond>
1.7262

> <Gold.PLP.Chemscore.CHOScore>
0.0000

> <Gold.PLP.Chemscore.Metal>
0.0000

> <Gold.Chemscore.Hbonds>
donor molecule, donor type, donor heavy atom, donor atom, acceptor molecule, acceptor atom, score
      L1  H     5    26       P1  7948  0.69
      L1  H     8    27       P1  7948  1.00

> <Gold.PLP.Chemscore.Internal.Correction>
0.0254

> <Gold.Rescore>
     Score         DG    S(hbond)    S(metal)    S(lipo)     H(rot)  DE(clash)    DE(int)     intcor
     12.71     -14.04       1.20        0.00      72.71       1.54       0.31       1.02       ----

> <Gold.Chemscore.Fitness>
12.7111

> <Gold.Chemscore.DG>
-14.0422

> <Gold.Chemscore.ZeroCoef>
-5.4800

> <Gold.Chemscore.Hbond>
1.1976

> <Gold.Chemscore.Metal>
0.0000

> <Gold.Chemscore.Lipo>
72.7052

> <Gold.Chemscore.Internal_Hbond>
0.0000

> <Gold.Chemscore.DEClash>
0.3124

> <Gold.Chemscore.DEInternal>
1.0187

> <Gold.Chemscore.Rot>
1.5407

> <Gold.Chemscore.Internal.Correction>
   9.000000E+99

> <Gold.Chemscore.Hbonds>
donor molecule, donor type, donor heavy atom, donor atom, acceptor molecule, acceptor atom, score
      L1  H     5    26       P1  7948  0.65
      L1  H     8    27       P1  7948  0.98

> <Gold.Chemscore.Hbond.Weighted>
-3.9998

> <Gold.Chemscore.Metal.Weighted>
-0.0000

> <Gold.Chemscore.Lipo.Weighted>
-8.5065

> <Gold.Chemscore.Internal_Hbond.Weighted>
0.0000

> <Gold.Chemscore.DEClash.Weighted>
0.3124

> <Gold.Chemscore.DEInternal.Weighted>
1.0187

> <Gold.Chemscore.Rot.Weighted>
3.9441

> <Gold.Chemscore.Internal.Correction.Weighted>
   9.000000E+99

> <Gold.Protein.RotatedTorsions>
[ 6907 6896 6895 6894 ] final   70.32 input  -60.11 | X-H torsion
[ 7974 7965 7964 7962 ] final  126.73 input  175.53 | X-H torsion
[ 8008 7997 7996 7995 ] final   35.31 input   59.86 | X-H torsion
[ 10167 10162 10161 10158 ] final  154.94 input  -65.29 | X-H torsion
[ 10718 10713 10712 10709 ] final -109.41 input   66.30 | X-H torsion
[ 10763 10752 10751 10750 ] final  -19.11 input  -60.55 | X-H torsion
[ 11005 11000 10999 10996 ] final  168.92 input  -57.11 | X-H torsion

> <Gold.Protein.ActiveResidues>
 VAL166  LYS551  ARG553  GLY616  TRP617  ASP618  TYR619  PRO620  LYS621  CYS622 
 ASP623  PHE694  ASN695  SER759  ASP760  ASP761  ALA762  ILE779  LEU786  VAL792 
 PHE793  MET794  SER795  GLU796  ALA797  LYS798  CYS799  TRP800  GLU811  SER814 

> <Gold.Protein.RotatedAtoms>
  152.4742  134.4886  159.9687 H   0  0  0  0  0  0  0  0  0  0  0  0  # atno 6907 bound_to 6896
  151.4906  133.3520  159.2860 H   0  0  0  0  0  0  0  0  0  0  0  0  # atno 6908 bound_to 6896
  150.8770  134.8181  159.7258 H   0  0  0  0  0  0  0  0  0  0  0  0  # atno 6909 bound_to 6896
  145.0585  139.3824  143.5018 H   0  0  0  0  0  0  0  0  0  0  0  0  # atno 7974 bound_to 7965
  155.1690  140.3290  155.4396 H   0  0  0  0  0  0  0  0  0  0  0  0  # atno 8008 bound_to 7997
  156.2517  140.1947  156.6744 H   0  0  0  0  0  0  0  0  0  0  0  0  # atno 8009 bound_to 7997
  154.6351  140.0577  156.9765 H   0  0  0  0  0  0  0  0  0  0  0  0  # atno 8010 bound_to 7997
  139.4822  144.5143  151.7976 H   0  0  0  0  0  0  0  0  0  0  0  0  # atno 10167 bound_to 10162
  156.0536  130.5763  150.8096 H   0  0  0  0  0  0  0  0  0  0  0  0  # atno 10718 bound_to 10713
  153.5997  135.7000  153.5389 H   0  0  0  0  0  0  0  0  0  0  0  0  # atno 10763 bound_to 10752
  153.3107  135.4102  155.1333 H   0  0  0  0  0  0  0  0  0  0  0  0  # atno 10764 bound_to 10752
  154.8585  135.3671  154.5532 H   0  0  0  0  0  0  0  0  0  0  0  0  # atno 10765 bound_to 10752
  140.2923  134.7663  157.3849 H   0  0  0  0  0  0  0  0  0  0  0  0  # atno 11005 bound_to 11000
  146.3523  140.0271  142.8653 LP  0  0  0  0  0  0  0  0  0  0  0  0  # atno 17320 bound_to 7965
  145.1438  140.9586  143.4473 LP  0  0  0  0  0  0  0  0  0  0  0  0  # atno 17321 bound_to 7965
  140.4649  144.1669  150.5910 LP  0  0  0  0  0  0  0  0  0  0  0  0  # atno 17342 bound_to 10162
  140.4445  143.2512  151.9430 LP  0  0  0  0  0  0  0  0  0  0  0  0  # atno 17343 bound_to 10162
  157.5485  131.0943  150.9729 LP  0  0  0  0  0  0  0  0  0  0  0  0  # atno 17370 bound_to 10713
  156.9994  130.5594  149.5310 LP  0  0  0  0  0  0  0  0  0  0  0  0  # atno 17371 bound_to 10713
  140.1184  134.5252  155.8205 LP  0  0  0  0  0  0  0  0  0  0  0  0  # atno 17394 bound_to 11000
  141.2144  133.6748  156.6820 LP  0  0  0  0  0  0  0  0  0  0  0  0  # atno 17395 bound_to 11000

$$$$
