AV-unprocessed.smi:2001|AV-procd|sdf|8110|dock10
  -GOLD-   2272010343D 1   1.00000     0.00000
 Structure written by MMmdl.
 50 51  0  0  0  0  0  0  0  0  3 V2000
  152.5697  142.6754  159.3181 C   0  0  0  0  0  0  0  0  0  0  0  0
  152.3484  141.8423  158.1945 O   0  0  0  0  0  0  0  0  0  0  0  0
  151.1872  142.2056  157.4659 C   0  0  0  0  0  0  0  0  0  0  0  0
  151.0708  141.3396  156.2010 C   0  0  0  0  0  0  0  0  0  0  0  0
  151.3190  139.9213  156.4845 N   0  0  0  0  0  0  0  0  0  0  0  0
  150.5239  139.4042  157.4939 N   0  0  0  0  0  0  0  0  0  0  0  0
  150.6356  138.1644  157.8475 C   0  0  0  0  0  0  0  0  0  0  0  0
  149.7882  137.6089  158.9516 C   0  0  0  0  0  0  0  0  0  0  0  0
  149.0164  138.4191  159.4828 O   0  0  0  0  0  0  0  0  0  0  0  0
  149.9208  136.2913  159.2918 N   0  5  0  0  0  0  0  0  0  0  0  0
  148.8317  135.4130  159.7136 C   0  0  0  0  0  0  0  0  0  0  0  0
  148.7348  135.4187  161.2513 C   0  0  0  0  0  0  0  0  0  0  0  0
  147.3501  135.1597  161.7287 N   0  3  1  0  0  0  0  0  0  0  0  0
  147.3015  134.1942  162.8534 C   0  0  0  0  0  0  0  0  0  0  0  0
  145.8481  133.8936  163.2698 C   0  0  2  0  0  0  0  0  0  0  0  0
  145.0977  132.9908  162.2748 C   0  0  0  0  0  0  0  0  0  0  0  0
  145.1457  135.1084  163.5317 O   0  0  0  0  0  0  0  0  0  0  0  0
  145.1447  136.0430  162.4556 C   0  0  1  0  0  0  0  0  0  0  0  0
  144.3559  137.2775  162.9062 C   0  0  0  0  0  0  0  0  0  0  0  0
  146.5957  136.3905  162.0801 C   0  0  0  0  0  0  0  0  0  0  0  0
  151.5945  137.2914  157.1810 C   0  0  0  0  0  0  0  0  0  0  0  0
  152.3622  137.8100  156.1981 C   0  0  0  0  0  0  0  0  0  0  0  0
  152.2567  139.2106  155.7891 C   0  0  0  0  0  0  0  0  0  0  0  0
  152.9497  139.7037  154.8994 O   0  0  0  0  0  0  0  0  0  0  0  0
  153.4769  142.3605  159.8331 H   0  0  0  0  0  0  0  0  0  0  0  0
  151.7415  142.6124  160.0249 H   0  0  0  0  0  0  0  0  0  0  0  0
  152.6970  143.7161  159.0184 H   0  0  0  0  0  0  0  0  0  0  0  0
  150.3073  142.0504  158.0917 H   0  0  0  0  0  0  0  0  0  0  0  0
  151.2146  143.2643  157.2026 H   0  0  0  0  0  0  0  0  0  0  0  0
  150.0992  141.4906  155.7275 H   0  0  0  0  0  0  0  0  0  0  0  0
  151.8012  141.6860  155.4679 H   0  0  0  0  0  0  0  0  0  0  0  0
  147.8708  135.7232  159.3011 H   0  0  0  0  0  0  0  0  0  0  0  0
  148.9859  134.3893  159.3709 H   0  0  0  0  0  0  0  0  0  0  0  0
  149.4040  134.6450  161.6317 H   0  0  0  0  0  0  0  0  0  0  0  0
  149.1008  136.3610  161.6631 H   0  0  0  0  0  0  0  0  0  0  0  0
  147.8057  133.2673  162.5762 H   0  0  0  0  0  0  0  0  0  0  0  0
  147.8489  134.6112  163.7004 H   0  0  0  0  0  0  0  0  0  0  0  0
  145.8806  133.3560  164.2180 H   0  0  0  0  0  0  0  0  0  0  0  0
  145.5808  132.0166  162.1978 H   0  0  0  0  0  0  0  0  0  0  0  0
  145.0661  133.4156  161.2718 H   0  0  0  0  0  0  0  0  0  0  0  0
  144.0706  132.8237  162.6007 H   0  0  0  0  0  0  0  0  0  0  0  0
  144.6350  135.6136  161.5929 H   0  0  0  0  0  0  0  0  0  0  0  0
  144.3136  138.0270  162.1155 H   0  0  0  0  0  0  0  0  0  0  0  0
  144.8120  137.7401  163.7820 H   0  0  0  0  0  0  0  0  0  0  0  0
  143.3311  137.0112  163.1661 H   0  0  0  0  0  0  0  0  0  0  0  0
  147.0905  136.8959  162.9111 H   0  0  0  0  0  0  0  0  0  0  0  0
  146.5969  137.0865  161.2405 H   0  0  0  0  0  0  0  0  0  0  0  0
  151.7014  136.2514  157.4512 H   0  0  0  0  0  0  0  0  0  0  0  0
  153.0751  137.1721  155.6970 H   0  0  0  0  0  0  0  0  0  0  0  0
  146.8673  134.7211  160.9574 H   0  0  0  0  0  0  0  0  0  0  0  0
  1  2  1  0  0  0  0
  1 25  1  0  0  0  0
  1 26  1  0  0  0  0
  1 27  1  0  0  0  0
  2  3  1  0  0  0  0
  3  4  1  0  0  0  0
  3 28  1  0  0  0  0
  3 29  1  0  0  0  0
  4  5  1  0  0  0  0
  4 30  1  0  0  0  0
  4 31  1  0  0  0  0
  5 23  1  0  0  0  0
  5  6  1  0  0  0  0
  6  7  2  0  0  0  0
  7  8  1  0  0  0  0
  7 21  1  0  0  0  0
  8  9  2  0  0  0  0
  8 10  1  0  0  0  0
 10 11  1  0  0  0  0
 11 12  1  0  0  0  0
 11 32  1  0  0  0  0
 11 33  1  0  0  0  0
 12 13  1  0  0  0  0
 12 34  1  0  0  0  0
 12 35  1  0  0  0  0
 13 20  1  0  0  0  0
 13 14  1  0  0  0  0
 13 50  1  0  0  0  0
 14 15  1  0  0  0  0
 14 36  1  0  0  0  0
 14 37  1  0  0  0  0
 15 16  1  0  0  0  0
 15 17  1  0  0  0  0
 15 38  1  0  0  0  0
 16 39  1  0  0  0  0
 16 40  1  0  0  0  0
 16 41  1  0  0  0  0
 17 18  1  0  0  0  0
 18 19  1  0  0  0  0
 18 20  1  0  0  0  0
 18 42  1  0  0  0  0
 19 43  1  0  0  0  0
 19 44  1  0  0  0  0
 19 45  1  0  0  0  0
 20 46  1  0  0  0  0
 20 47  1  0  0  0  0
 21 22  2  0  0  0  0
 21 48  1  0  0  0  0
 22 23  1  0  0  0  0
 22 49  1  0  0  0  0
 23 24  2  0  0  0  0
M  CHG  1  10  -1
M  CHG  1  13   1
M  END
> <s_m_source_file>
AV-unprocessed.smi

> <i_m_source_file_index>
2001

> <i_lp_mmshare_version>
43012

> <i_f3d_flags>
0

> <s_epik_input>
W0NIM11PW0NIMl1bQ0gyXW4xbmMoW2NIXVtjSF1jMT1PKUMoPU8pW05IXVtDSDJdW0NIMl1OMltDSDJdW0NAQEhdKFtDSDNdKU9bQ0BASF0oW0NIM10pW0NIMl0y

> <s_epik_cmdline>
J2VwaWtfcHl0aG9uJywgJy1waCcsICc3LjAnLCAnLXRuJywgJzgnLCAnLW1hJywgJzIwMCcsICctbWV0YWxfYmluZGluZycsICctaW1hZScsICc8aW5maWxlLm1hZT4nLCAnLW9tYWUnLCAnPG91dGZpbGUubWFlPic=

> <r_lp_tautomer_probability>
1

> <r_epik_Ionization_Penalty>
6.90846

> <r_epik_Ionization_Penalty_Charging>
6.90846

> <r_epik_Ionization_Penalty_Neutral>
1.08445e-11

> <r_epik_State_Penalty>
7.54671

> <r_epik_Charging_Adjusted_Penalty>
14.4552

> <i_epik_Tot_Q>
0

> <i_epik_Tot_abs_Q>
2

> <r_epik_Metal_State_Penalty>
3.46181

> <b_epik_Metal_Only>
1

> <s_lp_Force_Field>
OPLS_2005

> <r_lp_Energy>
44.3308

> <b_lp_Chiralities_Consistent>
1

> <s_lp_Variant>
AV-unprocessed.smi:2001-9

> <Gold.Version>
5.8.1

> <Gold.Id.Protein>
6NUR|6NUR_protein|mol2

> <Gold.PLP.Fitness>
43.2801

> <Gold.PLP.PLP>
-35.5044

> <Gold.PLP.part.hbond>
-5.0000

> <Gold.PLP.part.metal>
0.0000

> <Gold.PLP.part.buried>
-5.7004

> <Gold.PLP.part.nonpolar>
-26.0627

> <Gold.PLP.part.repulsive>
0.0914

> <Gold.PLP.ligand.clash>
0.0000

> <Gold.PLP.ligand.torsion>
1.2924

> <Gold.PLP.Chemscore.Hbond>
3.3978

> <Gold.PLP.Chemscore.CHOScore>
0.0000

> <Gold.PLP.Chemscore.Metal>
0.0000

> <Gold.Chemscore.Hbonds>
donor molecule, donor type, donor heavy atom, donor atom, acceptor molecule, acceptor atom, score
      P1  H  6896  6909       L1    10  0.50
      P1  H  7989  7998       L1    24  0.24
      P1  H  7997  8008       L1    24  0.90

> <Gold.PLP.Chemscore.Internal.Correction>
0.1672

> <Gold.Rescore>
     Score         DG    S(hbond)    S(metal)    S(lipo)     H(rot)  DE(clash)    DE(int)     intcor
     15.65     -17.09       2.20        0.00      80.74       2.02       0.08       1.37       ----

> <Gold.Chemscore.Fitness>
15.6467

> <Gold.Chemscore.DG>
-17.0935

> <Gold.Chemscore.ZeroCoef>
-5.4800

> <Gold.Chemscore.Hbond>
2.1953

> <Gold.Chemscore.Metal>
0.0000

> <Gold.Chemscore.Lipo>
80.7431

> <Gold.Chemscore.Internal_Hbond>
0.0000

> <Gold.Chemscore.DEClash>
0.0762

> <Gold.Chemscore.DEInternal>
1.3705

> <Gold.Chemscore.Rot>
2.0179

> <Gold.Chemscore.Internal.Correction>
   9.000000E+99

> <Gold.Chemscore.Hbonds>
donor molecule, donor type, donor heavy atom, donor atom, acceptor molecule, acceptor atom, score
      P1  H  7989  7998       L1    24  0.18
      P1  H  7997  8008       L1    24  0.18

> <Gold.Chemscore.Hbond.Weighted>
-7.3324

> <Gold.Chemscore.Metal.Weighted>
-0.0000

> <Gold.Chemscore.Lipo.Weighted>
-9.4469

> <Gold.Chemscore.Internal_Hbond.Weighted>
0.0000

> <Gold.Chemscore.DEClash.Weighted>
0.0762

> <Gold.Chemscore.DEInternal.Weighted>
1.3705

> <Gold.Chemscore.Rot.Weighted>
5.1659

> <Gold.Chemscore.Internal.Correction.Weighted>
   9.000000E+99

> <Gold.Protein.RotatedTorsions>
[ 6907 6896 6895 6894 ] final   81.20 input  -60.11 | X-H torsion
[ 7974 7965 7964 7962 ] final   77.85 input  175.53 | X-H torsion
[ 8008 7997 7996 7995 ] final  -20.56 input   59.86 | X-H torsion
[ 10167 10162 10161 10158 ] final   -0.73 input  -65.29 | X-H torsion
[ 10718 10713 10712 10709 ] final  -79.25 input   66.30 | X-H torsion
[ 10763 10752 10751 10750 ] final  -39.73 input  -60.55 | X-H torsion
[ 11005 11000 10999 10996 ] final  153.83 input  -57.11 | X-H torsion

> <Gold.Protein.ActiveResidues>
 VAL166  LYS551  ARG553  GLY616  TRP617  ASP618  TYR619  PRO620  LYS621  CYS622 
 ASP623  PHE694  ASN695  SER759  ASP760  ASP761  ALA762  ILE779  LEU786  VAL792 
 PHE793  MET794  SER795  GLU796  ALA797  LYS798  CYS799  TRP800  GLU811  SER814 

> <Gold.Protein.RotatedAtoms>
  152.5261  134.3240  159.9158 H   0  0  0  0  0  0  0  0  0  0  0  0  # atno 6907 bound_to 6896
  151.3189  133.4042  159.2660 H   0  0  0  0  0  0  0  0  0  0  0  0  # atno 6908 bound_to 6896
  150.9976  134.9313  159.7993 H   0  0  0  0  0  0  0  0  0  0  0  0  # atno 6909 bound_to 6896
  145.6847  139.2534  143.1794 H   0  0  0  0  0  0  0  0  0  0  0  0  # atno 7974 bound_to 7965
  154.4762  140.2058  155.9873 H   0  0  0  0  0  0  0  0  0  0  0  0  # atno 8008 bound_to 7997
  156.1092  140.3231  155.8019 H   0  0  0  0  0  0  0  0  0  0  0  0  # atno 8009 bound_to 7997
  155.4664  140.0528  157.2975 H   0  0  0  0  0  0  0  0  0  0  0  0  # atno 8010 bound_to 7997
  140.6780  143.6859  150.8067 H   0  0  0  0  0  0  0  0  0  0  0  0  # atno 10167 bound_to 10162
  156.0097  130.4540  150.3620 H   0  0  0  0  0  0  0  0  0  0  0  0  # atno 10718 bound_to 10713
  153.9343  135.6768  153.4745 H   0  0  0  0  0  0  0  0  0  0  0  0  # atno 10763 bound_to 10752
  153.0964  135.4849  154.8783 H   0  0  0  0  0  0  0  0  0  0  0  0  # atno 10764 bound_to 10752
  154.7411  135.3161  154.8683 H   0  0  0  0  0  0  0  0  0  0  0  0  # atno 10765 bound_to 10752
  140.1434  134.8724  157.2361 H   0  0  0  0  0  0  0  0  0  0  0  0  # atno 11005 bound_to 11000
  146.0934  140.7629  142.9584 LP  0  0  0  0  0  0  0  0  0  0  0  0  # atno 17320 bound_to 7965
  144.7015  140.3673  143.7152 LP  0  0  0  0  0  0  0  0  0  0  0  0  # atno 17321 bound_to 7965
  140.0555  143.5207  152.2653 LP  0  0  0  0  0  0  0  0  0  0  0  0  # atno 17342 bound_to 10162
  139.6084  144.7602  151.3008 LP  0  0  0  0  0  0  0  0  0  0  0  0  # atno 17343 bound_to 10162
  157.1708  131.0368  151.2796 LP  0  0  0  0  0  0  0  0  0  0  0  0  # atno 17370 bound_to 10713
  157.4230  130.7448  149.6929 LP  0  0  0  0  0  0  0  0  0  0  0  0  # atno 17371 bound_to 10713
  140.2694  134.3478  155.7379 LP  0  0  0  0  0  0  0  0  0  0  0  0  # atno 17394 bound_to 11000
  141.2189  133.7414  156.9200 LP  0  0  0  0  0  0  0  0  0  0  0  0  # atno 17395 bound_to 11000

$$$$
