AV-unprocessed.smi:1830|AV-procd|sdf|7447|dock10
  -GOLD-   22720 9133D 1   1.00000     0.00000
 Structure written by MMmdl.
 54 57  0  0  0  0  0  0  0  0  3 V2000
  150.0145  134.4163  155.8870 O   0  0  0  0  0  0  0  0  0  0  0  0
  149.5665  134.8971  154.8467 C   0  0  0  0  0  0  0  0  0  0  0  0
  149.6565  136.1969  154.5333 N   0  0  0  0  0  0  0  0  0  0  0  0
  150.2584  137.2225  155.3806 C   0  0  0  0  0  0  0  0  0  0  0  0
  150.1129  138.6436  154.8010 C   0  0  1  0  0  0  0  0  0  0  0  0
  148.7372  138.9000  154.1587 C   0  0  0  0  0  0  0  0  0  0  0  0
  148.6160  140.2974  153.6705 N   0  3  1  0  0  0  0  0  0  0  0  0
  147.2205  140.6520  153.3278 C   0  0  0  0  0  0  0  0  0  0  0  0
  146.6469  141.4121  154.5379 C   0  0  0  0  0  0  0  0  0  0  0  0
  147.8061  141.5449  155.5316 C   0  0  0  0  0  0  0  0  0  0  0  0
  149.0440  141.3017  154.6688 C   0  0  1  0  0  0  0  0  0  0  0  0
  150.3285  140.9048  155.4238 C   0  0  0  0  0  0  0  0  0  0  0  0
  150.2646  139.5599  155.8764 O   0  0  0  0  0  0  0  0  0  0  0  0
  148.9519  134.2010  153.8761 N   0  0  0  0  0  0  0  0  0  0  0  0
  148.7164  132.7977  153.8243 C   0  0  0  0  0  0  0  0  0  0  0  0
  149.5682  131.8721  154.4801 C   0  0  0  0  0  0  0  0  0  0  0  0
  149.2728  130.4961  154.4359 C   0  0  0  0  0  0  0  0  0  0  0  0
  148.1248  130.0666  153.7469 C   0  0  0  0  0  0  0  0  0  0  0  0
  147.3262  130.9739  153.1471 N   0  3  0  0  0  0  0  0  0  0  0  0
  147.5592  132.3097  153.1568 C   0  0  0  0  0  0  0  0  0  0  0  0
  146.6656  133.1630  152.4744 N   0  0  0  0  0  0  0  0  0  0  0  0
  146.6775  133.0125  151.0217 C   0  0  0  0  0  0  0  0  0  0  0  0
  145.2445  133.2641  150.5499 C   0  0  0  0  0  0  0  0  0  0  0  0
  144.4088  132.8530  151.7556 C   0  0  0  0  0  0  0  0  0  0  0  0
  145.2818  133.2906  152.9306 C   0  0  0  0  0  0  0  0  0  0  0  0
  149.2613  136.5065  153.6571 H   0  0  0  0  0  0  0  0  0  0  0  0
  149.7824  137.1716  156.3602 H   0  0  0  0  0  0  0  0  0  0  0  0
  151.3124  136.9888  155.5399 H   0  0  0  0  0  0  0  0  0  0  0  0
  150.9034  138.8131  154.0677 H   0  0  0  0  0  0  0  0  0  0  0  0
  148.5719  138.2233  153.3196 H   0  0  0  0  0  0  0  0  0  0  0  0
  147.9540  138.6938  154.8902 H   0  0  0  0  0  0  0  0  0  0  0  0
  147.2379  141.3098  152.4580 H   0  0  0  0  0  0  0  0  0  0  0  0
  146.6211  139.7804  153.0604 H   0  0  0  0  0  0  0  0  0  0  0  0
  146.2894  142.3947  154.2281 H   0  0  0  0  0  0  0  0  0  0  0  0
  145.8055  140.8833  154.9866 H   0  0  0  0  0  0  0  0  0  0  0  0
  147.8248  142.5147  156.0300 H   0  0  0  0  0  0  0  0  0  0  0  0
  147.7251  140.7763  156.3016 H   0  0  0  0  0  0  0  0  0  0  0  0
  149.2460  142.2264  154.1252 H   0  0  0  0  0  0  0  0  0  0  0  0
  151.1991  141.0256  154.7774 H   0  0  0  0  0  0  0  0  0  0  0  0
  150.4838  141.5640  156.2780 H   0  0  0  0  0  0  0  0  0  0  0  0
  148.7165  134.7136  153.0387 H   0  0  0  0  0  0  0  0  0  0  0  0
  150.4368  132.1978  155.0323 H   0  0  0  0  0  0  0  0  0  0  0  0
  149.9148  129.7816  154.9302 H   0  0  0  0  0  0  0  0  0  0  0  0
  147.8202  129.0337  153.6612 H   0  0  0  0  0  0  0  0  0  0  0  0
  147.3731  133.7103  150.5556 H   0  0  0  0  0  0  0  0  0  0  0  0
  146.9868  132.0009  150.7537 H   0  0  0  0  0  0  0  0  0  0  0  0
  145.1010  134.3265  150.3479 H   0  0  0  0  0  0  0  0  0  0  0  0
  144.9919  132.7109  149.6449 H   0  0  0  0  0  0  0  0  0  0  0  0
  143.4196  133.3110  151.7677 H   0  0  0  0  0  0  0  0  0  0  0  0
  144.2826  131.7696  151.7683 H   0  0  0  0  0  0  0  0  0  0  0  0
  145.0440  132.7339  153.8368 H   0  0  0  0  0  0  0  0  0  0  0  0
  145.1033  134.3433  153.1522 H   0  0  0  0  0  0  0  0  0  0  0  0
  149.1992  140.3840  152.8503 H   0  0  0  0  0  0  0  0  0  0  0  0
  146.5003  130.6327  152.6549 H   0  0  0  0  0  0  0  0  0  0  0  0
  1  2  2  0  0  0  0
  2  3  1  0  0  0  0
  2 14  1  0  0  0  0
  3  4  1  0  0  0  0
  3 26  1  0  0  0  0
  4  5  1  0  0  0  0
  4 27  1  0  0  0  0
  4 28  1  0  0  0  0
  5 13  1  0  0  0  0
  5  6  1  0  0  0  0
  5 29  1  0  0  0  0
  6  7  1  0  0  0  0
  6 30  1  0  0  0  0
  6 31  1  0  0  0  0
  7 11  1  0  0  0  0
  7  8  1  0  0  0  0
  7 53  1  0  0  0  0
  8  9  1  0  0  0  0
  8 32  1  0  0  0  0
  8 33  1  0  0  0  0
  9 10  1  0  0  0  0
  9 34  1  0  0  0  0
  9 35  1  0  0  0  0
 10 11  1  0  0  0  0
 10 36  1  0  0  0  0
 10 37  1  0  0  0  0
 11 12  1  0  0  0  0
 11 38  1  0  0  0  0
 12 13  1  0  0  0  0
 12 39  1  0  0  0  0
 12 40  1  0  0  0  0
 14 15  1  0  0  0  0
 14 41  1  0  0  0  0
 15 20  1  0  0  0  0
 15 16  2  0  0  0  0
 16 17  1  0  0  0  0
 16 42  1  0  0  0  0
 17 18  2  0  0  0  0
 17 43  1  0  0  0  0
 18 19  1  0  0  0  0
 18 44  1  0  0  0  0
 19 20  2  0  0  0  0
 19 54  1  0  0  0  0
 20 21  1  0  0  0  0
 21 25  1  0  0  0  0
 21 22  1  0  0  0  0
 22 23  1  0  0  0  0
 22 45  1  0  0  0  0
 22 46  1  0  0  0  0
 23 24  1  0  0  0  0
 23 47  1  0  0  0  0
 23 48  1  0  0  0  0
 24 25  1  0  0  0  0
 24 49  1  0  0  0  0
 24 50  1  0  0  0  0
 25 51  1  0  0  0  0
 25 52  1  0  0  0  0
M  CHG  1   7   1
M  CHG  1  19   1
M  END
> <s_m_source_file>
AV-unprocessed.smi

> <i_m_source_file_index>
1830

> <i_lp_mmshare_version>
43012

> <i_f3d_flags>
0

> <s_epik_input>
W0NIMl0xW0NIMl1bQ0gyXVtDQEhdKE4xMilbQ0gyXU9bQ0BASF0oW0NIMl0yKVtDSDJdW05IXUMoPU8pW05IXWMzW2NIXVtjSF1bY0hdbmMzTjRbQ0gyXVtDSDJdW0NIMl1bQ0gyXTQ=

> <s_epik_cmdline>
J2VwaWtfcHl0aG9uJywgJy1waCcsICc3LjAnLCAnLXRuJywgJzgnLCAnLW1hJywgJzIwMCcsICctbWV0YWxfYmluZGluZycsICctaW1hZScsICc8aW5maWxlLm1hZT4nLCAnLW9tYWUnLCAnPG91dGZpbGUubWFlPic=

> <r_lp_tautomer_probability>
0.999994

> <r_epik_Ionization_Penalty>
1.29113

> <r_epik_Ionization_Penalty_Charging>
1.29111

> <r_epik_Ionization_Penalty_Neutral>
1.88144e-05

> <r_epik_State_Penalty>
1.32676

> <r_epik_Charging_Adjusted_Penalty>
2.61787

> <i_epik_Tot_Q>
2

> <i_epik_Tot_abs_Q>
2

> <r_epik_Metal_State_Penalty>
1.40425

> <b_epik_Metal_Only>
0

> <s_lp_Force_Field>
OPLS_2005

> <r_lp_Energy>
75.2676

> <b_lp_Chiralities_Consistent>
1

> <s_lp_Variant>
AV-unprocessed.smi:1830-16

> <Gold.Version>
5.8.1

> <Gold.Id.Protein>
6NUR|6NUR_protein|mol2

> <Gold.PLP.Fitness>
50.3491

> <Gold.PLP.PLP>
-42.6604

> <Gold.PLP.part.hbond>
-3.6973

> <Gold.PLP.part.metal>
0.0000

> <Gold.PLP.part.buried>
-3.9464

> <Gold.PLP.part.nonpolar>
-35.8561

> <Gold.PLP.part.repulsive>
0.3602

> <Gold.PLP.ligand.clash>
0.0000

> <Gold.PLP.ligand.torsion>
0.4785

> <Gold.PLP.Chemscore.Hbond>
2.8260

> <Gold.PLP.Chemscore.CHOScore>
0.0000

> <Gold.PLP.Chemscore.Metal>
0.0000

> <Gold.Chemscore.Hbonds>
donor molecule, donor type, donor heavy atom, donor atom, acceptor molecule, acceptor atom, score
      L1  H     3    26       P1  7948  0.98
      L1  H     7    53       P1  7957  1.00
      L1  H    14    41       P1  7948  0.95

> <Gold.PLP.Chemscore.Internal.Correction>
0.1677

> <Gold.Rescore>
     Score         DG    S(hbond)    S(metal)    S(lipo)     H(rot)  DE(clash)    DE(int)     intcor
     17.40     -19.12       1.96        0.00      91.96       1.43       0.07       1.65       ----

> <Gold.Chemscore.Fitness>
17.4016

> <Gold.Chemscore.DG>
-19.1231

> <Gold.Chemscore.ZeroCoef>
-5.4800

> <Gold.Chemscore.Hbond>
1.9578

> <Gold.Chemscore.Metal>
0.0000

> <Gold.Chemscore.Lipo>
91.9587

> <Gold.Chemscore.Internal_Hbond>
0.0000

> <Gold.Chemscore.DEClash>
0.0748

> <Gold.Chemscore.DEInternal>
1.6468

> <Gold.Chemscore.Rot>
1.4278

> <Gold.Chemscore.Internal.Correction>
   9.000000E+99

> <Gold.Chemscore.Hbonds>
donor molecule, donor type, donor heavy atom, donor atom, acceptor molecule, acceptor atom, score
      L1  H     3    26       P1  7948  0.88
      L1  H     7    53       P1  7957  0.97
      L1  H    14    41       P1  7948  0.21

> <Gold.Chemscore.Hbond.Weighted>
-6.5390

> <Gold.Chemscore.Metal.Weighted>
-0.0000

> <Gold.Chemscore.Lipo.Weighted>
-10.7592

> <Gold.Chemscore.Internal_Hbond.Weighted>
0.0000

> <Gold.Chemscore.DEClash.Weighted>
0.0748

> <Gold.Chemscore.DEInternal.Weighted>
1.6468

> <Gold.Chemscore.Rot.Weighted>
3.6551

> <Gold.Chemscore.Internal.Correction.Weighted>
   9.000000E+99

> <Gold.Protein.RotatedTorsions>
[ 6907 6896 6895 6894 ] final  119.10 input  -60.11 | X-H torsion
[ 7974 7965 7964 7962 ] final    2.49 input  175.53 | X-H torsion
[ 8008 7997 7996 7995 ] final  117.16 input   59.86 | X-H torsion
[ 10167 10162 10161 10158 ] final -125.12 input  -65.29 | X-H torsion
[ 10718 10713 10712 10709 ] final -115.21 input   66.30 | X-H torsion
[ 10763 10752 10751 10750 ] final -118.05 input  -60.55 | X-H torsion
[ 11005 11000 10999 10996 ] final -132.80 input  -57.11 | X-H torsion

> <Gold.Protein.ActiveResidues>
 VAL166  LYS551  ARG553  GLY616  TRP617  ASP618  TYR619  PRO620  LYS621  CYS622 
 ASP623  PHE694  ASN695  SER759  ASP760  ASP761  ALA762  ILE779  LEU786  VAL792 
 PHE793  MET794  SER795  GLU796  ALA797  LYS798  CYS799  TRP800  GLU811  SER814 

> <Gold.Protein.RotatedAtoms>
  152.4496  133.7603  159.6742 H   0  0  0  0  0  0  0  0  0  0  0  0  # atno 6907 bound_to 6896
  150.8404  133.7934  159.3069 H   0  0  0  0  0  0  0  0  0  0  0  0  # atno 6908 bound_to 6896
  151.5561  135.1069  160.0013 H   0  0  0  0  0  0  0  0  0  0  0  0  # atno 6909 bound_to 6896
  146.2444  140.0828  142.8356 H   0  0  0  0  0  0  0  0  0  0  0  0  # atno 7974 bound_to 7965
  156.2479  140.2902  156.0636 H   0  0  0  0  0  0  0  0  0  0  0  0  # atno 8008 bound_to 7997
  155.1749  140.0402  157.2888 H   0  0  0  0  0  0  0  0  0  0  0  0  # atno 8009 bound_to 7997
  154.6300  140.2497  155.7452 H   0  0  0  0  0  0  0  0  0  0  0  0  # atno 8010 bound_to 7997
  139.9855  143.5697  152.2362 H   0  0  0  0  0  0  0  0  0  0  0  0  # atno 10167 bound_to 10162
  156.0880  130.6068  150.8876 H   0  0  0  0  0  0  0  0  0  0  0  0  # atno 10718 bound_to 10713
  154.8575  135.4288  154.2077 H   0  0  0  0  0  0  0  0  0  0  0  0  # atno 10763 bound_to 10752
  153.3110  135.6975  153.7122 H   0  0  0  0  0  0  0  0  0  0  0  0  # atno 10764 bound_to 10752
  153.6214  135.3501  155.2986 H   0  0  0  0  0  0  0  0  0  0  0  0  # atno 10765 bound_to 10752
  140.9138  134.1534  157.4369 H   0  0  0  0  0  0  0  0  0  0  0  0  # atno 11005 bound_to 11000
  145.0718  140.9161  143.4877 LP  0  0  0  0  0  0  0  0  0  0  0  0  # atno 17320 bound_to 7965
  145.0963  139.2854  143.5709 LP  0  0  0  0  0  0  0  0  0  0  0  0  # atno 17321 bound_to 7965
  139.6378  144.7652  151.2401 LP  0  0  0  0  0  0  0  0  0  0  0  0  # atno 17342 bound_to 10162
  140.7474  143.6368  150.8372 LP  0  0  0  0  0  0  0  0  0  0  0  0  # atno 17343 bound_to 10162
  157.6021  131.0941  150.8942 LP  0  0  0  0  0  0  0  0  0  0  0  0  # atno 17370 bound_to 10713
  156.9097  130.5276  149.5280 LP  0  0  0  0  0  0  0  0  0  0  0  0  # atno 17371 bound_to 10713
  139.8762  134.9946  156.5700 LP  0  0  0  0  0  0  0  0  0  0  0  0  # atno 17394 bound_to 11000
  140.8076  133.8454  155.8782 LP  0  0  0  0  0  0  0  0  0  0  0  0  # atno 17395 bound_to 11000

$$$$
