AV-unprocessed.smi:3137|AV-procd|sdf|11953|dock8
  -GOLD-   2272017353D 1   1.00000     0.00000
 Structure written by MMmdl.
 40 40  0  0  0  0  0  0  0  0  2 V2000
  145.4281  131.5460  151.3872 C   0  0  0  0  0  0  0  0  0  0  0  0
  144.6388  132.2361  150.2705 C   0  0  0  0  0  0  0  0  0  0  0  0
  145.0501  133.6264  150.1344 N   0  0  0  0  0  0  0  0  0  0  0  0
  145.0643  134.5132  151.1400 C   0  0  0  0  0  0  0  0  0  0  0  0
  144.7231  134.2329  152.2893 O   0  0  0  0  0  0  0  0  0  0  0  0
  145.5286  135.9302  150.7886 C   0  0  0  0  0  0  0  0  0  0  0  0
  145.4626  136.8968  151.9830 C   0  0  0  0  0  0  0  0  0  0  0  0
  145.3119  138.2939  151.5232 N   0  3  0  0  0  0  0  0  0  0  0  0
  146.5512  139.1065  151.5151 C   0  0  1  0  0  0  0  0  0  0  0  0
  146.1989  140.5462  151.1164 C   0  0  0  0  0  0  0  0  0  0  0  0
  147.2621  139.0899  152.8887 C   0  0  0  0  0  0  0  0  0  0  0  0
  148.4623  139.9052  152.9372 N   0  0  0  0  0  0  0  0  0  0  0  0
  149.7790  139.4981  152.8868 C   0  0  0  0  0  0  0  0  0  0  0  0
  150.5584  140.6167  152.9746 C   0  0  0  0  0  0  0  0  0  0  0  0
  152.0563  140.7198  152.9574 C   0  0  0  0  0  0  0  0  0  0  0  0
  149.6108  141.6726  153.0939 C   0  0  0  0  0  0  0  0  0  0  0  0
  148.3593  141.2439  153.0762 N   0  0  0  0  0  0  0  0  0  0  0  0
  145.1222  130.5049  151.4904 H   0  0  0  0  0  0  0  0  0  0  0  0
  145.2652  132.0361  152.3474 H   0  0  0  0  0  0  0  0  0  0  0  0
  146.4988  131.5583  151.1801 H   0  0  0  0  0  0  0  0  0  0  0  0
  144.7986  131.7136  149.3263 H   0  0  0  0  0  0  0  0  0  0  0  0
  143.5708  132.1914  150.4883 H   0  0  0  0  0  0  0  0  0  0  0  0
  145.3408  133.9318  149.2169 H   0  0  0  0  0  0  0  0  0  0  0  0
  146.5499  135.8891  150.4067 H   0  0  0  0  0  0  0  0  0  0  0  0
  144.9036  136.2999  149.9752 H   0  0  0  0  0  0  0  0  0  0  0  0
  144.6268  136.6294  152.6269 H   0  0  0  0  0  0  0  0  0  0  0  0
  146.3707  136.8123  152.5818 H   0  0  0  0  0  0  0  0  0  0  0  0
  144.9788  138.2502  150.5708 H   0  0  0  0  0  0  0  0  0  0  0  0
  147.2236  138.7232  150.7460 H   0  0  0  0  0  0  0  0  0  0  0  0
  147.0930  141.1678  151.0590 H   0  0  0  0  0  0  0  0  0  0  0  0
  145.5208  141.0054  151.8366 H   0  0  0  0  0  0  0  0  0  0  0  0
  145.7179  140.5767  150.1381 H   0  0  0  0  0  0  0  0  0  0  0  0
  146.5876  139.4631  153.6606 H   0  0  0  0  0  0  0  0  0  0  0  0
  147.5186  138.0684  153.1733 H   0  0  0  0  0  0  0  0  0  0  0  0
  150.0515  138.4577  152.7875 H   0  0  0  0  0  0  0  0  0  0  0  0
  152.3899  141.7374  152.7519 H   0  0  0  0  0  0  0  0  0  0  0  0
  152.4963  140.0783  152.1938 H   0  0  0  0  0  0  0  0  0  0  0  0
  152.4898  140.4267  153.9137 H   0  0  0  0  0  0  0  0  0  0  0  0
  149.7946  142.7324  153.1934 H   0  0  0  0  0  0  0  0  0  0  0  0
  144.6137  138.7627  152.0825 H   0  0  0  0  0  0  0  0  0  0  0  0
  1  2  1  0  0  0  0
  1 18  1  0  0  0  0
  1 19  1  0  0  0  0
  1 20  1  0  0  0  0
  2  3  1  0  0  0  0
  2 21  1  0  0  0  0
  2 22  1  0  0  0  0
  3  4  1  0  0  0  0
  3 23  1  0  0  0  0
  4  5  2  0  0  0  0
  4  6  1  0  0  0  0
  6  7  1  0  0  0  0
  6 24  1  0  0  0  0
  6 25  1  0  0  0  0
  7  8  1  0  0  0  0
  7 26  1  0  0  0  0
  7 27  1  0  0  0  0
  8  9  1  0  0  0  0
  8 28  1  0  0  0  0
  8 40  1  0  0  0  0
  9 10  1  0  0  0  0
  9 11  1  0  0  0  0
  9 29  1  0  0  0  0
 10 30  1  0  0  0  0
 10 31  1  0  0  0  0
 10 32  1  0  0  0  0
 11 12  1  0  0  0  0
 11 33  1  0  0  0  0
 11 34  1  0  0  0  0
 12 17  1  0  0  0  0
 12 13  1  0  0  0  0
 13 14  2  0  0  0  0
 13 35  1  0  0  0  0
 14 15  1  0  0  0  0
 14 16  1  0  0  0  0
 15 36  1  0  0  0  0
 15 37  1  0  0  0  0
 15 38  1  0  0  0  0
 16 17  2  0  0  0  0
 16 39  1  0  0  0  0
M  CHG  1   8   1
M  END
> <s_m_source_file>
AV-unprocessed.smi

> <i_m_source_file_index>
3137

> <i_lp_mmshare_version>
43012

> <i_f3d_flags>
0

> <s_epik_input>
W0NIM11bQ0gyXVtOSF1DKD1PKVtDSDJdW0NIMl1bTkhdW0NASF0oW0NIM10pW0NIMl1uMVtjSF1jKFtDSDNdKVtjSF1uMQ==

> <s_epik_cmdline>
J2VwaWtfcHl0aG9uJywgJy1waCcsICc3LjAnLCAnLXRuJywgJzgnLCAnLW1hJywgJzIwMCcsICctbWV0YWxfYmluZGluZycsICctaW1hZScsICc8aW5maWxlLm1hZT4nLCAnLW9tYWUnLCAnPG91dGZpbGUubWFlPic=

> <r_lp_tautomer_probability>
1

> <r_epik_Ionization_Penalty>
0.00598586

> <r_epik_Ionization_Penalty_Charging>
0.00597743

> <r_epik_Ionization_Penalty_Neutral>
8.43172e-06

> <r_epik_State_Penalty>
0.00439883

> <r_epik_Charging_Adjusted_Penalty>
0.0103763

> <i_epik_Tot_Q>
1

> <i_epik_Tot_abs_Q>
1

> <r_epik_Metal_State_Penalty>
-0

> <b_epik_Metal_Only>
0

> <s_lp_Force_Field>
OPLS_2005

> <r_lp_Energy>
6.05872

> <b_lp_Chiralities_Consistent>
1

> <s_lp_Variant>
AV-unprocessed.smi:3137-2

> <Gold.Version>
5.8.1

> <Gold.Id.Protein>
6NUR|6NUR_protein|mol2

> <Gold.PLP.Fitness>
48.3293

> <Gold.PLP.PLP>
-36.3264

> <Gold.PLP.part.hbond>
-3.0000

> <Gold.PLP.part.metal>
0.0000

> <Gold.PLP.part.buried>
0.6898

> <Gold.PLP.part.nonpolar>
-34.1602

> <Gold.PLP.part.repulsive>
0.3693

> <Gold.PLP.ligand.clash>
0.0000

> <Gold.PLP.ligand.torsion>
0.7117

> <Gold.PLP.Chemscore.Hbond>
3.6240

> <Gold.PLP.Chemscore.CHOScore>
0.8317

> <Gold.PLP.Chemscore.Metal>
0.0000

> <Gold.Chemscore.Hbonds>
donor molecule, donor type, donor heavy atom, donor atom, acceptor molecule, acceptor atom, score
      L1  H     3    23       P1  7921  1.00
      L1  H     8    28       P1 10171  0.50
      L1  H     8    40       P1 10175  1.86
      L1  C    13    35       P1  7948  0.84

> <Gold.PLP.Chemscore.Internal.Correction>
0.0592

> <Gold.Rescore>
     Score         DG    S(hbond)    S(metal)    S(lipo)     H(rot)  DE(clash)    DE(int)     intcor
     14.60     -17.85       2.55        0.00      83.15       2.30       1.98       1.27       ----

> <Gold.Chemscore.Fitness>
14.5951

> <Gold.Chemscore.DG>
-17.8499

> <Gold.Chemscore.ZeroCoef>
-5.4800

> <Gold.Chemscore.Hbond>
2.5509

> <Gold.Chemscore.Metal>
0.0000

> <Gold.Chemscore.Lipo>
83.1487

> <Gold.Chemscore.Internal_Hbond>
0.0000

> <Gold.Chemscore.DEClash>
1.9845

> <Gold.Chemscore.DEInternal>
1.2703

> <Gold.Chemscore.Rot>
2.2963

> <Gold.Chemscore.Internal.Correction>
   9.000000E+99

> <Gold.Chemscore.Hbonds>
donor molecule, donor type, donor heavy atom, donor atom, acceptor molecule, acceptor atom, score
      L1  H     3    23       P1  7921  0.80
      L1  H     8    28       P1 10171  0.51
      L1  H     8    40       P1 10175  0.88

> <Gold.Chemscore.Hbond.Weighted>
-8.5201

> <Gold.Chemscore.Metal.Weighted>
-0.0000

> <Gold.Chemscore.Lipo.Weighted>
-9.7284

> <Gold.Chemscore.Internal_Hbond.Weighted>
0.0000

> <Gold.Chemscore.DEClash.Weighted>
1.9845

> <Gold.Chemscore.DEInternal.Weighted>
1.2703

> <Gold.Chemscore.Rot.Weighted>
5.8786

> <Gold.Chemscore.Internal.Correction.Weighted>
   9.000000E+99

> <Gold.Protein.RotatedTorsions>
[ 6907 6896 6895 6894 ] final -147.97 input  -60.11 | X-H torsion
[ 7974 7965 7964 7962 ] final -163.17 input  175.53 | X-H torsion
[ 8008 7997 7996 7995 ] final   36.64 input   59.86 | X-H torsion
[ 10167 10162 10161 10158 ] final    8.15 input  -65.29 | X-H torsion
[ 10718 10713 10712 10709 ] final   96.07 input   66.30 | X-H torsion
[ 10763 10752 10751 10750 ] final  169.49 input  -60.55 | X-H torsion
[ 11005 11000 10999 10996 ] final -142.75 input  -57.11 | X-H torsion

> <Gold.Protein.ActiveResidues>
 VAL166  LYS551  ARG553  GLY616  TRP617  ASP618  TYR619  PRO620  LYS621  CYS622 
 ASP623  PHE694  ASN695  SER759  ASP760  ASP761  ALA762  ILE779  LEU786  VAL792 
 PHE793  MET794  SER795  GLU796  ALA797  LYS798  CYS799  TRP800  GLU811  SER814 

> <Gold.Protein.RotatedAtoms>
  151.1632  133.4831  159.2593 H   0  0  0  0  0  0  0  0  0  0  0  0  # atno 6907 bound_to 6896
  151.1432  135.0190  159.8645 H   0  0  0  0  0  0  0  0  0  0  0  0  # atno 6908 bound_to 6896
  152.5463  134.1524  159.8577 H   0  0  0  0  0  0  0  0  0  0  0  0  # atno 6909 bound_to 6896
  144.7334  140.3145  143.6182 H   0  0  0  0  0  0  0  0  0  0  0  0  # atno 7974 bound_to 7965
  155.1907  140.3307  155.4359 H   0  0  0  0  0  0  0  0  0  0  0  0  # atno 8008 bound_to 7997
  156.2443  140.1910  156.6950 H   0  0  0  0  0  0  0  0  0  0  0  0  # atno 8009 bound_to 7997
  154.6207  140.0596  156.9598 H   0  0  0  0  0  0  0  0  0  0  0  0  # atno 8010 bound_to 7997
  140.6331  143.7948  150.7322 H   0  0  0  0  0  0  0  0  0  0  0  0  # atno 10167 bound_to 10162
  157.6931  131.0566  150.4435 H   0  0  0  0  0  0  0  0  0  0  0  0  # atno 10718 bound_to 10713
  154.3839  135.2753  155.2195 H   0  0  0  0  0  0  0  0  0  0  0  0  # atno 10763 bound_to 10752
  154.4290  135.5982  153.6060 H   0  0  0  0  0  0  0  0  0  0  0  0  # atno 10764 bound_to 10752
  152.9834  135.5991  154.4085 H   0  0  0  0  0  0  0  0  0  0  0  0  # atno 10765 bound_to 10752
  140.8194  134.2649  157.4907 H   0  0  0  0  0  0  0  0  0  0  0  0  # atno 11005 bound_to 11000
  145.7631  139.1831  143.2256 LP  0  0  0  0  0  0  0  0  0  0  0  0  # atno 17320 bound_to 7965
  146.0971  140.7588  142.9567 LP  0  0  0  0  0  0  0  0  0  0  0  0  # atno 17321 bound_to 7965
  140.1564  143.4313  152.2097 LP  0  0  0  0  0  0  0  0  0  0  0  0  # atno 17342 bound_to 10162
  139.5543  144.7361  151.4340 LP  0  0  0  0  0  0  0  0  0  0  0  0  # atno 17343 bound_to 10162
  156.4791  130.4070  149.6472 LP  0  0  0  0  0  0  0  0  0  0  0  0  # atno 17370 bound_to 10713
  156.3524  130.7439  151.2400 LP  0  0  0  0  0  0  0  0  0  0  0  0  # atno 17371 bound_to 10713
  139.8709  134.9527  156.4122 LP  0  0  0  0  0  0  0  0  0  0  0  0  # atno 17394 bound_to 11000
  140.9115  133.7708  155.9797 LP  0  0  0  0  0  0  0  0  0  0  0  0  # atno 17395 bound_to 11000

$$$$
