AV-unprocessed.smi:712|AV-procd|sdf|3469|dock6
  -GOLD-   22720 0463D 1   1.00000     0.00000
 Structure written by MMmdl.
 51 52  0  0  0  0  0  0  0  0  2 V2000
  153.2699  142.9680  160.8931 C   0  0  0  0  0  0  0  0  0  0  0  0
  152.5402  142.4429  159.6742 C   0  0  0  0  0  0  0  0  0  0  0  0
  151.7531  143.3311  158.8441 C   0  0  0  0  0  0  0  0  0  0  0  0
  151.1151  142.8322  157.7738 C   0  0  0  0  0  0  0  0  0  0  0  0
  151.1879  141.4692  157.4342 N   0  0  0  0  0  0  0  0  0  0  0  0
  150.4332  141.0244  156.2510 C   0  0  0  0  0  0  0  0  0  0  0  0
  149.3163  140.0462  156.6312 C   0  0  0  0  0  0  0  0  0  0  0  0
  148.1454  140.4247  156.6645 O   0  0  0  0  0  0  0  0  0  0  0  0
  149.6988  138.7977  156.9374 N   0  0  0  0  0  0  0  0  0  0  0  0
  148.8309  137.7528  157.4695 C   0  0  0  0  0  0  0  0  0  0  0  0
  148.9524  136.4502  156.6540 C   0  0  1  0  0  0  0  0  0  0  0  0
  148.7333  136.6491  155.1334 C   0  0  0  0  0  0  0  0  0  0  0  0
  148.9635  135.3962  154.3704 N   0  3  2  0  0  0  0  0  0  0  0  0
  147.8342  134.4283  154.4170 C   0  0  0  0  0  0  0  0  0  0  0  0
  147.8240  133.4664  153.2086 C   0  0  0  0  0  0  0  0  0  0  0  0
  146.5109  132.6717  153.1587 C   0  0  0  0  0  0  0  0  0  0  0  0
  149.0296  132.5126  153.2247 C   0  0  0  0  0  0  0  0  0  0  0  0
  150.2784  134.8063  154.7195 C   0  0  0  0  0  0  0  0  0  0  0  0
  150.4348  134.6546  156.2425 C   0  0  0  0  0  0  0  0  0  0  0  0
  150.2579  135.9225  156.8626 O   0  0  0  0  0  0  0  0  0  0  0  0
  151.9125  140.5779  158.1773 C   0  0  0  0  0  0  0  0  0  0  0  0
  151.9724  139.3810  157.8915 O   0  0  0  0  0  0  0  0  0  0  0  0
  152.6061  141.1344  159.3440 C   0  0  0  0  0  0  0  0  0  0  0  0
  153.3220  144.0571  160.8797 H   0  0  0  0  0  0  0  0  0  0  0  0
  154.2889  142.5810  160.9276 H   0  0  0  0  0  0  0  0  0  0  0  0
  152.7536  142.6609  161.8031 H   0  0  0  0  0  0  0  0  0  0  0  0
  151.6742  144.3819  159.0817 H   0  0  0  0  0  0  0  0  0  0  0  0
  150.5069  143.4397  157.1194 H   0  0  0  0  0  0  0  0  0  0  0  0
  149.9833  141.8710  155.7307 H   0  0  0  0  0  0  0  0  0  0  0  0
  151.1111  140.5677  155.5271 H   0  0  0  0  0  0  0  0  0  0  0  0
  150.6813  138.5758  156.8634 H   0  0  0  0  0  0  0  0  0  0  0  0
  149.0278  137.5712  158.5275 H   0  0  0  0  0  0  0  0  0  0  0  0
  147.8075  138.1237  157.4086 H   0  0  0  0  0  0  0  0  0  0  0  0
  148.2264  135.7385  157.0501 H   0  0  0  0  0  0  0  0  0  0  0  0
  147.7356  137.0309  154.9273 H   0  0  0  0  0  0  0  0  0  0  0  0
  149.4297  137.4032  154.7641 H   0  0  0  0  0  0  0  0  0  0  0  0
  147.9013  133.8296  155.3265 H   0  0  0  0  0  0  0  0  0  0  0  0
  146.8876  134.9647  154.4838 H   0  0  0  0  0  0  0  0  0  0  0  0
  147.8747  134.0449  152.2874 H   0  0  0  0  0  0  0  0  0  0  0  0
  146.3834  132.0582  154.0511 H   0  0  0  0  0  0  0  0  0  0  0  0
  146.4841  132.0097  152.2927 H   0  0  0  0  0  0  0  0  0  0  0  0
  145.6506  133.3379  153.0859 H   0  0  0  0  0  0  0  0  0  0  0  0
  149.0360  131.8949  154.1235 H   0  0  0  0  0  0  0  0  0  0  0  0
  149.9720  133.0594  153.1890 H   0  0  0  0  0  0  0  0  0  0  0  0
  149.0112  131.8441  152.3633 H   0  0  0  0  0  0  0  0  0  0  0  0
  150.4208  133.8501  154.2150 H   0  0  0  0  0  0  0  0  0  0  0  0
  151.0598  135.4681  154.3435 H   0  0  0  0  0  0  0  0  0  0  0  0
  149.7238  133.9311  156.6443 H   0  0  0  0  0  0  0  0  0  0  0  0
  151.4316  134.2834  156.4807 H   0  0  0  0  0  0  0  0  0  0  0  0
  153.1893  140.4661  159.9610 H   0  0  0  0  0  0  0  0  0  0  0  0
  149.0348  135.6608  153.3981 H   0  0  0  0  0  0  0  0  0  0  0  0
  1  2  1  0  0  0  0
  1 24  1  0  0  0  0
  1 25  1  0  0  0  0
  1 26  1  0  0  0  0
  2 23  2  0  0  0  0
  2  3  1  0  0  0  0
  3  4  2  0  0  0  0
  3 27  1  0  0  0  0
  4  5  1  0  0  0  0
  4 28  1  0  0  0  0
  5  6  1  0  0  0  0
  5 21  1  0  0  0  0
  6  7  1  0  0  0  0
  6 29  1  0  0  0  0
  6 30  1  0  0  0  0
  7  8  2  0  0  0  0
  7  9  1  0  0  0  0
  9 10  1  0  0  0  0
  9 31  1  0  0  0  0
 10 11  1  0  0  0  0
 10 32  1  0  0  0  0
 10 33  1  0  0  0  0
 11 20  1  0  0  0  0
 11 12  1  0  0  0  0
 11 34  1  0  0  0  0
 12 13  1  0  0  0  0
 12 35  1  0  0  0  0
 12 36  1  0  0  0  0
 13 14  1  0  0  0  0
 13 18  1  0  0  0  0
 13 51  1  0  0  0  0
 14 15  1  0  0  0  0
 14 37  1  0  0  0  0
 14 38  1  0  0  0  0
 15 16  1  0  0  0  0
 15 17  1  0  0  0  0
 15 39  1  0  0  0  0
 16 40  1  0  0  0  0
 16 41  1  0  0  0  0
 16 42  1  0  0  0  0
 17 43  1  0  0  0  0
 17 44  1  0  0  0  0
 17 45  1  0  0  0  0
 18 19  1  0  0  0  0
 18 46  1  0  0  0  0
 18 47  1  0  0  0  0
 19 20  1  0  0  0  0
 19 48  1  0  0  0  0
 19 49  1  0  0  0  0
 21 22  2  0  0  0  0
 21 23  1  0  0  0  0
 23 50  1  0  0  0  0
M  CHG  1  13   1
M  END
> <s_m_source_file>
AV-unprocessed.smi

> <i_m_source_file_index>
712

> <i_lp_mmshare_version>
43012

> <i_f3d_flags>
0

> <s_epik_input>
W0NIM11jMVtjSF1bY0hdbihjKD1PKVtjSF0xKVtDSDJdQyg9TylbTkhdW0NIMl1bQ0BASF0yW0NIMl1OKFtDSDJdW0NIMl1PMilbQ0gyXVtDSF0oW0NIM10pW0NIM10=

> <s_epik_cmdline>
J2VwaWtfcHl0aG9uJywgJy1waCcsICc3LjAnLCAnLXRuJywgJzgnLCAnLW1hJywgJzIwMCcsICctbWV0YWxfYmluZGluZycsICctaW1hZScsICc8aW5maWxlLm1hZT4nLCAnLW9tYWUnLCAnPG91dGZpbGUubWFlPic=

> <r_lp_tautomer_probability>
1

> <r_epik_Ionization_Penalty>
0.0975935

> <r_epik_Ionization_Penalty_Charging>
0.0975934

> <r_epik_Ionization_Penalty_Neutral>
6.27044e-08

> <r_epik_State_Penalty>
0.0877056

> <r_epik_Charging_Adjusted_Penalty>
0.185299

> <i_epik_Tot_Q>
1

> <i_epik_Tot_abs_Q>
1

> <r_epik_Metal_State_Penalty>
0.0877109

> <b_epik_Metal_Only>
0

> <s_lp_Force_Field>
OPLS_2005

> <r_lp_Energy>
28.3742

> <b_lp_Chiralities_Consistent>
1

> <s_lp_Variant>
AV-unprocessed.smi:712-2

> <Gold.Version>
5.8.1

> <Gold.Id.Protein>
6NUR|6NUR_protein|mol2

> <Gold.PLP.Fitness>
41.9637

> <Gold.PLP.PLP>
-33.8784

> <Gold.PLP.part.hbond>
-1.0000

> <Gold.PLP.part.metal>
0.0000

> <Gold.PLP.part.buried>
-4.6985

> <Gold.PLP.part.nonpolar>
-28.0884

> <Gold.PLP.part.repulsive>
0.0426

> <Gold.PLP.ligand.clash>
0.0000

> <Gold.PLP.ligand.torsion>
0.5179

> <Gold.PLP.Chemscore.Hbond>
2.0000

> <Gold.PLP.Chemscore.CHOScore>
1.0000

> <Gold.PLP.Chemscore.Metal>
0.0000

> <Gold.Chemscore.Hbonds>
donor molecule, donor type, donor heavy atom, donor atom, acceptor molecule, acceptor atom, score
      L1  H    13    51       P1  7948  2.00
      L1  C     4    28       P1  8028  1.00

> <Gold.PLP.Chemscore.Internal.Correction>
0.1210

> <Gold.Rescore>
     Score         DG    S(hbond)    S(metal)    S(lipo)     H(rot)  DE(clash)    DE(int)     intcor
     11.20     -14.56       0.97        0.00      91.33       1.89       0.01       3.35       ----

> <Gold.Chemscore.Fitness>
11.2023

> <Gold.Chemscore.DG>
-14.5584

> <Gold.Chemscore.ZeroCoef>
-5.4800

> <Gold.Chemscore.Hbond>
0.9653

> <Gold.Chemscore.Metal>
0.0000

> <Gold.Chemscore.Lipo>
91.3272

> <Gold.Chemscore.Internal_Hbond>
0.0000

> <Gold.Chemscore.DEClash>
0.0053

> <Gold.Chemscore.DEInternal>
3.3508

> <Gold.Chemscore.Rot>
1.8871

> <Gold.Chemscore.Internal.Correction>
   9.000000E+99

> <Gold.Chemscore.Hbonds>
donor molecule, donor type, donor heavy atom, donor atom, acceptor molecule, acceptor atom, score
      L1  H    13    51       P1  7948  0.78

> <Gold.Chemscore.Hbond.Weighted>
-3.2241

> <Gold.Chemscore.Metal.Weighted>
-0.0000

> <Gold.Chemscore.Lipo.Weighted>
-10.6853

> <Gold.Chemscore.Internal_Hbond.Weighted>
0.0000

> <Gold.Chemscore.DEClash.Weighted>
0.0053

> <Gold.Chemscore.DEInternal.Weighted>
3.3508

> <Gold.Chemscore.Rot.Weighted>
4.8309

> <Gold.Chemscore.Internal.Correction.Weighted>
   9.000000E+99

> <Gold.Protein.RotatedTorsions>
[ 6907 6896 6895 6894 ] final  -92.88 input  -60.11 | X-H torsion
[ 7974 7965 7964 7962 ] final  114.14 input  175.53 | X-H torsion
[ 8008 7997 7996 7995 ] final  -99.66 input   59.86 | X-H torsion
[ 10167 10162 10161 10158 ] final   93.47 input  -65.29 | X-H torsion
[ 10718 10713 10712 10709 ] final   71.67 input   66.30 | X-H torsion
[ 10763 10752 10751 10750 ] final -153.33 input  -60.55 | X-H torsion
[ 11005 11000 10999 10996 ] final  -50.53 input  -57.11 | X-H torsion

> <Gold.Protein.ActiveResidues>
 VAL166  LYS551  ARG553  GLY616  TRP617  ASP618  TYR619  PRO620  LYS621  CYS622 
 ASP623  PHE694  ASN695  SER759  ASP760  ASP761  ALA762  ILE779  LEU786  VAL792 
 PHE793  MET794  SER795  GLU796  ALA797  LYS798  CYS799  TRP800  GLU811  SER814 

> <Gold.Protein.RotatedAtoms>
  150.6913  134.2054  159.4338 H   0  0  0  0  0  0  0  0  0  0  0  0  # atno 6907 bound_to 6896
  152.0019  134.9921  160.0574 H   0  0  0  0  0  0  0  0  0  0  0  0  # atno 6908 bound_to 6896
  152.1571  133.4523  159.4879 H   0  0  0  0  0  0  0  0  0  0  0  0  # atno 6909 bound_to 6896
  145.2082  139.2919  143.4282 H   0  0  0  0  0  0  0  0  0  0  0  0  # atno 7974 bound_to 7965
  154.8179  140.0446  157.1390 H   0  0  0  0  0  0  0  0  0  0  0  0  # atno 8008 bound_to 7997
  154.9293  140.3037  155.5156 H   0  0  0  0  0  0  0  0  0  0  0  0  # atno 8009 bound_to 7997
  156.2977  140.2326  156.4351 H   0  0  0  0  0  0  0  0  0  0  0  0  # atno 8010 bound_to 7997
  139.8177  144.6745  150.9559 H   0  0  0  0  0  0  0  0  0  0  0  0  # atno 10167 bound_to 10162
  157.6463  130.9540  150.0821 H   0  0  0  0  0  0  0  0  0  0  0  0  # atno 10718 bound_to 10713
  154.7934  135.3215  154.7723 H   0  0  0  0  0  0  0  0  0  0  0  0  # atno 10763 bound_to 10752
  153.8407  135.6871  153.4807 H   0  0  0  0  0  0  0  0  0  0  0  0  # atno 10764 bound_to 10752
  153.1615  135.4659  154.9719 H   0  0  0  0  0  0  0  0  0  0  0  0  # atno 10765 bound_to 10752
  141.0821  133.6651  156.3744 H   0  0  0  0  0  0  0  0  0  0  0  0  # atno 11005 bound_to 11000
  146.3403  140.2349  142.8594 LP  0  0  0  0  0  0  0  0  0  0  0  0  # atno 17320 bound_to 7965
  144.9882  140.8522  143.5356 LP  0  0  0  0  0  0  0  0  0  0  0  0  # atno 17321 bound_to 7965
  140.7815  143.4122  151.0974 LP  0  0  0  0  0  0  0  0  0  0  0  0  # atno 17342 bound_to 10162
  139.7785  143.8390  152.3133 LP  0  0  0  0  0  0  0  0  0  0  0  0  # atno 17343 bound_to 10162
  156.1794  130.3649  149.9055 LP  0  0  0  0  0  0  0  0  0  0  0  0  # atno 17370 bound_to 10713
  156.7011  130.8933  151.3599 LP  0  0  0  0  0  0  0  0  0  0  0  0  # atno 17371 bound_to 10713
  140.5445  134.6087  157.5390 LP  0  0  0  0  0  0  0  0  0  0  0  0  # atno 17394 bound_to 11000
  139.9636  134.7411  156.0186 LP  0  0  0  0  0  0  0  0  0  0  0  0  # atno 17395 bound_to 11000

$$$$
