AV-unprocessed.smi:2124|AV-procd|sdf|8653|dock9
  -GOLD-   2272011403D 1   1.00000     0.00000
 Structure written by MMmdl.
 47 49  0  0  0  0  0  0  0  0  1 V2000
  154.2505  141.4819  162.0772 C   0  0  0  0  0  0  0  0  0  0  0  0
  153.5875  141.9650  160.8046 C   0  0  0  0  0  0  0  0  0  0  0  0
  152.7044  142.9079  160.7644 N   0  0  0  0  0  0  0  0  0  0  0  0
  152.1584  143.2669  159.5239 C   0  0  0  0  0  0  0  0  0  0  0  0
  151.1207  144.3758  159.5589 C   0  0  0  0  0  0  0  0  0  0  0  0
  152.5421  142.6504  158.3678 C   0  0  0  0  0  0  0  0  0  0  0  0
  151.9635  143.0144  157.0010 C   0  0  0  0  0  0  0  0  0  0  0  0
  151.0985  141.9467  156.3260 C   0  0  0  0  0  0  0  0  0  0  0  0
  151.5264  140.8031  156.1672 O   0  0  0  0  0  0  0  0  0  0  0  0
  149.8743  142.3454  155.9416 N   0  0  0  0  0  0  0  0  0  0  0  0
  148.8301  141.5355  155.3070 C   0  0  1  0  0  0  0  0  0  0  0  0
  147.4433  141.8953  155.8769 C   0  0  0  0  0  0  0  0  0  0  0  0
  148.8983  141.6018  153.7560 C   0  0  1  0  0  0  0  0  0  0  0  0
  148.7888  143.0374  153.1819 C   0  0  0  0  0  0  0  0  0  0  0  0
  150.0289  143.1552  152.2790 C   0  0  2  0  0  0  0  0  0  0  0  0
  149.8613  142.2438  151.0498 C   0  0  0  0  0  0  0  0  0  0  0  0
  150.0382  140.8357  151.6475 C   0  0  0  0  0  0  0  0  0  0  0  0
  150.2414  141.1252  153.1473 C   0  0  1  0  0  0  0  0  0  0  0  0
  151.0716  142.4039  153.0953 C   0  0  0  0  0  0  0  0  0  0  0  0
  153.5504  141.5749  158.4257 C   0  0  0  0  0  0  0  0  0  0  0  0
  153.9603  140.9498  157.4488 O   0  0  0  0  0  0  0  0  0  0  0  0
  154.0189  141.2933  159.6620 N   0  0  0  0  0  0  0  0  0  0  0  0
  154.7088  140.5622  159.7549 H   0  0  0  0  0  0  0  0  0  0  0  0
  153.4986  141.1156  162.7765 H   0  0  0  0  0  0  0  0  0  0  0  0
  154.7917  142.3001  162.5527 H   0  0  0  0  0  0  0  0  0  0  0  0
  154.9568  140.6737  161.8818 H   0  0  0  0  0  0  0  0  0  0  0  0
  151.4866  145.2577  159.0329 H   0  0  0  0  0  0  0  0  0  0  0  0
  150.8893  144.6693  160.5835 H   0  0  0  0  0  0  0  0  0  0  0  0
  150.1921  144.0511  159.0891 H   0  0  0  0  0  0  0  0  0  0  0  0
  151.3594  143.9156  157.1089 H   0  0  0  0  0  0  0  0  0  0  0  0
  152.7624  143.2964  156.3143 H   0  0  0  0  0  0  0  0  0  0  0  0
  149.6333  143.3099  156.1188 H   0  0  0  0  0  0  0  0  0  0  0  0
  149.0454  140.5110  155.6116 H   0  0  0  0  0  0  0  0  0  0  0  0
  146.6844  141.1760  155.5722 H   0  0  0  0  0  0  0  0  0  0  0  0
  147.1121  142.8797  155.5457 H   0  0  0  0  0  0  0  0  0  0  0  0
  147.4574  141.8994  156.9672 H   0  0  0  0  0  0  0  0  0  0  0  0
  148.0914  140.9892  153.3522 H   0  0  0  0  0  0  0  0  0  0  0  0
  147.8586  143.1930  152.6340 H   0  0  0  0  0  0  0  0  0  0  0  0
  148.8361  143.7911  153.9689 H   0  0  0  0  0  0  0  0  0  0  0  0
  150.2918  144.1837  152.0299 H   0  0  0  0  0  0  0  0  0  0  0  0
  148.8908  142.3742  150.5693 H   0  0  0  0  0  0  0  0  0  0  0  0
  150.6339  142.4443  150.3066 H   0  0  0  0  0  0  0  0  0  0  0  0
  149.1810  140.1891  151.4566 H   0  0  0  0  0  0  0  0  0  0  0  0
  150.9198  140.3509  151.2262 H   0  0  0  0  0  0  0  0  0  0  0  0
  150.7141  140.2974  153.6742 H   0  0  0  0  0  0  0  0  0  0  0  0
  152.0228  142.2811  152.5741 H   0  0  0  0  0  0  0  0  0  0  0  0
  151.2576  142.8461  154.0751 H   0  0  0  0  0  0  0  0  0  0  0  0
  1  2  1  0  0  0  0
  1 24  1  0  0  0  0
  1 25  1  0  0  0  0
  1 26  1  0  0  0  0
  2 22  1  0  0  0  0
  2  3  2  0  0  0  0
  3  4  1  0  0  0  0
  4  5  1  0  0  0  0
  4  6  2  0  0  0  0
  5 27  1  0  0  0  0
  5 28  1  0  0  0  0
  5 29  1  0  0  0  0
  6  7  1  0  0  0  0
  6 20  1  0  0  0  0
  7  8  1  0  0  0  0
  7 30  1  0  0  0  0
  7 31  1  0  0  0  0
  8  9  2  0  0  0  0
  8 10  1  0  0  0  0
 10 11  1  0  0  0  0
 10 32  1  0  0  0  0
 11 12  1  0  0  0  0
 11 13  1  0  0  0  0
 11 33  1  0  0  0  0
 12 34  1  0  0  0  0
 12 35  1  0  0  0  0
 12 36  1  0  0  0  0
 13 18  1  0  0  0  0
 13 14  1  0  0  0  0
 13 37  1  0  0  0  0
 14 15  1  0  0  0  0
 14 38  1  0  0  0  0
 14 39  1  0  0  0  0
 15 19  1  0  0  0  0
 15 16  1  0  0  0  0
 15 40  1  0  0  0  0
 16 17  1  0  0  0  0
 16 41  1  0  0  0  0
 16 42  1  0  0  0  0
 17 18  1  0  0  0  0
 17 43  1  0  0  0  0
 17 44  1  0  0  0  0
 18 19  1  0  0  0  0
 18 45  1  0  0  0  0
 19 46  1  0  0  0  0
 19 47  1  0  0  0  0
 20 21  2  0  0  0  0
 20 22  1  0  0  0  0
 22 23  1  0  0  0  0
M  END
> <s_m_source_file>
AV-unprocessed.smi

> <i_m_source_file_index>
2124

> <i_lp_mmshare_version>
43012

> <i_f3d_flags>
0

> <s_epik_input>
W0NIM11jMW5jKFtDSDNdKWMoYyg9TylbbkhdMSlbQ0gyXUMoPU8pW05IXVtDQEhdKFtDSDNdKVtDQEhdKFtDSDJdW0NASF0yMylbQ0BIXShbQ0gyXTMpW0NIMl1bQ0gyXTI=

> <s_epik_cmdline>
J2VwaWtfcHl0aG9uJywgJy1waCcsICc3LjAnLCAnLXRuJywgJzgnLCAnLW1hJywgJzIwMCcsICctbWV0YWxfYmluZGluZycsICctaW1hZScsICc8aW5maWxlLm1hZT4nLCAnLW9tYWUnLCAnPG91dGZpbGUubWFlPic=

> <r_lp_tautomer_probability>
0.839158

> <r_epik_Ionization_Penalty>
0.000383628

> <r_epik_Ionization_Penalty_Charging>
0.00035045

> <r_epik_Ionization_Penalty_Neutral>
3.31781e-05

> <r_epik_State_Penalty>
0.09125

> <r_epik_Charging_Adjusted_Penalty>
0.0916005

> <i_epik_Tot_Q>
0

> <i_epik_Tot_abs_Q>
0

> <r_epik_Metal_State_Penalty>
0.255229

> <b_epik_Metal_Only>
0

> <s_lp_Force_Field>
OPLS_2005

> <r_lp_Energy>
52.6925

> <b_lp_Chiralities_Consistent>
1

> <s_lp_Variant>
AV-unprocessed.smi:2124-4

> <Gold.Version>
5.8.1

> <Gold.Id.Protein>
6NUR|6NUR_protein|mol2

> <Gold.PLP.Fitness>
41.6785

> <Gold.PLP.PLP>
-39.5053

> <Gold.PLP.part.hbond>
-1.0000

> <Gold.PLP.part.metal>
0.0000

> <Gold.PLP.part.buried>
-3.5771

> <Gold.PLP.part.nonpolar>
-33.3921

> <Gold.PLP.part.repulsive>
0.2155

> <Gold.PLP.ligand.clash>
0.0000

> <Gold.PLP.ligand.torsion>
0.4467

> <Gold.PLP.Chemscore.Hbond>
1.0000

> <Gold.PLP.Chemscore.CHOScore>
0.0000

> <Gold.PLP.Chemscore.Metal>
0.0000

> <Gold.Chemscore.Hbonds>
donor molecule, donor type, donor heavy atom, donor atom, acceptor molecule, acceptor atom, score
      L1  H    10    32       P1  8028  1.00

> <Gold.PLP.Chemscore.Internal.Correction>
0.0665

> <Gold.Rescore>
     Score         DG    S(hbond)    S(metal)    S(lipo)     H(rot)  DE(clash)    DE(int)     intcor
     15.21     -17.00       1.62        0.00      88.33       1.65       0.11       1.68       ----

> <Gold.Chemscore.Fitness>
15.2056

> <Gold.Chemscore.DG>
-16.9989

> <Gold.Chemscore.ZeroCoef>
-5.4800

> <Gold.Chemscore.Hbond>
1.6218

> <Gold.Chemscore.Metal>
0.0000

> <Gold.Chemscore.Lipo>
88.3298

> <Gold.Chemscore.Internal_Hbond>
0.0000

> <Gold.Chemscore.DEClash>
0.1091

> <Gold.Chemscore.DEInternal>
1.6841

> <Gold.Chemscore.Rot>
1.6534

> <Gold.Chemscore.Internal.Correction>
   9.000000E+99

> <Gold.Chemscore.Hbonds>
donor molecule, donor type, donor heavy atom, donor atom, acceptor molecule, acceptor atom, score
      L1  H    10    32       P1  8028  0.95
      P1  H  7997  8010       L1    21  0.01

> <Gold.Chemscore.Hbond.Weighted>
-5.4169

> <Gold.Chemscore.Metal.Weighted>
-0.0000

> <Gold.Chemscore.Lipo.Weighted>
-10.3346

> <Gold.Chemscore.Internal_Hbond.Weighted>
0.0000

> <Gold.Chemscore.DEClash.Weighted>
0.1091

> <Gold.Chemscore.DEInternal.Weighted>
1.6841

> <Gold.Chemscore.Rot.Weighted>
4.2326

> <Gold.Chemscore.Internal.Correction.Weighted>
   9.000000E+99

> <Gold.Protein.RotatedTorsions>
[ 6907 6896 6895 6894 ] final  157.80 input  -60.11 | X-H torsion
[ 7974 7965 7964 7962 ] final   14.67 input  175.53 | X-H torsion
[ 8008 7997 7996 7995 ] final   48.52 input   59.86 | X-H torsion
[ 10167 10162 10161 10158 ] final   29.60 input  -65.29 | X-H torsion
[ 10718 10713 10712 10709 ] final   49.73 input   66.30 | X-H torsion
[ 10763 10752 10751 10750 ] final -152.24 input  -60.55 | X-H torsion
[ 11005 11000 10999 10996 ] final  -93.61 input  -57.11 | X-H torsion

> <Gold.Protein.ActiveResidues>
 VAL166  LYS551  ARG553  GLY616  TRP617  ASP618  TYR619  PRO620  LYS621  CYS622 
 ASP623  PHE694  ASN695  SER759  ASP760  ASP761  ALA762  ILE779  LEU786  VAL792 
 PHE793  MET794  SER795  GLU796  ALA797  LYS798  CYS799  TRP800  GLU811  SER814 

> <Gold.Protein.RotatedAtoms>
  152.0098  133.3857  159.4214 H   0  0  0  0  0  0  0  0  0  0  0  0  # atno 6907 bound_to 6896
  150.6901  134.3743  159.5015 H   0  0  0  0  0  0  0  0  0  0  0  0  # atno 6908 bound_to 6896
  152.1502  134.8994  160.0599 H   0  0  0  0  0  0  0  0  0  0  0  0  # atno 6909 bound_to 6896
  146.2299  139.9007  142.8540 H   0  0  0  0  0  0  0  0  0  0  0  0  # atno 7974 bound_to 7965
  155.3870  140.3431  155.4249 H   0  0  0  0  0  0  0  0  0  0  0  0  # atno 8008 bound_to 7997
  156.1579  140.1591  156.8695 H   0  0  0  0  0  0  0  0  0  0  0  0  # atno 8009 bound_to 7997
  154.5112  140.0789  156.7974 H   0  0  0  0  0  0  0  0  0  0  0  0  # atno 8010 bound_to 7997
  140.4751  144.0702  150.6248 H   0  0  0  0  0  0  0  0  0  0  0  0  # atno 10167 bound_to 10162
  157.4815  130.8318  149.8099 H   0  0  0  0  0  0  0  0  0  0  0  0  # atno 10718 bound_to 10713
  154.8006  135.3241  154.7558 H   0  0  0  0  0  0  0  0  0  0  0  0  # atno 10763 bound_to 10752
  153.8227  135.6886  153.4829 H   0  0  0  0  0  0  0  0  0  0  0  0  # atno 10764 bound_to 10752
  153.1721  135.4619  154.9860 H   0  0  0  0  0  0  0  0  0  0  0  0  # atno 10765 bound_to 10752
  141.1492  133.7900  157.0184 H   0  0  0  0  0  0  0  0  0  0  0  0  # atno 11005 bound_to 11000
  145.2326  140.9979  143.3981 LP  0  0  0  0  0  0  0  0  0  0  0  0  # atno 17320 bound_to 7965
  144.9517  139.4075  143.6399 LP  0  0  0  0  0  0  0  0  0  0  0  0  # atno 17321 bound_to 7965
  140.3928  143.2743  152.0040 LP  0  0  0  0  0  0  0  0  0  0  0  0  # atno 17342 bound_to 10162
  139.4824  144.6063  151.7515 LP  0  0  0  0  0  0  0  0  0  0  0  0  # atno 17343 bound_to 10162
  156.0124  130.3827  150.2220 LP  0  0  0  0  0  0  0  0  0  0  0  0  # atno 17370 bound_to 10713
  157.0406  131.0034  151.3284 LP  0  0  0  0  0  0  0  0  0  0  0  0  # atno 17371 bound_to 10713
  140.0832  134.9636  157.1657 LP  0  0  0  0  0  0  0  0  0  0  0  0  # atno 17394 bound_to 11000
  140.3548  134.2559  155.7194 LP  0  0  0  0  0  0  0  0  0  0  0  0  # atno 17395 bound_to 11000

$$$$
