AV-unprocessed.smi:715|AV-procd|sdf|3484|dock9
  -GOLD-   22720 0473D 1   1.00000     0.00000
 Structure written by MMmdl.
 39 40  0  0  0  0  0  0  0  0  1 V2000
  148.7672  142.7500  153.4829 C   0  0  0  0  0  0  0  0  0  0  0  0
  149.2578  141.3915  153.5738 N   0  0  0  0  0  0  0  0  0  0  0  0
  150.4101  140.9311  154.1733 C   0  0  0  0  0  0  0  0  0  0  0  0
  150.4502  139.5756  154.0026 C   0  0  0  0  0  0  0  0  0  0  0  0
  151.4987  138.6052  154.4791 C   0  0  2  0  0  0  0  0  0  0  0  0
  151.6930  137.5669  153.5396 O   0  0  0  0  0  0  0  0  0  0  0  0
  151.0819  137.9738  155.8188 C   0  0  0  0  0  0  0  0  0  0  0  0
  150.7789  138.9988  156.8097 N   0  0  0  0  0  0  0  0  0  0  0  0
  151.6661  139.8870  157.2797 C   0  0  0  0  0  0  0  0  0  0  0  0
  152.8418  139.9217  156.9162 O   0  0  0  0  0  0  0  0  0  0  0  0
  151.1438  140.8910  158.3131 C   0  0  0  0  0  0  0  0  0  0  0  0
  152.0732  142.1065  158.5132 C   0  0  0  0  0  0  0  0  0  0  0  0
  152.0797  142.6843  159.9333 C   0  0  0  0  0  0  0  0  0  0  0  0
  152.6185  144.1114  159.7821 C   0  0  0  0  0  0  0  0  0  0  0  0
  152.3812  144.5095  158.3170 C   0  0  0  0  0  0  0  0  0  0  0  0
  151.6902  143.3134  157.6535 C   0  0  0  0  0  0  0  0  0  0  0  0
  149.2537  139.3016  153.2775 C   0  0  0  0  0  0  0  0  0  0  0  0
  148.5456  140.3892  153.0204 N   0  0  0  0  0  0  0  0  0  0  0  0
  149.3965  143.4156  154.0743 H   0  0  0  0  0  0  0  0  0  0  0  0
  147.7454  142.8012  153.8607 H   0  0  0  0  0  0  0  0  0  0  0  0
  148.7823  143.0775  152.4431 H   0  0  0  0  0  0  0  0  0  0  0  0
  151.1001  141.5985  154.6686 H   0  0  0  0  0  0  0  0  0  0  0  0
  152.4519  139.1206  154.6049 H   0  0  0  0  0  0  0  0  0  0  0  0
  151.2146  137.7804  152.7530 H   0  0  0  0  0  0  0  0  0  0  0  0
  150.1804  137.3768  155.6686 H   0  0  0  0  0  0  0  0  0  0  0  0
  151.8519  137.2963  156.1923 H   0  0  0  0  0  0  0  0  0  0  0  0
  149.8289  139.0412  157.1496 H   0  0  0  0  0  0  0  0  0  0  0  0
  150.1628  141.2322  157.9812 H   0  0  0  0  0  0  0  0  0  0  0  0
  150.9867  140.3858  159.2676 H   0  0  0  0  0  0  0  0  0  0  0  0
  153.0957  141.8261  158.2529 H   0  0  0  0  0  0  0  0  0  0  0  0
  151.0613  142.7213  160.3232 H   0  0  0  0  0  0  0  0  0  0  0  0
  152.6759  142.0896  160.6263 H   0  0  0  0  0  0  0  0  0  0  0  0
  152.1279  144.7956  160.4755 H   0  0  0  0  0  0  0  0  0  0  0  0
  153.6866  144.1350  160.0018 H   0  0  0  0  0  0  0  0  0  0  0  0
  151.7799  145.4153  158.2307 H   0  0  0  0  0  0  0  0  0  0  0  0
  153.3375  144.7062  157.8304 H   0  0  0  0  0  0  0  0  0  0  0  0
  151.9813  143.1919  156.6095 H   0  0  0  0  0  0  0  0  0  0  0  0
  150.6095  143.4605  157.6792 H   0  0  0  0  0  0  0  0  0  0  0  0
  148.8818  138.3479  152.9330 H   0  0  0  0  0  0  0  0  0  0  0  0
  1  2  1  0  0  0  0
  1 19  1  0  0  0  0
  1 20  1  0  0  0  0
  1 21  1  0  0  0  0
  2 18  1  0  0  0  0
  2  3  1  0  0  0  0
  3  4  2  0  0  0  0
  3 22  1  0  0  0  0
  4  5  1  0  0  0  0
  4 17  1  0  0  0  0
  5  6  1  0  0  0  0
  5  7  1  0  0  0  0
  5 23  1  0  0  0  0
  6 24  1  0  0  0  0
  7  8  1  0  0  0  0
  7 25  1  0  0  0  0
  7 26  1  0  0  0  0
  8  9  1  0  0  0  0
  8 27  1  0  0  0  0
  9 10  2  0  0  0  0
  9 11  1  0  0  0  0
 11 12  1  0  0  0  0
 11 28  1  0  0  0  0
 11 29  1  0  0  0  0
 12 16  1  0  0  0  0
 12 13  1  0  0  0  0
 12 30  1  0  0  0  0
 13 14  1  0  0  0  0
 13 31  1  0  0  0  0
 13 32  1  0  0  0  0
 14 15  1  0  0  0  0
 14 33  1  0  0  0  0
 14 34  1  0  0  0  0
 15 16  1  0  0  0  0
 15 35  1  0  0  0  0
 15 36  1  0  0  0  0
 16 37  1  0  0  0  0
 16 38  1  0  0  0  0
 17 18  2  0  0  0  0
 17 39  1  0  0  0  0
M  END
> <s_m_source_file>
AV-unprocessed.smi

> <i_m_source_file_index>
715

> <i_lp_mmshare_version>
43012

> <i_f3d_flags>
0

> <s_epik_input>
W0NIM11uMVtjSF1jKFtjSF1uMSlbQ0BIXShbT0hdKVtDSDJdW05IXUMoPU8pW0NIMl1bQ0hdMltDSDJdW0NIMl1bQ0gyXVtDSDJdMg==

> <s_epik_cmdline>
J2VwaWtfcHl0aG9uJywgJy1waCcsICc3LjAnLCAnLXRuJywgJzgnLCAnLW1hJywgJzIwMCcsICctbWV0YWxfYmluZGluZycsICctaW1hZScsICc8aW5maWxlLm1hZT4nLCAnLW9tYWUnLCAnPG91dGZpbGUubWFlPic=

> <r_lp_tautomer_probability>
1

> <r_epik_Ionization_Penalty>
4.45533e-05

> <r_epik_Ionization_Penalty_Charging>
0

> <r_epik_Ionization_Penalty_Neutral>
4.45533e-05

> <r_epik_State_Penalty>
-0

> <r_epik_Charging_Adjusted_Penalty>
0

> <i_epik_Tot_Q>
0

> <i_epik_Tot_abs_Q>
0

> <r_epik_Metal_State_Penalty>
-0

> <b_epik_Metal_Only>
0

> <s_lp_Force_Field>
OPLS_2005

> <r_lp_Energy>
19.3798

> <b_lp_Chiralities_Consistent>
1

> <s_lp_Variant>
AV-unprocessed.smi:715-1

> <Gold.Version>
5.8.1

> <Gold.Id.Protein>
6NUR|6NUR_protein|mol2

> <Gold.PLP.Fitness>
45.6252

> <Gold.PLP.PLP>
-38.5455

> <Gold.PLP.part.hbond>
-2.9725

> <Gold.PLP.part.metal>
0.0000

> <Gold.PLP.part.buried>
0.3262

> <Gold.PLP.part.nonpolar>
-34.9650

> <Gold.PLP.part.repulsive>
0.1860

> <Gold.PLP.ligand.clash>
0.0000

> <Gold.PLP.ligand.torsion>
1.3372

> <Gold.PLP.Chemscore.Hbond>
2.2457

> <Gold.PLP.Chemscore.CHOScore>
1.0000

> <Gold.PLP.Chemscore.Metal>
0.0000

> <Gold.Chemscore.Hbonds>
donor molecule, donor type, donor heavy atom, donor atom, acceptor molecule, acceptor atom, score
      L1  H     6    24       P1  7949  0.10
      P1  H  7997  8008       L1    10  1.00
      P1  H 10752 10763       L1     6  0.21
      L1  C    17    39       P1  7948  1.00

> <Gold.PLP.Chemscore.Internal.Correction>
0.0169

> <Gold.Rescore>
     Score         DG    S(hbond)    S(metal)    S(lipo)     H(rot)  DE(clash)    DE(int)     intcor
     16.91     -18.10       2.05        0.00      99.40       2.29       0.12       1.07       ----

> <Gold.Chemscore.Fitness>
16.9120

> <Gold.Chemscore.DG>
-18.0972

> <Gold.Chemscore.ZeroCoef>
-5.4800

> <Gold.Chemscore.Hbond>
2.0482

> <Gold.Chemscore.Metal>
0.0000

> <Gold.Chemscore.Lipo>
99.4017

> <Gold.Chemscore.Internal_Hbond>
0.0000

> <Gold.Chemscore.DEClash>
0.1201

> <Gold.Chemscore.DEInternal>
1.0651

> <Gold.Chemscore.Rot>
2.2866

> <Gold.Chemscore.Internal.Correction>
   9.000000E+99

> <Gold.Chemscore.Hbonds>
donor molecule, donor type, donor heavy atom, donor atom, acceptor molecule, acceptor atom, score
      L1  H     6    24       P1  7949  0.06
      P1  H  7997  8008       L1    10  0.96
      P1  H 10752 10763       L1     6  0.22

> <Gold.Chemscore.Hbond.Weighted>
-6.8410

> <Gold.Chemscore.Metal.Weighted>
-0.0000

> <Gold.Chemscore.Lipo.Weighted>
-11.6300

> <Gold.Chemscore.Internal_Hbond.Weighted>
0.0000

> <Gold.Chemscore.DEClash.Weighted>
0.1201

> <Gold.Chemscore.DEInternal.Weighted>
1.0651

> <Gold.Chemscore.Rot.Weighted>
5.8538

> <Gold.Chemscore.Internal.Correction.Weighted>
   9.000000E+99

> <Gold.Protein.RotatedTorsions>
[ 6907 6896 6895 6894 ] final  106.79 input  -60.11 | X-H torsion
[ 7974 7965 7964 7962 ] final  -45.46 input  175.53 | X-H torsion
[ 8008 7997 7996 7995 ] final  -55.86 input   59.86 | X-H torsion
[ 10167 10162 10161 10158 ] final -120.01 input  -65.29 | X-H torsion
[ 10718 10713 10712 10709 ] final   15.43 input   66.30 | X-H torsion
[ 10763 10752 10751 10750 ] final   31.80 input  -60.55 | X-H torsion
[ 11005 11000 10999 10996 ] final   61.42 input  -57.11 | X-H torsion

> <Gold.Protein.ActiveResidues>
 VAL166  LYS551  ARG553  GLY616  TRP617  ASP618  TYR619  PRO620  LYS621  CYS622 
 ASP623  PHE694  ASN695  SER759  ASP760  ASP761  ALA762  ILE779  LEU786  VAL792 
 PHE793  MET794  SER795  GLU796  ALA797  LYS798  CYS799  TRP800  GLU811  SER814 

> <Gold.Protein.RotatedAtoms>
  152.5180  133.9329  159.7589 H   0  0  0  0  0  0  0  0  0  0  0  0  # atno 6907 bound_to 6896
  150.9676  133.6370  159.2750 H   0  0  0  0  0  0  0  0  0  0  0  0  # atno 6908 bound_to 6896
  151.3593  135.0906  159.9482 H   0  0  0  0  0  0  0  0  0  0  0  0  # atno 6909 bound_to 6896
  145.9819  140.7275  142.9359 H   0  0  0  0  0  0  0  0  0  0  0  0  # atno 7974 bound_to 7965
  154.4209  140.1143  156.5544 H   0  0  0  0  0  0  0  0  0  0  0  0  # atno 8008 bound_to 7997
  155.6376  140.3496  155.4685 H   0  0  0  0  0  0  0  0  0  0  0  0  # atno 8009 bound_to 7997
  155.9897  140.1177  157.0639 H   0  0  0  0  0  0  0  0  0  0  0  0  # atno 8010 bound_to 7997
  140.0405  143.5158  152.2132 H   0  0  0  0  0  0  0  0  0  0  0  0  # atno 10167 bound_to 10162
  157.0535  130.6279  149.5772 H   0  0  0  0  0  0  0  0  0  0  0  0  # atno 10718 bound_to 10713
  153.0296  135.6429  154.1256 H   0  0  0  0  0  0  0  0  0  0  0  0  # atno 10763 bound_to 10752
  154.0980  135.2861  155.3259 H   0  0  0  0  0  0  0  0  0  0  0  0  # atno 10764 bound_to 10752
  154.6419  135.5457  153.7862 H   0  0  0  0  0  0  0  0  0  0  0  0  # atno 10765 bound_to 10752
  140.0162  134.6221  155.9706 H   0  0  0  0  0  0  0  0  0  0  0  0  # atno 11005 bound_to 11000
  144.6864  140.2922  143.7276 LP  0  0  0  0  0  0  0  0  0  0  0  0  # atno 17320 bound_to 7965
  145.7758  139.1873  143.2186 LP  0  0  0  0  0  0  0  0  0  0  0  0  # atno 17321 bound_to 7965
  139.6017  144.7584  151.3156 LP  0  0  0  0  0  0  0  0  0  0  0  0  # atno 17342 bound_to 10162
  140.7262  143.6996  150.7856 LP  0  0  0  0  0  0  0  0  0  0  0  0  # atno 17343 bound_to 10162
  156.0000  130.5077  150.7628 LP  0  0  0  0  0  0  0  0  0  0  0  0  # atno 17370 bound_to 10713
  157.5012  131.0918  151.0312 LP  0  0  0  0  0  0  0  0  0  0  0  0  # atno 17371 bound_to 10713
  141.1744  133.6539  156.4773 LP  0  0  0  0  0  0  0  0  0  0  0  0  # atno 17394 bound_to 11000
  140.4467  134.6966  157.5019 LP  0  0  0  0  0  0  0  0  0  0  0  0  # atno 17395 bound_to 11000

$$$$
