AV-unprocessed.smi:1005|AV-procd|sdf|4376|dock4
  -GOLD-   22720 2293D 1   1.00000     0.00000
 Structure written by MMmdl.
 57 59  0  0  0  0  0  0  0  0  3 V2000
  152.1655  144.0875  160.9767 C   0  0  0  0  0  0  0  0  0  0  0  0
  151.9688  143.1602  159.7895 C   0  0  0  0  0  0  0  0  0  0  0  0
  151.0456  143.5341  158.7874 C   0  0  0  0  0  0  0  0  0  0  0  0
  150.8919  142.6682  157.7114 C   0  0  0  0  0  0  0  0  0  0  0  0
  150.0786  142.7531  156.5794 N   0  3  0  0  0  0  0  0  0  0  0  0
  150.2768  141.6586  155.7942 C   0  0  0  0  0  0  0  0  0  0  0  0
  151.2059  140.8759  156.4069 N   0  0  0  0  0  0  0  0  0  0  0  0
  151.7690  139.5876  155.9791 C   0  0  0  0  0  0  0  0  0  0  0  0
  150.7596  138.7169  155.2046 C   0  0  2  0  0  0  0  0  0  0  0  0
  150.6310  139.2727  153.9129 O   0  0  0  0  0  0  0  0  0  0  0  0
  149.3603  138.6697  155.8557 C   0  0  0  0  0  0  0  0  0  0  0  0
  149.0521  137.4532  156.6086 N   0  0  0  0  0  0  0  0  0  0  0  0
  149.3152  137.6481  158.0303 C   0  0  0  0  0  0  0  0  0  0  0  0
  149.0045  136.3862  158.8504 C   0  0  0  0  0  0  0  0  0  0  0  0
  149.7635  135.2955  158.3408 O   0  0  0  0  0  0  0  0  0  0  0  0
  149.4993  135.0256  156.9661 C   0  0  2  0  0  0  0  0  0  0  0  0
  150.3787  133.8369  156.5399 C   0  0  0  0  0  0  0  0  0  0  0  0
  149.7709  133.0464  155.4391 N   0  3  0  0  0  0  0  0  0  0  0  0
  149.5825  133.8232  154.1921 C   0  0  0  0  0  0  0  0  0  0  0  0
  150.5012  131.7843  155.1882 C   0  0  0  0  0  0  0  0  0  0  0  0
  149.8107  136.2932  156.1430 C   0  0  0  0  0  0  0  0  0  0  0  0
  151.6149  141.4634  157.6106 C   0  0  0  0  0  0  0  0  0  0  0  0
  152.5255  141.0784  158.5924 C   0  0  0  0  0  0  0  0  0  0  0  0
  152.7007  141.9485  159.6921 C   0  0  0  0  0  0  0  0  0  0  0  0
  153.6952  141.5584  160.7723 C   0  0  0  0  0  0  0  0  0  0  0  0
  151.4894  144.9419  160.9318 H   0  0  0  0  0  0  0  0  0  0  0  0
  153.1863  144.4702  160.9965 H   0  0  0  0  0  0  0  0  0  0  0  0
  151.9740  143.5612  161.9121 H   0  0  0  0  0  0  0  0  0  0  0  0
  150.4859  144.4557  158.8541 H   0  0  0  0  0  0  0  0  0  0  0  0
  149.7855  141.4489  154.8548 H   0  0  0  0  0  0  0  0  0  0  0  0
  152.6738  139.7622  155.3964 H   0  0  0  0  0  0  0  0  0  0  0  0
  152.0880  139.0678  156.8838 H   0  0  0  0  0  0  0  0  0  0  0  0
  151.1768  137.7155  155.1051 H   0  0  0  0  0  0  0  0  0  0  0  0
  150.6473  138.5695  153.2816 H   0  0  0  0  0  0  0  0  0  0  0  0
  149.2357  139.5257  156.5191 H   0  0  0  0  0  0  0  0  0  0  0  0
  148.6202  138.8002  155.0644 H   0  0  0  0  0  0  0  0  0  0  0  0
  150.3600  137.9259  158.1793 H   0  0  0  0  0  0  0  0  0  0  0  0
  148.7161  138.4776  158.4082 H   0  0  0  0  0  0  0  0  0  0  0  0
  149.2618  136.5416  159.8983 H   0  0  0  0  0  0  0  0  0  0  0  0
  147.9399  136.1500  158.8120 H   0  0  0  0  0  0  0  0  0  0  0  0
  148.4441  134.7789  156.8433 H   0  0  0  0  0  0  0  0  0  0  0  0
  151.3701  134.1787  156.2386 H   0  0  0  0  0  0  0  0  0  0  0  0
  150.5271  133.1951  157.4098 H   0  0  0  0  0  0  0  0  0  0  0  0
  150.5391  134.1709  153.7999 H   0  0  0  0  0  0  0  0  0  0  0  0
  148.9433  134.6906  154.3521 H   0  0  0  0  0  0  0  0  0  0  0  0
  149.1064  133.2089  153.4271 H   0  0  0  0  0  0  0  0  0  0  0  0
  151.5180  131.9822  154.8460 H   0  0  0  0  0  0  0  0  0  0  0  0
  149.9934  131.1893  154.4282 H   0  0  0  0  0  0  0  0  0  0  0  0
  150.5556  131.1802  156.0947 H   0  0  0  0  0  0  0  0  0  0  0  0
  149.5856  136.0895  155.0970 H   0  0  0  0  0  0  0  0  0  0  0  0
  150.8794  136.5074  156.1960 H   0  0  0  0  0  0  0  0  0  0  0  0
  153.0858  140.1581  158.5204 H   0  0  0  0  0  0  0  0  0  0  0  0
  154.2217  140.6383  160.5170 H   0  0  0  0  0  0  0  0  0  0  0  0
  153.1838  141.3983  161.7216 H   0  0  0  0  0  0  0  0  0  0  0  0
  154.4427  142.3405  160.9082 H   0  0  0  0  0  0  0  0  0  0  0  0
  148.8513  132.7754  155.7589 H   0  0  0  0  0  0  0  0  0  0  0  0
  149.4340  143.5011  156.3572 H   0  0  0  0  0  0  0  0  0  0  0  0
  1  2  1  0  0  0  0
  1 26  1  0  0  0  0
  1 27  1  0  0  0  0
  1 28  1  0  0  0  0
  2 24  1  0  0  0  0
  2  3  2  0  0  0  0
  3  4  1  0  0  0  0
  3 29  1  0  0  0  0
  4 22  2  0  0  0  0
  4  5  1  0  0  0  0
  5  6  2  0  0  0  0
  5 57  1  0  0  0  0
  6  7  1  0  0  0  0
  6 30  1  0  0  0  0
  7  8  1  0  0  0  0
  7 22  1  0  0  0  0
  8  9  1  0  0  0  0
  8 31  1  0  0  0  0
  8 32  1  0  0  0  0
  9 10  1  0  0  0  0
  9 11  1  0  0  0  0
  9 33  1  0  0  0  0
 10 34  1  0  0  0  0
 11 12  1  0  0  0  0
 11 35  1  0  0  0  0
 11 36  1  0  0  0  0
 12 21  1  0  0  0  0
 12 13  1  0  0  0  0
 13 14  1  0  0  0  0
 13 37  1  0  0  0  0
 13 38  1  0  0  0  0
 14 15  1  0  0  0  0
 14 39  1  0  0  0  0
 14 40  1  0  0  0  0
 15 16  1  0  0  0  0
 16 17  1  0  0  0  0
 16 21  1  0  0  0  0
 16 41  1  0  0  0  0
 17 18  1  0  0  0  0
 17 42  1  0  0  0  0
 17 43  1  0  0  0  0
 18 19  1  0  0  0  0
 18 20  1  0  0  0  0
 18 56  1  0  0  0  0
 19 44  1  0  0  0  0
 19 45  1  0  0  0  0
 19 46  1  0  0  0  0
 20 47  1  0  0  0  0
 20 48  1  0  0  0  0
 20 49  1  0  0  0  0
 21 50  1  0  0  0  0
 21 51  1  0  0  0  0
 22 23  1  0  0  0  0
 23 24  2  0  0  0  0
 23 52  1  0  0  0  0
 24 25  1  0  0  0  0
 25 53  1  0  0  0  0
 25 54  1  0  0  0  0
 25 55  1  0  0  0  0
M  CHG  1   5   1
M  CHG  1  18   1
M  END
> <s_m_source_file>
AV-unprocessed.smi

> <i_m_source_file_index>
1005

> <i_lp_mmshare_version>
43012

> <i_f3d_flags>
0

> <s_epik_input>
W0NIM11jKFtjSF0xKWMoW0NIM10pW2NIXWMoYzEyKW4oW2NIXW4yKVtDSDJdW0NASF0oW09IXSlbQ0gyXU4zW0NIMl1bQ0gyXU9bQ0BIXShbQ0gyXTMpW0NIMl1OKFtDSDNdKVtDSDNd

> <s_epik_cmdline>
J2VwaWtfcHl0aG9uJywgJy1waCcsICc3LjAnLCAnLXRuJywgJzgnLCAnLW1hJywgJzIwMCcsICctbWV0YWxfYmluZGluZycsICctaW1hZScsICc8aW5maWxlLm1hZT4nLCAnLW9tYWUnLCAnPG91dGZpbGUubWFlPic=

> <r_epik_Ionization_Penalty>
1.3281

> <r_epik_Ionization_Penalty_Charging>
1.21988

> <r_epik_Ionization_Penalty_Neutral>
0.10822

> <r_epik_State_Penalty>
1.32886

> <r_epik_Charging_Adjusted_Penalty>
2.54875

> <i_epik_Tot_Q>
2

> <i_epik_Tot_abs_Q>
2

> <r_epik_Metal_State_Penalty>
5.33912

> <b_epik_Metal_Only>
0

> <s_lp_Force_Field>
OPLS_2005

> <r_lp_Energy>
45.8235

> <b_lp_Chiralities_Consistent>
1

> <s_lp_Variant>
AV-unprocessed.smi:1005-15

> <Gold.Version>
5.8.1

> <Gold.Id.Protein>
6NUR|6NUR_protein|mol2

> <Gold.PLP.Fitness>
54.1174

> <Gold.PLP.PLP>
-45.8704

> <Gold.PLP.part.hbond>
-3.9341

> <Gold.PLP.part.metal>
0.0000

> <Gold.PLP.part.buried>
-5.5637

> <Gold.PLP.part.nonpolar>
-37.0889

> <Gold.PLP.part.repulsive>
0.0642

> <Gold.PLP.ligand.clash>
0.0000

> <Gold.PLP.ligand.torsion>
1.9127

> <Gold.PLP.Chemscore.Hbond>
4.0000

> <Gold.PLP.Chemscore.CHOScore>
0.0000

> <Gold.PLP.Chemscore.Metal>
0.0000

> <Gold.Chemscore.Hbonds>
donor molecule, donor type, donor heavy atom, donor atom, acceptor molecule, acceptor atom, score
      L1  H     5    57       P1  8028  1.89
      P1  H  6896  6908       L1    15  1.00
      P1  H  7989  7998       L1    10  1.00

> <Gold.PLP.Chemscore.Internal.Correction>
0.0725

> <Gold.Rescore>
     Score         DG    S(hbond)    S(metal)    S(lipo)     H(rot)  DE(clash)    DE(int)     intcor
     20.07     -22.91       2.90        0.00     120.70       2.49       0.29       2.54       ----

> <Gold.Chemscore.Fitness>
20.0746

> <Gold.Chemscore.DG>
-22.9063

> <Gold.Chemscore.ZeroCoef>
-5.4800

> <Gold.Chemscore.Hbond>
2.8978

> <Gold.Chemscore.Metal>
0.0000

> <Gold.Chemscore.Lipo>
120.6957

> <Gold.Chemscore.Internal_Hbond>
0.0000

> <Gold.Chemscore.DEClash>
0.2924

> <Gold.Chemscore.DEInternal>
2.5393

> <Gold.Chemscore.Rot>
2.4897

> <Gold.Chemscore.Internal.Correction>
   9.000000E+99

> <Gold.Chemscore.Hbonds>
donor molecule, donor type, donor heavy atom, donor atom, acceptor molecule, acceptor atom, score
      L1  H     5    57       P1  8028  0.89
      P1  H  6896  6908       L1    15  0.92
      P1  H  7989  7998       L1    10  0.87

> <Gold.Chemscore.Hbond.Weighted>
-9.6786

> <Gold.Chemscore.Metal.Weighted>
-0.0000

> <Gold.Chemscore.Lipo.Weighted>
-14.1214

> <Gold.Chemscore.Internal_Hbond.Weighted>
0.0000

> <Gold.Chemscore.DEClash.Weighted>
0.2924

> <Gold.Chemscore.DEInternal.Weighted>
2.5393

> <Gold.Chemscore.Rot.Weighted>
6.3737

> <Gold.Chemscore.Internal.Correction.Weighted>
   9.000000E+99

> <Gold.Protein.RotatedTorsions>
[ 6907 6896 6895 6894 ] final  154.53 input  -60.11 | X-H torsion
[ 7974 7965 7964 7962 ] final  172.73 input  175.53 | X-H torsion
[ 8008 7997 7996 7995 ] final  -15.53 input   59.86 | X-H torsion
[ 10167 10162 10161 10158 ] final   24.00 input  -65.29 | X-H torsion
[ 10718 10713 10712 10709 ] final   72.93 input   66.30 | X-H torsion
[ 10763 10752 10751 10750 ] final   99.14 input  -60.55 | X-H torsion
[ 11005 11000 10999 10996 ] final -169.34 input  -57.11 | X-H torsion

> <Gold.Protein.ActiveResidues>
 VAL166  LYS551  ARG553  GLY616  TRP617  ASP618  TYR619  PRO620  LYS621  CYS622 
 ASP623  PHE694  ASN695  SER759  ASP760  ASP761  ALA762  ILE779  LEU786  VAL792 
 PHE793  MET794  SER795  GLU796  ALA797  LYS798  CYS799  TRP800  GLU811  SER814 

> <Gold.Protein.RotatedAtoms>
  152.0572  133.4045  159.4401 H   0  0  0  0  0  0  0  0  0  0  0  0  # atno 6907 bound_to 6896
  150.6867  134.3242  159.4808 H   0  0  0  0  0  0  0  0  0  0  0  0  # atno 6908 bound_to 6896
  152.1058  134.9309  160.0619 H   0  0  0  0  0  0  0  0  0  0  0  0  # atno 6909 bound_to 6896
  144.7261  139.9542  143.6433 H   0  0  0  0  0  0  0  0  0  0  0  0  # atno 7974 bound_to 7965
  154.5123  140.2194  155.9133 H   0  0  0  0  0  0  0  0  0  0  0  0  # atno 8008 bound_to 7997
  156.1566  140.3150  155.8703 H   0  0  0  0  0  0  0  0  0  0  0  0  # atno 8009 bound_to 7997
  155.3833  140.0474  157.3033 H   0  0  0  0  0  0  0  0  0  0  0  0  # atno 8010 bound_to 7997
  140.5224  143.9981  150.6423 H   0  0  0  0  0  0  0  0  0  0  0  0  # atno 10167 bound_to 10162
  157.6524  130.9603  150.0998 H   0  0  0  0  0  0  0  0  0  0  0  0  # atno 10718 bound_to 10713
  153.2977  135.4124  155.1225 H   0  0  0  0  0  0  0  0  0  0  0  0  # atno 10763 bound_to 10752
  154.8540  135.3534  154.5894 H   0  0  0  0  0  0  0  0  0  0  0  0  # atno 10764 bound_to 10752
  153.6318  135.7060  153.5331 H   0  0  0  0  0  0  0  0  0  0  0  0  # atno 10765 bound_to 10752
  140.5319  134.5608  157.5077 H   0  0  0  0  0  0  0  0  0  0  0  0  # atno 11005 bound_to 11000
  146.0687  139.3677  143.0536 LP  0  0  0  0  0  0  0  0  0  0  0  0  # atno 17320 bound_to 7965
  145.7996  140.9777  143.1006 LP  0  0  0  0  0  0  0  0  0  0  0  0  # atno 17321 bound_to 7965
  140.3333  143.3064  152.0664 LP  0  0  0  0  0  0  0  0  0  0  0  0  # atno 17342 bound_to 10162
  139.4927  144.6494  151.6709 LP  0  0  0  0  0  0  0  0  0  0  0  0  # atno 17343 bound_to 10162
  156.1924  130.3655  149.8893 LP  0  0  0  0  0  0  0  0  0  0  0  0  # atno 17370 bound_to 10713
  156.6818  130.8861  151.3577 LP  0  0  0  0  0  0  0  0  0  0  0  0  # atno 17371 bound_to 10713
  139.9550  134.7551  156.0363 LP  0  0  0  0  0  0  0  0  0  0  0  0  # atno 17394 bound_to 11000
  141.1277  133.6595  156.3379 LP  0  0  0  0  0  0  0  0  0  0  0  0  # atno 17395 bound_to 11000

$$$$
