AV-unprocessed.smi:3155|AV-procd|sdf|12027|dock1
  -GOLD-   2272017443D 1   1.00000     0.00000
 Structure written by MMmdl.
 37 38  0  0  0  0  0  0  0  0  1 V2000
  153.2572  139.3165  159.4030 C   0  0  0  0  0  0  0  0  0  0  0  0
  152.6613  140.6147  158.8402 C   0  0  2  0  0  0  0  0  0  0  0  0
  152.0811  141.4857  159.9794 C   0  0  0  0  0  0  0  0  0  0  0  0
  151.7578  142.8442  159.5794 N   0  0  0  0  0  0  0  0  0  0  0  0
  152.6214  143.8667  159.2470 C   0  0  0  0  0  0  0  0  0  0  0  0
  151.8611  144.9542  158.9262 C   0  0  0  0  0  0  0  0  0  0  0  0
  150.5252  144.4880  159.0758 C   0  0  0  0  0  0  0  0  0  0  0  0
  150.4665  143.2226  159.4578 N   0  0  0  0  0  0  0  0  0  0  0  0
  151.6205  140.2280  157.8914 N   0  0  0  0  0  0  0  0  0  0  0  0
  151.1441  141.3482  157.0699 C   0  0  0  0  0  0  0  0  0  0  0  0
  150.6129  140.8681  155.7152 C   0  0  0  0  0  0  0  0  0  0  0  0
  151.3912  140.3163  154.9369 O   0  0  0  0  0  0  0  0  0  0  0  0
  149.3116  141.0658  155.4141 N   0  0  0  0  0  0  0  0  0  0  0  0
  148.3624  141.7017  156.3255 C   0  0  0  0  0  0  0  0  0  0  0  0
  146.9817  141.4743  155.7101 C   0  0  0  0  0  0  0  0  0  0  0  0
  147.2602  141.3165  154.2220 C   0  0  0  0  0  0  0  0  0  0  0  0
  148.6502  140.6834  154.1668 C   0  0  0  0  0  0  0  0  0  0  0  0
  154.0617  139.5296  160.1075 H   0  0  0  0  0  0  0  0  0  0  0  0
  153.6757  138.6972  158.6086 H   0  0  0  0  0  0  0  0  0  0  0  0
  152.5064  138.7243  159.9273 H   0  0  0  0  0  0  0  0  0  0  0  0
  153.4684  141.1453  158.3318 H   0  0  0  0  0  0  0  0  0  0  0  0
  151.1867  141.0208  160.3970 H   0  0  0  0  0  0  0  0  0  0  0  0
  152.8011  141.5511  160.7964 H   0  0  0  0  0  0  0  0  0  0  0  0
  153.6937  143.7389  159.2728 H   0  0  0  0  0  0  0  0  0  0  0  0
  152.2061  145.9324  158.6258 H   0  0  0  0  0  0  0  0  0  0  0  0
  149.6029  145.0268  158.9160 H   0  0  0  0  0  0  0  0  0  0  0  0
  150.8668  139.7699  158.3829 H   0  0  0  0  0  0  0  0  0  0  0  0
  150.3739  141.9133  157.5920 H   0  0  0  0  0  0  0  0  0  0  0  0
  151.9674  142.0413  156.8899 H   0  0  0  0  0  0  0  0  0  0  0  0
  148.4193  141.2880  157.3337 H   0  0  0  0  0  0  0  0  0  0  0  0
  148.5865  142.7678  156.3831 H   0  0  0  0  0  0  0  0  0  0  0  0
  146.5556  140.5494  156.1010 H   0  0  0  0  0  0  0  0  0  0  0  0
  146.2827  142.2824  155.9277 H   0  0  0  0  0  0  0  0  0  0  0  0
  146.5039  140.7214  153.7097 H   0  0  0  0  0  0  0  0  0  0  0  0
  147.2875  142.2998  153.7506 H   0  0  0  0  0  0  0  0  0  0  0  0
  149.1970  141.0240  153.2872 H   0  0  0  0  0  0  0  0  0  0  0  0
  148.5713  139.5962  154.1232 H   0  0  0  0  0  0  0  0  0  0  0  0
  1  2  1  0  0  0  0
  1 18  1  0  0  0  0
  1 19  1  0  0  0  0
  1 20  1  0  0  0  0
  2  3  1  0  0  0  0
  2  9  1  0  0  0  0
  2 21  1  0  0  0  0
  3  4  1  0  0  0  0
  3 22  1  0  0  0  0
  3 23  1  0  0  0  0
  4  8  1  0  0  0  0
  4  5  1  0  0  0  0
  5  6  2  0  0  0  0
  5 24  1  0  0  0  0
  6  7  1  0  0  0  0
  6 25  1  0  0  0  0
  7  8  2  0  0  0  0
  7 26  1  0  0  0  0
  9 10  1  0  0  0  0
  9 27  1  0  0  0  0
 10 11  1  0  0  0  0
 10 28  1  0  0  0  0
 10 29  1  0  0  0  0
 11 12  2  0  0  0  0
 11 13  1  0  0  0  0
 13 17  1  0  0  0  0
 13 14  1  0  0  0  0
 14 15  1  0  0  0  0
 14 30  1  0  0  0  0
 14 31  1  0  0  0  0
 15 16  1  0  0  0  0
 15 32  1  0  0  0  0
 15 33  1  0  0  0  0
 16 17  1  0  0  0  0
 16 34  1  0  0  0  0
 16 35  1  0  0  0  0
 17 36  1  0  0  0  0
 17 37  1  0  0  0  0
M  END
> <s_m_source_file>
AV-unprocessed.smi

> <i_m_source_file_index>
3155

> <i_lp_mmshare_version>
43012

> <i_f3d_flags>
0

> <s_epik_input>
bjFbY0hdW2NIXVtjSF1uMVtDSDJdW0NAQEhdKFtDSDNdKVtOSF1bQ0gyXUMoPU8pTjJbQ0gyXVtDSDJdW0NIMl1bQ0gyXTI=

> <s_epik_cmdline>
J2VwaWtfcHl0aG9uJywgJy1waCcsICc3LjAnLCAnLXRuJywgJzgnLCAnLW1hJywgJzIwMCcsICctbWV0YWxfYmluZGluZycsICctaW1hZScsICc8aW5maWxlLm1hZT4nLCAnLW9tYWUnLCAnPG91dGZpbGUubWFlPic=

> <r_lp_tautomer_probability>
1

> <r_epik_Ionization_Penalty>
1.00455

> <r_epik_Ionization_Penalty_Charging>
0

> <r_epik_Ionization_Penalty_Neutral>
1.00455

> <r_epik_State_Penalty>
1.05336

> <r_epik_Charging_Adjusted_Penalty>
1.05336

> <i_epik_Tot_Q>
0

> <i_epik_Tot_abs_Q>
0

> <r_epik_Metal_State_Penalty>
1.05331

> <b_epik_Metal_Only>
0

> <s_lp_Force_Field>
OPLS_2005

> <r_lp_Energy>
30.8586

> <b_lp_Chiralities_Consistent>
1

> <s_lp_Variant>
AV-unprocessed.smi:3155-3

> <Gold.Version>
5.8.1

> <Gold.Id.Protein>
6NUR|6NUR_protein|mol2

> <Gold.PLP.Fitness>
41.9975

> <Gold.PLP.PLP>
-36.7357

> <Gold.PLP.part.hbond>
-1.0000

> <Gold.PLP.part.metal>
0.0000

> <Gold.PLP.part.buried>
-1.4512

> <Gold.PLP.part.nonpolar>
-34.0122

> <Gold.PLP.part.repulsive>
0.1448

> <Gold.PLP.ligand.clash>
0.0000

> <Gold.PLP.ligand.torsion>
0.4301

> <Gold.PLP.Chemscore.Hbond>
1.0000

> <Gold.PLP.Chemscore.CHOScore>
1.0138

> <Gold.PLP.Chemscore.Metal>
0.0000

> <Gold.Chemscore.Hbonds>
donor molecule, donor type, donor heavy atom, donor atom, acceptor molecule, acceptor atom, score
      P1  H  7989  7998       L1    12  1.00
      L1  C     7    26       P1  8029  0.99

> <Gold.PLP.Chemscore.Internal.Correction>
0.0805

> <Gold.Rescore>
     Score         DG    S(hbond)    S(metal)    S(lipo)     H(rot)  DE(clash)    DE(int)     intcor
     13.68     -14.32       0.97        0.00      86.46       1.77       0.07       0.56       ----

> <Gold.Chemscore.Fitness>
13.6848

> <Gold.Chemscore.DG>
-14.3173

> <Gold.Chemscore.ZeroCoef>
-5.4800

> <Gold.Chemscore.Hbond>
0.9734

> <Gold.Chemscore.Metal>
0.0000

> <Gold.Chemscore.Lipo>
86.4579

> <Gold.Chemscore.Internal_Hbond>
0.0000

> <Gold.Chemscore.DEClash>
0.0689

> <Gold.Chemscore.DEInternal>
0.5637

> <Gold.Chemscore.Rot>
1.7693

> <Gold.Chemscore.Internal.Correction>
   9.000000E+99

> <Gold.Chemscore.Hbonds>
donor molecule, donor type, donor heavy atom, donor atom, acceptor molecule, acceptor atom, score
      P1  H  7989  7998       L1    12  0.91

> <Gold.Chemscore.Hbond.Weighted>
-3.2511

> <Gold.Chemscore.Metal.Weighted>
-0.0000

> <Gold.Chemscore.Lipo.Weighted>
-10.1156

> <Gold.Chemscore.Internal_Hbond.Weighted>
0.0000

> <Gold.Chemscore.DEClash.Weighted>
0.0689

> <Gold.Chemscore.DEInternal.Weighted>
0.5637

> <Gold.Chemscore.Rot.Weighted>
4.5294

> <Gold.Chemscore.Internal.Correction.Weighted>
   9.000000E+99

> <Gold.Protein.RotatedTorsions>
[ 6907 6896 6895 6894 ] final  164.63 input  -60.11 | X-H torsion
[ 7974 7965 7964 7962 ] final   74.20 input  175.53 | X-H torsion
[ 8008 7997 7996 7995 ] final   87.99 input   59.86 | X-H torsion
[ 10167 10162 10161 10158 ] final   29.58 input  -65.29 | X-H torsion
[ 10718 10713 10712 10709 ] final   20.65 input   66.30 | X-H torsion
[ 10763 10752 10751 10750 ] final  -85.86 input  -60.55 | X-H torsion
[ 11005 11000 10999 10996 ] final -114.03 input  -57.11 | X-H torsion

> <Gold.Protein.ActiveResidues>
 VAL166  LYS551  ARG553  GLY616  TRP617  ASP618  TYR619  PRO620  LYS621  CYS622 
 ASP623  PHE694  ASN695  SER759  ASP760  ASP761  ALA762  ILE779  LEU786  VAL792 
 PHE793  MET794  SER795  GLU796  ALA797  LYS798  CYS799  TRP800  GLU811  SER814 

> <Gold.Protein.RotatedAtoms>
  151.9069  133.3551  159.3849 H   0  0  0  0  0  0  0  0  0  0  0  0  # atno 6907 bound_to 6896
  150.7067  134.4771  159.5462 H   0  0  0  0  0  0  0  0  0  0  0  0  # atno 6908 bound_to 6896
  152.2370  134.8266  160.0516 H   0  0  0  0  0  0  0  0  0  0  0  0  # atno 6909 bound_to 6896
  145.7312  139.2684  143.1540 H   0  0  0  0  0  0  0  0  0  0  0  0  # atno 7974 bound_to 7965
  155.9823  140.3376  155.6674 H   0  0  0  0  0  0  0  0  0  0  0  0  # atno 8008 bound_to 7997
  155.6532  140.0708  157.2598 H   0  0  0  0  0  0  0  0  0  0  0  0  # atno 8009 bound_to 7997
  154.4195  140.1722  156.1685 H   0  0  0  0  0  0  0  0  0  0  0  0  # atno 8010 bound_to 7997
  140.4753  144.0700  150.6249 H   0  0  0  0  0  0  0  0  0  0  0  0  # atno 10167 bound_to 10162
  157.1275  130.6576  149.5942 H   0  0  0  0  0  0  0  0  0  0  0  0  # atno 10718 bound_to 10713
  154.6159  135.5470  153.7523 H   0  0  0  0  0  0  0  0  0  0  0  0  # atno 10763 bound_to 10752
  153.0216  135.6401  154.1510 H   0  0  0  0  0  0  0  0  0  0  0  0  # atno 10764 bound_to 10752
  154.1447  135.2906  155.3131 H   0  0  0  0  0  0  0  0  0  0  0  0  # atno 10765 bound_to 10752
  141.0578  133.9585  157.2723 H   0  0  0  0  0  0  0  0  0  0  0  0  # atno 11005 bound_to 11000
  146.0536  140.8044  142.9770 LP  0  0  0  0  0  0  0  0  0  0  0  0  # atno 17320 bound_to 7965
  144.6892  140.3089  143.7251 LP  0  0  0  0  0  0  0  0  0  0  0  0  # atno 17321 bound_to 7965
  140.3926  143.2744  152.0042 LP  0  0  0  0  0  0  0  0  0  0  0  0  # atno 17342 bound_to 10162
  139.4824  144.6065  151.7512 LP  0  0  0  0  0  0  0  0  0  0  0  0  # atno 17343 bound_to 10162
  155.9815  130.4823  150.6831 LP  0  0  0  0  0  0  0  0  0  0  0  0  # atno 17370 bound_to 10713
  157.4422  131.0862  151.0932 LP  0  0  0  0  0  0  0  0  0  0  0  0  # atno 17371 bound_to 10713
  139.9405  135.0191  156.8693 LP  0  0  0  0  0  0  0  0  0  0  0  0  # atno 17394 bound_to 11000
  140.5930  134.0244  155.7507 LP  0  0  0  0  0  0  0  0  0  0  0  0  # atno 17395 bound_to 11000

$$$$
