AV-unprocessed.smi:460|AV-procd|sdf|2629|dock10
  -GOLD-   2262023 33D 1   1.00000     0.00000
 Structure written by MMmdl.
 47 49  0  0  0  0  0  0  0  0  2 V2000
  146.8424  141.4278  153.4944 C   0  0  0  0  0  0  0  0  0  0  0  0
  147.6191  141.7690  154.7741 C   0  0  0  0  0  0  0  0  0  0  0  0
  148.9199  140.9625  154.9467 C   0  0  1  0  0  0  0  0  0  0  0  0
  149.6102  140.9614  153.7150 O   0  0  0  0  0  0  0  0  0  0  0  0
  149.7712  141.5061  156.0550 C   0  0  0  0  0  0  0  0  0  0  0  0
  150.2439  142.7826  156.1378 N   0  3  0  0  0  0  0  0  0  0  0  0
  151.0053  142.9329  157.2965 C   0  0  0  0  0  0  0  0  0  0  0  0
  151.6879  144.0351  157.8017 C   0  0  0  0  0  0  0  0  0  0  0  0
  152.3790  143.8485  159.0170 C   0  0  0  0  0  0  0  0  0  0  0  0
  152.3745  142.6043  159.6805 C   0  0  0  0  0  0  0  0  0  0  0  0
  151.6773  141.4945  159.1588 C   0  0  0  0  0  0  0  0  0  0  0  0
  150.9946  141.6883  157.9582 C   0  0  0  0  0  0  0  0  0  0  0  0
  150.2150  140.8415  157.1626 N   0  0  0  0  0  0  0  0  0  0  0  0
  150.0148  139.4476  157.5866 C   0  0  0  0  0  0  0  0  0  0  0  0
  148.5322  139.1250  157.8167 C   0  0  0  0  0  0  0  0  0  0  0  0
  148.4046  138.4131  159.0403 O   0  0  0  0  0  0  0  0  0  0  0  0
  148.3735  137.0356  159.0063 C   0  0  0  0  0  0  0  0  0  0  0  0
  148.6911  136.2706  157.8557 C   0  0  0  0  0  0  0  0  0  0  0  0
  148.6377  134.8656  157.8965 C   0  0  0  0  0  0  0  0  0  0  0  0
  148.2678  134.2110  159.0837 C   0  0  0  0  0  0  0  0  0  0  0  0
  147.9516  134.9609  160.2311 C   0  0  0  0  0  0  0  0  0  0  0  0
  148.0020  136.3778  160.2016 C   0  0  0  0  0  0  0  0  0  0  0  0
  147.7021  137.1762  161.2865 O   0  0  0  0  0  0  0  0  0  0  0  0
  147.3253  136.5461  162.5020 C   0  0  0  0  0  0  0  0  0  0  0  0
  145.9544  142.0536  153.4038 H   0  0  0  0  0  0  0  0  0  0  0  0
  146.5133  140.3885  153.4876 H   0  0  0  0  0  0  0  0  0  0  0  0
  147.4549  141.5928  152.6077 H   0  0  0  0  0  0  0  0  0  0  0  0
  147.8578  142.8333  154.7561 H   0  0  0  0  0  0  0  0  0  0  0  0
  146.9713  141.6187  155.6388 H   0  0  0  0  0  0  0  0  0  0  0  0
  148.6698  139.9242  155.1641 H   0  0  0  0  0  0  0  0  0  0  0  0
  149.2325  140.2932  153.1627 H   0  0  0  0  0  0  0  0  0  0  0  0
  151.6949  144.9883  157.2933 H   0  0  0  0  0  0  0  0  0  0  0  0
  152.9248  144.6757  159.4476 H   0  0  0  0  0  0  0  0  0  0  0  0
  152.9172  142.4981  160.6087 H   0  0  0  0  0  0  0  0  0  0  0  0
  151.6826  140.5454  159.6739 H   0  0  0  0  0  0  0  0  0  0  0  0
  150.4535  138.7801  156.8446 H   0  0  0  0  0  0  0  0  0  0  0  0
  150.5791  139.2928  158.5060 H   0  0  0  0  0  0  0  0  0  0  0  0
  147.9583  140.0521  157.8577 H   0  0  0  0  0  0  0  0  0  0  0  0
  148.1535  138.5273  156.9864 H   0  0  0  0  0  0  0  0  0  0  0  0
  148.9816  136.7387  156.9276 H   0  0  0  0  0  0  0  0  0  0  0  0
  148.8818  134.2899  157.0159 H   0  0  0  0  0  0  0  0  0  0  0  0
  148.2265  133.1322  159.1151 H   0  0  0  0  0  0  0  0  0  0  0  0
  147.6716  134.4230  161.1239 H   0  0  0  0  0  0  0  0  0  0  0  0
  147.1283  137.3081  163.2556 H   0  0  0  0  0  0  0  0  0  0  0  0
  148.1212  135.9049  162.8829 H   0  0  0  0  0  0  0  0  0  0  0  0
  146.4136  135.9596  162.3811 H   0  0  0  0  0  0  0  0  0  0  0  0
  150.0609  143.4937  155.4417 H   0  0  0  0  0  0  0  0  0  0  0  0
  1  2  1  0  0  0  0
  1 25  1  0  0  0  0
  1 26  1  0  0  0  0
  1 27  1  0  0  0  0
  2  3  1  0  0  0  0
  2 28  1  0  0  0  0
  2 29  1  0  0  0  0
  3  4  1  0  0  0  0
  3  5  1  0  0  0  0
  3 30  1  0  0  0  0
  4 31  1  0  0  0  0
  5 13  1  0  0  0  0
  5  6  2  0  0  0  0
  6  7  1  0  0  0  0
  6 47  1  0  0  0  0
  7 12  2  0  0  0  0
  7  8  1  0  0  0  0
  8  9  2  0  0  0  0
  8 32  1  0  0  0  0
  9 10  1  0  0  0  0
  9 33  1  0  0  0  0
 10 11  2  0  0  0  0
 10 34  1  0  0  0  0
 11 12  1  0  0  0  0
 11 35  1  0  0  0  0
 12 13  1  0  0  0  0
 13 14  1  0  0  0  0
 14 15  1  0  0  0  0
 14 36  1  0  0  0  0
 14 37  1  0  0  0  0
 15 16  1  0  0  0  0
 15 38  1  0  0  0  0
 15 39  1  0  0  0  0
 16 17  1  0  0  0  0
 17 22  1  0  0  0  0
 17 18  2  0  0  0  0
 18 19  1  0  0  0  0
 18 40  1  0  0  0  0
 19 20  2  0  0  0  0
 19 41  1  0  0  0  0
 20 21  1  0  0  0  0
 20 42  1  0  0  0  0
 21 22  2  0  0  0  0
 21 43  1  0  0  0  0
 22 23  1  0  0  0  0
 23 24  1  0  0  0  0
 24 44  1  0  0  0  0
 24 45  1  0  0  0  0
 24 46  1  0  0  0  0
M  CHG  1   6   1
M  END
> <s_m_source_file>
AV-unprocessed.smi

> <i_m_source_file_index>
460

> <i_lp_mmshare_version>
43012

> <i_f3d_flags>
0

> <s_epik_input>
W2NIXTFbY0hdW2NIXVtjSF1jKGMxMiluKGMobjIpW0NAQEhdKFtPSF0pW0NIMl1bQ0gzXSlbQ0gyXVtDSDJdT2MzW2NIXVtjSF1bY0hdW2NIXWMzT1tDSDNd

> <s_epik_cmdline>
J2VwaWtfcHl0aG9uJywgJy1waCcsICc3LjAnLCAnLXRuJywgJzgnLCAnLW1hJywgJzIwMCcsICctbWV0YWxfYmluZGluZycsICctaW1hZScsICc8aW5maWxlLm1hZT4nLCAnLW9tYWUnLCAnPG91dGZpbGUubWFlPic=

> <r_lp_tautomer_probability>
1

> <r_epik_Ionization_Penalty>
1.48085

> <r_epik_Ionization_Penalty_Charging>
1.48083

> <r_epik_Ionization_Penalty_Neutral>
1.80167e-05

> <r_epik_State_Penalty>
1.56944

> <r_epik_Charging_Adjusted_Penalty>
3.05027

> <i_epik_Tot_Q>
1

> <i_epik_Tot_abs_Q>
1

> <r_epik_Metal_State_Penalty>
5.61877

> <b_epik_Metal_Only>
0

> <s_lp_Force_Field>
OPLS_2005

> <r_lp_Energy>
21.4697

> <b_lp_Chiralities_Consistent>
1

> <s_lp_Variant>
AV-unprocessed.smi:460-4

> <Gold.Version>
5.8.1

> <Gold.Id.Protein>
6NUR|6NUR_protein|mol2

> <Gold.PLP.Fitness>
60.5657

> <Gold.PLP.PLP>
-48.3398

> <Gold.PLP.part.hbond>
-7.0711

> <Gold.PLP.part.metal>
0.0000

> <Gold.PLP.part.buried>
-4.6778

> <Gold.PLP.part.nonpolar>
-37.7764

> <Gold.PLP.part.repulsive>
0.1248

> <Gold.PLP.ligand.clash>
0.0000

> <Gold.PLP.ligand.torsion>
0.7829

> <Gold.PLP.Chemscore.Hbond>
4.5610

> <Gold.PLP.Chemscore.CHOScore>
0.0000

> <Gold.PLP.Chemscore.Metal>
0.0000

> <Gold.Chemscore.Hbonds>
donor molecule, donor type, donor heavy atom, donor atom, acceptor molecule, acceptor atom, score
      L1  H     4    31       P1  7957  0.48
      L1  H     6    47       P1  8028  0.96
      P1  H  6931  6943       L1    23  0.98
      P1  H  6934  6947       L1    23  0.83
      P1  H  7989  7998       L1     4  0.35
      P1  H  8011  8017       L1     4  0.89

> <Gold.PLP.Chemscore.Internal.Correction>
0.1089

> <Gold.Rescore>
     Score         DG    S(hbond)    S(metal)    S(lipo)     H(rot)  DE(clash)    DE(int)     intcor
     20.45     -21.40       2.58        0.00     115.96       2.45       0.12       0.83       ----

> <Gold.Chemscore.Fitness>
20.4468

> <Gold.Chemscore.DG>
-21.3968

> <Gold.Chemscore.ZeroCoef>
-5.4800

> <Gold.Chemscore.Hbond>
2.5774

> <Gold.Chemscore.Metal>
0.0000

> <Gold.Chemscore.Lipo>
115.9618

> <Gold.Chemscore.Internal_Hbond>
0.0000

> <Gold.Chemscore.DEClash>
0.1181

> <Gold.Chemscore.DEInternal>
0.8319

> <Gold.Chemscore.Rot>
2.4450

> <Gold.Chemscore.Internal.Correction>
   9.000000E+99

> <Gold.Chemscore.Hbonds>
donor molecule, donor type, donor heavy atom, donor atom, acceptor molecule, acceptor atom, score
      L1  H     4    31       P1  7957  0.45
      L1  H     6    47       P1  8028  0.48
      P1  H  6931  6943       L1    23  0.23
      P1  H  6934  6947       L1    23  0.77
      P1  H  7989  7998       L1     4  0.23
      P1  H  8011  8017       L1     4  0.16

> <Gold.Chemscore.Hbond.Weighted>
-8.6086

> <Gold.Chemscore.Metal.Weighted>
-0.0000

> <Gold.Chemscore.Lipo.Weighted>
-13.5675

> <Gold.Chemscore.Internal_Hbond.Weighted>
0.0000

> <Gold.Chemscore.DEClash.Weighted>
0.1181

> <Gold.Chemscore.DEInternal.Weighted>
0.8319

> <Gold.Chemscore.Rot.Weighted>
6.2593

> <Gold.Chemscore.Internal.Correction.Weighted>
   9.000000E+99

> <Gold.Protein.RotatedTorsions>
[ 6907 6896 6895 6894 ] final  118.72 input  -60.11 | X-H torsion
[ 7974 7965 7964 7962 ] final -111.06 input  175.53 | X-H torsion
[ 8008 7997 7996 7995 ] final  -28.15 input   59.86 | X-H torsion
[ 10167 10162 10161 10158 ] final  -97.65 input  -65.29 | X-H torsion
[ 10718 10713 10712 10709 ] final  143.15 input   66.30 | X-H torsion
[ 10763 10752 10751 10750 ] final   82.29 input  -60.55 | X-H torsion
[ 11005 11000 10999 10996 ] final  160.24 input  -57.11 | X-H torsion

> <Gold.Protein.ActiveResidues>
 VAL166  LYS551  ARG553  GLY616  TRP617  ASP618  TYR619  PRO620  LYS621  CYS622 
 ASP623  PHE694  ASN695  SER759  ASP760  ASP761  ALA762  ILE779  LEU786  VAL792 
 PHE793  MET794  SER795  GLU796  ALA797  LYS798  CYS799  TRP800  GLU811  SER814 

> <Gold.Protein.RotatedAtoms>
  152.4523  133.7653  159.6769 H   0  0  0  0  0  0  0  0  0  0  0  0  # atno 6907 bound_to 6896
  150.8438  133.7883  159.3057 H   0  0  0  0  0  0  0  0  0  0  0  0  # atno 6908 bound_to 6896
  151.5499  135.1070  159.9999 H   0  0  0  0  0  0  0  0  0  0  0  0  # atno 6909 bound_to 6896
  145.1607  140.8877  143.3592 H   0  0  0  0  0  0  0  0  0  0  0  0  # atno 7974 bound_to 7965
  154.4345  140.1853  156.1044 H   0  0  0  0  0  0  0  0  0  0  0  0  # atno 8008 bound_to 7997
  156.0267  140.3335  155.7070 H   0  0  0  0  0  0  0  0  0  0  0  0  # atno 8009 bound_to 7997
  155.5899  140.0630  157.2752 H   0  0  0  0  0  0  0  0  0  0  0  0  # atno 8010 bound_to 7997
  140.2812  143.3281  152.0439 H   0  0  0  0  0  0  0  0  0  0  0  0  # atno 10167 bound_to 10162
  157.3723  131.0980  151.0816 H   0  0  0  0  0  0  0  0  0  0  0  0  # atno 10718 bound_to 10713
  153.1190  135.4733  154.9164 H   0  0  0  0  0  0  0  0  0  0  0  0  # atno 10763 bound_to 10752
  154.7557  135.3118  154.8477 H   0  0  0  0  0  0  0  0  0  0  0  0  # atno 10764 bound_to 10752
  153.9046  135.6871  153.4807 H   0  0  0  0  0  0  0  0  0  0  0  0  # atno 10765 bound_to 10752
  140.2040  134.8316  157.3049 H   0  0  0  0  0  0  0  0  0  0  0  0  # atno 11005 bound_to 11000
  145.0334  139.3321  143.6013 LP  0  0  0  0  0  0  0  0  0  0  0  0  # atno 17320 bound_to 7965
  146.3483  139.9680  142.8709 LP  0  0  0  0  0  0  0  0  0  0  0  0  # atno 17321 bound_to 7965
  139.4962  144.6590  151.6507 LP  0  0  0  0  0  0  0  0  0  0  0  0  # atno 17342 bound_to 10162
  140.5810  143.9945  150.6268 LP  0  0  0  0  0  0  0  0  0  0  0  0  # atno 17343 bound_to 10162
  157.1916  130.6354  149.5706 LP  0  0  0  0  0  0  0  0  0  0  0  0  # atno 17370 bound_to 10713
  155.9758  130.4720  150.6485 LP  0  0  0  0  0  0  0  0  0  0  0  0  # atno 17371 bound_to 10713
  140.2023  134.4240  155.7656 LP  0  0  0  0  0  0  0  0  0  0  0  0  # atno 17394 bound_to 11000
  141.2227  133.7078  156.8203 LP  0  0  0  0  0  0  0  0  0  0  0  0  # atno 17395 bound_to 11000

$$$$
