AV-unprocessed.smi:69|AV-procd|sdf|648|dock4
  -GOLD-   2262016543D 1   1.00000     0.00000
 Structure written by MMmdl.
 32 34  0  0  0  0  0  0  0  0  1 V2000
  153.1520  140.7117  159.4519 N   0  0  0  0  0  0  0  0  0  0  0  0
  152.1055  140.0590  158.9276 C   0  0  0  0  0  0  0  0  0  0  0  0
  151.8817  138.7820  159.3183 N   0  0  0  0  0  0  0  0  0  0  0  0
  150.8457  138.1080  158.8071 C   0  0  0  0  0  0  0  0  0  0  0  0
  149.9394  138.5180  157.9148 N   0  0  0  0  0  0  0  0  0  0  0  0
  150.1686  139.8065  157.5261 C   0  0  0  0  0  0  0  0  0  0  0  0
  151.2243  140.6417  157.9820 C   0  0  0  0  0  0  0  0  0  0  0  0
  151.1415  141.8839  157.3671 N   0  0  0  0  0  0  0  0  0  0  0  0
  150.0954  141.7819  156.5903 C   0  0  0  0  0  0  0  0  0  0  0  0
  149.4554  140.5595  156.6195 N   0  0  0  0  0  0  0  0  0  0  0  0
  148.2435  140.0970  155.8656 C   0  0  1  0  0  0  0  0  0  0  0  0
  147.2317  141.0448  156.0300 O   0  0  0  0  0  0  0  0  0  0  0  0
  147.1361  141.8535  154.8631 C   0  0  2  0  0  0  0  0  0  0  0  0
  145.7776  142.5710  154.7901 C   0  0  0  0  0  0  0  0  0  0  0  0
  144.7478  141.6971  155.2005 O   0  0  0  0  0  0  0  0  0  0  0  0
  147.4162  140.8455  153.7414 C   0  0  2  0  0  0  0  0  0  0  0  0
  146.2633  140.0783  153.4433 O   0  0  0  0  0  0  0  0  0  0  0  0
  148.5040  139.9641  154.3438 C   0  0  1  0  0  0  0  0  0  0  0  0
  149.7776  140.4309  153.9306 O   0  0  0  0  0  0  0  0  0  0  0  0
  147.9591  139.1605  156.3472 H   0  0  0  0  0  0  0  0  0  0  0  0
  147.9450  142.5867  154.8683 H   0  0  0  0  0  0  0  0  0  0  0  0
  147.7366  141.3397  152.8229 H   0  0  0  0  0  0  0  0  0  0  0  0
  148.4053  138.9198  154.0434 H   0  0  0  0  0  0  0  0  0  0  0  0
  153.3395  141.6644  159.1739 H   0  0  0  0  0  0  0  0  0  0  0  0
  153.7511  140.2501  160.1207 H   0  0  0  0  0  0  0  0  0  0  0  0
  150.7259  137.0955  159.1633 H   0  0  0  0  0  0  0  0  0  0  0  0
  149.7661  142.6047  155.9726 H   0  0  0  0  0  0  0  0  0  0  0  0
  145.7681  143.4261  155.4664 H   0  0  0  0  0  0  0  0  0  0  0  0
  145.5769  142.9457  153.7859 H   0  0  0  0  0  0  0  0  0  0  0  0
  144.2550  141.4339  154.4382 H   0  0  0  0  0  0  0  0  0  0  0  0
  145.5345  140.6668  153.3185 H   0  0  0  0  0  0  0  0  0  0  0  0
  149.9332  140.1274  153.0488 H   0  0  0  0  0  0  0  0  0  0  0  0
  1  2  1  0  0  0  0
  1 24  1  0  0  0  0
  1 25  1  0  0  0  0
  2  7  1  0  0  0  0
  2  3  2  0  0  0  0
  3  4  1  0  0  0  0
  4  5  2  0  0  0  0
  4 26  1  0  0  0  0
  5  6  1  0  0  0  0
  6 10  1  0  0  0  0
  6  7  2  0  0  0  0
  7  8  1  0  0  0  0
  8  9  2  0  0  0  0
  9 10  1  0  0  0  0
  9 27  1  0  0  0  0
 10 11  1  0  0  0  0
 11 20  1  0  0  0  0
 11 18  1  0  0  0  0
 11 12  1  0  0  0  0
 12 13  1  0  0  0  0
 13 21  1  0  0  0  0
 13 14  1  0  0  0  0
 13 16  1  0  0  0  0
 14 15  1  0  0  0  0
 14 28  1  0  0  0  0
 14 29  1  0  0  0  0
 15 30  1  0  0  0  0
 16 22  1  0  0  0  0
 16 17  1  0  0  0  0
 16 18  1  0  0  0  0
 17 31  1  0  0  0  0
 18 23  1  0  0  0  0
 18 19  1  0  0  0  0
 19 32  1  0  0  0  0
M  END
> <s_m_source_file>
AV-unprocessed.smi

> <i_m_source_file_index>
69

> <i_lp_mmshare_version>
43012

> <i_f3d_flags>
0

> <s_epik_input>
bjFbY0hdbmMoW05IMl0pYyhjMTIpbltjSF1uMltDQEBIXTNPW0NASF0oW0NIMl1bT0hdKVtDQEBIXShbT0hdKVtDQEhdM1tPSF0=

> <s_epik_cmdline>
J2VwaWtfcHl0aG9uJywgJy1waCcsICc3LjAnLCAnLXRuJywgJzgnLCAnLW1hJywgJzIwMCcsICctbWV0YWxfYmluZGluZycsICctaW1hZScsICc8aW5maWxlLm1hZT4nLCAnLW9tYWUnLCAnPG91dGZpbGUubWFlPic=

> <r_lp_tautomer_probability>
1

> <r_epik_Ionization_Penalty>
0.000428445

> <r_epik_Ionization_Penalty_Charging>
0

> <r_epik_Ionization_Penalty_Neutral>
0.000428445

> <r_epik_State_Penalty>
-0

> <r_epik_Charging_Adjusted_Penalty>
0

> <i_epik_Tot_Q>
0

> <i_epik_Tot_abs_Q>
0

> <r_epik_Metal_State_Penalty>
-0

> <b_epik_Metal_Only>
0

> <s_epik_Chemistry_Notes>
This compound contains an acetal/aminal-like group ( X-CH(R)-Y where X, Y are N, S, or O) that may be acid/base labile, releasing an aldehyde.

> <s_lp_Force_Field>
OPLS_2005

> <r_lp_Energy>
38.9041

> <b_lp_Chiralities_Consistent>
1

> <s_lp_Variant>
AV-unprocessed.smi:69-6

> <Gold.Version>
5.8.1

> <Gold.Id.Protein>
6NUR|6NUR_protein|mol2

> <Gold.PLP.Fitness>
36.1999

> <Gold.PLP.PLP>
-25.6305

> <Gold.PLP.part.hbond>
-4.0202

> <Gold.PLP.part.metal>
0.0000

> <Gold.PLP.part.buried>
-5.3448

> <Gold.PLP.part.nonpolar>
-17.6395

> <Gold.PLP.part.repulsive>
0.2187

> <Gold.PLP.ligand.clash>
0.0000

> <Gold.PLP.ligand.torsion>
0.2854

> <Gold.PLP.Chemscore.Hbond>
2.6820

> <Gold.PLP.Chemscore.CHOScore>
1.0000

> <Gold.PLP.Chemscore.Metal>
0.0000

> <Gold.Chemscore.Hbonds>
donor molecule, donor type, donor heavy atom, donor atom, acceptor molecule, acceptor atom, score
      L1  H    15    30       P1 10175  0.52
      L1  H    17    31       P1 10175  0.69
      L1  H    19    32       P1  7957  1.00
      L1  C     9    27       P1  8028  1.00

> <Gold.PLP.Chemscore.Internal.Correction>
0.0944

> <Gold.Rescore>
     Score         DG    S(hbond)    S(metal)    S(lipo)     H(rot)  DE(clash)    DE(int)     intcor
      6.67      -8.20       2.89        0.00      28.91       4.03       0.02       1.51       ----

> <Gold.Chemscore.Fitness>
6.6729

> <Gold.Chemscore.DG>
-8.1953

> <Gold.Chemscore.ZeroCoef>
-5.4800

> <Gold.Chemscore.Hbond>
2.8874

> <Gold.Chemscore.Metal>
0.0000

> <Gold.Chemscore.Lipo>
28.9074

> <Gold.Chemscore.Internal_Hbond>
0.0000

> <Gold.Chemscore.DEClash>
0.0153

> <Gold.Chemscore.DEInternal>
1.5070

> <Gold.Chemscore.Rot>
4.0277

> <Gold.Chemscore.Internal.Correction>
   9.000000E+99

> <Gold.Chemscore.Hbonds>
donor molecule, donor type, donor heavy atom, donor atom, acceptor molecule, acceptor atom, score
      L1  H    15    30       P1 10175  0.26
      L1  H    17    31       P1 10175  0.55
      L1  H    19    32       P1  7957  0.98

> <Gold.Chemscore.Hbond.Weighted>
-9.6441

> <Gold.Chemscore.Metal.Weighted>
-0.0000

> <Gold.Chemscore.Lipo.Weighted>
-3.3822

> <Gold.Chemscore.Internal_Hbond.Weighted>
0.0000

> <Gold.Chemscore.DEClash.Weighted>
0.0153

> <Gold.Chemscore.DEInternal.Weighted>
1.5070

> <Gold.Chemscore.Rot.Weighted>
10.3110

> <Gold.Chemscore.Internal.Correction.Weighted>
   9.000000E+99

> <Gold.Protein.RotatedTorsions>
[ 6907 6896 6895 6894 ] final -122.95 input  -60.11 | X-H torsion
[ 7974 7965 7964 7962 ] final  114.65 input  175.53 | X-H torsion
[ 8008 7997 7996 7995 ] final  170.07 input   59.86 | X-H torsion
[ 10167 10162 10161 10158 ] final  158.92 input  -65.29 | X-H torsion
[ 10718 10713 10712 10709 ] final  -25.18 input   66.30 | X-H torsion
[ 10763 10752 10751 10750 ] final  -57.84 input  -60.55 | X-H torsion
[ 11005 11000 10999 10996 ] final -145.80 input  -57.11 | X-H torsion

> <Gold.Protein.ActiveResidues>
 VAL166  LYS551  ARG553  GLY616  TRP617  ASP618  TYR619  PRO620  LYS621  CYS622 
 ASP623  PHE694  ASN695  SER759  ASP760  ASP761  ALA762  ILE779  LEU786  VAL792 
 PHE793  MET794  SER795  GLU796  ALA797  LYS798  CYS799  TRP800  GLU811  SER814 

> <Gold.Protein.RotatedAtoms>
  150.8624  133.7624  159.2987 H   0  0  0  0  0  0  0  0  0  0  0  0  # atno 6907 bound_to 6896
  151.5262  135.1066  159.9900 H   0  0  0  0  0  0  0  0  0  0  0  0  # atno 6908 bound_to 6896
  152.4636  133.7831  159.6917 H   0  0  0  0  0  0  0  0  0  0  0  0  # atno 6909 bound_to 6896
  145.2018  139.2949  143.4314 H   0  0  0  0  0  0  0  0  0  0  0  0  # atno 7974 bound_to 7965
  156.1399  140.1547  156.8937 H   0  0  0  0  0  0  0  0  0  0  0  0  # atno 8008 bound_to 7997
  154.4978  140.0833  156.7773 H   0  0  0  0  0  0  0  0  0  0  0  0  # atno 8009 bound_to 7997
  155.4098  140.3418  155.4265 H   0  0  0  0  0  0  0  0  0  0  0  0  # atno 8010 bound_to 7997
  139.4829  144.4779  151.8485 H   0  0  0  0  0  0  0  0  0  0  0  0  # atno 10167 bound_to 10162
  156.4678  130.4518  149.6888 H   0  0  0  0  0  0  0  0  0  0  0  0  # atno 10718 bound_to 10713
  154.2287  135.6364  153.5168 H   0  0  0  0  0  0  0  0  0  0  0  0  # atno 10763 bound_to 10752
  152.9953  135.5514  154.6036 H   0  0  0  0  0  0  0  0  0  0  0  0  # atno 10764 bound_to 10752
  154.5513  135.2902  155.0979 H   0  0  0  0  0  0  0  0  0  0  0  0  # atno 10765 bound_to 10752
  140.7885  134.2996  157.5021 H   0  0  0  0  0  0  0  0  0  0  0  0  # atno 11005 bound_to 11000
  146.3416  140.2265  142.8592 LP  0  0  0  0  0  0  0  0  0  0  0  0  # atno 17320 bound_to 7965
  144.9940  140.8573  143.5322 LP  0  0  0  0  0  0  0  0  0  0  0  0  # atno 17321 bound_to 7965
  140.4253  144.2189  150.5887 LP  0  0  0  0  0  0  0  0  0  0  0  0  # atno 17342 bound_to 10162
  140.4834  143.2371  151.8923 LP  0  0  0  0  0  0  0  0  0  0  0  0  # atno 17343 bound_to 10162
  156.3649  130.7501  151.2477 LP  0  0  0  0  0  0  0  0  0  0  0  0  # atno 17370 bound_to 10713
  157.7493  131.0339  150.4295 LP  0  0  0  0  0  0  0  0  0  0  0  0  # atno 17371 bound_to 10713
  139.8734  134.9361  156.3650 LP  0  0  0  0  0  0  0  0  0  0  0  0  # atno 17394 bound_to 11000
  140.9412  133.7513  156.0149 LP  0  0  0  0  0  0  0  0  0  0  0  0  # atno 17395 bound_to 11000

$$$$
