AV-unprocessed.smi:189|AV-procd|sdf|1480|dock10
  -GOLD-   2262019303D 1   1.00000     0.00000
 Structure written by MMmdl.
 53 57  0  0  0  0  0  0  0  0  1 V2000
  154.1887  138.8169  158.9827 C   0  0  0  0  0  0  0  0  0  0  0  0
  152.8630  139.5338  159.3135 C   0  0  1  0  0  0  0  0  0  0  0  0
  153.1196  140.7995  160.1681 C   0  0  0  0  0  0  0  0  0  0  0  0
  152.2192  141.8527  159.5294 C   0  0  1  0  0  0  0  0  0  0  0  0
  152.5875  143.3327  159.6872 C   0  0  0  0  0  0  0  0  0  0  0  0
  151.5803  144.1887  158.8905 C   0  0  0  0  0  0  0  0  0  0  0  0
  151.4551  143.7338  157.4184 C   0  0  0  0  0  0  0  0  0  0  0  0
  151.1763  142.2212  157.2879 C   0  0  0  0  0  0  0  0  0  0  0  0
  152.2548  141.4438  158.0646 C   0  0  2  0  0  0  0  0  0  0  0  0
  152.1143  139.9977  158.1360 N   0  0  0  0  0  0  0  0  0  0  0  0
  152.0748  139.2166  157.0274 C   0  0  0  0  0  0  0  0  0  0  0  0
  152.5992  139.6688  155.8582 N   0  0  0  0  0  0  0  0  0  0  0  0
  152.5837  138.8945  154.7694 C   0  0  0  0  0  0  0  0  0  0  0  0
  152.1049  137.6563  154.6327 N   0  0  0  0  0  0  0  0  0  0  0  0
  151.5746  137.1985  155.8027 C   0  0  0  0  0  0  0  0  0  0  0  0
  151.5200  137.9070  157.0359 C   0  0  0  0  0  0  0  0  0  0  0  0
  150.9095  137.1229  158.0071 N   0  0  0  0  0  0  0  0  0  0  0  0
  150.6244  136.0119  157.3852 C   0  0  0  0  0  0  0  0  0  0  0  0
  150.9828  135.9730  156.0564 N   0  0  0  0  0  0  0  0  0  0  0  0
  150.7841  134.8630  155.1371 C   0  0  0  0  0  0  0  0  0  0  0  0
  149.2953  134.5388  154.8737 C   0  0  1  0  0  0  0  0  0  0  0  0
  148.6530  135.6952  154.3639 O   0  0  0  0  0  0  0  0  0  0  0  0
  149.0683  133.3880  153.8975 C   0  0  0  0  0  0  0  0  0  0  0  0
  147.7735  132.7672  154.4020 C   0  0  0  0  0  0  0  0  0  0  0  0
  147.9314  132.8319  155.8089 O   0  0  0  0  0  0  0  0  0  0  0  0
  148.5389  134.0776  156.1361 C   0  0  0  0  0  0  0  0  0  0  0  0
  154.7326  138.5720  159.8953 H   0  0  0  0  0  0  0  0  0  0  0  0
  154.8369  139.4428  158.3682 H   0  0  0  0  0  0  0  0  0  0  0  0
  154.0247  137.8810  158.4488 H   0  0  0  0  0  0  0  0  0  0  0  0
  152.2136  138.8586  159.8716 H   0  0  0  0  0  0  0  0  0  0  0  0
  152.8968  140.6440  161.2240 H   0  0  0  0  0  0  0  0  0  0  0  0
  154.1615  141.1156  160.0924 H   0  0  0  0  0  0  0  0  0  0  0  0
  151.2092  141.7027  159.9175 H   0  0  0  0  0  0  0  0  0  0  0  0
  152.5761  143.6173  160.7395 H   0  0  0  0  0  0  0  0  0  0  0  0
  153.5996  143.5100  159.3214 H   0  0  0  0  0  0  0  0  0  0  0  0
  150.6012  144.1247  159.3671 H   0  0  0  0  0  0  0  0  0  0  0  0
  151.8711  145.2388  158.9316 H   0  0  0  0  0  0  0  0  0  0  0  0
  150.6665  144.2997  156.9216 H   0  0  0  0  0  0  0  0  0  0  0  0
  152.3802  143.9723  156.8919 H   0  0  0  0  0  0  0  0  0  0  0  0
  150.1863  141.9885  157.6821 H   0  0  0  0  0  0  0  0  0  0  0  0
  151.1665  141.9429  156.2347 H   0  0  0  0  0  0  0  0  0  0  0  0
  153.2365  141.6685  157.6423 H   0  0  0  0  0  0  0  0  0  0  0  0
  153.0193  139.3284  153.8815 H   0  0  0  0  0  0  0  0  0  0  0  0
  150.1367  135.1849  157.8809 H   0  0  0  0  0  0  0  0  0  0  0  0
  151.2904  135.0990  154.2002 H   0  0  0  0  0  0  0  0  0  0  0  0
  151.2919  133.9879  155.5451 H   0  0  0  0  0  0  0  0  0  0  0  0
  148.7402  135.6948  153.4228 H   0  0  0  0  0  0  0  0  0  0  0  0
  149.0224  133.6961  152.8520 H   0  0  0  0  0  0  0  0  0  0  0  0
  149.8648  132.6494  153.9916 H   0  0  0  0  0  0  0  0  0  0  0  0
  146.9088  133.3591  154.0983 H   0  0  0  0  0  0  0  0  0  0  0  0
  147.6321  131.7426  154.0582 H   0  0  0  0  0  0  0  0  0  0  0  0
  149.2026  133.9353  156.9895 H   0  0  0  0  0  0  0  0  0  0  0  0
  147.7693  134.7905  156.4377 H   0  0  0  0  0  0  0  0  0  0  0  0
  1  2  1  0  0  0  0
  1 27  1  0  0  0  0
  1 28  1  0  0  0  0
  1 29  1  0  0  0  0
  2 10  1  0  0  0  0
  2  3  1  0  0  0  0
  2 30  1  0  0  0  0
  3  4  1  0  0  0  0
  3 31  1  0  0  0  0
  3 32  1  0  0  0  0
  4  9  1  0  0  0  0
  4  5  1  0  0  0  0
  4 33  1  0  0  0  0
  5  6  1  0  0  0  0
  5 34  1  0  0  0  0
  5 35  1  0  0  0  0
  6  7  1  0  0  0  0
  6 36  1  0  0  0  0
  6 37  1  0  0  0  0
  7  8  1  0  0  0  0
  7 38  1  0  0  0  0
  7 39  1  0  0  0  0
  8  9  1  0  0  0  0
  8 40  1  0  0  0  0
  8 41  1  0  0  0  0
  9 10  1  0  0  0  0
  9 42  1  0  0  0  0
 10 11  1  0  0  0  0
 11 16  1  0  0  0  0
 11 12  2  0  0  0  0
 12 13  1  0  0  0  0
 13 14  2  0  0  0  0
 13 43  1  0  0  0  0
 14 15  1  0  0  0  0
 15 19  1  0  0  0  0
 15 16  2  0  0  0  0
 16 17  1  0  0  0  0
 17 18  2  0  0  0  0
 18 19  1  0  0  0  0
 18 44  1  0  0  0  0
 19 20  1  0  0  0  0
 20 21  1  0  0  0  0
 20 45  1  0  0  0  0
 20 46  1  0  0  0  0
 21 26  1  0  0  0  0
 21 22  1  0  0  0  0
 21 23  1  0  0  0  0
 22 47  1  0  0  0  0
 23 24  1  0  0  0  0
 23 48  1  0  0  0  0
 23 49  1  0  0  0  0
 24 25  1  0  0  0  0
 24 50  1  0  0  0  0
 24 51  1  0  0  0  0
 25 26  1  0  0  0  0
 26 52  1  0  0  0  0
 26 53  1  0  0  0  0
M  END
> <s_m_source_file>
AV-unprocessed.smi

> <i_m_source_file_index>
189

> <i_lp_mmshare_version>
43012

> <i_f3d_flags>
0

> <s_epik_input>
W0NIMl0xW0NIMl1bQ0gyXVtDSDJdW0NASF0oW0NASF0xMilOKFtDQEhdKFtDSDNdKVtDSDJdMiljKG5bY0hdbjMpYyhjMzQpbltjSF1uNFtDSDJdW0NAQF01KFtPSF0pW0NIMl1bQ0gyXU9bQ0gyXTU=

> <s_epik_cmdline>
J2VwaWtfcHl0aG9uJywgJy1waCcsICc3LjAnLCAnLXRuJywgJzgnLCAnLW1hJywgJzIwMCcsICctbWV0YWxfYmluZGluZycsICctaW1hZScsICc8aW5maWxlLm1hZT4nLCAnLW9tYWUnLCAnPG91dGZpbGUubWFlPic=

> <r_lp_tautomer_probability>
1

> <r_epik_Ionization_Penalty>
0.00594261

> <r_epik_Ionization_Penalty_Charging>
0

> <r_epik_Ionization_Penalty_Neutral>
0.00594261

> <r_epik_State_Penalty>
0.00429776

> <r_epik_Charging_Adjusted_Penalty>
0.00429776

> <i_epik_Tot_Q>
0

> <i_epik_Tot_abs_Q>
0

> <r_epik_Metal_State_Penalty>
-0

> <b_epik_Metal_Only>
0

> <s_lp_Force_Field>
OPLS_2005

> <r_lp_Energy>
58.915

> <b_lp_Chiralities_Consistent>
1

> <s_lp_Variant>
AV-unprocessed.smi:189-6

> <Gold.Version>
5.8.1

> <Gold.Id.Protein>
6NUR|6NUR_protein|mol2

> <Gold.PLP.Fitness>
47.6281

> <Gold.PLP.PLP>
-41.2060

> <Gold.PLP.part.hbond>
-2.7861

> <Gold.PLP.part.metal>
0.0000

> <Gold.PLP.part.buried>
-6.1219

> <Gold.PLP.part.nonpolar>
-31.9984

> <Gold.PLP.part.repulsive>
0.1043

> <Gold.PLP.ligand.clash>
0.0000

> <Gold.PLP.ligand.torsion>
0.3286

> <Gold.PLP.Chemscore.Hbond>
2.2340

> <Gold.PLP.Chemscore.CHOScore>
0.0000

> <Gold.PLP.Chemscore.Metal>
0.0000

> <Gold.Chemscore.Hbonds>
donor molecule, donor type, donor heavy atom, donor atom, acceptor molecule, acceptor atom, score
      L1  H    22    47       P1  7948  1.00
      P1  H  7997  8008       L1    12  1.00
      P1  H 10752 10764       L1    14  0.20

> <Gold.PLP.Chemscore.Internal.Correction>
0.3774

> <Gold.Rescore>
     Score         DG    S(hbond)    S(metal)    S(lipo)     H(rot)  DE(clash)    DE(int)     intcor
     18.66     -19.26       1.98        0.00     105.63       2.03       0.26       0.35       ----

> <Gold.Chemscore.Fitness>
18.6574

> <Gold.Chemscore.DG>
-19.2607

> <Gold.Chemscore.ZeroCoef>
-5.4800

> <Gold.Chemscore.Hbond>
1.9814

> <Gold.Chemscore.Metal>
0.0000

> <Gold.Chemscore.Lipo>
105.6294

> <Gold.Chemscore.Internal_Hbond>
0.0000

> <Gold.Chemscore.DEClash>
0.2574

> <Gold.Chemscore.DEInternal>
0.3460

> <Gold.Chemscore.Rot>
2.0297

> <Gold.Chemscore.Internal.Correction>
   9.000000E+99

> <Gold.Chemscore.Hbonds>
donor molecule, donor type, donor heavy atom, donor atom, acceptor molecule, acceptor atom, score
      L1  H    22    47       P1  7948  0.97
      P1  H  7997  8008       L1    12  0.39
      P1  H 10752 10764       L1    14  0.04

> <Gold.Chemscore.Hbond.Weighted>
-6.6180

> <Gold.Chemscore.Metal.Weighted>
-0.0000

> <Gold.Chemscore.Lipo.Weighted>
-12.3586

> <Gold.Chemscore.Internal_Hbond.Weighted>
0.0000

> <Gold.Chemscore.DEClash.Weighted>
0.2574

> <Gold.Chemscore.DEInternal.Weighted>
0.3460

> <Gold.Chemscore.Rot.Weighted>
5.1960

> <Gold.Chemscore.Internal.Correction.Weighted>
   9.000000E+99

> <Gold.Protein.RotatedTorsions>
[ 6907 6896 6895 6894 ] final   35.78 input  -60.11 | X-H torsion
[ 7974 7965 7964 7962 ] final -130.39 input  175.53 | X-H torsion
[ 8008 7997 7996 7995 ] final  -36.46 input   59.86 | X-H torsion
[ 10167 10162 10161 10158 ] final  -31.75 input  -65.29 | X-H torsion
[ 10718 10713 10712 10709 ] final  161.97 input   66.30 | X-H torsion
[ 10763 10752 10751 10750 ] final -101.24 input  -60.55 | X-H torsion
[ 11005 11000 10999 10996 ] final    6.69 input  -57.11 | X-H torsion

> <Gold.Protein.ActiveResidues>
 VAL166  LYS551  ARG553  GLY616  TRP617  ASP618  TYR619  PRO620  LYS621  CYS622 
 ASP623  PHE694  ASN695  SER759  ASP760  ASP761  ALA762  ILE779  LEU786  VAL792 
 PHE793  MET794  SER795  GLU796  ALA797  LYS798  CYS799  TRP800  GLU811  SER814 

> <Gold.Protein.RotatedAtoms>
  152.1208  134.9206  160.0562 H   0  0  0  0  0  0  0  0  0  0  0  0  # atno 6907 bound_to 6896
  152.0348  133.3947  159.4320 H   0  0  0  0  0  0  0  0  0  0  0  0  # atno 6908 bound_to 6896
  150.6849  134.3402  159.4908 H   0  0  0  0  0  0  0  0  0  0  0  0  # atno 6909 bound_to 6896
  144.9480  140.7313  143.4805 H   0  0  0  0  0  0  0  0  0  0  0  0  # atno 7974 bound_to 7965
  154.4072  140.1630  156.2378 H   0  0  0  0  0  0  0  0  0  0  0  0  # atno 8008 bound_to 7997
  155.9227  140.3420  155.6163 H   0  0  0  0  0  0  0  0  0  0  0  0  # atno 8009 bound_to 7997
  155.7202  140.0767  157.2324 H   0  0  0  0  0  0  0  0  0  0  0  0  # atno 8010 bound_to 7997
  140.7231  143.3747  151.1712 H   0  0  0  0  0  0  0  0  0  0  0  0  # atno 10167 bound_to 10162
  157.1290  131.0512  151.2380 H   0  0  0  0  0  0  0  0  0  0  0  0  # atno 10718 bound_to 10713
  154.7642  135.4905  153.9522 H   0  0  0  0  0  0  0  0  0  0  0  0  # atno 10763 bound_to 10752
  153.1288  135.6748  153.9221 H   0  0  0  0  0  0  0  0  0  0  0  0  # atno 10764 bound_to 10752
  153.8930  135.3118  155.3426 H   0  0  0  0  0  0  0  0  0  0  0  0  # atno 10765 bound_to 10752
  140.5567  134.0232  155.7956 H   0  0  0  0  0  0  0  0  0  0  0  0  # atno 11005 bound_to 11000
  145.2888  139.1891  143.4751 LP  0  0  0  0  0  0  0  0  0  0  0  0  # atno 17320 bound_to 7965
  146.3310  140.2862  142.8613 LP  0  0  0  0  0  0  0  0  0  0  0  0  # atno 17321 bound_to 7965
  139.7325  143.9051  152.3024 LP  0  0  0  0  0  0  0  0  0  0  0  0  # atno 17342 bound_to 10162
  139.8844  144.7000  150.8840 LP  0  0  0  0  0  0  0  0  0  0  0  0  # atno 17343 bound_to 10162
  157.4409  130.7543  149.7068 LP  0  0  0  0  0  0  0  0  0  0  0  0  # atno 17370 bound_to 10713
  155.9812  130.4022  150.3486 LP  0  0  0  0  0  0  0  0  0  0  0  0  # atno 17371 bound_to 10713
  141.1139  133.9571  157.2858 LP  0  0  0  0  0  0  0  0  0  0  0  0  # atno 17394 bound_to 11000
  139.9428  135.0188  156.8761 LP  0  0  0  0  0  0  0  0  0  0  0  0  # atno 17395 bound_to 11000

$$$$
