AV-unprocessed.smi:2525|AV-procd|sdf|9930|dock7
  -GOLD-   2272013573D 1   1.00000     0.00000
 Structure written by MMmdl.
 44 45  0  0  0  0  0  0  0  0  1 V2000
  148.7248  141.3508  155.0417 C   0  0  0  0  0  0  0  0  0  0  0  0
  148.8209  140.6111  156.3882 C   0  0  0  0  0  0  0  0  0  0  0  0
  150.2219  140.0874  156.8148 C   0  0  0  0  0  0  0  0  0  0  0  0
  151.1203  141.3364  156.9901 C   0  0  0  0  0  0  0  0  0  0  0  0
  150.6328  142.3446  158.0457 C   0  0  0  0  0  0  0  0  0  0  0  0
  150.3117  139.0871  158.0065 C   0  0  1  0  0  0  0  0  0  0  0  0
  149.1118  138.2735  158.1917 N   0  0  0  0  0  0  0  0  0  0  0  0
  148.9992  137.2364  159.0347 C   0  0  0  0  0  0  0  0  0  0  0  0
  149.9085  136.8645  159.7754 O   0  0  0  0  0  0  0  0  0  0  0  0
  147.6471  136.5179  159.0631 C   0  0  0  0  0  0  0  0  0  0  0  0
  147.2003  136.2582  160.4220 N   0  0  0  0  0  0  0  0  0  0  0  0
  146.9060  135.0468  161.0134 C   0  0  0  0  0  0  0  0  0  0  0  0
  146.5221  135.3949  162.2767 C   0  0  0  0  0  0  0  0  0  0  0  0
  146.5965  136.7813  162.4005 N   0  0  0  0  0  0  0  0  0  0  0  0
  147.0083  137.2887  161.2814 N   0  0  0  0  0  0  0  0  0  0  0  0
  151.4131  138.3118  157.2605 C   0  0  1  0  0  0  0  0  0  0  0  0
  151.5097  136.7924  157.3888 C   0  0  0  0  0  0  0  0  0  0  0  0
  150.8564  138.9415  155.9751 C   0  0  2  0  0  0  0  0  0  0  0  0
  151.8326  139.4129  155.0575 O   0  0  0  0  0  0  0  0  0  0  0  0
  152.8155  138.4442  154.7374 C   0  0  0  0  0  0  0  0  0  0  0  0
  147.6907  141.6277  154.8357 H   0  0  0  0  0  0  0  0  0  0  0  0
  149.0669  140.7435  154.2048 H   0  0  0  0  0  0  0  0  0  0  0  0
  149.3060  142.2729  155.0536 H   0  0  0  0  0  0  0  0  0  0  0  0
  148.4267  141.2970  157.1390 H   0  0  0  0  0  0  0  0  0  0  0  0
  148.1148  139.7804  156.3697 H   0  0  0  0  0  0  0  0  0  0  0  0
  152.1323  141.0388  157.2654 H   0  0  0  0  0  0  0  0  0  0  0  0
  151.2342  141.8542  156.0368 H   0  0  0  0  0  0  0  0  0  0  0  0
  151.3383  143.1703  158.1372 H   0  0  0  0  0  0  0  0  0  0  0  0
  150.5380  141.8877  159.0303 H   0  0  0  0  0  0  0  0  0  0  0  0
  149.6666  142.7745  157.7827 H   0  0  0  0  0  0  0  0  0  0  0  0
  150.6875  139.5246  158.9322 H   0  0  0  0  0  0  0  0  0  0  0  0
  148.3103  138.5108  157.6251 H   0  0  0  0  0  0  0  0  0  0  0  0
  146.8927  137.1237  158.5596 H   0  0  0  0  0  0  0  0  0  0  0  0
  147.7228  135.5773  158.5156 H   0  0  0  0  0  0  0  0  0  0  0  0
  146.9876  134.0960  160.5071 H   0  0  0  0  0  0  0  0  0  0  0  0
  146.2001  134.7709  163.0975 H   0  0  0  0  0  0  0  0  0  0  0  0
  152.3757  138.7673  157.4993 H   0  0  0  0  0  0  0  0  0  0  0  0
  150.6247  136.2945  156.9909 H   0  0  0  0  0  0  0  0  0  0  0  0
  151.6151  136.4922  158.4312 H   0  0  0  0  0  0  0  0  0  0  0  0
  152.3721  136.4028  156.8486 H   0  0  0  0  0  0  0  0  0  0  0  0
  150.1272  138.2823  155.5032 H   0  0  0  0  0  0  0  0  0  0  0  0
  153.4960  138.8502  153.9892 H   0  0  0  0  0  0  0  0  0  0  0  0
  152.3631  137.5416  154.3252 H   0  0  0  0  0  0  0  0  0  0  0  0
  153.4065  138.1739  155.6119 H   0  0  0  0  0  0  0  0  0  0  0  0
  1  2  1  0  0  0  0
  1 21  1  0  0  0  0
  1 22  1  0  0  0  0
  1 23  1  0  0  0  0
  2  3  1  0  0  0  0
  2 24  1  0  0  0  0
  2 25  1  0  0  0  0
  3 18  1  0  0  0  0
  3  4  1  0  0  0  0
  3  6  1  0  0  0  0
  4  5  1  0  0  0  0
  4 26  1  0  0  0  0
  4 27  1  0  0  0  0
  5 28  1  0  0  0  0
  5 29  1  0  0  0  0
  5 30  1  0  0  0  0
  6  7  1  0  0  0  0
  6 16  1  0  0  0  0
  6 31  1  0  0  0  0
  7  8  1  0  0  0  0
  7 32  1  0  0  0  0
  8  9  2  0  0  0  0
  8 10  1  0  0  0  0
 10 11  1  0  0  0  0
 10 33  1  0  0  0  0
 10 34  1  0  0  0  0
 11 15  1  0  0  0  0
 11 12  1  0  0  0  0
 12 13  2  0  0  0  0
 12 35  1  0  0  0  0
 13 14  1  0  0  0  0
 13 36  1  0  0  0  0
 14 15  2  0  0  0  0
 16 17  1  0  0  0  0
 16 18  1  0  0  0  0
 16 37  1  0  0  0  0
 17 38  1  0  0  0  0
 17 39  1  0  0  0  0
 17 40  1  0  0  0  0
 18 19  1  0  0  0  0
 18 41  1  0  0  0  0
 19 20  1  0  0  0  0
 20 42  1  0  0  0  0
 20 43  1  0  0  0  0
 20 44  1  0  0  0  0
M  END
> <s_m_source_file>
AV-unprocessed.smi

> <i_m_source_file_index>
2525

> <i_lp_mmshare_version>
43012

> <i_f3d_flags>
0

> <s_epik_input>
W0NIM11PW0NAQEhdMVtDQEhdKFtDSDNdKVtDQEBIXShDMShbQ0gyXVtDSDNdKVtDSDJdW0NIM10pW05IXUMoPU8pW0NIMl1uMltjSF1bY0hdbm4y

> <s_epik_cmdline>
J2VwaWtfcHl0aG9uJywgJy1waCcsICc3LjAnLCAnLXRuJywgJzgnLCAnLW1hJywgJzIwMCcsICctbWV0YWxfYmluZGluZycsICctaW1hZScsICc8aW5maWxlLm1hZT4nLCAnLW9tYWUnLCAnPG91dGZpbGUubWFlPic=

> <r_lp_tautomer_probability>
1

> <r_epik_Ionization_Penalty>
1.18045e-06

> <r_epik_Ionization_Penalty_Charging>
0

> <r_epik_Ionization_Penalty_Neutral>
1.18045e-06

> <r_epik_State_Penalty>
-0

> <r_epik_Charging_Adjusted_Penalty>
0

> <i_epik_Tot_Q>
0

> <i_epik_Tot_abs_Q>
0

> <r_epik_Metal_State_Penalty>
-0

> <b_epik_Metal_Only>
0

> <s_lp_Force_Field>
OPLS_2005

> <r_lp_Energy>
28.6674

> <b_lp_Chiralities_Consistent>
1

> <s_lp_Variant>
AV-unprocessed.smi:2525-5

> <Gold.Version>
5.8.1

> <Gold.Id.Protein>
6NUR|6NUR_protein|mol2

> <Gold.PLP.Fitness>
44.2725

> <Gold.PLP.PLP>
-33.6718

> <Gold.PLP.part.hbond>
-4.3656

> <Gold.PLP.part.metal>
0.0000

> <Gold.PLP.part.buried>
-6.9192

> <Gold.PLP.part.nonpolar>
-23.1719

> <Gold.PLP.part.repulsive>
0.1734

> <Gold.PLP.ligand.clash>
0.0000

> <Gold.PLP.ligand.torsion>
0.5948

> <Gold.PLP.Chemscore.Hbond>
3.7360

> <Gold.PLP.Chemscore.CHOScore>
0.0000

> <Gold.PLP.Chemscore.Metal>
0.0000

> <Gold.Chemscore.Hbonds>
donor molecule, donor type, donor heavy atom, donor atom, acceptor molecule, acceptor atom, score
      P1  H  6896  6909       L1     9  0.71
      P1  H  6931  6943       L1    15  0.21
      P1  H  6934  6947       L1    15  1.00
      P1  H  7989  7998       L1    19  0.75

> <Gold.PLP.Chemscore.Internal.Correction>
0.5824

> <Gold.Rescore>
     Score         DG    S(hbond)    S(metal)    S(lipo)     H(rot)  DE(clash)    DE(int)     intcor
     17.50     -18.56       2.67        0.00      79.06       1.98       0.07       0.99       ----

> <Gold.Chemscore.Fitness>
17.5024

> <Gold.Chemscore.DG>
-18.5602

> <Gold.Chemscore.ZeroCoef>
-5.4800

> <Gold.Chemscore.Hbond>
2.6656

> <Gold.Chemscore.Metal>
0.0000

> <Gold.Chemscore.Lipo>
79.0616

> <Gold.Chemscore.Internal_Hbond>
0.0000

> <Gold.Chemscore.DEClash>
0.0659

> <Gold.Chemscore.DEInternal>
0.9919

> <Gold.Chemscore.Rot>
1.9817

> <Gold.Chemscore.Internal.Correction>
   9.000000E+99

> <Gold.Chemscore.Hbonds>
donor molecule, donor type, donor heavy atom, donor atom, acceptor molecule, acceptor atom, score
      P1  H  6896  6909       L1     9  0.71
      P1  H  6931  6943       L1    15  0.06
      P1  H  6934  6947       L1    15  0.99
      P1  H  7989  7998       L1    19  0.56

> <Gold.Chemscore.Hbond.Weighted>
-8.9030

> <Gold.Chemscore.Metal.Weighted>
-0.0000

> <Gold.Chemscore.Lipo.Weighted>
-9.2502

> <Gold.Chemscore.Internal_Hbond.Weighted>
0.0000

> <Gold.Chemscore.DEClash.Weighted>
0.0659

> <Gold.Chemscore.DEInternal.Weighted>
0.9919

> <Gold.Chemscore.Rot.Weighted>
5.0731

> <Gold.Chemscore.Internal.Correction.Weighted>
   9.000000E+99

> <Gold.Protein.RotatedTorsions>
[ 6907 6896 6895 6894 ] final   90.06 input  -60.11 | X-H torsion
[ 7974 7965 7964 7962 ] final   28.20 input  175.53 | X-H torsion
[ 8008 7997 7996 7995 ] final   47.67 input   59.86 | X-H torsion
[ 10167 10162 10161 10158 ] final  -75.53 input  -65.29 | X-H torsion
[ 10718 10713 10712 10709 ] final  -67.77 input   66.30 | X-H torsion
[ 10763 10752 10751 10750 ] final  -22.15 input  -60.55 | X-H torsion
[ 11005 11000 10999 10996 ] final -167.25 input  -57.11 | X-H torsion

> <Gold.Protein.ActiveResidues>
 VAL166  LYS551  ARG553  GLY616  TRP617  ASP618  TYR619  PRO620  LYS621  CYS622 
 ASP623  PHE694  ASN695  SER759  ASP760  ASP761  ALA762  ILE779  LEU786  VAL792 
 PHE793  MET794  SER795  GLU796  ALA797  LYS798  CYS799  TRP800  GLU811  SER814 

> <Gold.Protein.RotatedAtoms>
  152.5441  134.1870  159.8658 H   0  0  0  0  0  0  0  0  0  0  0  0  # atno 6907 bound_to 6896
  151.1868  133.4684  159.2602 H   0  0  0  0  0  0  0  0  0  0  0  0  # atno 6908 bound_to 6896
  151.1123  135.0045  159.8555 H   0  0  0  0  0  0  0  0  0  0  0  0  # atno 6909 bound_to 6896
  146.1742  139.7088  142.8946 H   0  0  0  0  0  0  0  0  0  0  0  0  # atno 7974 bound_to 7965
  155.3729  140.3424  155.4244 H   0  0  0  0  0  0  0  0  0  0  0  0  # atno 8008 bound_to 7997
  156.1652  140.1614  156.8577 H   0  0  0  0  0  0  0  0  0  0  0  0  # atno 8009 bound_to 7997
  154.5178  140.0774  156.8097 H   0  0  0  0  0  0  0  0  0  0  0  0  # atno 8010 bound_to 7997
  140.4934  143.2375  151.7869 H   0  0  0  0  0  0  0  0  0  0  0  0  # atno 10167 bound_to 10162
  156.0540  130.4283  150.1903 H   0  0  0  0  0  0  0  0  0  0  0  0  # atno 10718 bound_to 10713
  153.6475  135.6982  153.5220 H   0  0  0  0  0  0  0  0  0  0  0  0  # atno 10763 bound_to 10752
  153.2733  135.4208  155.1008 H   0  0  0  0  0  0  0  0  0  0  0  0  # atno 10764 bound_to 10752
  154.8485  135.3584  154.6019 H   0  0  0  0  0  0  0  0  0  0  0  0  # atno 10765 bound_to 10752
  140.5554  134.5387  157.5131 H   0  0  0  0  0  0  0  0  0  0  0  0  # atno 11005 bound_to 11000
  145.4257  141.0410  143.2939 LP  0  0  0  0  0  0  0  0  0  0  0  0  # atno 17320 bound_to 7965
  144.8210  139.5791  143.6987 LP  0  0  0  0  0  0  0  0  0  0  0  0  # atno 17321 bound_to 7965
  139.4856  144.4618  151.9531 LP  0  0  0  0  0  0  0  0  0  0  0  0  # atno 17342 bound_to 10162
  140.3706  144.2861  150.5920 LP  0  0  0  0  0  0  0  0  0  0  0  0  # atno 17343 bound_to 10162
  156.9982  130.9914  151.3398 LP  0  0  0  0  0  0  0  0  0  0  0  0  # atno 17370 bound_to 10713
  157.5493  130.8171  149.8125 LP  0  0  0  0  0  0  0  0  0  0  0  0  # atno 17371 bound_to 10713
  139.9434  134.7745  156.0621 LP  0  0  0  0  0  0  0  0  0  0  0  0  # atno 17394 bound_to 11000
  141.1147  133.6632  156.3064 LP  0  0  0  0  0  0  0  0  0  0  0  0  # atno 17395 bound_to 11000

$$$$
