AV-unprocessed.smi:2022|AV-procd|sdf|8188|dock8
  -GOLD-   2272010443D 1   1.00000     0.00000
 Structure written by MMmdl.
 34 35  0  0  0  0  0  0  0  0  1 V2000
  153.4236  142.5454  162.2027 C   0  0  0  0  0  0  0  0  0  0  0  0
  152.5363  142.5402  161.0055 C   0  0  0  0  0  0  0  0  0  0  0  0
  152.6779  142.0315  159.7451 C   0  0  0  0  0  0  0  0  0  0  0  0
  151.4509  142.3791  159.1200 C   0  0  0  0  0  0  0  0  0  0  0  0
  151.1940  142.0209  157.7722 N   0  0  0  0  0  0  0  0  0  0  0  0
  150.0770  141.4667  157.2711 C   0  0  0  0  0  0  0  0  0  0  0  0
  149.0732  141.1784  157.9235 O   0  0  0  0  0  0  0  0  0  0  0  0
  150.1871  141.2602  155.9505 N   0  0  0  0  0  0  0  0  0  0  0  0
  149.1738  140.6405  155.0948 C   0  0  1  0  0  0  0  0  0  0  0  0
  148.4890  141.7117  154.2163 C   0  0  0  0  0  0  0  0  0  0  0  0
  147.0970  141.3051  153.7054 C   0  0  0  0  0  0  0  0  0  0  0  0
  147.0781  140.0765  152.7835 C   0  0  0  0  0  0  0  0  0  0  0  0
  147.5087  138.7742  153.4799 C   0  0  0  0  0  0  0  0  0  0  0  0
  148.9565  138.6606  153.6060 N   0  0  0  0  0  0  0  0  0  0  0  0
  149.7745  139.4637  154.3030 C   0  0  0  0  0  0  0  0  0  0  0  0
  150.9898  139.2684  154.3032 O   0  0  0  0  0  0  0  0  0  0  0  0
  150.6353  143.0433  159.9250 N   0  0  0  0  0  0  0  0  0  0  0  0
  151.3267  143.1492  161.1377 O   0  0  0  0  0  0  0  0  0  0  0  0
  154.4136  142.1617  161.9554 H   0  0  0  0  0  0  0  0  0  0  0  0
  153.0071  141.9212  162.9933 H   0  0  0  0  0  0  0  0  0  0  0  0
  153.5410  143.5562  162.5938 H   0  0  0  0  0  0  0  0  0  0  0  0
  153.5231  141.4955  159.3396 H   0  0  0  0  0  0  0  0  0  0  0  0
  151.9434  142.2008  157.1207 H   0  0  0  0  0  0  0  0  0  0  0  0
  151.0509  141.5235  155.4990 H   0  0  0  0  0  0  0  0  0  0  0  0
  148.4229  140.2080  155.7590 H   0  0  0  0  0  0  0  0  0  0  0  0
  148.3647  142.6300  154.7914 H   0  0  0  0  0  0  0  0  0  0  0  0
  149.1340  141.9766  153.3771 H   0  0  0  0  0  0  0  0  0  0  0  0
  146.4353  141.1322  154.5550 H   0  0  0  0  0  0  0  0  0  0  0  0
  146.6690  142.1495  153.1643 H   0  0  0  0  0  0  0  0  0  0  0  0
  146.0588  139.9474  152.4180 H   0  0  0  0  0  0  0  0  0  0  0  0
  147.6910  140.2548  151.8989 H   0  0  0  0  0  0  0  0  0  0  0  0
  147.0310  138.6707  154.4552 H   0  0  0  0  0  0  0  0  0  0  0  0
  147.1743  137.9244  152.8845 H   0  0  0  0  0  0  0  0  0  0  0  0
  149.3868  137.9001  153.1000 H   0  0  0  0  0  0  0  0  0  0  0  0
  1  2  1  0  0  0  0
  1 19  1  0  0  0  0
  1 20  1  0  0  0  0
  1 21  1  0  0  0  0
  2 18  1  0  0  0  0
  2  3  2  0  0  0  0
  3  4  1  0  0  0  0
  3 22  1  0  0  0  0
  4  5  1  0  0  0  0
  4 17  2  0  0  0  0
  5  6  1  0  0  0  0
  5 23  1  0  0  0  0
  6  7  2  0  0  0  0
  6  8  1  0  0  0  0
  8  9  1  0  0  0  0
  8 24  1  0  0  0  0
  9 15  1  0  0  0  0
  9 10  1  0  0  0  0
  9 25  1  0  0  0  0
 10 11  1  0  0  0  0
 10 26  1  0  0  0  0
 10 27  1  0  0  0  0
 11 12  1  0  0  0  0
 11 28  1  0  0  0  0
 11 29  1  0  0  0  0
 12 13  1  0  0  0  0
 12 30  1  0  0  0  0
 12 31  1  0  0  0  0
 13 14  1  0  0  0  0
 13 32  1  0  0  0  0
 13 33  1  0  0  0  0
 14 15  1  0  0  0  0
 14 34  1  0  0  0  0
 15 16  2  0  0  0  0
 17 18  1  0  0  0  0
M  END
> <s_m_source_file>
AV-unprocessed.smi

> <i_m_source_file_index>
2022

> <i_lp_mmshare_version>
43012

> <i_f3d_flags>
0

> <s_epik_input>
W0NIM11jMVtjSF1jKG5vMSlbTkhdQyg9TylbTkhdW0NAQEhdMltDSDJdW0NIMl1bQ0gyXVtDSDJdW05IXUMyPU8=

> <s_epik_cmdline>
J2VwaWtfcHl0aG9uJywgJy1waCcsICc3LjAnLCAnLXRuJywgJzgnLCAnLW1hJywgJzIwMCcsICctbWV0YWxfYmluZGluZycsICctaW1hZScsICc8aW5maWxlLm1hZT4nLCAnLW9tYWUnLCAnPG91dGZpbGUubWFlPic=

> <r_lp_tautomer_probability>
1

> <r_epik_Ionization_Penalty>
2.27343e-05

> <r_epik_Ionization_Penalty_Charging>
0

> <r_epik_Ionization_Penalty_Neutral>
2.27343e-05

> <r_epik_State_Penalty>
-0

> <r_epik_Charging_Adjusted_Penalty>
0

> <i_epik_Tot_Q>
0

> <i_epik_Tot_abs_Q>
0

> <r_epik_Metal_State_Penalty>
-0

> <b_epik_Metal_Only>
0

> <s_lp_Force_Field>
OPLS_2005

> <r_lp_Energy>
7.86792

> <b_lp_Chiralities_Consistent>
1

> <s_lp_Variant>
AV-unprocessed.smi:2022-2

> <Gold.Version>
5.8.1

> <Gold.Id.Protein>
6NUR|6NUR_protein|mol2

> <Gold.PLP.Fitness>
39.9517

> <Gold.PLP.PLP>
-35.0747

> <Gold.PLP.part.hbond>
-5.0000

> <Gold.PLP.part.metal>
0.0000

> <Gold.PLP.part.buried>
-2.8233

> <Gold.PLP.part.nonpolar>
-27.4642

> <Gold.PLP.part.repulsive>
0.5743

> <Gold.PLP.ligand.clash>
0.0000

> <Gold.PLP.ligand.torsion>
0.4945

> <Gold.PLP.Chemscore.Hbond>
1.9461

> <Gold.PLP.Chemscore.CHOScore>
0.0000

> <Gold.PLP.Chemscore.Metal>
0.0000

> <Gold.Chemscore.Hbonds>
donor molecule, donor type, donor heavy atom, donor atom, acceptor molecule, acceptor atom, score
      L1  H    14    34       P1  7948  0.76
      P1  H  6933  6945       L1    18  0.14
      P1  H  7989  7998       L1    16  1.00

> <Gold.PLP.Chemscore.Internal.Correction>
0.0275

> <Gold.Rescore>
     Score         DG    S(hbond)    S(metal)    S(lipo)     H(rot)  DE(clash)    DE(int)     intcor
     15.86     -16.62       1.69        0.00      68.92       1.00       0.29       0.47       ----

> <Gold.Chemscore.Fitness>
15.8610

> <Gold.Chemscore.DG>
-16.6199

> <Gold.Chemscore.ZeroCoef>
-5.4800

> <Gold.Chemscore.Hbond>
1.6874

> <Gold.Chemscore.Metal>
0.0000

> <Gold.Chemscore.Lipo>
68.9226

> <Gold.Chemscore.Internal_Hbond>
0.0000

> <Gold.Chemscore.DEClash>
0.2932

> <Gold.Chemscore.DEInternal>
0.4657

> <Gold.Chemscore.Rot>
1.0000

> <Gold.Chemscore.Internal.Correction>
   9.000000E+99

> <Gold.Chemscore.Hbonds>
donor molecule, donor type, donor heavy atom, donor atom, acceptor molecule, acceptor atom, score
      L1  H    14    34       P1  7948  0.69
      P1  H  6933  6945       L1    18  0.01
      P1  H  7989  7998       L1    16  0.35

> <Gold.Chemscore.Hbond.Weighted>
-5.6360

> <Gold.Chemscore.Metal.Weighted>
-0.0000

> <Gold.Chemscore.Lipo.Weighted>
-8.0639

> <Gold.Chemscore.Internal_Hbond.Weighted>
0.0000

> <Gold.Chemscore.DEClash.Weighted>
0.2932

> <Gold.Chemscore.DEInternal.Weighted>
0.4657

> <Gold.Chemscore.Rot.Weighted>
2.5600

> <Gold.Chemscore.Internal.Correction.Weighted>
   9.000000E+99

> <Gold.Protein.RotatedTorsions>
[ 6907 6896 6895 6894 ] final  106.04 input  -60.11 | X-H torsion
[ 7974 7965 7964 7962 ] final  -47.31 input  175.53 | X-H torsion
[ 8008 7997 7996 7995 ] final  -12.57 input   59.86 | X-H torsion
[ 10167 10162 10161 10158 ] final  108.36 input  -65.29 | X-H torsion
[ 10718 10713 10712 10709 ] final  110.33 input   66.30 | X-H torsion
[ 10763 10752 10751 10750 ] final   43.24 input  -60.55 | X-H torsion
[ 11005 11000 10999 10996 ] final   47.04 input  -57.11 | X-H torsion

> <Gold.Protein.ActiveResidues>
 VAL166  LYS551  ARG553  GLY616  TRP617  ASP618  TYR619  PRO620  LYS621  CYS622 
 ASP623  PHE694  ASN695  SER759  ASP760  ASP761  ALA762  ILE779  LEU786  VAL792 
 PHE793  MET794  SER795  GLU796  ALA797  LYS798  CYS799  TRP800  GLU811  SER814 

> <Gold.Protein.RotatedAtoms>
  152.5208  133.9440  159.7639 H   0  0  0  0  0  0  0  0  0  0  0  0  # atno 6907 bound_to 6896
  150.9764  133.6283  159.2736 H   0  0  0  0  0  0  0  0  0  0  0  0  # atno 6908 bound_to 6896
  151.3476  135.0883  159.9445 H   0  0  0  0  0  0  0  0  0  0  0  0  # atno 6909 bound_to 6896
  145.9629  140.7461  142.9448 H   0  0  0  0  0  0  0  0  0  0  0  0  # atno 7974 bound_to 7965
  154.5366  140.2272  155.8712 H   0  0  0  0  0  0  0  0  0  0  0  0  # atno 8008 bound_to 7997
  156.1817  140.3098  155.9125 H   0  0  0  0  0  0  0  0  0  0  0  0  # atno 8009 bound_to 7997
  155.3342  140.0447  157.3034 H   0  0  0  0  0  0  0  0  0  0  0  0  # atno 8010 bound_to 7997
  139.6852  144.7114  151.1445 H   0  0  0  0  0  0  0  0  0  0  0  0  # atno 10167 bound_to 10162
  157.6499  131.0930  150.6585 H   0  0  0  0  0  0  0  0  0  0  0  0  # atno 10718 bound_to 10713
  152.9865  135.6107  154.3079 H   0  0  0  0  0  0  0  0  0  0  0  0  # atno 10763 bound_to 10752
  154.2796  135.2777  155.2705 H   0  0  0  0  0  0  0  0  0  0  0  0  # atno 10764 bound_to 10752
  154.5050  135.5856  153.6617 H   0  0  0  0  0  0  0  0  0  0  0  0  # atno 10765 bound_to 10752
  140.1314  134.4700  155.8518 H   0  0  0  0  0  0  0  0  0  0  0  0  # atno 11005 bound_to 11000
  144.6819  140.2620  143.7317 LP  0  0  0  0  0  0  0  0  0  0  0  0  # atno 17320 bound_to 7965
  145.8015  139.1966  143.2045 LP  0  0  0  0  0  0  0  0  0  0  0  0  # atno 17321 bound_to 7965
  140.7665  143.5640  150.9068 LP  0  0  0  0  0  0  0  0  0  0  0  0  # atno 17342 bound_to 10162
  139.9314  143.6488  152.3075 LP  0  0  0  0  0  0  0  0  0  0  0  0  # atno 17343 bound_to 10162
  156.6898  130.4591  149.5603 LP  0  0  0  0  0  0  0  0  0  0  0  0  # atno 17370 bound_to 10713
  156.1870  130.6535  151.1018 LP  0  0  0  0  0  0  0  0  0  0  0  0  # atno 17371 bound_to 10713
  141.2171  133.6797  156.7077 LP  0  0  0  0  0  0  0  0  0  0  0  0  # atno 17394 bound_to 11000
  140.2837  134.8296  157.3956 LP  0  0  0  0  0  0  0  0  0  0  0  0  # atno 17395 bound_to 11000

$$$$
