AV-unprocessed.smi:2278|AV-procd|sdf|9182|dock8
  -GOLD-   2272012403D 1   1.00000     0.00000
 Structure written by MMmdl.
 46 47  0  0  0  0  0  0  0  0  2 V2000
  144.7197  132.2310  149.8569 C   0  0  0  0  0  0  0  0  0  0  0  0
  144.8768  133.4488  150.7499 C   0  0  0  0  0  0  0  0  0  0  0  0
  143.9951  134.5033  150.4942 N   0  0  0  0  0  0  0  0  0  0  0  0
  144.0555  135.5817  151.2045 C   0  0  0  0  0  0  0  0  0  0  0  0
  144.9931  135.7310  152.2394 N   0  0  0  0  0  0  0  0  0  0  0  0
  144.9702  137.0121  152.9647 C   0  0  0  0  0  0  0  0  0  0  0  0
  146.2234  137.8680  152.6711 C   0  0  1  0  0  0  0  0  0  0  0  0
  146.2500  138.1587  151.2873 O   0  0  0  0  0  0  0  0  0  0  0  0
  146.1814  139.2143  153.4226 C   0  0  0  0  0  0  0  0  0  0  0  0
  147.5322  139.6735  153.8364 N   0  3  2  0  0  0  0  0  0  0  0  0
  148.3675  138.5908  154.4209 C   0  0  0  0  0  0  0  0  0  0  0  0
  149.7988  139.0838  154.6986 C   0  0  0  0  0  0  0  0  0  0  0  0
  149.8207  140.3297  155.6027 C   0  0  2  0  0  0  0  0  0  0  0  0
  149.5006  140.0043  157.0723 C   0  0  0  0  0  0  0  0  0  0  0  0
  148.8896  141.4053  155.0141 C   0  0  0  0  0  0  0  0  0  0  0  0
  147.4785  140.8618  154.7255 C   0  0  0  0  0  0  0  0  0  0  0  0
  145.8920  134.7532  152.5528 C   0  0  0  0  0  0  0  0  0  0  0  0
  146.7191  134.9028  153.4547 O   0  0  0  0  0  0  0  0  0  0  0  0
  145.8089  133.5305  151.7382 C   0  0  0  0  0  0  0  0  0  0  0  0
  146.7962  132.4162  152.0618 C   0  0  0  0  0  0  0  0  0  0  0  0
  144.4927  131.3463  150.4523 H   0  0  0  0  0  0  0  0  0  0  0  0
  145.6365  132.0486  149.2956 H   0  0  0  0  0  0  0  0  0  0  0  0
  143.9098  132.3665  149.1387 H   0  0  0  0  0  0  0  0  0  0  0  0
  143.3928  136.4336  151.0428 H   0  0  0  0  0  0  0  0  0  0  0  0
  144.0586  137.5829  152.7744 H   0  0  0  0  0  0  0  0  0  0  0  0
  144.9222  136.7894  154.0324 H   0  0  0  0  0  0  0  0  0  0  0  0
  147.1258  137.3178  152.9344 H   0  0  0  0  0  0  0  0  0  0  0  0
  145.3642  138.3071  150.9920 H   0  0  0  0  0  0  0  0  0  0  0  0
  145.7126  139.9582  152.7761 H   0  0  0  0  0  0  0  0  0  0  0  0
  145.5470  139.1423  154.3075 H   0  0  0  0  0  0  0  0  0  0  0  0
  147.9054  138.2257  155.3391 H   0  0  0  0  0  0  0  0  0  0  0  0
  148.4169  137.7405  153.7420 H   0  0  0  0  0  0  0  0  0  0  0  0
  150.3911  138.2834  155.1435 H   0  0  0  0  0  0  0  0  0  0  0  0
  150.2796  139.3229  153.7490 H   0  0  0  0  0  0  0  0  0  0  0  0
  150.8358  140.7290  155.5891 H   0  0  0  0  0  0  0  0  0  0  0  0
  148.4983  139.5948  157.1954 H   0  0  0  0  0  0  0  0  0  0  0  0
  149.5693  140.8978  157.6933 H   0  0  0  0  0  0  0  0  0  0  0  0
  150.2055  139.2750  157.4723 H   0  0  0  0  0  0  0  0  0  0  0  0
  148.8309  142.2631  155.6850 H   0  0  0  0  0  0  0  0  0  0  0  0
  149.3203  141.7793  154.0842 H   0  0  0  0  0  0  0  0  0  0  0  0
  146.8893  141.6475  154.2509 H   0  0  0  0  0  0  0  0  0  0  0  0
  146.9675  140.6039  155.6541 H   0  0  0  0  0  0  0  0  0  0  0  0
  147.8193  132.7755  151.9464 H   0  0  0  0  0  0  0  0  0  0  0  0
  146.6826  131.5422  151.4227 H   0  0  0  0  0  0  0  0  0  0  0  0
  146.6673  132.0874  153.0935 H   0  0  0  0  0  0  0  0  0  0  0  0
  147.9924  139.9789  152.9904 H   0  0  0  0  0  0  0  0  0  0  0  0
  1  2  1  0  0  0  0
  1 21  1  0  0  0  0
  1 22  1  0  0  0  0
  1 23  1  0  0  0  0
  2 19  2  0  0  0  0
  2  3  1  0  0  0  0
  3  4  2  0  0  0  0
  4  5  1  0  0  0  0
  4 24  1  0  0  0  0
  5  6  1  0  0  0  0
  5 17  1  0  0  0  0
  6  7  1  0  0  0  0
  6 25  1  0  0  0  0
  6 26  1  0  0  0  0
  7  8  1  0  0  0  0
  7  9  1  0  0  0  0
  7 27  1  0  0  0  0
  8 28  1  0  0  0  0
  9 10  1  0  0  0  0
  9 29  1  0  0  0  0
  9 30  1  0  0  0  0
 10 16  1  0  0  0  0
 10 11  1  0  0  0  0
 10 46  1  0  0  0  0
 11 12  1  0  0  0  0
 11 31  1  0  0  0  0
 11 32  1  0  0  0  0
 12 13  1  0  0  0  0
 12 33  1  0  0  0  0
 12 34  1  0  0  0  0
 13 14  1  0  0  0  0
 13 15  1  0  0  0  0
 13 35  1  0  0  0  0
 14 36  1  0  0  0  0
 14 37  1  0  0  0  0
 14 38  1  0  0  0  0
 15 16  1  0  0  0  0
 15 39  1  0  0  0  0
 15 40  1  0  0  0  0
 16 41  1  0  0  0  0
 16 42  1  0  0  0  0
 17 18  2  0  0  0  0
 17 19  1  0  0  0  0
 19 20  1  0  0  0  0
 20 43  1  0  0  0  0
 20 44  1  0  0  0  0
 20 45  1  0  0  0  0
M  CHG  1  10   1
M  END
> <s_m_source_file>
AV-unprocessed.smi

> <i_m_source_file_index>
2278

> <i_lp_mmshare_version>
43012

> <i_f3d_flags>
0

> <s_epik_input>
W0NIM11jMW5bY0hdbihjKD1PKWMxW0NIM10pW0NIMl1bQ0BIXShbT0hdKVtDSDJdTjJbQ0gyXVtDSDJdW0NIXShbQ0gzXSlbQ0gyXVtDSDJdMg==

> <s_epik_cmdline>
J2VwaWtfcHl0aG9uJywgJy1waCcsICc3LjAnLCAnLXRuJywgJzgnLCAnLW1hJywgJzIwMCcsICctbWV0YWxfYmluZGluZycsICctaW1hZScsICc8aW5maWxlLm1hZT4nLCAnLW9tYWUnLCAnPG91dGZpbGUubWFlPic=

> <r_lp_tautomer_probability>
1

> <r_epik_Ionization_Penalty>
0.00139489

> <r_epik_Ionization_Penalty_Charging>
0.00136819

> <r_epik_Ionization_Penalty_Neutral>
2.66975e-05

> <r_epik_State_Penalty>
0.000910892

> <r_epik_Charging_Adjusted_Penalty>
0.00227908

> <i_epik_Tot_Q>
1

> <i_epik_Tot_abs_Q>
1

> <r_epik_Metal_State_Penalty>
-0

> <b_epik_Metal_Only>
0

> <s_lp_Force_Field>
OPLS_2005

> <r_lp_Energy>
31.1112

> <b_lp_Chiralities_Consistent>
1

> <s_lp_Variant>
AV-unprocessed.smi:2278-4

> <Gold.Version>
5.8.1

> <Gold.Id.Protein>
6NUR|6NUR_protein|mol2

> <Gold.PLP.Fitness>
46.9579

> <Gold.PLP.PLP>
-36.1684

> <Gold.PLP.part.hbond>
-3.8277

> <Gold.PLP.part.metal>
0.0000

> <Gold.PLP.part.buried>
-1.8085

> <Gold.PLP.part.nonpolar>
-32.6595

> <Gold.PLP.part.repulsive>
1.5232

> <Gold.PLP.ligand.clash>
0.0000

> <Gold.PLP.ligand.torsion>
0.6164

> <Gold.PLP.Chemscore.Hbond>
3.0000

> <Gold.PLP.Chemscore.CHOScore>
1.0000

> <Gold.PLP.Chemscore.Metal>
0.0000

> <Gold.Chemscore.Hbonds>
donor molecule, donor type, donor heavy atom, donor atom, acceptor molecule, acceptor atom, score
      L1  H     8    28       P1 10171  1.00
      P1  H  7954  7966       L1     8  0.11
      L1  C     4    24       P1 10171  0.98

> <Gold.PLP.Chemscore.Internal.Correction>
0.0223

> <Gold.Rescore>
     Score         DG    S(hbond)    S(metal)    S(lipo)     H(rot)  DE(clash)    DE(int)     intcor
     18.40     -19.25       2.95        0.00      81.54       2.20       0.17       0.67       ----

> <Gold.Chemscore.Fitness>
18.4041

> <Gold.Chemscore.DG>
-19.2485

> <Gold.Chemscore.ZeroCoef>
-5.4800

> <Gold.Chemscore.Hbond>
2.9513

> <Gold.Chemscore.Metal>
0.0000

> <Gold.Chemscore.Lipo>
81.5354

> <Gold.Chemscore.Internal_Hbond>
0.0000

> <Gold.Chemscore.DEClash>
0.1731

> <Gold.Chemscore.DEInternal>
0.6713

> <Gold.Chemscore.Rot>
2.1986

> <Gold.Chemscore.Internal.Correction>
   9.000000E+99

> <Gold.Chemscore.Hbonds>
donor molecule, donor type, donor heavy atom, donor atom, acceptor molecule, acceptor atom, score
      L1  H     8    28       P1 10171  0.99
      L1  H    10    46       P1  7957  0.06
      P1  H  7954  7966       L1     8  0.14

> <Gold.Chemscore.Hbond.Weighted>
-9.8573

> <Gold.Chemscore.Metal.Weighted>
-0.0000

> <Gold.Chemscore.Lipo.Weighted>
-9.5396

> <Gold.Chemscore.Internal_Hbond.Weighted>
0.0000

> <Gold.Chemscore.DEClash.Weighted>
0.1731

> <Gold.Chemscore.DEInternal.Weighted>
0.6713

> <Gold.Chemscore.Rot.Weighted>
5.6285

> <Gold.Chemscore.Internal.Correction.Weighted>
   9.000000E+99

> <Gold.Protein.RotatedTorsions>
[ 6907 6896 6895 6894 ] final   16.40 input  -60.11 | X-H torsion
[ 7974 7965 7964 7962 ] final  152.35 input  175.53 | X-H torsion
[ 8008 7997 7996 7995 ] final   89.44 input   59.86 | X-H torsion
[ 10167 10162 10161 10158 ] final -169.96 input  -65.29 | X-H torsion
[ 10718 10713 10712 10709 ] final  131.70 input   66.30 | X-H torsion
[ 10763 10752 10751 10750 ] final  148.62 input  -60.55 | X-H torsion
[ 11005 11000 10999 10996 ] final  -74.74 input  -57.11 | X-H torsion

> <Gold.Protein.ActiveResidues>
 VAL166  LYS551  ARG553  GLY616  TRP617  ASP618  TYR619  PRO620  LYS621  CYS622 
 ASP623  PHE694  ASN695  SER759  ASP760  ASP761  ALA762  ILE779  LEU786  VAL792 
 PHE793  MET794  SER795  GLU796  ALA797  LYS798  CYS799  TRP800  GLU811  SER814 

> <Gold.Protein.RotatedAtoms>
  151.8333  135.0614  160.0439 H   0  0  0  0  0  0  0  0  0  0  0  0  # atno 6907 bound_to 6896
  152.2864  133.5514  159.5538 H   0  0  0  0  0  0  0  0  0  0  0  0  # atno 6908 bound_to 6896
  150.7211  134.0407  159.3807 H   0  0  0  0  0  0  0  0  0  0  0  0  # atno 6909 bound_to 6896
  144.8229  139.6656  143.6093 H   0  0  0  0  0  0  0  0  0  0  0  0  # atno 7974 bound_to 7965
  155.9999  140.3360  155.6836 H   0  0  0  0  0  0  0  0  0  0  0  0  # atno 8008 bound_to 7997
  155.6304  140.0684  157.2668 H   0  0  0  0  0  0  0  0  0  0  0  0  # atno 8009 bound_to 7997
  154.4246  140.1760  156.1454 H   0  0  0  0  0  0  0  0  0  0  0  0  # atno 8010 bound_to 7997
  139.5891  144.1253  152.1612 H   0  0  0  0  0  0  0  0  0  0  0  0  # atno 10167 bound_to 10162
  157.4942  131.1092  150.9515 H   0  0  0  0  0  0  0  0  0  0  0  0  # atno 10718 bound_to 10713
  154.0578  135.2876  155.3330 H   0  0  0  0  0  0  0  0  0  0  0  0  # atno 10763 bound_to 10752
  154.6828  135.5257  153.8289 H   0  0  0  0  0  0  0  0  0  0  0  0  # atno 10764 bound_to 10752
  153.0534  135.6586  154.0769 H   0  0  0  0  0  0  0  0  0  0  0  0  # atno 10765 bound_to 10752
  141.1638  133.6922  156.7410 H   0  0  0  0  0  0  0  0  0  0  0  0  # atno 11005 bound_to 11000
  146.2534  139.6249  142.9411 LP  0  0  0  0  0  0  0  0  0  0  0  0  # atno 17320 bound_to 7965
  145.5065  141.0436  143.2511 LP  0  0  0  0  0  0  0  0  0  0  0  0  # atno 17321 bound_to 7965
  140.0823  144.5690  150.7113 LP  0  0  0  0  0  0  0  0  0  0  0  0  # atno 17342 bound_to 10162
  140.7157  143.2543  151.4441 LP  0  0  0  0  0  0  0  0  0  0  0  0  # atno 17343 bound_to 10162
  157.0207  130.5673  149.5331 LP  0  0  0  0  0  0  0  0  0  0  0  0  # atno 17370 bound_to 10713
  156.0191  130.5286  150.8222 LP  0  0  0  0  0  0  0  0  0  0  0  0  # atno 17371 bound_to 10713
  140.2674  134.8419  157.3815 LP  0  0  0  0  0  0  0  0  0  0  0  0  # atno 17394 bound_to 11000
  140.1553  134.4797  155.7932 LP  0  0  0  0  0  0  0  0  0  0  0  0  # atno 17395 bound_to 11000

$$$$
