AV-unprocessed.smi:241|AV-procd|sdf|1842|dock5
  -GOLD-   2262020453D 1   1.00000     0.00000
 Structure written by MMmdl.
 54 57  0  0  0  0  0  0  0  0  1 V2000
  156.1144  140.3257  162.3661 C   0  0  0  0  0  0  0  0  0  0  0  0
  155.4069  140.8376  161.2486 O   0  0  0  0  0  0  0  0  0  0  0  0
  154.3355  140.0108  160.8166 C   0  0  0  0  0  0  0  0  0  0  0  0
  153.5181  140.7039  159.7093 C   0  0  2  0  0  0  0  0  0  0  0  0
  153.2412  142.1885  159.9428 C   0  0  0  0  0  0  0  0  0  0  0  0
  152.0843  142.4485  158.9829 C   0  0  2  0  0  0  0  0  0  0  0  0
  151.3327  143.5824  159.3899 O   0  0  0  0  0  0  0  0  0  0  0  0
  152.0027  144.8121  159.1656 C   0  0  0  0  0  0  0  0  0  0  0  0
  151.2854  141.1372  159.0344 C   0  0  0  0  0  0  0  0  0  0  0  0
  152.1917  140.1148  159.5491 N   0  0  0  0  0  0  0  0  0  0  0  0
  152.1402  138.9343  158.8940 C   0  0  0  0  0  0  0  0  0  0  0  0
  153.1995  138.5167  158.1516 N   0  0  0  0  0  0  0  0  0  0  0  0
  153.1410  137.3468  157.5075 C   0  0  0  0  0  0  0  0  0  0  0  0
  152.1401  136.4639  157.4685 N   0  0  0  0  0  0  0  0  0  0  0  0
  151.0754  136.8868  158.2095 C   0  0  0  0  0  0  0  0  0  0  0  0
  150.9961  138.0976  158.9518 C   0  0  0  0  0  0  0  0  0  0  0  0
  149.7695  138.1847  159.5967 N   0  0  0  0  0  0  0  0  0  0  0  0
  149.1580  137.0820  159.2587 C   0  0  0  0  0  0  0  0  0  0  0  0
  149.8582  136.2585  158.4046 N   0  0  0  0  0  0  0  0  0  0  0  0
  149.4437  134.9798  157.9066 C   0  0  0  0  0  0  0  0  0  0  0  0
  149.0139  134.8039  156.4492 C   0  0  0  0  0  0  0  0  0  0  0  0
  148.0237  133.6984  156.8841 C   0  0  0  0  0  0  0  0  0  0  0  0
  146.6367  133.7237  156.2186 C   0  0  0  0  0  0  0  0  0  0  0  0
  146.0945  135.0275  156.1672 O   0  0  0  0  0  0  0  0  0  0  0  0
  148.5608  132.2516  156.8831 C   0  0  0  0  0  0  0  0  0  0  0  0
  147.7564  131.3872  157.6584 O   0  0  0  0  0  0  0  0  0  0  0  0
  148.0793  134.3862  158.2669 C   0  0  0  0  0  0  0  0  0  0  0  0
  154.0627  140.6061  158.7688 H   0  0  0  0  0  0  0  0  0  0  0  0
  152.4921  142.5945  157.9806 H   0  0  0  0  0  0  0  0  0  0  0  0
  156.9058  141.0208  162.6462 H   0  0  0  0  0  0  0  0  0  0  0  0
  156.5802  139.3687  162.1277 H   0  0  0  0  0  0  0  0  0  0  0  0
  155.4655  140.1908  163.2307 H   0  0  0  0  0  0  0  0  0  0  0  0
  154.7877  139.1044  160.4132 H   0  0  0  0  0  0  0  0  0  0  0  0
  153.6977  139.6891  161.6421 H   0  0  0  0  0  0  0  0  0  0  0  0
  152.9215  142.3577  160.9724 H   0  0  0  0  0  0  0  0  0  0  0  0
  154.1057  142.8217  159.7420 H   0  0  0  0  0  0  0  0  0  0  0  0
  151.3786  145.6357  159.5117 H   0  0  0  0  0  0  0  0  0  0  0  0
  152.2062  144.9711  158.1061 H   0  0  0  0  0  0  0  0  0  0  0  0
  152.9452  144.8530  159.7126 H   0  0  0  0  0  0  0  0  0  0  0  0
  150.4573  141.2258  159.7382 H   0  0  0  0  0  0  0  0  0  0  0  0
  150.8620  140.8910  158.0594 H   0  0  0  0  0  0  0  0  0  0  0  0
  154.0211  137.0809  156.9407 H   0  0  0  0  0  0  0  0  0  0  0  0
  148.1692  136.8422  159.6222 H   0  0  0  0  0  0  0  0  0  0  0  0
  150.2475  134.2852  158.1563 H   0  0  0  0  0  0  0  0  0  0  0  0
  148.5138  135.6895  156.0524 H   0  0  0  0  0  0  0  0  0  0  0  0
  149.8121  134.4785  155.7817 H   0  0  0  0  0  0  0  0  0  0  0  0
  146.6770  133.3178  155.2072 H   0  0  0  0  0  0  0  0  0  0  0  0
  145.9325  133.1001  156.7701 H   0  0  0  0  0  0  0  0  0  0  0  0
  146.3425  135.4242  155.3461 H   0  0  0  0  0  0  0  0  0  0  0  0
  148.5994  131.8441  155.8727 H   0  0  0  0  0  0  0  0  0  0  0  0
  149.5821  132.2119  157.2630 H   0  0  0  0  0  0  0  0  0  0  0  0
  147.1553  130.9422  157.0796 H   0  0  0  0  0  0  0  0  0  0  0  0
  148.0945  133.7065  159.1196 H   0  0  0  0  0  0  0  0  0  0  0  0
  147.3126  135.1526  158.3951 H   0  0  0  0  0  0  0  0  0  0  0  0
  1  2  1  0  0  0  0
  1 30  1  0  0  0  0
  1 31  1  0  0  0  0
  1 32  1  0  0  0  0
  2  3  1  0  0  0  0
  3  4  1  0  0  0  0
  3 33  1  0  0  0  0
  3 34  1  0  0  0  0
  4 28  1  0  0  0  0
  4 10  1  0  0  0  0
  4  5  1  0  0  0  0
  5  6  1  0  0  0  0
  5 35  1  0  0  0  0
  5 36  1  0  0  0  0
  6 29  1  0  0  0  0
  6  7  1  0  0  0  0
  6  9  1  0  0  0  0
  7  8  1  0  0  0  0
  8 37  1  0  0  0  0
  8 38  1  0  0  0  0
  8 39  1  0  0  0  0
  9 10  1  0  0  0  0
  9 40  1  0  0  0  0
  9 41  1  0  0  0  0
 10 11  1  0  0  0  0
 11 16  1  0  0  0  0
 11 12  2  0  0  0  0
 12 13  1  0  0  0  0
 13 14  2  0  0  0  0
 13 42  1  0  0  0  0
 14 15  1  0  0  0  0
 15 19  1  0  0  0  0
 15 16  2  0  0  0  0
 16 17  1  0  0  0  0
 17 18  2  0  0  0  0
 18 19  1  0  0  0  0
 18 43  1  0  0  0  0
 19 20  1  0  0  0  0
 20 27  1  0  0  0  0
 20 21  1  0  0  0  0
 20 44  1  0  0  0  0
 21 22  1  0  0  0  0
 21 45  1  0  0  0  0
 21 46  1  0  0  0  0
 22 23  1  0  0  0  0
 22 25  1  0  0  0  0
 22 27  1  0  0  0  0
 23 24  1  0  0  0  0
 23 47  1  0  0  0  0
 23 48  1  0  0  0  0
 24 49  1  0  0  0  0
 25 26  1  0  0  0  0
 25 50  1  0  0  0  0
 25 51  1  0  0  0  0
 26 52  1  0  0  0  0
 27 53  1  0  0  0  0
 27 54  1  0  0  0  0
M  END
> <s_m_source_file>
AV-unprocessed.smi

> <i_m_source_file_index>
241

> <i_lp_mmshare_version>
43012

> <i_f3d_flags>
0

> <s_epik_input>
W0NIM11PW0NIMl1bQ0BASF0xW0NIMl1bQ0BASF0oT1tDSDNdKVtDSDJdTjFjKG5bY0hdbjIpYyhjMjMpbltjSF1uM1tDSF0oW0NIMl00KVtDSDJdQzQoW0NIMl1bT0hdKVtDSDJdW09IXQ==

> <s_epik_cmdline>
J2VwaWtfcHl0aG9uJywgJy1waCcsICc3LjAnLCAnLXRuJywgJzgnLCAnLW1hJywgJzIwMCcsICctbWV0YWxfYmluZGluZycsICctaW1hZScsICc8aW5maWxlLm1hZT4nLCAnLW9tYWUnLCAnPG91dGZpbGUubWFlPic=

> <r_lp_tautomer_probability>
1

> <r_epik_Ionization_Penalty>
0.00568677

> <r_epik_Ionization_Penalty_Charging>
0

> <r_epik_Ionization_Penalty_Neutral>
0.00568677

> <r_epik_State_Penalty>
0.00400877

> <r_epik_Charging_Adjusted_Penalty>
0.00400877

> <i_epik_Tot_Q>
0

> <i_epik_Tot_abs_Q>
0

> <r_epik_Metal_State_Penalty>
-0

> <b_epik_Metal_Only>
0

> <s_lp_Force_Field>
OPLS_2005

> <r_lp_Energy>
58.6567

> <b_lp_Chiralities_Consistent>
1

> <s_lp_Variant>
AV-unprocessed.smi:241-3

> <Gold.Version>
5.8.1

> <Gold.Id.Protein>
6NUR|6NUR_protein|mol2

> <Gold.PLP.Fitness>
48.7691

> <Gold.PLP.PLP>
-40.8839

> <Gold.PLP.part.hbond>
-4.0000

> <Gold.PLP.part.metal>
0.0000

> <Gold.PLP.part.buried>
-5.0652

> <Gold.PLP.part.nonpolar>
-30.1924

> <Gold.PLP.part.repulsive>
0.0352

> <Gold.PLP.ligand.clash>
0.0000

> <Gold.PLP.ligand.torsion>
0.8467

> <Gold.PLP.Chemscore.Hbond>
2.9516

> <Gold.PLP.Chemscore.CHOScore>
0.0000

> <Gold.PLP.Chemscore.Metal>
0.0000

> <Gold.Chemscore.Hbonds>
donor molecule, donor type, donor heavy atom, donor atom, acceptor molecule, acceptor atom, score
      P1  H  7997  8009       L1    12  0.13

> <Gold.PLP.Chemscore.Internal.Correction>
0.7238

> <Gold.Rescore>
     Score         DG    S(hbond)    S(metal)    S(lipo)     H(rot)  DE(clash)    DE(int)     intcor
     12.65     -13.73       2.11        0.00      97.34       3.97       0.13       0.95       ----

> <Gold.Chemscore.Fitness>
12.6544

> <Gold.Chemscore.DG>
-13.7312

> <Gold.Chemscore.ZeroCoef>
-5.4800

> <Gold.Chemscore.Hbond>
2.1055

> <Gold.Chemscore.Metal>
0.0000

> <Gold.Chemscore.Lipo>
97.3431

> <Gold.Chemscore.Internal_Hbond>
0.0000

> <Gold.Chemscore.DEClash>
0.1261

> <Gold.Chemscore.DEInternal>
0.9506

> <Gold.Chemscore.Rot>
3.9727

> <Gold.Chemscore.Internal.Correction>
   9.000000E+99

> <Gold.Chemscore.Hbonds>
donor molecule, donor type, donor heavy atom, donor atom, acceptor molecule, acceptor atom, score
      P1  H  7997  8009       L1    12  0.13

> <Gold.Chemscore.Hbond.Weighted>
-7.0323

> <Gold.Chemscore.Metal.Weighted>
-0.0000

> <Gold.Chemscore.Lipo.Weighted>
-11.3891

> <Gold.Chemscore.Internal_Hbond.Weighted>
0.0000

> <Gold.Chemscore.DEClash.Weighted>
0.1261

> <Gold.Chemscore.DEInternal.Weighted>
0.9506

> <Gold.Chemscore.Rot.Weighted>
10.1702

> <Gold.Chemscore.Internal.Correction.Weighted>
   9.000000E+99

> <Gold.Protein.RotatedTorsions>
[ 6907 6896 6895 6894 ] final  -16.82 input  -60.11 | X-H torsion
[ 7974 7965 7964 7962 ] final -168.21 input  175.53 | X-H torsion
[ 8008 7997 7996 7995 ] final  140.25 input   59.86 | X-H torsion
[ 10167 10162 10161 10158 ] final  -68.54 input  -65.29 | X-H torsion
[ 10718 10713 10712 10709 ] final  104.05 input   66.30 | X-H torsion
[ 10763 10752 10751 10750 ] final  134.88 input  -60.55 | X-H torsion
[ 11005 11000 10999 10996 ] final   86.32 input  -57.11 | X-H torsion

> <Gold.Protein.ActiveResidues>
 VAL166  LYS551  ARG553  GLY616  TRP617  ASP618  TYR619  PRO620  LYS621  CYS622 
 ASP623  PHE694  ASN695  SER759  ASP760  ASP761  ALA762  ILE779  LEU786  VAL792 
 PHE793  MET794  SER795  GLU796  ALA797  LYS798  CYS799  TRP800  GLU811  SER814 

> <Gold.Protein.RotatedAtoms>
  151.3028  135.0773  159.9244 H   0  0  0  0  0  0  0  0  0  0  0  0  # atno 6907 bound_to 6896
  152.5294  133.9816  159.7819 H   0  0  0  0  0  0  0  0  0  0  0  0  # atno 6908 bound_to 6896
  151.0105  133.5918  159.2713 H   0  0  0  0  0  0  0  0  0  0  0  0  # atno 6909 bound_to 6896
  144.7207  140.2403  143.6292 H   0  0  0  0  0  0  0  0  0  0  0  0  # atno 7974 bound_to 7965
  156.2981  140.2346  156.4370 H   0  0  0  0  0  0  0  0  0  0  0  0  # atno 8008 bound_to 7997
  154.8220  140.0437  157.1437 H   0  0  0  0  0  0  0  0  0  0  0  0  # atno 8009 bound_to 7997
  154.9304  140.3016  155.5174 H   0  0  0  0  0  0  0  0  0  0  0  0  # atno 8010 bound_to 7997
  140.5500  143.2312  151.6930 H   0  0  0  0  0  0  0  0  0  0  0  0  # atno 10167 bound_to 10162
  157.6753  131.0794  150.5648 H   0  0  0  0  0  0  0  0  0  0  0  0  # atno 10718 bound_to 10713
  153.8309  135.3104  155.3418 H   0  0  0  0  0  0  0  0  0  0  0  0  # atno 10763 bound_to 10752
  154.7973  135.4747  154.0195 H   0  0  0  0  0  0  0  0  0  0  0  0  # atno 10764 bound_to 10752
  153.1635  135.6865  153.8800 H   0  0  0  0  0  0  0  0  0  0  0  0  # atno 10765 bound_to 10752
  139.8948  134.8347  156.2704 H   0  0  0  0  0  0  0  0  0  0  0  0  # atno 11005 bound_to 11000
  145.8326  139.2093  143.1874 LP  0  0  0  0  0  0  0  0  0  0  0  0  # atno 17320 bound_to 7965
  146.0418  140.8158  142.9825 LP  0  0  0  0  0  0  0  0  0  0  0  0  # atno 17321 bound_to 7965
  139.5023  144.3833  152.0353 LP  0  0  0  0  0  0  0  0  0  0  0  0  # atno 17342 bound_to 10162
  140.2950  144.3711  150.6077 LP  0  0  0  0  0  0  0  0  0  0  0  0  # atno 17343 bound_to 10162
  156.5951  130.4339  149.5920 LP  0  0  0  0  0  0  0  0  0  0  0  0  # atno 17370 bound_to 10713
  156.2552  130.6930  151.1681 LP  0  0  0  0  0  0  0  0  0  0  0  0  # atno 17371 bound_to 10713
  141.0104  133.7099  156.1103 LP  0  0  0  0  0  0  0  0  0  0  0  0  # atno 17394 bound_to 11000
  140.7375  134.4187  157.5559 LP  0  0  0  0  0  0  0  0  0  0  0  0  # atno 17395 bound_to 11000

$$$$
