AV-unprocessed.smi:224|AV-procd|sdf|1707|dock6
  -GOLD-   2262020173D 1   1.00000     0.00000
 Structure written by MMmdl.
 56 59  0  0  0  0  0  0  0  0  2 V2000
  145.5522  130.9071  151.0671 C   0  0  0  0  0  0  0  0  0  0  0  0
  145.5487  132.2747  151.7662 C   0  0  2  0  0  0  0  0  0  0  0  0
  144.3381  132.9294  151.4492 O   0  0  0  0  0  0  0  0  0  0  0  0
  146.7206  133.1786  151.3291 C   0  0  0  0  0  0  0  0  0  0  0  0
  147.1635  134.1127  152.4042 N   0  3  2  0  0  0  0  0  0  0  0  0
  147.9094  133.3912  153.4750 C   0  0  0  0  0  0  0  0  0  0  0  0
  148.4351  134.3455  154.5563 C   0  0  0  0  0  0  0  0  0  0  0  0
  147.3410  135.1290  155.1115 N   0  0  0  0  0  0  0  0  0  0  0  0
  146.6762  134.5845  156.1657 C   0  0  0  0  0  0  0  0  0  0  0  0
  145.4747  133.9794  155.9671 N   0  0  0  0  0  0  0  0  0  0  0  0
  144.8139  133.4311  156.9905 C   0  0  0  0  0  0  0  0  0  0  0  0
  145.1639  133.3790  158.2762 N   0  0  0  0  0  0  0  0  0  0  0  0
  146.3609  133.9961  158.4885 C   0  0  0  0  0  0  0  0  0  0  0  0
  147.1762  134.6171  157.4997 C   0  0  0  0  0  0  0  0  0  0  0  0
  148.3157  135.1461  158.0951 N   0  0  0  0  0  0  0  0  0  0  0  0
  148.1856  134.8473  159.3589 C   0  0  0  0  0  0  0  0  0  0  0  0
  147.0372  134.1622  159.6847 N   0  0  0  0  0  0  0  0  0  0  0  0
  146.6380  133.7133  161.0100 C   0  0  0  0  0  0  0  0  0  0  0  0
  146.4320  134.8719  162.0131 C   0  0  1  0  0  0  0  0  0  0  0  0
  145.5868  134.4278  163.0608 O   0  0  0  0  0  0  0  0  0  0  0  0
  147.7237  135.4057  162.6254 C   0  0  0  0  0  0  0  0  0  0  0  0
  147.4060  136.8760  162.8567 C   0  0  0  0  0  0  0  0  0  0  0  0
  146.6628  137.2157  161.6986 O   0  0  0  0  0  0  0  0  0  0  0  0
  145.8011  136.1278  161.3787 C   0  0  0  0  0  0  0  0  0  0  0  0
  146.5976  135.8783  154.1032 C   0  0  0  0  0  0  0  0  0  0  0  0
  146.0723  134.9797  152.9561 C   0  0  1  0  0  0  0  0  0  0  0  0
  145.4315  135.8937  151.8914 C   0  0  0  0  0  0  0  0  0  0  0  0
  146.4492  130.3389  151.3146 H   0  0  0  0  0  0  0  0  0  0  0  0
  145.5143  131.0124  149.9823 H   0  0  0  0  0  0  0  0  0  0  0  0
  144.6939  130.3079  151.3735 H   0  0  0  0  0  0  0  0  0  0  0  0
  145.5504  132.1294  152.8456 H   0  0  0  0  0  0  0  0  0  0  0  0
  144.5290  133.8194  151.1944 H   0  0  0  0  0  0  0  0  0  0  0  0
  147.5273  132.5223  151.0129 H   0  0  0  0  0  0  0  0  0  0  0  0
  146.4494  133.7560  150.4434 H   0  0  0  0  0  0  0  0  0  0  0  0
  147.2553  132.6466  153.9321 H   0  0  0  0  0  0  0  0  0  0  0  0
  148.7557  132.8490  153.0566 H   0  0  0  0  0  0  0  0  0  0  0  0
  148.9612  133.7770  155.3216 H   0  0  0  0  0  0  0  0  0  0  0  0
  149.1673  135.0292  154.1257 H   0  0  0  0  0  0  0  0  0  0  0  0
  143.8692  132.9691  156.7443 H   0  0  0  0  0  0  0  0  0  0  0  0
  148.9249  135.1270  160.0958 H   0  0  0  0  0  0  0  0  0  0  0  0
  145.7181  133.1354  160.9123 H   0  0  0  0  0  0  0  0  0  0  0  0
  147.3949  133.0208  161.3810 H   0  0  0  0  0  0  0  0  0  0  0  0
  144.9907  135.1274  163.2809 H   0  0  0  0  0  0  0  0  0  0  0  0
  148.0338  134.8819  163.5304 H   0  0  0  0  0  0  0  0  0  0  0  0
  148.5395  135.3367  161.9052 H   0  0  0  0  0  0  0  0  0  0  0  0
  146.7879  137.0104  163.7458 H   0  0  0  0  0  0  0  0  0  0  0  0
  148.2997  137.4919  162.9580 H   0  0  0  0  0  0  0  0  0  0  0  0
  145.7171  136.0486  160.2943 H   0  0  0  0  0  0  0  0  0  0  0  0
  144.8013  136.3276  161.7680 H   0  0  0  0  0  0  0  0  0  0  0  0
  145.7796  136.4331  154.5652 H   0  0  0  0  0  0  0  0  0  0  0  0
  147.2718  136.6321  153.6946 H   0  0  0  0  0  0  0  0  0  0  0  0
  145.2974  134.3231  153.3542 H   0  0  0  0  0  0  0  0  0  0  0  0
  144.7686  136.6230  152.3582 H   0  0  0  0  0  0  0  0  0  0  0  0
  144.8172  135.3484  151.1767 H   0  0  0  0  0  0  0  0  0  0  0  0
  146.1885  136.4494  151.3369 H   0  0  0  0  0  0  0  0  0  0  0  0
  147.8210  134.7478  151.9750 H   0  0  0  0  0  0  0  0  0  0  0  0
  1  2  1  0  0  0  0
  1 28  1  0  0  0  0
  1 29  1  0  0  0  0
  1 30  1  0  0  0  0
  2  3  1  0  0  0  0
  2  4  1  0  0  0  0
  2 31  1  0  0  0  0
  3 32  1  0  0  0  0
  4  5  1  0  0  0  0
  4 33  1  0  0  0  0
  4 34  1  0  0  0  0
  5 26  1  0  0  0  0
  5  6  1  0  0  0  0
  5 56  1  0  0  0  0
  6  7  1  0  0  0  0
  6 35  1  0  0  0  0
  6 36  1  0  0  0  0
  7  8  1  0  0  0  0
  7 37  1  0  0  0  0
  7 38  1  0  0  0  0
  8  9  1  0  0  0  0
  8 25  1  0  0  0  0
  9 14  1  0  0  0  0
  9 10  2  0  0  0  0
 10 11  1  0  0  0  0
 11 12  2  0  0  0  0
 11 39  1  0  0  0  0
 12 13  1  0  0  0  0
 13 17  1  0  0  0  0
 13 14  2  0  0  0  0
 14 15  1  0  0  0  0
 15 16  2  0  0  0  0
 16 17  1  0  0  0  0
 16 40  1  0  0  0  0
 17 18  1  0  0  0  0
 18 19  1  0  0  0  0
 18 41  1  0  0  0  0
 18 42  1  0  0  0  0
 19 24  1  0  0  0  0
 19 20  1  0  0  0  0
 19 21  1  0  0  0  0
 20 43  1  0  0  0  0
 21 22  1  0  0  0  0
 21 44  1  0  0  0  0
 21 45  1  0  0  0  0
 22 23  1  0  0  0  0
 22 46  1  0  0  0  0
 22 47  1  0  0  0  0
 23 24  1  0  0  0  0
 24 48  1  0  0  0  0
 24 49  1  0  0  0  0
 25 26  1  0  0  0  0
 25 50  1  0  0  0  0
 25 51  1  0  0  0  0
 26 27  1  0  0  0  0
 26 52  1  0  0  0  0
 27 53  1  0  0  0  0
 27 54  1  0  0  0  0
 27 55  1  0  0  0  0
M  CHG  1   5   1
M  END
> <s_m_source_file>
AV-unprocessed.smi

> <i_m_source_file_index>
224

> <i_lp_mmshare_version>
43012

> <i_f3d_flags>
0

> <s_epik_input>
W0NIM11bQ0BIXShbT0hdKVtDSDJdTjFbQ0gyXVtDSDJdTihbQ0gyXVtDQEhdMVtDSDNdKWMobltjSF1uMiljKGMyMyluW2NIXW4zW0NIMl1bQ0BAXTQoW09IXSlbQ0gyXVtDSDJdT1tDSDJdNA==

> <s_epik_cmdline>
J2VwaWtfcHl0aG9uJywgJy1waCcsICc3LjAnLCAnLXRuJywgJzgnLCAnLW1hJywgJzIwMCcsICctbWV0YWxfYmluZGluZycsICctaW1hZScsICc8aW5maWxlLm1hZT4nLCAnLW9tYWUnLCAnPG91dGZpbGUubWFlPic=

> <r_lp_tautomer_probability>
1

> <r_epik_Ionization_Penalty>
0.00516958

> <r_epik_Ionization_Penalty_Charging>
0.00509693

> <r_epik_Ionization_Penalty_Neutral>
7.26542e-05

> <r_epik_State_Penalty>
-0

> <r_epik_Charging_Adjusted_Penalty>
0.00509693

> <i_epik_Tot_Q>
1

> <i_epik_Tot_abs_Q>
1

> <r_epik_Metal_State_Penalty>
-0

> <b_epik_Metal_Only>
0

> <s_lp_Force_Field>
OPLS_2005

> <r_lp_Energy>
50.3284

> <b_lp_Chiralities_Consistent>
1

> <s_lp_Variant>
AV-unprocessed.smi:224-1

> <Gold.Version>
5.8.1

> <Gold.Id.Protein>
6NUR|6NUR_protein|mol2

> <Gold.PLP.Fitness>
44.3089

> <Gold.PLP.PLP>
-34.3947

> <Gold.PLP.part.hbond>
-2.8805

> <Gold.PLP.part.metal>
0.0000

> <Gold.PLP.part.buried>
-4.6947

> <Gold.PLP.part.nonpolar>
-27.2621

> <Gold.PLP.part.repulsive>
0.1673

> <Gold.PLP.ligand.clash>
0.0000

> <Gold.PLP.ligand.torsion>
1.2840

> <Gold.PLP.Chemscore.Hbond>
3.0000

> <Gold.PLP.Chemscore.CHOScore>
0.9633

> <Gold.PLP.Chemscore.Metal>
0.0000

> <Gold.Chemscore.Hbonds>
donor molecule, donor type, donor heavy atom, donor atom, acceptor molecule, acceptor atom, score
      L1  H     5    56       P1  7948  2.00
      P1  H  6934  6947       L1    23  1.00
      L1  C    11    39       P1 10957  0.93

> <Gold.PLP.Chemscore.Internal.Correction>
0.5924

> <Gold.Rescore>
     Score         DG    S(hbond)    S(metal)    S(lipo)     H(rot)  DE(clash)    DE(int)     intcor
     10.82     -12.14       1.84        0.00      78.04       3.36       0.05       1.27       ----

> <Gold.Chemscore.Fitness>
10.8208

> <Gold.Chemscore.DG>
-12.1407

> <Gold.Chemscore.ZeroCoef>
-5.4800

> <Gold.Chemscore.Hbond>
1.8367

> <Gold.Chemscore.Metal>
0.0000

> <Gold.Chemscore.Lipo>
78.0385

> <Gold.Chemscore.Internal_Hbond>
0.0000

> <Gold.Chemscore.DEClash>
0.0530

> <Gold.Chemscore.DEInternal>
1.2669

> <Gold.Chemscore.Rot>
3.3611

> <Gold.Chemscore.Internal.Correction>
   9.000000E+99

> <Gold.Chemscore.Hbonds>
donor molecule, donor type, donor heavy atom, donor atom, acceptor molecule, acceptor atom, score
      L1  H     5    56       P1  7948  0.45
      P1  H  6934  6947       L1    23  0.77

> <Gold.Chemscore.Hbond.Weighted>
-6.1347

> <Gold.Chemscore.Metal.Weighted>
-0.0000

> <Gold.Chemscore.Lipo.Weighted>
-9.1305

> <Gold.Chemscore.Internal_Hbond.Weighted>
0.0000

> <Gold.Chemscore.DEClash.Weighted>
0.0530

> <Gold.Chemscore.DEInternal.Weighted>
1.2669

> <Gold.Chemscore.Rot.Weighted>
8.6045

> <Gold.Chemscore.Internal.Correction.Weighted>
   9.000000E+99

> <Gold.Protein.RotatedTorsions>
[ 6907 6896 6895 6894 ] final -168.99 input  -60.11 | X-H torsion
[ 7974 7965 7964 7962 ] final   -9.69 input  175.53 | X-H torsion
[ 8008 7997 7996 7995 ] final  -25.62 input   59.86 | X-H torsion
[ 10167 10162 10161 10158 ] final -123.91 input  -65.29 | X-H torsion
[ 10718 10713 10712 10709 ] final -122.34 input   66.30 | X-H torsion
[ 10763 10752 10751 10750 ] final  -94.57 input  -60.55 | X-H torsion
[ 11005 11000 10999 10996 ] final   16.85 input  -57.11 | X-H torsion

> <Gold.Protein.ActiveResidues>
 VAL166  LYS551  ARG553  GLY616  TRP617  ASP618  TYR619  PRO620  LYS621  CYS622 
 ASP623  PHE694  ASN695  SER759  ASP760  ASP761  ALA762  ILE779  LEU786  VAL792 
 PHE793  MET794  SER795  GLU796  ALA797  LYS798  CYS799  TRP800  GLU811  SER814 

> <Gold.Protein.RotatedAtoms>
  151.4844  133.3539  159.2843 H   0  0  0  0  0  0  0  0  0  0  0  0  # atno 6907 bound_to 6896
  150.8876  134.8277  159.7281 H   0  0  0  0  0  0  0  0  0  0  0  0  # atno 6908 bound_to 6896
  152.4802  134.4750  159.9699 H   0  0  0  0  0  0  0  0  0  0  0  0  # atno 6909 bound_to 6896
  146.2244  140.2653  142.8354 H   0  0  0  0  0  0  0  0  0  0  0  0  # atno 7974 bound_to 7965
  154.4466  140.1921  156.0648 H   0  0  0  0  0  0  0  0  0  0  0  0  # atno 8008 bound_to 7997
  156.0556  140.3303  155.7374 H   0  0  0  0  0  0  0  0  0  0  0  0  # atno 8009 bound_to 7997
  155.5491  140.0593  157.2844 H   0  0  0  0  0  0  0  0  0  0  0  0  # atno 8010 bound_to 7997
  139.9984  143.5566  152.2313 H   0  0  0  0  0  0  0  0  0  0  0  0  # atno 10167 bound_to 10162
  156.1411  130.6466  150.9771 H   0  0  0  0  0  0  0  0  0  0  0  0  # atno 10718 bound_to 10713
  154.7068  135.5152  153.8606 H   0  0  0  0  0  0  0  0  0  0  0  0  # atno 10763 bound_to 10752
  153.0747  135.6612  154.0179 H   0  0  0  0  0  0  0  0  0  0  0  0  # atno 10764 bound_to 10752
  154.0029  135.3009  155.3380 H   0  0  0  0  0  0  0  0  0  0  0  0  # atno 10765 bound_to 10752
  140.4425  134.1307  155.7692 H   0  0  0  0  0  0  0  0  0  0  0  0  # atno 11005 bound_to 11000
  144.9309  140.7973  143.5690 LP  0  0  0  0  0  0  0  0  0  0  0  0  # atno 17320 bound_to 7965
  145.2597  139.1997  143.4899 LP  0  0  0  0  0  0  0  0  0  0  0  0  # atno 17321 bound_to 7965
  139.6289  144.7641  151.2579 LP  0  0  0  0  0  0  0  0  0  0  0  0  # atno 17342 bound_to 10162
  140.7428  143.6514  150.8245 LP  0  0  0  0  0  0  0  0  0  0  0  0  # atno 17343 bound_to 10162
  157.6576  131.0886  150.7912 LP  0  0  0  0  0  0  0  0  0  0  0  0  # atno 17370 bound_to 10713
  156.7987  130.4914  149.5373 LP  0  0  0  0  0  0  0  0  0  0  0  0  # atno 17371 bound_to 10713
  141.1699  133.8629  157.1602 LP  0  0  0  0  0  0  0  0  0  0  0  0  # atno 17394 bound_to 11000
  140.0060  135.0008  157.0294 LP  0  0  0  0  0  0  0  0  0  0  0  0  # atno 17395 bound_to 11000

$$$$
