AV-unprocessed.smi:1907|AV-procd|sdf|7732|dock3
  -GOLD-   22720 9473D 1   1.00000     0.00000
 Structure written by MMmdl.
 31 32  0  0  0  0  0  0  0  0  2 V2000
  149.8212  138.5606  153.3867 N   0  0  0  0  0  0  0  0  0  0  0  0
  150.6772  138.8302  154.3765 C   0  0  0  0  0  0  0  0  0  0  0  0
  150.9710  139.9803  154.6961 O   0  0  0  0  0  0  0  0  0  0  0  0
  151.2820  137.6385  155.1226 C   0  0  0  0  0  0  0  0  0  0  0  0
  150.2149  136.8774  155.8549 C   0  0  0  0  0  0  0  0  0  0  0  0
  149.1290  136.2445  155.3074 C   0  0  0  0  0  0  0  0  0  0  0  0
  148.1434  135.4872  156.5257 S   0  0  0  0  0  0  0  0  0  0  0  0
  149.2697  136.0406  157.7664 C   0  0  0  0  0  0  0  0  0  0  0  0
  149.1319  135.8210  159.0855 N   0  5  0  0  0  0  0  0  0  0  0  0
  148.0801  136.2652  159.8288 C   0  0  0  0  0  0  0  0  0  0  0  0
  147.9252  137.4268  160.2041 O   0  0  0  0  0  0  0  0  0  0  0  0
  147.0025  135.2115  160.2102 C   0  0  0  0  0  0  0  0  0  0  0  0
  145.8872  135.8249  161.0903 C   0  0  0  0  0  0  0  0  0  0  0  0
  145.9091  135.0852  162.4345 C   0  0  0  0  0  0  0  0  0  0  0  0
  147.2753  134.4091  162.5026 C   0  0  0  0  0  0  0  0  0  0  0  0
  147.5697  134.0465  161.0488 C   0  0  0  0  0  0  0  0  0  0  0  0
  150.2741  136.7550  157.2462 N   0  0  0  0  0  0  0  0  0  0  0  0
  149.4144  139.3148  152.8533 H   0  0  0  0  0  0  0  0  0  0  0  0
  149.6011  137.6004  153.1625 H   0  0  0  0  0  0  0  0  0  0  0  0
  151.7927  136.9895  154.4101 H   0  0  0  0  0  0  0  0  0  0  0  0
  152.0471  137.9976  155.8125 H   0  0  0  0  0  0  0  0  0  0  0  0
  148.8465  136.1838  154.2674 H   0  0  0  0  0  0  0  0  0  0  0  0
  146.5741  134.7652  159.3126 H   0  0  0  0  0  0  0  0  0  0  0  0
  146.0486  136.8913  161.2573 H   0  0  0  0  0  0  0  0  0  0  0  0
  144.9117  135.7285  160.6124 H   0  0  0  0  0  0  0  0  0  0  0  0
  145.7320  135.7506  163.2799 H   0  0  0  0  0  0  0  0  0  0  0  0
  145.1272  134.3249  162.4439 H   0  0  0  0  0  0  0  0  0  0  0  0
  148.0218  135.1150  162.8690 H   0  0  0  0  0  0  0  0  0  0  0  0
  147.2826  133.5412  163.1622 H   0  0  0  0  0  0  0  0  0  0  0  0
  147.0404  133.1282  160.7917 H   0  0  0  0  0  0  0  0  0  0  0  0
  148.6297  133.8524  160.8791 H   0  0  0  0  0  0  0  0  0  0  0  0
  1  2  1  0  0  0  0
  1 18  1  0  0  0  0
  1 19  1  0  0  0  0
  2  3  2  0  0  0  0
  2  4  1  0  0  0  0
  4  5  1  0  0  0  0
  4 20  1  0  0  0  0
  4 21  1  0  0  0  0
  5 17  1  0  0  0  0
  5  6  2  0  0  0  0
  6  7  1  0  0  0  0
  6 22  1  0  0  0  0
  7  8  1  0  0  0  0
  8  9  1  0  0  0  0
  8 17  2  0  0  0  0
  9 10  1  0  0  0  0
 10 11  2  0  0  0  0
 10 12  1  0  0  0  0
 12 16  1  0  0  0  0
 12 13  1  0  0  0  0
 12 23  1  0  0  0  0
 13 14  1  0  0  0  0
 13 24  1  0  0  0  0
 13 25  1  0  0  0  0
 14 15  1  0  0  0  0
 14 26  1  0  0  0  0
 14 27  1  0  0  0  0
 15 16  1  0  0  0  0
 15 28  1  0  0  0  0
 15 29  1  0  0  0  0
 16 30  1  0  0  0  0
 16 31  1  0  0  0  0
M  CHG  1   9  -1
M  END
> <s_m_source_file>
AV-unprocessed.smi

> <i_m_source_file_index>
1907

> <i_lp_mmshare_version>
43012

> <i_f3d_flags>
0

> <s_epik_input>
W05IMl1DKD1PKVtDSDJdYzFbY0hdc2MobjEpW05IXUMoPU8pW0NIXTJbQ0gyXVtDSDJdW0NIMl1bQ0gyXTI=

> <s_epik_cmdline>
J2VwaWtfcHl0aG9uJywgJy1waCcsICc3LjAnLCAnLXRuJywgJzgnLCAnLW1hJywgJzIwMCcsICctbWV0YWxfYmluZGluZycsICctaW1hZScsICc8aW5maWxlLm1hZT4nLCAnLW9tYWUnLCAnPG91dGZpbGUubWFlPic=

> <r_lp_tautomer_probability>
1

> <r_epik_Ionization_Penalty>
5.3563

> <r_epik_Ionization_Penalty_Charging>
4.90463

> <r_epik_Ionization_Penalty_Neutral>
0.451677

> <r_epik_State_Penalty>
4.90447

> <r_epik_Charging_Adjusted_Penalty>
9.8091

> <i_epik_Tot_Q>
-1

> <i_epik_Tot_abs_Q>
1

> <r_epik_Metal_State_Penalty>
1.05508

> <b_epik_Metal_Only>
1

> <s_lp_Force_Field>
OPLS_2005

> <r_lp_Energy>
19.4478

> <b_lp_Chiralities_Consistent>
1

> <s_lp_Variant>
AV-unprocessed.smi:1907-2

> <Gold.Version>
5.8.1

> <Gold.Id.Protein>
6NUR|6NUR_protein|mol2

> <Gold.PLP.Fitness>
46.7915

> <Gold.PLP.PLP>
-28.3140

> <Gold.PLP.part.hbond>
-6.0000

> <Gold.PLP.part.metal>
0.0000

> <Gold.PLP.part.buried>
-3.8664

> <Gold.PLP.part.nonpolar>
-18.0783

> <Gold.PLP.part.repulsive>
0.1596

> <Gold.PLP.ligand.clash>
0.0000

> <Gold.PLP.ligand.torsion>
1.3237

> <Gold.PLP.Chemscore.Hbond>
6.0292

> <Gold.PLP.Chemscore.CHOScore>
1.0000

> <Gold.PLP.Chemscore.Metal>
0.0000

> <Gold.Chemscore.Hbonds>
donor molecule, donor type, donor heavy atom, donor atom, acceptor molecule, acceptor atom, score
      L1  H     1    18       P1  7957  0.74
      L1  H     1    19       P1  7948  0.99
      P1  H  6896  6909       L1     9  1.69
      P1  H  6931  6943       L1    11  0.37
      P1  H  6934  6947       L1    11  0.72
      P1  H  7989  7998       L1     3  1.00
      L1  C     6    22       P1  7948  1.00

> <Gold.PLP.Chemscore.Internal.Correction>
0.0373

> <Gold.Rescore>
     Score         DG    S(hbond)    S(metal)    S(lipo)     H(rot)  DE(clash)    DE(int)     intcor
     19.95     -21.30       4.41        0.00      50.37       1.87       0.04       1.31       ----

> <Gold.Chemscore.Fitness>
19.9473

> <Gold.Chemscore.DG>
-21.2972

> <Gold.Chemscore.ZeroCoef>
-5.4800

> <Gold.Chemscore.Hbond>
4.4077

> <Gold.Chemscore.Metal>
0.0000

> <Gold.Chemscore.Lipo>
50.3730

> <Gold.Chemscore.Internal_Hbond>
0.0000

> <Gold.Chemscore.DEClash>
0.0354

> <Gold.Chemscore.DEInternal>
1.3145

> <Gold.Chemscore.Rot>
1.8743

> <Gold.Chemscore.Internal.Correction>
   9.000000E+99

> <Gold.Chemscore.Hbonds>
donor molecule, donor type, donor heavy atom, donor atom, acceptor molecule, acceptor atom, score
      L1  H     1    18       P1  7957  0.72
      L1  H     1    19       P1  7948  0.73
      P1  H  6896  6909       L1     9  0.32
      P1  H  6931  6943       L1    11  0.36
      P1  H  6934  6947       L1    11  0.72
      P1  H  7989  7998       L1     3  0.88

> <Gold.Chemscore.Hbond.Weighted>
-14.7218

> <Gold.Chemscore.Metal.Weighted>
-0.0000

> <Gold.Chemscore.Lipo.Weighted>
-5.8936

> <Gold.Chemscore.Internal_Hbond.Weighted>
0.0000

> <Gold.Chemscore.DEClash.Weighted>
0.0354

> <Gold.Chemscore.DEInternal.Weighted>
1.3145

> <Gold.Chemscore.Rot.Weighted>
4.7982

> <Gold.Chemscore.Internal.Correction.Weighted>
   9.000000E+99

> <Gold.Protein.RotatedTorsions>
[ 6907 6896 6895 6894 ] final   38.79 input  -60.11 | X-H torsion
[ 7974 7965 7964 7962 ] final -105.46 input  175.53 | X-H torsion
[ 8008 7997 7996 7995 ] final  164.28 input   59.86 | X-H torsion
[ 10167 10162 10161 10158 ] final -168.16 input  -65.29 | X-H torsion
[ 10718 10713 10712 10709 ] final  -14.12 input   66.30 | X-H torsion
[ 10763 10752 10751 10750 ] final  172.33 input  -60.55 | X-H torsion
[ 11005 11000 10999 10996 ] final  165.77 input  -57.11 | X-H torsion

> <Gold.Protein.ActiveResidues>
 VAL166  LYS551  ARG553  GLY616  TRP617  ASP618  TYR619  PRO620  LYS621  CYS622 
 ASP623  PHE694  ASN695  SER759  ASP760  ASP761  ALA762  ILE779  LEU786  VAL792 
 PHE793  MET794  SER795  GLU796  ALA797  LYS798  CYS799  TRP800  GLU811  SER814 

> <Gold.Protein.RotatedAtoms>
  152.1610  134.8912  160.0541 H   0  0  0  0  0  0  0  0  0  0  0  0  # atno 6907 bound_to 6896
  151.9907  133.3785  159.4151 H   0  0  0  0  0  0  0  0  0  0  0  0  # atno 6908 bound_to 6896
  150.6888  134.3862  159.5100 H   0  0  0  0  0  0  0  0  0  0  0  0  # atno 6909 bound_to 6896
  145.2302  140.9168  143.3209 H   0  0  0  0  0  0  0  0  0  0  0  0  # atno 7974 bound_to 7965
  156.1892  140.1701  156.8126 H   0  0  0  0  0  0  0  0  0  0  0  0  # atno 8008 bound_to 7997
  154.5450  140.0729  156.8606 H   0  0  0  0  0  0  0  0  0  0  0  0  # atno 8009 bound_to 7997
  155.3139  140.3369  155.4245 H   0  0  0  0  0  0  0  0  0  0  0  0  # atno 8010 bound_to 7997
  139.6003  144.1026  152.1735 H   0  0  0  0  0  0  0  0  0  0  0  0  # atno 10167 bound_to 10162
  156.6205  130.4874  149.6166 H   0  0  0  0  0  0  0  0  0  0  0  0  # atno 10718 bound_to 10713
  154.4245  135.2758  155.1954 H   0  0  0  0  0  0  0  0  0  0  0  0  # atno 10763 bound_to 10752
  154.3885  135.6071  153.5834 H   0  0  0  0  0  0  0  0  0  0  0  0  # atno 10764 bound_to 10752
  152.9834  135.5897  154.4546 H   0  0  0  0  0  0  0  0  0  0  0  0  # atno 10765 bound_to 10752
  140.2596  134.7913  157.3577 H   0  0  0  0  0  0  0  0  0  0  0  0  # atno 11005 bound_to 11000
  144.9683  139.3906  143.6321 LP  0  0  0  0  0  0  0  0  0  0  0  0  # atno 17320 bound_to 7965
  146.3355  139.8769  142.8830 LP  0  0  0  0  0  0  0  0  0  0  0  0  # atno 17321 bound_to 7965
  140.0620  144.5849  150.7256 LP  0  0  0  0  0  0  0  0  0  0  0  0  # atno 17342 bound_to 10162
  140.7244  143.2621  151.4170 LP  0  0  0  0  0  0  0  0  0  0  0  0  # atno 17343 bound_to 10162
  156.2316  130.6798  151.1469 LP  0  0  0  0  0  0  0  0  0  0  0  0  # atno 17370 bound_to 10713
  157.7229  131.0670  150.6059 LP  0  0  0  0  0  0  0  0  0  0  0  0  # atno 17371 bound_to 10713
  140.1478  134.4889  155.7983 LP  0  0  0  0  0  0  0  0  0  0  0  0  # atno 17394 bound_to 11000
  141.2192  133.6850  156.7325 LP  0  0  0  0  0  0  0  0  0  0  0  0  # atno 17395 bound_to 11000

$$$$
