AV-unprocessed.smi:135|AV-procd|sdf|1170|dock4
  -GOLD-   2262018313D 1   1.00000     0.00000
 Structure written by MMmdl.
 51 54  0  0  0  0  0  0  0  0  1 V2000
  151.4252  137.2095  159.8621 O   0  0  0  0  0  0  0  0  0  0  0  0
  151.0088  137.4778  158.7352 C   0  0  0  0  0  0  0  0  0  0  0  0
  151.8602  138.3226  157.7744 C   0  0  0  0  0  0  0  0  0  0  0  0
  151.4136  139.7289  157.6705 N   0  0  0  0  0  0  0  0  0  0  0  0
  150.3742  140.0419  156.7599 C   0  0  0  0  0  0  0  0  0  0  0  0
  149.8437  139.1682  156.0721 O   0  0  0  0  0  0  0  0  0  0  0  0
  149.9929  141.4484  156.6984 C   0  0  0  0  0  0  0  0  0  0  0  0
  149.0066  141.8346  155.8714 F   0  0  0  0  0  0  0  0  0  0  0  0
  150.6133  142.3712  157.4620 C   0  0  0  0  0  0  0  0  0  0  0  0
  151.6378  142.0535  158.3363 N   0  0  0  0  0  0  0  0  0  0  0  0
  152.3238  143.1011  159.1879 C   0  0  1  0  0  0  0  0  0  0  0  0
  152.6979  144.3319  158.3401 C   0  0  0  0  0  0  0  0  0  0  0  0
  152.1198  145.4799  159.1437 C   0  0  0  0  0  0  0  0  0  0  0  0
  150.9347  144.8175  159.8296 C   0  0  0  0  0  0  0  0  0  0  0  0
  151.4537  143.5444  160.1905 O   0  0  0  0  0  0  0  0  0  0  0  0
  152.0578  140.7111  158.4596 C   0  0  0  0  0  0  0  0  0  0  0  0
  152.9690  140.4082  159.2331 O   0  0  0  0  0  0  0  0  0  0  0  0
  149.8130  137.1068  158.2436 N   0  0  0  0  0  0  0  0  0  0  0  0
  148.7776  136.3131  158.8169 C   0  0  0  0  0  0  0  0  0  0  0  0
  148.6233  136.0983  160.2099 C   0  0  0  0  0  0  0  0  0  0  0  0
  147.5674  135.3044  160.6969 C   0  0  0  0  0  0  0  0  0  0  0  0
  146.6540  134.7165  159.8039 C   0  0  0  0  0  0  0  0  0  0  0  0
  146.8024  134.9170  158.4202 C   0  0  0  0  0  0  0  0  0  0  0  0
  147.8634  135.7008  157.9232 C   0  0  0  0  0  0  0  0  0  0  0  0
  147.9725  135.8719  156.5648 O   0  0  0  0  0  0  0  0  0  0  0  0
  148.2462  134.7657  155.7980 C   0  0  0  0  0  0  0  0  0  0  0  0
  147.3697  133.6578  155.7554 C   0  0  0  0  0  0  0  0  0  0  0  0
  147.6806  132.5390  154.9584 C   0  0  0  0  0  0  0  0  0  0  0  0
  148.8647  132.5232  154.1967 C   0  0  0  0  0  0  0  0  0  0  0  0
  149.7369  133.6283  154.2297 C   0  0  0  0  0  0  0  0  0  0  0  0
  149.4259  134.7474  155.0261 C   0  0  0  0  0  0  0  0  0  0  0  0
  152.9040  138.2765  158.0914 H   0  0  0  0  0  0  0  0  0  0  0  0
  151.8608  137.8319  156.8000 H   0  0  0  0  0  0  0  0  0  0  0  0
  150.2803  143.3936  157.3713 H   0  0  0  0  0  0  0  0  0  0  0  0
  153.1767  142.5968  159.6457 H   0  0  0  0  0  0  0  0  0  0  0  0
  153.7777  144.4012  158.2059 H   0  0  0  0  0  0  0  0  0  0  0  0
  152.2213  144.2759  157.3602 H   0  0  0  0  0  0  0  0  0  0  0  0
  152.8413  145.8180  159.8887 H   0  0  0  0  0  0  0  0  0  0  0  0
  151.8356  146.3335  158.5281 H   0  0  0  0  0  0  0  0  0  0  0  0
  150.5865  145.3714  160.7017 H   0  0  0  0  0  0  0  0  0  0  0  0
  150.0998  144.7027  159.1367 H   0  0  0  0  0  0  0  0  0  0  0  0
  149.6126  137.4424  157.3126 H   0  0  0  0  0  0  0  0  0  0  0  0
  149.2980  136.5232  160.9345 H   0  0  0  0  0  0  0  0  0  0  0  0
  147.4581  135.1480  161.7598 H   0  0  0  0  0  0  0  0  0  0  0  0
  145.8426  134.1109  160.1795 H   0  0  0  0  0  0  0  0  0  0  0  0
  146.1027  134.4625  157.7342 H   0  0  0  0  0  0  0  0  0  0  0  0
  146.4571  133.6603  156.3334 H   0  0  0  0  0  0  0  0  0  0  0  0
  147.0098  131.6930  154.9312 H   0  0  0  0  0  0  0  0  0  0  0  0
  149.1021  131.6650  153.5853 H   0  0  0  0  0  0  0  0  0  0  0  0
  150.6439  133.6181  153.6433 H   0  0  0  0  0  0  0  0  0  0  0  0
  150.0977  135.5929  155.0485 H   0  0  0  0  0  0  0  0  0  0  0  0
  1  2  2  0  0  0  0
  2  3  1  0  0  0  0
  2 18  1  0  0  0  0
  3  4  1  0  0  0  0
  3 32  1  0  0  0  0
  3 33  1  0  0  0  0
  4 16  1  0  0  0  0
  4  5  1  0  0  0  0
  5  6  2  0  0  0  0
  5  7  1  0  0  0  0
  7  8  1  0  0  0  0
  7  9  2  0  0  0  0
  9 10  1  0  0  0  0
  9 34  1  0  0  0  0
 10 11  1  0  0  0  0
 10 16  1  0  0  0  0
 11 15  1  0  0  0  0
 11 12  1  0  0  0  0
 11 35  1  0  0  0  0
 12 13  1  0  0  0  0
 12 36  1  0  0  0  0
 12 37  1  0  0  0  0
 13 14  1  0  0  0  0
 13 38  1  0  0  0  0
 13 39  1  0  0  0  0
 14 15  1  0  0  0  0
 14 40  1  0  0  0  0
 14 41  1  0  0  0  0
 16 17  2  0  0  0  0
 18 19  1  0  0  0  0
 18 42  1  0  0  0  0
 19 24  1  0  0  0  0
 19 20  2  0  0  0  0
 20 21  1  0  0  0  0
 20 43  1  0  0  0  0
 21 22  2  0  0  0  0
 21 44  1  0  0  0  0
 22 23  1  0  0  0  0
 22 45  1  0  0  0  0
 23 24  2  0  0  0  0
 23 46  1  0  0  0  0
 24 25  1  0  0  0  0
 25 26  1  0  0  0  0
 26 31  1  0  0  0  0
 26 27  2  0  0  0  0
 27 28  1  0  0  0  0
 27 47  1  0  0  0  0
 28 29  2  0  0  0  0
 28 48  1  0  0  0  0
 29 30  1  0  0  0  0
 29 49  1  0  0  0  0
 30 31  2  0  0  0  0
 30 50  1  0  0  0  0
 31 51  1  0  0  0  0
M  END
> <s_m_source_file>
AV-unprocessed.smi

> <i_m_source_file_index>
135

> <i_lp_mmshare_version>
43012

> <i_f3d_flags>
0

> <s_epik_input>
TzFbQ0gyXVtDSDJdW0NIMl1bQ0BIXTFuKGMyPU8pW2NIXWMoRiljKD1PKW4yW0NIMl1DKD1PKVtOSF1jM1tjSF1bY0hdW2NIXVtjSF1jM09jNFtjSF1bY0hdW2NIXVtjSF1bY0hdNA==

> <s_epik_cmdline>
J2VwaWtfcHl0aG9uJywgJy1waCcsICc3LjAnLCAnLXRuJywgJzgnLCAnLW1hJywgJzIwMCcsICctbWV0YWxfYmluZGluZycsICctaW1hZScsICc8aW5maWxlLm1hZT4nLCAnLW9tYWUnLCAnPG91dGZpbGUubWFlPic=

> <r_lp_tautomer_probability>
1

> <r_epik_Ionization_Penalty>
1.89877e-06

> <r_epik_Ionization_Penalty_Charging>
3.88729e-08

> <r_epik_Ionization_Penalty_Neutral>
1.8599e-06

> <r_epik_State_Penalty>
-0

> <r_epik_Charging_Adjusted_Penalty>
3.88729e-08

> <i_epik_Tot_Q>
0

> <i_epik_Tot_abs_Q>
0

> <r_epik_Metal_State_Penalty>
-0

> <b_epik_Metal_Only>
0

> <s_epik_Chemistry_Notes>
This compound contains an acetal/aminal-like group ( X-CH(R)-Y where X, Y are N, S, or O) that may be acid/base labile, releasing an aldehyde.

> <s_lp_Force_Field>
OPLS_2005

> <r_lp_Energy>
40.6736

> <b_lp_Chiralities_Consistent>
1

> <s_lp_Variant>
AV-unprocessed.smi:135-2

> <Gold.Version>
5.8.1

> <Gold.Id.Protein>
6NUR|6NUR_protein|mol2

> <Gold.PLP.Fitness>
49.2212

> <Gold.PLP.PLP>
-45.0686

> <Gold.PLP.part.hbond>
-1.0715

> <Gold.PLP.part.metal>
0.0000

> <Gold.PLP.part.buried>
-5.1017

> <Gold.PLP.part.nonpolar>
-39.4380

> <Gold.PLP.part.repulsive>
0.1894

> <Gold.PLP.ligand.clash>
0.0000

> <Gold.PLP.ligand.torsion>
0.9581

> <Gold.PLP.Chemscore.Hbond>
0.9913

> <Gold.PLP.Chemscore.CHOScore>
1.0000

> <Gold.PLP.Chemscore.Metal>
0.0000

> <Gold.Chemscore.Hbonds>
donor molecule, donor type, donor heavy atom, donor atom, acceptor molecule, acceptor atom, score
      P1  H  6896  6908       L1     1  0.98
      L1  C     9    34       P1  8028  0.92

> <Gold.PLP.Chemscore.Internal.Correction>
0.0952

> <Gold.Rescore>
     Score         DG    S(hbond)    S(metal)    S(lipo)     H(rot)  DE(clash)    DE(int)     intcor
     13.11     -14.77       0.97        0.00      96.38       2.04       0.02       1.64       ----

> <Gold.Chemscore.Fitness>
13.1104

> <Gold.Chemscore.DG>
-14.7670

> <Gold.Chemscore.ZeroCoef>
-5.4800

> <Gold.Chemscore.Hbond>
0.9662

> <Gold.Chemscore.Metal>
0.0000

> <Gold.Chemscore.Lipo>
96.3793

> <Gold.Chemscore.Internal_Hbond>
0.0000

> <Gold.Chemscore.DEClash>
0.0193

> <Gold.Chemscore.DEInternal>
1.6374

> <Gold.Chemscore.Rot>
2.0377

> <Gold.Chemscore.Internal.Correction>
   9.000000E+99

> <Gold.Chemscore.Hbonds>
donor molecule, donor type, donor heavy atom, donor atom, acceptor molecule, acceptor atom, score
      P1  H  6896  6908       L1     1  0.46

> <Gold.Chemscore.Hbond.Weighted>
-3.2272

> <Gold.Chemscore.Metal.Weighted>
-0.0000

> <Gold.Chemscore.Lipo.Weighted>
-11.2764

> <Gold.Chemscore.Internal_Hbond.Weighted>
0.0000

> <Gold.Chemscore.DEClash.Weighted>
0.0193

> <Gold.Chemscore.DEInternal.Weighted>
1.6374

> <Gold.Chemscore.Rot.Weighted>
5.2165

> <Gold.Chemscore.Internal.Correction.Weighted>
   9.000000E+99

> <Gold.Protein.RotatedTorsions>
[ 6907 6896 6895 6894 ] final -128.81 input  -60.11 | X-H torsion
[ 7974 7965 7964 7962 ] final   44.94 input  175.53 | X-H torsion
[ 8008 7997 7996 7995 ] final   58.61 input   59.86 | X-H torsion
[ 10167 10162 10161 10158 ] final -157.85 input  -65.29 | X-H torsion
[ 10718 10713 10712 10709 ] final   21.91 input   66.30 | X-H torsion
[ 10763 10752 10751 10750 ] final   -3.72 input  -60.55 | X-H torsion
[ 11005 11000 10999 10996 ] final -175.35 input  -57.11 | X-H torsion

> <Gold.Protein.ActiveResidues>
 VAL166  LYS551  ARG553  GLY616  TRP617  ASP618  TYR619  PRO620  LYS621  CYS622 
 ASP623  PHE694  ASN695  SER759  ASP760  ASP761  ALA762  ILE779  LEU786  VAL792 
 PHE793  MET794  SER795  GLU796  ALA797  LYS798  CYS799  TRP800  GLU811  SER814 

> <Gold.Protein.RotatedAtoms>
  150.9219  133.6870  159.2829 H   0  0  0  0  0  0  0  0  0  0  0  0  # atno 6907 bound_to 6896
  151.4322  135.1009  159.9655 H   0  0  0  0  0  0  0  0  0  0  0  0  # atno 6908 bound_to 6896
  152.4983  133.8646  159.7323 H   0  0  0  0  0  0  0  0  0  0  0  0  # atno 6909 bound_to 6896
  146.0524  139.5019  142.9710 H   0  0  0  0  0  0  0  0  0  0  0  0  # atno 7974 bound_to 7965
  155.5527  140.3486  155.4472 H   0  0  0  0  0  0  0  0  0  0  0  0  # atno 8008 bound_to 7997
  156.0571  140.1331  157.0010 H   0  0  0  0  0  0  0  0  0  0  0  0  # atno 8009 bound_to 7997
  154.4462  140.0993  156.6447 H   0  0  0  0  0  0  0  0  0  0  0  0  # atno 8010 bound_to 7997
  139.6738  143.9698  152.2299 H   0  0  0  0  0  0  0  0  0  0  0  0  # atno 10167 bound_to 10162
  157.1451  130.6649  149.5993 H   0  0  0  0  0  0  0  0  0  0  0  0  # atno 10718 bound_to 10713
  153.3752  135.6996  153.6607 H   0  0  0  0  0  0  0  0  0  0  0  0  # atno 10763 bound_to 10752
  153.5241  135.3606  155.2646 H   0  0  0  0  0  0  0  0  0  0  0  0  # atno 10764 bound_to 10752
  154.8686  135.4165  154.3038 H   0  0  0  0  0  0  0  0  0  0  0  0  # atno 10765 bound_to 10752
  140.4643  134.6225  157.4856 H   0  0  0  0  0  0  0  0  0  0  0  0  # atno 11005 bound_to 11000
  145.6701  141.0219  143.1662 LP  0  0  0  0  0  0  0  0  0  0  0  0  # atno 17320 bound_to 7965
  144.7130  139.8300  143.7408 LP  0  0  0  0  0  0  0  0  0  0  0  0  # atno 17321 bound_to 7965
  139.9470  144.6645  150.8209 LP  0  0  0  0  0  0  0  0  0  0  0  0  # atno 17342 bound_to 10162
  140.7628  143.3207  151.2629 LP  0  0  0  0  0  0  0  0  0  0  0  0  # atno 17343 bound_to 10162
  155.9781  130.4764  150.6635 LP  0  0  0  0  0  0  0  0  0  0  0  0  # atno 17370 bound_to 10713
  157.4272  131.0844  151.1074 LP  0  0  0  0  0  0  0  0  0  0  0  0  # atno 17371 bound_to 10713
  139.9925  134.6962  155.9665 LP  0  0  0  0  0  0  0  0  0  0  0  0  # atno 17394 bound_to 11000
  141.1607  133.6539  156.4308 LP  0  0  0  0  0  0  0  0  0  0  0  0  # atno 17395 bound_to 11000

$$$$
