AV-unprocessed.smi:3281|AV-procd|sdf|12557|dock5
  -GOLD-   2272018473D 1   1.00000     0.00000
 Structure written by MMmdl.
 37 38  0  0  0  0  0  0  0  0  2 V2000
  150.7689  135.1984  156.3270 C   0  0  0  0  0  0  0  0  0  0  0  0
  150.2492  135.7649  155.0009 C   0  0  0  0  0  0  0  0  0  0  0  0
  150.3221  137.2550  154.9276 C   0  0  0  0  0  0  0  0  0  0  0  0
  151.0790  138.0152  154.0702 C   0  0  0  0  0  0  0  0  0  0  0  0
  150.9265  139.3918  154.2513 N   0  0  0  0  0  0  0  0  0  0  0  0
  150.0818  139.6845  155.2424 C   0  0  0  0  0  0  0  0  0  0  0  0
  149.7197  141.0788  155.6295 C   0  0  0  0  0  0  0  0  0  0  0  0
  150.9008  141.8427  156.2412 C   0  0  0  0  0  0  0  0  0  0  0  0
  150.4288  142.9553  157.0891 N   0  3  0  0  0  0  0  0  0  0  0  0
  151.4021  143.4236  158.0996 C   0  0  1  0  0  0  0  0  0  0  0  0
  150.8888  144.7211  158.7535 C   0  0  0  0  0  0  0  0  0  0  0  0
  151.8726  145.2999  159.7845 C   0  0  0  0  0  0  0  0  0  0  0  0
  152.1466  144.3310  160.9432 C   0  0  0  0  0  0  0  0  0  0  0  0
  152.9088  142.7982  160.3462 S   0  0  0  0  0  0  0  0  0  0  0  0
  151.6410  142.3172  159.1421 C   0  0  0  0  0  0  0  0  0  0  0  0
  149.3829  138.2597  156.0020 S   0  0  0  0  0  0  0  0  0  0  0  0
  150.7078  134.1100  156.3344 H   0  0  0  0  0  0  0  0  0  0  0  0
  150.1871  135.5690  157.1713 H   0  0  0  0  0  0  0  0  0  0  0  0
  151.8108  135.4751  156.4907 H   0  0  0  0  0  0  0  0  0  0  0  0
  150.8199  135.3318  154.1785 H   0  0  0  0  0  0  0  0  0  0  0  0
  149.2173  135.4462  154.8518 H   0  0  0  0  0  0  0  0  0  0  0  0
  151.7499  137.6607  153.3014 H   0  0  0  0  0  0  0  0  0  0  0  0
  149.3523  141.5989  154.7442 H   0  0  0  0  0  0  0  0  0  0  0  0
  148.8897  141.0407  156.3363 H   0  0  0  0  0  0  0  0  0  0  0  0
  151.5108  141.1674  156.8432 H   0  0  0  0  0  0  0  0  0  0  0  0
  151.5384  142.2398  155.4499 H   0  0  0  0  0  0  0  0  0  0  0  0
  150.1928  143.7345  156.4913 H   0  0  0  0  0  0  0  0  0  0  0  0
  152.3525  143.6400  157.6080 H   0  0  0  0  0  0  0  0  0  0  0  0
  150.7096  145.4698  157.9810 H   0  0  0  0  0  0  0  0  0  0  0  0
  149.9252  144.5405  159.2320 H   0  0  0  0  0  0  0  0  0  0  0  0
  152.8111  145.5615  159.2941 H   0  0  0  0  0  0  0  0  0  0  0  0
  151.4678  146.2305  160.1839 H   0  0  0  0  0  0  0  0  0  0  0  0
  152.8135  144.7923  161.6719 H   0  0  0  0  0  0  0  0  0  0  0  0
  151.2205  144.0891  161.4659 H   0  0  0  0  0  0  0  0  0  0  0  0
  150.7186  142.0849  159.6758 H   0  0  0  0  0  0  0  0  0  0  0  0
  151.9678  141.3982  158.6542 H   0  0  0  0  0  0  0  0  0  0  0  0
  149.5919  142.6567  157.5693 H   0  0  0  0  0  0  0  0  0  0  0  0
  1  2  1  0  0  0  0
  1 17  1  0  0  0  0
  1 18  1  0  0  0  0
  1 19  1  0  0  0  0
  2  3  1  0  0  0  0
  2 20  1  0  0  0  0
  2 21  1  0  0  0  0
  3 16  1  0  0  0  0
  3  4  2  0  0  0  0
  4  5  1  0  0  0  0
  4 22  1  0  0  0  0
  5  6  2  0  0  0  0
  6  7  1  0  0  0  0
  6 16  1  0  0  0  0
  7  8  1  0  0  0  0
  7 23  1  0  0  0  0
  7 24  1  0  0  0  0
  8  9  1  0  0  0  0
  8 25  1  0  0  0  0
  8 26  1  0  0  0  0
  9 10  1  0  0  0  0
  9 27  1  0  0  0  0
  9 37  1  0  0  0  0
 10 15  1  0  0  0  0
 10 11  1  0  0  0  0
 10 28  1  0  0  0  0
 11 12  1  0  0  0  0
 11 29  1  0  0  0  0
 11 30  1  0  0  0  0
 12 13  1  0  0  0  0
 12 31  1  0  0  0  0
 12 32  1  0  0  0  0
 13 14  1  0  0  0  0
 13 33  1  0  0  0  0
 13 34  1  0  0  0  0
 14 15  1  0  0  0  0
 15 35  1  0  0  0  0
 15 36  1  0  0  0  0
M  CHG  1   9   1
M  END
> <s_m_source_file>
AV-unprocessed.smi

> <i_m_source_file_index>
3281

> <i_lp_mmshare_version>
43012

> <i_f3d_flags>
0

> <s_epik_input>
W0NIM11bQ0gyXWMxW2NIXW5jKHMxKVtDSDJdW0NIMl1bTkhdW0NAQEhdMltDSDJdW0NIMl1bQ0gyXVNbQ0gyXTI=

> <s_epik_cmdline>
J2VwaWtfcHl0aG9uJywgJy1waCcsICc3LjAnLCAnLXRuJywgJzgnLCAnLW1hJywgJzIwMCcsICctbWV0YWxfYmluZGluZycsICctaW1hZScsICc8aW5maWxlLm1hZT4nLCAnLW9tYWUnLCAnPG91dGZpbGUubWFlPic=

> <r_epik_Ionization_Penalty>
0.00827702

> <r_epik_Ionization_Penalty_Charging>
0.00826679

> <r_epik_Ionization_Penalty_Neutral>
1.02314e-05

> <r_epik_State_Penalty>
0.00622064

> <r_epik_Charging_Adjusted_Penalty>
0.0144874

> <i_epik_Tot_Q>
1

> <i_epik_Tot_abs_Q>
1

> <r_epik_Metal_State_Penalty>
0.0062521

> <b_epik_Metal_Only>
0

> <s_lp_Force_Field>
OPLS_2005

> <r_lp_Energy>
0.380523

> <b_lp_Chiralities_Consistent>
1

> <s_lp_Variant>
AV-unprocessed.smi:3281-2

> <Gold.Version>
5.8.1

> <Gold.Id.Protein>
6NUR|6NUR_protein|mol2

> <Gold.PLP.Fitness>
48.3769

> <Gold.PLP.PLP>
-37.2046

> <Gold.PLP.part.hbond>
-2.0000

> <Gold.PLP.part.metal>
0.0000

> <Gold.PLP.part.buried>
-5.5967

> <Gold.PLP.part.nonpolar>
-30.0427

> <Gold.PLP.part.repulsive>
0.1704

> <Gold.PLP.ligand.clash>
0.0000

> <Gold.PLP.ligand.torsion>
0.3199

> <Gold.PLP.Chemscore.Hbond>
2.9840

> <Gold.PLP.Chemscore.CHOScore>
0.9438

> <Gold.PLP.Chemscore.Metal>
0.0000

> <Gold.Chemscore.Hbonds>
donor molecule, donor type, donor heavy atom, donor atom, acceptor molecule, acceptor atom, score
      L1  H     9    27       P1  8028  1.95
      P1  H  7989  7998       L1     5  1.00
      L1  C     4    22       P1  7949  0.92

> <Gold.PLP.Chemscore.Internal.Correction>
0.0287

> <Gold.Rescore>
     Score         DG    S(hbond)    S(metal)    S(lipo)     H(rot)  DE(clash)    DE(int)     intcor
     21.42     -21.70       1.96        0.00     112.89       1.38       0.03       0.24       ----

> <Gold.Chemscore.Fitness>
21.4245

> <Gold.Chemscore.DG>
-21.6961

> <Gold.Chemscore.ZeroCoef>
-5.4800

> <Gold.Chemscore.Hbond>
1.9556

> <Gold.Chemscore.Metal>
0.0000

> <Gold.Chemscore.Lipo>
112.8944

> <Gold.Chemscore.Internal_Hbond>
0.0000

> <Gold.Chemscore.DEClash>
0.0275

> <Gold.Chemscore.DEInternal>
0.2441

> <Gold.Chemscore.Rot>
1.3767

> <Gold.Chemscore.Internal.Correction>
   9.000000E+99

> <Gold.Chemscore.Hbonds>
donor molecule, donor type, donor heavy atom, donor atom, acceptor molecule, acceptor atom, score
      L1  H     9    27       P1  8028  0.93
      P1  H  7989  7998       L1     5  0.85

> <Gold.Chemscore.Hbond.Weighted>
-6.5318

> <Gold.Chemscore.Metal.Weighted>
-0.0000

> <Gold.Chemscore.Lipo.Weighted>
-13.2086

> <Gold.Chemscore.Internal_Hbond.Weighted>
0.0000

> <Gold.Chemscore.DEClash.Weighted>
0.0275

> <Gold.Chemscore.DEInternal.Weighted>
0.2441

> <Gold.Chemscore.Rot.Weighted>
3.5243

> <Gold.Chemscore.Internal.Correction.Weighted>
   9.000000E+99

> <Gold.Protein.RotatedTorsions>
[ 6907 6896 6895 6894 ] final   61.14 input  -60.11 | X-H torsion
[ 7974 7965 7964 7962 ] final   42.59 input  175.53 | X-H torsion
[ 8008 7997 7996 7995 ] final   35.84 input   59.86 | X-H torsion
[ 10167 10162 10161 10158 ] final   84.23 input  -65.29 | X-H torsion
[ 10718 10713 10712 10709 ] final  175.71 input   66.30 | X-H torsion
[ 10763 10752 10751 10750 ] final  -90.06 input  -60.55 | X-H torsion
[ 11005 11000 10999 10996 ] final   18.73 input  -57.11 | X-H torsion

> <Gold.Protein.ActiveResidues>
 VAL166  LYS551  ARG553  GLY616  TRP617  ASP618  TYR619  PRO620  LYS621  CYS622 
 ASP623  PHE694  ASN695  SER759  ASP760  ASP761  ALA762  ILE779  LEU786  VAL792 
 PHE793  MET794  SER795  GLU796  ALA797  LYS798  CYS799  TRP800  GLU811  SER814 

> <Gold.Protein.RotatedAtoms>
  152.4063  134.6201  160.0048 H   0  0  0  0  0  0  0  0  0  0  0  0  # atno 6907 bound_to 6896
  151.6391  133.3321  159.3134 H   0  0  0  0  0  0  0  0  0  0  0  0  # atno 6908 bound_to 6896
  150.7958  134.7057  159.6620 H   0  0  0  0  0  0  0  0  0  0  0  0  # atno 6909 bound_to 6896
  146.0728  139.5283  142.9587 H   0  0  0  0  0  0  0  0  0  0  0  0  # atno 7974 bound_to 7965
  155.1776  140.3297  155.4381 H   0  0  0  0  0  0  0  0  0  0  0  0  # atno 8008 bound_to 7997
  156.2488  140.1932  156.6826 H   0  0  0  0  0  0  0  0  0  0  0  0  # atno 8009 bound_to 7997
  154.6294  140.0584  156.9699 H   0  0  0  0  0  0  0  0  0  0  0  0  # atno 8010 bound_to 7997
  139.9102  144.6277  150.8546 H   0  0  0  0  0  0  0  0  0  0  0  0  # atno 10167 bound_to 10162
  156.9309  130.9970  151.2987 H   0  0  0  0  0  0  0  0  0  0  0  0  # atno 10718 bound_to 10713
  154.6618  135.5318  153.8028 H   0  0  0  0  0  0  0  0  0  0  0  0  # atno 10763 bound_to 10752
  153.0447  135.6507  154.0860 H   0  0  0  0  0  0  0  0  0  0  0  0  # atno 10764 bound_to 10752
  154.0767  135.2950  155.3278 H   0  0  0  0  0  0  0  0  0  0  0  0  # atno 10765 bound_to 10752
  140.4216  134.1513  155.7673 H   0  0  0  0  0  0  0  0  0  0  0  0  # atno 11005 bound_to 11000
  145.6361  141.0294  143.1837 LP  0  0  0  0  0  0  0  0  0  0  0  0  # atno 17320 bound_to 7965
  144.7242  139.7929  143.7371 LP  0  0  0  0  0  0  0  0  0  0  0  0  # atno 17321 bound_to 7965
  140.7687  143.3372  151.2285 LP  0  0  0  0  0  0  0  0  0  0  0  0  # atno 17342 bound_to 10162
  139.6949  143.9629  152.2878 LP  0  0  0  0  0  0  0  0  0  0  0  0  # atno 17343 bound_to 10162
  157.5847  130.8401  149.8573 LP  0  0  0  0  0  0  0  0  0  0  0  0  # atno 17370 bound_to 10713
  156.0448  130.3730  150.1346 LP  0  0  0  0  0  0  0  0  0  0  0  0  # atno 17371 bound_to 10713
  141.1782  133.8470  157.1350 LP  0  0  0  0  0  0  0  0  0  0  0  0  # atno 17394 bound_to 11000
  140.0196  134.9952  157.0565 LP  0  0  0  0  0  0  0  0  0  0  0  0  # atno 17395 bound_to 11000

$$$$
