AV-unprocessed.smi:767|AV-procd|sdf|3671|dock10
  -GOLD-   22720 1 83D 1   1.00000     0.00000
 Structure written by MMmdl.
 48 50  0  0  0  0  0  0  0  0  2 V2000
  143.3465  132.5330  148.2172 C   0  0  0  0  0  0  0  0  0  0  0  0
  144.1531  132.8009  149.4703 C   0  0  0  0  0  0  0  0  0  0  0  0
  145.3712  132.1385  149.7327 C   0  0  0  0  0  0  0  0  0  0  0  0
  146.0728  132.4304  150.9209 C   0  0  0  0  0  0  0  0  0  0  0  0
  145.5404  133.3761  151.8245 C   0  0  0  0  0  0  0  0  0  0  0  0
  146.2627  133.7042  153.1206 C   0  0  0  0  0  0  0  0  0  0  0  0
  145.9884  135.1288  153.6492 C   0  0  0  0  0  0  0  0  0  0  0  0
  147.1775  135.9757  153.7028 N   0  0  0  0  0  0  0  0  0  0  0  0
  147.5441  136.7341  154.7450 C   0  0  0  0  0  0  0  0  0  0  0  0
  146.9187  136.8033  155.8028 O   0  0  0  0  0  0  0  0  0  0  0  0
  148.6884  137.3871  154.5060 N   0  0  0  0  0  0  0  0  0  0  0  0
  149.3694  138.2457  155.4804 C   0  0  2  0  0  0  0  0  0  0  0  0
  148.8507  139.6859  155.4674 C   0  0  2  0  0  0  0  0  0  0  0  0
  147.6350  140.3764  154.9643 C   0  0  0  0  0  0  0  0  0  0  0  0
  148.3496  141.6290  154.3877 C   0  0  0  0  0  0  0  0  0  0  0  0
  149.7697  141.3317  154.4235 O   0  0  0  0  0  0  0  0  0  0  0  0
  149.8245  139.9221  154.3315 C   0  0  1  0  0  0  0  0  0  0  0  0
  150.7388  138.8669  154.9934 C   0  0  0  0  0  0  0  0  0  0  0  0
  151.7131  139.3597  156.0784 C   0  0  0  0  0  0  0  0  0  0  0  0
  151.5809  138.0294  154.0242 C   0  0  0  0  0  0  0  0  0  0  0  0
  144.3189  134.0089  151.5078 C   0  0  0  0  0  0  0  0  0  0  0  0
  143.6777  133.7017  150.3593 N   0  3  0  0  0  0  0  0  0  0  0  0
  144.0032  132.2822  147.3836 H   0  0  0  0  0  0  0  0  0  0  0  0
  142.7596  133.4075  147.9342 H   0  0  0  0  0  0  0  0  0  0  0  0
  142.6644  131.6981  148.3796 H   0  0  0  0  0  0  0  0  0  0  0  0
  145.7642  131.4147  149.0334 H   0  0  0  0  0  0  0  0  0  0  0  0
  147.0054  131.9301  151.1372 H   0  0  0  0  0  0  0  0  0  0  0  0
  145.9787  132.9716  153.8768 H   0  0  0  0  0  0  0  0  0  0  0  0
  147.3349  133.5723  152.9692 H   0  0  0  0  0  0  0  0  0  0  0  0
  145.2777  135.6249  152.9879 H   0  0  0  0  0  0  0  0  0  0  0  0
  145.5143  135.0857  154.6309 H   0  0  0  0  0  0  0  0  0  0  0  0
  147.7621  135.9886  152.8796 H   0  0  0  0  0  0  0  0  0  0  0  0
  149.1298  137.2741  153.6052 H   0  0  0  0  0  0  0  0  0  0  0  0
  149.4176  137.8244  156.4861 H   0  0  0  0  0  0  0  0  0  0  0  0
  149.1615  140.1678  156.3977 H   0  0  0  0  0  0  0  0  0  0  0  0
  147.1237  139.8034  154.1897 H   0  0  0  0  0  0  0  0  0  0  0  0
  146.9268  140.6232  155.7557 H   0  0  0  0  0  0  0  0  0  0  0  0
  148.0264  141.8231  153.3640 H   0  0  0  0  0  0  0  0  0  0  0  0
  148.1491  142.5215  154.9809 H   0  0  0  0  0  0  0  0  0  0  0  0
  149.4585  139.5919  153.3539 H   0  0  0  0  0  0  0  0  0  0  0  0
  152.4769  140.0132  155.6559 H   0  0  0  0  0  0  0  0  0  0  0  0
  152.2272  138.5247  156.5552 H   0  0  0  0  0  0  0  0  0  0  0  0
  151.2290  139.9201  156.8761 H   0  0  0  0  0  0  0  0  0  0  0  0
  152.4578  138.5764  153.6760 H   0  0  0  0  0  0  0  0  0  0  0  0
  151.0172  137.7459  153.1356 H   0  0  0  0  0  0  0  0  0  0  0  0
  151.9304  137.1096  154.4943 H   0  0  0  0  0  0  0  0  0  0  0  0
  143.8339  134.7402  152.1379 H   0  0  0  0  0  0  0  0  0  0  0  0
  142.7948  134.1703  150.1543 H   0  0  0  0  0  0  0  0  0  0  0  0
  1  2  1  0  0  0  0
  1 23  1  0  0  0  0
  1 24  1  0  0  0  0
  1 25  1  0  0  0  0
  2 22  1  0  0  0  0
  2  3  2  0  0  0  0
  3  4  1  0  0  0  0
  3 26  1  0  0  0  0
  4  5  2  0  0  0  0
  4 27  1  0  0  0  0
  5  6  1  0  0  0  0
  5 21  1  0  0  0  0
  6  7  1  0  0  0  0
  6 28  1  0  0  0  0
  6 29  1  0  0  0  0
  7  8  1  0  0  0  0
  7 30  1  0  0  0  0
  7 31  1  0  0  0  0
  8  9  1  0  0  0  0
  8 32  1  0  0  0  0
  9 10  2  0  0  0  0
  9 11  1  0  0  0  0
 11 12  1  0  0  0  0
 11 33  1  0  0  0  0
 12 18  1  0  0  0  0
 12 13  1  0  0  0  0
 12 34  1  0  0  0  0
 13 17  1  0  0  0  0
 13 14  1  0  0  0  0
 13 35  1  0  0  0  0
 14 15  1  0  0  0  0
 14 36  1  0  0  0  0
 14 37  1  0  0  0  0
 15 16  1  0  0  0  0
 15 38  1  0  0  0  0
 15 39  1  0  0  0  0
 16 17  1  0  0  0  0
 17 18  1  0  0  0  0
 17 40  1  0  0  0  0
 18 19  1  0  0  0  0
 18 20  1  0  0  0  0
 19 41  1  0  0  0  0
 19 42  1  0  0  0  0
 19 43  1  0  0  0  0
 20 44  1  0  0  0  0
 20 45  1  0  0  0  0
 20 46  1  0  0  0  0
 21 22  2  0  0  0  0
 21 47  1  0  0  0  0
 22 48  1  0  0  0  0
M  CHG  1  22   1
M  END
> <s_m_source_file>
AV-unprocessed.smi

> <i_m_source_file_index>
767

> <i_lp_mmshare_version>
43012

> <i_f3d_flags>
0

> <s_epik_input>
W0NIM11jMVtjSF1bY0hdYyhbY0hdbjEpW0NIMl1bQ0gyXVtOSF1DKD1PKVtOSF1bQ0BIXTJDKFtDSDNdKShbQ0gzXSlbQ0BIXShbQ0BASF0yMylPW0NIMl1bQ0gyXTM=

> <s_epik_cmdline>
J2VwaWtfcHl0aG9uJywgJy1waCcsICc3LjAnLCAnLXRuJywgJzgnLCAnLW1hJywgJzIwMCcsICctbWV0YWxfYmluZGluZycsICctaW1hZScsICc8aW5maWxlLm1hZT4nLCAnLW9tYWUnLCAnPG91dGZpbGUubWFlPic=

> <r_epik_Ionization_Penalty>
1.41853

> <r_epik_Ionization_Penalty_Charging>
1.41848

> <r_epik_Ionization_Penalty_Neutral>
5.17407e-05

> <r_epik_State_Penalty>
1.50205

> <r_epik_Charging_Adjusted_Penalty>
2.92053

> <i_epik_Tot_Q>
1

> <i_epik_Tot_abs_Q>
1

> <r_epik_Metal_State_Penalty>
1.5544

> <b_epik_Metal_Only>
0

> <s_lp_Force_Field>
OPLS_2005

> <r_lp_Energy>
65.9861

> <b_lp_Chiralities_Consistent>
1

> <s_lp_Variant>
AV-unprocessed.smi:767-15

> <Gold.Version>
5.8.1

> <Gold.Id.Protein>
6NUR|6NUR_protein|mol2

> <Gold.PLP.Fitness>
47.6061

> <Gold.PLP.PLP>
-37.8079

> <Gold.PLP.part.hbond>
-4.6757

> <Gold.PLP.part.metal>
0.0000

> <Gold.PLP.part.buried>
-1.5241

> <Gold.PLP.part.nonpolar>
-30.9130

> <Gold.PLP.part.repulsive>
0.2085

> <Gold.PLP.ligand.clash>
0.0000

> <Gold.PLP.ligand.torsion>
0.9978

> <Gold.PLP.Chemscore.Hbond>
3.8445

> <Gold.PLP.Chemscore.CHOScore>
0.0000

> <Gold.PLP.Chemscore.Metal>
0.0000

> <Gold.Chemscore.Hbonds>
donor molecule, donor type, donor heavy atom, donor atom, acceptor molecule, acceptor atom, score
      L1  H     8    32       P1  7948  1.00
      L1  H    11    33       P1  7948  0.85
      L1  H    22    48       P1 10186  2.00
      P1  H  8011  8017       L1    16  0.03

> <Gold.PLP.Chemscore.Internal.Correction>
0.2603

> <Gold.Rescore>
     Score         DG    S(hbond)    S(metal)    S(lipo)     H(rot)  DE(clash)    DE(int)     intcor
     22.50     -23.74       2.81        0.00     109.11       1.52       0.24       1.00       ----

> <Gold.Chemscore.Fitness>
22.5018

> <Gold.Chemscore.DG>
-23.7437

> <Gold.Chemscore.ZeroCoef>
-5.4800

> <Gold.Chemscore.Hbond>
2.8134

> <Gold.Chemscore.Metal>
0.0000

> <Gold.Chemscore.Lipo>
109.1147

> <Gold.Chemscore.Internal_Hbond>
0.0000

> <Gold.Chemscore.DEClash>
0.2414

> <Gold.Chemscore.DEInternal>
1.0005

> <Gold.Chemscore.Rot>
1.5233

> <Gold.Chemscore.Internal.Correction>
   9.000000E+99

> <Gold.Chemscore.Hbonds>
donor molecule, donor type, donor heavy atom, donor atom, acceptor molecule, acceptor atom, score
      L1  H     8    32       P1  7948  0.97
      L1  H    11    33       P1  7948  0.80
      L1  H    22    48       P1 10186  0.95

> <Gold.Chemscore.Hbond.Weighted>
-9.3968

> <Gold.Chemscore.Metal.Weighted>
-0.0000

> <Gold.Chemscore.Lipo.Weighted>
-12.7664

> <Gold.Chemscore.Internal_Hbond.Weighted>
0.0000

> <Gold.Chemscore.DEClash.Weighted>
0.2414

> <Gold.Chemscore.DEInternal.Weighted>
1.0005

> <Gold.Chemscore.Rot.Weighted>
3.8995

> <Gold.Chemscore.Internal.Correction.Weighted>
   9.000000E+99

> <Gold.Protein.RotatedTorsions>
[ 6907 6896 6895 6894 ] final -117.45 input  -60.11 | X-H torsion
[ 7974 7965 7964 7962 ] final  -46.52 input  175.53 | X-H torsion
[ 8008 7997 7996 7995 ] final    7.93 input   59.86 | X-H torsion
[ 10167 10162 10161 10158 ] final -163.44 input  -65.29 | X-H torsion
[ 10718 10713 10712 10709 ] final  116.75 input   66.30 | X-H torsion
[ 10763 10752 10751 10750 ] final   78.49 input  -60.55 | X-H torsion
[ 11005 11000 10999 10996 ] final  -35.60 input  -57.11 | X-H torsion

> <Gold.Protein.ActiveResidues>
 VAL166  LYS551  ARG553  GLY616  TRP617  ASP618  TYR619  PRO620  LYS621  CYS622 
 ASP623  PHE694  ASN695  SER759  ASP760  ASP761  ALA762  ILE779  LEU786  VAL792 
 PHE793  MET794  SER795  GLU796  ALA797  LYS798  CYS799  TRP800  GLU811  SER814 

> <Gold.Protein.RotatedAtoms>
  150.8137  133.8375  159.3170 H   0  0  0  0  0  0  0  0  0  0  0  0  # atno 6907 bound_to 6896
  151.6153  135.1035  160.0099 H   0  0  0  0  0  0  0  0  0  0  0  0  # atno 6908 bound_to 6896
  152.4229  133.7106  159.6533 H   0  0  0  0  0  0  0  0  0  0  0  0  # atno 6909 bound_to 6896
  145.9711  140.7382  142.9410 H   0  0  0  0  0  0  0  0  0  0  0  0  # atno 7974 bound_to 7965
  154.7602  140.2783  155.6221 H   0  0  0  0  0  0  0  0  0  0  0  0  # atno 8008 bound_to 7997
  156.2914  140.2661  156.2305 H   0  0  0  0  0  0  0  0  0  0  0  0  # atno 8009 bound_to 7997
  155.0027  140.0372  157.2356 H   0  0  0  0  0  0  0  0  0  0  0  0  # atno 8010 bound_to 7997
  139.6320  144.0421  152.2024 H   0  0  0  0  0  0  0  0  0  0  0  0  # atno 10167 bound_to 10162
  157.6140  131.1029  150.7518 H   0  0  0  0  0  0  0  0  0  0  0  0  # atno 10718 bound_to 10713
  153.0878  135.4875  154.8631 H   0  0  0  0  0  0  0  0  0  0  0  0  # atno 10763 bound_to 10752
  154.7232  135.3044  154.9015 H   0  0  0  0  0  0  0  0  0  0  0  0  # atno 10764 bound_to 10752
  153.9673  135.6805  153.4799 H   0  0  0  0  0  0  0  0  0  0  0  0  # atno 10765 bound_to 10752
  140.9809  133.7057  156.1682 H   0  0  0  0  0  0  0  0  0  0  0  0  # atno 11005 bound_to 11000
  144.6837  140.2750  143.7300 LP  0  0  0  0  0  0  0  0  0  0  0  0  # atno 17320 bound_to 7965
  145.7905  139.1925  143.2106 LP  0  0  0  0  0  0  0  0  0  0  0  0  # atno 17321 bound_to 7965
  140.0089  144.6239  150.7665 LP  0  0  0  0  0  0  0  0  0  0  0  0  # atno 17342 bound_to 10162
  140.7444  143.2861  151.3460 LP  0  0  0  0  0  0  0  0  0  0  0  0  # atno 17343 bound_to 10162
  156.7889  130.4883  149.5388 LP  0  0  0  0  0  0  0  0  0  0  0  0  # atno 17370 bound_to 10713
  156.1255  130.6140  151.0256 LP  0  0  0  0  0  0  0  0  0  0  0  0  # atno 17371 bound_to 10713
  140.7188  134.4381  157.5576 LP  0  0  0  0  0  0  0  0  0  0  0  0  # atno 17394 bound_to 11000
  139.8950  134.8694  156.2152 LP  0  0  0  0  0  0  0  0  0  0  0  0  # atno 17395 bound_to 11000

$$$$
