AV-unprocessed.smi:1224|AV-procd|sdf|5134|dock1
  -GOLD-   22720 4193D 1   1.00000     0.00000
 Structure written by MMmdl.
 44 46  0  0  0  0  0  0  0  0  2 V2000
  152.0804  144.7669  160.6373 C   0  0  0  0  0  0  0  0  0  0  0  0
  151.8956  143.5328  159.7707 C   0  0  0  0  0  0  0  0  0  0  0  0
  151.0759  143.6312  158.6235 C   0  0  0  0  0  0  0  0  0  0  0  0
  150.9251  142.4854  157.8514 C   0  0  0  0  0  0  0  0  0  0  0  0
  150.1983  142.2587  156.6805 N   0  3  0  0  0  0  0  0  0  0  0  0
  150.3590  140.9642  156.2894 C   0  0  0  0  0  0  0  0  0  0  0  0
  151.1771  140.3616  157.1944 N   0  0  0  0  0  0  0  0  0  0  0  0
  151.6734  138.9802  157.2453 C   0  0  0  0  0  0  0  0  0  0  0  0
  151.2787  138.2485  158.5430 C   0  0  2  0  0  0  0  0  0  0  0  0
  151.8020  136.9353  158.5040 O   0  0  0  0  0  0  0  0  0  0  0  0
  149.7522  138.1596  158.7020 C   0  0  0  0  0  0  0  0  0  0  0  0
  149.3863  137.2956  159.8201 N   0  0  0  0  0  0  0  0  0  0  0  0
  148.0037  136.8350  159.7620 C   0  0  0  0  0  0  0  0  0  0  0  0
  147.6514  135.9792  160.9323 C   0  0  0  0  0  0  0  0  0  0  0  0
  147.2832  134.6573  160.9259 C   0  0  0  0  0  0  0  0  0  0  0  0
  147.0140  134.1437  162.2284 C   0  0  0  0  0  0  0  0  0  0  0  0
  147.1813  135.0806  163.2132 C   0  0  0  0  0  0  0  0  0  0  0  0
  147.6735  136.6181  162.5567 S   0  0  0  0  0  0  0  0  0  0  0  0
  151.5564  141.2718  158.1858 C   0  0  0  0  0  0  0  0  0  0  0  0
  152.3687  141.1572  159.3110 C   0  0  0  0  0  0  0  0  0  0  0  0
  152.5341  142.3115  160.1095 C   0  0  0  0  0  0  0  0  0  0  0  0
  153.4130  142.2168  161.3452 C   0  0  0  0  0  0  0  0  0  0  0  0
  151.4969  145.6086  160.2627 H   0  0  0  0  0  0  0  0  0  0  0  0
  153.1279  145.0687  160.6537 H   0  0  0  0  0  0  0  0  0  0  0  0
  151.7595  144.5697  161.6603 H   0  0  0  0  0  0  0  0  0  0  0  0
  150.5877  144.5577  158.3583 H   0  0  0  0  0  0  0  0  0  0  0  0
  149.9213  140.4999  155.4174 H   0  0  0  0  0  0  0  0  0  0  0  0
  151.3036  138.4487  156.3675 H   0  0  0  0  0  0  0  0  0  0  0  0
  152.7595  139.0194  157.1481 H   0  0  0  0  0  0  0  0  0  0  0  0
  151.7120  138.7740  159.3953 H   0  0  0  0  0  0  0  0  0  0  0  0
  151.6096  136.5651  157.6556 H   0  0  0  0  0  0  0  0  0  0  0  0
  149.3585  139.1592  158.8898 H   0  0  0  0  0  0  0  0  0  0  0  0
  149.2893  137.8162  157.7755 H   0  0  0  0  0  0  0  0  0  0  0  0
  149.5354  137.7956  160.6907 H   0  0  0  0  0  0  0  0  0  0  0  0
  147.3292  137.6911  159.7189 H   0  0  0  0  0  0  0  0  0  0  0  0
  147.8388  136.2688  158.8446 H   0  0  0  0  0  0  0  0  0  0  0  0
  147.1993  134.0469  160.0389 H   0  0  0  0  0  0  0  0  0  0  0  0
  146.7117  133.1201  162.3949 H   0  0  0  0  0  0  0  0  0  0  0  0
  147.0461  134.9630  164.2781 H   0  0  0  0  0  0  0  0  0  0  0  0
  152.8549  140.2273  159.5668 H   0  0  0  0  0  0  0  0  0  0  0  0
  153.8640  141.2283  161.4391 H   0  0  0  0  0  0  0  0  0  0  0  0
  152.8267  142.4024  162.2454 H   0  0  0  0  0  0  0  0  0  0  0  0
  154.2209  142.9473  161.3001 H   0  0  0  0  0  0  0  0  0  0  0  0
  149.6347  142.9354  156.1820 H   0  0  0  0  0  0  0  0  0  0  0  0
  1  2  1  0  0  0  0
  1 23  1  0  0  0  0
  1 24  1  0  0  0  0
  1 25  1  0  0  0  0
  2 21  1  0  0  0  0
  2  3  2  0  0  0  0
  3  4  1  0  0  0  0
  3 26  1  0  0  0  0
  4 19  2  0  0  0  0
  4  5  1  0  0  0  0
  5  6  2  0  0  0  0
  5 44  1  0  0  0  0
  6  7  1  0  0  0  0
  6 27  1  0  0  0  0
  7  8  1  0  0  0  0
  7 19  1  0  0  0  0
  8  9  1  0  0  0  0
  8 28  1  0  0  0  0
  8 29  1  0  0  0  0
  9 10  1  0  0  0  0
  9 11  1  0  0  0  0
  9 30  1  0  0  0  0
 10 31  1  0  0  0  0
 11 12  1  0  0  0  0
 11 32  1  0  0  0  0
 11 33  1  0  0  0  0
 12 13  1  0  0  0  0
 12 34  1  0  0  0  0
 13 14  1  0  0  0  0
 13 35  1  0  0  0  0
 13 36  1  0  0  0  0
 14 18  1  0  0  0  0
 14 15  2  0  0  0  0
 15 16  1  0  0  0  0
 15 37  1  0  0  0  0
 16 17  2  0  0  0  0
 16 38  1  0  0  0  0
 17 18  1  0  0  0  0
 17 39  1  0  0  0  0
 19 20  1  0  0  0  0
 20 21  2  0  0  0  0
 20 40  1  0  0  0  0
 21 22  1  0  0  0  0
 22 41  1  0  0  0  0
 22 42  1  0  0  0  0
 22 43  1  0  0  0  0
M  CHG  1   5   1
M  END
> <s_m_source_file>
AV-unprocessed.smi

> <i_m_source_file_index>
1224

> <i_lp_mmshare_version>
43012

> <i_f3d_flags>
0

> <s_epik_input>
W0NIM11jKFtjSF0xKWMoW0NIM10pW2NIXWMoYzEyKW4oW2NIXW4yKVtDSDJdW0NASF0oW09IXSlbQ0gyXVtOSF1bQ0gyXWMzW2NIXVtjSF1bY0hdczM=

> <s_epik_cmdline>
J2VwaWtfcHl0aG9uJywgJy1waCcsICc3LjAnLCAnLXRuJywgJzgnLCAnLW1hJywgJzIwMCcsICctbWV0YWxfYmluZGluZycsICctaW1hZScsICc8aW5maWxlLm1hZT4nLCAnLW9tYWUnLCAnPG91dGZpbGUubWFlPic=

> <r_epik_Ionization_Penalty>
2.3772

> <r_epik_Ionization_Penalty_Charging>
0.996291

> <r_epik_Ionization_Penalty_Neutral>
1.38091

> <r_epik_State_Penalty>
2.60954

> <r_epik_Charging_Adjusted_Penalty>
3.60583

> <i_epik_Tot_Q>
1

> <i_epik_Tot_abs_Q>
1

> <r_epik_Metal_State_Penalty>
6.5861

> <b_epik_Metal_Only>
0

> <s_lp_Force_Field>
OPLS_2005

> <r_lp_Energy>
18.5574

> <b_lp_Chiralities_Consistent>
1

> <s_lp_Variant>
AV-unprocessed.smi:1224-7

> <Gold.Version>
5.8.1

> <Gold.Id.Protein>
6NUR|6NUR_protein|mol2

> <Gold.PLP.Fitness>
57.6334

> <Gold.PLP.PLP>
-51.3435

> <Gold.PLP.part.hbond>
-2.5941

> <Gold.PLP.part.metal>
0.0000

> <Gold.PLP.part.buried>
-6.8330

> <Gold.PLP.part.nonpolar>
-43.4002

> <Gold.PLP.part.repulsive>
0.0490

> <Gold.PLP.ligand.clash>
0.0000

> <Gold.PLP.ligand.torsion>
0.1295

> <Gold.PLP.Chemscore.Hbond>
2.1674

> <Gold.PLP.Chemscore.CHOScore>
0.0000

> <Gold.PLP.Chemscore.Metal>
0.0000

> <Gold.Chemscore.Hbonds>
donor molecule, donor type, donor heavy atom, donor atom, acceptor molecule, acceptor atom, score
      L1  H     5    44       P1  8028  2.00
      P1  H  6896  6909       L1    10  0.24

> <Gold.PLP.Chemscore.Internal.Correction>
0.0467

> <Gold.Rescore>
     Score         DG    S(hbond)    S(metal)    S(lipo)     H(rot)  DE(clash)    DE(int)     intcor
     19.21     -19.49       1.05        0.00     142.37       2.40       0.10       0.18       ----

> <Gold.Chemscore.Fitness>
19.2132

> <Gold.Chemscore.DG>
-19.4909

> <Gold.Chemscore.ZeroCoef>
-5.4800

> <Gold.Chemscore.Hbond>
1.0465

> <Gold.Chemscore.Metal>
0.0000

> <Gold.Chemscore.Lipo>
142.3689

> <Gold.Chemscore.Internal_Hbond>
0.0000

> <Gold.Chemscore.DEClash>
0.0951

> <Gold.Chemscore.DEInternal>
0.1827

> <Gold.Chemscore.Rot>
2.3990

> <Gold.Chemscore.Internal.Correction>
   9.000000E+99

> <Gold.Chemscore.Hbonds>
donor molecule, donor type, donor heavy atom, donor atom, acceptor molecule, acceptor atom, score
      L1  H     5    44       P1  8028  0.95
      P1  H  6896  6909       L1    10  0.11

> <Gold.Chemscore.Hbond.Weighted>
-3.4953

> <Gold.Chemscore.Metal.Weighted>
-0.0000

> <Gold.Chemscore.Lipo.Weighted>
-16.6572

> <Gold.Chemscore.Internal_Hbond.Weighted>
0.0000

> <Gold.Chemscore.DEClash.Weighted>
0.0951

> <Gold.Chemscore.DEInternal.Weighted>
0.1827

> <Gold.Chemscore.Rot.Weighted>
6.1415

> <Gold.Chemscore.Internal.Correction.Weighted>
   9.000000E+99

> <Gold.Protein.RotatedTorsions>
[ 6907 6896 6895 6894 ] final  117.41 input  -60.11 | X-H torsion
[ 7974 7965 7964 7962 ] final  -76.25 input  175.53 | X-H torsion
[ 8008 7997 7996 7995 ] final   42.96 input   59.86 | X-H torsion
[ 10167 10162 10161 10158 ] final   73.23 input  -65.29 | X-H torsion
[ 10718 10713 10712 10709 ] final   39.26 input   66.30 | X-H torsion
[ 10763 10752 10751 10750 ] final  -81.58 input  -60.55 | X-H torsion
[ 11005 11000 10999 10996 ] final   40.42 input  -57.11 | X-H torsion

> <Gold.Protein.ActiveResidues>
 VAL166  LYS551  ARG553  GLY616  TRP617  ASP618  TYR619  PRO620  LYS621  CYS622 
 ASP623  PHE694  ASN695  SER759  ASP760  ASP761  ALA762  ILE779  LEU786  VAL792 
 PHE793  MET794  SER795  GLU796  ALA797  LYS798  CYS799  TRP800  GLU811  SER814 

> <Gold.Protein.RotatedAtoms>
  152.4613  133.7829  159.6859 H   0  0  0  0  0  0  0  0  0  0  0  0  # atno 6907 bound_to 6896
  150.8559  133.7707  159.3015 H   0  0  0  0  0  0  0  0  0  0  0  0  # atno 6908 bound_to 6896
  151.5287  135.1071  159.9949 H   0  0  0  0  0  0  0  0  0  0  0  0  # atno 6909 bound_to 6896
  145.6153  140.9376  143.1167 H   0  0  0  0  0  0  0  0  0  0  0  0  # atno 7974 bound_to 7965
  155.2948  140.3381  155.4250 H   0  0  0  0  0  0  0  0  0  0  0  0  # atno 8008 bound_to 7997
  156.2029  140.1740  156.7901 H   0  0  0  0  0  0  0  0  0  0  0  0  # atno 8009 bound_to 7997
  154.5582  140.0692  156.8762 H   0  0  0  0  0  0  0  0  0  0  0  0  # atno 8010 bound_to 7997
  140.0267  144.5498  150.7539 H   0  0  0  0  0  0  0  0  0  0  0  0  # atno 10167 bound_to 10162
  157.3684  130.7688  149.7100 H   0  0  0  0  0  0  0  0  0  0  0  0  # atno 10718 bound_to 10713
  154.5653  135.5621  153.7044 H   0  0  0  0  0  0  0  0  0  0  0  0  # atno 10763 bound_to 10752
  153.0031  135.6284  154.2189 H   0  0  0  0  0  0  0  0  0  0  0  0  # atno 10764 bound_to 10752
  154.2128  135.2873  155.2932 H   0  0  0  0  0  0  0  0  0  0  0  0  # atno 10765 bound_to 10752
  140.1933  134.3960  155.8135 H   0  0  0  0  0  0  0  0  0  0  0  0  # atno 11005 bound_to 11000
  144.7253  139.7896  143.7367 LP  0  0  0  0  0  0  0  0  0  0  0  0  # atno 17320 bound_to 7965
  146.1473  139.4545  143.0071 LP  0  0  0  0  0  0  0  0  0  0  0  0  # atno 17321 bound_to 7965
  140.7319  143.2700  151.3919 LP  0  0  0  0  0  0  0  0  0  0  0  0  # atno 17342 bound_to 10162
  139.6103  144.1111  152.2292 LP  0  0  0  0  0  0  0  0  0  0  0  0  # atno 17343 bound_to 10162
  155.9751  130.4094  150.3876 LP  0  0  0  0  0  0  0  0  0  0  0  0  # atno 17370 bound_to 10713
  157.1964  131.0427  151.2673 LP  0  0  0  0  0  0  0  0  0  0  0  0  # atno 17371 bound_to 10713
  141.2226  133.7057  156.8132 LP  0  0  0  0  0  0  0  0  0  0  0  0  # atno 17394 bound_to 11000
  140.2136  134.8809  157.3301 LP  0  0  0  0  0  0  0  0  0  0  0  0  # atno 17395 bound_to 11000

$$$$
