AV-unprocessed.smi:1885|AV-procd|sdf|7651|dock1
  -GOLD-   22720 9383D 1   1.00000     0.00000
 Structure written by MMmdl.
 43 45  0  0  0  0  0  0  0  0  1 V2000
  143.2914  147.2746  154.9823 C   0  0  0  0  0  0  0  0  0  0  0  0
  143.9721  146.6049  153.9312 O   0  0  0  0  0  0  0  0  0  0  0  0
  144.4010  145.3144  154.1560 C   0  0  0  0  0  0  0  0  0  0  0  0
  144.1823  144.6008  155.3616 C   0  0  0  0  0  0  0  0  0  0  0  0
  144.6622  143.2849  155.5089 C   0  0  0  0  0  0  0  0  0  0  0  0
  145.3711  142.6648  154.4603 C   0  0  0  0  0  0  0  0  0  0  0  0
  145.9000  141.2538  154.6226 C   0  0  0  0  0  0  0  0  0  0  0  0
  147.2667  141.1702  154.2549 O   0  0  0  0  0  0  0  0  0  0  0  0
  148.1236  141.8954  155.1215 C   0  0  0  0  0  0  0  0  0  0  0  0
  149.5335  141.2737  155.1084 C   0  0  1  0  0  0  0  0  0  0  0  0
  149.8429  140.8413  153.8006 O   0  0  0  0  0  0  0  0  0  0  0  0
  150.6633  142.1802  155.6445 C   0  0  0  0  0  0  0  0  0  0  0  0
  151.1979  141.7283  156.9178 N   0  0  0  0  0  0  0  0  0  0  0  0
  151.4979  140.4623  157.2670 C   0  0  0  0  0  0  0  0  0  0  0  0
  151.9659  140.2639  158.4960 N   0  0  0  0  0  0  0  0  0  0  0  0
  151.9824  141.5529  159.0009 C   0  0  0  0  0  0  0  0  0  0  0  0
  152.3735  142.0351  160.2705 C   0  0  0  0  0  0  0  0  0  0  0  0
  152.3081  143.4132  160.5640 C   0  0  0  0  0  0  0  0  0  0  0  0
  152.6862  143.8580  161.7860 F   0  0  0  0  0  0  0  0  0  0  0  0
  151.8528  144.3292  159.5931 C   0  0  0  0  0  0  0  0  0  0  0  0
  151.7949  145.6508  159.8824 F   0  0  0  0  0  0  0  0  0  0  0  0
  151.4535  143.8718  158.3229 C   0  0  0  0  0  0  0  0  0  0  0  0
  151.5172  142.4953  158.0347 C   0  0  0  0  0  0  0  0  0  0  0  0
  145.5815  143.3649  153.2558 C   0  0  0  0  0  0  0  0  0  0  0  0
  145.1005  144.6798  153.1090 C   0  0  0  0  0  0  0  0  0  0  0  0
  143.0347  148.2833  154.6590 H   0  0  0  0  0  0  0  0  0  0  0  0
  143.9186  147.3623  155.8708 H   0  0  0  0  0  0  0  0  0  0  0  0
  142.3625  146.7659  155.2434 H   0  0  0  0  0  0  0  0  0  0  0  0
  143.6512  145.0422  156.1913 H   0  0  0  0  0  0  0  0  0  0  0  0
  144.4914  142.7582  156.4364 H   0  0  0  0  0  0  0  0  0  0  0  0
  145.7746  140.9425  155.6611 H   0  0  0  0  0  0  0  0  0  0  0  0
  145.3075  140.5774  154.0052 H   0  0  0  0  0  0  0  0  0  0  0  0
  148.1920  142.9269  154.7716 H   0  0  0  0  0  0  0  0  0  0  0  0
  147.7150  141.9309  156.1328 H   0  0  0  0  0  0  0  0  0  0  0  0
  149.4983  140.3725  155.7218 H   0  0  0  0  0  0  0  0  0  0  0  0
  149.1886  140.2145  153.5313 H   0  0  0  0  0  0  0  0  0  0  0  0
  151.4809  142.2342  154.9247 H   0  0  0  0  0  0  0  0  0  0  0  0
  150.2959  143.1992  155.7705 H   0  0  0  0  0  0  0  0  0  0  0  0
  151.3546  139.6387  156.5827 H   0  0  0  0  0  0  0  0  0  0  0  0
  152.7258  141.3435  161.0212 H   0  0  0  0  0  0  0  0  0  0  0  0
  151.0950  144.5722  157.5836 H   0  0  0  0  0  0  0  0  0  0  0  0
  146.1185  142.8976  152.4433 H   0  0  0  0  0  0  0  0  0  0  0  0
  145.2734  145.2090  152.1834 H   0  0  0  0  0  0  0  0  0  0  0  0
  1  2  1  0  0  0  0
  1 26  1  0  0  0  0
  1 27  1  0  0  0  0
  1 28  1  0  0  0  0
  2  3  1  0  0  0  0
  3 25  1  0  0  0  0
  3  4  2  0  0  0  0
  4  5  1  0  0  0  0
  4 29  1  0  0  0  0
  5  6  2  0  0  0  0
  5 30  1  0  0  0  0
  6  7  1  0  0  0  0
  6 24  1  0  0  0  0
  7  8  1  0  0  0  0
  7 31  1  0  0  0  0
  7 32  1  0  0  0  0
  8  9  1  0  0  0  0
  9 10  1  0  0  0  0
  9 33  1  0  0  0  0
  9 34  1  0  0  0  0
 10 11  1  0  0  0  0
 10 12  1  0  0  0  0
 10 35  1  0  0  0  0
 11 36  1  0  0  0  0
 12 13  1  0  0  0  0
 12 37  1  0  0  0  0
 12 38  1  0  0  0  0
 13 23  1  0  0  0  0
 13 14  1  0  0  0  0
 14 15  2  0  0  0  0
 14 39  1  0  0  0  0
 15 16  1  0  0  0  0
 16 23  2  0  0  0  0
 16 17  1  0  0  0  0
 17 18  2  0  0  0  0
 17 40  1  0  0  0  0
 18 19  1  0  0  0  0
 18 20  1  0  0  0  0
 20 21  1  0  0  0  0
 20 22  2  0  0  0  0
 22 23  1  0  0  0  0
 22 41  1  0  0  0  0
 24 25  2  0  0  0  0
 24 42  1  0  0  0  0
 25 43  1  0  0  0  0
M  END
> <s_m_source_file>
AV-unprocessed.smi

> <i_m_source_file_index>
1885

> <i_lp_mmshare_version>
43012

> <i_f3d_flags>
0

> <s_epik_input>
W0NIM11PYzFbY0hdW2NIXWMoW2NIXVtjSF0xKVtDSDJdT1tDSDJdW0NASF0oW09IXSlbQ0gyXW4oW2NIXW4yKWMoYzIzKVtjSF1jKEYpYyhGKVtjSF0z

> <s_epik_cmdline>
J2VwaWtfcHl0aG9uJywgJy1waCcsICc3LjAnLCAnLXRuJywgJzgnLCAnLW1hJywgJzIwMCcsICctbWV0YWxfYmluZGluZycsICctaW1hZScsICc8aW5maWxlLm1hZT4nLCAnLW9tYWUnLCAnPG91dGZpbGUubWFlPic=

> <r_lp_tautomer_probability>
1

> <r_epik_Ionization_Penalty>
0.0160256

> <r_epik_Ionization_Penalty_Charging>
0

> <r_epik_Ionization_Penalty_Neutral>
0.0160256

> <r_epik_State_Penalty>
0.0126263

> <r_epik_Charging_Adjusted_Penalty>
0.0126263

> <i_epik_Tot_Q>
0

> <i_epik_Tot_abs_Q>
0

> <r_epik_Metal_State_Penalty>
1.27616e-05

> <b_epik_Metal_Only>
0

> <s_lp_Force_Field>
OPLS_2005

> <r_lp_Energy>
16.1037

> <b_lp_Chiralities_Consistent>
1

> <s_lp_Variant>
AV-unprocessed.smi:1885-2

> <Gold.Version>
5.8.1

> <Gold.Id.Protein>
6NUR|6NUR_protein|mol2

> <Gold.PLP.Fitness>
55.2795

> <Gold.PLP.PLP>
-53.7361

> <Gold.PLP.part.hbond>
-3.7190

> <Gold.PLP.part.metal>
0.0000

> <Gold.PLP.part.buried>
-3.7666

> <Gold.PLP.part.nonpolar>
-45.3391

> <Gold.PLP.part.repulsive>
0.1532

> <Gold.PLP.ligand.clash>
0.0000

> <Gold.PLP.ligand.torsion>
1.3924

> <Gold.PLP.Chemscore.Hbond>
1.3251

> <Gold.PLP.Chemscore.CHOScore>
0.0000

> <Gold.PLP.Chemscore.Metal>
0.0000

> <Gold.Chemscore.Hbonds>
donor molecule, donor type, donor heavy atom, donor atom, acceptor molecule, acceptor atom, score
      P1  H  7989  7998       L1    11  0.46
      P1  H  8011  8017       L1    11  0.67

> <Gold.PLP.Chemscore.Internal.Correction>
0.3530

> <Gold.Rescore>
     Score         DG    S(hbond)    S(metal)    S(lipo)     H(rot)  DE(clash)    DE(int)     intcor
     13.56     -15.30       0.84        0.00     124.10       2.93       0.26       1.49       ----

> <Gold.Chemscore.Fitness>
13.5569

> <Gold.Chemscore.DG>
-15.3019

> <Gold.Chemscore.ZeroCoef>
-5.4800

> <Gold.Chemscore.Hbond>
0.8420

> <Gold.Chemscore.Metal>
0.0000

> <Gold.Chemscore.Lipo>
124.0975

> <Gold.Chemscore.Internal_Hbond>
0.0000

> <Gold.Chemscore.DEClash>
0.2568

> <Gold.Chemscore.DEInternal>
1.4883

> <Gold.Chemscore.Rot>
2.9335

> <Gold.Chemscore.Internal.Correction>
   9.000000E+99

> <Gold.Chemscore.Hbonds>
donor molecule, donor type, donor heavy atom, donor atom, acceptor molecule, acceptor atom, score
      L1  H    11    36       P1  7957  0.01
      P1  H  7989  7998       L1    11  0.38
      P1  H  8011  8017       L1    11  0.32

> <Gold.Chemscore.Hbond.Weighted>
-2.8122

> <Gold.Chemscore.Metal.Weighted>
-0.0000

> <Gold.Chemscore.Lipo.Weighted>
-14.5194

> <Gold.Chemscore.Internal_Hbond.Weighted>
0.0000

> <Gold.Chemscore.DEClash.Weighted>
0.2568

> <Gold.Chemscore.DEInternal.Weighted>
1.4883

> <Gold.Chemscore.Rot.Weighted>
7.5097

> <Gold.Chemscore.Internal.Correction.Weighted>
   9.000000E+99

> <Gold.Protein.RotatedTorsions>
[ 6907 6896 6895 6894 ] final  -63.76 input  -60.11 | X-H torsion
[ 7974 7965 7964 7962 ] final   51.21 input  175.53 | X-H torsion
[ 8008 7997 7996 7995 ] final  138.09 input   59.86 | X-H torsion
[ 10167 10162 10161 10158 ] final   78.56 input  -65.29 | X-H torsion
[ 10718 10713 10712 10709 ] final   26.53 input   66.30 | X-H torsion
[ 10763 10752 10751 10750 ] final   33.23 input  -60.55 | X-H torsion
[ 11005 11000 10999 10996 ] final -151.45 input  -57.11 | X-H torsion

> <Gold.Protein.ActiveResidues>
 VAL166  LYS551  ARG553  GLY616  TRP617  ASP618  TYR619  PRO620  LYS621  CYS622 
 ASP623  PHE694  ASN695  SER759  ASP760  ASP761  ALA762  ILE779  LEU786  VAL792 
 PHE793  MET794  SER795  GLU796  ALA797  LYS798  CYS799  TRP800  GLU811  SER814 

> <Gold.Protein.RotatedAtoms>
  150.7628  134.6391  159.6226 H   0  0  0  0  0  0  0  0  0  0  0  0  # atno 6907 bound_to 6896
  152.3645  134.6821  160.0205 H   0  0  0  0  0  0  0  0  0  0  0  0  # atno 6908 bound_to 6896
  151.7201  133.3278  159.3349 H   0  0  0  0  0  0  0  0  0  0  0  0  # atno 6909 bound_to 6896
  145.9935  139.4364  143.0059 H   0  0  0  0  0  0  0  0  0  0  0  0  # atno 7974 bound_to 7965
  156.2999  140.2402  156.4017 H   0  0  0  0  0  0  0  0  0  0  0  0  # atno 8008 bound_to 7997
  154.8521  140.0423  157.1631 H   0  0  0  0  0  0  0  0  0  0  0  0  # atno 8009 bound_to 7997
  154.8988  140.2974  155.5333 H   0  0  0  0  0  0  0  0  0  0  0  0  # atno 8010 bound_to 7997
  139.9696  144.5904  150.7998 H   0  0  0  0  0  0  0  0  0  0  0  0  # atno 10167 bound_to 10162
  157.2080  130.6921  149.6216 H   0  0  0  0  0  0  0  0  0  0  0  0  # atno 10718 bound_to 10713
  153.0222  135.6392  154.1478 H   0  0  0  0  0  0  0  0  0  0  0  0  # atno 10763 bound_to 10752
  154.1212  135.2846  155.3209 H   0  0  0  0  0  0  0  0  0  0  0  0  # atno 10764 bound_to 10752
  154.6262  135.5508  153.7692 H   0  0  0  0  0  0  0  0  0  0  0  0  # atno 10765 bound_to 10752
  140.7294  134.3638  157.5169 H   0  0  0  0  0  0  0  0  0  0  0  0  # atno 11005 bound_to 11000
  145.7594  140.9941  143.1208 LP  0  0  0  0  0  0  0  0  0  0  0  0  # atno 17320 bound_to 7965
  144.6896  139.9312  143.7472 LP  0  0  0  0  0  0  0  0  0  0  0  0  # atno 17321 bound_to 7965
  140.7526  143.2994  151.3120 LP  0  0  0  0  0  0  0  0  0  0  0  0  # atno 17342 bound_to 10162
  139.6491  144.0395  152.2613 LP  0  0  0  0  0  0  0  0  0  0  0  0  # atno 17343 bound_to 10162
  155.9693  130.4560  150.5910 LP  0  0  0  0  0  0  0  0  0  0  0  0  # atno 17370 bound_to 10713
  157.3700  131.0764  151.1565 LP  0  0  0  0  0  0  0  0  0  0  0  0  # atno 17371 bound_to 10713
  139.8829  134.9008  156.2797 LP  0  0  0  0  0  0  0  0  0  0  0  0  # atno 17394 bound_to 11000
  140.9934  133.7195  156.0848 LP  0  0  0  0  0  0  0  0  0  0  0  0  # atno 17395 bound_to 11000

$$$$
