AV-unprocessed.smi:3056|AV-procd|sdf|11657|dock2
  -GOLD-   2272017 63D 1   1.00000     0.00000
 Structure written by MMmdl.
 47 48  0  0  0  0  0  0  0  0  1 V2000
  145.1072  137.4937  152.5665 C   0  0  0  0  0  0  0  0  0  0  0  0
  146.2346  137.9059  153.4684 C   0  0  0  0  0  0  0  0  0  0  0  0
  146.3368  137.7298  154.8772 C   0  0  0  0  0  0  0  0  0  0  0  0
  147.4662  138.2060  155.3740 N   0  0  0  0  0  0  0  0  0  0  0  0
  148.1243  138.7072  154.3044 N   0  0  0  0  0  0  0  0  0  0  0  0
  149.4352  139.3238  154.4683 C   0  0  2  0  0  0  0  0  0  0  0  0
  150.4525  138.2708  154.9510 C   0  0  0  0  0  0  0  0  0  0  0  0
  149.3870  140.5739  155.3890 C   0  0  2  0  0  0  0  0  0  0  0  0
  148.4561  141.6856  154.8571 C   0  0  0  0  0  0  0  0  0  0  0  0
  150.7428  141.1048  155.5038 N   0  0  0  0  0  0  0  0  0  0  0  0
  150.8369  142.2096  156.4680 C   0  0  0  0  0  0  0  0  0  0  0  0
  151.5813  141.7849  157.7390 C   0  0  0  0  0  0  0  0  0  0  0  0
  151.5679  140.5903  158.0373 O   0  0  0  0  0  0  0  0  0  0  0  0
  152.2215  142.7143  158.4901 N   0  0  0  0  0  0  0  0  0  0  0  0
  152.2548  144.1590  158.2437 C   0  0  0  0  0  0  0  0  0  0  0  0
  151.5274  144.8601  159.4037 C   0  0  0  0  0  0  0  0  0  0  0  0
  152.1550  144.5183  160.6376 O   0  0  0  0  0  0  0  0  0  0  0  0
  152.1714  143.1149  160.8969 C   0  0  2  0  0  0  0  0  0  0  0  0
  152.8514  142.8851  162.2512 C   0  0  0  0  0  0  0  0  0  0  0  0
  152.9052  142.3961  159.7465 C   0  0  0  0  0  0  0  0  0  0  0  0
  147.4013  138.5371  153.1419 C   0  0  0  0  0  0  0  0  0  0  0  0
  144.4691  136.7430  153.0332 H   0  0  0  0  0  0  0  0  0  0  0  0
  145.4728  137.0669  151.6323 H   0  0  0  0  0  0  0  0  0  0  0  0
  144.4712  138.3401  152.3074 H   0  0  0  0  0  0  0  0  0  0  0  0
  145.6274  137.2704  155.5496 H   0  0  0  0  0  0  0  0  0  0  0  0
  149.7466  139.6494  153.4739 H   0  0  0  0  0  0  0  0  0  0  0  0
  151.4672  138.6686  154.9643 H   0  0  0  0  0  0  0  0  0  0  0  0
  150.4555  137.4013  154.2931 H   0  0  0  0  0  0  0  0  0  0  0  0
  150.2217  137.9231  155.9586 H   0  0  0  0  0  0  0  0  0  0  0  0
  149.0326  140.2559  156.3714 H   0  0  0  0  0  0  0  0  0  0  0  0
  147.4222  141.3469  154.7917 H   0  0  0  0  0  0  0  0  0  0  0  0
  148.7598  142.0113  153.8617 H   0  0  0  0  0  0  0  0  0  0  0  0
  148.4509  142.5622  155.5037 H   0  0  0  0  0  0  0  0  0  0  0  0
  151.3581  140.3504  155.7735 H   0  0  0  0  0  0  0  0  0  0  0  0
  151.3224  143.0821  156.0322 H   0  0  0  0  0  0  0  0  0  0  0  0
  149.8305  142.5294  156.7429 H   0  0  0  0  0  0  0  0  0  0  0  0
  153.2927  144.4914  158.1992 H   0  0  0  0  0  0  0  0  0  0  0  0
  151.8104  144.4580  157.2967 H   0  0  0  0  0  0  0  0  0  0  0  0
  151.5664  145.9417  159.2755 H   0  0  0  0  0  0  0  0  0  0  0  0
  150.4736  144.5784  159.4292 H   0  0  0  0  0  0  0  0  0  0  0  0
  151.1427  142.7549  160.9575 H   0  0  0  0  0  0  0  0  0  0  0  0
  152.8765  141.8245  162.5028 H   0  0  0  0  0  0  0  0  0  0  0  0
  152.3172  143.4025  163.0483 H   0  0  0  0  0  0  0  0  0  0  0  0
  153.8778  143.2524  162.2450 H   0  0  0  0  0  0  0  0  0  0  0  0
  152.9457  141.3244  159.9458 H   0  0  0  0  0  0  0  0  0  0  0  0
  153.9419  142.7310  159.6877 H   0  0  0  0  0  0  0  0  0  0  0  0
  147.7733  138.8764  152.1861 H   0  0  0  0  0  0  0  0  0  0  0  0
  1  2  1  0  0  0  0
  1 22  1  0  0  0  0
  1 23  1  0  0  0  0
  1 24  1  0  0  0  0
  2 21  2  0  0  0  0
  2  3  1  0  0  0  0
  3  4  2  0  0  0  0
  3 25  1  0  0  0  0
  4  5  1  0  0  0  0
  5  6  1  0  0  0  0
  5 21  1  0  0  0  0
  6  7  1  0  0  0  0
  6  8  1  0  0  0  0
  6 26  1  0  0  0  0
  7 27  1  0  0  0  0
  7 28  1  0  0  0  0
  7 29  1  0  0  0  0
  8  9  1  0  0  0  0
  8 10  1  0  0  0  0
  8 30  1  0  0  0  0
  9 31  1  0  0  0  0
  9 32  1  0  0  0  0
  9 33  1  0  0  0  0
 10 11  1  0  0  0  0
 10 34  1  0  0  0  0
 11 12  1  0  0  0  0
 11 35  1  0  0  0  0
 11 36  1  0  0  0  0
 12 13  2  0  0  0  0
 12 14  1  0  0  0  0
 14 20  1  0  0  0  0
 14 15  1  0  0  0  0
 15 16  1  0  0  0  0
 15 37  1  0  0  0  0
 15 38  1  0  0  0  0
 16 17  1  0  0  0  0
 16 39  1  0  0  0  0
 16 40  1  0  0  0  0
 17 18  1  0  0  0  0
 18 19  1  0  0  0  0
 18 20  1  0  0  0  0
 18 41  1  0  0  0  0
 19 42  1  0  0  0  0
 19 43  1  0  0  0  0
 19 44  1  0  0  0  0
 20 45  1  0  0  0  0
 20 46  1  0  0  0  0
 21 47  1  0  0  0  0
M  END
> <s_m_source_file>
AV-unprocessed.smi

> <i_m_source_file_index>
3056

> <i_lp_mmshare_version>
43012

> <i_f3d_flags>
0

> <s_epik_input>
W0NIM11jMVtjSF1ubihbY0hdMSlbQ0BIXShbQ0gzXSlbQ0BIXShbQ0gzXSlbTkhdW0NIMl1DKD1PKU4yW0NIMl1bQ0gyXU9bQ0BASF0oW0NIM10pW0NIMl0y

> <s_epik_cmdline>
J2VwaWtfcHl0aG9uJywgJy1waCcsICc3LjAnLCAnLXRuJywgJzgnLCAnLW1hJywgJzIwMCcsICctbWV0YWxfYmluZGluZycsICctaW1hZScsICc8aW5maWxlLm1hZT4nLCAnLW9tYWUnLCAnPG91dGZpbGUubWFlPic=

> <r_lp_tautomer_probability>
1

> <r_epik_Ionization_Penalty>
0.667689

> <r_epik_Ionization_Penalty_Charging>
0

> <r_epik_Ionization_Penalty_Neutral>
0.667689

> <r_epik_State_Penalty>
0.684601

> <r_epik_Charging_Adjusted_Penalty>
0.684601

> <i_epik_Tot_Q>
0

> <i_epik_Tot_abs_Q>
0

> <r_epik_Metal_State_Penalty>
0.681448

> <b_epik_Metal_Only>
0

> <s_lp_Force_Field>
OPLS_2005

> <r_lp_Energy>
28.8183

> <b_lp_Chiralities_Consistent>
1

> <s_lp_Variant>
AV-unprocessed.smi:3056-13

> <Gold.Version>
5.8.1

> <Gold.Id.Protein>
6NUR|6NUR_protein|mol2

> <Gold.PLP.Fitness>
43.7119

> <Gold.PLP.PLP>
-41.8393

> <Gold.PLP.part.hbond>
-1.0000

> <Gold.PLP.part.metal>
0.0000

> <Gold.PLP.part.buried>
-2.1798

> <Gold.PLP.part.nonpolar>
-38.5230

> <Gold.PLP.part.repulsive>
0.1500

> <Gold.PLP.ligand.clash>
0.0000

> <Gold.PLP.ligand.torsion>
0.7503

> <Gold.PLP.Chemscore.Hbond>
0.0770

> <Gold.PLP.Chemscore.CHOScore>
1.0038

> <Gold.PLP.Chemscore.Metal>
0.0000

> <Gold.Chemscore.Hbonds>
donor molecule, donor type, donor heavy atom, donor atom, acceptor molecule, acceptor atom, score
      P1  H  7989  7998       L1    10  0.12
      L1  C    21    47       P1  7948  0.02
      L1  C    21    47       P1  7957  1.00

> <Gold.PLP.Chemscore.Internal.Correction>
0.1310

> <Gold.Rescore>
     Score         DG    S(hbond)    S(metal)    S(lipo)     H(rot)  DE(clash)    DE(int)     intcor
     12.89     -14.02       0.00        0.00     109.70       1.68       0.37       0.75       ----

> <Gold.Chemscore.Fitness>
12.8941

> <Gold.Chemscore.DG>
-14.0167

> <Gold.Chemscore.ZeroCoef>
-5.4800

> <Gold.Chemscore.Hbond>
0.0002

> <Gold.Chemscore.Metal>
0.0000

> <Gold.Chemscore.Lipo>
109.7031

> <Gold.Chemscore.Internal_Hbond>
0.0000

> <Gold.Chemscore.DEClash>
0.3685

> <Gold.Chemscore.DEInternal>
0.7542

> <Gold.Chemscore.Rot>
1.6793

> <Gold.Chemscore.Internal.Correction>
   9.000000E+99

> <Gold.Chemscore.Hbond.Weighted>
-0.0005

> <Gold.Chemscore.Metal.Weighted>
-0.0000

> <Gold.Chemscore.Lipo.Weighted>
-12.8353

> <Gold.Chemscore.Internal_Hbond.Weighted>
0.0000

> <Gold.Chemscore.DEClash.Weighted>
0.3685

> <Gold.Chemscore.DEInternal.Weighted>
0.7542

> <Gold.Chemscore.Rot.Weighted>
4.2990

> <Gold.Chemscore.Internal.Correction.Weighted>
   9.000000E+99

> <Gold.Protein.RotatedTorsions>
[ 6907 6896 6895 6894 ] final  -17.41 input  -60.11 | X-H torsion
[ 7974 7965 7964 7962 ] final  -46.39 input  175.53 | X-H torsion
[ 8008 7997 7996 7995 ] final    7.18 input   59.86 | X-H torsion
[ 10167 10162 10161 10158 ] final   61.85 input  -65.29 | X-H torsion
[ 10718 10713 10712 10709 ] final  -54.04 input   66.30 | X-H torsion
[ 10763 10752 10751 10750 ] final -109.77 input  -60.55 | X-H torsion
[ 11005 11000 10999 10996 ] final  -51.61 input  -57.11 | X-H torsion

> <Gold.Protein.ActiveResidues>
 VAL166  LYS551  ARG553  GLY616  TRP617  ASP618  TYR619  PRO620  LYS621  CYS622 
 ASP623  PHE694  ASN695  SER759  ASP760  ASP761  ALA762  ILE779  LEU786  VAL792 
 PHE793  MET794  SER795  GLU796  ALA797  LYS798  CYS799  TRP800  GLU811  SER814 

> <Gold.Protein.RotatedAtoms>
  151.2937  135.0749  159.9213 H   0  0  0  0  0  0  0  0  0  0  0  0  # atno 6907 bound_to 6896
  152.5311  133.9905  159.7859 H   0  0  0  0  0  0  0  0  0  0  0  0  # atno 6908 bound_to 6896
  151.0179  133.5852  159.2705 H   0  0  0  0  0  0  0  0  0  0  0  0  # atno 6909 bound_to 6896
  145.9724  140.7369  142.9404 H   0  0  0  0  0  0  0  0  0  0  0  0  # atno 7974 bound_to 7965
  154.7505  140.2766  155.6296 H   0  0  0  0  0  0  0  0  0  0  0  0  # atno 8008 bound_to 7997
  156.2894  140.2679  156.2184 H   0  0  0  0  0  0  0  0  0  0  0  0  # atno 8009 bound_to 7997
  155.0143  140.0372  157.2401 H   0  0  0  0  0  0  0  0  0  0  0  0  # atno 8010 bound_to 7997
  140.1503  144.4469  150.6763 H   0  0  0  0  0  0  0  0  0  0  0  0  # atno 10167 bound_to 10162
  156.1484  130.4152  149.9986 H   0  0  0  0  0  0  0  0  0  0  0  0  # atno 10718 bound_to 10713
  154.8211  135.4589  154.0783 H   0  0  0  0  0  0  0  0  0  0  0  0  # atno 10763 bound_to 10752
  153.2135  135.6885  153.8091 H   0  0  0  0  0  0  0  0  0  0  0  0  # atno 10764 bound_to 10752
  153.7534  135.3295  155.3302 H   0  0  0  0  0  0  0  0  0  0  0  0  # atno 10765 bound_to 10752
  141.0880  133.6638  156.3902 H   0  0  0  0  0  0  0  0  0  0  0  0  # atno 11005 bound_to 11000
  144.6840  140.2771  143.7297 LP  0  0  0  0  0  0  0  0  0  0  0  0  # atno 17320 bound_to 7965
  145.7887  139.1918  143.2115 LP  0  0  0  0  0  0  0  0  0  0  0  0  # atno 17321 bound_to 7965
  140.6707  143.2284  151.5633 LP  0  0  0  0  0  0  0  0  0  0  0  0  # atno 17342 bound_to 10162
  139.5429  144.2598  152.1386 LP  0  0  0  0  0  0  0  0  0  0  0  0  # atno 17343 bound_to 10162
  156.7851  130.9235  151.3646 LP  0  0  0  0  0  0  0  0  0  0  0  0  # atno 17370 bound_to 10713
  157.6636  130.8988  149.9883 LP  0  0  0  0  0  0  0  0  0  0  0  0  # atno 17371 bound_to 10713
  140.5318  134.6205  157.5352 LP  0  0  0  0  0  0  0  0  0  0  0  0  # atno 17394 bound_to 11000
  139.9701  134.7307  156.0058 LP  0  0  0  0  0  0  0  0  0  0  0  0  # atno 17395 bound_to 11000

$$$$
