AV-unprocessed.smi:110|AV-procd|sdf|1064|dock7
  -GOLD-   2262018143D 1   1.00000     0.00000
 Structure written by MMmdl.
 46 50  0  0  0  0  0  0  0  0  1 V2000
  148.5713  142.7414  154.1523 O   0  0  0  0  0  0  0  0  0  0  0  0
  148.1095  141.4537  153.8030 C   0  0  0  0  0  0  0  0  0  0  0  0
  148.8882  140.3062  154.4811 C   0  0  2  0  0  0  0  0  0  0  0  0
  150.2335  140.2000  154.0391 O   0  0  0  0  0  0  0  0  0  0  0  0
  150.7764  139.0119  154.5377 C   0  0  1  0  0  0  0  0  0  0  0  0
  151.5572  139.3418  155.7736 N   0  0  0  0  0  0  0  0  0  0  0  0
  152.7207  138.7796  156.2543 C   0  0  0  0  0  0  0  0  0  0  0  0
  153.1618  139.2851  157.3741 N   0  0  0  0  0  0  0  0  0  0  0  0
  152.2185  140.2486  157.7123 C   0  0  0  0  0  0  0  0  0  0  0  0
  152.0664  141.1684  158.7895 C   0  0  0  0  0  0  0  0  0  0  0  0
  152.9285  141.2918  159.8257 N   0  0  0  0  0  0  0  0  0  0  0  0
  153.8395  140.1795  160.1327 C   0  0  0  0  0  0  0  0  0  0  0  0
  154.3342  140.3677  161.5792 C   0  0  0  0  0  0  0  0  0  0  0  0
  153.7037  141.6769  161.9287 C   0  0  0  0  0  0  0  0  0  0  0  0
  153.8518  142.4013  163.1243 C   0  0  0  0  0  0  0  0  0  0  0  0
  153.1816  143.6380  163.2398 C   0  0  0  0  0  0  0  0  0  0  0  0
  152.3951  144.1272  162.1710 C   0  0  0  0  0  0  0  0  0  0  0  0
  152.2626  143.3826  160.9781 C   0  0  0  0  0  0  0  0  0  0  0  0
  152.9166  142.1374  160.8778 C   0  0  0  0  0  0  0  0  0  0  0  0
  151.0073  142.0165  158.7467 N   0  0  0  0  0  0  0  0  0  0  0  0
  150.1290  141.9453  157.7426 C   0  0  0  0  0  0  0  0  0  0  0  0
  150.1318  141.1272  156.6889 N   0  0  0  0  0  0  0  0  0  0  0  0
  151.2111  140.2934  156.7079 C   0  0  0  0  0  0  0  0  0  0  0  0
  149.5947  138.0800  154.8944 C   0  0  2  0  0  0  0  0  0  0  0  0
  149.6944  136.8016  154.2947 O   0  0  0  0  0  0  0  0  0  0  0  0
  148.3648  138.8650  154.4263 C   0  0  2  0  0  0  0  0  0  0  0  0
  147.9557  138.4918  153.1220 O   0  0  0  0  0  0  0  0  0  0  0  0
  148.9425  140.5757  155.5375 H   0  0  0  0  0  0  0  0  0  0  0  0
  151.5077  138.5866  153.8492 H   0  0  0  0  0  0  0  0  0  0  0  0
  149.5460  137.9546  155.9774 H   0  0  0  0  0  0  0  0  0  0  0  0
  147.5177  138.7244  155.0984 H   0  0  0  0  0  0  0  0  0  0  0  0
  149.2087  142.6551  154.8449 H   0  0  0  0  0  0  0  0  0  0  0  0
  147.0504  141.3817  154.0522 H   0  0  0  0  0  0  0  0  0  0  0  0
  148.1847  141.3552  152.7198 H   0  0  0  0  0  0  0  0  0  0  0  0
  153.2440  137.9811  155.7492 H   0  0  0  0  0  0  0  0  0  0  0  0
  153.3329  139.2204  160.0159 H   0  0  0  0  0  0  0  0  0  0  0  0
  154.6788  140.1998  159.4363 H   0  0  0  0  0  0  0  0  0  0  0  0
  153.9715  139.5812  162.2415 H   0  0  0  0  0  0  0  0  0  0  0  0
  155.4215  140.4232  161.6409 H   0  0  0  0  0  0  0  0  0  0  0  0
  154.4645  142.0247  163.9300 H   0  0  0  0  0  0  0  0  0  0  0  0
  153.2768  144.2179  164.1460 H   0  0  0  0  0  0  0  0  0  0  0  0
  151.8954  145.0800  162.2654 H   0  0  0  0  0  0  0  0  0  0  0  0
  151.6730  143.7698  160.1603 H   0  0  0  0  0  0  0  0  0  0  0  0
  149.3075  142.6450  157.7893 H   0  0  0  0  0  0  0  0  0  0  0  0
  149.2457  136.8247  153.4636 H   0  0  0  0  0  0  0  0  0  0  0  0
  148.2351  137.6025  152.9629 H   0  0  0  0  0  0  0  0  0  0  0  0
  1  2  1  0  0  0  0
  1 32  1  0  0  0  0
  2  3  1  0  0  0  0
  2 33  1  0  0  0  0
  2 34  1  0  0  0  0
  3 28  1  0  0  0  0
  3 26  1  0  0  0  0
  3  4  1  0  0  0  0
  4  5  1  0  0  0  0
  5 29  1  0  0  0  0
  5  6  1  0  0  0  0
  5 24  1  0  0  0  0
  6 23  1  0  0  0  0
  6  7  1  0  0  0  0
  7  8  2  0  0  0  0
  7 35  1  0  0  0  0
  8  9  1  0  0  0  0
  9 23  2  0  0  0  0
  9 10  1  0  0  0  0
 10 11  1  0  0  0  0
 10 20  2  0  0  0  0
 11 19  1  0  0  0  0
 11 12  1  0  0  0  0
 12 13  1  0  0  0  0
 12 36  1  0  0  0  0
 12 37  1  0  0  0  0
 13 14  1  0  0  0  0
 13 38  1  0  0  0  0
 13 39  1  0  0  0  0
 14 19  2  0  0  0  0
 14 15  1  0  0  0  0
 15 16  2  0  0  0  0
 15 40  1  0  0  0  0
 16 17  1  0  0  0  0
 16 41  1  0  0  0  0
 17 18  2  0  0  0  0
 17 42  1  0  0  0  0
 18 19  1  0  0  0  0
 18 43  1  0  0  0  0
 20 21  1  0  0  0  0
 21 22  2  0  0  0  0
 21 44  1  0  0  0  0
 22 23  1  0  0  0  0
 24 30  1  0  0  0  0
 24 25  1  0  0  0  0
 24 26  1  0  0  0  0
 25 45  1  0  0  0  0
 26 31  1  0  0  0  0
 26 27  1  0  0  0  0
 27 46  1  0  0  0  0
M  END
> <s_m_source_file>
AV-unprocessed.smi

> <i_m_source_file_index>
110

> <i_lp_mmshare_version>
43012

> <i_f3d_flags>
0

> <s_epik_input>
W09IXVtDSDJdW0NASF0xT1tDQEhdKFtDQEhdKFtPSF0pW0NAQEhdMVtPSF0pbihbY0hdbjIpYyhjMjMpbltjSF1uYzNOKFtDSDJdW0NIMl00KWMoYzQ1KVtjSF1bY0hdW2NIXVtjSF01

> <s_epik_cmdline>
J2VwaWtfcHl0aG9uJywgJy1waCcsICc3LjAnLCAnLXRuJywgJzgnLCAnLW1hJywgJzIwMCcsICctbWV0YWxfYmluZGluZycsICctaW1hZScsICc8aW5maWxlLm1hZT4nLCAnLW9tYWUnLCAnPG91dGZpbGUubWFlPic=

> <r_lp_tautomer_probability>
1

> <r_epik_Ionization_Penalty>
0.00068475

> <r_epik_Ionization_Penalty_Charging>
0

> <r_epik_Ionization_Penalty_Neutral>
0.00068475

> <r_epik_State_Penalty>
0.000417442

> <r_epik_Charging_Adjusted_Penalty>
0.000417442

> <i_epik_Tot_Q>
0

> <i_epik_Tot_abs_Q>
0

> <r_epik_Metal_State_Penalty>
-0

> <b_epik_Metal_Only>
0

> <s_epik_Chemistry_Notes>
This compound contains an acetal/aminal-like group ( X-CH(R)-Y where X, Y are N, S, or O) that may be acid/base labile, releasing an aldehyde.

> <s_lp_Force_Field>
OPLS_2005

> <r_lp_Energy>
64.7575

> <b_lp_Chiralities_Consistent>
1

> <s_lp_Variant>
AV-unprocessed.smi:110-2

> <Gold.Version>
5.8.1

> <Gold.Id.Protein>
6NUR|6NUR_protein|mol2

> <Gold.PLP.Fitness>
67.1688

> <Gold.PLP.PLP>
-57.1287

> <Gold.PLP.part.hbond>
-7.9783

> <Gold.PLP.part.metal>
0.0000

> <Gold.PLP.part.buried>
-2.6203

> <Gold.PLP.part.nonpolar>
-47.3653

> <Gold.PLP.part.repulsive>
1.4035

> <Gold.PLP.ligand.clash>
3.0927

> <Gold.PLP.ligand.torsion>
0.7651

> <Gold.PLP.Chemscore.Hbond>
4.8551

> <Gold.PLP.Chemscore.CHOScore>
0.0000

> <Gold.PLP.Chemscore.Metal>
0.0000

> <Gold.Chemscore.Hbonds>
donor molecule, donor type, donor heavy atom, donor atom, acceptor molecule, acceptor atom, score
      L1  H    25    45       P1  7948  1.00
      L1  H    27    46       P1  7948  1.00
      P1  H  7989  7998       L1     4  0.88
      P1  H  7997  8009       L1     8  1.00
      P1  H  8022  8030       L1     1  0.86

> <Gold.PLP.Chemscore.Internal.Correction>
0.0976

> <Gold.Rescore>
     Score         DG    S(hbond)    S(metal)    S(lipo)     H(rot)  DE(clash)    DE(int)     intcor
     14.71     -21.33       3.35        0.00     113.90       3.38       0.58       6.04       ----

> <Gold.Chemscore.Fitness>
14.7139

> <Gold.Chemscore.DG>
-21.3301

> <Gold.Chemscore.ZeroCoef>
-5.4800

> <Gold.Chemscore.Hbond>
3.3491

> <Gold.Chemscore.Metal>
0.0000

> <Gold.Chemscore.Lipo>
113.8984

> <Gold.Chemscore.Internal_Hbond>
0.0000

> <Gold.Chemscore.DEClash>
0.5811

> <Gold.Chemscore.DEInternal>
6.0351

> <Gold.Chemscore.Rot>
3.3837

> <Gold.Chemscore.Internal.Correction>
   9.000000E+99

> <Gold.Chemscore.Hbonds>
donor molecule, donor type, donor heavy atom, donor atom, acceptor molecule, acceptor atom, score
      L1  H     1    32       P1  8028  0.01
      L1  H    25    45       P1  7948  0.93
      L1  H    27    46       P1  7948  0.96
      P1  H  7989  7998       L1     4  0.19
      P1  H  7997  8009       L1     8  0.31
      P1  H  8022  8030       L1     1  0.46

> <Gold.Chemscore.Hbond.Weighted>
-11.1862

> <Gold.Chemscore.Metal.Weighted>
-0.0000

> <Gold.Chemscore.Lipo.Weighted>
-13.3261

> <Gold.Chemscore.Internal_Hbond.Weighted>
0.0000

> <Gold.Chemscore.DEClash.Weighted>
0.5811

> <Gold.Chemscore.DEInternal.Weighted>
6.0351

> <Gold.Chemscore.Rot.Weighted>
8.6622

> <Gold.Chemscore.Internal.Correction.Weighted>
   9.000000E+99

> <Gold.Protein.RotatedTorsions>
[ 6907 6896 6895 6894 ] final -120.55 input  -60.11 | X-H torsion
[ 7974 7965 7964 7962 ] final -168.81 input  175.53 | X-H torsion
[ 8008 7997 7996 7995 ] final  158.24 input   59.86 | X-H torsion
[ 10167 10162 10161 10158 ] final -165.41 input  -65.29 | X-H torsion
[ 10718 10713 10712 10709 ] final  -16.08 input   66.30 | X-H torsion
[ 10763 10752 10751 10750 ] final -129.90 input  -60.55 | X-H torsion
[ 11005 11000 10999 10996 ] final  154.87 input  -57.11 | X-H torsion

> <Gold.Protein.ActiveResidues>
 VAL166  LYS551  ARG553  GLY616  TRP617  ASP618  TYR619  PRO620  LYS621  CYS622 
 ASP623  PHE694  ASN695  SER759  ASP760  ASP761  ALA762  ILE779  LEU786  VAL792 
 PHE793  MET794  SER795  GLU796  ALA797  LYS798  CYS799  TRP800  GLU811  SER814 

> <Gold.Protein.RotatedAtoms>
  150.8403  133.7946  159.3063 H   0  0  0  0  0  0  0  0  0  0  0  0  # atno 6907 bound_to 6896
  151.5649  135.1063  159.9991 H   0  0  0  0  0  0  0  0  0  0  0  0  # atno 6908 bound_to 6896
  152.4468  133.7510  159.6750 H   0  0  0  0  0  0  0  0  0  0  0  0  # atno 6909 bound_to 6896
  144.7196  140.2315  143.6303 H   0  0  0  0  0  0  0  0  0  0  0  0  # atno 7974 bound_to 7965
  156.2315  140.1863  156.7230 H   0  0  0  0  0  0  0  0  0  0  0  0  # atno 8008 bound_to 7997
  154.6031  140.0633  156.9422 H   0  0  0  0  0  0  0  0  0  0  0  0  # atno 8009 bound_to 7997
  155.2142  140.3302  155.4327 H   0  0  0  0  0  0  0  0  0  0  0  0  # atno 8010 bound_to 7997
  139.6184  144.0673  152.1910 H   0  0  0  0  0  0  0  0  0  0  0  0  # atno 10167 bound_to 10162
  156.5926  130.4803  149.6273 H   0  0  0  0  0  0  0  0  0  0  0  0  # atno 10718 bound_to 10713
  154.8757  135.3880  154.3995 H   0  0  0  0  0  0  0  0  0  0  0  0  # atno 10763 bound_to 10752
  153.4721  135.7030  153.5992 H   0  0  0  0  0  0  0  0  0  0  0  0  # atno 10764 bound_to 10752
  153.4445  135.3848  155.2215 H   0  0  0  0  0  0  0  0  0  0  0  0  # atno 10765 bound_to 10752
  140.1529  134.8662  157.2478 H   0  0  0  0  0  0  0  0  0  0  0  0  # atno 11005 bound_to 11000
  145.8406  139.2128  143.1829 LP  0  0  0  0  0  0  0  0  0  0  0  0  # atno 17320 bound_to 7965
  146.0350  140.8221  142.9857 LP  0  0  0  0  0  0  0  0  0  0  0  0  # atno 17321 bound_to 7965
  140.0309  144.6081  150.7488 LP  0  0  0  0  0  0  0  0  0  0  0  0  # atno 17342 bound_to 10162
  140.7366  143.2755  151.3755 LP  0  0  0  0  0  0  0  0  0  0  0  0  # atno 17343 bound_to 10162
  156.2536  130.6922  151.1668 LP  0  0  0  0  0  0  0  0  0  0  0  0  # atno 17370 bound_to 10713
  157.7300  131.0620  150.5749 LP  0  0  0  0  0  0  0  0  0  0  0  0  # atno 17371 bound_to 10713
  140.2582  134.3602  155.7416 LP  0  0  0  0  0  0  0  0  0  0  0  0  # atno 17394 bound_to 11000
  141.2201  133.7355  156.9040 LP  0  0  0  0  0  0  0  0  0  0  0  0  # atno 17395 bound_to 11000

$$$$
