AV-unprocessed.smi:1165|AV-procd|sdf|4929|dock1
  -GOLD-   22720 3513D 1   1.00000     0.00000
 Structure written by MMmdl.
 41 42  0  0  0  0  0  0  0  0  1 V2000
  151.4543  145.2153  159.3911 C   0  0  0  0  0  0  0  0  0  0  0  0
  151.5056  143.6838  159.3778 C   0  0  1  0  0  0  0  0  0  0  0  0
  151.4575  143.1181  157.9440 C   0  0  0  0  0  0  0  0  0  0  0  0
  151.6550  141.6590  157.9433 N   0  0  0  0  0  0  0  0  0  0  0  0
  150.2652  140.6159  157.8913 S   0  0  0  0  0  0  0  0  0  0  0  0
  150.5942  139.3432  158.5513 O   0  0  0  0  0  0  0  0  0  0  0  0
  149.0757  141.3848  158.2881 O   0  0  0  0  0  0  0  0  0  0  0  0
  150.1741  140.3299  156.1964 N   0  0  0  0  0  0  0  0  0  0  0  0
  149.8073  141.4348  155.3169 C   0  0  0  0  0  0  0  0  0  0  0  0
  148.5754  141.0569  154.4853 C   0  0  0  0  0  0  0  0  0  0  0  0
  147.3594  141.8813  154.8576 C   0  0  0  0  0  0  0  0  0  0  0  0
  146.6898  142.6578  153.8896 C   0  0  0  0  0  0  0  0  0  0  0  0
  145.5646  143.4080  154.2816 C   0  0  0  0  0  0  0  0  0  0  0  0
  145.1563  143.3499  155.6291 C   0  0  0  0  0  0  0  0  0  0  0  0
  145.7909  142.6109  156.5649 N   0  0  0  0  0  0  0  0  0  0  0  0
  146.8691  141.8944  156.1807 C   0  0  0  0  0  0  0  0  0  0  0  0
  152.8362  141.2374  158.7144 C   0  0  0  0  0  0  0  0  0  0  0  0
  152.8285  141.8644  160.1230 C   0  0  1  0  0  0  0  0  0  0  0  0
  154.1115  141.5499  160.8995 C   0  0  0  0  0  0  0  0  0  0  0  0
  152.7139  143.2778  160.0098 O   0  0  0  0  0  0  0  0  0  0  0  0
  150.5364  145.5810  158.9305 H   0  0  0  0  0  0  0  0  0  0  0  0
  152.2963  145.6434  158.8460 H   0  0  0  0  0  0  0  0  0  0  0  0
  151.4895  145.5976  160.4116 H   0  0  0  0  0  0  0  0  0  0  0  0
  150.6586  143.3121  159.9555 H   0  0  0  0  0  0  0  0  0  0  0  0
  150.5167  143.3745  157.4572 H   0  0  0  0  0  0  0  0  0  0  0  0
  152.2493  143.5691  157.3447 H   0  0  0  0  0  0  0  0  0  0  0  0
  149.6752  139.4677  155.9791 H   0  0  0  0  0  0  0  0  0  0  0  0
  149.6073  142.3205  155.9209 H   0  0  0  0  0  0  0  0  0  0  0  0
  150.6508  141.6670  154.6656 H   0  0  0  0  0  0  0  0  0  0  0  0
  148.7835  141.1963  153.4235 H   0  0  0  0  0  0  0  0  0  0  0  0
  148.3440  139.9990  154.6172 H   0  0  0  0  0  0  0  0  0  0  0  0
  147.0315  142.6795  152.8651 H   0  0  0  0  0  0  0  0  0  0  0  0
  145.0269  144.0140  153.5672 H   0  0  0  0  0  0  0  0  0  0  0  0
  144.2974  143.9124  155.9642 H   0  0  0  0  0  0  0  0  0  0  0  0
  147.3545  141.3155  156.9526 H   0  0  0  0  0  0  0  0  0  0  0  0
  152.8829  140.1502  158.7738 H   0  0  0  0  0  0  0  0  0  0  0  0
  153.7283  141.5578  158.1748 H   0  0  0  0  0  0  0  0  0  0  0  0
  151.9850  141.4831  160.6991 H   0  0  0  0  0  0  0  0  0  0  0  0
  154.2400  140.4746  161.0258 H   0  0  0  0  0  0  0  0  0  0  0  0
  154.0861  142.0002  161.8922 H   0  0  0  0  0  0  0  0  0  0  0  0
  154.9910  141.9342  160.3823 H   0  0  0  0  0  0  0  0  0  0  0  0
  1  2  1  0  0  0  0
  1 21  1  0  0  0  0
  1 22  1  0  0  0  0
  1 23  1  0  0  0  0
  2 20  1  0  0  0  0
  2  3  1  0  0  0  0
  2 24  1  0  0  0  0
  3  4  1  0  0  0  0
  3 25  1  0  0  0  0
  3 26  1  0  0  0  0
  4  5  1  0  0  0  0
  4 17  1  0  0  0  0
  5  6  2  0  0  0  0
  5  7  2  0  0  0  0
  5  8  1  0  0  0  0
  8  9  1  0  0  0  0
  8 27  1  0  0  0  0
  9 10  1  0  0  0  0
  9 28  1  0  0  0  0
  9 29  1  0  0  0  0
 10 11  1  0  0  0  0
 10 30  1  0  0  0  0
 10 31  1  0  0  0  0
 11 16  1  0  0  0  0
 11 12  2  0  0  0  0
 12 13  1  0  0  0  0
 12 32  1  0  0  0  0
 13 14  2  0  0  0  0
 13 33  1  0  0  0  0
 14 15  1  0  0  0  0
 14 34  1  0  0  0  0
 15 16  2  0  0  0  0
 16 35  1  0  0  0  0
 17 18  1  0  0  0  0
 17 36  1  0  0  0  0
 17 37  1  0  0  0  0
 18 19  1  0  0  0  0
 18 20  1  0  0  0  0
 18 38  1  0  0  0  0
 19 39  1  0  0  0  0
 19 40  1  0  0  0  0
 19 41  1  0  0  0  0
M  END
> <s_m_source_file>
AV-unprocessed.smi

> <i_m_source_file_index>
1165

> <i_lp_mmshare_version>
43012

> <i_f3d_flags>
0

> <s_epik_input>
W0NIM11bQ0BASF0xW0NIMl1OKFtDSDJdW0NASF0oTzEpW0NIM10pUyg9TykoPU8pW05IXVtDSDJdW0NIMl1jMltjSF1bY0hdW2NIXW5bY0hdMg==

> <s_epik_cmdline>
J2VwaWtfcHl0aG9uJywgJy1waCcsICc3LjAnLCAnLXRuJywgJzgnLCAnLW1hJywgJzIwMCcsICctbWV0YWxfYmluZGluZycsICctaW1hZScsICc8aW5maWxlLm1hZT4nLCAnLW9tYWUnLCAnPG91dGZpbGUubWFlPic=

> <r_epik_Ionization_Penalty>
0.0861056

> <r_epik_Ionization_Penalty_Charging>
0

> <r_epik_Ionization_Penalty_Neutral>
0.0861056

> <r_epik_State_Penalty>
0.0574425

> <r_epik_Charging_Adjusted_Penalty>
0.0574425

> <i_epik_Tot_Q>
0

> <i_epik_Tot_abs_Q>
0

> <r_epik_Metal_State_Penalty>
0.317425

> <b_epik_Metal_Only>
0

> <s_lp_Force_Field>
OPLS_2005

> <r_lp_Energy>
3.52917

> <b_lp_Chiralities_Consistent>
1

> <s_lp_Variant>
AV-unprocessed.smi:1165-2

> <Gold.Version>
5.8.1

> <Gold.Id.Protein>
6NUR|6NUR_protein|mol2

> <Gold.PLP.Fitness>
40.1672

> <Gold.PLP.PLP>
-41.7888

> <Gold.PLP.part.hbond>
0.0000

> <Gold.PLP.part.metal>
0.0000

> <Gold.PLP.part.buried>
-7.5573

> <Gold.PLP.part.nonpolar>
-34.4489

> <Gold.PLP.part.repulsive>
0.1836

> <Gold.PLP.ligand.clash>
0.0000

> <Gold.PLP.ligand.torsion>
1.8840

> <Gold.PLP.Chemscore.Hbond>
0.0000

> <Gold.PLP.Chemscore.CHOScore>
0.0000

> <Gold.PLP.Chemscore.Metal>
0.0000

> <Gold.PLP.Chemscore.Internal.Correction>
2.1464

> <Gold.Rescore>
     Score         DG    S(hbond)    S(metal)    S(lipo)     H(rot)  DE(clash)    DE(int)     intcor
     11.56     -13.50       0.00        0.00     101.72       1.52       0.07       1.87       ----

> <Gold.Chemscore.Fitness>
11.5579

> <Gold.Chemscore.DG>
-13.4976

> <Gold.Chemscore.ZeroCoef>
-5.4800

> <Gold.Chemscore.Hbond>
0.0000

> <Gold.Chemscore.Metal>
0.0000

> <Gold.Chemscore.Lipo>
101.7243

> <Gold.Chemscore.Internal_Hbond>
0.0000

> <Gold.Chemscore.DEClash>
0.0727

> <Gold.Chemscore.DEInternal>
1.8670

> <Gold.Chemscore.Rot>
1.5172

> <Gold.Chemscore.Internal.Correction>
   9.000000E+99

> <Gold.Chemscore.Hbond.Weighted>
-0.0000

> <Gold.Chemscore.Metal.Weighted>
-0.0000

> <Gold.Chemscore.Lipo.Weighted>
-11.9017

> <Gold.Chemscore.Internal_Hbond.Weighted>
0.0000

> <Gold.Chemscore.DEClash.Weighted>
0.0727

> <Gold.Chemscore.DEInternal.Weighted>
1.8670

> <Gold.Chemscore.Rot.Weighted>
3.8841

> <Gold.Chemscore.Internal.Correction.Weighted>
   9.000000E+99

> <Gold.Protein.RotatedTorsions>
[ 6907 6896 6895 6894 ] final -147.72 input  -60.11 | X-H torsion
[ 7974 7965 7964 7962 ] final -111.98 input  175.53 | X-H torsion
[ 8008 7997 7996 7995 ] final   48.94 input   59.86 | X-H torsion
[ 10167 10162 10161 10158 ] final  109.03 input  -65.29 | X-H torsion
[ 10718 10713 10712 10709 ] final -102.15 input   66.30 | X-H torsion
[ 10763 10752 10751 10750 ] final  112.38 input  -60.55 | X-H torsion
[ 11005 11000 10999 10996 ] final  -53.56 input  -57.11 | X-H torsion

> <Gold.Protein.ActiveResidues>
 VAL166  LYS551  ARG553  GLY616  TRP617  ASP618  TYR619  PRO620  LYS621  CYS622 
 ASP623  PHE694  ASN695  SER759  ASP760  ASP761  ALA762  ILE779  LEU786  VAL792 
 PHE793  MET794  SER795  GLU796  ALA797  LYS798  CYS799  TRP800  GLU811  SER814 

> <Gold.Protein.RotatedAtoms>
  151.1596  133.4854  159.2594 H   0  0  0  0  0  0  0  0  0  0  0  0  # atno 6907 bound_to 6896
  151.1468  135.0207  159.8660 H   0  0  0  0  0  0  0  0  0  0  0  0  # atno 6908 bound_to 6896
  152.5463  134.1484  159.8561 H   0  0  0  0  0  0  0  0  0  0  0  0  # atno 6909 bound_to 6896
  145.1495  140.8821  143.3654 H   0  0  0  0  0  0  0  0  0  0  0  0  # atno 7974 bound_to 7965
  155.3940  140.3434  155.4253 H   0  0  0  0  0  0  0  0  0  0  0  0  # atno 8008 bound_to 7997
  156.1541  140.1580  156.8754 H   0  0  0  0  0  0  0  0  0  0  0  0  # atno 8009 bound_to 7997
  154.5079  140.0797  156.7912 H   0  0  0  0  0  0  0  0  0  0  0  0  # atno 8010 bound_to 7997
  139.6799  144.7119  151.1534 H   0  0  0  0  0  0  0  0  0  0  0  0  # atno 10167 bound_to 10162
  156.0218  130.5406  150.7066 H   0  0  0  0  0  0  0  0  0  0  0  0  # atno 10718 bound_to 10713
  153.4770  135.3688  155.2421 H   0  0  0  0  0  0  0  0  0  0  0  0  # atno 10763 bound_to 10752
  154.8756  135.3945  154.3745 H   0  0  0  0  0  0  0  0  0  0  0  0  # atno 10764 bound_to 10752
  153.4342  135.7083  153.6275 H   0  0  0  0  0  0  0  0  0  0  0  0  # atno 10765 bound_to 10752
  141.0982  133.6621  156.4191 H   0  0  0  0  0  0  0  0  0  0  0  0  # atno 11005 bound_to 11000
  145.0446  139.3232  143.5959 LP  0  0  0  0  0  0  0  0  0  0  0  0  # atno 17320 bound_to 7965
  146.3496  139.9832  142.8693 LP  0  0  0  0  0  0  0  0  0  0  0  0  # atno 17321 bound_to 7965
  140.7648  143.5715  150.8991 LP  0  0  0  0  0  0  0  0  0  0  0  0  # atno 17342 bound_to 10162
  139.9386  143.6408  152.3059 LP  0  0  0  0  0  0  0  0  0  0  0  0  # atno 17343 bound_to 10162
  157.4714  131.0893  151.0638 LP  0  0  0  0  0  0  0  0  0  0  0  0  # atno 17370 bound_to 10713
  157.1098  130.6016  149.5479 LP  0  0  0  0  0  0  0  0  0  0  0  0  # atno 17371 bound_to 10713
  140.5087  134.6416  157.5276 LP  0  0  0  0  0  0  0  0  0  0  0  0  # atno 17394 bound_to 11000
  139.9825  134.7114  155.9833 LP  0  0  0  0  0  0  0  0  0  0  0  0  # atno 17395 bound_to 11000

$$$$
