AV-unprocessed.smi:1403|AV-procd|sdf|5699|dock2
  -GOLD-   22720 5333D 1   1.00000     0.00000
 Structure written by MMmdl.
 36 37  0  0  0  0  0  0  0  0  1 V2000
  154.6847  140.1749  160.8187 C   0  0  0  0  0  0  0  0  0  0  0  0
  153.3438  140.7133  160.2994 C   0  0  2  0  0  0  0  0  0  0  0  0
  153.1874  140.3134  158.9019 N   0  0  0  0  0  0  0  0  0  0  0  0
  152.1263  139.6830  158.3742 C   0  0  0  0  0  0  0  0  0  0  0  0
  151.1261  139.3785  159.0251 O   0  0  0  0  0  0  0  0  0  0  0  0
  152.2033  139.3806  156.8709 C   0  0  0  0  0  0  0  0  0  0  0  0
  151.0550  139.9079  156.1194 N   0  0  0  0  0  0  0  0  0  0  0  0
  150.4109  139.1179  155.1778 C   0  0  0  0  0  0  0  0  0  0  0  0
  149.3546  139.5433  154.4450 C   0  0  0  0  0  0  0  0  0  0  0  0
  148.8309  140.8938  154.6187 C   0  0  0  0  0  0  0  0  0  0  0  0
  147.8789  141.3699  154.0047 O   0  0  0  0  0  0  0  0  0  0  0  0
  149.5073  141.6583  155.5730 N   0  0  0  0  0  0  0  0  0  0  0  0
  150.5976  141.2269  156.3301 C   0  0  0  0  0  0  0  0  0  0  0  0
  151.1241  141.9848  157.1441 O   0  0  0  0  0  0  0  0  0  0  0  0
  153.2490  142.2472  160.4341 C   0  0  1  0  0  0  0  0  0  0  0  0
  152.0774  142.8903  159.6919 C   0  0  0  0  0  0  0  0  0  0  0  0
  151.9527  144.2153  160.4092 C   0  0  0  0  0  0  0  0  0  0  0  0
  152.2964  143.8442  161.8513 C   0  0  0  0  0  0  0  0  0  0  0  0
  153.0276  142.6213  161.7900 O   0  0  0  0  0  0  0  0  0  0  0  0
  149.1817  142.6015  155.7262 H   0  0  0  0  0  0  0  0  0  0  0  0
  154.8256  140.4174  161.8723 H   0  0  0  0  0  0  0  0  0  0  0  0
  155.5247  140.5965  160.2655 H   0  0  0  0  0  0  0  0  0  0  0  0
  154.7344  139.0896  160.7245 H   0  0  0  0  0  0  0  0  0  0  0  0
  152.5542  140.2641  160.9047 H   0  0  0  0  0  0  0  0  0  0  0  0
  153.9564  140.5302  158.2847 H   0  0  0  0  0  0  0  0  0  0  0  0
  153.1325  139.8058  156.4895 H   0  0  0  0  0  0  0  0  0  0  0  0
  152.2933  138.3041  156.7115 H   0  0  0  0  0  0  0  0  0  0  0  0
  150.7672  138.1112  155.0121 H   0  0  0  0  0  0  0  0  0  0  0  0
  148.8951  138.8810  153.7257 H   0  0  0  0  0  0  0  0  0  0  0  0
  154.1797  142.7128  160.1038 H   0  0  0  0  0  0  0  0  0  0  0  0
  152.2569  143.0013  158.6222 H   0  0  0  0  0  0  0  0  0  0  0  0
  151.1680  142.3033  159.8288 H   0  0  0  0  0  0  0  0  0  0  0  0
  152.6894  144.9185  160.0190 H   0  0  0  0  0  0  0  0  0  0  0  0
  150.9649  144.6658  160.3084 H   0  0  0  0  0  0  0  0  0  0  0  0
  152.8798  144.6246  162.3406 H   0  0  0  0  0  0  0  0  0  0  0  0
  151.3920  143.6800  162.4378 H   0  0  0  0  0  0  0  0  0  0  0  0
  1  2  1  0  0  0  0
  1 21  1  0  0  0  0
  1 22  1  0  0  0  0
  1 23  1  0  0  0  0
  2  3  1  0  0  0  0
  2 15  1  0  0  0  0
  2 24  1  0  0  0  0
  3  4  1  0  0  0  0
  3 25  1  0  0  0  0
  4  5  2  0  0  0  0
  4  6  1  0  0  0  0
  6  7  1  0  0  0  0
  6 26  1  0  0  0  0
  6 27  1  0  0  0  0
  7 13  1  0  0  0  0
  7  8  1  0  0  0  0
  8  9  2  0  0  0  0
  8 28  1  0  0  0  0
  9 10  1  0  0  0  0
  9 29  1  0  0  0  0
 10 11  2  0  0  0  0
 10 12  1  0  0  0  0
 12 20  1  0  0  0  0
 12 13  1  0  0  0  0
 13 14  2  0  0  0  0
 15 19  1  0  0  0  0
 15 16  1  0  0  0  0
 15 30  1  0  0  0  0
 16 17  1  0  0  0  0
 16 31  1  0  0  0  0
 16 32  1  0  0  0  0
 17 18  1  0  0  0  0
 17 33  1  0  0  0  0
 17 34  1  0  0  0  0
 18 19  1  0  0  0  0
 18 35  1  0  0  0  0
 18 36  1  0  0  0  0
M  END
> <s_m_source_file>
AV-unprocessed.smi

> <i_m_source_file_index>
1403

> <i_lp_mmshare_version>
43012

> <i_f3d_flags>
0

> <s_epik_input>
TzFbQ0gyXVtDSDJdW0NIMl1bQ0BIXTFbQ0BIXShbQ0gzXSlbTkhdQyg9TylbQ0gyXW4yW2NIXVtjSF1jKD1PKVtuSF1jMj1P

> <s_epik_cmdline>
J2VwaWtfcHl0aG9uJywgJy1waCcsICc3LjAnLCAnLXRuJywgJzgnLCAnLW1hJywgJzIwMCcsICctbWV0YWxfYmluZGluZycsICctaW1hZScsICc8aW5maWxlLm1hZT4nLCAnLW9tYWUnLCAnPG91dGZpbGUubWFlPic=

> <r_lp_tautomer_probability>
0.999537

> <r_epik_Ionization_Penalty>
0.00331407

> <r_epik_Ionization_Penalty_Charging>
0.00331405

> <r_epik_Ionization_Penalty_Neutral>
2.30132e-08

> <r_epik_State_Penalty>
0.00234266

> <r_epik_Charging_Adjusted_Penalty>
0.00565671

> <i_epik_Tot_Q>
0

> <i_epik_Tot_abs_Q>
0

> <r_epik_Metal_State_Penalty>
0.365604

> <b_epik_Metal_Only>
0

> <s_lp_Force_Field>
OPLS_2005

> <r_lp_Energy>
18.4227

> <b_lp_Chiralities_Consistent>
1

> <s_lp_Variant>
AV-unprocessed.smi:1403-3

> <Gold.Version>
5.8.1

> <Gold.Id.Protein>
6NUR|6NUR_protein|mol2

> <Gold.PLP.Fitness>
43.0866

> <Gold.PLP.PLP>
-40.9955

> <Gold.PLP.part.hbond>
-2.0000

> <Gold.PLP.part.metal>
0.0000

> <Gold.PLP.part.buried>
-3.5282

> <Gold.PLP.part.nonpolar>
-35.0490

> <Gold.PLP.part.repulsive>
0.5547

> <Gold.PLP.ligand.clash>
0.0000

> <Gold.PLP.ligand.torsion>
0.4861

> <Gold.PLP.Chemscore.Hbond>
1.0156

> <Gold.PLP.Chemscore.CHOScore>
0.0000

> <Gold.PLP.Chemscore.Metal>
0.0000

> <Gold.Chemscore.Hbonds>
donor molecule, donor type, donor heavy atom, donor atom, acceptor molecule, acceptor atom, score
      L1  H    12    20       P1  8028  0.73

> <Gold.PLP.Chemscore.Internal.Correction>
0.0165

> <Gold.Rescore>
     Score         DG    S(hbond)    S(metal)    S(lipo)     H(rot)  DE(clash)    DE(int)     intcor
     10.26     -13.54       1.00        0.00      85.04       2.04       0.06       3.22       ----

> <Gold.Chemscore.Fitness>
10.2586

> <Gold.Chemscore.DG>
-13.5406

> <Gold.Chemscore.ZeroCoef>
-5.4800

> <Gold.Chemscore.Hbond>
0.9975

> <Gold.Chemscore.Metal>
0.0000

> <Gold.Chemscore.Lipo>
85.0424

> <Gold.Chemscore.Internal_Hbond>
0.0000

> <Gold.Chemscore.DEClash>
0.0617

> <Gold.Chemscore.DEInternal>
3.2203

> <Gold.Chemscore.Rot>
2.0395

> <Gold.Chemscore.Internal.Correction>
   9.000000E+99

> <Gold.Chemscore.Hbonds>
donor molecule, donor type, donor heavy atom, donor atom, acceptor molecule, acceptor atom, score
      L1  H    12    20       P1  8028  0.73

> <Gold.Chemscore.Hbond.Weighted>
-3.3317

> <Gold.Chemscore.Metal.Weighted>
-0.0000

> <Gold.Chemscore.Lipo.Weighted>
-9.9500

> <Gold.Chemscore.Internal_Hbond.Weighted>
0.0000

> <Gold.Chemscore.DEClash.Weighted>
0.0617

> <Gold.Chemscore.DEInternal.Weighted>
3.2203

> <Gold.Chemscore.Rot.Weighted>
5.2211

> <Gold.Chemscore.Internal.Correction.Weighted>
   9.000000E+99

> <Gold.Protein.RotatedTorsions>
[ 6907 6896 6895 6894 ] final -170.45 input  -60.11 | X-H torsion
[ 7974 7965 7964 7962 ] final   78.23 input  175.53 | X-H torsion
[ 8008 7997 7996 7995 ] final  150.56 input   59.86 | X-H torsion
[ 10167 10162 10161 10158 ] final   66.66 input  -65.29 | X-H torsion
[ 10718 10713 10712 10709 ] final   80.74 input   66.30 | X-H torsion
[ 10763 10752 10751 10750 ] final -125.18 input  -60.55 | X-H torsion
[ 11005 11000 10999 10996 ] final  142.45 input  -57.11 | X-H torsion

> <Gold.Protein.ActiveResidues>
 VAL166  LYS551  ARG553  GLY616  TRP617  ASP618  TYR619  PRO620  LYS621  CYS622 
 ASP623  PHE694  ASN695  SER759  ASP760  ASP761  ALA762  ILE779  LEU786  VAL792 
 PHE793  MET794  SER795  GLU796  ALA797  LYS798  CYS799  TRP800  GLU811  SER814 

> <Gold.Protein.RotatedAtoms>
  151.5079  133.3491  159.2879 H   0  0  0  0  0  0  0  0  0  0  0  0  # atno 6907 bound_to 6896
  150.8731  134.8111  159.7180 H   0  0  0  0  0  0  0  0  0  0  0  0  # atno 6908 bound_to 6896
  152.4712  134.4966  159.9763 H   0  0  0  0  0  0  0  0  0  0  0  0  # atno 6909 bound_to 6896
  145.6799  139.2521  143.1820 H   0  0  0  0  0  0  0  0  0  0  0  0  # atno 7974 bound_to 7965
  156.2710  140.2071  156.6037 H   0  0  0  0  0  0  0  0  0  0  0  0  # atno 8008 bound_to 7997
  154.6886  140.0532  157.0364 H   0  0  0  0  0  0  0  0  0  0  0  0  # atno 8009 bound_to 7997
  155.0898  140.3195  155.4580 H   0  0  0  0  0  0  0  0  0  0  0  0  # atno 8010 bound_to 7997
  140.0980  144.4929  150.7056 H   0  0  0  0  0  0  0  0  0  0  0  0  # atno 10167 bound_to 10162
  157.6814  130.9973  150.2124 H   0  0  0  0  0  0  0  0  0  0  0  0  # atno 10718 bound_to 10713
  154.8733  135.4038  154.3226 H   0  0  0  0  0  0  0  0  0  0  0  0  # atno 10763 bound_to 10752
  153.4052  135.7019  153.6403 H   0  0  0  0  0  0  0  0  0  0  0  0  # atno 10764 bound_to 10752
  153.5129  135.3703  155.2566 H   0  0  0  0  0  0  0  0  0  0  0  0  # atno 10765 bound_to 10752
  140.0478  134.9271  157.0962 H   0  0  0  0  0  0  0  0  0  0  0  0  # atno 11005 bound_to 11000
  146.0973  140.7585  142.9566 LP  0  0  0  0  0  0  0  0  0  0  0  0  # atno 17320 bound_to 7965
  144.7029  140.3732  143.7141 LP  0  0  0  0  0  0  0  0  0  0  0  0  # atno 17321 bound_to 7965
  140.6993  143.2424  151.4910 LP  0  0  0  0  0  0  0  0  0  0  0  0  # atno 17342 bound_to 10162
  139.5687  144.1979  152.1804 LP  0  0  0  0  0  0  0  0  0  0  0  0  # atno 17343 bound_to 10162
  156.2792  130.3731  149.7952 LP  0  0  0  0  0  0  0  0  0  0  0  0  # atno 17370 bound_to 10713
  156.5645  130.8398  151.3338 LP  0  0  0  0  0  0  0  0  0  0  0  0  # atno 17371 bound_to 10713
  140.3965  134.2128  155.7164 LP  0  0  0  0  0  0  0  0  0  0  0  0  # atno 17394 bound_to 11000
  141.1915  133.8192  157.0875 LP  0  0  0  0  0  0  0  0  0  0  0  0  # atno 17395 bound_to 11000

$$$$
