AV-unprocessed.smi:218|AV-procd|sdf|1664|dock5
  -GOLD-   2262020 63D 1   1.00000     0.00000
 Structure written by MMmdl.
 54 57  0  0  0  0  0  0  0  0  1 V2000
  154.4406  138.8601  161.0504 C   0  0  0  0  0  0  0  0  0  0  0  0
  153.9883  138.7167  159.5922 C   0  0  0  0  0  0  0  0  0  0  0  0
  154.8345  137.6694  158.8479 C   0  0  0  0  0  0  0  0  0  0  0  0
  154.1386  140.0008  158.9837 O   0  0  0  0  0  0  0  0  0  0  0  0
  153.4947  141.1014  159.5159 C   0  0  0  0  0  0  0  0  0  0  0  0
  152.5099  141.7396  158.7350 C   0  0  0  0  0  0  0  0  0  0  0  0
  151.8518  142.8738  159.2573 C   0  0  0  0  0  0  0  0  0  0  0  0
  150.7892  143.6085  158.4544 C   0  0  0  0  0  0  0  0  0  0  0  0
  150.5175  143.0560  157.1307 N   0  0  0  0  0  0  0  0  0  0  0  0
  149.9746  141.8245  157.0087 C   0  0  0  0  0  0  0  0  0  0  0  0
  149.9598  140.9591  158.0559 N   0  0  0  0  0  0  0  0  0  0  0  0
  149.4098  139.7495  157.9143 C   0  0  0  0  0  0  0  0  0  0  0  0
  148.8356  139.2154  156.8341 N   0  0  0  0  0  0  0  0  0  0  0  0
  148.8543  140.0786  155.7773 C   0  0  0  0  0  0  0  0  0  0  0  0
  149.4040  141.3908  155.7845 C   0  0  0  0  0  0  0  0  0  0  0  0
  149.2424  141.9764  154.5357 N   0  0  0  0  0  0  0  0  0  0  0  0
  148.6290  141.0606  153.8351 C   0  0  0  0  0  0  0  0  0  0  0  0
  148.3585  139.8870  154.5037 N   0  0  0  0  0  0  0  0  0  0  0  0
  147.6660  138.6743  153.9737 C   0  0  2  0  0  0  0  0  0  0  0  0
  146.3207  138.9978  153.7829 O   0  0  0  0  0  0  0  0  0  0  0  0
  145.4930  137.9147  154.1899 C   0  0  1  0  0  0  0  0  0  0  0  0
  145.2605  136.9927  152.9735 C   0  0  0  0  0  0  0  0  0  0  0  0
  144.3986  137.6056  152.0376 O   0  0  0  0  0  0  0  0  0  0  0  0
  146.2795  137.3149  155.3644 C   0  0  1  0  0  0  0  0  0  0  0  0
  145.9322  135.9824  155.6953 O   0  0  0  0  0  0  0  0  0  0  0  0
  147.7449  137.5074  154.9750 C   0  0  1  0  0  0  0  0  0  0  0  0
  148.2974  136.3523  154.3698 O   0  0  0  0  0  0  0  0  0  0  0  0
  152.1981  143.3155  160.5495 C   0  0  0  0  0  0  0  0  0  0  0  0
  153.1942  142.6125  161.2545 C   0  0  0  0  0  0  0  0  0  0  0  0
  153.8328  141.5329  160.7564 N   0  0  0  0  0  0  0  0  0  0  0  0
  148.1523  138.4676  153.0191 H   0  0  0  0  0  0  0  0  0  0  0  0
  144.5363  138.3174  154.5260 H   0  0  0  0  0  0  0  0  0  0  0  0
  146.0794  137.9250  156.2455 H   0  0  0  0  0  0  0  0  0  0  0  0
  148.3554  137.7712  155.8400 H   0  0  0  0  0  0  0  0  0  0  0  0
  154.3414  137.9168  161.5881 H   0  0  0  0  0  0  0  0  0  0  0  0
  153.8391  139.6042  161.5732 H   0  0  0  0  0  0  0  0  0  0  0  0
  155.4834  139.1725  161.1119 H   0  0  0  0  0  0  0  0  0  0  0  0
  152.9417  138.4089  159.6079 H   0  0  0  0  0  0  0  0  0  0  0  0
  154.7610  136.6944  159.3303 H   0  0  0  0  0  0  0  0  0  0  0  0
  155.8869  137.9540  158.8320 H   0  0  0  0  0  0  0  0  0  0  0  0
  154.5109  137.5464  157.8148 H   0  0  0  0  0  0  0  0  0  0  0  0
  152.2721  141.3650  157.7503 H   0  0  0  0  0  0  0  0  0  0  0  0
  149.8605  143.5880  159.0248 H   0  0  0  0  0  0  0  0  0  0  0  0
  151.0630  144.6596  158.3550 H   0  0  0  0  0  0  0  0  0  0  0  0
  150.5231  143.7230  156.3725 H   0  0  0  0  0  0  0  0  0  0  0  0
  149.4312  139.1209  158.7923 H   0  0  0  0  0  0  0  0  0  0  0  0
  148.3549  141.2179  152.8020 H   0  0  0  0  0  0  0  0  0  0  0  0
  146.2085  136.8061  152.4680 H   0  0  0  0  0  0  0  0  0  0  0  0
  144.8613  136.0218  153.2654 H   0  0  0  0  0  0  0  0  0  0  0  0
  144.3782  138.5347  152.2110 H   0  0  0  0  0  0  0  0  0  0  0  0
  146.3109  135.7736  156.5358 H   0  0  0  0  0  0  0  0  0  0  0  0
  148.6015  136.5834  153.5056 H   0  0  0  0  0  0  0  0  0  0  0  0
  151.7177  144.1766  160.9908 H   0  0  0  0  0  0  0  0  0  0  0  0
  153.4854  142.9258  162.2462 H   0  0  0  0  0  0  0  0  0  0  0  0
  1  2  1  0  0  0  0
  1 35  1  0  0  0  0
  1 36  1  0  0  0  0
  1 37  1  0  0  0  0
  2  3  1  0  0  0  0
  2  4  1  0  0  0  0
  2 38  1  0  0  0  0
  3 39  1  0  0  0  0
  3 40  1  0  0  0  0
  3 41  1  0  0  0  0
  4  5  1  0  0  0  0
  5 30  1  0  0  0  0
  5  6  2  0  0  0  0
  6  7  1  0  0  0  0
  6 42  1  0  0  0  0
  7  8  1  0  0  0  0
  7 28  2  0  0  0  0
  8  9  1  0  0  0  0
  8 43  1  0  0  0  0
  8 44  1  0  0  0  0
  9 10  1  0  0  0  0
  9 45  1  0  0  0  0
 10 15  1  0  0  0  0
 10 11  2  0  0  0  0
 11 12  1  0  0  0  0
 12 13  2  0  0  0  0
 12 46  1  0  0  0  0
 13 14  1  0  0  0  0
 14 18  1  0  0  0  0
 14 15  2  0  0  0  0
 15 16  1  0  0  0  0
 16 17  2  0  0  0  0
 17 18  1  0  0  0  0
 17 47  1  0  0  0  0
 18 19  1  0  0  0  0
 19 31  1  0  0  0  0
 19 26  1  0  0  0  0
 19 20  1  0  0  0  0
 20 21  1  0  0  0  0
 21 32  1  0  0  0  0
 21 22  1  0  0  0  0
 21 24  1  0  0  0  0
 22 23  1  0  0  0  0
 22 48  1  0  0  0  0
 22 49  1  0  0  0  0
 23 50  1  0  0  0  0
 24 33  1  0  0  0  0
 24 25  1  0  0  0  0
 24 26  1  0  0  0  0
 25 51  1  0  0  0  0
 26 34  1  0  0  0  0
 26 27  1  0  0  0  0
 27 52  1  0  0  0  0
 28 29  1  0  0  0  0
 28 53  1  0  0  0  0
 29 30  2  0  0  0  0
 29 54  1  0  0  0  0
M  END
> <s_m_source_file>
AV-unprocessed.smi

> <i_m_source_file_index>
218

> <i_lp_mmshare_version>
43012

> <i_f3d_flags>
0

> <s_epik_input>
W0NIM11bQ0hdKFtDSDNdKU9jMVtjSF1jKFtjSF1bY0hdbjEpW0NIMl1bTkhdYyhuW2NIXW4yKWMoYzIzKW5bY0hdbjNbQ0BASF00T1tDQEhdKFtDSDJdW09IXSlbQ0BASF0oW09IXSlbQ0BIXTRbT0hd

> <s_epik_cmdline>
J2VwaWtfcHl0aG9uJywgJy1waCcsICc3LjAnLCAnLXRuJywgJzgnLCAnLW1hJywgJzIwMCcsICctbWV0YWxfYmluZGluZycsICctaW1hZScsICc8aW5maWxlLm1hZT4nLCAnLW9tYWUnLCAnPG91dGZpbGUubWFlPic=

> <r_lp_tautomer_probability>
1

> <r_epik_Ionization_Penalty>
0.00457014

> <r_epik_Ionization_Penalty_Charging>
0

> <r_epik_Ionization_Penalty_Neutral>
0.00457014

> <r_epik_State_Penalty>
-0

> <r_epik_Charging_Adjusted_Penalty>
0

> <i_epik_Tot_Q>
0

> <i_epik_Tot_abs_Q>
0

> <r_epik_Metal_State_Penalty>
-0

> <b_epik_Metal_Only>
0

> <s_epik_Chemistry_Notes>
This compound contains an acetal/aminal-like group ( X-CH(R)-Y where X, Y are N, S, or O) that may be acid/base labile, releasing an aldehyde.

> <s_lp_Force_Field>
OPLS_2005

> <r_lp_Energy>
44.1408

> <b_lp_Chiralities_Consistent>
1

> <s_lp_Variant>
AV-unprocessed.smi:218-3

> <Gold.Version>
5.8.1

> <Gold.Id.Protein>
6NUR|6NUR_protein|mol2

> <Gold.PLP.Fitness>
50.5171

> <Gold.PLP.PLP>
-38.2779

> <Gold.PLP.part.hbond>
-5.8258

> <Gold.PLP.part.metal>
0.0000

> <Gold.PLP.part.buried>
-5.6432

> <Gold.PLP.part.nonpolar>
-27.8299

> <Gold.PLP.part.repulsive>
1.4823

> <Gold.PLP.ligand.clash>
0.0000

> <Gold.PLP.ligand.torsion>
0.3079

> <Gold.PLP.Chemscore.Hbond>
3.4992

> <Gold.PLP.Chemscore.CHOScore>
0.7501

> <Gold.PLP.Chemscore.Metal>
0.0000

> <Gold.Chemscore.Hbonds>
donor molecule, donor type, donor heavy atom, donor atom, acceptor molecule, acceptor atom, score
      L1  H     9    45       P1  8028  0.52
      L1  H    23    50       P1 10175  0.96
      L1  H    27    52       P1  7948  1.00
      P1  H  7997  8008       L1     4  1.00
      L1  C    17    47       P1  7957  0.76

> <Gold.PLP.Chemscore.Internal.Correction>
0.1071

> <Gold.Rescore>
     Score         DG    S(hbond)    S(metal)    S(lipo)     H(rot)  DE(clash)    DE(int)     intcor
      7.52     -13.19       3.41        0.00      75.99       4.90       0.20       5.47       ----

> <Gold.Chemscore.Fitness>
7.5235

> <Gold.Chemscore.DG>
-13.1939

> <Gold.Chemscore.ZeroCoef>
-5.4800

> <Gold.Chemscore.Hbond>
3.4056

> <Gold.Chemscore.Metal>
0.0000

> <Gold.Chemscore.Lipo>
75.9908

> <Gold.Chemscore.Internal_Hbond>
0.0000

> <Gold.Chemscore.DEClash>
0.1955

> <Gold.Chemscore.DEInternal>
5.4749

> <Gold.Chemscore.Rot>
4.9029

> <Gold.Chemscore.Internal.Correction>
   9.000000E+99

> <Gold.Chemscore.Hbonds>
donor molecule, donor type, donor heavy atom, donor atom, acceptor molecule, acceptor atom, score
      L1  H     9    45       P1  8028  0.48
      L1  H    23    50       P1 10175  0.90
      L1  H    27    52       P1  7948  0.97
      P1  H  7997  8008       L1     4  0.90

> <Gold.Chemscore.Hbond.Weighted>
-11.3745

> <Gold.Chemscore.Metal.Weighted>
-0.0000

> <Gold.Chemscore.Lipo.Weighted>
-8.8909

> <Gold.Chemscore.Internal_Hbond.Weighted>
0.0000

> <Gold.Chemscore.DEClash.Weighted>
0.1955

> <Gold.Chemscore.DEInternal.Weighted>
5.4749

> <Gold.Chemscore.Rot.Weighted>
12.5515

> <Gold.Chemscore.Internal.Correction.Weighted>
   9.000000E+99

> <Gold.Protein.RotatedTorsions>
[ 6907 6896 6895 6894 ] final   67.24 input  -60.11 | X-H torsion
[ 7974 7965 7964 7962 ] final   30.76 input  175.53 | X-H torsion
[ 8008 7997 7996 7995 ] final -110.25 input   59.86 | X-H torsion
[ 10167 10162 10161 10158 ] final -118.26 input  -65.29 | X-H torsion
[ 10718 10713 10712 10709 ] final  -79.80 input   66.30 | X-H torsion
[ 10763 10752 10751 10750 ] final  -33.13 input  -60.55 | X-H torsion
[ 11005 11000 10999 10996 ] final -132.19 input  -57.11 | X-H torsion

> <Gold.Protein.ActiveResidues>
 VAL166  LYS551  ARG553  GLY616  TRP617  ASP618  TYR619  PRO620  LYS621  CYS622 
 ASP623  PHE694  ASN695  SER759  ASP760  ASP761  ALA762  ILE779  LEU786  VAL792 
 PHE793  MET794  SER795  GLU796  ALA797  LYS798  CYS799  TRP800  GLU811  SER814 

> <Gold.Protein.RotatedAtoms>
  152.4538  134.5336  159.9818 H   0  0  0  0  0  0  0  0  0  0  0  0  # atno 6907 bound_to 6896
  151.5402  133.3428  159.2942 H   0  0  0  0  0  0  0  0  0  0  0  0  # atno 6908 bound_to 6896
  150.8475  134.7820  159.7045 H   0  0  0  0  0  0  0  0  0  0  0  0  # atno 6909 bound_to 6896
  146.1592  139.6746  142.9045 H   0  0  0  0  0  0  0  0  0  0  0  0  # atno 7974 bound_to 7965
  154.9716  140.0397  157.2237 H   0  0  0  0  0  0  0  0  0  0  0  0  # atno 8008 bound_to 7997
  154.7796  140.2816  155.6052 H   0  0  0  0  0  0  0  0  0  0  0  0  # atno 8009 bound_to 7997
  156.2934  140.2594  156.2618 H   0  0  0  0  0  0  0  0  0  0  0  0  # atno 8010 bound_to 7997
  140.0595  143.4982  152.2039 H   0  0  0  0  0  0  0  0  0  0  0  0  # atno 10167 bound_to 10162
  156.0084  130.4556  150.3704 H   0  0  0  0  0  0  0  0  0  0  0  0  # atno 10718 bound_to 10713
  153.8251  135.6871  153.4822 H   0  0  0  0  0  0  0  0  0  0  0  0  # atno 10763 bound_to 10752
  153.1545  135.4604  154.9683 H   0  0  0  0  0  0  0  0  0  0  0  0  # atno 10764 bound_to 10752
  154.7911  135.3302  154.7720 H   0  0  0  0  0  0  0  0  0  0  0  0  # atno 10765 bound_to 10752
  140.9192  134.1466  157.4327 H   0  0  0  0  0  0  0  0  0  0  0  0  # atno 11005 bound_to 11000
  145.4631  141.0433  143.2740 LP  0  0  0  0  0  0  0  0  0  0  0  0  # atno 17320 bound_to 7965
  144.8004  139.6152  143.7074 LP  0  0  0  0  0  0  0  0  0  0  0  0  # atno 17321 bound_to 7965
  139.5903  144.7547  151.3418 LP  0  0  0  0  0  0  0  0  0  0  0  0  # atno 17342 bound_to 10162
  140.7179  143.7217  150.7691 LP  0  0  0  0  0  0  0  0  0  0  0  0  # atno 17343 bound_to 10162
  157.1788  131.0387  151.2759 LP  0  0  0  0  0  0  0  0  0  0  0  0  # atno 17370 bound_to 10713
  157.4164  130.7413  149.6879 LP  0  0  0  0  0  0  0  0  0  0  0  0  # atno 17371 bound_to 10713
  139.8772  134.9965  156.5798 LP  0  0  0  0  0  0  0  0  0  0  0  0  # atno 17394 bound_to 11000
  140.8009  133.8506  155.8726 LP  0  0  0  0  0  0  0  0  0  0  0  0  # atno 17395 bound_to 11000

$$$$
