AV-unprocessed.smi:2189|AV-procd|sdf|8884|dock6
  -GOLD-   2272012 83D 1   1.00000     0.00000
 Structure written by MMmdl.
 39 41  0  0  0  0  0  0  0  0  1 V2000
  155.1084  140.9240  161.6003 O   0  0  0  0  0  0  0  0  0  0  0  0
  154.0436  140.7325  161.0104 C   0  0  0  0  0  0  0  0  0  0  0  0
  153.5896  139.4880  160.7649 N   0  0  0  0  0  0  0  0  0  0  0  0
  154.2650  138.2414  161.1177 C   0  0  0  0  0  0  0  0  0  0  0  0
  154.2732  137.9902  162.6380 C   0  0  0  0  0  0  0  0  0  0  0  0
  154.4000  136.5236  163.0138 C   0  0  0  0  0  0  0  0  0  0  0  0
  154.2331  136.1025  164.3511 C   0  0  0  0  0  0  0  0  0  0  0  0
  154.3363  134.7279  164.6387 C   0  0  0  0  0  0  0  0  0  0  0  0
  154.6048  133.8326  163.5855 C   0  0  0  0  0  0  0  0  0  0  0  0
  154.7579  134.3540  162.2853 C   0  0  0  0  0  0  0  0  0  0  0  0
  154.6603  135.6699  161.9983 N   0  0  0  0  0  0  0  0  0  0  0  0
  153.1554  141.7941  160.5037 C   0  0  0  0  0  0  0  0  0  0  0  0
  153.1128  142.9862  161.1561 C   0  0  0  0  0  0  0  0  0  0  0  0
  152.2796  144.0715  160.7011 C   0  0  0  0  0  0  0  0  0  0  0  0
  151.5073  143.8644  159.6293 C   0  0  0  0  0  0  0  0  0  0  0  0
  151.4697  142.6548  158.9377 N   0  0  0  0  0  0  0  0  0  0  0  0
  150.4943  142.5397  157.8588 C   0  0  0  0  0  0  0  0  0  0  0  0
  151.0969  141.8026  156.6769 C   0  0  0  0  0  0  0  0  0  0  0  0
  151.4706  140.1164  157.2773 S   0  0  0  0  0  0  0  0  0  0  0  0
  150.2103  139.5003  157.7209 O   0  0  0  0  0  0  0  0  0  0  0  0
  152.2858  139.4391  156.2576 O   0  0  0  0  0  0  0  0  0  0  0  0
  152.4120  140.4713  158.6166 N   0  0  0  0  0  0  0  0  0  0  0  0
  152.3244  141.5764  159.3018 C   0  0  0  0  0  0  0  0  0  0  0  0
  152.7060  139.4005  160.2845 H   0  0  0  0  0  0  0  0  0  0  0  0
  153.8192  137.3937  160.5946 H   0  0  0  0  0  0  0  0  0  0  0  0
  155.2921  138.3103  160.7594 H   0  0  0  0  0  0  0  0  0  0  0  0
  155.0999  138.5386  163.0915 H   0  0  0  0  0  0  0  0  0  0  0  0
  153.3644  138.3969  163.0837 H   0  0  0  0  0  0  0  0  0  0  0  0
  154.0196  136.8130  165.1361 H   0  0  0  0  0  0  0  0  0  0  0  0
  154.2098  134.3667  165.6485 H   0  0  0  0  0  0  0  0  0  0  0  0
  154.6905  132.7718  163.7684 H   0  0  0  0  0  0  0  0  0  0  0  0
  154.9648  133.6967  161.4536 H   0  0  0  0  0  0  0  0  0  0  0  0
  153.6988  143.1593  162.0476 H   0  0  0  0  0  0  0  0  0  0  0  0
  152.2813  145.0247  161.2092 H   0  0  0  0  0  0  0  0  0  0  0  0
  150.8625  144.6392  159.2403 H   0  0  0  0  0  0  0  0  0  0  0  0
  149.6068  142.0250  158.2282 H   0  0  0  0  0  0  0  0  0  0  0  0
  150.1671  143.5257  157.5273 H   0  0  0  0  0  0  0  0  0  0  0  0
  150.3974  141.7310  155.8443 H   0  0  0  0  0  0  0  0  0  0  0  0
  152.0139  142.2737  156.3214 H   0  0  0  0  0  0  0  0  0  0  0  0
  1  2  2  0  0  0  0
  2  3  1  0  0  0  0
  2 12  1  0  0  0  0
  3  4  1  0  0  0  0
  3 24  1  0  0  0  0
  4  5  1  0  0  0  0
  4 25  1  0  0  0  0
  4 26  1  0  0  0  0
  5  6  1  0  0  0  0
  5 27  1  0  0  0  0
  5 28  1  0  0  0  0
  6 11  1  0  0  0  0
  6  7  2  0  0  0  0
  7  8  1  0  0  0  0
  7 29  1  0  0  0  0
  8  9  2  0  0  0  0
  8 30  1  0  0  0  0
  9 10  1  0  0  0  0
  9 31  1  0  0  0  0
 10 11  2  0  0  0  0
 10 32  1  0  0  0  0
 12 23  1  0  0  0  0
 12 13  2  0  0  0  0
 13 14  1  0  0  0  0
 13 33  1  0  0  0  0
 14 15  2  0  0  0  0
 14 34  1  0  0  0  0
 15 16  1  0  0  0  0
 15 35  1  0  0  0  0
 16 23  1  0  0  0  0
 16 17  1  0  0  0  0
 17 18  1  0  0  0  0
 17 36  1  0  0  0  0
 17 37  1  0  0  0  0
 18 19  1  0  0  0  0
 18 38  1  0  0  0  0
 18 39  1  0  0  0  0
 19 20  2  0  0  0  0
 19 21  2  0  0  0  0
 19 22  1  0  0  0  0
 22 23  2  0  0  0  0
M  END
> <s_m_source_file>
AV-unprocessed.smi

> <i_m_source_file_index>
2189

> <i_lp_mmshare_version>
43012

> <i_f3d_flags>
0

> <s_epik_input>
W0NIMl0xW0NIMl1TKD1PKSg9TylOPUMoTjEyKUMoPVtDSF1bQ0hdPVtDSF0yKUMoPU8pW05IXVtDSDJdW0NIMl1jM1tjSF1bY0hdW2NIXVtjSF1uMw==

> <s_epik_cmdline>
J2VwaWtfcHl0aG9uJywgJy1waCcsICc3LjAnLCAnLXRuJywgJzgnLCAnLW1hJywgJzIwMCcsICctbWV0YWxfYmluZGluZycsICctaW1hZScsICc8aW5maWxlLm1hZT4nLCAnLW9tYWUnLCAnPG91dGZpbGUubWFlPic=

> <r_epik_Ionization_Penalty>
0.0177355

> <r_epik_Ionization_Penalty_Charging>
8.06468e-09

> <r_epik_Ionization_Penalty_Neutral>
0.0177355

> <r_epik_State_Penalty>
0.0140338

> <r_epik_Charging_Adjusted_Penalty>
0.0140338

> <i_epik_Tot_Q>
0

> <i_epik_Tot_abs_Q>
0

> <r_epik_Metal_State_Penalty>
0.0535636

> <b_epik_Metal_Only>
0

> <s_lp_Force_Field>
OPLS_2005

> <r_lp_Energy>
27.3768

> <b_lp_Chiralities_Consistent>
1

> <s_lp_Variant>
AV-unprocessed.smi:2189-1

> <Gold.Version>
5.8.1

> <Gold.Id.Protein>
6NUR|6NUR_protein|mol2

> <Gold.PLP.Fitness>
48.1052

> <Gold.PLP.PLP>
-46.2087

> <Gold.PLP.part.hbond>
-2.0000

> <Gold.PLP.part.metal>
0.0000

> <Gold.PLP.part.buried>
-6.9500

> <Gold.PLP.part.nonpolar>
-36.9531

> <Gold.PLP.part.repulsive>
0.0503

> <Gold.PLP.ligand.clash>
0.0000

> <Gold.PLP.ligand.torsion>
0.6419

> <Gold.PLP.Chemscore.Hbond>
1.0000

> <Gold.PLP.Chemscore.CHOScore>
0.0000

> <Gold.PLP.Chemscore.Metal>
0.0000

> <Gold.Chemscore.Hbonds>
donor molecule, donor type, donor heavy atom, donor atom, acceptor molecule, acceptor atom, score
      P1  H  7997  8008       L1    21  0.60

> <Gold.PLP.Chemscore.Internal.Correction>
0.1803

> <Gold.Rescore>
     Score         DG    S(hbond)    S(metal)    S(lipo)     H(rot)  DE(clash)    DE(int)     intcor
     15.36     -17.74       0.98        0.00     108.86       1.47       0.10       2.28       ----

> <Gold.Chemscore.Fitness>
15.3619

> <Gold.Chemscore.DG>
-17.7408

> <Gold.Chemscore.ZeroCoef>
-5.4800

> <Gold.Chemscore.Hbond>
0.9827

> <Gold.Chemscore.Metal>
0.0000

> <Gold.Chemscore.Lipo>
108.8584

> <Gold.Chemscore.Internal_Hbond>
0.0000

> <Gold.Chemscore.DEClash>
0.0978

> <Gold.Chemscore.DEInternal>
2.2812

> <Gold.Chemscore.Rot>
1.4679

> <Gold.Chemscore.Internal.Correction>
   9.000000E+99

> <Gold.Chemscore.Hbonds>
donor molecule, donor type, donor heavy atom, donor atom, acceptor molecule, acceptor atom, score
      P1  H  7997  8008       L1    21  0.35

> <Gold.Chemscore.Hbond.Weighted>
-3.2822

> <Gold.Chemscore.Metal.Weighted>
-0.0000

> <Gold.Chemscore.Lipo.Weighted>
-12.7364

> <Gold.Chemscore.Internal_Hbond.Weighted>
0.0000

> <Gold.Chemscore.DEClash.Weighted>
0.0978

> <Gold.Chemscore.DEInternal.Weighted>
2.2812

> <Gold.Chemscore.Rot.Weighted>
3.7578

> <Gold.Chemscore.Internal.Correction.Weighted>
   9.000000E+99

> <Gold.Protein.RotatedTorsions>
[ 6907 6896 6895 6894 ] final  150.78 input  -60.11 | X-H torsion
[ 7974 7965 7964 7962 ] final -161.37 input  175.53 | X-H torsion
[ 8008 7997 7996 7995 ] final  -56.56 input   59.86 | X-H torsion
[ 10167 10162 10161 10158 ] final -134.83 input  -65.29 | X-H torsion
[ 10718 10713 10712 10709 ] final   70.43 input   66.30 | X-H torsion
[ 10763 10752 10751 10750 ] final    6.62 input  -60.55 | X-H torsion
[ 11005 11000 10999 10996 ] final  126.19 input  -57.11 | X-H torsion

> <Gold.Protein.ActiveResidues>
 VAL166  LYS551  ARG553  GLY616  TRP617  ASP618  TYR619  PRO620  LYS621  CYS622 
 ASP623  PHE694  ASN695  SER759  ASP760  ASP761  ALA762  ILE779  LEU786  VAL792 
 PHE793  MET794  SER795  GLU796  ALA797  LYS798  CYS799  TRP800  GLU811  SER814 

> <Gold.Protein.RotatedAtoms>
  152.1097  133.4294  159.4624 H   0  0  0  0  0  0  0  0  0  0  0  0  # atno 6907 bound_to 6896
  150.6867  134.2663  159.4579 H   0  0  0  0  0  0  0  0  0  0  0  0  # atno 6908 bound_to 6896
  152.0531  134.9641  160.0625 H   0  0  0  0  0  0  0  0  0  0  0  0  # atno 6909 bound_to 6896
  144.7393  140.3408  143.6135 H   0  0  0  0  0  0  0  0  0  0  0  0  # atno 7974 bound_to 7965
  154.4235  140.1127  156.5658 H   0  0  0  0  0  0  0  0  0  0  0  0  # atno 8008 bound_to 7997
  155.6264  140.3495  155.4649 H   0  0  0  0  0  0  0  0  0  0  0  0  # atno 8009 bound_to 7997
  155.9983  140.1194  157.0562 H   0  0  0  0  0  0  0  0  0  0  0  0  # atno 8010 bound_to 7997
  139.8841  143.6803  152.2623 H   0  0  0  0  0  0  0  0  0  0  0  0  # atno 10167 bound_to 10162
  157.6400  130.9477  150.0650 H   0  0  0  0  0  0  0  0  0  0  0  0  # atno 10718 bound_to 10713
  153.2457  135.6908  153.7734 H   0  0  0  0  0  0  0  0  0  0  0  0  # atno 10763 bound_to 10752
  153.6847  135.3322  155.3188 H   0  0  0  0  0  0  0  0  0  0  0  0  # atno 10764 bound_to 10752
  154.8374  135.4531  154.1395 H   0  0  0  0  0  0  0  0  0  0  0  0  # atno 10765 bound_to 10752
  139.9444  134.9631  156.8670 H   0  0  0  0  0  0  0  0  0  0  0  0  # atno 11005 bound_to 11000
  145.7377  139.1755  143.2394 LP  0  0  0  0  0  0  0  0  0  0  0  0  # atno 17320 bound_to 7965
  146.1158  140.7371  142.9481 LP  0  0  0  0  0  0  0  0  0  0  0  0  # atno 17321 bound_to 7965
  139.7169  144.7610  151.1019 LP  0  0  0  0  0  0  0  0  0  0  0  0  # atno 17342 bound_to 10162
  140.7739  143.5257  150.9483 LP  0  0  0  0  0  0  0  0  0  0  0  0  # atno 17343 bound_to 10162
  156.1671  130.3645  149.9216 LP  0  0  0  0  0  0  0  0  0  0  0  0  # atno 17370 bound_to 10713
  156.7201  130.9003  151.3617 LP  0  0  0  0  0  0  0  0  0  0  0  0  # atno 17371 bound_to 10713
  140.5872  134.0296  155.7486 LP  0  0  0  0  0  0  0  0  0  0  0  0  # atno 17394 bound_to 11000
  141.1089  133.9648  157.2946 LP  0  0  0  0  0  0  0  0  0  0  0  0  # atno 17395 bound_to 11000

$$$$
