AV-unprocessed.smi:574|AV-procd|sdf|2976|dock3
  -GOLD-   2262023483D 1   1.00000     0.00000
 Structure written by MMmdl.
 39 40  0  0  0  0  0  0  0  0  2 V2000
  144.7214  135.8257  151.2503 C   0  0  0  0  0  0  0  0  0  0  0  0
  144.9692  136.4542  152.6175 C   0  0  0  0  0  0  0  0  0  0  0  0
  144.4548  135.9695  153.6250 O   0  0  0  0  0  0  0  0  0  0  0  0
  145.7670  137.5305  152.6373 N   0  0  0  0  0  0  0  0  0  0  0  0
  146.1804  138.2471  153.8400 C   0  0  0  0  0  0  0  0  0  0  0  0
  147.0723  139.4534  153.4928 C   0  0  0  0  0  0  0  0  0  0  0  0
  148.1271  139.5906  154.4945 N   0  5  0  0  0  0  0  0  0  0  0  0
  148.9988  140.6375  154.5622 C   0  0  0  0  0  0  0  0  0  0  0  0
  148.9792  141.7098  153.9483 O   0  0  0  0  0  0  0  0  0  0  0  0
  150.1323  140.3730  155.5269 C   0  0  0  0  0  0  0  0  0  0  0  0
  150.4485  141.3592  156.4042 N   0  0  0  0  0  0  0  0  0  0  0  0
  151.4306  141.1575  157.2869 C   0  0  0  0  0  0  0  0  0  0  0  0
  151.7284  142.2048  158.1685 N   0  0  0  0  0  0  0  0  0  0  0  0
  152.3354  141.9691  159.4801 C   0  0  0  0  0  0  0  0  0  0  0  0
  153.2377  143.1478  159.8826 C   0  0  0  0  0  0  0  0  0  0  0  0
  152.4952  144.3602  159.8385 O   0  0  0  0  0  0  0  0  0  0  0  0
  152.0199  144.6346  158.5262 C   0  0  0  0  0  0  0  0  0  0  0  0
  151.0737  143.5124  158.0682 C   0  0  0  0  0  0  0  0  0  0  0  0
  152.1456  140.0312  157.3877 N   0  0  0  0  0  0  0  0  0  0  0  0
  151.8563  139.0310  156.5294 C   0  0  0  0  0  0  0  0  0  0  0  0
  150.8428  139.1435  155.5577 C   0  0  0  0  0  0  0  0  0  0  0  0
  150.5546  137.8276  154.4707 Cl  0  0  0  0  0  0  0  0  0  0  0  0
  145.6265  135.3358  150.8902 H   0  0  0  0  0  0  0  0  0  0  0  0
  144.4281  136.5861  150.5258 H   0  0  0  0  0  0  0  0  0  0  0  0
  143.9268  135.0807  151.3039 H   0  0  0  0  0  0  0  0  0  0  0  0
  146.1623  137.8559  151.7664 H   0  0  0  0  0  0  0  0  0  0  0  0
  145.2958  138.5892  154.3791 H   0  0  0  0  0  0  0  0  0  0  0  0
  146.7125  137.5631  154.5035 H   0  0  0  0  0  0  0  0  0  0  0  0
  147.4705  139.3141  152.4865 H   0  0  0  0  0  0  0  0  0  0  0  0
  146.4524  140.3490  153.4439 H   0  0  0  0  0  0  0  0  0  0  0  0
  151.5382  141.8414  160.2131 H   0  0  0  0  0  0  0  0  0  0  0  0
  152.9315  141.0572  159.5011 H   0  0  0  0  0  0  0  0  0  0  0  0
  153.6158  143.0011  160.8944 H   0  0  0  0  0  0  0  0  0  0  0  0
  154.1062  143.2147  159.2253 H   0  0  0  0  0  0  0  0  0  0  0  0
  151.4921  145.5884  158.5321 H   0  0  0  0  0  0  0  0  0  0  0  0
  152.8591  144.7403  157.8367 H   0  0  0  0  0  0  0  0  0  0  0  0
  150.7527  143.7353  157.0507 H   0  0  0  0  0  0  0  0  0  0  0  0
  150.1760  143.5017  158.6873 H   0  0  0  0  0  0  0  0  0  0  0  0
  152.4464  138.1307  156.6162 H   0  0  0  0  0  0  0  0  0  0  0  0
  1  2  1  0  0  0  0
  1 23  1  0  0  0  0
  1 24  1  0  0  0  0
  1 25  1  0  0  0  0
  2  3  2  0  0  0  0
  2  4  1  0  0  0  0
  4  5  1  0  0  0  0
  4 26  1  0  0  0  0
  5  6  1  0  0  0  0
  5 27  1  0  0  0  0
  5 28  1  0  0  0  0
  6  7  1  0  0  0  0
  6 29  1  0  0  0  0
  6 30  1  0  0  0  0
  7  8  1  0  0  0  0
  8  9  2  0  0  0  0
  8 10  1  0  0  0  0
 10 21  1  0  0  0  0
 10 11  2  0  0  0  0
 11 12  1  0  0  0  0
 12 13  1  0  0  0  0
 12 19  2  0  0  0  0
 13 18  1  0  0  0  0
 13 14  1  0  0  0  0
 14 15  1  0  0  0  0
 14 31  1  0  0  0  0
 14 32  1  0  0  0  0
 15 16  1  0  0  0  0
 15 33  1  0  0  0  0
 15 34  1  0  0  0  0
 16 17  1  0  0  0  0
 17 18  1  0  0  0  0
 17 35  1  0  0  0  0
 17 36  1  0  0  0  0
 18 37  1  0  0  0  0
 18 38  1  0  0  0  0
 19 20  1  0  0  0  0
 20 21  2  0  0  0  0
 20 39  1  0  0  0  0
 21 22  1  0  0  0  0
M  CHG  1   7  -1
M  END
> <s_m_source_file>
AV-unprocessed.smi

> <i_m_source_file_index>
574

> <i_lp_mmshare_version>
43012

> <i_f3d_flags>
0

> <s_epik_input>
W0NIM11DKD1PKVtOSF1bQ0gyXVtDSDJdW05IXUMoPU8pYzFuYyhuW2NIXWMxQ2wpTjJbQ0gyXVtDSDJdT1tDSDJdW0NIMl0y

> <s_epik_cmdline>
J2VwaWtfcHl0aG9uJywgJy1waCcsICc3LjAnLCAnLXRuJywgJzgnLCAnLW1hJywgJzIwMCcsICctbWV0YWxfYmluZGluZycsICctaW1hZScsICc8aW5maWxlLm1hZT4nLCAnLW9tYWUnLCAnPG91dGZpbGUubWFlPic=

> <r_lp_tautomer_probability>
1

> <r_epik_Ionization_Penalty>
5.61005

> <r_epik_Ionization_Penalty_Charging>
5.61003

> <r_epik_Ionization_Penalty_Neutral>
1.98059e-05

> <r_epik_State_Penalty>
5.60999

> <r_epik_Charging_Adjusted_Penalty>
11.22

> <i_epik_Tot_Q>
-1

> <i_epik_Tot_abs_Q>
1

> <r_epik_Metal_State_Penalty>
1.60231

> <b_epik_Metal_Only>
1

> <s_lp_Force_Field>
OPLS_2005

> <r_lp_Energy>
13.7471

> <b_lp_Chiralities_Consistent>
1

> <s_lp_Variant>
AV-unprocessed.smi:574-2

> <Gold.Version>
5.8.1

> <Gold.Id.Protein>
6NUR|6NUR_protein|mol2

> <Gold.PLP.Fitness>
44.5751

> <Gold.PLP.PLP>
-43.6886

> <Gold.PLP.part.hbond>
-3.7536

> <Gold.PLP.part.metal>
0.0000

> <Gold.PLP.part.buried>
-4.2462

> <Gold.PLP.part.nonpolar>
-35.1686

> <Gold.PLP.part.repulsive>
0.5428

> <Gold.PLP.ligand.clash>
0.0000

> <Gold.PLP.ligand.torsion>
1.2526

> <Gold.PLP.Chemscore.Hbond>
1.0557

> <Gold.PLP.Chemscore.CHOScore>
0.0000

> <Gold.PLP.Chemscore.Metal>
0.0000

> <Gold.Chemscore.Hbonds>
donor molecule, donor type, donor heavy atom, donor atom, acceptor molecule, acceptor atom, score
      P1  H  7997  8010       L1    19  0.02
      P1  H  8011  8017       L1     9  0.59

> <Gold.PLP.Chemscore.Internal.Correction>
0.2244

> <Gold.Rescore>
     Score         DG    S(hbond)    S(metal)    S(lipo)     H(rot)  DE(clash)    DE(int)     intcor
     11.55     -13.82       0.64        0.00      89.57       1.67       0.02       2.24       ----

> <Gold.Chemscore.Fitness>
11.5549

> <Gold.Chemscore.DG>
-13.8194

> <Gold.Chemscore.ZeroCoef>
-5.4800

> <Gold.Chemscore.Hbond>
0.6400

> <Gold.Chemscore.Metal>
0.0000

> <Gold.Chemscore.Lipo>
89.5687

> <Gold.Chemscore.Internal_Hbond>
0.0000

> <Gold.Chemscore.DEClash>
0.0211

> <Gold.Chemscore.DEInternal>
2.2434

> <Gold.Chemscore.Rot>
1.6710

> <Gold.Chemscore.Internal.Correction>
   9.000000E+99

> <Gold.Chemscore.Hbonds>
donor molecule, donor type, donor heavy atom, donor atom, acceptor molecule, acceptor atom, score
      P1  H  7997  8010       L1    19  0.01
      P1  H  8011  8017       L1     9  0.58

> <Gold.Chemscore.Hbond.Weighted>
-2.1378

> <Gold.Chemscore.Metal.Weighted>
-0.0000

> <Gold.Chemscore.Lipo.Weighted>
-10.4795

> <Gold.Chemscore.Internal_Hbond.Weighted>
0.0000

> <Gold.Chemscore.DEClash.Weighted>
0.0211

> <Gold.Chemscore.DEInternal.Weighted>
2.2434

> <Gold.Chemscore.Rot.Weighted>
4.2779

> <Gold.Chemscore.Internal.Correction.Weighted>
   9.000000E+99

> <Gold.Protein.RotatedTorsions>
[ 6907 6896 6895 6894 ] final  156.00 input  -60.11 | X-H torsion
[ 7974 7965 7964 7962 ] final   17.59 input  175.53 | X-H torsion
[ 8008 7997 7996 7995 ] final   39.83 input   59.86 | X-H torsion
[ 10167 10162 10161 10158 ] final   13.62 input  -65.29 | X-H torsion
[ 10718 10713 10712 10709 ] final   34.62 input   66.30 | X-H torsion
[ 10763 10752 10751 10750 ] final   29.22 input  -60.55 | X-H torsion
[ 11005 11000 10999 10996 ] final   -7.77 input  -57.11 | X-H torsion

> <Gold.Protein.ActiveResidues>
 VAL166  LYS551  ARG553  GLY616  TRP617  ASP618  TYR619  PRO620  LYS621  CYS622 
 ASP623  PHE694  ASN695  SER759  ASP760  ASP761  ALA762  ILE779  LEU786  VAL792 
 PHE793  MET794  SER795  GLU796  ALA797  LYS798  CYS799  TRP800  GLU811  SER814 

> <Gold.Protein.RotatedAtoms>
  152.0360  133.3957  159.4316 H   0  0  0  0  0  0  0  0  0  0  0  0  # atno 6907 bound_to 6896
  150.6879  134.3468  159.4901 H   0  0  0  0  0  0  0  0  0  0  0  0  # atno 6908 bound_to 6896
  152.1260  134.9170  160.0611 H   0  0  0  0  0  0  0  0  0  0  0  0  # atno 6909 bound_to 6896
  146.2213  139.8580  142.8610 H   0  0  0  0  0  0  0  0  0  0  0  0  # atno 7974 bound_to 7965
  155.2431  140.3347  155.4290 H   0  0  0  0  0  0  0  0  0  0  0  0  # atno 8008 bound_to 7997
  156.2247  140.1824  156.7436 H   0  0  0  0  0  0  0  0  0  0  0  0  # atno 8009 bound_to 7997
  154.5880  140.0642  156.9184 H   0  0  0  0  0  0  0  0  0  0  0  0  # atno 8010 bound_to 7997
  140.5990  143.8643  150.6946 H   0  0  0  0  0  0  0  0  0  0  0  0  # atno 10167 bound_to 10162
  157.3126  130.7407  149.6734 H   0  0  0  0  0  0  0  0  0  0  0  0  # atno 10718 bound_to 10713
  153.0443  135.6494  154.0858 H   0  0  0  0  0  0  0  0  0  0  0  0  # atno 10763 bound_to 10752
  154.0559  135.2892  155.3334 H   0  0  0  0  0  0  0  0  0  0  0  0  # atno 10764 bound_to 10752
  154.6690  135.5363  153.8179 H   0  0  0  0  0  0  0  0  0  0  0  0  # atno 10765 bound_to 10752
  140.7163  133.8866  155.8787 H   0  0  0  0  0  0  0  0  0  0  0  0  # atno 11005 bound_to 11000
  145.2733  141.0115  143.3759 LP  0  0  0  0  0  0  0  0  0  0  0  0  # atno 17320 bound_to 7965
  144.9207  139.4416  143.6543 LP  0  0  0  0  0  0  0  0  0  0  0  0  # atno 17321 bound_to 7965
  140.2184  143.3828  152.1662 LP  0  0  0  0  0  0  0  0  0  0  0  0  # atno 17342 bound_to 10162
  139.5278  144.7123  151.5166 LP  0  0  0  0  0  0  0  0  0  0  0  0  # atno 17343 bound_to 10162
  155.9679  130.4247  150.4619 LP  0  0  0  0  0  0  0  0  0  0  0  0  # atno 17370 bound_to 10713
  157.2620  131.0569  151.2314 LP  0  0  0  0  0  0  0  0  0  0  0  0  # atno 17371 bound_to 10713
  141.0042  134.1109  157.4287 LP  0  0  0  0  0  0  0  0  0  0  0  0  # atno 17394 bound_to 11000
  139.8859  135.0076  156.6464 LP  0  0  0  0  0  0  0  0  0  0  0  0  # atno 17395 bound_to 11000

$$$$
