AV-unprocessed.smi:326|AV-procd|sdf|2344|dock5
  -GOLD-   2262022253D 1   1.00000     0.00000
 Structure written by MMmdl.
 44 45  0  0  0  0  0  0  0  0  1 V2000
  151.0069  134.6635  156.1916 C   0  0  0  0  0  0  0  0  0  0  0  0
  151.3067  135.7277  155.3065 O   0  0  0  0  0  0  0  0  0  0  0  0
  150.8852  136.9862  155.8049 C   0  0  0  0  0  0  0  0  0  0  0  0
  151.0330  138.0568  154.7115 C   0  0  0  0  0  0  0  0  0  0  0  0
  149.7833  138.7974  154.5041 N   0  0  0  0  0  0  0  0  0  0  0  0
  148.7027  137.9932  154.1809 N   0  0  0  0  0  0  0  0  0  0  0  0
  147.5357  138.5176  153.9878 C   0  0  0  0  0  0  0  0  0  0  0  0
  146.3494  137.6873  153.6406 C   0  0  0  0  0  0  0  0  0  0  0  0
  145.2293  137.9327  154.0916 O   0  0  0  0  0  0  0  0  0  0  0  0
  146.5908  136.6591  152.8072 N   0  0  0  0  0  0  0  0  0  0  0  0
  145.5929  135.7123  152.3193 C   0  0  2  0  0  0  0  0  0  0  0  0
  145.9911  134.2653  152.6736 C   0  0  0  0  0  0  0  0  0  0  0  0
  144.9859  133.2514  152.1037 C   0  0  0  0  0  0  0  0  0  0  0  0
  144.8182  133.4101  150.5803 C   0  0  1  0  0  0  0  0  0  0  0  0
  143.8062  132.4015  150.0185 C   0  0  0  0  0  0  0  0  0  0  0  0
  144.4228  134.8581  150.2318 C   0  0  0  0  0  0  0  0  0  0  0  0
  145.4313  135.8711  150.7968 C   0  0  0  0  0  0  0  0  0  0  0  0
  147.3363  139.9522  154.1037 C   0  0  0  0  0  0  0  0  0  0  0  0
  148.3990  140.7238  154.4206 C   0  0  0  0  0  0  0  0  0  0  0  0
  149.7292  140.1565  154.6469 C   0  0  0  0  0  0  0  0  0  0  0  0
  150.7091  140.8402  154.9411 O   0  0  0  0  0  0  0  0  0  0  0  0
  151.3437  133.7218  155.7584 H   0  0  0  0  0  0  0  0  0  0  0  0
  149.9334  134.5877  156.3692 H   0  0  0  0  0  0  0  0  0  0  0  0
  151.5128  134.7937  157.1491 H   0  0  0  0  0  0  0  0  0  0  0  0
  149.8400  136.9206  156.1099 H   0  0  0  0  0  0  0  0  0  0  0  0
  151.4634  137.2618  156.6884 H   0  0  0  0  0  0  0  0  0  0  0  0
  151.8639  138.7242  154.9463 H   0  0  0  0  0  0  0  0  0  0  0  0
  151.3141  137.5710  153.7757 H   0  0  0  0  0  0  0  0  0  0  0  0
  147.5387  136.5279  152.4843 H   0  0  0  0  0  0  0  0  0  0  0  0
  144.6330  135.9402  152.7871 H   0  0  0  0  0  0  0  0  0  0  0  0
  146.9860  134.0487  152.2819 H   0  0  0  0  0  0  0  0  0  0  0  0
  146.0536  134.1445  153.7557 H   0  0  0  0  0  0  0  0  0  0  0  0
  145.3169  132.2393  152.3395 H   0  0  0  0  0  0  0  0  0  0  0  0
  144.0216  133.3824  152.5967 H   0  0  0  0  0  0  0  0  0  0  0  0
  145.7821  133.2029  150.1129 H   0  0  0  0  0  0  0  0  0  0  0  0
  142.8124  132.5604  150.4385 H   0  0  0  0  0  0  0  0  0  0  0  0
  144.1040  131.3776  150.2461 H   0  0  0  0  0  0  0  0  0  0  0  0
  143.7269  132.4873  148.9343 H   0  0  0  0  0  0  0  0  0  0  0  0
  144.3545  134.9769  149.1498 H   0  0  0  0  0  0  0  0  0  0  0  0
  143.4302  135.0759  150.6290 H   0  0  0  0  0  0  0  0  0  0  0  0
  145.1049  136.8843  150.5587 H   0  0  0  0  0  0  0  0  0  0  0  0
  146.3953  135.7331  150.3044 H   0  0  0  0  0  0  0  0  0  0  0  0
  146.3656  140.3985  153.9429 H   0  0  0  0  0  0  0  0  0  0  0  0
  148.2649  141.7916  154.5108 H   0  0  0  0  0  0  0  0  0  0  0  0
  1  2  1  0  0  0  0
  1 22  1  0  0  0  0
  1 23  1  0  0  0  0
  1 24  1  0  0  0  0
  2  3  1  0  0  0  0
  3  4  1  0  0  0  0
  3 25  1  0  0  0  0
  3 26  1  0  0  0  0
  4  5  1  0  0  0  0
  4 27  1  0  0  0  0
  4 28  1  0  0  0  0
  5 20  1  0  0  0  0
  5  6  1  0  0  0  0
  6  7  2  0  0  0  0
  7  8  1  0  0  0  0
  7 18  1  0  0  0  0
  8  9  2  0  0  0  0
  8 10  1  0  0  0  0
 10 11  1  0  0  0  0
 10 29  1  0  0  0  0
 11 17  1  0  0  0  0
 11 12  1  0  0  0  0
 11 30  1  0  0  0  0
 12 13  1  0  0  0  0
 12 31  1  0  0  0  0
 12 32  1  0  0  0  0
 13 14  1  0  0  0  0
 13 33  1  0  0  0  0
 13 34  1  0  0  0  0
 14 15  1  0  0  0  0
 14 16  1  0  0  0  0
 14 35  1  0  0  0  0
 15 36  1  0  0  0  0
 15 37  1  0  0  0  0
 15 38  1  0  0  0  0
 16 17  1  0  0  0  0
 16 39  1  0  0  0  0
 16 40  1  0  0  0  0
 17 41  1  0  0  0  0
 17 42  1  0  0  0  0
 18 19  2  0  0  0  0
 18 43  1  0  0  0  0
 19 20  1  0  0  0  0
 19 44  1  0  0  0  0
 20 21  2  0  0  0  0
M  END
> <s_m_source_file>
AV-unprocessed.smi

> <i_m_source_file_index>
326

> <i_lp_mmshare_version>
43012

> <i_f3d_flags>
0

> <s_epik_input>
W0NIM11PW0NIMl1bQ0gyXW4xbmMoW2NIXVtjSF1jMT1PKUMoPU8pW05IXVtDQEBIXTJbQ0gyXVtDSDJdW0NAQEhdKFtDSDNdKVtDSDJdW0NIMl0y

> <s_epik_cmdline>
J2VwaWtfcHl0aG9uJywgJy1waCcsICc3LjAnLCAnLXRuJywgJzgnLCAnLW1hJywgJzIwMCcsICctbWV0YWxfYmluZGluZycsICctaW1hZScsICc8aW5maWxlLm1hZT4nLCAnLW9tYWUnLCAnPG91dGZpbGUubWFlPic=

> <r_lp_tautomer_probability>
1

> <r_epik_Ionization_Penalty>
6.47102e-07

> <r_epik_Ionization_Penalty_Charging>
6.8576e-09

> <r_epik_Ionization_Penalty_Neutral>
6.40245e-07

> <r_epik_State_Penalty>
-0

> <r_epik_Charging_Adjusted_Penalty>
6.8576e-09

> <i_epik_Tot_Q>
0

> <i_epik_Tot_abs_Q>
0

> <r_epik_Metal_State_Penalty>
-0

> <b_epik_Metal_Only>
0

> <s_lp_Force_Field>
OPLS_2005

> <r_lp_Energy>
29.5472

> <b_lp_Chiralities_Consistent>
1

> <s_lp_Variant>
AV-unprocessed.smi:326-1

> <Gold.Version>
5.8.1

> <Gold.Id.Protein>
6NUR|6NUR_protein|mol2

> <Gold.PLP.Fitness>
39.5226

> <Gold.PLP.PLP>
-32.9532

> <Gold.PLP.part.hbond>
-3.0000

> <Gold.PLP.part.metal>
0.0000

> <Gold.PLP.part.buried>
-4.1594

> <Gold.PLP.part.nonpolar>
-27.8118

> <Gold.PLP.part.repulsive>
1.8660

> <Gold.PLP.ligand.clash>
0.0000

> <Gold.PLP.ligand.torsion>
0.9785

> <Gold.PLP.Chemscore.Hbond>
2.8320

> <Gold.PLP.Chemscore.CHOScore>
0.0000

> <Gold.PLP.Chemscore.Metal>
0.0000

> <Gold.Chemscore.Hbonds>
donor molecule, donor type, donor heavy atom, donor atom, acceptor molecule, acceptor atom, score
      L1  H    10    29       P1  7948  1.00
      P1  H  7989  7998       L1    21  0.82
      P1  H 10752 10765       L1     2  1.00

> <Gold.PLP.Chemscore.Internal.Correction>
0.0304

> <Gold.Rescore>
     Score         DG    S(hbond)    S(metal)    S(lipo)     H(rot)  DE(clash)    DE(int)     intcor
     16.26     -18.57       2.47        0.00      75.33       1.55       1.34       0.97       ----

> <Gold.Chemscore.Fitness>
16.2604

> <Gold.Chemscore.DG>
-18.5674

> <Gold.Chemscore.ZeroCoef>
-5.4800

> <Gold.Chemscore.Hbond>
2.4659

> <Gold.Chemscore.Metal>
0.0000

> <Gold.Chemscore.Lipo>
75.3294

> <Gold.Chemscore.Internal_Hbond>
0.0000

> <Gold.Chemscore.DEClash>
1.3419

> <Gold.Chemscore.DEInternal>
0.9651

> <Gold.Chemscore.Rot>
1.5478

> <Gold.Chemscore.Internal.Correction>
   9.000000E+99

> <Gold.Chemscore.Hbonds>
donor molecule, donor type, donor heavy atom, donor atom, acceptor molecule, acceptor atom, score
      L1  H    10    29       P1  7948  0.97
      P1  H  7989  7998       L1    21  0.36
      P1  H 10752 10765       L1     2  0.76

> <Gold.Chemscore.Hbond.Weighted>
-8.2361

> <Gold.Chemscore.Metal.Weighted>
-0.0000

> <Gold.Chemscore.Lipo.Weighted>
-8.8135

> <Gold.Chemscore.Internal_Hbond.Weighted>
0.0000

> <Gold.Chemscore.DEClash.Weighted>
1.3419

> <Gold.Chemscore.DEInternal.Weighted>
0.9651

> <Gold.Chemscore.Rot.Weighted>
3.9623

> <Gold.Chemscore.Internal.Correction.Weighted>
   9.000000E+99

> <Gold.Protein.RotatedTorsions>
[ 6907 6896 6895 6894 ] final  143.30 input  -60.11 | X-H torsion
[ 7974 7965 7964 7962 ] final   59.77 input  175.53 | X-H torsion
[ 8008 7997 7996 7995 ] final -142.63 input   59.86 | X-H torsion
[ 10167 10162 10161 10158 ] final -103.50 input  -65.29 | X-H torsion
[ 10718 10713 10712 10709 ] final   10.83 input   66.30 | X-H torsion
[ 10763 10752 10751 10750 ] final -178.21 input  -60.55 | X-H torsion
[ 11005 11000 10999 10996 ] final  -18.09 input  -57.11 | X-H torsion

> <Gold.Protein.ActiveResidues>
 VAL166  LYS551  ARG553  GLY616  TRP617  ASP618  TYR619  PRO620  LYS621  CYS622 
 ASP623  PHE694  ASN695  SER759  ASP760  ASP761  ALA762  ILE779  LEU786  VAL792 
 PHE793  MET794  SER795  GLU796  ALA797  LYS798  CYS799  TRP800  GLU811  SER814 

> <Gold.Protein.RotatedAtoms>
  152.2080  133.4890  159.5094 H   0  0  0  0  0  0  0  0  0  0  0  0  # atno 6907 bound_to 6896
  150.6984  134.1504  159.4147 H   0  0  0  0  0  0  0  0  0  0  0  0  # atno 6908 bound_to 6896
  151.9423  135.0207  160.0587 H   0  0  0  0  0  0  0  0  0  0  0  0  # atno 6909 bound_to 6896
  145.9034  139.3599  143.0579 H   0  0  0  0  0  0  0  0  0  0  0  0  # atno 7974 bound_to 7965
  155.4974  140.0573  157.2944 H   0  0  0  0  0  0  0  0  0  0  0  0  # atno 8008 bound_to 7997
  154.4600  140.1991  156.0222 H   0  0  0  0  0  0  0  0  0  0  0  0  # atno 8009 bound_to 7997
  156.0872  140.3238  155.7773 H   0  0  0  0  0  0  0  0  0  0  0  0  # atno 8010 bound_to 7997
  140.2193  143.3687  152.0983 H   0  0  0  0  0  0  0  0  0  0  0  0  # atno 10167 bound_to 10162
  156.9867  130.6026  149.5682 H   0  0  0  0  0  0  0  0  0  0  0  0  # atno 10718 bound_to 10713
  154.5505  135.2812  155.1013 H   0  0  0  0  0  0  0  0  0  0  0  0  # atno 10763 bound_to 10752
  154.2460  135.6348  153.5227 H   0  0  0  0  0  0  0  0  0  0  0  0  # atno 10764 bound_to 10752
  153.0002  135.5571  154.6070 H   0  0  0  0  0  0  0  0  0  0  0  0  # atno 10765 bound_to 10752
  140.8233  133.8052  155.9682 H   0  0  0  0  0  0  0  0  0  0  0  0  # atno 11005 bound_to 11000
  145.8762  140.9390  143.0625 LP  0  0  0  0  0  0  0  0  0  0  0  0  # atno 17320 bound_to 7965
  144.6737  140.0720  143.7472 LP  0  0  0  0  0  0  0  0  0  0  0  0  # atno 17321 bound_to 7965
  139.5150  144.6956  151.5639 LP  0  0  0  0  0  0  0  0  0  0  0  0  # atno 17342 bound_to 10162
  140.6266  143.9156  150.6570 LP  0  0  0  0  0  0  0  0  0  0  0  0  # atno 17343 bound_to 10162
  156.0223  130.5317  150.8310 LP  0  0  0  0  0  0  0  0  0  0  0  0  # atno 17370 bound_to 10713
  157.5488  131.0943  150.9725 LP  0  0  0  0  0  0  0  0  0  0  0  0  # atno 17371 bound_to 10713
  140.9076  134.2301  157.5005 LP  0  0  0  0  0  0  0  0  0  0  0  0  # atno 17394 bound_to 11000
  139.8707  134.9735  156.4812 LP  0  0  0  0  0  0  0  0  0  0  0  0  # atno 17395 bound_to 11000

$$$$
