AV-unprocessed.smi:2592|AV-procd|sdf|10161|dock4
  -GOLD-   2272014173D 1   1.00000     0.00000
 Structure written by MMmdl.
 42 43  0  0  0  0  0  0  0  0  3 V2000
  151.2345  143.8129  158.3267 C   0  0  0  0  0  0  0  0  0  0  0  0
  151.2060  142.3662  157.9400 C   0  0  0  0  0  0  0  0  0  0  0  0
  150.7670  141.9994  156.6652 N   0  0  0  0  0  0  0  0  0  0  0  0
  150.8000  140.6814  156.4451 C   0  0  0  0  0  0  0  0  0  0  0  0
  150.4173  140.1213  155.2860 N   0  5  0  0  0  0  0  0  0  0  0  0
  149.2944  140.5494  154.6665 C   0  0  0  0  0  0  0  0  0  0  0  0
  149.0946  141.6782  154.2115 O   0  0  0  0  0  0  0  0  0  0  0  0
  148.3455  139.6082  154.5593 N   0  0  0  0  0  0  0  0  0  0  0  0
  147.0463  139.7753  153.9176 C   0  0  0  0  0  0  0  0  0  0  0  0
  146.7526  138.6269  152.9386 C   0  0  0  0  0  0  0  0  0  0  0  0
  146.4411  137.3060  153.6599 C   0  0  0  0  0  0  0  0  0  0  0  0
  146.3828  136.1546  152.7251 N   0  3  0  0  0  0  0  0  0  0  0  0
  146.1992  134.8627  153.4288 C   0  0  0  0  0  0  0  0  0  0  0  0
  146.1997  133.6968  152.4254 C   0  0  0  0  0  0  0  0  0  0  0  0
  145.1823  133.9032  151.4538 O   0  0  0  0  0  0  0  0  0  0  0  0
  145.3932  135.0960  150.7089 C   0  0  0  0  0  0  0  0  0  0  0  0
  145.3662  136.3087  151.6543 C   0  0  0  0  0  0  0  0  0  0  0  0
  151.3763  139.7938  157.8562 S   0  0  0  0  0  0  0  0  0  0  0  0
  151.5736  141.2965  158.7179 C   0  0  0  0  0  0  0  0  0  0  0  0
  152.0859  141.3165  160.1195 C   0  0  0  0  0  0  0  0  0  0  0  0
  150.4978  144.0255  159.1014 H   0  0  0  0  0  0  0  0  0  0  0  0
  151.0166  144.4621  157.4779 H   0  0  0  0  0  0  0  0  0  0  0  0
  152.2135  144.0968  158.7132 H   0  0  0  0  0  0  0  0  0  0  0  0
  148.5498  138.6999  154.9502 H   0  0  0  0  0  0  0  0  0  0  0  0
  146.2865  139.8038  154.6987 H   0  0  0  0  0  0  0  0  0  0  0  0
  147.0027  140.7385  153.4063 H   0  0  0  0  0  0  0  0  0  0  0  0
  145.9156  138.9100  152.3011 H   0  0  0  0  0  0  0  0  0  0  0  0
  147.6099  138.4874  152.2788 H   0  0  0  0  0  0  0  0  0  0  0  0
  147.2290  137.1283  154.3934 H   0  0  0  0  0  0  0  0  0  0  0  0
  145.5077  137.3801  154.2202 H   0  0  0  0  0  0  0  0  0  0  0  0
  146.9993  134.7185  154.1559 H   0  0  0  0  0  0  0  0  0  0  0  0
  145.2597  134.8789  153.9834 H   0  0  0  0  0  0  0  0  0  0  0  0
  147.1715  133.6008  151.9388 H   0  0  0  0  0  0  0  0  0  0  0  0
  146.0083  132.7562  152.9425 H   0  0  0  0  0  0  0  0  0  0  0  0
  146.3416  135.0418  150.1718 H   0  0  0  0  0  0  0  0  0  0  0  0
  144.6077  135.1871  149.9585 H   0  0  0  0  0  0  0  0  0  0  0  0
  144.3755  136.4105  152.1002 H   0  0  0  0  0  0  0  0  0  0  0  0
  145.5510  137.2141  151.0775 H   0  0  0  0  0  0  0  0  0  0  0  0
  153.1174  141.6680  160.1467 H   0  0  0  0  0  0  0  0  0  0  0  0
  152.0563  140.3217  160.5642 H   0  0  0  0  0  0  0  0  0  0  0  0
  151.4859  141.9797  160.7430 H   0  0  0  0  0  0  0  0  0  0  0  0
  147.2845  136.1056  152.2726 H   0  0  0  0  0  0  0  0  0  0  0  0
  1  2  1  0  0  0  0
  1 21  1  0  0  0  0
  1 22  1  0  0  0  0
  1 23  1  0  0  0  0
  2 19  2  0  0  0  0
  2  3  1  0  0  0  0
  3  4  2  0  0  0  0
  4  5  1  0  0  0  0
  4 18  1  0  0  0  0
  5  6  1  0  0  0  0
  6  7  2  0  0  0  0
  6  8  1  0  0  0  0
  8  9  1  0  0  0  0
  8 24  1  0  0  0  0
  9 10  1  0  0  0  0
  9 25  1  0  0  0  0
  9 26  1  0  0  0  0
 10 11  1  0  0  0  0
 10 27  1  0  0  0  0
 10 28  1  0  0  0  0
 11 12  1  0  0  0  0
 11 29  1  0  0  0  0
 11 30  1  0  0  0  0
 12 17  1  0  0  0  0
 12 13  1  0  0  0  0
 12 42  1  0  0  0  0
 13 14  1  0  0  0  0
 13 31  1  0  0  0  0
 13 32  1  0  0  0  0
 14 15  1  0  0  0  0
 14 33  1  0  0  0  0
 14 34  1  0  0  0  0
 15 16  1  0  0  0  0
 16 17  1  0  0  0  0
 16 35  1  0  0  0  0
 16 36  1  0  0  0  0
 17 37  1  0  0  0  0
 17 38  1  0  0  0  0
 18 19  1  0  0  0  0
 19 20  1  0  0  0  0
 20 39  1  0  0  0  0
 20 40  1  0  0  0  0
 20 41  1  0  0  0  0
M  CHG  1   5  -1
M  CHG  1  12   1
M  END
> <s_m_source_file>
AV-unprocessed.smi

> <i_m_source_file_index>
2592

> <i_lp_mmshare_version>
43012

> <i_f3d_flags>
0

> <s_epik_input>
W0NIM11jMW5jKHNjMVtDSDNdKVtOSF1DKD1PKVtOSF1bQ0gyXVtDSDJdW0NIMl1OMltDSDJdW0NIMl1PW0NIMl1bQ0gyXTI=

> <s_epik_cmdline>
J2VwaWtfcHl0aG9uJywgJy1waCcsICc3LjAnLCAnLXRuJywgJzgnLCAnLW1hJywgJzIwMCcsICctbWV0YWxfYmluZGluZycsICctaW1hZScsICc8aW5maWxlLm1hZT4nLCAnLW9tYWUnLCAnPG91dGZpbGUubWFlPic=

> <r_lp_tautomer_probability>
0.999

> <r_epik_Ionization_Penalty>
7.73516

> <r_epik_Ionization_Penalty_Charging>
6.31615

> <r_epik_Ionization_Penalty_Neutral>
1.41901

> <r_epik_State_Penalty>
6.31054

> <r_epik_Charging_Adjusted_Penalty>
12.6267

> <i_epik_Tot_Q>
0

> <i_epik_Tot_abs_Q>
2

> <r_epik_Metal_State_Penalty>
2.25864

> <b_epik_Metal_Only>
1

> <s_lp_Force_Field>
OPLS_2005

> <r_lp_Energy>
6.70997

> <b_lp_Chiralities_Consistent>
1

> <s_lp_Variant>
AV-unprocessed.smi:2592-3

> <Gold.Version>
5.8.1

> <Gold.Id.Protein>
6NUR|6NUR_protein|mol2

> <Gold.PLP.Fitness>
43.4042

> <Gold.PLP.PLP>
-34.9914

> <Gold.PLP.part.hbond>
-3.0659

> <Gold.PLP.part.metal>
0.0000

> <Gold.PLP.part.buried>
-5.7524

> <Gold.PLP.part.nonpolar>
-27.8758

> <Gold.PLP.part.repulsive>
0.5741

> <Gold.PLP.ligand.clash>
0.0000

> <Gold.PLP.ligand.torsion>
1.0743

> <Gold.PLP.Chemscore.Hbond>
3.4960

> <Gold.PLP.Chemscore.CHOScore>
0.0000

> <Gold.PLP.Chemscore.Metal>
0.0000

> <Gold.Chemscore.Hbonds>
donor molecule, donor type, donor heavy atom, donor atom, acceptor molecule, acceptor atom, score
      L1  H    12    42       P1  7948  2.00
      P1  H  7989  7998       L1     5  0.16
      P1  H  8011  8017       L1     7  0.41

> <Gold.PLP.Chemscore.Internal.Correction>
0.0734

> <Gold.Rescore>
     Score         DG    S(hbond)    S(metal)    S(lipo)     H(rot)  DE(clash)    DE(int)     intcor
     15.04     -16.39       1.91        0.00      76.11       1.72       0.06       1.29       ----

> <Gold.Chemscore.Fitness>
15.0410

> <Gold.Chemscore.DG>
-16.3878

> <Gold.Chemscore.ZeroCoef>
-5.4800

> <Gold.Chemscore.Hbond>
1.9145

> <Gold.Chemscore.Metal>
0.0000

> <Gold.Chemscore.Lipo>
76.1095

> <Gold.Chemscore.Internal_Hbond>
0.0000

> <Gold.Chemscore.DEClash>
0.0598

> <Gold.Chemscore.DEInternal>
1.2869

> <Gold.Chemscore.Rot>
1.7154

> <Gold.Chemscore.Internal.Correction>
   9.000000E+99

> <Gold.Chemscore.Hbonds>
donor molecule, donor type, donor heavy atom, donor atom, acceptor molecule, acceptor atom, score
      L1  H    12    42       P1  7948  1.00
      P1  H  7989  7998       L1     5  0.01
      P1  H  8011  8017       L1     7  0.42

> <Gold.Chemscore.Hbond.Weighted>
-6.3943

> <Gold.Chemscore.Metal.Weighted>
-0.0000

> <Gold.Chemscore.Lipo.Weighted>
-8.9048

> <Gold.Chemscore.Internal_Hbond.Weighted>
0.0000

> <Gold.Chemscore.DEClash.Weighted>
0.0598

> <Gold.Chemscore.DEInternal.Weighted>
1.2869

> <Gold.Chemscore.Rot.Weighted>
4.3914

> <Gold.Chemscore.Internal.Correction.Weighted>
   9.000000E+99

> <Gold.Protein.RotatedTorsions>
[ 6907 6896 6895 6894 ] final    7.90 input  -60.11 | X-H torsion
[ 7974 7965 7964 7962 ] final -143.05 input  175.53 | X-H torsion
[ 8008 7997 7996 7995 ] final   93.83 input   59.86 | X-H torsion
[ 10167 10162 10161 10158 ] final   73.94 input  -65.29 | X-H torsion
[ 10718 10713 10712 10709 ] final -105.40 input   66.30 | X-H torsion
[ 10763 10752 10751 10750 ] final   89.36 input  -60.55 | X-H torsion
[ 11005 11000 10999 10996 ] final   23.06 input  -57.11 | X-H torsion

> <Gold.Protein.ActiveResidues>
 VAL166  LYS551  ARG553  GLY616  TRP617  ASP618  TYR619  PRO620  LYS621  CYS622 
 ASP623  PHE694  ASN695  SER759  ASP760  ASP761  ALA762  ILE779  LEU786  VAL792 
 PHE793  MET794  SER795  GLU796  ALA797  LYS798  CYS799  TRP800  GLU811  SER814 

> <Gold.Protein.RotatedAtoms>
  151.6974  135.0936  160.0244 H   0  0  0  0  0  0  0  0  0  0  0  0  # atno 6907 bound_to 6896
  152.3741  133.6454  159.6118 H   0  0  0  0  0  0  0  0  0  0  0  0  # atno 6908 bound_to 6896
  150.7696  133.9138  159.3419 H   0  0  0  0  0  0  0  0  0  0  0  0  # atno 6909 bound_to 6896
  144.8398  140.5883  143.5460 H   0  0  0  0  0  0  0  0  0  0  0  0  # atno 7974 bound_to 7965
  156.0511  140.3308  155.7352 H   0  0  0  0  0  0  0  0  0  0  0  0  # atno 8008 bound_to 7997
  155.5599  140.0618  157.2848 H   0  0  0  0  0  0  0  0  0  0  0  0  # atno 8009 bound_to 7997
  154.4436  140.1879  156.0760 H   0  0  0  0  0  0  0  0  0  0  0  0  # atno 8010 bound_to 7997
  140.0191  144.5555  150.7596 H   0  0  0  0  0  0  0  0  0  0  0  0  # atno 10167 bound_to 10162
  156.0344  130.5562  150.7534 H   0  0  0  0  0  0  0  0  0  0  0  0  # atno 10718 bound_to 10713
  153.1862  135.4473  155.0092 H   0  0  0  0  0  0  0  0  0  0  0  0  # atno 10763 bound_to 10752
  154.8062  135.3275  154.7428 H   0  0  0  0  0  0  0  0  0  0  0  0  # atno 10764 bound_to 10752
  153.7886  135.6972  153.4930 H   0  0  0  0  0  0  0  0  0  0  0  0  # atno 10765 bound_to 10752
  140.3738  134.1994  155.7666 H   0  0  0  0  0  0  0  0  0  0  0  0  # atno 11005 bound_to 11000
  145.4718  139.1503  143.3810 LP  0  0  0  0  0  0  0  0  0  0  0  0  # atno 17320 bound_to 7965
  146.2692  140.4851  142.8821 LP  0  0  0  0  0  0  0  0  0  0  0  0  # atno 17321 bound_to 7965
  140.7350  143.2735  151.3813 LP  0  0  0  0  0  0  0  0  0  0  0  0  # atno 17342 bound_to 10162
  139.6152  144.1017  152.2338 LP  0  0  0  0  0  0  0  0  0  0  0  0  # atno 17343 bound_to 10162
  157.5072  131.0923  151.0242 LP  0  0  0  0  0  0  0  0  0  0  0  0  # atno 17370 bound_to 10713
  157.0607  130.5824  149.5385 LP  0  0  0  0  0  0  0  0  0  0  0  0  # atno 17371 bound_to 10713
  141.1946  133.8125  157.0750 LP  0  0  0  0  0  0  0  0  0  0  0  0  # atno 17394 bound_to 11000
  140.0531  134.9795  157.1172 LP  0  0  0  0  0  0  0  0  0  0  0  0  # atno 17395 bound_to 11000

$$$$
