AV-unprocessed.smi:3193|AV-procd|sdf|12206|dock6
  -GOLD-   2272018 43D 1   1.00000     0.00000
 Structure written by MMmdl.
 41 42  0  0  0  0  0  0  0  0  3 V2000
  149.7968  142.6975  158.6747 C   0  0  0  0  0  0  0  0  0  0  0  0
  151.1700  143.0796  158.0846 C   0  0  1  0  0  0  0  0  0  0  0  0
  151.7098  144.3870  158.7022 C   0  0  0  0  0  0  0  0  0  0  0  0
  152.1955  144.1947  160.1488 C   0  0  0  0  0  0  0  0  0  0  0  0
  153.2405  143.0733  160.2394 C   0  0  0  0  0  0  0  0  0  0  0  0
  152.7133  141.7610  159.6364 C   0  0  0  0  0  0  0  0  0  0  0  0
  152.2387  141.9575  158.1789 C   0  0  1  0  0  0  0  0  0  0  0  0
  151.7743  140.6391  157.5275 C   0  0  0  0  0  0  0  0  0  0  0  0
  151.3117  140.8493  156.1405 N   0  3  0  0  0  0  0  0  0  0  0  0
  149.8985  141.2634  156.0361 C   0  0  0  0  0  0  0  0  0  0  0  0
  149.2163  140.6105  154.8253 C   0  0  0  0  0  0  0  0  0  0  0  0
  147.7916  140.9449  154.7548 N   0  0  0  0  0  0  0  0  0  0  0  0
  147.1332  141.9277  155.4491 C   0  0  0  0  0  0  0  0  0  0  0  0
  145.8193  141.8670  155.0618 C   0  0  0  0  0  0  0  0  0  0  0  0
  145.7309  140.8501  154.1491 N   0  3  0  0  0  0  0  0  0  0  0  0
  146.9313  140.2908  153.9630 C   0  0  0  0  0  0  0  0  0  0  0  0
  149.8591  142.4377  159.7311 H   0  0  0  0  0  0  0  0  0  0  0  0
  149.3554  141.8502  158.1508 H   0  0  0  0  0  0  0  0  0  0  0  0
  149.0933  143.5255  158.5838 H   0  0  0  0  0  0  0  0  0  0  0  0
  151.0006  143.2798  157.0257 H   0  0  0  0  0  0  0  0  0  0  0  0
  152.5399  144.7531  158.0962 H   0  0  0  0  0  0  0  0  0  0  0  0
  150.9474  145.1658  158.6657 H   0  0  0  0  0  0  0  0  0  0  0  0
  152.6207  145.1266  160.5228 H   0  0  0  0  0  0  0  0  0  0  0  0
  151.3508  143.9643  160.7985 H   0  0  0  0  0  0  0  0  0  0  0  0
  154.1459  143.3778  159.7130 H   0  0  0  0  0  0  0  0  0  0  0  0
  153.5275  142.9169  161.2797 H   0  0  0  0  0  0  0  0  0  0  0  0
  153.5035  141.0111  159.6790 H   0  0  0  0  0  0  0  0  0  0  0  0
  151.8985  141.3762  160.2505 H   0  0  0  0  0  0  0  0  0  0  0  0
  153.0991  142.3066  157.6047 H   0  0  0  0  0  0  0  0  0  0  0  0
  152.5796  139.9033  157.5310 H   0  0  0  0  0  0  0  0  0  0  0  0
  150.9496  140.2153  158.1023 H   0  0  0  0  0  0  0  0  0  0  0  0
  151.8892  141.5626  155.7182 H   0  0  0  0  0  0  0  0  0  0  0  0
  149.3756  140.9894  156.9537 H   0  0  0  0  0  0  0  0  0  0  0  0
  149.8503  142.3498  155.9495 H   0  0  0  0  0  0  0  0  0  0  0  0
  149.6815  140.9416  153.8956 H   0  0  0  0  0  0  0  0  0  0  0  0
  149.3104  139.5240  154.8631 H   0  0  0  0  0  0  0  0  0  0  0  0
  147.6332  142.5821  156.1490 H   0  0  0  0  0  0  0  0  0  0  0  0
  144.9632  142.4555  155.3592 H   0  0  0  0  0  0  0  0  0  0  0  0
  147.1580  139.4721  153.3032 H   0  0  0  0  0  0  0  0  0  0  0  0
  151.4377  139.9877  155.6283 H   0  0  0  0  0  0  0  0  0  0  0  0
  144.8805  140.5628  153.6804 H   0  0  0  0  0  0  0  0  0  0  0  0
  1  2  1  0  0  0  0
  1 17  1  0  0  0  0
  1 18  1  0  0  0  0
  1 19  1  0  0  0  0
  2  7  1  0  0  0  0
  2  3  1  0  0  0  0
  2 20  1  0  0  0  0
  3  4  1  0  0  0  0
  3 21  1  0  0  0  0
  3 22  1  0  0  0  0
  4  5  1  0  0  0  0
  4 23  1  0  0  0  0
  4 24  1  0  0  0  0
  5  6  1  0  0  0  0
  5 25  1  0  0  0  0
  5 26  1  0  0  0  0
  6  7  1  0  0  0  0
  6 27  1  0  0  0  0
  6 28  1  0  0  0  0
  7  8  1  0  0  0  0
  7 29  1  0  0  0  0
  8  9  1  0  0  0  0
  8 30  1  0  0  0  0
  8 31  1  0  0  0  0
  9 10  1  0  0  0  0
  9 32  1  0  0  0  0
  9 40  1  0  0  0  0
 10 11  1  0  0  0  0
 10 33  1  0  0  0  0
 10 34  1  0  0  0  0
 11 12  1  0  0  0  0
 11 35  1  0  0  0  0
 11 36  1  0  0  0  0
 12 16  1  0  0  0  0
 12 13  1  0  0  0  0
 13 14  2  0  0  0  0
 13 37  1  0  0  0  0
 14 15  1  0  0  0  0
 14 38  1  0  0  0  0
 15 16  2  0  0  0  0
 15 41  1  0  0  0  0
 16 39  1  0  0  0  0
M  CHG  1   9   1
M  CHG  1  15   1
M  END
> <s_m_source_file>
AV-unprocessed.smi

> <i_m_source_file_index>
3193

> <i_lp_mmshare_version>
43012

> <i_f3d_flags>
0

> <s_epik_input>
W0NIM11bQ0BASF0xW0NIMl1bQ0gyXVtDSDJdW0NIMl1bQ0BIXTFbQ0gyXVtOSF1bQ0gyXVtDSDJdbjJbY0hdW2NIXW5bY0hdMg==

> <s_epik_cmdline>
J2VwaWtfcHl0aG9uJywgJy1waCcsICc3LjAnLCAnLXRuJywgJzgnLCAnLW1hJywgJzIwMCcsICctbWV0YWxfYmluZGluZycsICctaW1hZScsICc8aW5maWxlLm1hZT4nLCAnLW9tYWUnLCAnPG91dGZpbGUubWFlPic=

> <r_lp_tautomer_probability>
1

> <r_epik_Ionization_Penalty>
1.50262

> <r_epik_Ionization_Penalty_Charging>
0.00193432

> <r_epik_Ionization_Penalty_Neutral>
1.50068

> <r_epik_State_Penalty>
1.11854

> <r_epik_Charging_Adjusted_Penalty>
1.12048

> <i_epik_Tot_Q>
2

> <i_epik_Tot_abs_Q>
2

> <r_epik_Metal_State_Penalty>
5.11322

> <b_epik_Metal_Only>
0

> <s_lp_Force_Field>
OPLS_2005

> <r_lp_Energy>
27.2728

> <b_lp_Chiralities_Consistent>
1

> <s_lp_Variant>
AV-unprocessed.smi:3193-6

> <Gold.Version>
5.8.1

> <Gold.Id.Protein>
6NUR|6NUR_protein|mol2

> <Gold.PLP.Fitness>
48.3165

> <Gold.PLP.PLP>
-38.9980

> <Gold.PLP.part.hbond>
-1.0000

> <Gold.PLP.part.metal>
0.0000

> <Gold.PLP.part.buried>
-0.7818

> <Gold.PLP.part.nonpolar>
-37.1549

> <Gold.PLP.part.repulsive>
0.1775

> <Gold.PLP.ligand.clash>
0.0000

> <Gold.PLP.ligand.torsion>
0.5844

> <Gold.PLP.Chemscore.Hbond>
1.9840

> <Gold.PLP.Chemscore.CHOScore>
1.5031

> <Gold.PLP.Chemscore.Metal>
0.0000

> <Gold.Chemscore.Hbonds>
donor molecule, donor type, donor heavy atom, donor atom, acceptor molecule, acceptor atom, score
      L1  H    15    41       P1 10175  2.00
      L1  C    13    37       P1  8028  0.95

> <Gold.PLP.Chemscore.Internal.Correction>
0.0259

> <Gold.Rescore>
     Score         DG    S(hbond)    S(metal)    S(lipo)     H(rot)  DE(clash)    DE(int)     intcor
     15.21     -16.13       0.94        0.00     107.51       1.98       0.02       0.91       ----

> <Gold.Chemscore.Fitness>
15.2053

> <Gold.Chemscore.DG>
-16.1338

> <Gold.Chemscore.ZeroCoef>
-5.4800

> <Gold.Chemscore.Hbond>
0.9392

> <Gold.Chemscore.Metal>
0.0000

> <Gold.Chemscore.Lipo>
107.5135

> <Gold.Chemscore.Internal_Hbond>
0.0000

> <Gold.Chemscore.DEClash>
0.0156

> <Gold.Chemscore.DEInternal>
0.9129

> <Gold.Chemscore.Rot>
1.9774

> <Gold.Chemscore.Internal.Correction>
   9.000000E+99

> <Gold.Chemscore.Hbonds>
donor molecule, donor type, donor heavy atom, donor atom, acceptor molecule, acceptor atom, score
      L1  H    15    41       P1 10175  0.99

> <Gold.Chemscore.Hbond.Weighted>
-3.1369

> <Gold.Chemscore.Metal.Weighted>
-0.0000

> <Gold.Chemscore.Lipo.Weighted>
-12.5791

> <Gold.Chemscore.Internal_Hbond.Weighted>
0.0000

> <Gold.Chemscore.DEClash.Weighted>
0.0156

> <Gold.Chemscore.DEInternal.Weighted>
0.9129

> <Gold.Chemscore.Rot.Weighted>
5.0622

> <Gold.Chemscore.Internal.Correction.Weighted>
   9.000000E+99

> <Gold.Protein.RotatedTorsions>
[ 6907 6896 6895 6894 ] final    1.81 input  -60.11 | X-H torsion
[ 7974 7965 7964 7962 ] final -108.11 input  175.53 | X-H torsion
[ 8008 7997 7996 7995 ] final  -40.31 input   59.86 | X-H torsion
[ 10167 10162 10161 10158 ] final  -17.20 input  -65.29 | X-H torsion
[ 10718 10713 10712 10709 ] final   86.85 input   66.30 | X-H torsion
[ 10763 10752 10751 10750 ] final  -73.39 input  -60.55 | X-H torsion
[ 11005 11000 10999 10996 ] final  -76.20 input  -57.11 | X-H torsion

> <Gold.Protein.ActiveResidues>
 VAL166  LYS551  ARG553  GLY616  TRP617  ASP618  TYR619  PRO620  LYS621  CYS622 
 ASP623  PHE694  ASN695  SER759  ASP760  ASP761  ALA762  ILE779  LEU786  VAL792 
 PHE793  MET794  SER795  GLU796  ALA797  LYS798  CYS799  TRP800  GLU811  SER814 

> <Gold.Protein.RotatedAtoms>
  151.5987  135.1049  160.0055 H   0  0  0  0  0  0  0  0  0  0  0  0  # atno 6907 bound_to 6896
  152.4269  133.7206  159.6541 H   0  0  0  0  0  0  0  0  0  0  0  0  # atno 6908 bound_to 6896
  150.8158  133.8268  159.3183 H   0  0  0  0  0  0  0  0  0  0  0  0  # atno 6909 bound_to 6896
  145.1970  140.9040  143.3391 H   0  0  0  0  0  0  0  0  0  0  0  0  # atno 7974 bound_to 7965
  154.4013  140.1529  156.3006 H   0  0  0  0  0  0  0  0  0  0  0  0  # atno 8008 bound_to 7997
  155.8704  140.3449  155.5796 H   0  0  0  0  0  0  0  0  0  0  0  0  # atno 8009 bound_to 7997
  155.7780  140.0839  157.2064 H   0  0  0  0  0  0  0  0  0  0  0  0  # atno 8010 bound_to 7997
  140.7244  143.5039  150.9835 H   0  0  0  0  0  0  0  0  0  0  0  0  # atno 10167 bound_to 10162
  157.6933  131.0232  150.3034 H   0  0  0  0  0  0  0  0  0  0  0  0  # atno 10718 bound_to 10713
  154.4589  135.5899  153.6242 H   0  0  0  0  0  0  0  0  0  0  0  0  # atno 10763 bound_to 10752
  152.9821  135.6039  154.3512 H   0  0  0  0  0  0  0  0  0  0  0  0  # atno 10764 bound_to 10752
  154.3381  135.2842  155.2416 H   0  0  0  0  0  0  0  0  0  0  0  0  # atno 10765 bound_to 10752
  141.1652  133.6975  156.7633 H   0  0  0  0  0  0  0  0  0  0  0  0  # atno 11005 bound_to 11000
  144.9985  139.3621  143.6179 LP  0  0  0  0  0  0  0  0  0  0  0  0  # atno 17320 bound_to 7965
  146.3425  139.9198  142.8768 LP  0  0  0  0  0  0  0  0  0  0  0  0  # atno 17321 bound_to 7965
  139.8749  143.7145  152.3163 LP  0  0  0  0  0  0  0  0  0  0  0  0  # atno 17342 bound_to 10162
  139.7407  144.7560  151.0657 LP  0  0  0  0  0  0  0  0  0  0  0  0  # atno 17343 bound_to 10162
  156.3547  130.3837  149.7300 LP  0  0  0  0  0  0  0  0  0  0  0  0  # atno 17370 bound_to 10713
  156.4766  130.8022  151.3038 LP  0  0  0  0  0  0  0  0  0  0  0  0  # atno 17371 bound_to 10713
  140.2518  134.8535  157.3674 LP  0  0  0  0  0  0  0  0  0  0  0  0  # atno 17394 bound_to 11000
  140.1695  134.4626  155.7841 LP  0  0  0  0  0  0  0  0  0  0  0  0  # atno 17395 bound_to 11000

$$$$
