AV-unprocessed.smi:162|AV-procd|sdf|1378|dock2
  -GOLD-   2262019103D 1   1.00000     0.00000
 Structure written by MMmdl.
 54 57  0  0  0  0  0  0  0  0  1 V2000
  152.2621  138.8182  155.2661 C   0  0  0  0  0  0  0  0  0  0  0  0
  151.4883  139.9070  154.7964 O   0  0  0  0  0  0  0  0  0  0  0  0
  150.2303  140.0037  155.4445 C   0  0  0  0  0  0  0  0  0  0  0  0
  150.3587  140.9337  156.6619 C   0  0  2  0  0  0  0  0  0  0  0  0
  150.6111  142.3940  156.2974 C   0  0  0  0  0  0  0  0  0  0  0  0
  151.1166  142.9680  157.6239 C   0  0  2  0  0  0  0  0  0  0  0  0
  151.9753  144.0877  157.4622 O   0  0  0  0  0  0  0  0  0  0  0  0
  152.3999  144.6602  158.6884 C   0  0  0  0  0  0  0  0  0  0  0  0
  151.8711  141.7927  158.2639 C   0  0  0  0  0  0  0  0  0  0  0  0
  151.4889  140.5979  157.5200 N   0  0  0  0  0  0  0  0  0  0  0  0
  151.3835  139.4765  158.2642 C   0  0  0  0  0  0  0  0  0  0  0  0
  152.5355  138.9549  158.7514 N   0  0  0  0  0  0  0  0  0  0  0  0
  152.5044  137.8395  159.4868 C   0  0  0  0  0  0  0  0  0  0  0  0
  151.4494  137.1048  159.8464 N   0  0  0  0  0  0  0  0  0  0  0  0
  150.2885  137.6335  159.3629 C   0  0  0  0  0  0  0  0  0  0  0  0
  150.1638  138.8101  158.5720 C   0  0  0  0  0  0  0  0  0  0  0  0
  148.8258  139.0419  158.2757 N   0  0  0  0  0  0  0  0  0  0  0  0
  148.1971  138.0524  158.8492 C   0  0  0  0  0  0  0  0  0  0  0  0
  148.9982  137.1620  159.5283 N   0  0  0  0  0  0  0  0  0  0  0  0
  148.5669  135.9765  160.2532 C   0  0  0  0  0  0  0  0  0  0  0  0
  147.6562  136.2797  161.4683 C   0  0  0  0  0  0  0  0  0  0  0  0
  148.1877  137.4153  162.1296 O   0  0  0  0  0  0  0  0  0  0  0  0
  146.2263  136.6156  160.9988 C   0  0  0  0  0  0  0  0  0  0  0  0
  145.2488  136.7644  162.1784 C   0  0  0  0  0  0  0  0  0  0  0  0
  145.2663  135.5864  162.9753 O   0  0  0  0  0  0  0  0  0  0  0  0
  146.5361  135.3418  163.5677 C   0  0  0  0  0  0  0  0  0  0  0  0
  147.5960  135.1102  162.4758 C   0  0  0  0  0  0  0  0  0  0  0  0
  149.4313  140.8931  157.2334 H   0  0  0  0  0  0  0  0  0  0  0  0
  150.2681  143.2230  158.2617 H   0  0  0  0  0  0  0  0  0  0  0  0
  153.2122  138.7882  154.7329 H   0  0  0  0  0  0  0  0  0  0  0  0
  151.7505  137.8700  155.0968 H   0  0  0  0  0  0  0  0  0  0  0  0
  152.4761  138.9171  156.3311 H   0  0  0  0  0  0  0  0  0  0  0  0
  149.4619  140.3671  154.7601 H   0  0  0  0  0  0  0  0  0  0  0  0
  149.9296  139.0082  155.7754 H   0  0  0  0  0  0  0  0  0  0  0  0
  151.3889  142.4645  155.5353 H   0  0  0  0  0  0  0  0  0  0  0  0
  149.7194  142.8986  155.9248 H   0  0  0  0  0  0  0  0  0  0  0  0
  153.0731  145.4931  158.4861 H   0  0  0  0  0  0  0  0  0  0  0  0
  152.9390  143.9340  159.2981 H   0  0  0  0  0  0  0  0  0  0  0  0
  151.5583  145.0456  159.2643 H   0  0  0  0  0  0  0  0  0  0  0  0
  152.9483  141.9246  158.1566 H   0  0  0  0  0  0  0  0  0  0  0  0
  151.6531  141.7159  159.3303 H   0  0  0  0  0  0  0  0  0  0  0  0
  153.4625  137.4851  159.8371 H   0  0  0  0  0  0  0  0  0  0  0  0
  147.1231  137.9458  158.7968 H   0  0  0  0  0  0  0  0  0  0  0  0
  148.0581  135.3133  159.5521 H   0  0  0  0  0  0  0  0  0  0  0  0
  149.4586  135.4408  160.5815 H   0  0  0  0  0  0  0  0  0  0  0  0
  147.8763  137.4154  163.0219 H   0  0  0  0  0  0  0  0  0  0  0  0
  146.2242  137.5227  160.3931 H   0  0  0  0  0  0  0  0  0  0  0  0
  145.8630  135.8162  160.3513 H   0  0  0  0  0  0  0  0  0  0  0  0
  145.4955  137.6345  162.7887 H   0  0  0  0  0  0  0  0  0  0  0  0
  144.2362  136.9191  161.8053 H   0  0  0  0  0  0  0  0  0  0  0  0
  146.8145  136.1748  164.2151 H   0  0  0  0  0  0  0  0  0  0  0  0
  146.4607  134.4609  164.2052 H   0  0  0  0  0  0  0  0  0  0  0  0
  147.3502  134.1906  161.9432 H   0  0  0  0  0  0  0  0  0  0  0  0
  148.5688  134.9438  162.9402 H   0  0  0  0  0  0  0  0  0  0  0  0
  1  2  1  0  0  0  0
  1 30  1  0  0  0  0
  1 31  1  0  0  0  0
  1 32  1  0  0  0  0
  2  3  1  0  0  0  0
  3  4  1  0  0  0  0
  3 33  1  0  0  0  0
  3 34  1  0  0  0  0
  4 28  1  0  0  0  0
  4 10  1  0  0  0  0
  4  5  1  0  0  0  0
  5  6  1  0  0  0  0
  5 35  1  0  0  0  0
  5 36  1  0  0  0  0
  6 29  1  0  0  0  0
  6  7  1  0  0  0  0
  6  9  1  0  0  0  0
  7  8  1  0  0  0  0
  8 37  1  0  0  0  0
  8 38  1  0  0  0  0
  8 39  1  0  0  0  0
  9 10  1  0  0  0  0
  9 40  1  0  0  0  0
  9 41  1  0  0  0  0
 10 11  1  0  0  0  0
 11 16  1  0  0  0  0
 11 12  2  0  0  0  0
 12 13  1  0  0  0  0
 13 14  2  0  0  0  0
 13 42  1  0  0  0  0
 14 15  1  0  0  0  0
 15 19  1  0  0  0  0
 15 16  2  0  0  0  0
 16 17  1  0  0  0  0
 17 18  2  0  0  0  0
 18 19  1  0  0  0  0
 18 43  1  0  0  0  0
 19 20  1  0  0  0  0
 20 21  1  0  0  0  0
 20 44  1  0  0  0  0
 20 45  1  0  0  0  0
 21 27  1  0  0  0  0
 21 22  1  0  0  0  0
 21 23  1  0  0  0  0
 22 46  1  0  0  0  0
 23 24  1  0  0  0  0
 23 47  1  0  0  0  0
 23 48  1  0  0  0  0
 24 25  1  0  0  0  0
 24 49  1  0  0  0  0
 24 50  1  0  0  0  0
 25 26  1  0  0  0  0
 26 27  1  0  0  0  0
 26 51  1  0  0  0  0
 26 52  1  0  0  0  0
 27 53  1  0  0  0  0
 27 54  1  0  0  0  0
M  END
> <s_m_source_file>
AV-unprocessed.smi

> <i_m_source_file_index>
162

> <i_lp_mmshare_version>
43012

> <i_f3d_flags>
0

> <s_epik_input>
W0NIM11PW0NIMl1bQ0BASF0xW0NIMl1bQ0BASF0oT1tDSDNdKVtDSDJdTjFjKG5bY0hdbjIpYyhjMjMpbltjSF1uM1tDSDJdQzQoW09IXSlbQ0gyXVtDSDJdT1tDSDJdW0NIMl00

> <s_epik_cmdline>
J2VwaWtfcHl0aG9uJywgJy1waCcsICc3LjAnLCAnLXRuJywgJzgnLCAnLW1hJywgJzIwMCcsICctbWV0YWxfYmluZGluZycsICctaW1hZScsICc8aW5maWxlLm1hZT4nLCAnLW9tYWUnLCAnPG91dGZpbGUubWFlPic=

> <r_lp_tautomer_probability>
1

> <r_epik_Ionization_Penalty>
0.00660334

> <r_epik_Ionization_Penalty_Charging>
0

> <r_epik_Ionization_Penalty_Neutral>
0.00660334

> <r_epik_State_Penalty>
0.00469459

> <r_epik_Charging_Adjusted_Penalty>
0.00469459

> <i_epik_Tot_Q>
0

> <i_epik_Tot_abs_Q>
0

> <r_epik_Metal_State_Penalty>
-0

> <b_epik_Metal_Only>
0

> <s_lp_Force_Field>
OPLS_2005

> <r_lp_Energy>
44.4659

> <b_lp_Chiralities_Consistent>
1

> <s_lp_Variant>
AV-unprocessed.smi:162-3

> <Gold.Version>
5.8.1

> <Gold.Id.Protein>
6NUR|6NUR_protein|mol2

> <Gold.PLP.Fitness>
53.8657

> <Gold.PLP.PLP>
-44.2327

> <Gold.PLP.part.hbond>
-3.7942

> <Gold.PLP.part.metal>
0.0000

> <Gold.PLP.part.buried>
-5.0923

> <Gold.PLP.part.nonpolar>
-35.0541

> <Gold.PLP.part.repulsive>
0.1705

> <Gold.PLP.ligand.clash>
0.0000

> <Gold.PLP.ligand.torsion>
0.8522

> <Gold.PLP.Chemscore.Hbond>
3.7200

> <Gold.PLP.Chemscore.CHOScore>
0.0000

> <Gold.PLP.Chemscore.Metal>
0.0000

> <Gold.Chemscore.Hbonds>
donor molecule, donor type, donor heavy atom, donor atom, acceptor molecule, acceptor atom, score
      P1  H  6896  6909       L1    14  0.83
      P1  H  6931  6943       L1    22  0.18
      P1  H  6934  6947       L1    22  0.19
      P1  H  7989  7998       L1     2  1.00

> <Gold.PLP.Chemscore.Internal.Correction>
0.1773

> <Gold.Rescore>
     Score         DG    S(hbond)    S(metal)    S(lipo)     H(rot)  DE(clash)    DE(int)     intcor
     16.88     -19.52       3.12        0.00      93.58       2.86       0.51       2.13       ----

> <Gold.Chemscore.Fitness>
16.8849

> <Gold.Chemscore.DG>
-19.5237

> <Gold.Chemscore.ZeroCoef>
-5.4800

> <Gold.Chemscore.Hbond>
3.1221

> <Gold.Chemscore.Metal>
0.0000

> <Gold.Chemscore.Lipo>
93.5756

> <Gold.Chemscore.Internal_Hbond>
0.0000

> <Gold.Chemscore.DEClash>
0.5093

> <Gold.Chemscore.DEInternal>
2.1295

> <Gold.Chemscore.Rot>
2.8642

> <Gold.Chemscore.Internal.Correction>
   9.000000E+99

> <Gold.Chemscore.Hbonds>
donor molecule, donor type, donor heavy atom, donor atom, acceptor molecule, acceptor atom, score
      P1  H  6896  6909       L1    14  0.35
      P1  H  6931  6943       L1    22  0.15
      P1  H  6934  6947       L1    22  0.04
      P1  H  7989  7998       L1     2  0.89

> <Gold.Chemscore.Hbond.Weighted>
-10.4278

> <Gold.Chemscore.Metal.Weighted>
-0.0000

> <Gold.Chemscore.Lipo.Weighted>
-10.9483

> <Gold.Chemscore.Internal_Hbond.Weighted>
0.0000

> <Gold.Chemscore.DEClash.Weighted>
0.5093

> <Gold.Chemscore.DEInternal.Weighted>
2.1295

> <Gold.Chemscore.Rot.Weighted>
7.3324

> <Gold.Chemscore.Internal.Correction.Weighted>
   9.000000E+99

> <Gold.Protein.RotatedTorsions>
[ 6907 6896 6895 6894 ] final   89.87 input  -60.11 | X-H torsion
[ 7974 7965 7964 7962 ] final  -25.50 input  175.53 | X-H torsion
[ 8008 7997 7996 7995 ] final  151.89 input   59.86 | X-H torsion
[ 10167 10162 10161 10158 ] final   91.51 input  -65.29 | X-H torsion
[ 10718 10713 10712 10709 ] final   98.67 input   66.30 | X-H torsion
[ 10763 10752 10751 10750 ] final   23.97 input  -60.55 | X-H torsion
[ 11005 11000 10999 10996 ] final   70.44 input  -57.11 | X-H torsion

> <Gold.Protein.ActiveResidues>
 VAL166  LYS551  ARG553  GLY616  TRP617  ASP618  TYR619  PRO620  LYS621  CYS622 
 ASP623  PHE694  ASN695  SER759  ASP760  ASP761  ALA762  ILE779  LEU786  VAL792 
 PHE793  MET794  SER795  GLU796  ALA797  LYS798  CYS799  TRP800  GLU811  SER814 

> <Gold.Protein.RotatedAtoms>
  152.5440  134.1900  159.8669 H   0  0  0  0  0  0  0  0  0  0  0  0  # atno 6907 bound_to 6896
  151.1896  133.4668  159.2602 H   0  0  0  0  0  0  0  0  0  0  0  0  # atno 6908 bound_to 6896
  151.1097  135.0031  159.8543 H   0  0  0  0  0  0  0  0  0  0  0  0  # atno 6909 bound_to 6896
  146.1487  140.4894  142.8620 H   0  0  0  0  0  0  0  0  0  0  0  0  # atno 7974 bound_to 7965
  156.2654  140.2035  156.6247 H   0  0  0  0  0  0  0  0  0  0  0  0  # atno 8008 bound_to 7997
  154.6730  140.0548  157.0209 H   0  0  0  0  0  0  0  0  0  0  0  0  # atno 8009 bound_to 7997
  155.1110  140.3215  155.4524 H   0  0  0  0  0  0  0  0  0  0  0  0  # atno 8010 bound_to 7997
  139.8367  144.6661  150.9333 H   0  0  0  0  0  0  0  0  0  0  0  0  # atno 10167 bound_to 10162
  157.6891  131.0647  150.4831 H   0  0  0  0  0  0  0  0  0  0  0  0  # atno 10718 bound_to 10713
  153.0798  135.6615  154.0069 H   0  0  0  0  0  0  0  0  0  0  0  0  # atno 10763 bound_to 10752
  153.9693  135.2966  155.3430 H   0  0  0  0  0  0  0  0  0  0  0  0  # atno 10764 bound_to 10752
  154.7195  135.5171  153.8861 H   0  0  0  0  0  0  0  0  0  0  0  0  # atno 10765 bound_to 10752
  139.9598  134.7081  156.0672 H   0  0  0  0  0  0  0  0  0  0  0  0  # atno 11005 bound_to 11000
  144.7877  140.5970  143.6562 LP  0  0  0  0  0  0  0  0  0  0  0  0  # atno 17320 bound_to 7965
  145.4876  139.1491  143.3727 LP  0  0  0  0  0  0  0  0  0  0  0  0  # atno 17321 bound_to 7965
  140.7802  143.3950  151.1245 LP  0  0  0  0  0  0  0  0  0  0  0  0  # atno 17342 bound_to 10162
  139.7599  143.8651  152.3098 LP  0  0  0  0  0  0  0  0  0  0  0  0  # atno 17343 bound_to 10162
  156.5162  130.4151  149.6275 LP  0  0  0  0  0  0  0  0  0  0  0  0  # atno 17370 bound_to 10713
  156.3196  130.7273  151.2182 LP  0  0  0  0  0  0  0  0  0  0  0  0  # atno 17371 bound_to 10713
  141.1274  133.6595  156.3372 LP  0  0  0  0  0  0  0  0  0  0  0  0  # atno 17394 bound_to 11000
  140.5527  134.6012  157.5412 LP  0  0  0  0  0  0  0  0  0  0  0  0  # atno 17395 bound_to 11000

$$$$
