AV-unprocessed.smi:1823|AV-procd|sdf|7391|dock2
  -GOLD-   22720 9 63D 1   1.00000     0.00000
 Structure written by MMmdl.
 43 44  0  0  0  0  0  0  0  0  1 V2000
  146.6772  145.7817  160.3135 C   0  0  0  0  0  0  0  0  0  0  0  0
  146.5682  144.3773  159.8275 C   0  0  0  0  0  0  0  0  0  0  0  0
  146.9698  143.3601  160.5795 N   0  0  0  0  0  0  0  0  0  0  0  0
  146.6905  142.2404  159.7833 O   0  0  0  0  0  0  0  0  0  0  0  0
  146.1612  142.7262  158.6340 C   0  0  0  0  0  0  0  0  0  0  0  0
  145.6854  141.7633  157.5934 C   0  0  0  0  0  0  0  0  0  0  0  0
  146.2082  142.0596  156.1739 C   0  0  0  0  0  0  0  0  0  0  0  0
  147.6458  142.3209  156.1490 N   0  0  0  0  0  0  0  0  0  0  0  0
  148.5928  141.4243  155.8294 C   0  0  0  0  0  0  0  0  0  0  0  0
  148.3403  140.2734  155.4706 O   0  0  0  0  0  0  0  0  0  0  0  0
  150.0507  141.8881  155.9665 C   0  0  2  0  0  0  0  0  0  0  0  0
  151.0448  140.7765  155.5767 C   0  0  0  0  0  0  0  0  0  0  0  0
  151.7043  140.3969  156.8920 C   0  0  0  0  0  0  0  0  0  0  0  0
  152.4701  139.4402  157.0000 O   0  0  0  0  0  0  0  0  0  0  0  0
  151.3257  141.2210  157.8761 N   0  0  0  0  0  0  0  0  0  0  0  0
  151.6808  141.1143  159.2914 C   0  0  0  0  0  0  0  0  0  0  0  0
  152.8194  142.0733  159.7050 C   0  0  0  0  0  0  0  0  0  0  0  0
  153.4470  141.7243  161.0657 C   0  0  0  0  0  0  0  0  0  0  0  0
  152.3233  143.5267  159.7016 C   0  0  0  0  0  0  0  0  0  0  0  0
  150.4038  142.2503  157.4251 C   0  0  0  0  0  0  0  0  0  0  0  0
  146.0571  144.0524  158.6082 N   0  0  0  0  0  0  0  0  0  0  0  0
  147.7183  146.0301  160.5209 H   0  0  0  0  0  0  0  0  0  0  0  0
  146.0992  145.9102  161.2290 H   0  0  0  0  0  0  0  0  0  0  0  0
  146.2983  146.4796  159.5662 H   0  0  0  0  0  0  0  0  0  0  0  0
  145.9834  140.7577  157.8909 H   0  0  0  0  0  0  0  0  0  0  0  0
  144.5948  141.7712  157.5918 H   0  0  0  0  0  0  0  0  0  0  0  0
  145.9574  141.2339  155.5058 H   0  0  0  0  0  0  0  0  0  0  0  0
  145.6974  142.9357  155.7743 H   0  0  0  0  0  0  0  0  0  0  0  0
  147.9454  143.2425  156.4327 H   0  0  0  0  0  0  0  0  0  0  0  0
  150.2078  142.7589  155.3276 H   0  0  0  0  0  0  0  0  0  0  0  0
  150.5741  139.9048  155.1187 H   0  0  0  0  0  0  0  0  0  0  0  0
  151.8018  141.1508  154.8870 H   0  0  0  0  0  0  0  0  0  0  0  0
  150.7905  141.3232  159.8863 H   0  0  0  0  0  0  0  0  0  0  0  0
  151.9566  140.0848  159.5268 H   0  0  0  0  0  0  0  0  0  0  0  0
  153.6066  142.0007  158.9531 H   0  0  0  0  0  0  0  0  0  0  0  0
  152.6963  141.7124  161.8565 H   0  0  0  0  0  0  0  0  0  0  0  0
  154.2107  142.4516  161.3428 H   0  0  0  0  0  0  0  0  0  0  0  0
  153.9300  140.7474  161.0471 H   0  0  0  0  0  0  0  0  0  0  0  0
  151.5265  143.6745  160.4314 H   0  0  0  0  0  0  0  0  0  0  0  0
  151.9340  143.8077  158.7225 H   0  0  0  0  0  0  0  0  0  0  0  0
  153.1297  144.2194  159.9443 H   0  0  0  0  0  0  0  0  0  0  0  0
  150.8977  143.2216  157.4732 H   0  0  0  0  0  0  0  0  0  0  0  0
  149.5293  142.2957  158.0767 H   0  0  0  0  0  0  0  0  0  0  0  0
  1  2  1  0  0  0  0
  1 22  1  0  0  0  0
  1 23  1  0  0  0  0
  1 24  1  0  0  0  0
  2 21  1  0  0  0  0
  2  3  2  0  0  0  0
  3  4  1  0  0  0  0
  4  5  1  0  0  0  0
  5  6  1  0  0  0  0
  5 21  2  0  0  0  0
  6  7  1  0  0  0  0
  6 25  1  0  0  0  0
  6 26  1  0  0  0  0
  7  8  1  0  0  0  0
  7 27  1  0  0  0  0
  7 28  1  0  0  0  0
  8  9  1  0  0  0  0
  8 29  1  0  0  0  0
  9 10  2  0  0  0  0
  9 11  1  0  0  0  0
 11 20  1  0  0  0  0
 11 12  1  0  0  0  0
 11 30  1  0  0  0  0
 12 13  1  0  0  0  0
 12 31  1  0  0  0  0
 12 32  1  0  0  0  0
 13 14  2  0  0  0  0
 13 15  1  0  0  0  0
 15 16  1  0  0  0  0
 15 20  1  0  0  0  0
 16 17  1  0  0  0  0
 16 33  1  0  0  0  0
 16 34  1  0  0  0  0
 17 18  1  0  0  0  0
 17 19  1  0  0  0  0
 17 35  1  0  0  0  0
 18 36  1  0  0  0  0
 18 37  1  0  0  0  0
 18 38  1  0  0  0  0
 19 39  1  0  0  0  0
 19 40  1  0  0  0  0
 19 41  1  0  0  0  0
 20 42  1  0  0  0  0
 20 43  1  0  0  0  0
M  END
> <s_m_source_file>
AV-unprocessed.smi

> <i_m_source_file_index>
1823

> <i_lp_mmshare_version>
43012

> <i_f3d_flags>
0

> <s_epik_input>
W0NIM11jMW5vYyhuMSlbQ0gyXVtDSDJdW05IXUMoPU8pW0NAQEhdMltDSDJdQyg9TylOKFtDSDJdMilbQ0gyXVtDSF0oW0NIM10pW0NIM10=

> <s_epik_cmdline>
J2VwaWtfcHl0aG9uJywgJy1waCcsICc3LjAnLCAnLXRuJywgJzgnLCAnLW1hJywgJzIwMCcsICctbWV0YWxfYmluZGluZycsICctaW1hZScsICc8aW5maWxlLm1hZT4nLCAnLW9tYWUnLCAnPG91dGZpbGUubWFlPic=

> <r_lp_tautomer_probability>
1

> <r_epik_Ionization_Penalty>
3.64678e-08

> <r_epik_Ionization_Penalty_Charging>
0

> <r_epik_Ionization_Penalty_Neutral>
3.64678e-08

> <r_epik_State_Penalty>
-0

> <r_epik_Charging_Adjusted_Penalty>
0

> <i_epik_Tot_Q>
0

> <i_epik_Tot_abs_Q>
0

> <r_epik_Metal_State_Penalty>
-0

> <b_epik_Metal_Only>
0

> <s_lp_Force_Field>
OPLS_2005

> <r_lp_Energy>
11.1624

> <b_lp_Chiralities_Consistent>
1

> <s_lp_Variant>
AV-unprocessed.smi:1823-1

> <Gold.Version>
5.8.1

> <Gold.Id.Protein>
6NUR|6NUR_protein|mol2

> <Gold.PLP.Fitness>
43.8040

> <Gold.PLP.PLP>
-34.9079

> <Gold.PLP.part.hbond>
-5.3082

> <Gold.PLP.part.metal>
0.0000

> <Gold.PLP.part.buried>
-1.9291

> <Gold.PLP.part.nonpolar>
-28.5531

> <Gold.PLP.part.repulsive>
1.3088

> <Gold.PLP.ligand.clash>
0.0000

> <Gold.PLP.ligand.torsion>
0.6619

> <Gold.PLP.Chemscore.Hbond>
3.3620

> <Gold.PLP.Chemscore.CHOScore>
0.0000

> <Gold.PLP.Chemscore.Metal>
0.0000

> <Gold.Chemscore.Hbonds>
donor molecule, donor type, donor heavy atom, donor atom, acceptor molecule, acceptor atom, score
      L1  H     8    29       P1  8028  0.65
      P1  H  6933  6944       L1     3  0.50
      P1  H  6934  6946       L1     4  1.00
      P1  H  7997  8009       L1    14  0.98

> <Gold.PLP.Chemscore.Internal.Correction>
0.1339

> <Gold.Rescore>
     Score         DG    S(hbond)    S(metal)    S(lipo)     H(rot)  DE(clash)    DE(int)     intcor
     14.33     -15.09       2.20        0.00      71.68       2.40       0.07       0.68       ----

> <Gold.Chemscore.Fitness>
14.3299

> <Gold.Chemscore.DG>
-15.0860

> <Gold.Chemscore.ZeroCoef>
-5.4800

> <Gold.Chemscore.Hbond>
2.2011

> <Gold.Chemscore.Metal>
0.0000

> <Gold.Chemscore.Lipo>
71.6837

> <Gold.Chemscore.Internal_Hbond>
0.0000

> <Gold.Chemscore.DEClash>
0.0716

> <Gold.Chemscore.DEInternal>
0.6844

> <Gold.Chemscore.Rot>
2.3957

> <Gold.Chemscore.Internal.Correction>
   9.000000E+99

> <Gold.Chemscore.Hbonds>
donor molecule, donor type, donor heavy atom, donor atom, acceptor molecule, acceptor atom, score
      L1  H     8    29       P1  8028  0.11
      P1  H  6933  6944       L1     3  0.02
      P1  H  6934  6946       L1     4  0.63
      P1  H  7997  8009       L1    14  0.64

> <Gold.Chemscore.Hbond.Weighted>
-7.3518

> <Gold.Chemscore.Metal.Weighted>
-0.0000

> <Gold.Chemscore.Lipo.Weighted>
-8.3870

> <Gold.Chemscore.Internal_Hbond.Weighted>
0.0000

> <Gold.Chemscore.DEClash.Weighted>
0.0716

> <Gold.Chemscore.DEInternal.Weighted>
0.6844

> <Gold.Chemscore.Rot.Weighted>
6.1329

> <Gold.Chemscore.Internal.Correction.Weighted>
   9.000000E+99

> <Gold.Protein.RotatedTorsions>
[ 6907 6896 6895 6894 ] final -116.48 input  -60.11 | X-H torsion
[ 7974 7965 7964 7962 ] final   12.34 input  175.53 | X-H torsion
[ 8008 7997 7996 7995 ] final  178.68 input   59.86 | X-H torsion
[ 10167 10162 10161 10158 ] final -124.37 input  -65.29 | X-H torsion
[ 10718 10713 10712 10709 ] final  107.00 input   66.30 | X-H torsion
[ 10763 10752 10751 10750 ] final -129.91 input  -60.55 | X-H torsion
[ 11005 11000 10999 10996 ] final -101.76 input  -57.11 | X-H torsion

> <Gold.Protein.ActiveResidues>
 VAL166  LYS551  ARG553  GLY616  TRP617  ASP618  TYR619  PRO620  LYS621  CYS622 
 ASP623  PHE694  ASN695  SER759  ASP760  ASP761  ALA762  ILE779  LEU786  VAL792 
 PHE793  MET794  SER795  GLU796  ALA797  LYS798  CYS799  TRP800  GLU811  SER814 

> <Gold.Protein.RotatedAtoms>
  150.8060  133.8510  159.3205 H   0  0  0  0  0  0  0  0  0  0  0  0  # atno 6907 bound_to 6896
  151.6309  135.1021  160.0131 H   0  0  0  0  0  0  0  0  0  0  0  0  # atno 6908 bound_to 6896
  152.4150  133.6984  159.6466 H   0  0  0  0  0  0  0  0  0  0  0  0  # atno 6909 bound_to 6896
  146.2353  139.9350  142.8491 H   0  0  0  0  0  0  0  0  0  0  0  0  # atno 7974 bound_to 7965
  156.0520  140.1327  157.0040 H   0  0  0  0  0  0  0  0  0  0  0  0  # atno 8008 bound_to 7997
  154.4439  140.1009  156.6460 H   0  0  0  0  0  0  0  0  0  0  0  0  # atno 8009 bound_to 7997
  155.5509  140.3463  155.4470 H   0  0  0  0  0  0  0  0  0  0  0  0  # atno 8010 bound_to 7997
  139.9935  143.5616  152.2332 H   0  0  0  0  0  0  0  0  0  0  0  0  # atno 10167 bound_to 10162
  157.6646  131.0863  150.6092 H   0  0  0  0  0  0  0  0  0  0  0  0  # atno 10718 bound_to 10713
  154.8757  135.3880  154.3997 H   0  0  0  0  0  0  0  0  0  0  0  0  # atno 10763 bound_to 10752
  153.4723  135.7030  153.5991 H   0  0  0  0  0  0  0  0  0  0  0  0  # atno 10764 bound_to 10752
  153.4443  135.3849  155.2214 H   0  0  0  0  0  0  0  0  0  0  0  0  # atno 10765 bound_to 10752
  141.1218  133.8503  157.1273 H   0  0  0  0  0  0  0  0  0  0  0  0  # atno 11005 bound_to 11000
  145.2007  140.9853  143.4157 LP  0  0  0  0  0  0  0  0  0  0  0  0  # atno 17320 bound_to 7965
  144.9776  139.3816  143.6278 LP  0  0  0  0  0  0  0  0  0  0  0  0  # atno 17321 bound_to 7965
  139.6323  144.7646  151.2511 LP  0  0  0  0  0  0  0  0  0  0  0  0  # atno 17342 bound_to 10162
  140.7446  143.6459  150.8293 LP  0  0  0  0  0  0  0  0  0  0  0  0  # atno 17343 bound_to 10162
  156.6393  130.4454  149.5758 LP  0  0  0  0  0  0  0  0  0  0  0  0  # atno 17370 bound_to 10713
  156.2222  130.6744  151.1379 LP  0  0  0  0  0  0  0  0  0  0  0  0  # atno 17371 bound_to 10713
  140.0181  134.9958  157.0535 LP  0  0  0  0  0  0  0  0  0  0  0  0  # atno 17394 bound_to 11000
  140.4486  134.1606  155.7179 LP  0  0  0  0  0  0  0  0  0  0  0  0  # atno 17395 bound_to 11000

$$$$
