AV-unprocessed.smi:3160|AV-procd|sdf|12051|dock2
  -GOLD-   2272017473D 1   1.00000     0.00000
 Structure written by MMmdl.
 40 41  0  0  0  0  0  0  0  0  2 V2000
  150.1598  135.7160  155.1522 C   0  0  0  0  0  0  0  0  0  0  0  0
  150.2017  137.2111  155.0207 C   0  0  0  0  0  0  0  0  0  0  0  0
  150.9692  137.9878  154.1074 C   0  0  0  0  0  0  0  0  0  0  0  0
  150.7766  139.2888  154.2507 N   0  0  0  0  0  0  0  0  0  0  0  0
  149.8834  139.3917  155.2580 N   0  0  0  0  0  0  0  0  0  0  0  0
  149.4278  140.7072  155.6891 C   0  0  2  0  0  0  0  0  0  0  0  0
  148.8055  141.4567  154.4969 C   0  0  0  0  0  0  0  0  0  0  0  0
  150.5585  141.5090  156.3861 C   0  0  2  0  0  0  0  0  0  0  0  0
  151.5098  140.6248  157.2132 C   0  0  0  0  0  0  0  0  0  0  0  0
  149.9822  142.5456  157.2731 N   0  3  0  0  0  0  0  0  0  0  0  0
  150.9194  143.1363  158.2531 C   0  0  0  0  0  0  0  0  0  0  0  0
  150.2362  144.0737  159.2522 C   0  0  0  0  0  0  0  0  0  0  0  0
  151.3637  144.9693  159.7789 C   0  0  0  0  0  0  0  0  0  0  0  0
  152.4740  144.9354  158.7158 C   0  0  0  0  0  0  0  0  0  0  0  0
  151.9585  144.0371  157.5862 C   0  0  0  0  0  0  0  0  0  0  0  0
  149.5182  138.1502  155.7393 C   0  0  0  0  0  0  0  0  0  0  0  0
  151.0397  135.2463  154.7118 H   0  0  0  0  0  0  0  0  0  0  0  0
  149.2865  135.2933  154.6552 H   0  0  0  0  0  0  0  0  0  0  0  0
  150.1194  135.4041  156.1960 H   0  0  0  0  0  0  0  0  0  0  0  0
  151.6567  137.6454  153.3481 H   0  0  0  0  0  0  0  0  0  0  0  0
  148.6334  140.5495  156.4217 H   0  0  0  0  0  0  0  0  0  0  0  0
  148.3383  142.3903  154.8097 H   0  0  0  0  0  0  0  0  0  0  0  0
  148.0312  140.8552  154.0193 H   0  0  0  0  0  0  0  0  0  0  0  0
  149.5529  141.6959  153.7399 H   0  0  0  0  0  0  0  0  0  0  0  0
  151.1631  141.9886  155.6148 H   0  0  0  0  0  0  0  0  0  0  0  0
  152.0466  139.9103  156.5890 H   0  0  0  0  0  0  0  0  0  0  0  0
  150.9671  140.0614  157.9730 H   0  0  0  0  0  0  0  0  0  0  0  0
  152.2615  141.2292  157.7220 H   0  0  0  0  0  0  0  0  0  0  0  0
  149.6246  143.2864  156.6870 H   0  0  0  0  0  0  0  0  0  0  0  0
  151.4406  142.3432  158.7921 H   0  0  0  0  0  0  0  0  0  0  0  0
  149.4946  144.6888  158.7400 H   0  0  0  0  0  0  0  0  0  0  0  0
  149.7238  143.5390  160.0524 H   0  0  0  0  0  0  0  0  0  0  0  0
  151.0097  145.9839  159.9664 H   0  0  0  0  0  0  0  0  0  0  0  0
  151.7459  144.5789  160.7227 H   0  0  0  0  0  0  0  0  0  0  0  0
  152.7211  145.9326  158.3500 H   0  0  0  0  0  0  0  0  0  0  0  0
  153.3828  144.5128  159.1466 H   0  0  0  0  0  0  0  0  0  0  0  0
  152.7572  143.4715  157.1048 H   0  0  0  0  0  0  0  0  0  0  0  0
  151.4837  144.6555  156.8226 H   0  0  0  0  0  0  0  0  0  0  0  0
  148.8082  138.0375  156.5452 H   0  0  0  0  0  0  0  0  0  0  0  0
  149.2087  142.1419  157.7815 H   0  0  0  0  0  0  0  0  0  0  0  0
  1  2  1  0  0  0  0
  1 17  1  0  0  0  0
  1 18  1  0  0  0  0
  1 19  1  0  0  0  0
  2 16  2  0  0  0  0
  2  3  1  0  0  0  0
  3  4  2  0  0  0  0
  3 20  1  0  0  0  0
  4  5  1  0  0  0  0
  5  6  1  0  0  0  0
  5 16  1  0  0  0  0
  6  7  1  0  0  0  0
  6  8  1  0  0  0  0
  6 21  1  0  0  0  0
  7 22  1  0  0  0  0
  7 23  1  0  0  0  0
  7 24  1  0  0  0  0
  8  9  1  0  0  0  0
  8 10  1  0  0  0  0
  8 25  1  0  0  0  0
  9 26  1  0  0  0  0
  9 27  1  0  0  0  0
  9 28  1  0  0  0  0
 10 11  1  0  0  0  0
 10 29  1  0  0  0  0
 10 40  1  0  0  0  0
 11 15  1  0  0  0  0
 11 12  1  0  0  0  0
 11 30  1  0  0  0  0
 12 13  1  0  0  0  0
 12 31  1  0  0  0  0
 12 32  1  0  0  0  0
 13 14  1  0  0  0  0
 13 33  1  0  0  0  0
 13 34  1  0  0  0  0
 14 15  1  0  0  0  0
 14 35  1  0  0  0  0
 14 36  1  0  0  0  0
 15 37  1  0  0  0  0
 15 38  1  0  0  0  0
 16 39  1  0  0  0  0
M  CHG  1  10   1
M  END
> <s_m_source_file>
AV-unprocessed.smi

> <i_m_source_file_index>
3160

> <i_lp_mmshare_version>
43012

> <i_f3d_flags>
0

> <s_epik_input>
W0NIM11jMVtjSF1ubihbY0hdMSlbQ0BIXShbQ0gzXSlbQ0BIXShbQ0gzXSlbTkhdW0NIXTJbQ0gyXVtDSDJdW0NIMl1bQ0gyXTI=

> <s_epik_cmdline>
J2VwaWtfcHl0aG9uJywgJy1waCcsICc3LjAnLCAnLXRuJywgJzgnLCAnLW1hJywgJzIwMCcsICctbWV0YWxfYmluZGluZycsICctaW1hZScsICc8aW5maWxlLm1hZT4nLCAnLW9tYWUnLCAnPG91dGZpbGUubWFlPic=

> <r_lp_tautomer_probability>
1

> <r_epik_Ionization_Penalty>
0.00117636

> <r_epik_Ionization_Penalty_Charging>
0.00115264

> <r_epik_Ionization_Penalty_Neutral>
2.37123e-05

> <r_epik_State_Penalty>
-0

> <r_epik_Charging_Adjusted_Penalty>
0.00115264

> <i_epik_Tot_Q>
1

> <i_epik_Tot_abs_Q>
1

> <r_epik_Metal_State_Penalty>
-0

> <b_epik_Metal_Only>
0

> <s_lp_Force_Field>
OPLS_2005

> <r_lp_Energy>
32.1139

> <b_lp_Chiralities_Consistent>
1

> <s_lp_Variant>
AV-unprocessed.smi:3160-1

> <Gold.Version>
5.8.1

> <Gold.Id.Protein>
6NUR|6NUR_protein|mol2

> <Gold.PLP.Fitness>
46.3506

> <Gold.PLP.PLP>
-35.8952

> <Gold.PLP.part.hbond>
-2.0000

> <Gold.PLP.part.metal>
0.0000

> <Gold.PLP.part.buried>
-5.5302

> <Gold.PLP.part.nonpolar>
-29.8331

> <Gold.PLP.part.repulsive>
0.1870

> <Gold.PLP.ligand.clash>
0.0000

> <Gold.PLP.ligand.torsion>
0.7099

> <Gold.PLP.Chemscore.Hbond>
3.0000

> <Gold.PLP.Chemscore.CHOScore>
0.9297

> <Gold.PLP.Chemscore.Metal>
0.0000

> <Gold.Chemscore.Hbonds>
donor molecule, donor type, donor heavy atom, donor atom, acceptor molecule, acceptor atom, score
      L1  H    10    29       P1  8028  2.00
      P1  H  7989  7998       L1     4  1.00
      L1  C     3    20       P1  7949  0.94

> <Gold.PLP.Chemscore.Internal.Correction>
0.0861

> <Gold.Rescore>
     Score         DG    S(hbond)    S(metal)    S(lipo)     H(rot)  DE(clash)    DE(int)     intcor
     20.37     -20.90       1.99        0.00     104.96       1.37       0.10       0.43       ----

> <Gold.Chemscore.Fitness>
20.3679

> <Gold.Chemscore.DG>
-20.8991

> <Gold.Chemscore.ZeroCoef>
-5.4800

> <Gold.Chemscore.Hbond>
1.9904

> <Gold.Chemscore.Metal>
0.0000

> <Gold.Chemscore.Lipo>
104.9619

> <Gold.Chemscore.Internal_Hbond>
0.0000

> <Gold.Chemscore.DEClash>
0.1019

> <Gold.Chemscore.DEInternal>
0.4293

> <Gold.Chemscore.Rot>
1.3709

> <Gold.Chemscore.Internal.Correction>
   9.000000E+99

> <Gold.Chemscore.Hbonds>
donor molecule, donor type, donor heavy atom, donor atom, acceptor molecule, acceptor atom, score
      L1  H    10    29       P1  8028  1.00
      P1  H  7989  7998       L1     4  0.98

> <Gold.Chemscore.Hbond.Weighted>
-6.6481

> <Gold.Chemscore.Metal.Weighted>
-0.0000

> <Gold.Chemscore.Lipo.Weighted>
-12.2805

> <Gold.Chemscore.Internal_Hbond.Weighted>
0.0000

> <Gold.Chemscore.DEClash.Weighted>
0.1019

> <Gold.Chemscore.DEInternal.Weighted>
0.4293

> <Gold.Chemscore.Rot.Weighted>
3.5095

> <Gold.Chemscore.Internal.Correction.Weighted>
   9.000000E+99

> <Gold.Protein.RotatedTorsions>
[ 6907 6896 6895 6894 ] final   78.62 input  -60.11 | X-H torsion
[ 7974 7965 7964 7962 ] final   -3.77 input  175.53 | X-H torsion
[ 8008 7997 7996 7995 ] final  -44.67 input   59.86 | X-H torsion
[ 10167 10162 10161 10158 ] final  110.51 input  -65.29 | X-H torsion
[ 10718 10713 10712 10709 ] final  -38.60 input   66.30 | X-H torsion
[ 10763 10752 10751 10750 ] final  -46.71 input  -60.55 | X-H torsion
[ 11005 11000 10999 10996 ] final  134.50 input  -57.11 | X-H torsion

> <Gold.Protein.ActiveResidues>
 VAL166  LYS551  ARG553  GLY616  TRP617  ASP618  TYR619  PRO620  LYS621  CYS622 
 ASP623  PHE694  ASN695  SER759  ASP760  ASP761  ALA762  ILE779  LEU786  VAL792 
 PHE793  MET794  SER795  GLU796  ALA797  LYS798  CYS799  TRP800  GLU811  SER814 

> <Gold.Protein.RotatedAtoms>
  152.5166  134.3637  159.9293 H   0  0  0  0  0  0  0  0  0  0  0  0  # atno 6907 bound_to 6896
  151.3589  133.3890  159.2695 H   0  0  0  0  0  0  0  0  0  0  0  0  # atno 6908 bound_to 6896
  150.9667  134.9066  159.7822 H   0  0  0  0  0  0  0  0  0  0  0  0  # atno 6909 bound_to 6896
  146.2384  140.1771  142.8332 H   0  0  0  0  0  0  0  0  0  0  0  0  # atno 7974 bound_to 7965
  154.3998  140.1416  156.3722 H   0  0  0  0  0  0  0  0  0  0  0  0  # atno 8008 bound_to 7997
  155.8082  140.3473  155.5421 H   0  0  0  0  0  0  0  0  0  0  0  0  # atno 8009 bound_to 7997
  155.8413  140.0927  157.1723 H   0  0  0  0  0  0  0  0  0  0  0  0  # atno 8010 bound_to 7997
  139.6683  144.7126  151.1736 H   0  0  0  0  0  0  0  0  0  0  0  0  # atno 10167 bound_to 10162
  156.3019  130.4241  149.8134 H   0  0  0  0  0  0  0  0  0  0  0  0  # atno 10718 bound_to 10713
  154.0495  135.6633  153.4799 H   0  0  0  0  0  0  0  0  0  0  0  0  # atno 10763 bound_to 10752
  153.0469  135.5109  154.7765 H   0  0  0  0  0  0  0  0  0  0  0  0  # atno 10764 bound_to 10752
  154.6766  135.3038  154.9636 H   0  0  0  0  0  0  0  0  0  0  0  0  # atno 10765 bound_to 10752
  139.9919  134.9512  156.9875 H   0  0  0  0  0  0  0  0  0  0  0  0  # atno 11005 bound_to 11000
  144.9964  140.8593  143.5308 LP  0  0  0  0  0  0  0  0  0  0  0  0  # atno 17320 bound_to 7965
  145.1784  139.2365  143.5305 LP  0  0  0  0  0  0  0  0  0  0  0  0  # atno 17321 bound_to 7965
  140.7608  143.5885  150.8821 LP  0  0  0  0  0  0  0  0  0  0  0  0  # atno 17342 bound_to 10162
  139.9548  143.6231  152.3019 LP  0  0  0  0  0  0  0  0  0  0  0  0  # atno 17343 bound_to 10162
  156.5509  130.8341  151.3299 LP  0  0  0  0  0  0  0  0  0  0  0  0  # atno 17370 bound_to 10713
  157.7370  130.9788  150.2168 LP  0  0  0  0  0  0  0  0  0  0  0  0  # atno 17371 bound_to 10713
  140.4893  134.1210  155.7230 LP  0  0  0  0  0  0  0  0  0  0  0  0  # atno 17394 bound_to 11000
  141.1572  133.8860  157.1944 LP  0  0  0  0  0  0  0  0  0  0  0  0  # atno 17395 bound_to 11000

$$$$
