AV-unprocessed.smi:1906|AV-procd|sdf|7728|dock8
  -GOLD-   22720 9473D 1   1.00000     0.00000
 Structure written by MMmdl.
 35 37  0  0  0  0  0  0  0  0  1 V2000
  152.8363  137.8567  157.4125 C   0  0  0  0  0  0  0  0  0  0  0  0
  152.7597  139.2295  158.0010 C   0  0  0  0  0  0  0  0  0  0  0  0
  153.7044  139.7048  158.8125 N   0  0  0  0  0  0  0  0  0  0  0  0
  153.2420  140.9728  159.1063 C   0  0  0  0  0  0  0  0  0  0  0  0
  153.7948  141.9865  159.9210 C   0  0  0  0  0  0  0  0  0  0  0  0
  153.1318  143.2223  160.0712 C   0  0  0  0  0  0  0  0  0  0  0  0
  151.9096  143.4619  159.4104 C   0  0  0  0  0  0  0  0  0  0  0  0
  151.3411  142.4652  158.5944 C   0  0  0  0  0  0  0  0  0  0  0  0
  152.0061  141.2331  158.4491 C   0  0  0  0  0  0  0  0  0  0  0  0
  151.7235  140.0669  157.7450 N   0  0  0  0  0  0  0  0  0  0  0  0
  150.5493  139.8296  156.9156 C   0  0  0  0  0  0  0  0  0  0  0  0
  150.6397  140.5460  155.5528 C   0  0  1  0  0  0  0  0  0  0  0  0
  151.7302  140.0010  154.8383 O   0  0  0  0  0  0  0  0  0  0  0  0
  149.3360  140.4707  154.7696 C   0  0  0  0  0  0  0  0  0  0  0  0
  148.9032  139.2524  154.2007 C   0  0  0  0  0  0  0  0  0  0  0  0
  147.6840  139.1910  153.4980 C   0  0  0  0  0  0  0  0  0  0  0  0
  146.8903  140.3459  153.3610 C   0  0  0  0  0  0  0  0  0  0  0  0
  147.3162  141.5628  153.9265 C   0  0  0  0  0  0  0  0  0  0  0  0
  146.5522  142.6731  153.7979 F   0  0  0  0  0  0  0  0  0  0  0  0
  148.5355  141.6249  154.6281 C   0  0  0  0  0  0  0  0  0  0  0  0
  153.7309  137.3403  157.7619 H   0  0  0  0  0  0  0  0  0  0  0  0
  152.8764  137.9138  156.3245 H   0  0  0  0  0  0  0  0  0  0  0  0
  151.9671  137.2691  157.7061 H   0  0  0  0  0  0  0  0  0  0  0  0
  154.7306  141.8128  160.4311 H   0  0  0  0  0  0  0  0  0  0  0  0
  153.5641  143.9903  160.6958 H   0  0  0  0  0  0  0  0  0  0  0  0
  151.4081  144.4113  159.5300 H   0  0  0  0  0  0  0  0  0  0  0  0
  150.4052  142.6449  158.0867 H   0  0  0  0  0  0  0  0  0  0  0  0
  150.4690  138.7524  156.7636 H   0  0  0  0  0  0  0  0  0  0  0  0
  149.6471  140.1282  157.4496 H   0  0  0  0  0  0  0  0  0  0  0  0
  150.8811  141.5968  155.7167 H   0  0  0  0  0  0  0  0  0  0  0  0
  152.3992  139.7526  155.4578 H   0  0  0  0  0  0  0  0  0  0  0  0
  149.4999  138.3584  154.3083 H   0  0  0  0  0  0  0  0  0  0  0  0
  147.3559  138.2568  153.0668 H   0  0  0  0  0  0  0  0  0  0  0  0
  145.9546  140.2979  152.8240 H   0  0  0  0  0  0  0  0  0  0  0  0
  148.8504  142.5609  155.0665 H   0  0  0  0  0  0  0  0  0  0  0  0
  1  2  1  0  0  0  0
  1 21  1  0  0  0  0
  1 22  1  0  0  0  0
  1 23  1  0  0  0  0
  2 10  1  0  0  0  0
  2  3  2  0  0  0  0
  3  4  1  0  0  0  0
  4  9  2  0  0  0  0
  4  5  1  0  0  0  0
  5  6  2  0  0  0  0
  5 24  1  0  0  0  0
  6  7  1  0  0  0  0
  6 25  1  0  0  0  0
  7  8  2  0  0  0  0
  7 26  1  0  0  0  0
  8  9  1  0  0  0  0
  8 27  1  0  0  0  0
  9 10  1  0  0  0  0
 10 11  1  0  0  0  0
 11 12  1  0  0  0  0
 11 28  1  0  0  0  0
 11 29  1  0  0  0  0
 12 13  1  0  0  0  0
 12 14  1  0  0  0  0
 12 30  1  0  0  0  0
 13 31  1  0  0  0  0
 14 20  1  0  0  0  0
 14 15  2  0  0  0  0
 15 16  1  0  0  0  0
 15 32  1  0  0  0  0
 16 17  2  0  0  0  0
 16 33  1  0  0  0  0
 17 18  1  0  0  0  0
 17 34  1  0  0  0  0
 18 19  1  0  0  0  0
 18 20  2  0  0  0  0
 20 35  1  0  0  0  0
M  END
> <s_m_source_file>
AV-unprocessed.smi

> <i_m_source_file_index>
1906

> <i_lp_mmshare_version>
43012

> <i_f3d_flags>
0

> <s_epik_input>
W2NIXTFbY0hdW2NIXVtjSF1jKGMxMiluKGMobjIpW0NIM10pW0NIMl1bQ0BIXShbT0hdKWMzW2NIXVtjSF1bY0hdYyhGKVtjSF0z

> <s_epik_cmdline>
J2VwaWtfcHl0aG9uJywgJy1waCcsICc3LjAnLCAnLXRuJywgJzgnLCAnLW1hJywgJzIwMCcsICctbWV0YWxfYmluZGluZycsICctaW1hZScsICc8aW5maWxlLm1hZT4nLCAnLW9tYWUnLCAnPG91dGZpbGUubWFlPic=

> <r_epik_Ionization_Penalty>
0.129664

> <r_epik_Ionization_Penalty_Charging>
0

> <r_epik_Ionization_Penalty_Neutral>
0.129664

> <r_epik_State_Penalty>
0.119073

> <r_epik_Charging_Adjusted_Penalty>
0.119073

> <i_epik_Tot_Q>
0

> <i_epik_Tot_abs_Q>
0

> <r_epik_Metal_State_Penalty>
0.000131867

> <b_epik_Metal_Only>
0

> <s_lp_Force_Field>
OPLS_2005

> <r_lp_Energy>
11.7028

> <b_lp_Chiralities_Consistent>
1

> <s_lp_Variant>
AV-unprocessed.smi:1906-2

> <Gold.Version>
5.8.1

> <Gold.Id.Protein>
6NUR|6NUR_protein|mol2

> <Gold.PLP.Fitness>
47.4371

> <Gold.PLP.PLP>
-43.2340

> <Gold.PLP.part.hbond>
-1.9538

> <Gold.PLP.part.metal>
0.0000

> <Gold.PLP.part.buried>
-3.0977

> <Gold.PLP.part.nonpolar>
-37.5239

> <Gold.PLP.part.repulsive>
0.0000

> <Gold.PLP.ligand.clash>
0.0000

> <Gold.PLP.ligand.torsion>
0.4376

> <Gold.PLP.Chemscore.Hbond>
1.6883

> <Gold.PLP.Chemscore.CHOScore>
0.0000

> <Gold.PLP.Chemscore.Metal>
0.0000

> <Gold.Chemscore.Hbonds>
donor molecule, donor type, donor heavy atom, donor atom, acceptor molecule, acceptor atom, score
      P1  H  7989  7998       L1    13  1.00
      P1  H  7997  8010       L1     3  0.69

> <Gold.PLP.Chemscore.Internal.Correction>
0.0134

> <Gold.Rescore>
     Score         DG    S(hbond)    S(metal)    S(lipo)     H(rot)  DE(clash)    DE(int)     intcor
     16.95     -17.25       0.84        0.00     115.92       1.79       0.14       0.16       ----

> <Gold.Chemscore.Fitness>
16.9470

> <Gold.Chemscore.DG>
-17.2451

> <Gold.Chemscore.ZeroCoef>
-5.4800

> <Gold.Chemscore.Hbond>
0.8359

> <Gold.Chemscore.Metal>
0.0000

> <Gold.Chemscore.Lipo>
115.9151

> <Gold.Chemscore.Internal_Hbond>
0.0000

> <Gold.Chemscore.DEClash>
0.1355

> <Gold.Chemscore.DEInternal>
0.1626

> <Gold.Chemscore.Rot>
1.7926

> <Gold.Chemscore.Internal.Correction>
   9.000000E+99

> <Gold.Chemscore.Hbonds>
donor molecule, donor type, donor heavy atom, donor atom, acceptor molecule, acceptor atom, score
      P1  H  7989  7998       L1    13  0.28
      P1  H  7997  8010       L1     3  0.03

> <Gold.Chemscore.Hbond.Weighted>
-2.7920

> <Gold.Chemscore.Metal.Weighted>
-0.0000

> <Gold.Chemscore.Lipo.Weighted>
-13.5621

> <Gold.Chemscore.Internal_Hbond.Weighted>
0.0000

> <Gold.Chemscore.DEClash.Weighted>
0.1355

> <Gold.Chemscore.DEInternal.Weighted>
0.1626

> <Gold.Chemscore.Rot.Weighted>
4.5890

> <Gold.Chemscore.Internal.Correction.Weighted>
   9.000000E+99

> <Gold.Protein.RotatedTorsions>
[ 6907 6896 6895 6894 ] final  -29.83 input  -60.11 | X-H torsion
[ 7974 7965 7964 7962 ] final  -27.83 input  175.53 | X-H torsion
[ 8008 7997 7996 7995 ] final    3.22 input   59.86 | X-H torsion
[ 10167 10162 10161 10158 ] final -142.18 input  -65.29 | X-H torsion
[ 10718 10713 10712 10709 ] final  -72.82 input   66.30 | X-H torsion
[ 10763 10752 10751 10750 ] final   68.19 input  -60.55 | X-H torsion
[ 11005 11000 10999 10996 ] final -164.00 input  -57.11 | X-H torsion

> <Gold.Protein.ActiveResidues>
 VAL166  LYS551  ARG553  GLY616  TRP617  ASP618  TYR619  PRO620  LYS621  CYS622 
 ASP623  PHE694  ASN695  SER759  ASP760  ASP761  ALA762  ILE779  LEU786  VAL792 
 PHE793  MET794  SER795  GLU796  ALA797  LYS798  CYS799  TRP800  GLU811  SER814 

> <Gold.Protein.RotatedAtoms>
  151.1138  135.0041  159.8506 H   0  0  0  0  0  0  0  0  0  0  0  0  # atno 6907 bound_to 6896
  152.5444  134.1804  159.8643 H   0  0  0  0  0  0  0  0  0  0  0  0  # atno 6908 bound_to 6896
  151.1856  133.4653  159.2627 H   0  0  0  0  0  0  0  0  0  0  0  0  # atno 6909 bound_to 6896
  146.1330  140.5203  142.8685 H   0  0  0  0  0  0  0  0  0  0  0  0  # atno 7974 bound_to 7965
  154.7011  140.2673  155.6719 H   0  0  0  0  0  0  0  0  0  0  0  0  # atno 8008 bound_to 7997
  156.2765  140.2772  156.1545 H   0  0  0  0  0  0  0  0  0  0  0  0  # atno 8009 bound_to 7997
  155.0764  140.0372  157.2615 H   0  0  0  0  0  0  0  0  0  0  0  0  # atno 8010 bound_to 7997
  139.8113  143.7699  152.2663 H   0  0  0  0  0  0  0  0  0  0  0  0  # atno 10167 bound_to 10162
  156.0305  130.4380  150.2650 H   0  0  0  0  0  0  0  0  0  0  0  0  # atno 10718 bound_to 10713
  153.0223  135.5256  154.7096 H   0  0  0  0  0  0  0  0  0  0  0  0  # atno 10763 bound_to 10752
  154.6182  135.2886  155.0358 H   0  0  0  0  0  0  0  0  0  0  0  0  # atno 10764 bound_to 10752
  154.1355  135.6586  153.4983 H   0  0  0  0  0  0  0  0  0  0  0  0  # atno 10765 bound_to 10752
  140.5918  134.5036  157.5194 H   0  0  0  0  0  0  0  0  0  0  0  0  # atno 11005 bound_to 11000
  144.7710  140.5638  143.6670 LP  0  0  0  0  0  0  0  0  0  0  0  0  # atno 17320 bound_to 7965
  145.5218  139.1476  143.3548 LP  0  0  0  0  0  0  0  0  0  0  0  0  # atno 17321 bound_to 7965
  139.7849  144.7431  151.0036 LP  0  0  0  0  0  0  0  0  0  0  0  0  # atno 17342 bound_to 10162
  140.7817  143.4503  151.0423 LP  0  0  0  0  0  0  0  0  0  0  0  0  # atno 17343 bound_to 10162
  157.0753  131.0128  151.3176 LP  0  0  0  0  0  0  0  0  0  0  0  0  # atno 17370 bound_to 10713
  157.4969  130.7856  149.7564 LP  0  0  0  0  0  0  0  0  0  0  0  0  # atno 17371 bound_to 10713
  139.9270  134.8036  156.1038 LP  0  0  0  0  0  0  0  0  0  0  0  0  # atno 17394 bound_to 11000
  141.0929  133.6707  156.2581 LP  0  0  0  0  0  0  0  0  0  0  0  0  # atno 17395 bound_to 11000

$$$$
