AV-unprocessed.smi:512|AV-procd|sdf|2770|dock1
  -GOLD-   2262023233D 1   1.00000     0.00000
 Structure written by MMmdl.
 48 50  0  0  0  0  0  0  0  0  3 V2000
  150.6538  130.3950  154.7104 C   0  0  0  0  0  0  0  0  0  0  0  0
  149.1687  130.7485  154.6034 C   0  0  0  0  0  0  0  0  0  0  0  0
  149.0282  131.9030  153.7932 O   0  0  0  0  0  0  0  0  0  0  0  0
  149.7036  133.0298  154.3254 C   0  0  0  0  0  0  0  0  0  0  0  0
  148.8507  133.6327  155.4485 C   0  0  0  0  0  0  0  0  0  0  0  0
  148.3856  134.9751  155.1060 N   0  0  0  0  0  0  0  0  0  0  0  0
  147.1343  135.3709  154.7493 C   0  0  0  0  0  0  0  0  0  0  0  0
  146.0545  134.4880  154.7284 N   0  0  0  0  0  0  0  0  0  0  0  0
  144.6500  134.8921  154.7382 C   0  0  0  0  0  0  0  0  0  0  0  0
  144.0306  134.8000  153.3310 C   0  0  0  0  0  0  0  0  0  0  0  0
  144.1811  133.4356  152.7707 N   0  3  0  0  0  0  0  0  0  0  0  0
  143.5901  133.3043  151.4221 C   0  0  0  0  0  0  0  0  0  0  0  0
  145.5870  132.9697  152.8261 C   0  0  0  0  0  0  0  0  0  0  0  0
  146.1480  133.1116  154.2517 C   0  0  0  0  0  0  0  0  0  0  0  0
  147.0304  136.6564  154.4075 N   0  0  0  0  0  0  0  0  0  0  0  0
  148.3200  137.1308  154.5938 C   0  0  0  0  0  0  0  0  0  0  0  0
  149.1526  136.1407  155.0137 C   0  0  0  0  0  0  0  0  0  0  0  0
  150.5947  136.3358  155.2791 C   0  0  0  0  0  0  0  0  0  0  0  0
  151.3024  135.4029  155.6534 O   0  0  0  0  0  0  0  0  0  0  0  0
  150.9908  137.6288  155.0560 N   0  5  0  0  0  0  0  0  0  0  0  0
  150.1831  138.6624  154.6320 C   0  0  0  0  0  0  0  0  0  0  0  0
  150.6223  139.7988  154.4515 O   0  0  0  0  0  0  0  0  0  0  0  0
  148.8519  138.4346  154.3995 N   0  0  0  0  0  0  0  0  0  0  0  0
  147.9694  139.5135  153.9467 C   0  0  0  0  0  0  0  0  0  0  0  0
  150.7995  129.5084  155.3274 H   0  0  0  0  0  0  0  0  0  0  0  0
  151.2191  131.2120  155.1590 H   0  0  0  0  0  0  0  0  0  0  0  0
  151.0791  130.1923  153.7274 H   0  0  0  0  0  0  0  0  0  0  0  0
  148.6188  129.9133  154.1673 H   0  0  0  0  0  0  0  0  0  0  0  0
  148.7574  130.9329  155.5970 H   0  0  0  0  0  0  0  0  0  0  0  0
  150.6824  132.7353  154.7058 H   0  0  0  0  0  0  0  0  0  0  0  0
  149.8652  133.7703  153.5404 H   0  0  0  0  0  0  0  0  0  0  0  0
  148.0071  132.9756  155.6413 H   0  0  0  0  0  0  0  0  0  0  0  0
  149.4086  133.6731  156.3832 H   0  0  0  0  0  0  0  0  0  0  0  0
  144.0985  134.2680  155.4426 H   0  0  0  0  0  0  0  0  0  0  0  0
  144.5601  135.9199  155.0892 H   0  0  0  0  0  0  0  0  0  0  0  0
  142.9736  135.0647  153.3736 H   0  0  0  0  0  0  0  0  0  0  0  0
  144.5136  135.5196  152.6676 H   0  0  0  0  0  0  0  0  0  0  0  0
  144.1075  133.9412  150.7035 H   0  0  0  0  0  0  0  0  0  0  0  0
  142.5370  133.5874  151.4348 H   0  0  0  0  0  0  0  0  0  0  0  0
  143.6538  132.2729  151.0735 H   0  0  0  0  0  0  0  0  0  0  0  0
  145.6413  131.9279  152.5084 H   0  0  0  0  0  0  0  0  0  0  0  0
  146.1933  133.5497  152.1282 H   0  0  0  0  0  0  0  0  0  0  0  0
  147.1896  132.7891  154.2749 H   0  0  0  0  0  0  0  0  0  0  0  0
  145.6081  132.4577  154.9379 H   0  0  0  0  0  0  0  0  0  0  0  0
  148.2869  139.8794  152.9695 H   0  0  0  0  0  0  0  0  0  0  0  0
  147.9931  140.3486  154.6476 H   0  0  0  0  0  0  0  0  0  0  0  0
  146.9309  139.1976  153.8562 H   0  0  0  0  0  0  0  0  0  0  0  0
  143.6563  132.8217  153.3773 H   0  0  0  0  0  0  0  0  0  0  0  0
  1  2  1  0  0  0  0
  1 25  1  0  0  0  0
  1 26  1  0  0  0  0
  1 27  1  0  0  0  0
  2  3  1  0  0  0  0
  2 28  1  0  0  0  0
  2 29  1  0  0  0  0
  3  4  1  0  0  0  0
  4  5  1  0  0  0  0
  4 30  1  0  0  0  0
  4 31  1  0  0  0  0
  5  6  1  0  0  0  0
  5 32  1  0  0  0  0
  5 33  1  0  0  0  0
  6 17  1  0  0  0  0
  6  7  1  0  0  0  0
  7  8  1  0  0  0  0
  7 15  2  0  0  0  0
  8 14  1  0  0  0  0
  8  9  1  0  0  0  0
  9 10  1  0  0  0  0
  9 34  1  0  0  0  0
  9 35  1  0  0  0  0
 10 11  1  0  0  0  0
 10 36  1  0  0  0  0
 10 37  1  0  0  0  0
 11 12  1  0  0  0  0
 11 13  1  0  0  0  0
 11 48  1  0  0  0  0
 12 38  1  0  0  0  0
 12 39  1  0  0  0  0
 12 40  1  0  0  0  0
 13 14  1  0  0  0  0
 13 41  1  0  0  0  0
 13 42  1  0  0  0  0
 14 43  1  0  0  0  0
 14 44  1  0  0  0  0
 15 16  1  0  0  0  0
 16 23  1  0  0  0  0
 16 17  2  0  0  0  0
 17 18  1  0  0  0  0
 18 19  2  0  0  0  0
 18 20  1  0  0  0  0
 20 21  1  0  0  0  0
 21 22  2  0  0  0  0
 21 23  1  0  0  0  0
 23 24  1  0  0  0  0
 24 45  1  0  0  0  0
 24 46  1  0  0  0  0
 24 47  1  0  0  0  0
M  CHG  1  11   1
M  CHG  1  20  -1
M  END
> <s_m_source_file>
AV-unprocessed.smi

> <i_m_source_file_index>
512

> <i_lp_mmshare_version>
43012

> <i_f3d_flags>
0

> <s_epik_input>
W0NIM11uMWMoPU8pW25IXWMoPU8pYyhjMTIpbihbQ0gyXVtDSDJdT1tDSDJdW0NIM10pYyhuMilOM1tDSDJdW0NIMl1OKFtDSDNdKVtDSDJdW0NIMl0z

> <s_epik_cmdline>
J2VwaWtfcHl0aG9uJywgJy1waCcsICc3LjAnLCAnLXRuJywgJzgnLCAnLW1hJywgJzIwMCcsICctbWV0YWxfYmluZGluZycsICctaW1hZScsICc8aW5maWxlLm1hZT4nLCAnLW9tYWUnLCAnPG91dGZpbGUubWFlPic=

> <r_epik_Ionization_Penalty>
5.9926

> <r_epik_Ionization_Penalty_Charging>
0.122107

> <r_epik_Ionization_Penalty_Neutral>
5.87049

> <r_epik_State_Penalty>
5.92685

> <r_epik_Charging_Adjusted_Penalty>
6.04896

> <i_epik_Tot_Q>
0

> <i_epik_Tot_abs_Q>
2

> <r_epik_Metal_State_Penalty>
1.88919

> <b_epik_Metal_Only>
1

> <s_lp_Force_Field>
OPLS_2005

> <r_lp_Energy>
50.2729

> <b_lp_Chiralities_Consistent>
1

> <s_lp_Variant>
AV-unprocessed.smi:512-3

> <Gold.Version>
5.8.1

> <Gold.Id.Protein>
6NUR|6NUR_protein|mol2

> <Gold.PLP.Fitness>
36.8440

> <Gold.PLP.PLP>
-26.1971

> <Gold.PLP.part.hbond>
-3.0000

> <Gold.PLP.part.metal>
0.0000

> <Gold.PLP.part.buried>
-3.2929

> <Gold.PLP.part.nonpolar>
-20.2270

> <Gold.PLP.part.repulsive>
0.4721

> <Gold.PLP.ligand.clash>
0.0000

> <Gold.PLP.ligand.torsion>
0.9779

> <Gold.PLP.Chemscore.Hbond>
4.0000

> <Gold.PLP.Chemscore.CHOScore>
0.0000

> <Gold.PLP.Chemscore.Metal>
0.0000

> <Gold.Chemscore.Hbonds>
donor molecule, donor type, donor heavy atom, donor atom, acceptor molecule, acceptor atom, score
      L1  H    11    48       P1 10957  2.00
      P1  H  7989  7998       L1    22  1.00
      P1  H 10752 10763       L1    19  1.00

> <Gold.PLP.Chemscore.Internal.Correction>
0.6027

> <Gold.Rescore>
     Score         DG    S(hbond)    S(metal)    S(lipo)     H(rot)  DE(clash)    DE(int)     intcor
     13.94     -16.35       2.86        0.00      46.83       1.63       0.53       1.88       ----

> <Gold.Chemscore.Fitness>
13.9384

> <Gold.Chemscore.DG>
-16.3462

> <Gold.Chemscore.ZeroCoef>
-5.4800

> <Gold.Chemscore.Hbond>
2.8645

> <Gold.Chemscore.Metal>
0.0000

> <Gold.Chemscore.Lipo>
46.8269

> <Gold.Chemscore.Internal_Hbond>
0.0000

> <Gold.Chemscore.DEClash>
0.5254

> <Gold.Chemscore.DEInternal>
1.8825

> <Gold.Chemscore.Rot>
1.6328

> <Gold.Chemscore.Internal.Correction>
   9.000000E+99

> <Gold.Chemscore.Hbonds>
donor molecule, donor type, donor heavy atom, donor atom, acceptor molecule, acceptor atom, score
      L1  H    11    48       P1 10957  0.58
      P1  H  7989  7998       L1    22  1.00
      P1  H 10752 10763       L1    19  0.77

> <Gold.Chemscore.Hbond.Weighted>
-9.5675

> <Gold.Chemscore.Metal.Weighted>
-0.0000

> <Gold.Chemscore.Lipo.Weighted>
-5.4788

> <Gold.Chemscore.Internal_Hbond.Weighted>
0.0000

> <Gold.Chemscore.DEClash.Weighted>
0.5254

> <Gold.Chemscore.DEInternal.Weighted>
1.8825

> <Gold.Chemscore.Rot.Weighted>
4.1800

> <Gold.Chemscore.Internal.Correction.Weighted>
   9.000000E+99

> <Gold.Protein.RotatedTorsions>
[ 6907 6896 6895 6894 ] final   10.67 input  -60.11 | X-H torsion
[ 7974 7965 7964 7962 ] final   50.49 input  175.53 | X-H torsion
[ 8008 7997 7996 7995 ] final -179.20 input   59.86 | X-H torsion
[ 10167 10162 10161 10158 ] final -122.85 input  -65.29 | X-H torsion
[ 10718 10713 10712 10709 ] final   84.14 input   66.30 | X-H torsion
[ 10763 10752 10751 10750 ] final   77.85 input  -60.55 | X-H torsion
[ 11005 11000 10999 10996 ] final  101.73 input  -57.11 | X-H torsion

> <Gold.Protein.ActiveResidues>
 VAL166  LYS551  ARG553  GLY616  TRP617  ASP618  TYR619  PRO620  LYS621  CYS622 
 ASP623  PHE694  ASN695  SER759  ASP760  ASP761  ALA762  ILE779  LEU786  VAL792 
 PHE793  MET794  SER795  GLU796  ALA797  LYS798  CYS799  TRP800  GLU811  SER814 

> <Gold.Protein.RotatedAtoms>
  151.7420  135.0852  160.0316 H   0  0  0  0  0  0  0  0  0  0  0  0  # atno 6907 bound_to 6896
  152.3473  133.6133  159.5928 H   0  0  0  0  0  0  0  0  0  0  0  0  # atno 6908 bound_to 6896
  150.7517  133.9545  159.3538 H   0  0  0  0  0  0  0  0  0  0  0  0  # atno 6909 bound_to 6896
  146.0006  139.4435  143.0017 H   0  0  0  0  0  0  0  0  0  0  0  0  # atno 7974 bound_to 7965
  156.0278  140.1275  157.0290 H   0  0  0  0  0  0  0  0  0  0  0  0  # atno 8008 bound_to 7997
  154.4337  140.1055  156.6126 H   0  0  0  0  0  0  0  0  0  0  0  0  # atno 8009 bound_to 7997
  155.5851  140.3468  155.4553 H   0  0  0  0  0  0  0  0  0  0  0  0  # atno 8010 bound_to 7997
  140.0098  143.5453  152.2268 H   0  0  0  0  0  0  0  0  0  0  0  0  # atno 10167 bound_to 10162
  157.6892  131.0121  150.2629 H   0  0  0  0  0  0  0  0  0  0  0  0  # atno 10718 bound_to 10713
  153.0829  135.4899  154.8539 H   0  0  0  0  0  0  0  0  0  0  0  0  # atno 10763 bound_to 10752
  154.7174  135.3032  154.9104 H   0  0  0  0  0  0  0  0  0  0  0  0  # atno 10764 bound_to 10752
  153.9779  135.6793  153.4802 H   0  0  0  0  0  0  0  0  0  0  0  0  # atno 10765 bound_to 10752
  139.8774  134.9195  156.4951 H   0  0  0  0  0  0  0  0  0  0  0  0  # atno 11005 bound_to 11000
  145.7493  140.9978  143.1259 LP  0  0  0  0  0  0  0  0  0  0  0  0  # atno 17320 bound_to 7965
  144.6918  139.9194  143.7467 LP  0  0  0  0  0  0  0  0  0  0  0  0  # atno 17321 bound_to 7965
  139.6213  144.7629  151.2735 LP  0  0  0  0  0  0  0  0  0  0  0  0  # atno 17342 bound_to 10162
  140.7386  143.6644  150.8136 LP  0  0  0  0  0  0  0  0  0  0  0  0  # atno 17343 bound_to 10162
  156.3205  130.3785  149.7579 LP  0  0  0  0  0  0  0  0  0  0  0  0  # atno 17370 bound_to 10713
  156.5151  130.8189  151.3183 LP  0  0  0  0  0  0  0  0  0  0  0  0  # atno 17371 bound_to 10713
  140.8630  133.8045  155.9284 LP  0  0  0  0  0  0  0  0  0  0  0  0  # atno 17394 bound_to 11000
  140.9030  134.2355  157.5030 LP  0  0  0  0  0  0  0  0  0  0  0  0  # atno 17395 bound_to 11000

$$$$
