AV-unprocessed.smi:2023|AV-procd|sdf|8189|dock4
  -GOLD-   2272010443D 1   1.00000     0.00000
 Structure written by MMmdl.
 35 36  0  0  0  0  0  0  0  0  1 V2000
  150.8141  140.1045  154.5578 O   0  0  0  0  0  0  0  0  0  0  0  0
  151.7012  139.4091  155.5026 S   0  0  0  0  0  0  0  0  0  0  0  0
  153.1558  139.3728  155.2877 O   0  0  0  0  0  0  0  0  0  0  0  0
  151.4157  140.0154  157.0927 N   0  0  0  0  0  0  0  0  0  0  0  0
  150.4256  141.0769  157.2852 C   0  0  0  0  0  0  0  0  0  0  0  0
  151.0545  142.4636  157.0681 C   0  0  0  0  0  0  0  0  0  0  0  0
  151.2689  143.2324  158.3594 C   0  0  0  0  0  0  0  0  0  0  0  0
  151.8918  142.6255  159.4695 C   0  0  0  0  0  0  0  0  0  0  0  0
  152.0448  143.3710  160.6539 C   0  0  0  0  0  0  0  0  0  0  0  0
  151.5709  144.6978  160.6758 C   0  0  0  0  0  0  0  0  0  0  0  0
  150.9791  145.2920  159.6174 N   0  0  0  0  0  0  0  0  0  0  0  0
  150.8332  144.5684  158.4866 C   0  0  0  0  0  0  0  0  0  0  0  0
  151.1227  137.7904  155.7047 N   0  0  0  0  0  0  0  0  0  0  0  0
  151.2377  136.9014  154.5366 C   0  0  0  0  0  0  0  0  0  0  0  0
  150.8906  135.4494  154.9034 C   0  0  0  0  0  0  0  0  0  0  0  0
  149.6102  135.3921  155.5123 O   0  0  0  0  0  0  0  0  0  0  0  0
  149.5823  136.1264  156.7260 C   0  0  0  0  0  0  0  0  0  0  0  0
  149.8649  137.6125  156.4534 C   0  0  0  0  0  0  0  0  0  0  0  0
  152.2816  140.1838  157.6042 H   0  0  0  0  0  0  0  0  0  0  0  0
  149.6094  140.9227  156.5795 H   0  0  0  0  0  0  0  0  0  0  0  0
  149.9955  141.0044  158.2850 H   0  0  0  0  0  0  0  0  0  0  0  0
  152.0066  142.3621  156.5455 H   0  0  0  0  0  0  0  0  0  0  0  0
  150.4127  143.0562  156.4152 H   0  0  0  0  0  0  0  0  0  0  0  0
  152.2382  141.6038  159.4191 H   0  0  0  0  0  0  0  0  0  0  0  0
  152.5117  142.9363  161.5252 H   0  0  0  0  0  0  0  0  0  0  0  0
  151.6713  145.2987  161.5675 H   0  0  0  0  0  0  0  0  0  0  0  0
  150.3471  145.0678  157.6615 H   0  0  0  0  0  0  0  0  0  0  0  0
  150.5683  137.2605  153.7541 H   0  0  0  0  0  0  0  0  0  0  0  0
  152.2509  136.9479  154.1369 H   0  0  0  0  0  0  0  0  0  0  0  0
  150.8819  134.8298  154.0066 H   0  0  0  0  0  0  0  0  0  0  0  0
  151.6438  135.0278  155.5711 H   0  0  0  0  0  0  0  0  0  0  0  0
  148.6000  136.0121  157.1843 H   0  0  0  0  0  0  0  0  0  0  0  0
  150.3088  135.7172  157.4300 H   0  0  0  0  0  0  0  0  0  0  0  0
  149.9118  138.1527  157.3981 H   0  0  0  0  0  0  0  0  0  0  0  0
  149.0472  138.0485  155.8779 H   0  0  0  0  0  0  0  0  0  0  0  0
  1  2  2  0  0  0  0
  2  3  2  0  0  0  0
  2  4  1  0  0  0  0
  2 13  1  0  0  0  0
  4  5  1  0  0  0  0
  4 19  1  0  0  0  0
  5  6  1  0  0  0  0
  5 20  1  0  0  0  0
  5 21  1  0  0  0  0
  6  7  1  0  0  0  0
  6 22  1  0  0  0  0
  6 23  1  0  0  0  0
  7 12  1  0  0  0  0
  7  8  2  0  0  0  0
  8  9  1  0  0  0  0
  8 24  1  0  0  0  0
  9 10  2  0  0  0  0
  9 25  1  0  0  0  0
 10 11  1  0  0  0  0
 10 26  1  0  0  0  0
 11 12  2  0  0  0  0
 12 27  1  0  0  0  0
 13 18  1  0  0  0  0
 13 14  1  0  0  0  0
 14 15  1  0  0  0  0
 14 28  1  0  0  0  0
 14 29  1  0  0  0  0
 15 16  1  0  0  0  0
 15 30  1  0  0  0  0
 15 31  1  0  0  0  0
 16 17  1  0  0  0  0
 17 18  1  0  0  0  0
 17 32  1  0  0  0  0
 17 33  1  0  0  0  0
 18 34  1  0  0  0  0
 18 35  1  0  0  0  0
M  END
> <s_m_source_file>
AV-unprocessed.smi

> <i_m_source_file_index>
2023

> <i_lp_mmshare_version>
43012

> <i_f3d_flags>
0

> <s_epik_input>
W0NIMl0xW0NIMl1PW0NIMl1bQ0gyXU4xUyg9TykoPU8pW05IXVtDSDJdW0NIMl1jMltjSF1bY0hdW2NIXW5bY0hdMg==

> <s_epik_cmdline>
J2VwaWtfcHl0aG9uJywgJy1waCcsICc3LjAnLCAnLXRuJywgJzgnLCAnLW1hJywgJzIwMCcsICctbWV0YWxfYmluZGluZycsICctaW1hZScsICc8aW5maWxlLm1hZT4nLCAnLW9tYWUnLCAnPG91dGZpbGUubWFlPic=

> <r_epik_Ionization_Penalty>
0.0861056

> <r_epik_Ionization_Penalty_Charging>
0

> <r_epik_Ionization_Penalty_Neutral>
0.0861056

> <r_epik_State_Penalty>
0.0574425

> <r_epik_Charging_Adjusted_Penalty>
0.0574425

> <i_epik_Tot_Q>
0

> <i_epik_Tot_abs_Q>
0

> <r_epik_Metal_State_Penalty>
0.317425

> <b_epik_Metal_Only>
0

> <s_lp_Force_Field>
OPLS_2005

> <r_lp_Energy>
8.68862

> <b_lp_Chiralities_Consistent>
1

> <s_lp_Variant>
AV-unprocessed.smi:2023-1

> <Gold.Version>
5.8.1

> <Gold.Id.Protein>
6NUR|6NUR_protein|mol2

> <Gold.PLP.Fitness>
40.5814

> <Gold.PLP.PLP>
-32.9178

> <Gold.PLP.part.hbond>
-2.8177

> <Gold.PLP.part.metal>
0.0000

> <Gold.PLP.part.buried>
-6.3602

> <Gold.PLP.part.nonpolar>
-23.9754

> <Gold.PLP.part.repulsive>
0.3187

> <Gold.PLP.ligand.clash>
0.0000

> <Gold.PLP.ligand.torsion>
1.0593

> <Gold.PLP.Chemscore.Hbond>
2.0000

> <Gold.PLP.Chemscore.CHOScore>
1.0000

> <Gold.PLP.Chemscore.Metal>
0.0000

> <Gold.Chemscore.Hbonds>
donor molecule, donor type, donor heavy atom, donor atom, acceptor molecule, acceptor atom, score
      P1  H  7989  7998       L1     1  1.00
      P1  H  7997  8009       L1     3  1.00
      L1  C    12    27       P1  8028  0.65
      L1  C    12    27       P1  8029  0.24

> <Gold.PLP.Chemscore.Internal.Correction>
0.7823

> <Gold.Rescore>
     Score         DG    S(hbond)    S(metal)    S(lipo)     H(rot)  DE(clash)    DE(int)     intcor
     16.47     -17.70       1.97        0.00      88.40       1.84       0.25       0.98       ----

> <Gold.Chemscore.Fitness>
16.4696

> <Gold.Chemscore.DG>
-17.7039

> <Gold.Chemscore.ZeroCoef>
-5.4800

> <Gold.Chemscore.Hbond>
1.9721

> <Gold.Chemscore.Metal>
0.0000

> <Gold.Chemscore.Lipo>
88.4005

> <Gold.Chemscore.Internal_Hbond>
0.0000

> <Gold.Chemscore.DEClash>
0.2535

> <Gold.Chemscore.DEInternal>
0.9808

> <Gold.Chemscore.Rot>
1.8382

> <Gold.Chemscore.Internal.Correction>
   9.000000E+99

> <Gold.Chemscore.Hbonds>
donor molecule, donor type, donor heavy atom, donor atom, acceptor molecule, acceptor atom, score
      P1  H  7989  7998       L1     1  0.74
      P1  H  7997  8009       L1     3  1.00

> <Gold.Chemscore.Hbond.Weighted>
-6.5867

> <Gold.Chemscore.Metal.Weighted>
-0.0000

> <Gold.Chemscore.Lipo.Weighted>
-10.3429

> <Gold.Chemscore.Internal_Hbond.Weighted>
0.0000

> <Gold.Chemscore.DEClash.Weighted>
0.2535

> <Gold.Chemscore.DEInternal.Weighted>
0.9808

> <Gold.Chemscore.Rot.Weighted>
4.7057

> <Gold.Chemscore.Internal.Correction.Weighted>
   9.000000E+99

> <Gold.Protein.RotatedTorsions>
[ 6907 6896 6895 6894 ] final  -89.56 input  -60.11 | X-H torsion
[ 7974 7965 7964 7962 ] final  109.10 input  175.53 | X-H torsion
[ 8008 7997 7996 7995 ] final -141.20 input   59.86 | X-H torsion
[ 10167 10162 10161 10158 ] final   83.34 input  -65.29 | X-H torsion
[ 10718 10713 10712 10709 ] final -151.73 input   66.30 | X-H torsion
[ 10763 10752 10751 10750 ] final -166.09 input  -60.55 | X-H torsion
[ 11005 11000 10999 10996 ] final  -64.77 input  -57.11 | X-H torsion

> <Gold.Protein.ActiveResidues>
 VAL166  LYS551  ARG553  GLY616  TRP617  ASP618  TYR619  PRO620  LYS621  CYS622 
 ASP623  PHE694  ASN695  SER759  ASP760  ASP761  ALA762  ILE779  LEU786  VAL792 
 PHE793  MET794  SER795  GLU796  ALA797  LYS798  CYS799  TRP800  GLU811  SER814 

> <Gold.Protein.RotatedAtoms>
  150.6875  134.2568  159.4532 H   0  0  0  0  0  0  0  0  0  0  0  0  # atno 6907 bound_to 6896
  152.0501  134.9656  160.0584 H   0  0  0  0  0  0  0  0  0  0  0  0  # atno 6908 bound_to 6896
  152.1124  133.4273  159.4674 H   0  0  0  0  0  0  0  0  0  0  0  0  # atno 6909 bound_to 6896
  145.2722  139.2662  143.3960 H   0  0  0  0  0  0  0  0  0  0  0  0  # atno 7974 bound_to 7965
  155.4738  140.0555  157.2976 H   0  0  0  0  0  0  0  0  0  0  0  0  # atno 8008 bound_to 7997
  154.4687  140.2030  156.0003 H   0  0  0  0  0  0  0  0  0  0  0  0  # atno 8009 bound_to 7997
  156.1019  140.3217  155.7959 H   0  0  0  0  0  0  0  0  0  0  0  0  # atno 8010 bound_to 7997
  139.9194  144.6222  150.8456 H   0  0  0  0  0  0  0  0  0  0  0  0  # atno 10167 bound_to 10162
  156.4632  130.8223  151.2453 H   0  0  0  0  0  0  0  0  0  0  0  0  # atno 10718 bound_to 10713
  154.6868  135.2964  154.9536 H   0  0  0  0  0  0  0  0  0  0  0  0  # atno 10763 bound_to 10752
  154.0513  135.6644  153.4804 H   0  0  0  0  0  0  0  0  0  0  0  0  # atno 10764 bound_to 10752
  153.0584  135.5130  154.7939 H   0  0  0  0  0  0  0  0  0  0  0  0  # atno 10765 bound_to 10752
  141.1435  133.6671  156.5884 H   0  0  0  0  0  0  0  0  0  0  0  0  # atno 11005 bound_to 11000
  146.3243  140.3167  142.8630 LP  0  0  0  0  0  0  0  0  0  0  0  0  # atno 17320 bound_to 7965
  144.9325  140.7991  143.5680 LP  0  0  0  0  0  0  0  0  0  0  0  0  # atno 17321 bound_to 7965
  140.7666  143.3308  151.2415 LP  0  0  0  0  0  0  0  0  0  0  0  0  # atno 17342 bound_to 10162
  139.6875  143.9749  152.2842 LP  0  0  0  0  0  0  0  0  0  0  0  0  # atno 17343 bound_to 10162
  157.7496  131.0100  150.3291 LP  0  0  0  0  0  0  0  0  0  0  0  0  # atno 17370 bound_to 10713
  156.3695  130.3861  149.7187 LP  0  0  0  0  0  0  0  0  0  0  0  0  # atno 17371 bound_to 10713
  140.3782  134.7546  157.4644 LP  0  0  0  0  0  0  0  0  0  0  0  0  # atno 17394 bound_to 11000
  140.0658  134.5932  155.8697 LP  0  0  0  0  0  0  0  0  0  0  0  0  # atno 17395 bound_to 11000

$$$$
