AV-unprocessed.smi:1312|AV-procd|sdf|5448|dock1
  -GOLD-   22720 5 13D 1   1.00000     0.00000
 Structure written by MMmdl.
 50 51  0  0  0  0  0  0  0  0  2 V2000
  144.0917  135.4729  154.4203 C   0  0  0  0  0  0  0  0  0  0  0  0
  145.4654  134.9210  154.8327 C   0  0  0  0  0  0  0  0  0  0  0  0
  146.6733  135.5933  154.1244 C   0  0  2  0  0  0  0  0  0  0  0  0
  146.8133  137.0926  154.4932 C   0  0  0  0  0  0  0  0  0  0  0  0
  148.1213  137.6255  154.1290 N   0  0  0  0  0  0  0  0  0  0  0  0
  148.4935  138.9043  154.2824 C   0  0  0  0  0  0  0  0  0  0  0  0
  147.7470  139.7687  154.7441 O   0  0  0  0  0  0  0  0  0  0  0  0
  149.9286  139.2383  153.8586 C   0  0  0  0  0  0  0  0  0  0  0  0
  150.7833  139.6236  155.0422 C   0  0  0  0  0  0  0  0  0  0  0  0
  152.0628  139.1008  155.3923 C   0  0  0  0  0  0  0  0  0  0  0  0
  152.8577  138.0434  154.6810 C   0  0  0  0  0  0  0  0  0  0  0  0
  152.5511  139.6529  156.4908 N   0  0  0  0  0  0  0  0  0  0  0  0
  151.6097  140.5361  156.8794 N   0  0  0  0  0  0  0  0  0  0  0  0
  151.8280  141.3296  158.0734 C   0  0  0  0  0  0  0  0  0  0  0  0
  150.5244  140.5415  156.0248 C   0  0  0  0  0  0  0  0  0  0  0  0
  149.3440  141.4319  156.2425 C   0  0  0  0  0  0  0  0  0  0  0  0
  146.6167  135.3881  152.6465 N   0  3  0  0  0  0  0  0  0  0  0  0
  146.4013  133.9962  152.1936 C   0  0  0  0  0  0  0  0  0  0  0  0
  145.8970  134.1199  150.7607 C   0  0  0  0  0  0  0  0  0  0  0  0
  145.0126  135.3592  150.8175 C   0  0  0  0  0  0  0  0  0  0  0  0
  145.6254  136.2272  151.9248 C   0  0  0  0  0  0  0  0  0  0  0  0
  143.2937  134.9323  154.9297 H   0  0  0  0  0  0  0  0  0  0  0  0
  143.9237  135.3706  153.3482 H   0  0  0  0  0  0  0  0  0  0  0  0
  143.9863  136.5261  154.6802 H   0  0  0  0  0  0  0  0  0  0  0  0
  145.5696  135.0223  155.9131 H   0  0  0  0  0  0  0  0  0  0  0  0
  145.4758  133.8453  154.6589 H   0  0  0  0  0  0  0  0  0  0  0  0
  147.5760  135.0917  154.4772 H   0  0  0  0  0  0  0  0  0  0  0  0
  146.0700  137.6937  153.9692 H   0  0  0  0  0  0  0  0  0  0  0  0
  146.6323  137.2328  155.5600 H   0  0  0  0  0  0  0  0  0  0  0  0
  148.7931  136.9781  153.7425 H   0  0  0  0  0  0  0  0  0  0  0  0
  150.3395  138.3696  153.3438 H   0  0  0  0  0  0  0  0  0  0  0  0
  149.9048  140.0400  153.1195 H   0  0  0  0  0  0  0  0  0  0  0  0
  152.9886  138.2952  153.6287 H   0  0  0  0  0  0  0  0  0  0  0  0
  152.3513  137.0794  154.7310 H   0  0  0  0  0  0  0  0  0  0  0  0
  153.8502  137.9205  155.1161 H   0  0  0  0  0  0  0  0  0  0  0  0
  151.8252  142.3886  157.8147 H   0  0  0  0  0  0  0  0  0  0  0  0
  152.7857  141.0811  158.5329 H   0  0  0  0  0  0  0  0  0  0  0  0
  151.0323  141.1360  158.7929 H   0  0  0  0  0  0  0  0  0  0  0  0
  148.5526  141.2232  155.5230 H   0  0  0  0  0  0  0  0  0  0  0  0
  149.6257  142.4797  156.1374 H   0  0  0  0  0  0  0  0  0  0  0  0
  148.9300  141.2905  157.2408 H   0  0  0  0  0  0  0  0  0  0  0  0
  147.3126  133.4006  152.2540 H   0  0  0  0  0  0  0  0  0  0  0  0
  145.6380  133.5201  152.8117 H   0  0  0  0  0  0  0  0  0  0  0  0
  146.7359  134.2920  150.0851 H   0  0  0  0  0  0  0  0  0  0  0  0
  145.3641  133.2321  150.4192 H   0  0  0  0  0  0  0  0  0  0  0  0
  144.9569  135.8765  149.8594 H   0  0  0  0  0  0  0  0  0  0  0  0
  143.9985  135.0716  151.0974 H   0  0  0  0  0  0  0  0  0  0  0  0
  144.8355  136.5846  152.5867 H   0  0  0  0  0  0  0  0  0  0  0  0
  146.1320  137.0991  151.5100 H   0  0  0  0  0  0  0  0  0  0  0  0
  147.5200  135.6537  152.2806 H   0  0  0  0  0  0  0  0  0  0  0  0
  1  2  1  0  0  0  0
  1 22  1  0  0  0  0
  1 23  1  0  0  0  0
  1 24  1  0  0  0  0
  2  3  1  0  0  0  0
  2 25  1  0  0  0  0
  2 26  1  0  0  0  0
  3  4  1  0  0  0  0
  3 17  1  0  0  0  0
  3 27  1  0  0  0  0
  4  5  1  0  0  0  0
  4 28  1  0  0  0  0
  4 29  1  0  0  0  0
  5  6  1  0  0  0  0
  5 30  1  0  0  0  0
  6  7  2  0  0  0  0
  6  8  1  0  0  0  0
  8  9  1  0  0  0  0
  8 31  1  0  0  0  0
  8 32  1  0  0  0  0
  9 15  2  0  0  0  0
  9 10  1  0  0  0  0
 10 11  1  0  0  0  0
 10 12  2  0  0  0  0
 11 33  1  0  0  0  0
 11 34  1  0  0  0  0
 11 35  1  0  0  0  0
 12 13  1  0  0  0  0
 13 14  1  0  0  0  0
 13 15  1  0  0  0  0
 14 36  1  0  0  0  0
 14 37  1  0  0  0  0
 14 38  1  0  0  0  0
 15 16  1  0  0  0  0
 16 39  1  0  0  0  0
 16 40  1  0  0  0  0
 16 41  1  0  0  0  0
 17 21  1  0  0  0  0
 17 18  1  0  0  0  0
 17 50  1  0  0  0  0
 18 19  1  0  0  0  0
 18 42  1  0  0  0  0
 18 43  1  0  0  0  0
 19 20  1  0  0  0  0
 19 44  1  0  0  0  0
 19 45  1  0  0  0  0
 20 21  1  0  0  0  0
 20 46  1  0  0  0  0
 20 47  1  0  0  0  0
 21 48  1  0  0  0  0
 21 49  1  0  0  0  0
M  CHG  1  17   1
M  END
> <s_m_source_file>
AV-unprocessed.smi

> <i_m_source_file_index>
1312

> <i_lp_mmshare_version>
43012

> <i_f3d_flags>
0

> <s_epik_input>
W0NIMl0xW0NIMl1bQ0gyXVtDSDJdTjFbQ0BIXShbQ0gyXVtDSDNdKVtDSDJdW05IXUMoPU8pW0NIMl1jMmMoW0NIM10pbm4oW0NIM10pYzJbQ0gzXQ==

> <s_epik_cmdline>
J2VwaWtfcHl0aG9uJywgJy1waCcsICc3LjAnLCAnLXRuJywgJzgnLCAnLW1hJywgJzIwMCcsICctbWV0YWxfYmluZGluZycsICctaW1hZScsICc8aW5maWxlLm1hZT4nLCAnLW9tYWUnLCAnPG91dGZpbGUubWFlPic=

> <r_lp_tautomer_probability>
1

> <r_epik_Ionization_Penalty>
0.00585463

> <r_epik_Ionization_Penalty_Charging>
0.00366302

> <r_epik_Ionization_Penalty_Neutral>
0.00219161

> <r_epik_State_Penalty>
-0

> <r_epik_Charging_Adjusted_Penalty>
0.00366302

> <i_epik_Tot_Q>
1

> <i_epik_Tot_abs_Q>
1

> <r_epik_Metal_State_Penalty>
-0

> <b_epik_Metal_Only>
0

> <s_lp_Force_Field>
OPLS_2005

> <r_lp_Energy>
29.647

> <b_lp_Chiralities_Consistent>
1

> <s_lp_Variant>
AV-unprocessed.smi:1312-1

> <Gold.Version>
5.8.1

> <Gold.Id.Protein>
6NUR|6NUR_protein|mol2

> <Gold.PLP.Fitness>
43.0688

> <Gold.PLP.PLP>
-32.3052

> <Gold.PLP.part.hbond>
-3.0000

> <Gold.PLP.part.metal>
0.0000

> <Gold.PLP.part.buried>
1.1513

> <Gold.PLP.part.nonpolar>
-29.1620

> <Gold.PLP.part.repulsive>
0.0682

> <Gold.PLP.ligand.clash>
0.0034

> <Gold.PLP.ligand.torsion>
0.3233

> <Gold.PLP.Chemscore.Hbond>
3.6720

> <Gold.PLP.Chemscore.CHOScore>
0.0000

> <Gold.PLP.Chemscore.Metal>
0.0000

> <Gold.Chemscore.Hbonds>
donor molecule, donor type, donor heavy atom, donor atom, acceptor molecule, acceptor atom, score
      L1  H     5    30       P1  7948  0.61
      L1  H    17    50       P1  7948  2.00
      P1  H  7997  8009       L1    12  1.00

> <Gold.PLP.Chemscore.Internal.Correction>
0.3976

> <Gold.Rescore>
     Score         DG    S(hbond)    S(metal)    S(lipo)     H(rot)  DE(clash)    DE(int)     intcor
     15.84     -19.15       2.62        0.00      79.73       1.72       1.42       1.89       ----

> <Gold.Chemscore.Fitness>
15.8377

> <Gold.Chemscore.DG>
-19.1486

> <Gold.Chemscore.ZeroCoef>
-5.4800

> <Gold.Chemscore.Hbond>
2.6186

> <Gold.Chemscore.Metal>
0.0000

> <Gold.Chemscore.Lipo>
79.7347

> <Gold.Chemscore.Internal_Hbond>
0.0000

> <Gold.Chemscore.DEClash>
1.4165

> <Gold.Chemscore.DEInternal>
1.8944

> <Gold.Chemscore.Rot>
1.7213

> <Gold.Chemscore.Internal.Correction>
   9.000000E+99

> <Gold.Chemscore.Hbonds>
donor molecule, donor type, donor heavy atom, donor atom, acceptor molecule, acceptor atom, score
      L1  H     5    30       P1  7948  0.59
      L1  H    17    50       P1  7948  0.97
      P1  H  7997  8009       L1    12  0.81

> <Gold.Chemscore.Hbond.Weighted>
-8.7462

> <Gold.Chemscore.Metal.Weighted>
-0.0000

> <Gold.Chemscore.Lipo.Weighted>
-9.3290

> <Gold.Chemscore.Internal_Hbond.Weighted>
0.0000

> <Gold.Chemscore.DEClash.Weighted>
1.4165

> <Gold.Chemscore.DEInternal.Weighted>
1.8944

> <Gold.Chemscore.Rot.Weighted>
4.4065

> <Gold.Chemscore.Internal.Correction.Weighted>
   9.000000E+99

> <Gold.Protein.RotatedTorsions>
[ 6907 6896 6895 6894 ] final  -90.74 input  -60.11 | X-H torsion
[ 7974 7965 7964 7962 ] final    1.46 input  175.53 | X-H torsion
[ 8008 7997 7996 7995 ] final -160.10 input   59.86 | X-H torsion
[ 10167 10162 10161 10158 ] final -147.50 input  -65.29 | X-H torsion
[ 10718 10713 10712 10709 ] final  -35.93 input   66.30 | X-H torsion
[ 10763 10752 10751 10750 ] final  176.22 input  -60.55 | X-H torsion
[ 11005 11000 10999 10996 ] final  -48.89 input  -57.11 | X-H torsion

> <Gold.Protein.ActiveResidues>
 VAL166  LYS551  ARG553  GLY616  TRP617  ASP618  TYR619  PRO620  LYS621  CYS622 
 ASP623  PHE694  ASN695  SER759  ASP760  ASP761  ALA762  ILE779  LEU786  VAL792 
 PHE793  MET794  SER795  GLU796  ALA797  LYS798  CYS799  TRP800  GLU811  SER814 

> <Gold.Protein.RotatedAtoms>
  150.6885  134.2386  159.4462 H   0  0  0  0  0  0  0  0  0  0  0  0  # atno 6907 bound_to 6896
  152.0331  134.9753  160.0582 H   0  0  0  0  0  0  0  0  0  0  0  0  # atno 6908 bound_to 6896
  152.1285  133.4359  159.4746 H   0  0  0  0  0  0  0  0  0  0  0  0  # atno 6909 bound_to 6896
  146.2440  140.0984  142.8349 H   0  0  0  0  0  0  0  0  0  0  0  0  # atno 7974 bound_to 7965
  155.7724  140.0854  157.2101 H   0  0  0  0  0  0  0  0  0  0  0  0  # atno 8008 bound_to 7997
  154.3995  140.1523  156.3014 H   0  0  0  0  0  0  0  0  0  0  0  0  # atno 8009 bound_to 7997
  155.8734  140.3424  155.5839 H   0  0  0  0  0  0  0  0  0  0  0  0  # atno 8010 bound_to 7997
  139.7616  143.8369  152.2608 H   0  0  0  0  0  0  0  0  0  0  0  0  # atno 10167 bound_to 10162
  156.3328  130.4282  149.7857 H   0  0  0  0  0  0  0  0  0  0  0  0  # atno 10718 bound_to 10713
  154.4782  135.2774  155.1591 H   0  0  0  0  0  0  0  0  0  0  0  0  # atno 10763 bound_to 10752
  154.3312  135.6189  153.5556 H   0  0  0  0  0  0  0  0  0  0  0  0  # atno 10764 bound_to 10752
  152.9872  135.5766  154.5177 H   0  0  0  0  0  0  0  0  0  0  0  0  # atno 10765 bound_to 10752
  141.0727  133.6674  156.3506 H   0  0  0  0  0  0  0  0  0  0  0  0  # atno 11005 bound_to 11000
  145.0590  140.9073  143.4950 LP  0  0  0  0  0  0  0  0  0  0  0  0  # atno 17320 bound_to 7965
  145.1096  139.2766  143.5644 LP  0  0  0  0  0  0  0  0  0  0  0  0  # atno 17321 bound_to 7965
  139.8376  144.7225  150.9371 LP  0  0  0  0  0  0  0  0  0  0  0  0  # atno 17342 bound_to 10162
  140.7807  143.4012  151.1146 LP  0  0  0  0  0  0  0  0  0  0  0  0  # atno 17343 bound_to 10162
  156.5123  130.8177  151.3173 LP  0  0  0  0  0  0  0  0  0  0  0  0  # atno 17370 bound_to 10713
  157.7433  130.9910  150.2584 LP  0  0  0  0  0  0  0  0  0  0  0  0  # atno 17371 bound_to 10713
  140.5639  134.5907  157.5440 LP  0  0  0  0  0  0  0  0  0  0  0  0  # atno 17394 bound_to 11000
  139.9540  134.7567  156.0384 LP  0  0  0  0  0  0  0  0  0  0  0  0  # atno 17395 bound_to 11000

$$$$
