AV-unprocessed.smi:1167|AV-procd|sdf|4938|dock8
  -GOLD-   22720 3523D 1   1.00000     0.00000
 Structure written by MMmdl.
 41 42  0  0  0  0  0  0  0  0  1 V2000
  151.9317  139.7795  155.6674 C   0  0  0  0  0  0  0  0  0  0  0  0
  151.0035  140.7947  155.3020 O   0  0  0  0  0  0  0  0  0  0  0  0
  149.7817  140.4115  154.7878 C   0  0  0  0  0  0  0  0  0  0  0  0
  148.8045  141.4007  154.5635 C   0  0  0  0  0  0  0  0  0  0  0  0
  147.5535  141.0191  154.0412 C   0  0  0  0  0  0  0  0  0  0  0  0
  147.3176  139.6515  153.7578 C   0  0  0  0  0  0  0  0  0  0  0  0
  146.1074  139.1215  153.2294 N   0  0  0  0  0  0  0  0  0  0  0  0
  145.8391  137.8863  152.7707 C   0  0  0  0  0  0  0  0  0  0  0  0
  146.6329  136.9474  152.7268 O   0  0  0  0  0  0  0  0  0  0  0  0
  144.5679  137.7948  152.3547 N   0  0  0  0  0  0  0  0  0  0  0  0
  143.9471  136.5963  151.7983 C   0  0  0  0  0  0  0  0  0  0  0  0
  143.8477  135.5101  152.8909 C   0  0  0  0  0  0  0  0  0  0  0  0
  143.3767  134.1671  152.3047 C   0  0  0  0  0  0  0  0  0  0  0  0
  144.2876  133.7771  151.2222 N   0  0  0  0  0  0  0  0  0  0  0  0
  145.1591  132.7459  151.3338 C   0  0  0  0  0  0  0  0  0  0  0  0
  146.1216  132.4509  150.1811 C   0  0  0  0  0  0  0  0  0  0  0  0
  145.2148  132.0269  152.3316 O   0  0  0  0  0  0  0  0  0  0  0  0
  144.2247  134.7193  150.0980 C   0  0  0  0  0  0  0  0  0  0  0  0
  144.7396  136.0907  150.5702 C   0  0  0  0  0  0  0  0  0  0  0  0
  148.3643  138.7421  154.0166 C   0  0  0  0  0  0  0  0  0  0  0  0
  149.5650  139.1008  154.5177 N   0  0  0  0  0  0  0  0  0  0  0  0
  152.8390  140.2432  156.0544 H   0  0  0  0  0  0  0  0  0  0  0  0
  152.2133  139.1680  154.8089 H   0  0  0  0  0  0  0  0  0  0  0  0
  151.5299  139.1346  156.4505 H   0  0  0  0  0  0  0  0  0  0  0  0
  149.0099  142.4369  154.7889 H   0  0  0  0  0  0  0  0  0  0  0  0
  146.8155  141.7861  153.8733 H   0  0  0  0  0  0  0  0  0  0  0  0
  145.3405  139.7766  153.1883 H   0  0  0  0  0  0  0  0  0  0  0  0
  143.9841  138.6153  152.4273 H   0  0  0  0  0  0  0  0  0  0  0  0
  142.9310  136.8354  151.4784 H   0  0  0  0  0  0  0  0  0  0  0  0
  144.8212  135.3692  153.3635 H   0  0  0  0  0  0  0  0  0  0  0  0
  143.1653  135.8315  153.6783 H   0  0  0  0  0  0  0  0  0  0  0  0
  143.3147  133.4184  153.0955 H   0  0  0  0  0  0  0  0  0  0  0  0
  142.3646  134.2643  151.9091 H   0  0  0  0  0  0  0  0  0  0  0  0
  146.7560  133.3136  149.9754 H   0  0  0  0  0  0  0  0  0  0  0  0
  145.5720  132.1895  149.2763 H   0  0  0  0  0  0  0  0  0  0  0  0
  146.7720  131.6113  150.4291 H   0  0  0  0  0  0  0  0  0  0  0  0
  144.7857  134.3947  149.2229 H   0  0  0  0  0  0  0  0  0  0  0  0
  143.1905  134.8071  149.7623 H   0  0  0  0  0  0  0  0  0  0  0  0
  144.6710  136.8112  149.7543 H   0  0  0  0  0  0  0  0  0  0  0  0
  145.7983  136.0079  150.8208 H   0  0  0  0  0  0  0  0  0  0  0  0
  148.2359  137.6882  153.8159 H   0  0  0  0  0  0  0  0  0  0  0  0
  1  2  1  0  0  0  0
  1 22  1  0  0  0  0
  1 23  1  0  0  0  0
  1 24  1  0  0  0  0
  2  3  1  0  0  0  0
  3 21  1  0  0  0  0
  3  4  2  0  0  0  0
  4  5  1  0  0  0  0
  4 25  1  0  0  0  0
  5  6  2  0  0  0  0
  5 26  1  0  0  0  0
  6  7  1  0  0  0  0
  6 20  1  0  0  0  0
  7  8  1  0  0  0  0
  7 27  1  0  0  0  0
  8  9  2  0  0  0  0
  8 10  1  0  0  0  0
 10 11  1  0  0  0  0
 10 28  1  0  0  0  0
 11 19  1  0  0  0  0
 11 12  1  0  0  0  0
 11 29  1  0  0  0  0
 12 13  1  0  0  0  0
 12 30  1  0  0  0  0
 12 31  1  0  0  0  0
 13 14  1  0  0  0  0
 13 32  1  0  0  0  0
 13 33  1  0  0  0  0
 14 15  1  0  0  0  0
 14 18  1  0  0  0  0
 15 16  1  0  0  0  0
 15 17  2  0  0  0  0
 16 34  1  0  0  0  0
 16 35  1  0  0  0  0
 16 36  1  0  0  0  0
 18 19  1  0  0  0  0
 18 37  1  0  0  0  0
 18 38  1  0  0  0  0
 19 39  1  0  0  0  0
 19 40  1  0  0  0  0
 20 21  2  0  0  0  0
 20 41  1  0  0  0  0
M  END
> <s_m_source_file>
AV-unprocessed.smi

> <i_m_source_file_index>
1167

> <i_lp_mmshare_version>
43012

> <i_f3d_flags>
0

> <s_epik_input>
W0NIM11PYzFbY0hdW2NIXWMoW2NIXW4xKVtOSF1DKD1PKVtOSF1bQ0hdMltDSDJdW0NIMl1OKEMoPU8pW0NIM10pW0NIMl1bQ0gyXTI=

> <s_epik_cmdline>
J2VwaWtfcHl0aG9uJywgJy1waCcsICc3LjAnLCAnLXRuJywgJzgnLCAnLW1hJywgJzIwMCcsICctbWV0YWxfYmluZGluZycsICctaW1hZScsICc8aW5maWxlLm1hZT4nLCAnLW9tYWUnLCAnPG91dGZpbGUubWFlPic=

> <r_lp_tautomer_probability>
1

> <r_epik_Ionization_Penalty>
9.6092e-05

> <r_epik_Ionization_Penalty_Charging>
0

> <r_epik_Ionization_Penalty_Neutral>
9.6092e-05

> <r_epik_State_Penalty>
-0

> <r_epik_Charging_Adjusted_Penalty>
0

> <i_epik_Tot_Q>
0

> <i_epik_Tot_abs_Q>
0

> <r_epik_Metal_State_Penalty>
-0

> <b_epik_Metal_Only>
0

> <s_lp_Force_Field>
OPLS_2005

> <r_lp_Energy>
24.5609

> <b_lp_Chiralities_Consistent>
1

> <s_lp_Variant>
AV-unprocessed.smi:1167-1

> <Gold.Version>
5.8.1

> <Gold.Id.Protein>
6NUR|6NUR_protein|mol2

> <Gold.PLP.Fitness>
40.0910

> <Gold.PLP.PLP>
-30.5997

> <Gold.PLP.part.hbond>
-4.0000

> <Gold.PLP.part.metal>
0.0000

> <Gold.PLP.part.buried>
1.9631

> <Gold.PLP.part.nonpolar>
-32.3897

> <Gold.PLP.part.repulsive>
4.0775

> <Gold.PLP.ligand.clash>
0.0000

> <Gold.PLP.ligand.torsion>
0.0988

> <Gold.PLP.Chemscore.Hbond>
2.2240

> <Gold.PLP.Chemscore.CHOScore>
1.0000

> <Gold.PLP.Chemscore.Metal>
0.0000

> <Gold.Chemscore.Hbonds>
donor molecule, donor type, donor heavy atom, donor atom, acceptor molecule, acceptor atom, score
      L1  H     7    27       P1 10175  1.00
      L1  H    10    28       P1 10175  1.00
      P1  H  7989  7998       L1     2  0.22
      L1  C    20    41       P1  7948  0.99

> <Gold.PLP.Chemscore.Internal.Correction>
0.0168

> <Gold.Rescore>
     Score         DG    S(hbond)    S(metal)    S(lipo)     H(rot)  DE(clash)    DE(int)     intcor
     10.61     -16.89       1.94        0.00      69.94       1.27       3.73       2.56       ----

> <Gold.Chemscore.Fitness>
10.6066

> <Gold.Chemscore.DG>
-16.8932

> <Gold.Chemscore.ZeroCoef>
-5.4800

> <Gold.Chemscore.Hbond>
1.9439

> <Gold.Chemscore.Metal>
0.0000

> <Gold.Chemscore.Lipo>
69.9442

> <Gold.Chemscore.Internal_Hbond>
0.0000

> <Gold.Chemscore.DEClash>
3.7315

> <Gold.Chemscore.DEInternal>
2.5550

> <Gold.Chemscore.Rot>
1.2746

> <Gold.Chemscore.Internal.Correction>
   9.000000E+99

> <Gold.Chemscore.Hbonds>
donor molecule, donor type, donor heavy atom, donor atom, acceptor molecule, acceptor atom, score
      L1  H     7    27       P1 10175  0.97
      L1  H    10    28       P1 10175  0.98

> <Gold.Chemscore.Hbond.Weighted>
-6.4927

> <Gold.Chemscore.Metal.Weighted>
-0.0000

> <Gold.Chemscore.Lipo.Weighted>
-8.1835

> <Gold.Chemscore.Internal_Hbond.Weighted>
0.0000

> <Gold.Chemscore.DEClash.Weighted>
3.7315

> <Gold.Chemscore.DEInternal.Weighted>
2.5550

> <Gold.Chemscore.Rot.Weighted>
3.2630

> <Gold.Chemscore.Internal.Correction.Weighted>
   9.000000E+99

> <Gold.Protein.RotatedTorsions>
[ 6907 6896 6895 6894 ] final  -53.30 input  -60.11 | X-H torsion
[ 7974 7965 7964 7962 ] final   -7.99 input  175.53 | X-H torsion
[ 8008 7997 7996 7995 ] final  -79.33 input   59.86 | X-H torsion
[ 10167 10162 10161 10158 ] final -176.78 input  -65.29 | X-H torsion
[ 10718 10713 10712 10709 ] final  -15.83 input   66.30 | X-H torsion
[ 10763 10752 10751 10750 ] final -137.71 input  -60.55 | X-H torsion
[ 11005 11000 10999 10996 ] final   31.99 input  -57.11 | X-H torsion

> <Gold.Protein.ActiveResidues>
 VAL166  LYS551  ARG553  GLY616  TRP617  ASP618  TYR619  PRO620  LYS621  CYS622 
 ASP623  PHE694  ASN695  SER759  ASP760  ASP761  ALA762  ILE779  LEU786  VAL792 
 PHE793  MET794  SER795  GLU796  ALA797  LYS798  CYS799  TRP800  GLU811  SER814 

> <Gold.Protein.RotatedAtoms>
  150.8439  134.7741  159.6954 H   0  0  0  0  0  0  0  0  0  0  0  0  # atno 6907 bound_to 6896
  152.4521  134.5369  159.9837 H   0  0  0  0  0  0  0  0  0  0  0  0  # atno 6908 bound_to 6896
  151.5503  133.3380  159.2987 H   0  0  0  0  0  0  0  0  0  0  0  0  # atno 6909 bound_to 6896
  146.2292  140.2402  142.8343 H   0  0  0  0  0  0  0  0  0  0  0  0  # atno 7974 bound_to 7965
  154.5775  140.0680  156.9055 H   0  0  0  0  0  0  0  0  0  0  0  0  # atno 8008 bound_to 7997
  155.2522  140.3352  155.4263 H   0  0  0  0  0  0  0  0  0  0  0  0  # atno 8009 bound_to 7997
  156.2165  140.1780  156.7562 H   0  0  0  0  0  0  0  0  0  0  0  0  # atno 8010 bound_to 7997
  139.5512  144.2104  152.1081 H   0  0  0  0  0  0  0  0  0  0  0  0  # atno 10167 bound_to 10162
  156.5962  130.4812  149.6259 H   0  0  0  0  0  0  0  0  0  0  0  0  # atno 10718 bound_to 10713
  154.8655  135.3634  154.5268 H   0  0  0  0  0  0  0  0  0  0  0  0  # atno 10763 bound_to 10752
  153.5895  135.7016  153.5434 H   0  0  0  0  0  0  0  0  0  0  0  0  # atno 10764 bound_to 10752
  153.3386  135.4104  155.1515 H   0  0  0  0  0  0  0  0  0  0  0  0  # atno 10765 bound_to 10752
  140.2781  134.3004  155.7808 H   0  0  0  0  0  0  0  0  0  0  0  0  # atno 11005 bound_to 11000
  144.9490  140.8159  143.5583 LP  0  0  0  0  0  0  0  0  0  0  0  0  # atno 17320 bound_to 7965
  145.2361  139.2093  143.5017 LP  0  0  0  0  0  0  0  0  0  0  0  0  # atno 17321 bound_to 7965
  140.1600  144.5035  150.6638 LP  0  0  0  0  0  0  0  0  0  0  0  0  # atno 17342 bound_to 10162
  140.6775  143.2311  151.5469 LP  0  0  0  0  0  0  0  0  0  0  0  0  # atno 17343 bound_to 10162
  156.2508  130.6906  151.1643 LP  0  0  0  0  0  0  0  0  0  0  0  0  # atno 17370 bound_to 10713
  157.7291  131.0626  150.5789 LP  0  0  0  0  0  0  0  0  0  0  0  0  # atno 17371 bound_to 10713
  141.2167  133.7508  156.9439 LP  0  0  0  0  0  0  0  0  0  0  0  0  # atno 17394 bound_to 11000
  140.1309  134.9356  157.2335 LP  0  0  0  0  0  0  0  0  0  0  0  0  # atno 17395 bound_to 11000

$$$$
