AV-unprocessed.smi:1809|AV-procd|sdf|7324|dock1
  -GOLD-   22720 8583D 1   1.00000     0.00000
 Structure written by MMmdl.
 39 41  0  0  0  0  0  0  0  0  3 V2000
  145.1093  134.5595  162.6695 C   0  0  0  0  0  0  0  0  0  0  0  0
  146.0528  135.4398  161.9238 C   0  0  0  0  0  0  0  0  0  0  0  0
  146.3704  136.6697  162.3347 N   0  0  0  0  0  0  0  0  0  0  0  0
  147.2598  137.2952  161.4730 N   0  0  0  0  0  0  0  0  0  0  0  0
  147.5946  136.5352  160.4204 C   0  0  0  0  0  0  0  0  0  0  0  0
  148.4438  136.9571  159.4688 N   0  5  0  0  0  0  0  0  0  0  0  0
  148.7137  136.1673  158.4057 C   0  0  0  0  0  0  0  0  0  0  0  0
  147.9533  135.3401  157.8970 O   0  0  0  0  0  0  0  0  0  0  0  0
  149.9443  136.3404  157.9035 N   0  0  0  0  0  0  0  0  0  0  0  0
  150.5123  135.6125  156.7740 C   0  0  0  0  0  0  0  0  0  0  0  0
  150.6523  136.5106  155.5327 C   0  0  1  0  0  0  0  0  0  0  0  0
  149.3330  137.2143  155.1799 C   0  0  0  0  0  0  0  0  0  0  0  0
  149.4937  138.1009  153.9997 N   0  3  1  0  0  0  0  0  0  0  0  0
  148.3335  138.9999  153.8116 C   0  0  0  0  0  0  0  0  0  0  0  0
  148.7207  140.3567  154.4286 C   0  0  0  0  0  0  0  0  0  0  0  0
  150.1765  140.2051  154.8839 C   0  0  0  0  0  0  0  0  0  0  0  0
  150.6717  138.9906  154.0987 C   0  0  1  0  0  0  0  0  0  0  0  0
  151.9248  138.2864  154.6592 C   0  0  0  0  0  0  0  0  0  0  0  0
  151.6114  137.5224  155.8142 O   0  0  0  0  0  0  0  0  0  0  0  0
  146.8335  134.9445  160.4313 S   0  0  0  0  0  0  0  0  0  0  0  0
  144.0819  134.8702  162.4795 H   0  0  0  0  0  0  0  0  0  0  0  0
  145.3032  134.6193  163.7407 H   0  0  0  0  0  0  0  0  0  0  0  0
  145.2265  133.5234  162.3519 H   0  0  0  0  0  0  0  0  0  0  0  0
  150.5336  137.0291  158.3480 H   0  0  0  0  0  0  0  0  0  0  0  0
  151.4821  135.2009  157.0582 H   0  0  0  0  0  0  0  0  0  0  0  0
  149.8680  134.7613  156.5524 H   0  0  0  0  0  0  0  0  0  0  0  0
  150.9797  135.9078  154.6836 H   0  0  0  0  0  0  0  0  0  0  0  0
  148.5573  136.4780  154.9663 H   0  0  0  0  0  0  0  0  0  0  0  0
  148.9906  137.7958  156.0377 H   0  0  0  0  0  0  0  0  0  0  0  0
  148.1643  139.1200  152.7409 H   0  0  0  0  0  0  0  0  0  0  0  0
  147.4156  138.5934  154.2392 H   0  0  0  0  0  0  0  0  0  0  0  0
  148.6294  141.1478  153.6834 H   0  0  0  0  0  0  0  0  0  0  0  0
  148.0741  140.6190  155.2667 H   0  0  0  0  0  0  0  0  0  0  0  0
  150.7721  141.0990  154.6959 H   0  0  0  0  0  0  0  0  0  0  0  0
  150.2103  140.0021  155.9554 H   0  0  0  0  0  0  0  0  0  0  0  0
  150.9006  139.3305  153.0871 H   0  0  0  0  0  0  0  0  0  0  0  0
  152.3607  137.6314  153.9029 H   0  0  0  0  0  0  0  0  0  0  0  0
  152.6908  139.0201  154.9114 H   0  0  0  0  0  0  0  0  0  0  0  0
  149.5995  137.5074  153.1891 H   0  0  0  0  0  0  0  0  0  0  0  0
  1  2  1  0  0  0  0
  1 21  1  0  0  0  0
  1 22  1  0  0  0  0
  1 23  1  0  0  0  0
  2 20  1  0  0  0  0
  2  3  2  0  0  0  0
  3  4  1  0  0  0  0
  4  5  2  0  0  0  0
  5  6  1  0  0  0  0
  5 20  1  0  0  0  0
  6  7  1  0  0  0  0
  7  8  2  0  0  0  0
  7  9  1  0  0  0  0
  9 10  1  0  0  0  0
  9 24  1  0  0  0  0
 10 11  1  0  0  0  0
 10 25  1  0  0  0  0
 10 26  1  0  0  0  0
 11 19  1  0  0  0  0
 11 12  1  0  0  0  0
 11 27  1  0  0  0  0
 12 13  1  0  0  0  0
 12 28  1  0  0  0  0
 12 29  1  0  0  0  0
 13 17  1  0  0  0  0
 13 14  1  0  0  0  0
 13 39  1  0  0  0  0
 14 15  1  0  0  0  0
 14 30  1  0  0  0  0
 14 31  1  0  0  0  0
 15 16  1  0  0  0  0
 15 32  1  0  0  0  0
 15 33  1  0  0  0  0
 16 17  1  0  0  0  0
 16 34  1  0  0  0  0
 16 35  1  0  0  0  0
 17 18  1  0  0  0  0
 17 36  1  0  0  0  0
 18 19  1  0  0  0  0
 18 37  1  0  0  0  0
 18 38  1  0  0  0  0
M  CHG  1   6  -1
M  CHG  1  13   1
M  END
> <s_m_source_file>
AV-unprocessed.smi

> <i_m_source_file_index>
1809

> <i_lp_mmshare_version>
43012

> <i_f3d_flags>
0

> <s_epik_input>
W0NIM11jMW5uYyhzMSlbTkhdQyg9TylbTkhdW0NIMl1bQ0BIXShbQ0gyXTIpT1tDSDJdW0NAQEhdKE4yMylbQ0gyXVtDSDJdW0NIMl0z

> <s_epik_cmdline>
J2VwaWtfcHl0aG9uJywgJy1waCcsICc3LjAnLCAnLXRuJywgJzgnLCAnLW1hJywgJzIwMCcsICctbWV0YWxfYmluZGluZycsICctaW1hZScsICc8aW5maWxlLm1hZT4nLCAnLW9tYWUnLCAnPG91dGZpbGUubWFlPic=

> <r_lp_tautomer_probability>
1

> <r_epik_Ionization_Penalty>
3.2601

> <r_epik_Ionization_Penalty_Charging>
3.1406

> <r_epik_Ionization_Penalty_Neutral>
0.119497

> <r_epik_State_Penalty>
3.08894

> <r_epik_Charging_Adjusted_Penalty>
6.22954

> <i_epik_Tot_Q>
0

> <i_epik_Tot_abs_Q>
2

> <r_epik_Metal_State_Penalty>
0.510807

> <b_epik_Metal_Only>
1

> <s_lp_Force_Field>
OPLS_2005

> <r_lp_Energy>
28.9947

> <b_lp_Chiralities_Consistent>
1

> <s_lp_Variant>
AV-unprocessed.smi:1809-16

> <Gold.Version>
5.8.1

> <Gold.Id.Protein>
6NUR|6NUR_protein|mol2

> <Gold.PLP.Fitness>
40.4653

> <Gold.PLP.PLP>
-29.6029

> <Gold.PLP.part.hbond>
-3.0000

> <Gold.PLP.part.metal>
0.0000

> <Gold.PLP.part.buried>
-3.0232

> <Gold.PLP.part.nonpolar>
-22.5264

> <Gold.PLP.part.repulsive>
0.1374

> <Gold.PLP.ligand.clash>
0.0000

> <Gold.PLP.ligand.torsion>
0.2681

> <Gold.PLP.Chemscore.Hbond>
3.7920

> <Gold.PLP.Chemscore.CHOScore>
0.0000

> <Gold.PLP.Chemscore.Metal>
0.0000

> <Gold.Chemscore.Hbonds>
donor molecule, donor type, donor heavy atom, donor atom, acceptor molecule, acceptor atom, score
      L1  H    13    39       P1  7948  2.00
      P1  H  6931  6943       L1     4  0.77
      P1  H  6934  6947       L1     4  0.94

> <Gold.PLP.Chemscore.Internal.Correction>
0.0225

> <Gold.Rescore>
     Score         DG    S(hbond)    S(metal)    S(lipo)     H(rot)  DE(clash)    DE(int)     intcor
     14.60     -16.37       1.93        0.00      66.87       1.32       0.03       1.74       ----

> <Gold.Chemscore.Fitness>
14.5978

> <Gold.Chemscore.DG>
-16.3677

> <Gold.Chemscore.ZeroCoef>
-5.4800

> <Gold.Chemscore.Hbond>
1.9326

> <Gold.Chemscore.Metal>
0.0000

> <Gold.Chemscore.Lipo>
66.8701

> <Gold.Chemscore.Internal_Hbond>
0.0000

> <Gold.Chemscore.DEClash>
0.0268

> <Gold.Chemscore.DEInternal>
1.7431

> <Gold.Chemscore.Rot>
1.3246

> <Gold.Chemscore.Internal.Correction>
   9.000000E+99

> <Gold.Chemscore.Hbonds>
donor molecule, donor type, donor heavy atom, donor atom, acceptor molecule, acceptor atom, score
      L1  H    13    39       P1  7948  0.77
      P1  H  6931  6943       L1     4  0.29
      P1  H  6934  6947       L1     4  0.64

> <Gold.Chemscore.Hbond.Weighted>
-6.4549

> <Gold.Chemscore.Metal.Weighted>
-0.0000

> <Gold.Chemscore.Lipo.Weighted>
-7.8238

> <Gold.Chemscore.Internal_Hbond.Weighted>
0.0000

> <Gold.Chemscore.DEClash.Weighted>
0.0268

> <Gold.Chemscore.DEInternal.Weighted>
1.7431

> <Gold.Chemscore.Rot.Weighted>
3.3910

> <Gold.Chemscore.Internal.Correction.Weighted>
   9.000000E+99

> <Gold.Protein.RotatedTorsions>
[ 6907 6896 6895 6894 ] final  131.16 input  -60.11 | X-H torsion
[ 7974 7965 7964 7962 ] final  -17.14 input  175.53 | X-H torsion
[ 8008 7997 7996 7995 ] final  109.56 input   59.86 | X-H torsion
[ 10167 10162 10161 10158 ] final -124.25 input  -65.29 | X-H torsion
[ 10718 10713 10712 10709 ] final  -36.33 input   66.30 | X-H torsion
[ 10763 10752 10751 10750 ] final  178.57 input  -60.55 | X-H torsion
[ 11005 11000 10999 10996 ] final -106.40 input  -57.11 | X-H torsion

> <Gold.Protein.ActiveResidues>
 VAL166  LYS551  ARG553  GLY616  TRP617  ASP618  TYR619  PRO620  LYS621  CYS622 
 ASP623  PHE694  ASN695  SER759  ASP760  ASP761  ALA762  ILE779  LEU786  VAL792 
 PHE793  MET794  SER795  GLU796  ALA797  LYS798  CYS799  TRP800  GLU811  SER814 

> <Gold.Protein.RotatedAtoms>
  152.3454  133.6116  159.5905 H   0  0  0  0  0  0  0  0  0  0  0  0  # atno 6907 bound_to 6896
  150.7504  133.9658  159.3539 H   0  0  0  0  0  0  0  0  0  0  0  0  # atno 6908 bound_to 6896
  151.7516  135.0832  160.0383 H   0  0  0  0  0  0  0  0  0  0  0  0  # atno 6909 bound_to 6896
  146.1955  140.3736  142.8442 H   0  0  0  0  0  0  0  0  0  0  0  0  # atno 7974 bound_to 7965
  156.1988  140.3055  155.9484 H   0  0  0  0  0  0  0  0  0  0  0  0  # atno 8008 bound_to 7997
  155.3002  140.0446  157.3046 H   0  0  0  0  0  0  0  0  0  0  0  0  # atno 8009 bound_to 7997
  154.5544  140.2301  155.8442 H   0  0  0  0  0  0  0  0  0  0  0  0  # atno 8010 bound_to 7997
  139.9948  143.5602  152.2327 H   0  0  0  0  0  0  0  0  0  0  0  0  # atno 10167 bound_to 10162
  156.3281  130.4275  149.7898 H   0  0  0  0  0  0  0  0  0  0  0  0  # atno 10718 bound_to 10713
  154.5094  135.2787  155.1355 H   0  0  0  0  0  0  0  0  0  0  0  0  # atno 10763 bound_to 10752
  154.2957  135.6258  153.5407 H   0  0  0  0  0  0  0  0  0  0  0  0  # atno 10764 bound_to 10752
  152.9916  135.5684  154.5555 H   0  0  0  0  0  0  0  0  0  0  0  0  # atno 10765 bound_to 10752
  141.1006  133.8890  157.1851 H   0  0  0  0  0  0  0  0  0  0  0  0  # atno 11005 bound_to 11000
  144.8572  140.7087  143.6130 LP  0  0  0  0  0  0  0  0  0  0  0  0  # atno 17320 bound_to 7965
  145.3657  139.1671  143.4359 LP  0  0  0  0  0  0  0  0  0  0  0  0  # atno 17321 bound_to 7965
  139.6314  144.7644  151.2529 LP  0  0  0  0  0  0  0  0  0  0  0  0  # atno 17342 bound_to 10162
  140.7441  143.6474  150.8280 LP  0  0  0  0  0  0  0  0  0  0  0  0  # atno 17343 bound_to 10162
  156.5180  130.8202  151.3193 LP  0  0  0  0  0  0  0  0  0  0  0  0  # atno 17370 bound_to 10713
  157.7425  130.9892  150.2522 LP  0  0  0  0  0  0  0  0  0  0  0  0  # atno 17371 bound_to 10713
  139.9857  135.0083  156.9856 LP  0  0  0  0  0  0  0  0  0  0  0  0  # atno 17394 bound_to 11000
  140.5030  134.1078  155.7254 LP  0  0  0  0  0  0  0  0  0  0  0  0  # atno 17395 bound_to 11000

$$$$
