AV-unprocessed.smi:2550|AV-procd|sdf|10011|dock2
  -GOLD-   2272014 53D 1   1.00000     0.00000
 Structure written by MMmdl.
 28 29  0  0  0  0  0  0  0  0  2 V2000
  151.3103  137.3397  156.3292 C   0  0  0  0  0  0  0  0  0  0  0  0
  151.4914  138.0122  154.9587 C   0  0  0  0  0  0  0  0  0  0  0  0
  152.8818  138.6501  154.8067 C   0  0  0  0  0  0  0  0  0  0  0  0
  151.3901  136.9945  153.9801 O   0  0  0  0  0  0  0  0  0  0  0  0
  150.3880  139.0026  154.6721 C   0  0  0  0  0  0  0  0  0  0  0  0
  149.0384  138.8129  154.5424 C   0  0  0  0  0  0  0  0  0  0  0  0
  148.5549  140.0804  154.2994 N   0  0  0  0  0  0  0  0  0  0  0  0
  147.2047  140.4627  154.0128 C   0  0  0  0  0  0  0  0  0  0  0  0
  146.8004  141.9331  153.9046 C   0  0  0  0  0  0  0  0  0  0  0  0
  145.5127  141.5567  154.4746 N   0  3  0  0  0  0  0  0  0  0  0  0
  146.1274  140.3884  155.0926 C   0  0  0  0  0  0  0  0  0  0  0  0
  149.5533  140.9903  154.2323 N   0  0  0  0  0  0  0  0  0  0  0  0
  150.6581  140.3593  154.4754 N   0  0  0  0  0  0  0  0  0  0  0  0
  151.3741  138.0689  157.1376 H   0  0  0  0  0  0  0  0  0  0  0  0
  152.0776  136.5856  156.5076 H   0  0  0  0  0  0  0  0  0  0  0  0
  150.3394  136.8487  156.4055 H   0  0  0  0  0  0  0  0  0  0  0  0
  153.0267  139.4568  155.5260 H   0  0  0  0  0  0  0  0  0  0  0  0
  153.0189  139.0703  153.8095 H   0  0  0  0  0  0  0  0  0  0  0  0
  153.6748  137.9196  154.9699 H   0  0  0  0  0  0  0  0  0  0  0  0
  151.0737  137.3814  153.1780 H   0  0  0  0  0  0  0  0  0  0  0  0
  148.4164  137.9317  154.6009 H   0  0  0  0  0  0  0  0  0  0  0  0
  146.9049  139.9068  153.1215 H   0  0  0  0  0  0  0  0  0  0  0  0
  147.3640  142.5938  154.5665 H   0  0  0  0  0  0  0  0  0  0  0  0
  146.7413  142.3214  152.8875 H   0  0  0  0  0  0  0  0  0  0  0  0
  145.1433  142.2254  155.1353 H   0  0  0  0  0  0  0  0  0  0  0  0
  145.5080  139.4915  155.0643 H   0  0  0  0  0  0  0  0  0  0  0  0
  146.4988  140.6013  156.0970 H   0  0  0  0  0  0  0  0  0  0  0  0
  144.8538  141.2914  153.7563 H   0  0  0  0  0  0  0  0  0  0  0  0
  1  2  1  0  0  0  0
  1 14  1  0  0  0  0
  1 15  1  0  0  0  0
  1 16  1  0  0  0  0
  2  3  1  0  0  0  0
  2  4  1  0  0  0  0
  2  5  1  0  0  0  0
  3 17  1  0  0  0  0
  3 18  1  0  0  0  0
  3 19  1  0  0  0  0
  4 20  1  0  0  0  0
  5 13  1  0  0  0  0
  5  6  2  0  0  0  0
  6  7  1  0  0  0  0
  6 21  1  0  0  0  0
  7  8  1  0  0  0  0
  7 12  1  0  0  0  0
  8 11  1  0  0  0  0
  8  9  1  0  0  0  0
  8 22  1  0  0  0  0
  9 10  1  0  0  0  0
  9 23  1  0  0  0  0
  9 24  1  0  0  0  0
 10 11  1  0  0  0  0
 10 25  1  0  0  0  0
 10 28  1  0  0  0  0
 11 26  1  0  0  0  0
 11 27  1  0  0  0  0
 12 13  2  0  0  0  0
M  CHG  1  10   1
M  END
> <s_m_source_file>
AV-unprocessed.smi

> <i_m_source_file_index>
2550

> <i_lp_mmshare_version>
43012

> <i_f3d_flags>
0

> <s_epik_input>
W0NIM11DKFtDSDNdKShbT0hdKWMxW2NIXW4obm4xKVtDSF0yW0NIMl1bTkhdW0NIMl0y

> <s_epik_cmdline>
J2VwaWtfcHl0aG9uJywgJy1waCcsICc3LjAnLCAnLXRuJywgJzgnLCAnLW1hJywgJzIwMCcsICctbWV0YWxfYmluZGluZycsICctaW1hZScsICc8aW5maWxlLm1hZT4nLCAnLW9tYWUnLCAnPG91dGZpbGUubWFlPic=

> <r_lp_tautomer_probability>
1

> <r_epik_Ionization_Penalty>
0.215038

> <r_epik_Ionization_Penalty_Charging>
0.215038

> <r_epik_Ionization_Penalty_Neutral>
3.71976e-07

> <r_epik_State_Penalty>
0.20523

> <r_epik_Charging_Adjusted_Penalty>
0.420268

> <i_epik_Tot_Q>
1

> <i_epik_Tot_abs_Q>
1

> <r_epik_Metal_State_Penalty>
0.20531

> <b_epik_Metal_Only>
0

> <s_lp_Force_Field>
OPLS_2005

> <r_lp_Energy>
9.80929

> <b_lp_Chiralities_Consistent>
1

> <s_lp_Variant>
AV-unprocessed.smi:2550-1

> <Gold.Version>
5.8.1

> <Gold.Id.Protein>
6NUR|6NUR_protein|mol2

> <Gold.PLP.Fitness>
37.5230

> <Gold.PLP.PLP>
-25.2673

> <Gold.PLP.part.hbond>
-5.1907

> <Gold.PLP.part.metal>
0.0000

> <Gold.PLP.part.buried>
-4.3767

> <Gold.PLP.part.nonpolar>
-16.6768

> <Gold.PLP.part.repulsive>
0.5892

> <Gold.PLP.ligand.clash>
0.0000

> <Gold.PLP.ligand.torsion>
0.2331

> <Gold.PLP.Chemscore.Hbond>
4.1329

> <Gold.PLP.Chemscore.CHOScore>
0.0000

> <Gold.PLP.Chemscore.Metal>
0.0000

> <Gold.Chemscore.Hbonds>
donor molecule, donor type, donor heavy atom, donor atom, acceptor molecule, acceptor atom, score
      L1  H     4    20       P1  7949  0.15
      L1  H    10    28       P1 10175  2.00
      P1  H  7989  7998       L1    13  0.84
      P1  H  8011  8017       L1    12  0.09
      P1  H 10752 10765       L1     4  0.93

> <Gold.PLP.Chemscore.Internal.Correction>
0.3232

> <Gold.Rescore>
     Score         DG    S(hbond)    S(metal)    S(lipo)     H(rot)  DE(clash)    DE(int)     intcor
     15.44     -15.71       2.77        0.00      47.10       1.78       0.06       0.21       ----

> <Gold.Chemscore.Fitness>
15.4361

> <Gold.Chemscore.DG>
-15.7065

> <Gold.Chemscore.ZeroCoef>
-5.4800

> <Gold.Chemscore.Hbond>
2.7742

> <Gold.Chemscore.Metal>
0.0000

> <Gold.Chemscore.Lipo>
47.1034

> <Gold.Chemscore.Internal_Hbond>
0.0000

> <Gold.Chemscore.DEClash>
0.0618

> <Gold.Chemscore.DEInternal>
0.2086

> <Gold.Chemscore.Rot>
1.7775

> <Gold.Chemscore.Internal.Correction>
   9.000000E+99

> <Gold.Chemscore.Hbonds>
donor molecule, donor type, donor heavy atom, donor atom, acceptor molecule, acceptor atom, score
      L1  H     4    20       P1  7949  0.06
      L1  H    10    28       P1 10175  0.40
      P1  H  7989  7998       L1    13  0.40
      P1  H  8011  8017       L1    12  0.08
      P1  H 10752 10765       L1     4  0.62

> <Gold.Chemscore.Hbond.Weighted>
-9.2657

> <Gold.Chemscore.Metal.Weighted>
-0.0000

> <Gold.Chemscore.Lipo.Weighted>
-5.5111

> <Gold.Chemscore.Internal_Hbond.Weighted>
0.0000

> <Gold.Chemscore.DEClash.Weighted>
0.0618

> <Gold.Chemscore.DEInternal.Weighted>
0.2086

> <Gold.Chemscore.Rot.Weighted>
4.5503

> <Gold.Chemscore.Internal.Correction.Weighted>
   9.000000E+99

> <Gold.Protein.RotatedTorsions>
[ 6907 6896 6895 6894 ] final -159.40 input  -60.11 | X-H torsion
[ 7974 7965 7964 7962 ] final  -71.09 input  175.53 | X-H torsion
[ 8008 7997 7996 7995 ] final -144.76 input   59.86 | X-H torsion
[ 10167 10162 10161 10158 ] final   59.31 input  -65.29 | X-H torsion
[ 10718 10713 10712 10709 ] final -171.43 input   66.30 | X-H torsion
[ 10763 10752 10751 10750 ] final  158.22 input  -60.55 | X-H torsion
[ 11005 11000 10999 10996 ] final  128.78 input  -57.11 | X-H torsion

> <Gold.Protein.ActiveResidues>
 VAL166  LYS551  ARG553  GLY616  TRP617  ASP618  TYR619  PRO620  LYS621  CYS622 
 ASP623  PHE694  ASN695  SER759  ASP760  ASP761  ALA762  ILE779  LEU786  VAL792 
 PHE793  MET794  SER795  GLU796  ALA797  LYS798  CYS799  TRP800  GLU811  SER814 

> <Gold.Protein.RotatedAtoms>
  151.3330  133.3993  159.2664 H   0  0  0  0  0  0  0  0  0  0  0  0  # atno 6907 bound_to 6896
  150.9940  134.9269  159.7926 H   0  0  0  0  0  0  0  0  0  0  0  0  # atno 6908 bound_to 6896
  152.5255  134.3295  159.9230 H   0  0  0  0  0  0  0  0  0  0  0  0  # atno 6909 bound_to 6896
  145.6825  140.9182  143.0824 H   0  0  0  0  0  0  0  0  0  0  0  0  # atno 7974 bound_to 7965
  155.5321  140.0600  157.2887 H   0  0  0  0  0  0  0  0  0  0  0  0  # atno 8008 bound_to 7997
  154.4481  140.1934  156.0549 H   0  0  0  0  0  0  0  0  0  0  0  0  # atno 8009 bound_to 7997
  156.0645  140.3268  155.7505 H   0  0  0  0  0  0  0  0  0  0  0  0  # atno 8010 bound_to 7997
  140.1778  144.4212  150.6630 H   0  0  0  0  0  0  0  0  0  0  0  0  # atno 10167 bound_to 10162
  156.7407  130.9341  151.3110 H   0  0  0  0  0  0  0  0  0  0  0  0  # atno 10718 bound_to 10713
  154.2126  135.2785  155.2953 H   0  0  0  0  0  0  0  0  0  0  0  0  # atno 10763 bound_to 10752
  154.5766  135.5602  153.7149 H   0  0  0  0  0  0  0  0  0  0  0  0  # atno 10764 bound_to 10752
  153.0060  135.6334  154.2265 H   0  0  0  0  0  0  0  0  0  0  0  0  # atno 10765 bound_to 10752
  139.9579  134.9609  156.9052 H   0  0  0  0  0  0  0  0  0  0  0  0  # atno 11005 bound_to 11000
  144.7021  139.8716  143.7441 LP  0  0  0  0  0  0  0  0  0  0  0  0  # atno 17320 bound_to 7965
  146.0951  139.3943  143.0381 LP  0  0  0  0  0  0  0  0  0  0  0  0  # atno 17321 bound_to 7965
  140.6540  143.2232  151.6012 LP  0  0  0  0  0  0  0  0  0  0  0  0  # atno 17342 bound_to 10162
  139.5309  144.2918  152.1146 LP  0  0  0  0  0  0  0  0  0  0  0  0  # atno 17343 bound_to 10162
  157.6820  130.9148  150.0290 LP  0  0  0  0  0  0  0  0  0  0  0  0  # atno 17370 bound_to 10713
  156.1466  130.3642  149.9500 LP  0  0  0  0  0  0  0  0  0  0  0  0  # atno 17371 bound_to 10713
  140.5566  134.0575  155.7385 LP  0  0  0  0  0  0  0  0  0  0  0  0  # atno 17394 bound_to 11000
  141.1253  133.9393  157.2647 LP  0  0  0  0  0  0  0  0  0  0  0  0  # atno 17395 bound_to 11000

$$$$
