AV-unprocessed.smi:2324|AV-procd|sdf|9293|dock4
  -GOLD-   2272012513D 1   1.00000     0.00000
 Structure written by MMmdl.
 37 39  0  0  0  0  0  0  0  0  1 V2000
  149.6816  140.7652  157.5693 O   0  0  0  0  0  0  0  0  0  0  0  0
  149.4543  141.8382  157.0130 C   0  0  0  0  0  0  0  0  0  0  0  0
  148.8479  141.8797  155.8073 N   0  0  0  0  0  0  0  0  0  0  0  0
  148.3703  140.8435  154.9524 C   0  0  0  0  0  0  0  0  0  0  0  0
  147.3111  141.2232  154.1002 C   0  0  0  0  0  0  0  0  0  0  0  0
  146.7774  140.2621  153.2250 C   0  0  0  0  0  0  0  0  0  0  0  0
  147.3418  138.9760  153.2608 C   0  0  0  0  0  0  0  0  0  0  0  0
  148.3553  138.6534  154.0925 N   0  0  0  0  0  0  0  0  0  0  0  0
  148.8566  139.5741  154.9222 N   0  0  0  0  0  0  0  0  0  0  0  0
  149.7822  143.0216  157.5581 N   0  0  0  0  0  0  0  0  0  0  0  0
  150.4306  143.2106  158.8516 C   0  0  2  0  0  0  0  0  0  0  0  0
  150.8565  144.6760  159.0422 C   0  0  0  0  0  0  0  0  0  0  0  0
  151.6857  144.8376  160.3259 C   0  0  0  0  0  0  0  0  0  0  0  0
  152.8095  143.9644  160.2935 O   0  0  0  0  0  0  0  0  0  0  0  0
  152.4485  142.5874  160.2471 C   0  0  2  0  0  0  0  0  0  0  0  0
  153.7191  141.7653  160.3325 C   0  0  0  0  0  0  0  0  0  0  0  0
  153.6594  140.2590  160.4349 C   0  0  0  0  0  0  0  0  0  0  0  0
  154.1099  141.0787  161.6204 C   0  0  0  0  0  0  0  0  0  0  0  0
  151.6672  142.3052  158.9502 C   0  0  0  0  0  0  0  0  0  0  0  0
  148.7105  142.8119  155.4452 H   0  0  0  0  0  0  0  0  0  0  0  0
  146.9142  142.2280  154.1140 H   0  0  0  0  0  0  0  0  0  0  0  0
  145.9670  140.5019  152.5525 H   0  0  0  0  0  0  0  0  0  0  0  0
  146.9762  138.1933  152.6128 H   0  0  0  0  0  0  0  0  0  0  0  0
  149.5614  143.8569  157.0344 H   0  0  0  0  0  0  0  0  0  0  0  0
  149.7374  142.9322  159.6476 H   0  0  0  0  0  0  0  0  0  0  0  0
  151.4519  145.0029  158.1886 H   0  0  0  0  0  0  0  0  0  0  0  0
  149.9821  145.3266  159.0803 H   0  0  0  0  0  0  0  0  0  0  0  0
  152.0412  145.8642  160.4146 H   0  0  0  0  0  0  0  0  0  0  0  0
  151.0788  144.6347  161.2096 H   0  0  0  0  0  0  0  0  0  0  0  0
  151.8242  142.3513  161.1111 H   0  0  0  0  0  0  0  0  0  0  0  0
  154.5409  142.1676  159.7429 H   0  0  0  0  0  0  0  0  0  0  0  0
  152.6778  139.7924  160.4918 H   0  0  0  0  0  0  0  0  0  0  0  0
  154.4159  139.6898  159.8989 H   0  0  0  0  0  0  0  0  0  0  0  0
  155.1672  141.0555  161.8759 H   0  0  0  0  0  0  0  0  0  0  0  0
  153.4279  141.1583  162.4646 H   0  0  0  0  0  0  0  0  0  0  0  0
  151.3681  141.2569  158.9133 H   0  0  0  0  0  0  0  0  0  0  0  0
  152.3180  142.4744  158.0907 H   0  0  0  0  0  0  0  0  0  0  0  0
  1  2  2  0  0  0  0
  2  3  1  0  0  0  0
  2 10  1  0  0  0  0
  3  4  1  0  0  0  0
  3 20  1  0  0  0  0
  4  9  1  0  0  0  0
  4  5  2  0  0  0  0
  5  6  1  0  0  0  0
  5 21  1  0  0  0  0
  6  7  2  0  0  0  0
  6 22  1  0  0  0  0
  7  8  1  0  0  0  0
  7 23  1  0  0  0  0
  8  9  2  0  0  0  0
 10 11  1  0  0  0  0
 10 24  1  0  0  0  0
 11 19  1  0  0  0  0
 11 12  1  0  0  0  0
 11 25  1  0  0  0  0
 12 13  1  0  0  0  0
 12 26  1  0  0  0  0
 12 27  1  0  0  0  0
 13 14  1  0  0  0  0
 13 28  1  0  0  0  0
 13 29  1  0  0  0  0
 14 15  1  0  0  0  0
 15 16  1  0  0  0  0
 15 19  1  0  0  0  0
 15 30  1  0  0  0  0
 16 18  1  0  0  0  0
 16 17  1  0  0  0  0
 16 31  1  0  0  0  0
 17 18  1  0  0  0  0
 17 32  1  0  0  0  0
 17 33  1  0  0  0  0
 18 34  1  0  0  0  0
 18 35  1  0  0  0  0
 19 36  1  0  0  0  0
 19 37  1  0  0  0  0
M  END
> <s_m_source_file>
AV-unprocessed.smi

> <i_m_source_file_index>
2324

> <i_lp_mmshare_version>
43012

> <i_f3d_flags>
0

> <s_epik_input>
bjFuW2NIXVtjSF1bY0hdYzFbTkhdQyg9TylbTkhdW0NAQEhdMltDSDJdW0NIMl1PW0NASF0oW0NIMl0yKVtDSF0zW0NIMl1bQ0gyXTM=

> <s_epik_cmdline>
J2VwaWtfcHl0aG9uJywgJy1waCcsICc3LjAnLCAnLXRuJywgJzgnLCAnLW1hJywgJzIwMCcsICctbWV0YWxfYmluZGluZycsICctaW1hZScsICc8aW5maWxlLm1hZT4nLCAnLW9tYWUnLCAnPG91dGZpbGUubWFlPic=

> <r_lp_tautomer_probability>
1

> <r_epik_Ionization_Penalty>
0.00521499

> <r_epik_Ionization_Penalty_Charging>
0

> <r_epik_Ionization_Penalty_Neutral>
0.00521499

> <r_epik_State_Penalty>
-0

> <r_epik_Charging_Adjusted_Penalty>
0

> <i_epik_Tot_Q>
0

> <i_epik_Tot_abs_Q>
0

> <r_epik_Metal_State_Penalty>
-0

> <b_epik_Metal_Only>
0

> <s_lp_Force_Field>
OPLS_2005

> <r_lp_Energy>
26.0154

> <b_lp_Chiralities_Consistent>
1

> <s_lp_Variant>
AV-unprocessed.smi:2324-3

> <Gold.Version>
5.8.1

> <Gold.Id.Protein>
6NUR|6NUR_protein|mol2

> <Gold.PLP.Fitness>
42.6646

> <Gold.PLP.PLP>
-35.2424

> <Gold.PLP.part.hbond>
-2.0000

> <Gold.PLP.part.metal>
0.0000

> <Gold.PLP.part.buried>
-0.1967

> <Gold.PLP.part.nonpolar>
-33.5303

> <Gold.PLP.part.repulsive>
0.5235

> <Gold.PLP.ligand.clash>
0.0000

> <Gold.PLP.ligand.torsion>
0.8734

> <Gold.PLP.Chemscore.Hbond>
1.9920

> <Gold.PLP.Chemscore.CHOScore>
0.7070

> <Gold.PLP.Chemscore.Metal>
0.0000

> <Gold.Chemscore.Hbonds>
donor molecule, donor type, donor heavy atom, donor atom, acceptor molecule, acceptor atom, score
      L1  H     3    20       P1  8028  1.00
      L1  H    10    24       P1  8028  1.00
      L1  C     7    23       P1  7948  0.11

> <Gold.PLP.Chemscore.Internal.Correction>
1.0719

> <Gold.Rescore>
     Score         DG    S(hbond)    S(metal)    S(lipo)     H(rot)  DE(clash)    DE(int)     intcor
     17.42     -19.97       1.82        0.00      99.30       1.25       0.02       2.53       ----

> <Gold.Chemscore.Fitness>
17.4225

> <Gold.Chemscore.DG>
-19.9714

> <Gold.Chemscore.ZeroCoef>
-5.4800

> <Gold.Chemscore.Hbond>
1.8165

> <Gold.Chemscore.Metal>
0.0000

> <Gold.Chemscore.Lipo>
99.3009

> <Gold.Chemscore.Internal_Hbond>
0.0000

> <Gold.Chemscore.DEClash>
0.0180

> <Gold.Chemscore.DEInternal>
2.5309

> <Gold.Chemscore.Rot>
1.2476

> <Gold.Chemscore.Internal.Correction>
   9.000000E+99

> <Gold.Chemscore.Hbonds>
donor molecule, donor type, donor heavy atom, donor atom, acceptor molecule, acceptor atom, score
      L1  H     3    20       P1  8028  0.94
      L1  H    10    24       P1  8028  0.81

> <Gold.Chemscore.Hbond.Weighted>
-6.0670

> <Gold.Chemscore.Metal.Weighted>
-0.0000

> <Gold.Chemscore.Lipo.Weighted>
-11.6182

> <Gold.Chemscore.Internal_Hbond.Weighted>
0.0000

> <Gold.Chemscore.DEClash.Weighted>
0.0180

> <Gold.Chemscore.DEInternal.Weighted>
2.5309

> <Gold.Chemscore.Rot.Weighted>
3.1938

> <Gold.Chemscore.Internal.Correction.Weighted>
   9.000000E+99

> <Gold.Protein.RotatedTorsions>
[ 6907 6896 6895 6894 ] final   92.92 input  -60.11 | X-H torsion
[ 7974 7965 7964 7962 ] final   -9.64 input  175.53 | X-H torsion
[ 8008 7997 7996 7995 ] final  -86.50 input   59.86 | X-H torsion
[ 10167 10162 10161 10158 ] final -169.26 input  -65.29 | X-H torsion
[ 10718 10713 10712 10709 ] final  161.20 input   66.30 | X-H torsion
[ 10763 10752 10751 10750 ] final  129.69 input  -60.55 | X-H torsion
[ 11005 11000 10999 10996 ] final   10.81 input  -57.11 | X-H torsion

> <Gold.Protein.ActiveResidues>
 VAL166  LYS551  ARG553  GLY616  TRP617  ASP618  TYR619  PRO620  LYS621  CYS622 
 ASP623  PHE694  ASN695  SER759  ASP760  ASP761  ALA762  ILE779  LEU786  VAL792 
 PHE793  MET794  SER795  GLU796  ALA797  LYS798  CYS799  TRP800  GLU811  SER814 

> <Gold.Protein.RotatedAtoms>
  152.5453  134.1427  159.8485 H   0  0  0  0  0  0  0  0  0  0  0  0  # atno 6907 bound_to 6896
  151.1461  133.4931  159.2603 H   0  0  0  0  0  0  0  0  0  0  0  0  # atno 6908 bound_to 6896
  151.1521  135.0243  159.8727 H   0  0  0  0  0  0  0  0  0  0  0  0  # atno 6909 bound_to 6896
  146.2245  140.2646  142.8353 H   0  0  0  0  0  0  0  0  0  0  0  0  # atno 7974 bound_to 7965
  154.6526  140.0577  156.9973 H   0  0  0  0  0  0  0  0  0  0  0  0  # atno 8008 bound_to 7997
  155.1348  140.3260  155.4447 H   0  0  0  0  0  0  0  0  0  0  0  0  # atno 8009 bound_to 7997
  156.2583  140.1974  156.6466 H   0  0  0  0  0  0  0  0  0  0  0  0  # atno 8010 bound_to 7997
  139.5933  144.1165  152.1660 H   0  0  0  0  0  0  0  0  0  0  0  0  # atno 10167 bound_to 10162
  157.1398  131.0537  151.2332 H   0  0  0  0  0  0  0  0  0  0  0  0  # atno 10718 bound_to 10713
  153.7458  135.3217  155.3312 H   0  0  0  0  0  0  0  0  0  0  0  0  # atno 10763 bound_to 10752
  154.8280  135.4555  154.0981 H   0  0  0  0  0  0  0  0  0  0  0  0  # atno 10764 bound_to 10752
  153.2169  135.6943  153.8128 H   0  0  0  0  0  0  0  0  0  0  0  0  # atno 10765 bound_to 10752
  140.5102  134.0659  155.7816 H   0  0  0  0  0  0  0  0  0  0  0  0  # atno 11005 bound_to 11000
  144.9314  140.7979  143.5687 LP  0  0  0  0  0  0  0  0  0  0  0  0  # atno 17320 bound_to 7965
  145.2590  139.2000  143.4902 LP  0  0  0  0  0  0  0  0  0  0  0  0  # atno 17321 bound_to 7965
  140.0745  144.5752  150.7167 LP  0  0  0  0  0  0  0  0  0  0  0  0  # atno 17342 bound_to 10162
  140.7191  143.2572  151.4336 LP  0  0  0  0  0  0  0  0  0  0  0  0  # atno 17343 bound_to 10162
  157.4318  130.7494  149.6996 LP  0  0  0  0  0  0  0  0  0  0  0  0  # atno 17370 bound_to 10713
  155.9791  130.4044  150.3609 LP  0  0  0  0  0  0  0  0  0  0  0  0  # atno 17371 bound_to 10713
  141.1389  133.9173  157.2370 LP  0  0  0  0  0  0  0  0  0  0  0  0  # atno 17394 bound_to 11000
  139.9663  135.0141  156.9395 LP  0  0  0  0  0  0  0  0  0  0  0  0  # atno 17395 bound_to 11000

$$$$
