AV-unprocessed.smi:1488|AV-procd|sdf|6023|dock8
  -GOLD-   22720 6123D 1   1.00000     0.00000
 Structure written by MMmdl.
 36 37  0  0  0  0  0  0  0  0  1 V2000
  138.3184  136.9960  153.9682 C   0  0  0  0  0  0  0  0  0  0  0  0
  139.8016  137.1193  154.0412 C   0  0  0  0  0  0  0  0  0  0  0  0
  140.6760  138.0876  153.6345 C   0  0  0  0  0  0  0  0  0  0  0  0
  141.9380  137.5595  154.0162 C   0  0  0  0  0  0  0  0  0  0  0  0
  143.1342  138.2788  153.7650 N   0  0  0  0  0  0  0  0  0  0  0  0
  144.3519  138.0489  154.2855 C   0  0  0  0  0  0  0  0  0  0  0  0
  144.6227  137.1545  155.0872 O   0  0  0  0  0  0  0  0  0  0  0  0
  145.2532  138.9294  153.8257 N   0  0  0  0  0  0  0  0  0  0  0  0
  146.6621  138.9666  154.2062 C   0  0  2  0  0  0  0  0  0  0  0  0
  146.8109  138.9292  155.7399 C   0  0  0  0  0  0  0  0  0  0  0  0
  148.2838  139.0413  156.1648 C   0  0  0  0  0  0  0  0  0  0  0  0
  148.9521  140.3086  155.5909 C   0  0  1  0  0  0  0  0  0  0  0  0
  150.4272  140.4322  156.0256 C   0  0  0  0  0  0  0  0  0  0  0  0
  150.5663  140.1438  157.3200 F   0  0  0  0  0  0  0  0  0  0  0  0
  151.1842  139.5971  155.3141 F   0  0  0  0  0  0  0  0  0  0  0  0
  150.8638  141.6735  155.8114 F   0  0  0  0  0  0  0  0  0  0  0  0
  148.7964  140.3379  154.0555 C   0  0  0  0  0  0  0  0  0  0  0  0
  147.3229  140.2315  153.6303 C   0  0  0  0  0  0  0  0  0  0  0  0
  141.8427  136.3749  154.6006 N   0  0  0  0  0  0  0  0  0  0  0  0
  140.4731  136.0865  154.6190 O   0  0  0  0  0  0  0  0  0  0  0  0
  137.8610  137.9484  153.6997 H   0  0  0  0  0  0  0  0  0  0  0  0
  137.9076  136.6835  154.9284 H   0  0  0  0  0  0  0  0  0  0  0  0
  138.0294  136.2585  153.2196 H   0  0  0  0  0  0  0  0  0  0  0  0
  140.4463  139.0226  153.1451 H   0  0  0  0  0  0  0  0  0  0  0  0
  143.0521  139.0552  153.1257 H   0  0  0  0  0  0  0  0  0  0  0  0
  144.9421  139.6295  153.1684 H   0  0  0  0  0  0  0  0  0  0  0  0
  147.1688  138.0978  153.7811 H   0  0  0  0  0  0  0  0  0  0  0  0
  146.2422  139.7459  156.1874 H   0  0  0  0  0  0  0  0  0  0  0  0
  146.3879  138.0057  156.1368 H   0  0  0  0  0  0  0  0  0  0  0  0
  148.3449  139.0453  157.2534 H   0  0  0  0  0  0  0  0  0  0  0  0
  148.8239  138.1548  155.8303 H   0  0  0  0  0  0  0  0  0  0  0  0
  148.4213  141.1729  155.9932 H   0  0  0  0  0  0  0  0  0  0  0  0
  149.2221  141.2572  153.6524 H   0  0  0  0  0  0  0  0  0  0  0  0
  149.3610  139.5175  153.6110 H   0  0  0  0  0  0  0  0  0  0  0  0
  147.2558  140.2249  152.5415 H   0  0  0  0  0  0  0  0  0  0  0  0
  146.7849  141.1185  153.9678 H   0  0  0  0  0  0  0  0  0  0  0  0
  1  2  1  0  0  0  0
  1 21  1  0  0  0  0
  1 22  1  0  0  0  0
  1 23  1  0  0  0  0
  2 20  1  0  0  0  0
  2  3  2  0  0  0  0
  3  4  1  0  0  0  0
  3 24  1  0  0  0  0
  4  5  1  0  0  0  0
  4 19  2  0  0  0  0
  5  6  1  0  0  0  0
  5 25  1  0  0  0  0
  6  7  2  0  0  0  0
  6  8  1  0  0  0  0
  8  9  1  0  0  0  0
  8 26  1  0  0  0  0
  9 18  1  0  0  0  0
  9 10  1  0  0  0  0
  9 27  1  0  0  0  0
 10 11  1  0  0  0  0
 10 28  1  0  0  0  0
 10 29  1  0  0  0  0
 11 12  1  0  0  0  0
 11 30  1  0  0  0  0
 11 31  1  0  0  0  0
 12 13  1  0  0  0  0
 12 17  1  0  0  0  0
 12 32  1  0  0  0  0
 13 14  1  0  0  0  0
 13 15  1  0  0  0  0
 13 16  1  0  0  0  0
 17 18  1  0  0  0  0
 17 33  1  0  0  0  0
 17 34  1  0  0  0  0
 18 35  1  0  0  0  0
 18 36  1  0  0  0  0
 19 20  1  0  0  0  0
M  END
> <s_m_source_file>
AV-unprocessed.smi

> <i_m_source_file_index>
1488

> <i_lp_mmshare_version>
43012

> <i_f3d_flags>
0

> <s_epik_input>
W0NIM11jMVtjSF1jKG5vMSlbTkhdQyg9TylbTkhdW0NAQEhdMltDSDJdW0NIMl1bQ0BASF0oQyhGKShGKUYpW0NIMl1bQ0gyXTI=

> <s_epik_cmdline>
J2VwaWtfcHl0aG9uJywgJy1waCcsICc3LjAnLCAnLXRuJywgJzgnLCAnLW1hJywgJzIwMCcsICctbWV0YWxfYmluZGluZycsICctaW1hZScsICc8aW5maWxlLm1hZT4nLCAnLW9tYWUnLCAnPG91dGZpbGUubWFlPic=

> <r_lp_tautomer_probability>
1

> <r_epik_Ionization_Penalty>
2.30349e-05

> <r_epik_Ionization_Penalty_Charging>
0

> <r_epik_Ionization_Penalty_Neutral>
2.30349e-05

> <r_epik_State_Penalty>
-0

> <r_epik_Charging_Adjusted_Penalty>
0

> <i_epik_Tot_Q>
0

> <i_epik_Tot_abs_Q>
0

> <r_epik_Metal_State_Penalty>
-0

> <b_epik_Metal_Only>
0

> <s_lp_Force_Field>
OPLS_2005

> <r_lp_Energy>
8.97319

> <b_lp_Chiralities_Consistent>
1

> <s_lp_Variant>
AV-unprocessed.smi:1488-1

> <Gold.Version>
5.8.1

> <Gold.Id.Protein>
6NUR|6NUR_protein|mol2

> <Gold.PLP.Fitness>
35.0436

> <Gold.PLP.PLP>
-26.9757

> <Gold.PLP.part.hbond>
-3.0000

> <Gold.PLP.part.metal>
0.0000

> <Gold.PLP.part.buried>
-3.2449

> <Gold.PLP.part.nonpolar>
-21.1478

> <Gold.PLP.part.repulsive>
0.1432

> <Gold.PLP.ligand.clash>
0.0000

> <Gold.PLP.ligand.torsion>
0.4264

> <Gold.PLP.Chemscore.Hbond>
2.9680

> <Gold.PLP.Chemscore.CHOScore>
0.0000

> <Gold.PLP.Chemscore.Metal>
0.0000

> <Gold.Chemscore.Hbonds>
donor molecule, donor type, donor heavy atom, donor atom, acceptor molecule, acceptor atom, score
      L1  H     5    25       P1 10175  1.00
      L1  H     8    26       P1 10175  0.98
      P1  H 11000 11005       L1    20  0.93

> <Gold.PLP.Chemscore.Internal.Correction>
0.0167

> <Gold.Rescore>
     Score         DG    S(hbond)    S(metal)    S(lipo)     H(rot)  DE(clash)    DE(int)     intcor
     15.05     -17.69       2.81        0.00      45.89       1.00       0.03       2.61       ----

> <Gold.Chemscore.Fitness>
15.0473

> <Gold.Chemscore.DG>
-17.6898

> <Gold.Chemscore.ZeroCoef>
-5.4800

> <Gold.Chemscore.Hbond>
2.8145

> <Gold.Chemscore.Metal>
0.0000

> <Gold.Chemscore.Lipo>
45.8932

> <Gold.Chemscore.Internal_Hbond>
0.0000

> <Gold.Chemscore.DEClash>
0.0319

> <Gold.Chemscore.DEInternal>
2.6107

> <Gold.Chemscore.Rot>
1.0000

> <Gold.Chemscore.Internal.Correction>
   9.000000E+99

> <Gold.Chemscore.Hbonds>
donor molecule, donor type, donor heavy atom, donor atom, acceptor molecule, acceptor atom, score
      L1  H     5    25       P1 10175  0.96
      L1  H     8    26       P1 10175  0.93
      P1  H 11000 11005       L1    20  0.70

> <Gold.Chemscore.Hbond.Weighted>
-9.4003

> <Gold.Chemscore.Metal.Weighted>
-0.0000

> <Gold.Chemscore.Lipo.Weighted>
-5.3695

> <Gold.Chemscore.Internal_Hbond.Weighted>
0.0000

> <Gold.Chemscore.DEClash.Weighted>
0.0319

> <Gold.Chemscore.DEInternal.Weighted>
2.6107

> <Gold.Chemscore.Rot.Weighted>
2.5600

> <Gold.Chemscore.Internal.Correction.Weighted>
   9.000000E+99

> <Gold.Protein.RotatedTorsions>
[ 6907 6896 6895 6894 ] final  163.85 input  -60.11 | X-H torsion
[ 7974 7965 7964 7962 ] final -114.48 input  175.53 | X-H torsion
[ 8008 7997 7996 7995 ] final  -38.13 input   59.86 | X-H torsion
[ 10167 10162 10161 10158 ] final  112.89 input  -65.29 | X-H torsion
[ 10718 10713 10712 10709 ] final   16.99 input   66.30 | X-H torsion
[ 10763 10752 10751 10750 ] final -100.84 input  -60.55 | X-H torsion
[ 11005 11000 10999 10996 ] final   55.59 input  -57.11 | X-H torsion

> <Gold.Protein.ActiveResidues>
 VAL166  LYS551  ARG553  GLY616  TRP617  ASP618  TYR619  PRO620  LYS621  CYS622 
 ASP623  PHE694  ASN695  SER759  ASP760  ASP761  ALA762  ILE779  LEU786  VAL792 
 PHE793  MET794  SER795  GLU796  ALA797  LYS798  CYS799  TRP800  GLU811  SER814 

> <Gold.Protein.RotatedAtoms>
  151.9189  133.3580  159.3889 H   0  0  0  0  0  0  0  0  0  0  0  0  # atno 6907 bound_to 6896
  150.7041  134.4656  159.5410 H   0  0  0  0  0  0  0  0  0  0  0  0  # atno 6908 bound_to 6896
  152.2275  134.8354  160.0529 H   0  0  0  0  0  0  0  0  0  0  0  0  # atno 6909 bound_to 6896
  145.1196  140.8661  143.3821 H   0  0  0  0  0  0  0  0  0  0  0  0  # atno 7974 bound_to 7965
  154.4042  140.1586  156.2650 H   0  0  0  0  0  0  0  0  0  0  0  0  # atno 8008 bound_to 7997
  155.9003  140.3433  155.5999 H   0  0  0  0  0  0  0  0  0  0  0  0  # atno 8009 bound_to 7997
  155.7455  140.0798  157.2216 H   0  0  0  0  0  0  0  0  0  0  0  0  # atno 8010 bound_to 7997
  139.6502  144.7128  151.2064 H   0  0  0  0  0  0  0  0  0  0  0  0  # atno 10167 bound_to 10162
  157.0758  130.6367  149.5815 H   0  0  0  0  0  0  0  0  0  0  0  0  # atno 10718 bound_to 10713
  154.7610  135.4920  153.9465 H   0  0  0  0  0  0  0  0  0  0  0  0  # atno 10763 bound_to 10752
  153.1252  135.6740  153.9277 H   0  0  0  0  0  0  0  0  0  0  0  0  # atno 10764 bound_to 10752
  153.8997  135.3111  155.3427 H   0  0  0  0  0  0  0  0  0  0  0  0  # atno 10765 bound_to 10752
  140.0595  134.5623  155.9169 H   0  0  0  0  0  0  0  0  0  0  0  0  # atno 11005 bound_to 11000
  145.0755  139.2999  143.5810 LP  0  0  0  0  0  0  0  0  0  0  0  0  # atno 17320 bound_to 7965
  146.3522  140.0244  142.8656 LP  0  0  0  0  0  0  0  0  0  0  0  0  # atno 17321 bound_to 7965
  140.7534  143.6163  150.8556 LP  0  0  0  0  0  0  0  0  0  0  0  0  # atno 17342 bound_to 10162
  139.9811  143.5951  152.2942 LP  0  0  0  0  0  0  0  0  0  0  0  0  # atno 17343 bound_to 10162
  155.9937  130.4999  150.7392 LP  0  0  0  0  0  0  0  0  0  0  0  0  # atno 17370 bound_to 10713
  157.4841  131.0905  151.0503 LP  0  0  0  0  0  0  0  0  0  0  0  0  # atno 17371 bound_to 10713
  141.1967  133.6593  156.5703 LP  0  0  0  0  0  0  0  0  0  0  0  0  # atno 17394 bound_to 11000
  140.3792  134.7538  157.4650 LP  0  0  0  0  0  0  0  0  0  0  0  0  # atno 17395 bound_to 11000

$$$$
