AV-unprocessed.smi:3318|AV-procd|sdf|12763|dock8
  -GOLD-   2272019103D 1   1.00000     0.00000
 Structure written by MMmdl.
 45 46  0  0  0  0  0  0  0  0  3 V2000
  145.8531  143.1323  153.7925 C   0  0  0  0  0  0  0  0  0  0  0  0
  147.0258  142.1458  153.8033 C   0  0  0  0  0  0  0  0  0  0  0  0
  146.7376  140.9046  154.6660 C   0  0  0  0  0  0  0  0  0  0  0  0
  146.0677  139.8187  153.9046 N   0  3  2  0  0  0  0  0  0  0  0  0
  145.4693  138.7719  154.7752 C   0  0  0  0  0  0  0  0  0  0  0  0
  144.6869  137.7362  153.9472 C   0  0  0  0  0  0  0  0  0  0  0  0
  145.5550  137.0870  152.8501 C   0  0  2  0  0  0  0  0  0  0  0  0
  146.5726  136.1582  153.3982 N   0  3  0  0  0  0  0  0  0  0  0  0
  146.1522  134.7444  153.4976 C   0  0  0  0  0  0  0  0  0  0  0  0
  146.8620  133.8859  152.4415 C   0  0  0  0  0  0  0  0  0  0  0  0
  145.8971  133.3328  151.4101 C   0  0  0  0  0  0  0  0  0  0  0  0
  146.3672  132.5926  150.3045 C   0  0  0  0  0  0  0  0  0  0  0  0
  145.4265  132.0986  149.3799 C   0  0  0  0  0  0  0  0  0  0  0  0
  144.0599  132.3606  149.5972 C   0  0  0  0  0  0  0  0  0  0  0  0
  143.6927  133.1084  150.7337 C   0  0  0  0  0  0  0  0  0  0  0  0
  144.5869  133.5864  151.6263 N   0  0  0  0  0  0  0  0  0  0  0  0
  146.2189  138.1922  152.0096 C   0  0  0  0  0  0  0  0  0  0  0  0
  146.9630  139.2233  152.8788 C   0  0  0  0  0  0  0  0  0  0  0  0
  146.0806  143.9998  153.1721 H   0  0  0  0  0  0  0  0  0  0  0  0
  145.6303  143.4932  154.7970 H   0  0  0  0  0  0  0  0  0  0  0  0
  144.9506  142.6675  153.3947 H   0  0  0  0  0  0  0  0  0  0  0  0
  147.2426  141.8585  152.7749 H   0  0  0  0  0  0  0  0  0  0  0  0
  147.9155  142.6541  154.1772 H   0  0  0  0  0  0  0  0  0  0  0  0
  147.6910  140.5344  155.0462 H   0  0  0  0  0  0  0  0  0  0  0  0
  146.1402  141.1697  155.5398 H   0  0  0  0  0  0  0  0  0  0  0  0
  146.2549  138.2805  155.3512 H   0  0  0  0  0  0  0  0  0  0  0  0
  144.7891  139.2228  155.4965 H   0  0  0  0  0  0  0  0  0  0  0  0
  144.2500  136.9840  154.6032 H   0  0  0  0  0  0  0  0  0  0  0  0
  143.8410  138.2375  153.4744 H   0  0  0  0  0  0  0  0  0  0  0  0
  144.9117  136.5068  152.1866 H   0  0  0  0  0  0  0  0  0  0  0  0
  147.3717  136.1829  152.7804 H   0  0  0  0  0  0  0  0  0  0  0  0
  146.3766  134.3570  154.4914 H   0  0  0  0  0  0  0  0  0  0  0  0
  145.0715  134.6813  153.3618 H   0  0  0  0  0  0  0  0  0  0  0  0
  147.6245  134.4749  151.9292 H   0  0  0  0  0  0  0  0  0  0  0  0
  147.3851  133.0582  152.9225 H   0  0  0  0  0  0  0  0  0  0  0  0
  147.4220  132.4066  150.1639 H   0  0  0  0  0  0  0  0  0  0  0  0
  145.7473  131.5289  148.5200 H   0  0  0  0  0  0  0  0  0  0  0  0
  143.3105  131.9974  148.9095 H   0  0  0  0  0  0  0  0  0  0  0  0
  142.6538  133.3277  150.9315 H   0  0  0  0  0  0  0  0  0  0  0  0
  146.9008  137.7553  151.2790 H   0  0  0  0  0  0  0  0  0  0  0  0
  145.4510  138.7088  151.4318 H   0  0  0  0  0  0  0  0  0  0  0  0
  147.3568  140.0100  152.2340 H   0  0  0  0  0  0  0  0  0  0  0  0
  147.8208  138.7597  153.3684 H   0  0  0  0  0  0  0  0  0  0  0  0
  145.3091  140.2544  153.3990 H   0  0  0  0  0  0  0  0  0  0  0  0
  146.8640  136.4817  154.3094 H   0  0  0  0  0  0  0  0  0  0  0  0
  1  2  1  0  0  0  0
  1 19  1  0  0  0  0
  1 20  1  0  0  0  0
  1 21  1  0  0  0  0
  2  3  1  0  0  0  0
  2 22  1  0  0  0  0
  2 23  1  0  0  0  0
  3  4  1  0  0  0  0
  3 24  1  0  0  0  0
  3 25  1  0  0  0  0
  4 18  1  0  0  0  0
  4  5  1  0  0  0  0
  4 44  1  0  0  0  0
  5  6  1  0  0  0  0
  5 26  1  0  0  0  0
  5 27  1  0  0  0  0
  6  7  1  0  0  0  0
  6 28  1  0  0  0  0
  6 29  1  0  0  0  0
  7  8  1  0  0  0  0
  7 17  1  0  0  0  0
  7 30  1  0  0  0  0
  8  9  1  0  0  0  0
  8 31  1  0  0  0  0
  8 45  1  0  0  0  0
  9 10  1  0  0  0  0
  9 32  1  0  0  0  0
  9 33  1  0  0  0  0
 10 11  1  0  0  0  0
 10 34  1  0  0  0  0
 10 35  1  0  0  0  0
 11 16  1  0  0  0  0
 11 12  2  0  0  0  0
 12 13  1  0  0  0  0
 12 36  1  0  0  0  0
 13 14  2  0  0  0  0
 13 37  1  0  0  0  0
 14 15  1  0  0  0  0
 14 38  1  0  0  0  0
 15 16  2  0  0  0  0
 15 39  1  0  0  0  0
 17 18  1  0  0  0  0
 17 40  1  0  0  0  0
 17 41  1  0  0  0  0
 18 42  1  0  0  0  0
 18 43  1  0  0  0  0
M  CHG  1   4   1
M  CHG  1   8   1
M  END
> <s_m_source_file>
AV-unprocessed.smi

> <i_m_source_file_index>
3318

> <i_lp_mmshare_version>
43012

> <i_f3d_flags>
0

> <s_epik_input>
W0NIM11bQ0gyXVtDSDJdTjFbQ0gyXVtDSDJdW0NIXShbQ0gyXVtDSDJdMSlbTkhdW0NIMl1bQ0gyXWMyW2NIXVtjSF1bY0hdW2NIXW4y

> <s_epik_cmdline>
J2VwaWtfcHl0aG9uJywgJy1waCcsICc3LjAnLCAnLXRuJywgJzgnLCAnLW1hJywgJzIwMCcsICctbWV0YWxfYmluZGluZycsICctaW1hZScsICc8aW5maWxlLm1hZT4nLCAnLW9tYWUnLCAnPG91dGZpbGUubWFlPic=

> <r_epik_Ionization_Penalty>
0.0638186

> <r_epik_Ionization_Penalty_Charging>
0.0628538

> <r_epik_Ionization_Penalty_Neutral>
0.000964829

> <r_epik_State_Penalty>
0.0518488

> <r_epik_Charging_Adjusted_Penalty>
0.114703

> <i_epik_Tot_Q>
2

> <i_epik_Tot_abs_Q>
2

> <r_epik_Metal_State_Penalty>
0.0535981

> <b_epik_Metal_Only>
0

> <s_lp_Force_Field>
OPLS_2005

> <r_lp_Energy>
29.7366

> <b_lp_Chiralities_Consistent>
1

> <s_lp_Variant>
AV-unprocessed.smi:3318-2

> <Gold.Version>
5.8.1

> <Gold.Id.Protein>
6NUR|6NUR_protein|mol2

> <Gold.PLP.Fitness>
47.3400

> <Gold.PLP.PLP>
-35.0690

> <Gold.PLP.part.hbond>
-2.0000

> <Gold.PLP.part.metal>
0.0000

> <Gold.PLP.part.buried>
-2.0346

> <Gold.PLP.part.nonpolar>
-30.7728

> <Gold.PLP.part.repulsive>
0.1142

> <Gold.PLP.ligand.clash>
0.0000

> <Gold.PLP.ligand.torsion>
1.4059

> <Gold.PLP.Chemscore.Hbond>
4.0000

> <Gold.PLP.Chemscore.CHOScore>
0.9999

> <Gold.PLP.Chemscore.Metal>
0.0000

> <Gold.Chemscore.Hbonds>
donor molecule, donor type, donor heavy atom, donor atom, acceptor molecule, acceptor atom, score
      L1  H     4    44       P1 10175  2.00
      L1  H     8    31       P1  7948  2.00
      L1  C    15    39       P1 10186  1.00

> <Gold.PLP.Chemscore.Internal.Correction>
0.0832

> <Gold.Rescore>
     Score         DG    S(hbond)    S(metal)    S(lipo)     H(rot)  DE(clash)    DE(int)     intcor
     18.17     -19.81       2.00        0.00      99.44       1.55       0.20       1.44       ----

> <Gold.Chemscore.Fitness>
18.1698

> <Gold.Chemscore.DG>
-19.8119

> <Gold.Chemscore.ZeroCoef>
-5.4800

> <Gold.Chemscore.Hbond>
1.9980

> <Gold.Chemscore.Metal>
0.0000

> <Gold.Chemscore.Lipo>
99.4437

> <Gold.Chemscore.Internal_Hbond>
0.0000

> <Gold.Chemscore.DEClash>
0.2030

> <Gold.Chemscore.DEInternal>
1.4391

> <Gold.Chemscore.Rot>
1.5532

> <Gold.Chemscore.Internal.Correction>
   9.000000E+99

> <Gold.Chemscore.Hbonds>
donor molecule, donor type, donor heavy atom, donor atom, acceptor molecule, acceptor atom, score
      L1  H     4    44       P1 10175  0.99
      L1  H     8    31       P1  7948  1.00

> <Gold.Chemscore.Hbond.Weighted>
-6.6732

> <Gold.Chemscore.Metal.Weighted>
-0.0000

> <Gold.Chemscore.Lipo.Weighted>
-11.6349

> <Gold.Chemscore.Internal_Hbond.Weighted>
0.0000

> <Gold.Chemscore.DEClash.Weighted>
0.2030

> <Gold.Chemscore.DEInternal.Weighted>
1.4391

> <Gold.Chemscore.Rot.Weighted>
3.9762

> <Gold.Chemscore.Internal.Correction.Weighted>
   9.000000E+99

> <Gold.Protein.RotatedTorsions>
[ 6907 6896 6895 6894 ] final  -55.12 input  -60.11 | X-H torsion
[ 7974 7965 7964 7962 ] final  135.44 input  175.53 | X-H torsion
[ 8008 7997 7996 7995 ] final  -17.91 input   59.86 | X-H torsion
[ 10167 10162 10161 10158 ] final  141.25 input  -65.29 | X-H torsion
[ 10718 10713 10712 10709 ] final  162.68 input   66.30 | X-H torsion
[ 10763 10752 10751 10750 ] final   47.68 input  -60.55 | X-H torsion
[ 11005 11000 10999 10996 ] final  -78.41 input  -57.11 | X-H torsion

> <Gold.Protein.ActiveResidues>
 VAL166  LYS551  ARG553  GLY616  TRP617  ASP618  TYR619  PRO620  LYS621  CYS622 
 ASP623  PHE694  ASN695  SER759  ASP760  ASP761  ALA762  ILE779  LEU786  VAL792 
 PHE793  MET794  SER795  GLU796  ALA797  LYS798  CYS799  TRP800  GLU811  SER814 

> <Gold.Protein.RotatedAtoms>
  150.8279  134.7518  159.6828 H   0  0  0  0  0  0  0  0  0  0  0  0  # atno 6907 bound_to 6896
  152.4387  134.5630  159.9909 H   0  0  0  0  0  0  0  0  0  0  0  0  # atno 6908 bound_to 6896
  151.5798  133.3341  159.3042 H   0  0  0  0  0  0  0  0  0  0  0  0  # atno 6909 bound_to 6896
  144.9663  139.4654  143.5455 H   0  0  0  0  0  0  0  0  0  0  0  0  # atno 7974 bound_to 7965
  154.4944  140.2130  155.9479 H   0  0  0  0  0  0  0  0  0  0  0  0  # atno 8008 bound_to 7997
  156.1350  140.3190  155.8375 H   0  0  0  0  0  0  0  0  0  0  0  0  # atno 8009 bound_to 7997
  155.4227  140.0498  157.3015 H   0  0  0  0  0  0  0  0  0  0  0  0  # atno 8010 bound_to 7997
  139.5026  144.6183  151.6111 H   0  0  0  0  0  0  0  0  0  0  0  0  # atno 10167 bound_to 10162
  157.1192  131.0488  151.2423 H   0  0  0  0  0  0  0  0  0  0  0  0  # atno 10718 bound_to 10713
  152.9798  135.5968  154.3802 H   0  0  0  0  0  0  0  0  0  0  0  0  # atno 10763 bound_to 10752
  154.3468  135.2767  155.2395 H   0  0  0  0  0  0  0  0  0  0  0  0  # atno 10764 bound_to 10752
  154.4452  135.6003  153.6211 H   0  0  0  0  0  0  0  0  0  0  0  0  # atno 10765 bound_to 10752
  141.1664  133.7062  156.7968 H   0  0  0  0  0  0  0  0  0  0  0  0  # atno 11005 bound_to 11000
  146.3369  139.8846  142.8819 LP  0  0  0  0  0  0  0  0  0  0  0  0  # atno 17320 bound_to 7965
  145.2625  141.0082  143.3818 LP  0  0  0  0  0  0  0  0  0  0  0  0  # atno 17321 bound_to 7965
  140.5878  143.9833  150.6306 LP  0  0  0  0  0  0  0  0  0  0  0  0  # atno 17342 bound_to 10162
  140.3003  143.3265  152.0978 LP  0  0  0  0  0  0  0  0  0  0  0  0  # atno 17343 bound_to 10162
  157.4491  130.7588  149.7136 LP  0  0  0  0  0  0  0  0  0  0  0  0  # atno 17370 bound_to 10713
  155.9832  130.4002  150.3374 LP  0  0  0  0  0  0  0  0  0  0  0  0  # atno 17371 bound_to 10713
  140.2285  134.8703  157.3452 LP  0  0  0  0  0  0  0  0  0  0  0  0  # atno 17394 bound_to 11000
  140.1915  134.4366  155.7713 LP  0  0  0  0  0  0  0  0  0  0  0  0  # atno 17395 bound_to 11000

$$$$
