AV-unprocessed.smi:3203|AV-procd|sdf|12249|dock10
  -GOLD-   2272018 83D 1   1.00000     0.00000
 Structure written by MMmdl.
 32 33  0  0  0  0  0  0  0  0  1 V2000
  153.2703  142.3831  161.2200 C   0  0  0  0  0  0  0  0  0  0  0  0
  152.5798  142.8347  159.9430 C   0  0  0  0  0  0  0  0  0  0  0  0
  152.4298  144.2145  159.6892 C   0  0  0  0  0  0  0  0  0  0  0  0
  151.7920  144.6290  158.5076 C   0  0  0  0  0  0  0  0  0  0  0  0
  151.3286  143.6393  157.6236 C   0  0  0  0  0  0  0  0  0  0  0  0
  151.4676  142.3186  157.8579 N   0  0  0  0  0  0  0  0  0  0  0  0
  152.0811  141.9020  158.9941 C   0  0  0  0  0  0  0  0  0  0  0  0
  152.2625  140.5270  159.3094 N   0  0  0  0  0  0  0  0  0  0  0  0
  152.6974  139.5287  158.5169 C   0  0  0  0  0  0  0  0  0  0  0  0
  153.0053  139.6564  157.3321 O   0  0  0  0  0  0  0  0  0  0  0  0
  152.7803  138.1458  159.1645 C   0  0  0  0  0  0  0  0  0  0  0  0
  153.7932  138.1472  160.1598 O   0  0  0  0  0  0  0  0  0  0  0  0
  153.9066  136.9024  160.8265 C   0  0  0  0  0  0  0  0  0  0  0  0
  153.9771  137.1513  162.3177 C   0  0  0  0  0  0  0  0  0  0  0  0
  155.3135  137.2175  163.0214 C   0  0  0  0  0  0  0  0  0  0  0  0
  154.3939  136.0475  163.2631 C   0  0  0  0  0  0  0  0  0  0  0  0
  153.5765  143.2346  161.8285 H   0  0  0  0  0  0  0  0  0  0  0  0
  154.1614  141.7998  160.9861 H   0  0  0  0  0  0  0  0  0  0  0  0
  152.6003  141.7666  161.8201 H   0  0  0  0  0  0  0  0  0  0  0  0
  152.7984  144.9495  160.3899 H   0  0  0  0  0  0  0  0  0  0  0  0
  151.6622  145.6774  158.2843 H   0  0  0  0  0  0  0  0  0  0  0  0
  150.8328  143.9141  156.7045 H   0  0  0  0  0  0  0  0  0  0  0  0
  152.0481  140.2694  160.2617 H   0  0  0  0  0  0  0  0  0  0  0  0
  151.8120  137.9031  159.6044 H   0  0  0  0  0  0  0  0  0  0  0  0
  153.0006  137.3962  158.4026 H   0  0  0  0  0  0  0  0  0  0  0  0
  153.0513  136.2644  160.5973 H   0  0  0  0  0  0  0  0  0  0  0  0
  154.8113  136.3815  160.5097 H   0  0  0  0  0  0  0  0  0  0  0  0
  153.2149  137.8360  162.6854 H   0  0  0  0  0  0  0  0  0  0  0  0
  156.2091  137.0376  162.4297 H   0  0  0  0  0  0  0  0  0  0  0  0
  155.4229  137.9447  163.8234 H   0  0  0  0  0  0  0  0  0  0  0  0
  153.8888  135.9941  164.2253 H   0  0  0  0  0  0  0  0  0  0  0  0
  154.6762  135.0893  162.8313 H   0  0  0  0  0  0  0  0  0  0  0  0
  1  2  1  0  0  0  0
  1 17  1  0  0  0  0
  1 18  1  0  0  0  0
  1 19  1  0  0  0  0
  2  7  1  0  0  0  0
  2  3  2  0  0  0  0
  3  4  1  0  0  0  0
  3 20  1  0  0  0  0
  4  5  2  0  0  0  0
  4 21  1  0  0  0  0
  5  6  1  0  0  0  0
  5 22  1  0  0  0  0
  6  7  2  0  0  0  0
  7  8  1  0  0  0  0
  8  9  1  0  0  0  0
  8 23  1  0  0  0  0
  9 10  2  0  0  0  0
  9 11  1  0  0  0  0
 11 12  1  0  0  0  0
 11 24  1  0  0  0  0
 11 25  1  0  0  0  0
 12 13  1  0  0  0  0
 13 14  1  0  0  0  0
 13 26  1  0  0  0  0
 13 27  1  0  0  0  0
 14 16  1  0  0  0  0
 14 15  1  0  0  0  0
 14 28  1  0  0  0  0
 15 16  1  0  0  0  0
 15 29  1  0  0  0  0
 15 30  1  0  0  0  0
 16 31  1  0  0  0  0
 16 32  1  0  0  0  0
M  END
> <s_m_source_file>
AV-unprocessed.smi

> <i_m_source_file_index>
3203

> <i_lp_mmshare_version>
43012

> <i_f3d_flags>
0

> <s_epik_input>
W0NIM11jMVtjSF1bY0hdW2NIXW5jMVtOSF1DKD1PKVtDSDJdT1tDSDJdW0NIXTJbQ0gyXVtDSDJdMg==

> <s_epik_cmdline>
J2VwaWtfcHl0aG9uJywgJy1waCcsICc3LjAnLCAnLXRuJywgJzgnLCAnLW1hJywgJzIwMCcsICctbWV0YWxfYmluZGluZycsICctaW1hZScsICc8aW5maWxlLm1hZT4nLCAnLW9tYWUnLCAnPG91dGZpbGUubWFlPic=

> <r_epik_Ionization_Penalty>
0.00323497

> <r_epik_Ionization_Penalty_Charging>
0

> <r_epik_Ionization_Penalty_Neutral>
0.00323497

> <r_epik_State_Penalty>
0.00315819

> <r_epik_Charging_Adjusted_Penalty>
0.00315819

> <i_epik_Tot_Q>
0

> <i_epik_Tot_abs_Q>
0

> <r_epik_Metal_State_Penalty>
-0

> <b_epik_Metal_Only>
0

> <s_lp_Force_Field>
OPLS_2005

> <r_lp_Energy>
15.2792

> <b_lp_Chiralities_Consistent>
1

> <s_lp_Variant>
AV-unprocessed.smi:3203-1

> <Gold.Version>
5.8.1

> <Gold.Id.Protein>
6NUR|6NUR_protein|mol2

> <Gold.PLP.Fitness>
43.5755

> <Gold.PLP.PLP>
-39.1186

> <Gold.PLP.part.hbond>
-1.0000

> <Gold.PLP.part.metal>
0.0000

> <Gold.PLP.part.buried>
-4.4752

> <Gold.PLP.part.nonpolar>
-33.8658

> <Gold.PLP.part.repulsive>
0.1830

> <Gold.PLP.ligand.clash>
0.0000

> <Gold.PLP.ligand.torsion>
1.0477

> <Gold.PLP.Chemscore.Hbond>
1.0000

> <Gold.PLP.Chemscore.CHOScore>
0.9936

> <Gold.PLP.Chemscore.Metal>
0.0000

> <Gold.Chemscore.Hbonds>
donor molecule, donor type, donor heavy atom, donor atom, acceptor molecule, acceptor atom, score
      P1  H  7997  8009       L1    10  1.00
      L1  C     5    22       P1  8028  1.00

> <Gold.PLP.Chemscore.Internal.Correction>
0.5713

> <Gold.Rescore>
     Score         DG    S(hbond)    S(metal)    S(lipo)     H(rot)  DE(clash)    DE(int)     intcor
     15.70     -16.71       1.00        0.00     101.01       1.54       0.00       1.01       ----

> <Gold.Chemscore.Fitness>
15.6967

> <Gold.Chemscore.DG>
-16.7064

> <Gold.Chemscore.ZeroCoef>
-5.4800

> <Gold.Chemscore.Hbond>
0.9997

> <Gold.Chemscore.Metal>
0.0000

> <Gold.Chemscore.Lipo>
101.0100

> <Gold.Chemscore.Internal_Hbond>
0.0000

> <Gold.Chemscore.DEClash>
0.0004

> <Gold.Chemscore.DEInternal>
1.0093

> <Gold.Chemscore.Rot>
1.5355

> <Gold.Chemscore.Internal.Correction>
   9.000000E+99

> <Gold.Chemscore.Hbonds>
donor molecule, donor type, donor heavy atom, donor atom, acceptor molecule, acceptor atom, score
      P1  H  7997  8009       L1    10  0.97

> <Gold.Chemscore.Hbond.Weighted>
-3.3391

> <Gold.Chemscore.Metal.Weighted>
-0.0000

> <Gold.Chemscore.Lipo.Weighted>
-11.8182

> <Gold.Chemscore.Internal_Hbond.Weighted>
0.0000

> <Gold.Chemscore.DEClash.Weighted>
0.0004

> <Gold.Chemscore.DEInternal.Weighted>
1.0093

> <Gold.Chemscore.Rot.Weighted>
3.9308

> <Gold.Chemscore.Internal.Correction.Weighted>
   9.000000E+99

> <Gold.Protein.RotatedTorsions>
[ 6907 6896 6895 6894 ] final  104.11 input  -60.11 | X-H torsion
[ 7974 7965 7964 7962 ] final   91.17 input  175.53 | X-H torsion
[ 8008 7997 7996 7995 ] final  170.86 input   59.86 | X-H torsion
[ 10167 10162 10161 10158 ] final  101.34 input  -65.29 | X-H torsion
[ 10718 10713 10712 10709 ] final -118.97 input   66.30 | X-H torsion
[ 10763 10752 10751 10750 ] final  119.62 input  -60.55 | X-H torsion
[ 11005 11000 10999 10996 ] final  -71.18 input  -57.11 | X-H torsion

> <Gold.Protein.ActiveResidues>
 VAL166  LYS551  ARG553  GLY616  TRP617  ASP618  TYR619  PRO620  LYS621  CYS622 
 ASP623  PHE694  ASN695  SER759  ASP760  ASP761  ALA762  ILE779  LEU786  VAL792 
 PHE793  MET794  SER795  GLU796  ALA797  LYS798  CYS799  TRP800  GLU811  SER814 

> <Gold.Protein.RotatedAtoms>
  152.5275  133.9726  159.7768 H   0  0  0  0  0  0  0  0  0  0  0  0  # atno 6907 bound_to 6896
  150.9995  133.6062  159.2704 H   0  0  0  0  0  0  0  0  0  0  0  0  # atno 6908 bound_to 6896
  151.3176  135.0817  159.9348 H   0  0  0  0  0  0  0  0  0  0  0  0  # atno 6909 bound_to 6896
  145.5093  139.2276  143.2734 H   0  0  0  0  0  0  0  0  0  0  0  0  # atno 7974 bound_to 7965
  156.1325  140.1527  156.9043 H   0  0  0  0  0  0  0  0  0  0  0  0  # atno 8008 bound_to 7997
  154.4921  140.0848  156.7656 H   0  0  0  0  0  0  0  0  0  0  0  0  # atno 8009 bound_to 7997
  155.4229  140.3424  155.4275 H   0  0  0  0  0  0  0  0  0  0  0  0  # atno 8010 bound_to 7997
  139.7446  144.7001  151.0523 H   0  0  0  0  0  0  0  0  0  0  0  0  # atno 10167 bound_to 10162
  156.1146  130.6275  150.9358 H   0  0  0  0  0  0  0  0  0  0  0  0  # atno 10718 bound_to 10713
  153.5858  135.3475  155.2892 H   0  0  0  0  0  0  0  0  0  0  0  0  # atno 10763 bound_to 10752
  154.8660  135.4193  154.2570 H   0  0  0  0  0  0  0  0  0  0  0  0  # atno 10764 bound_to 10752
  153.3367  135.7047  153.6972 H   0  0  0  0  0  0  0  0  0  0  0  0  # atno 10765 bound_to 10752
  141.1587  133.6810  156.6866 H   0  0  0  0  0  0  0  0  0  0  0  0  # atno 11005 bound_to 11000
  146.2177  140.5898  142.9031 LP  0  0  0  0  0  0  0  0  0  0  0  0  # atno 17320 bound_to 7965
  144.7736  140.5692  143.6653 LP  0  0  0  0  0  0  0  0  0  0  0  0  # atno 17321 bound_to 7965
  140.7790  143.4882  150.9928 LP  0  0  0  0  0  0  0  0  0  0  0  0  # atno 17342 bound_to 10162
  139.8570  143.7364  152.3175 LP  0  0  0  0  0  0  0  0  0  0  0  0  # atno 17343 bound_to 10162
  157.6328  131.0919  150.8407 LP  0  0  0  0  0  0  0  0  0  0  0  0  # atno 17370 bound_to 10713
  156.8512  130.5081  149.5311 LP  0  0  0  0  0  0  0  0  0  0  0  0  # atno 17371 bound_to 10713
  140.3062  134.8123  157.4139 LP  0  0  0  0  0  0  0  0  0  0  0  0  # atno 17394 bound_to 11000
  140.1218  134.5209  155.8177 LP  0  0  0  0  0  0  0  0  0  0  0  0  # atno 17395 bound_to 11000

$$$$
