AV-unprocessed.smi:2061|AV-procd|sdf|8386|dock5
  -GOLD-   2272011 63D 1   1.00000     0.00000
 Structure written by MMmdl.
 45 46  0  0  0  0  0  0  0  0  3 V2000
  149.3824  140.8587  154.6650 C   0  0  0  0  0  0  0  0  0  0  0  0
  150.0908  139.5499  154.7490 C   0  0  0  0  0  0  0  0  0  0  0  0
  149.6506  138.2568  154.7594 C   0  0  0  0  0  0  0  0  0  0  0  0
  150.8535  137.5050  154.8518 C   0  0  0  0  0  0  0  0  0  0  0  0
  150.9433  136.1671  154.9062 N   0  5  0  0  0  0  0  0  0  0  0  0
  149.9226  135.4365  155.4086 C   0  0  0  0  0  0  0  0  0  0  0  0
  149.9029  134.8558  156.4967 O   0  0  0  0  0  0  0  0  0  0  0  0
  148.8573  135.3684  154.5974 N   0  0  0  0  0  0  0  0  0  0  0  0
  147.6215  134.6461  154.8823 C   0  0  0  0  0  0  0  0  0  0  0  0
  146.5860  134.7434  153.7311 C   0  0  2  0  0  0  0  0  0  0  0  0
  145.2347  134.1416  154.1863 C   0  0  0  0  0  0  0  0  0  0  0  0
  147.1391  134.1070  152.4893 N   0  3  1  0  0  0  0  0  0  0  0  0
  147.5115  132.6686  152.5706 C   0  0  0  0  0  0  0  0  0  0  0  0
  146.2603  131.7676  152.5618 C   0  0  2  0  0  0  0  0  0  0  0  0
  146.6232  130.2792  152.6002 C   0  0  0  0  0  0  0  0  0  0  0  0
  145.5356  132.0139  151.3618 O   0  0  0  0  0  0  0  0  0  0  0  0
  145.0827  133.3594  151.2544 C   0  0  2  0  0  0  0  0  0  0  0  0
  144.2793  133.4857  149.9555 C   0  0  0  0  0  0  0  0  0  0  0  0
  146.2986  134.3135  151.2776 C   0  0  0  0  0  0  0  0  0  0  0  0
  151.9280  138.2742  154.9085 N   0  0  0  0  0  0  0  0  0  0  0  0
  151.4478  139.5874  154.8363 O   0  0  0  0  0  0  0  0  0  0  0  0
  148.6602  140.9585  155.4754 H   0  0  0  0  0  0  0  0  0  0  0  0
  148.8453  140.9451  153.7205 H   0  0  0  0  0  0  0  0  0  0  0  0
  150.0832  141.6911  154.7327 H   0  0  0  0  0  0  0  0  0  0  0  0
  148.6315  137.9041  154.7058 H   0  0  0  0  0  0  0  0  0  0  0  0
  148.9114  135.8600  153.7171 H   0  0  0  0  0  0  0  0  0  0  0  0
  147.8829  133.6156  155.1186 H   0  0  0  0  0  0  0  0  0  0  0  0
  147.1954  135.0617  155.7957 H   0  0  0  0  0  0  0  0  0  0  0  0
  146.3977  135.7948  153.5183 H   0  0  0  0  0  0  0  0  0  0  0  0
  144.8836  134.5970  155.1122 H   0  0  0  0  0  0  0  0  0  0  0  0
  145.3138  133.0684  154.3614 H   0  0  0  0  0  0  0  0  0  0  0  0
  144.4429  134.3132  153.4576 H   0  0  0  0  0  0  0  0  0  0  0  0
  148.1198  132.4340  151.6959 H   0  0  0  0  0  0  0  0  0  0  0  0
  148.1580  132.4551  153.4204 H   0  0  0  0  0  0  0  0  0  0  0  0
  145.6247  131.9904  153.4202 H   0  0  0  0  0  0  0  0  0  0  0  0
  147.1730  130.0335  153.5090 H   0  0  0  0  0  0  0  0  0  0  0  0
  147.2433  130.0010  151.7476 H   0  0  0  0  0  0  0  0  0  0  0  0
  145.7272  129.6588  152.5766 H   0  0  0  0  0  0  0  0  0  0  0  0
  144.4114  133.5756  152.0862 H   0  0  0  0  0  0  0  0  0  0  0  0
  143.8968  134.4987  149.8287 H   0  0  0  0  0  0  0  0  0  0  0  0
  143.4260  132.8071  149.9574 H   0  0  0  0  0  0  0  0  0  0  0  0
  144.8927  133.2474  149.0860 H   0  0  0  0  0  0  0  0  0  0  0  0
  145.9668  135.3458  151.1842 H   0  0  0  0  0  0  0  0  0  0  0  0
  146.9206  134.1236  150.4016 H   0  0  0  0  0  0  0  0  0  0  0  0
  148.0064  134.5965  152.3213 H   0  0  0  0  0  0  0  0  0  0  0  0
  1  2  1  0  0  0  0
  1 22  1  0  0  0  0
  1 23  1  0  0  0  0
  1 24  1  0  0  0  0
  2 21  1  0  0  0  0
  2  3  2  0  0  0  0
  3  4  1  0  0  0  0
  3 25  1  0  0  0  0
  4  5  1  0  0  0  0
  4 20  2  0  0  0  0
  5  6  1  0  0  0  0
  6  7  2  0  0  0  0
  6  8  1  0  0  0  0
  8  9  1  0  0  0  0
  8 26  1  0  0  0  0
  9 10  1  0  0  0  0
  9 27  1  0  0  0  0
  9 28  1  0  0  0  0
 10 11  1  0  0  0  0
 10 12  1  0  0  0  0
 10 29  1  0  0  0  0
 11 30  1  0  0  0  0
 11 31  1  0  0  0  0
 11 32  1  0  0  0  0
 12 19  1  0  0  0  0
 12 13  1  0  0  0  0
 12 45  1  0  0  0  0
 13 14  1  0  0  0  0
 13 33  1  0  0  0  0
 13 34  1  0  0  0  0
 14 15  1  0  0  0  0
 14 16  1  0  0  0  0
 14 35  1  0  0  0  0
 15 36  1  0  0  0  0
 15 37  1  0  0  0  0
 15 38  1  0  0  0  0
 16 17  1  0  0  0  0
 17 18  1  0  0  0  0
 17 19  1  0  0  0  0
 17 39  1  0  0  0  0
 18 40  1  0  0  0  0
 18 41  1  0  0  0  0
 18 42  1  0  0  0  0
 19 43  1  0  0  0  0
 19 44  1  0  0  0  0
 20 21  1  0  0  0  0
M  CHG  1   5  -1
M  CHG  1  12   1
M  END
> <s_m_source_file>
AV-unprocessed.smi

> <i_m_source_file_index>
2061

> <i_lp_mmshare_version>
43012

> <i_f3d_flags>
0

> <s_epik_input>
W0NIM11jMVtjSF1jKG5vMSlbTkhdQyg9TylbTkhdW0NIMl1bQ0BIXShbQ0gzXSlOMltDSDJdW0NAQEhdKFtDSDNdKU9bQ0BASF0oW0NIM10pW0NIMl0y

> <s_epik_cmdline>
J2VwaWtfcHl0aG9uJywgJy1waCcsICc3LjAnLCAnLXRuJywgJzgnLCAnLW1hJywgJzIwMCcsICctbWV0YWxfYmluZGluZycsICctaW1hZScsICc8aW5maWxlLm1hZT4nLCAnLW9tYWUnLCAnPG91dGZpbGUubWFlPic=

> <r_epik_Ionization_Penalty>
6.73511

> <r_epik_Ionization_Penalty_Charging>
6.73502

> <r_epik_Ionization_Penalty_Neutral>
9.50841e-05

> <r_epik_State_Penalty>
6.93549

> <r_epik_Charging_Adjusted_Penalty>
13.6705

> <i_epik_Tot_Q>
0

> <i_epik_Tot_abs_Q>
2

> <r_epik_Metal_State_Penalty>
2.87211

> <b_epik_Metal_Only>
1

> <s_lp_Force_Field>
OPLS_2005

> <r_lp_Energy>
9.64983

> <b_lp_Chiralities_Consistent>
1

> <s_lp_Variant>
AV-unprocessed.smi:2061-27

> <Gold.Version>
5.8.1

> <Gold.Id.Protein>
6NUR|6NUR_protein|mol2

> <Gold.PLP.Fitness>
48.3669

> <Gold.PLP.PLP>
-32.0928

> <Gold.PLP.part.hbond>
-4.0000

> <Gold.PLP.part.metal>
0.0000

> <Gold.PLP.part.buried>
-4.9437

> <Gold.PLP.part.nonpolar>
-24.3411

> <Gold.PLP.part.repulsive>
0.4995

> <Gold.PLP.ligand.clash>
0.0071

> <Gold.PLP.ligand.torsion>
0.8921

> <Gold.PLP.Chemscore.Hbond>
6.0000

> <Gold.PLP.Chemscore.CHOScore>
0.0000

> <Gold.PLP.Chemscore.Metal>
0.0000

> <Gold.Chemscore.Hbonds>
donor molecule, donor type, donor heavy atom, donor atom, acceptor molecule, acceptor atom, score
      L1  H     8    26       P1  7948  1.00
      L1  H    12    45       P1  7948  2.00
      P1  H  7989  7998       L1    21  0.75
      P1  H 10752 10763       L1     5  1.59

> <Gold.PLP.Chemscore.Internal.Correction>
0.0654

> <Gold.Rescore>
     Score         DG    S(hbond)    S(metal)    S(lipo)     H(rot)  DE(clash)    DE(int)     intcor
     15.89     -19.77       3.09        0.00      68.02       1.56       0.15       3.73       ----

> <Gold.Chemscore.Fitness>
15.8947

> <Gold.Chemscore.DG>
-19.7720

> <Gold.Chemscore.ZeroCoef>
-5.4800

> <Gold.Chemscore.Hbond>
3.0883

> <Gold.Chemscore.Metal>
0.0000

> <Gold.Chemscore.Lipo>
68.0163

> <Gold.Chemscore.Internal_Hbond>
0.0000

> <Gold.Chemscore.DEClash>
0.1490

> <Gold.Chemscore.DEInternal>
3.7284

> <Gold.Chemscore.Rot>
1.5550

> <Gold.Chemscore.Internal.Correction>
   9.000000E+99

> <Gold.Chemscore.Hbonds>
donor molecule, donor type, donor heavy atom, donor atom, acceptor molecule, acceptor atom, score
      L1  H     8    26       P1  7948  0.95
      L1  H    12    45       P1  7948  0.38
      P1  H  7989  7998       L1    21  0.09
      P1  H 10752 10763       L1     5  0.51

> <Gold.Chemscore.Hbond.Weighted>
-10.3150

> <Gold.Chemscore.Metal.Weighted>
-0.0000

> <Gold.Chemscore.Lipo.Weighted>
-7.9579

> <Gold.Chemscore.Internal_Hbond.Weighted>
0.0000

> <Gold.Chemscore.DEClash.Weighted>
0.1490

> <Gold.Chemscore.DEInternal.Weighted>
3.7284

> <Gold.Chemscore.Rot.Weighted>
3.9809

> <Gold.Chemscore.Internal.Correction.Weighted>
   9.000000E+99

> <Gold.Protein.RotatedTorsions>
[ 6907 6896 6895 6894 ] final   14.15 input  -60.11 | X-H torsion
[ 7974 7965 7964 7962 ] final  140.85 input  175.53 | X-H torsion
[ 8008 7997 7996 7995 ] final   89.84 input   59.86 | X-H torsion
[ 10167 10162 10161 10158 ] final  103.18 input  -65.29 | X-H torsion
[ 10718 10713 10712 10709 ] final  168.52 input   66.30 | X-H torsion
[ 10763 10752 10751 10750 ] final   46.50 input  -60.55 | X-H torsion
[ 11005 11000 10999 10996 ] final  106.71 input  -57.11 | X-H torsion

> <Gold.Protein.ActiveResidues>
 VAL166  LYS551  ARG553  GLY616  TRP617  ASP618  TYR619  PRO620  LYS621  CYS622 
 ASP623  PHE694  ASN695  SER759  ASP760  ASP761  ALA762  ILE779  LEU786  VAL792 
 PHE793  MET794  SER795  GLU796  ALA797  LYS798  CYS799  TRP800  GLU811  SER814 

> <Gold.Protein.RotatedAtoms>
  151.7976  135.0718  160.0395 H   0  0  0  0  0  0  0  0  0  0  0  0  # atno 6907 bound_to 6896
  152.3112  133.5750  159.5690 H   0  0  0  0  0  0  0  0  0  0  0  0  # atno 6908 bound_to 6896
  150.7321  134.0066  159.3697 H   0  0  0  0  0  0  0  0  0  0  0  0  # atno 6909 bound_to 6896
  144.9149  139.5243  143.5691 H   0  0  0  0  0  0  0  0  0  0  0  0  # atno 7974 bound_to 7965
  156.0049  140.3356  155.6882 H   0  0  0  0  0  0  0  0  0  0  0  0  # atno 8008 bound_to 7997
  155.6239  140.0678  157.2687 H   0  0  0  0  0  0  0  0  0  0  0  0  # atno 8009 bound_to 7997
  154.4261  140.1771  156.1389 H   0  0  0  0  0  0  0  0  0  0  0  0  # atno 8010 bound_to 7997
  139.7285  144.7041  151.0759 H   0  0  0  0  0  0  0  0  0  0  0  0  # atno 10167 bound_to 10162
  157.0359  131.0273  151.2729 H   0  0  0  0  0  0  0  0  0  0  0  0  # atno 10718 bound_to 10713
  152.9810  135.6006  154.3610 H   0  0  0  0  0  0  0  0  0  0  0  0  # atno 10763 bound_to 10752
  154.3292  135.2769  155.2482 H   0  0  0  0  0  0  0  0  0  0  0  0  # atno 10764 bound_to 10752
  154.4614  135.5965  153.6314 H   0  0  0  0  0  0  0  0  0  0  0  0  # atno 10765 bound_to 10752
  139.8818  134.9378  156.5707 H   0  0  0  0  0  0  0  0  0  0  0  0  # atno 11005 bound_to 11000
  146.3177  139.7984  142.8970 LP  0  0  0  0  0  0  0  0  0  0  0  0  # atno 17320 bound_to 7965
  145.3392  141.0284  143.3402 LP  0  0  0  0  0  0  0  0  0  0  0  0  # atno 17321 bound_to 7965
  140.7767  143.5073  150.9696 LP  0  0  0  0  0  0  0  0  0  0  0  0  # atno 17342 bound_to 10162
  139.8761  143.7131  152.3162 LP  0  0  0  0  0  0  0  0  0  0  0  0  # atno 17343 bound_to 10162
  157.5142  130.7957  149.7737 LP  0  0  0  0  0  0  0  0  0  0  0  0  # atno 17370 bound_to 10713
  156.0054  130.3858  150.2451 LP  0  0  0  0  0  0  0  0  0  0  0  0  # atno 17371 bound_to 10713
  140.8100  133.8437  155.8801 LP  0  0  0  0  0  0  0  0  0  0  0  0  # atno 17394 bound_to 11000
  140.9515  134.1773  157.4724 LP  0  0  0  0  0  0  0  0  0  0  0  0  # atno 17395 bound_to 11000

$$$$
