AV-unprocessed.smi:2952|AV-procd|sdf|11292|dock7
  -GOLD-   2272016183D 1   1.00000     0.00000
 Structure written by MMmdl.
 39 41  0  0  0  0  0  0  0  0  2 V2000
  153.6090  138.7133  157.1413 O   0  0  0  0  0  0  0  0  0  0  0  0
  152.3268  139.1738  156.7686 C   0  0  0  0  0  0  0  0  0  0  0  0
  151.5589  139.7222  157.9821 C   0  0  0  0  0  0  0  0  0  0  0  0
  151.2936  141.1673  157.8840 N   0  0  0  0  0  0  0  0  0  0  0  0
  150.6833  141.8833  156.8953 C   0  0  0  0  0  0  0  0  0  0  0  0
  150.1061  141.3501  155.6214 C   0  0  0  0  0  0  0  0  0  0  0  0
  148.7068  141.7139  155.4140 N   0  0  0  0  0  0  0  0  0  0  0  0
  147.8165  141.1218  156.4098 C   0  0  0  0  0  0  0  0  0  0  0  0
  146.3482  141.5108  156.1650 C   0  0  0  0  0  0  0  0  0  0  0  0
  145.9666  141.1303  154.8469 O   0  0  0  0  0  0  0  0  0  0  0  0
  146.7844  141.7242  153.8436 C   0  0  0  0  0  0  0  0  0  0  0  0
  148.2538  141.3349  154.0806 C   0  0  0  0  0  0  0  0  0  0  0  0
  150.6901  143.1906  157.2800 N   0  3  0  0  0  0  0  0  0  0  0  0
  151.3047  143.3132  158.5265 C   0  0  0  0  0  0  0  0  0  0  0  0
  151.5421  144.4328  159.3175 C   0  0  0  0  0  0  0  0  0  0  0  0
  152.1918  144.2107  160.5493 C   0  0  0  0  0  0  0  0  0  0  0  0
  152.5790  142.9164  160.9544 C   0  0  0  0  0  0  0  0  0  0  0  0
  153.3670  142.7052  162.4742 Cl  0  0  0  0  0  0  0  0  0  0  0  0
  152.3335  141.7901  160.1413 C   0  0  0  0  0  0  0  0  0  0  0  0
  151.6926  142.0170  158.9234 C   0  0  0  0  0  0  0  0  0  0  0  0
  153.5941  137.7683  157.1616 H   0  0  0  0  0  0  0  0  0  0  0  0
  152.4382  139.9521  156.0135 H   0  0  0  0  0  0  0  0  0  0  0  0
  151.7764  138.3547  156.3051 H   0  0  0  0  0  0  0  0  0  0  0  0
  150.6200  139.1883  158.1267 H   0  0  0  0  0  0  0  0  0  0  0  0
  152.1386  139.5546  158.8896 H   0  0  0  0  0  0  0  0  0  0  0  0
  150.7098  141.7363  154.7995 H   0  0  0  0  0  0  0  0  0  0  0  0
  150.2195  140.2652  155.6024 H   0  0  0  0  0  0  0  0  0  0  0  0
  147.9095  140.0349  156.3895 H   0  0  0  0  0  0  0  0  0  0  0  0
  148.1039  141.4420  157.4114 H   0  0  0  0  0  0  0  0  0  0  0  0
  145.6984  141.0108  156.8832 H   0  0  0  0  0  0  0  0  0  0  0  0
  146.2058  142.5846  156.2967 H   0  0  0  0  0  0  0  0  0  0  0  0
  146.4540  141.3808  152.8633 H   0  0  0  0  0  0  0  0  0  0  0  0
  146.6645  142.8086  153.8612 H   0  0  0  0  0  0  0  0  0  0  0  0
  148.8791  141.8143  153.3266 H   0  0  0  0  0  0  0  0  0  0  0  0
  148.3684  140.2586  153.9424 H   0  0  0  0  0  0  0  0  0  0  0  0
  151.2450  145.4254  159.0124 H   0  0  0  0  0  0  0  0  0  0  0  0
  152.3948  145.0509  161.1975 H   0  0  0  0  0  0  0  0  0  0  0  0
  152.6280  140.8027  160.4642 H   0  0  0  0  0  0  0  0  0  0  0  0
  150.2996  143.9428  156.7273 H   0  0  0  0  0  0  0  0  0  0  0  0
  1  2  1  0  0  0  0
  1 21  1  0  0  0  0
  2  3  1  0  0  0  0
  2 22  1  0  0  0  0
  2 23  1  0  0  0  0
  3  4  1  0  0  0  0
  3 24  1  0  0  0  0
  3 25  1  0  0  0  0
  4 20  1  0  0  0  0
  4  5  1  0  0  0  0
  5  6  1  0  0  0  0
  5 13  2  0  0  0  0
  6  7  1  0  0  0  0
  6 26  1  0  0  0  0
  6 27  1  0  0  0  0
  7 12  1  0  0  0  0
  7  8  1  0  0  0  0
  8  9  1  0  0  0  0
  8 28  1  0  0  0  0
  8 29  1  0  0  0  0
  9 10  1  0  0  0  0
  9 30  1  0  0  0  0
  9 31  1  0  0  0  0
 10 11  1  0  0  0  0
 11 12  1  0  0  0  0
 11 32  1  0  0  0  0
 11 33  1  0  0  0  0
 12 34  1  0  0  0  0
 12 35  1  0  0  0  0
 13 14  1  0  0  0  0
 13 39  1  0  0  0  0
 14 20  2  0  0  0  0
 14 15  1  0  0  0  0
 15 16  2  0  0  0  0
 15 36  1  0  0  0  0
 16 17  1  0  0  0  0
 16 37  1  0  0  0  0
 17 18  1  0  0  0  0
 17 19  2  0  0  0  0
 19 20  1  0  0  0  0
 19 38  1  0  0  0  0
M  CHG  1  13   1
M  END
> <s_m_source_file>
AV-unprocessed.smi

> <i_m_source_file_index>
2952

> <i_lp_mmshare_version>
43012

> <i_f3d_flags>
0

> <s_epik_input>
W2NIXTFbY0hdYyhDbClbY0hdYyhjMTIpbihbQ0gyXVtDSDJdW09IXSljKG4yKVtDSDJdTjNbQ0gyXVtDSDJdT1tDSDJdW0NIMl0z

> <s_epik_cmdline>
J2VwaWtfcHl0aG9uJywgJy1waCcsICc3LjAnLCAnLXRuJywgJzgnLCAnLW1hJywgJzIwMCcsICctbWV0YWxfYmluZGluZycsICctaW1hZScsICc8aW5maWxlLm1hZT4nLCAnLW9tYWUnLCAnPG91dGZpbGUubWFlPic=

> <r_epik_Ionization_Penalty>
1.17151

> <r_epik_Ionization_Penalty_Charging>
1.1712

> <r_epik_Ionization_Penalty_Neutral>
0.000312352

> <r_epik_State_Penalty>
1.2343

> <r_epik_Charging_Adjusted_Penalty>
2.4055

> <i_epik_Tot_Q>
1

> <i_epik_Tot_abs_Q>
1

> <r_epik_Metal_State_Penalty>
5.24833

> <b_epik_Metal_Only>
0

> <s_lp_Force_Field>
OPLS_2005

> <r_lp_Energy>
24.7886

> <b_lp_Chiralities_Consistent>
1

> <s_lp_Variant>
AV-unprocessed.smi:2952-2

> <Gold.Version>
5.8.1

> <Gold.Id.Protein>
6NUR|6NUR_protein|mol2

> <Gold.PLP.Fitness>
52.1279

> <Gold.PLP.PLP>
-44.0349

> <Gold.PLP.part.hbond>
-2.0000

> <Gold.PLP.part.metal>
0.0000

> <Gold.PLP.part.buried>
-7.4287

> <Gold.PLP.part.nonpolar>
-35.9711

> <Gold.PLP.part.repulsive>
1.3692

> <Gold.PLP.ligand.clash>
0.0000

> <Gold.PLP.ligand.torsion>
0.4504

> <Gold.PLP.Chemscore.Hbond>
2.9920

> <Gold.PLP.Chemscore.CHOScore>
0.0000

> <Gold.PLP.Chemscore.Metal>
0.0000

> <Gold.Chemscore.Hbonds>
donor molecule, donor type, donor heavy atom, donor atom, acceptor molecule, acceptor atom, score
      L1  H    13    39       P1  8028  2.00
      P1  H  7997  8010       L1     1  0.98

> <Gold.PLP.Chemscore.Internal.Correction>
0.0177

> <Gold.Rescore>
     Score         DG    S(hbond)    S(metal)    S(lipo)     H(rot)  DE(clash)    DE(int)     intcor
     18.64     -19.10       1.86        0.00     110.95       2.18       0.05       0.41       ----

> <Gold.Chemscore.Fitness>
18.6374

> <Gold.Chemscore.DG>
-19.1022

> <Gold.Chemscore.ZeroCoef>
-5.4800

> <Gold.Chemscore.Hbond>
1.8646

> <Gold.Chemscore.Metal>
0.0000

> <Gold.Chemscore.Lipo>
110.9471

> <Gold.Chemscore.Internal_Hbond>
0.0000

> <Gold.Chemscore.DEClash>
0.0532

> <Gold.Chemscore.DEInternal>
0.4116

> <Gold.Chemscore.Rot>
2.1822

> <Gold.Chemscore.Internal.Correction>
   9.000000E+99

> <Gold.Chemscore.Hbonds>
donor molecule, donor type, donor heavy atom, donor atom, acceptor molecule, acceptor atom, score
      L1  H    13    39       P1  8028  0.96
      P1  H  7997  8010       L1     1  0.41

> <Gold.Chemscore.Hbond.Weighted>
-6.2277

> <Gold.Chemscore.Metal.Weighted>
-0.0000

> <Gold.Chemscore.Lipo.Weighted>
-12.9808

> <Gold.Chemscore.Internal_Hbond.Weighted>
0.0000

> <Gold.Chemscore.DEClash.Weighted>
0.0532

> <Gold.Chemscore.DEInternal.Weighted>
0.4116

> <Gold.Chemscore.Rot.Weighted>
5.5863

> <Gold.Chemscore.Internal.Correction.Weighted>
   9.000000E+99

> <Gold.Protein.RotatedTorsions>
[ 6907 6896 6895 6894 ] final  150.25 input  -60.11 | X-H torsion
[ 7974 7965 7964 7962 ] final -132.82 input  175.53 | X-H torsion
[ 8008 7997 7996 7995 ] final   39.06 input   59.86 | X-H torsion
[ 10167 10162 10161 10158 ] final  -98.63 input  -65.29 | X-H torsion
[ 10718 10713 10712 10709 ] final   33.81 input   66.30 | X-H torsion
[ 10763 10752 10751 10750 ] final  -94.92 input  -60.55 | X-H torsion
[ 11005 11000 10999 10996 ] final -173.49 input  -57.11 | X-H torsion

> <Gold.Protein.ActiveResidues>
 VAL166  LYS551  ARG553  GLY616  TRP617  ASP618  TYR619  PRO620  LYS621  CYS622 
 ASP623  PHE694  ASN695  SER759  ASP760  ASP761  ALA762  ILE779  LEU786  VAL792 
 PHE793  MET794  SER795  GLU796  ALA797  LYS798  CYS799  TRP800  GLU811  SER814 

> <Gold.Protein.RotatedAtoms>
  152.1170  133.4332  159.4657 H   0  0  0  0  0  0  0  0  0  0  0  0  # atno 6907 bound_to 6896
  150.6870  134.2580  159.4547 H   0  0  0  0  0  0  0  0  0  0  0  0  # atno 6908 bound_to 6896
  152.0454  134.9686  160.0625 H   0  0  0  0  0  0  0  0  0  0  0  0  # atno 6909 bound_to 6896
  144.9250  140.7060  143.4941 H   0  0  0  0  0  0  0  0  0  0  0  0  # atno 7974 bound_to 7965
  155.2305  140.3338  155.4304 H   0  0  0  0  0  0  0  0  0  0  0  0  # atno 8008 bound_to 7997
  156.2297  140.1845  156.7320 H   0  0  0  0  0  0  0  0  0  0  0  0  # atno 8009 bound_to 7997
  154.5957  140.0631  156.9285 H   0  0  0  0  0  0  0  0  0  0  0  0  # atno 8010 bound_to 7997
  140.2710  143.3344  152.0534 H   0  0  0  0  0  0  0  0  0  0  0  0  # atno 10167 bound_to 10162
  157.3025  130.7358  149.6675 H   0  0  0  0  0  0  0  0  0  0  0  0  # atno 10718 bound_to 10713
  154.7100  135.5140  153.8652 H   0  0  0  0  0  0  0  0  0  0  0  0  # atno 10763 bound_to 10752
  153.0772  135.6620  154.0129 H   0  0  0  0  0  0  0  0  0  0  0  0  # atno 10764 bound_to 10752
  153.9972  135.3014  155.3386 H   0  0  0  0  0  0  0  0  0  0  0  0  # atno 10765 bound_to 10752
  140.4852  134.6038  157.4934 H   0  0  0  0  0  0  0  0  0  0  0  0  # atno 11005 bound_to 11000
  145.3234  139.1781  143.4575 LP  0  0  0  0  0  0  0  0  0  0  0  0  # atno 17320 bound_to 7965
  146.3222  140.3254  142.8636 LP  0  0  0  0  0  0  0  0  0  0  0  0  # atno 17321 bound_to 7965
  139.4989  144.6656  151.6363 LP  0  0  0  0  0  0  0  0  0  0  0  0  # atno 17342 bound_to 10162
  140.5890  143.9814  150.6313 LP  0  0  0  0  0  0  0  0  0  0  0  0  # atno 17343 bound_to 10162
  155.9672  130.4276  150.4749 LP  0  0  0  0  0  0  0  0  0  0  0  0  # atno 17370 bound_to 10713
  157.2733  131.0591  151.2246 LP  0  0  0  0  0  0  0  0  0  0  0  0  # atno 17371 bound_to 10713
  139.9802  134.7149  155.9873 LP  0  0  0  0  0  0  0  0  0  0  0  0  # atno 17394 bound_to 11000
  141.1512  133.6548  156.4018 LP  0  0  0  0  0  0  0  0  0  0  0  0  # atno 17395 bound_to 11000

$$$$
