AV-unprocessed.smi:686|AV-procd|sdf|3337|dock1
  -GOLD-   22720 0313D 1   1.00000     0.00000
 Structure written by MMmdl.
 41 42  0  0  0  0  0  0  0  0  2 V2000
  150.7003  135.4830  155.2454 C   0  0  0  0  0  0  0  0  0  0  0  0
  149.5852  134.4573  155.5020 C   0  0  2  0  0  0  0  0  0  0  0  0
  149.4036  133.4911  154.3256 C   0  0  0  0  0  0  0  0  0  0  0  0
  148.2711  134.0140  153.5355 N   0  3  1  0  0  0  0  0  0  0  0  0
  147.6510  133.0425  152.5902 C   0  0  0  0  0  0  0  0  0  0  0  0
  146.5861  133.7186  151.7065 C   0  0  0  0  0  0  0  0  0  0  0  0
  147.0208  131.8524  153.3379 C   0  0  0  0  0  0  0  0  0  0  0  0
  147.3452  134.6258  154.5127 C   0  0  0  0  0  0  0  0  0  0  0  0
  148.2071  135.1262  155.6819 C   0  0  1  0  0  0  0  0  0  0  0  0
  147.6052  134.7571  156.9679 N   0  0  0  0  0  0  0  0  0  0  0  0
  148.6482  134.4701  158.3146 S   0  0  0  0  0  0  0  0  0  0  0  0
  149.4599  133.2838  158.0029 O   0  0  0  0  0  0  0  0  0  0  0  0
  149.3065  135.7420  158.6516 O   0  0  0  0  0  0  0  0  0  0  0  0
  147.4616  134.0510  159.6599 C   0  0  0  0  0  0  0  0  0  0  0  0
  147.5149  135.1117  160.7217 C   0  0  0  0  0  0  0  0  0  0  0  0
  147.5773  134.9468  162.1332 C   0  0  0  0  0  0  0  0  0  0  0  0
  147.6095  136.2283  162.6022 C   0  0  0  0  0  0  0  0  0  0  0  0
  147.5665  137.1120  161.5734 O   0  0  0  0  0  0  0  0  0  0  0  0
  147.5042  136.3895  160.3764 N   0  0  0  0  0  0  0  0  0  0  0  0
  150.4967  136.0798  154.3556 H   0  0  0  0  0  0  0  0  0  0  0  0
  151.6623  134.9899  155.1036 H   0  0  0  0  0  0  0  0  0  0  0  0
  150.8021  136.1655  156.0900 H   0  0  0  0  0  0  0  0  0  0  0  0
  149.8672  133.8798  156.3836 H   0  0  0  0  0  0  0  0  0  0  0  0
  150.3087  133.3894  153.7259 H   0  0  0  0  0  0  0  0  0  0  0  0
  149.1456  132.5017  154.7074 H   0  0  0  0  0  0  0  0  0  0  0  0
  148.4346  132.6543  151.9375 H   0  0  0  0  0  0  0  0  0  0  0  0
  146.1006  132.9919  151.0544 H   0  0  0  0  0  0  0  0  0  0  0  0
  147.0165  134.4824  151.0588 H   0  0  0  0  0  0  0  0  0  0  0  0
  145.8095  134.1888  152.3111 H   0  0  0  0  0  0  0  0  0  0  0  0
  146.5314  131.1699  152.6426 H   0  0  0  0  0  0  0  0  0  0  0  0
  146.2698  132.1868  154.0546 H   0  0  0  0  0  0  0  0  0  0  0  0
  147.7653  131.2685  153.8792 H   0  0  0  0  0  0  0  0  0  0  0  0
  146.7711  135.4354  154.0609 H   0  0  0  0  0  0  0  0  0  0  0  0
  146.6370  133.8685  154.8550 H   0  0  0  0  0  0  0  0  0  0  0  0
  148.2918  136.2122  155.6227 H   0  0  0  0  0  0  0  0  0  0  0  0
  146.9379  133.9939  156.8568 H   0  0  0  0  0  0  0  0  0  0  0  0
  146.4639  133.9687  159.2273 H   0  0  0  0  0  0  0  0  0  0  0  0
  147.7298  133.0767  160.0680 H   0  0  0  0  0  0  0  0  0  0  0  0
  147.6004  134.0336  162.7091 H   0  0  0  0  0  0  0  0  0  0  0  0
  147.6608  136.6552  163.5930 H   0  0  0  0  0  0  0  0  0  0  0  0
  148.6415  134.7761  152.9854 H   0  0  0  0  0  0  0  0  0  0  0  0
  1  2  1  0  0  0  0
  1 20  1  0  0  0  0
  1 21  1  0  0  0  0
  1 22  1  0  0  0  0
  2  9  1  0  0  0  0
  2  3  1  0  0  0  0
  2 23  1  0  0  0  0
  3  4  1  0  0  0  0
  3 24  1  0  0  0  0
  3 25  1  0  0  0  0
  4  5  1  0  0  0  0
  4  8  1  0  0  0  0
  4 41  1  0  0  0  0
  5  6  1  0  0  0  0
  5  7  1  0  0  0  0
  5 26  1  0  0  0  0
  6 27  1  0  0  0  0
  6 28  1  0  0  0  0
  6 29  1  0  0  0  0
  7 30  1  0  0  0  0
  7 31  1  0  0  0  0
  7 32  1  0  0  0  0
  8  9  1  0  0  0  0
  8 33  1  0  0  0  0
  8 34  1  0  0  0  0
  9 10  1  0  0  0  0
  9 35  1  0  0  0  0
 10 11  1  0  0  0  0
 10 36  1  0  0  0  0
 11 12  2  0  0  0  0
 11 13  2  0  0  0  0
 11 14  1  0  0  0  0
 14 15  1  0  0  0  0
 14 37  1  0  0  0  0
 14 38  1  0  0  0  0
 15 19  2  0  0  0  0
 15 16  1  0  0  0  0
 16 17  2  0  0  0  0
 16 39  1  0  0  0  0
 17 18  1  0  0  0  0
 17 40  1  0  0  0  0
 18 19  1  0  0  0  0
M  CHG  1   4   1
M  END
> <s_m_source_file>
AV-unprocessed.smi

> <i_m_source_file_index>
686

> <i_lp_mmshare_version>
43012

> <i_f3d_flags>
0

> <s_epik_input>
W0NIM11bQ0BASF0xW0NIMl1OKFtDSF0oW0NIM10pW0NIM10pW0NIMl1bQ0BIXTFbTkhdUyg9TykoPU8pW0NIMl1jMltjSF1bY0hdb24y

> <s_epik_cmdline>
J2VwaWtfcHl0aG9uJywgJy1waCcsICc3LjAnLCAnLXRuJywgJzgnLCAnLW1hJywgJzIwMCcsICctbWV0YWxfYmluZGluZycsICctaW1hZScsICc8aW5maWxlLm1hZT4nLCAnLW9tYWUnLCAnPG91dGZpbGUubWFlPic=

> <r_epik_Ionization_Penalty>
0.00200818

> <r_epik_Ionization_Penalty_Charging>
0.000701289

> <r_epik_Ionization_Penalty_Neutral>
0.00130689

> <r_epik_State_Penalty>
0.00131314

> <r_epik_Charging_Adjusted_Penalty>
0.00201443

> <i_epik_Tot_Q>
1

> <i_epik_Tot_abs_Q>
1

> <r_epik_Metal_State_Penalty>
0.310831

> <b_epik_Metal_Only>
0

> <s_lp_Force_Field>
OPLS_2005

> <r_lp_Energy>
22.7484

> <b_lp_Chiralities_Consistent>
1

> <s_lp_Variant>
AV-unprocessed.smi:686-1

> <Gold.Version>
5.8.1

> <Gold.Id.Protein>
6NUR|6NUR_protein|mol2

> <Gold.PLP.Fitness>
44.8297

> <Gold.PLP.PLP>
-31.1624

> <Gold.PLP.part.hbond>
-5.0000

> <Gold.PLP.part.metal>
0.0000

> <Gold.PLP.part.buried>
-4.1431

> <Gold.PLP.part.nonpolar>
-22.5159

> <Gold.PLP.part.repulsive>
0.0000

> <Gold.PLP.ligand.clash>
0.0000

> <Gold.PLP.ligand.torsion>
0.6488

> <Gold.PLP.Chemscore.Hbond>
4.9190

> <Gold.PLP.Chemscore.CHOScore>
0.0000

> <Gold.PLP.Chemscore.Metal>
0.0000

> <Gold.Chemscore.Hbonds>
donor molecule, donor type, donor heavy atom, donor atom, acceptor molecule, acceptor atom, score
      L1  H     4    41       P1  7948  2.00
      P1  H  6896  6907       L1    12  0.80
      P1  H  6896  6908       L1    13  0.26
      P1  H  6931  6943       L1    18  1.00
      P1  H  6934  6947       L1    18  0.78

> <Gold.PLP.Chemscore.Internal.Correction>
0.2080

> <Gold.Rescore>
     Score         DG    S(hbond)    S(metal)    S(lipo)     H(rot)  DE(clash)    DE(int)     intcor
     12.34     -15.96       2.36        0.00      63.91       1.91       0.03       3.58       ----

> <Gold.Chemscore.Fitness>
12.3388

> <Gold.Chemscore.DG>
-15.9568

> <Gold.Chemscore.ZeroCoef>
-5.4800

> <Gold.Chemscore.Hbond>
2.3633

> <Gold.Chemscore.Metal>
0.0000

> <Gold.Chemscore.Lipo>
63.9050

> <Gold.Chemscore.Internal_Hbond>
0.0000

> <Gold.Chemscore.DEClash>
0.0345

> <Gold.Chemscore.DEInternal>
3.5835

> <Gold.Chemscore.Rot>
1.9115

> <Gold.Chemscore.Internal.Correction>
   9.000000E+99

> <Gold.Chemscore.Hbonds>
donor molecule, donor type, donor heavy atom, donor atom, acceptor molecule, acceptor atom, score
      L1  H     4    41       P1  7948  0.30
      P1  H  6896  6907       L1    12  0.33
      P1  H  6896  6908       L1    13  0.09
      P1  H  6931  6943       L1    18  0.41
      P1  H  6934  6947       L1    18  0.26

> <Gold.Chemscore.Hbond.Weighted>
-7.8934

> <Gold.Chemscore.Metal.Weighted>
-0.0000

> <Gold.Chemscore.Lipo.Weighted>
-7.4769

> <Gold.Chemscore.Internal_Hbond.Weighted>
0.0000

> <Gold.Chemscore.DEClash.Weighted>
0.0345

> <Gold.Chemscore.DEInternal.Weighted>
3.5835

> <Gold.Chemscore.Rot.Weighted>
4.8935

> <Gold.Chemscore.Internal.Correction.Weighted>
   9.000000E+99

> <Gold.Protein.RotatedTorsions>
[ 6907 6896 6895 6894 ] final -147.29 input  -60.11 | X-H torsion
[ 7974 7965 7964 7962 ] final -166.41 input  175.53 | X-H torsion
[ 8008 7997 7996 7995 ] final  -54.58 input   59.86 | X-H torsion
[ 10167 10162 10161 10158 ] final  109.65 input  -65.29 | X-H torsion
[ 10718 10713 10712 10709 ] final  155.26 input   66.30 | X-H torsion
[ 10763 10752 10751 10750 ] final  138.94 input  -60.55 | X-H torsion
[ 11005 11000 10999 10996 ] final  133.47 input  -57.11 | X-H torsion

> <Gold.Protein.ActiveResidues>
 VAL166  LYS551  ARG553  GLY616  TRP617  ASP618  TYR619  PRO620  LYS621  CYS622 
 ASP623  PHE694  ASN695  SER759  ASP760  ASP761  ALA762  ILE779  LEU786  VAL792 
 PHE793  MET794  SER795  GLU796  ALA797  LYS798  CYS799  TRP800  GLU811  SER814 

> <Gold.Protein.RotatedAtoms>
  151.1535  133.4891  159.2594 H   0  0  0  0  0  0  0  0  0  0  0  0  # atno 6907 bound_to 6896
  151.1528  135.0235  159.8686 H   0  0  0  0  0  0  0  0  0  0  0  0  # atno 6908 bound_to 6896
  152.5463  134.1418  159.8535 H   0  0  0  0  0  0  0  0  0  0  0  0  # atno 6909 bound_to 6896
  144.7246  140.2670  143.6256 H   0  0  0  0  0  0  0  0  0  0  0  0  # atno 7974 bound_to 7965
  154.4167  140.1173  156.5338 H   0  0  0  0  0  0  0  0  0  0  0  0  # atno 8008 bound_to 7997
  155.6578  140.3496  155.4752 H   0  0  0  0  0  0  0  0  0  0  0  0  # atno 8009 bound_to 7997
  155.9738  140.1146  157.0778 H   0  0  0  0  0  0  0  0  0  0  0  0  # atno 8010 bound_to 7997
  139.6750  144.7123  151.1618 H   0  0  0  0  0  0  0  0  0  0  0  0  # atno 10167 bound_to 10162
  157.2206  131.0718  151.1914 H   0  0  0  0  0  0  0  0  0  0  0  0  # atno 10718 bound_to 10713
  153.8978  135.3025  155.3448 H   0  0  0  0  0  0  0  0  0  0  0  0  # atno 10763 bound_to 10752
  154.7685  135.4898  153.9604 H   0  0  0  0  0  0  0  0  0  0  0  0  # atno 10764 bound_to 10752
  153.1261  135.6793  153.9354 H   0  0  0  0  0  0  0  0  0  0  0  0  # atno 10765 bound_to 10752
  139.9854  134.9534  156.9730 H   0  0  0  0  0  0  0  0  0  0  0  0  # atno 11005 bound_to 11000
  145.8080  139.1991  143.2009 LP  0  0  0  0  0  0  0  0  0  0  0  0  # atno 17320 bound_to 7965
  146.0620  140.7960  142.9730 LP  0  0  0  0  0  0  0  0  0  0  0  0  # atno 17321 bound_to 7965
  140.7632  143.5786  150.8919 LP  0  0  0  0  0  0  0  0  0  0  0  0  # atno 17342 bound_to 10162
  139.9454  143.6334  152.3043 LP  0  0  0  0  0  0  0  0  0  0  0  0  # atno 17343 bound_to 10162
  157.3579  130.7116  149.6483 LP  0  0  0  0  0  0  0  0  0  0  0  0  # atno 17370 bound_to 10713
  155.9682  130.4234  150.4559 LP  0  0  0  0  0  0  0  0  0  0  0  0  # atno 17371 bound_to 10713
  140.5013  134.1094  155.7251 LP  0  0  0  0  0  0  0  0  0  0  0  0  # atno 17394 bound_to 11000
  141.1520  133.8952  157.2075 LP  0  0  0  0  0  0  0  0  0  0  0  0  # atno 17395 bound_to 11000

$$$$
