AV-unprocessed.smi:2471|AV-procd|sdf|9739|dock1
  -GOLD-   2272013383D 1   1.00000     0.00000
 Structure written by MMmdl.
 40 41  0  0  0  0  0  0  0  0  1 V2000
  153.0491  142.1588  161.2618 C   0  0  0  0  0  0  0  0  0  0  0  0
  152.2957  143.2013  160.4625 C   0  0  0  0  0  0  0  0  0  0  0  0
  152.2305  144.5400  160.8967 C   0  0  0  0  0  0  0  0  0  0  0  0
  151.5197  145.4596  160.1048 C   0  0  0  0  0  0  0  0  0  0  0  0
  150.9076  145.0061  158.9206 C   0  0  0  0  0  0  0  0  0  0  0  0
  151.0187  143.6449  158.5576 C   0  0  0  0  0  0  0  0  0  0  0  0
  150.3640  143.2905  157.3484 N   0  0  0  0  0  0  0  0  0  0  0  0
  150.5581  142.2007  156.5850 C   0  0  0  0  0  0  0  0  0  0  0  0
  151.3620  141.2981  156.8206 O   0  0  0  0  0  0  0  0  0  0  0  0
  149.7547  142.2134  155.5118 N   0  0  0  0  0  0  0  0  0  0  0  0
  149.7111  141.1806  154.4812 C   0  0  0  0  0  0  0  0  0  0  0  0
  148.2977  140.5838  154.2891 C   0  0  2  0  0  0  0  0  0  0  0  0
  147.7475  139.9001  155.5619 C   0  0  0  0  0  0  0  0  0  0  0  0
  146.3243  139.3617  155.3432 C   0  0  0  0  0  0  0  0  0  0  0  0
  146.2630  138.4028  154.1450 C   0  0  0  0  0  0  0  0  0  0  0  0
  146.8102  139.0672  152.8697 C   0  0  0  0  0  0  0  0  0  0  0  0
  148.2310  139.6290  153.0720 C   0  0  2  0  0  0  0  0  0  0  0  0
  149.1390  138.5527  153.2168 O   0  0  0  0  0  0  0  0  0  0  0  0
  151.7079  142.7661  159.3272 N   0  0  0  0  0  0  0  0  0  0  0  0
  153.3763  142.5576  162.2223 H   0  0  0  0  0  0  0  0  0  0  0  0
  153.9304  141.8265  160.7126 H   0  0  0  0  0  0  0  0  0  0  0  0
  152.4156  141.2920  161.4526 H   0  0  0  0  0  0  0  0  0  0  0  0
  152.7114  144.8565  161.8106 H   0  0  0  0  0  0  0  0  0  0  0  0
  151.4444  146.4958  160.3995 H   0  0  0  0  0  0  0  0  0  0  0  0
  150.3578  145.6998  158.3011 H   0  0  0  0  0  0  0  0  0  0  0  0
  149.6628  143.9421  157.0288 H   0  0  0  0  0  0  0  0  0  0  0  0
  149.1254  142.9944  155.3972 H   0  0  0  0  0  0  0  0  0  0  0  0
  150.0797  141.5910  153.5396 H   0  0  0  0  0  0  0  0  0  0  0  0
  150.4142  140.3990  154.7697 H   0  0  0  0  0  0  0  0  0  0  0  0
  147.6288  141.4158  154.0631 H   0  0  0  0  0  0  0  0  0  0  0  0
  148.4074  139.0849  155.8615 H   0  0  0  0  0  0  0  0  0  0  0  0
  147.7328  140.6033  156.3948 H   0  0  0  0  0  0  0  0  0  0  0  0
  145.9779  138.8533  156.2436 H   0  0  0  0  0  0  0  0  0  0  0  0
  145.6409  140.1956  155.1778 H   0  0  0  0  0  0  0  0  0  0  0  0
  146.8360  137.5020  154.3679 H   0  0  0  0  0  0  0  0  0  0  0  0
  145.2349  138.0790  153.9815 H   0  0  0  0  0  0  0  0  0  0  0  0
  146.7980  138.3572  152.0419 H   0  0  0  0  0  0  0  0  0  0  0  0
  146.1438  139.8810  152.5806 H   0  0  0  0  0  0  0  0  0  0  0  0
  148.5229  140.1738  152.1734 H   0  0  0  0  0  0  0  0  0  0  0  0
  148.9497  137.9109  152.5494 H   0  0  0  0  0  0  0  0  0  0  0  0
  1  2  1  0  0  0  0
  1 20  1  0  0  0  0
  1 21  1  0  0  0  0
  1 22  1  0  0  0  0
  2 19  1  0  0  0  0
  2  3  2  0  0  0  0
  3  4  1  0  0  0  0
  3 23  1  0  0  0  0
  4  5  2  0  0  0  0
  4 24  1  0  0  0  0
  5  6  1  0  0  0  0
  5 25  1  0  0  0  0
  6  7  1  0  0  0  0
  6 19  2  0  0  0  0
  7  8  1  0  0  0  0
  7 26  1  0  0  0  0
  8  9  2  0  0  0  0
  8 10  1  0  0  0  0
 10 11  1  0  0  0  0
 10 27  1  0  0  0  0
 11 12  1  0  0  0  0
 11 28  1  0  0  0  0
 11 29  1  0  0  0  0
 12 17  1  0  0  0  0
 12 13  1  0  0  0  0
 12 30  1  0  0  0  0
 13 14  1  0  0  0  0
 13 31  1  0  0  0  0
 13 32  1  0  0  0  0
 14 15  1  0  0  0  0
 14 33  1  0  0  0  0
 14 34  1  0  0  0  0
 15 16  1  0  0  0  0
 15 35  1  0  0  0  0
 15 36  1  0  0  0  0
 16 17  1  0  0  0  0
 16 37  1  0  0  0  0
 16 38  1  0  0  0  0
 17 18  1  0  0  0  0
 17 39  1  0  0  0  0
 18 40  1  0  0  0  0
M  END
> <s_m_source_file>
AV-unprocessed.smi

> <i_m_source_file_index>
2471

> <i_lp_mmshare_version>
43012

> <i_f3d_flags>
0

> <s_epik_input>
W0NIM11jMVtjSF1bY0hdW2NIXWMobjEpW05IXUMoPU8pW05IXVtDSDJdW0NAQEhdMltDSDJdW0NIMl1bQ0gyXVtDSDJdW0NASF0yW09IXQ==

> <s_epik_cmdline>
J2VwaWtfcHl0aG9uJywgJy1waCcsICc3LjAnLCAnLXRuJywgJzgnLCAnLW1hJywgJzIwMCcsICctbWV0YWxfYmluZGluZycsICctaW1hZScsICc8aW5maWxlLm1hZT4nLCAnLW9tYWUnLCAnPG91dGZpbGUubWFlPic=

> <r_lp_tautomer_probability>
1

> <r_epik_Ionization_Penalty>
8.52237e-05

> <r_epik_Ionization_Penalty_Charging>
0

> <r_epik_Ionization_Penalty_Neutral>
8.52237e-05

> <r_epik_State_Penalty>
-0

> <r_epik_Charging_Adjusted_Penalty>
0

> <i_epik_Tot_Q>
0

> <i_epik_Tot_abs_Q>
0

> <r_epik_Metal_State_Penalty>
-0

> <b_epik_Metal_Only>
0

> <s_lp_Force_Field>
OPLS_2005

> <r_lp_Energy>
16.1084

> <b_lp_Chiralities_Consistent>
1

> <s_lp_Variant>
AV-unprocessed.smi:2471-3

> <Gold.Version>
5.8.1

> <Gold.Id.Protein>
6NUR|6NUR_protein|mol2

> <Gold.PLP.Fitness>
45.1382

> <Gold.PLP.PLP>
-36.3867

> <Gold.PLP.part.hbond>
-4.0000

> <Gold.PLP.part.metal>
0.0000

> <Gold.PLP.part.buried>
-1.1254

> <Gold.PLP.part.nonpolar>
-31.6179

> <Gold.PLP.part.repulsive>
0.2000

> <Gold.PLP.ligand.clash>
0.0000

> <Gold.PLP.ligand.torsion>
0.0947

> <Gold.PLP.Chemscore.Hbond>
2.9760

> <Gold.PLP.Chemscore.CHOScore>
0.0000

> <Gold.PLP.Chemscore.Metal>
0.0000

> <Gold.Chemscore.Hbonds>
donor molecule, donor type, donor heavy atom, donor atom, acceptor molecule, acceptor atom, score
      L1  H     7    26       P1  8028  0.96
      L1  H    10    27       P1  8028  0.93
      L1  H    18    40       P1  7948  1.00

> <Gold.PLP.Chemscore.Internal.Correction>
0.0128

> <Gold.Rescore>
     Score         DG    S(hbond)    S(metal)    S(lipo)     H(rot)  DE(clash)    DE(int)     intcor
     18.35     -21.58       2.92        0.00      92.21       1.73       1.93       1.30       ----

> <Gold.Chemscore.Fitness>
18.3451

> <Gold.Chemscore.DG>
-21.5768

> <Gold.Chemscore.ZeroCoef>
-5.4800

> <Gold.Chemscore.Hbond>
2.9184

> <Gold.Chemscore.Metal>
0.0000

> <Gold.Chemscore.Lipo>
92.2063

> <Gold.Chemscore.Internal_Hbond>
0.0000

> <Gold.Chemscore.DEClash>
1.9274

> <Gold.Chemscore.DEInternal>
1.3044

> <Gold.Chemscore.Rot>
1.7339

> <Gold.Chemscore.Internal.Correction>
   9.000000E+99

> <Gold.Chemscore.Hbonds>
donor molecule, donor type, donor heavy atom, donor atom, acceptor molecule, acceptor atom, score
      L1  H     7    26       P1  8028  0.76
      L1  H    10    27       P1  8028  0.90
      L1  H    18    40       P1  7948  0.97

> <Gold.Chemscore.Hbond.Weighted>
-9.7473

> <Gold.Chemscore.Metal.Weighted>
-0.0000

> <Gold.Chemscore.Lipo.Weighted>
-10.7881

> <Gold.Chemscore.Internal_Hbond.Weighted>
0.0000

> <Gold.Chemscore.DEClash.Weighted>
1.9274

> <Gold.Chemscore.DEInternal.Weighted>
1.3044

> <Gold.Chemscore.Rot.Weighted>
4.4387

> <Gold.Chemscore.Internal.Correction.Weighted>
   9.000000E+99

> <Gold.Protein.RotatedTorsions>
[ 6907 6896 6895 6894 ] final   62.95 input  -60.11 | X-H torsion
[ 7974 7965 7964 7962 ] final  -37.77 input  175.53 | X-H torsion
[ 8008 7997 7996 7995 ] final  169.39 input   59.86 | X-H torsion
[ 10167 10162 10161 10158 ] final -111.41 input  -65.29 | X-H torsion
[ 10718 10713 10712 10709 ] final  159.90 input   66.30 | X-H torsion
[ 10763 10752 10751 10750 ] final    0.20 input  -60.55 | X-H torsion
[ 11005 11000 10999 10996 ] final  -92.71 input  -57.11 | X-H torsion

> <Gold.Protein.ActiveResidues>
 VAL166  LYS551  ARG553  GLY616  TRP617  ASP618  TYR619  PRO620  LYS621  CYS622 
 ASP623  PHE694  ASN695  SER759  ASP760  ASP761  ALA762  ILE779  LEU786  VAL792 
 PHE793  MET794  SER795  GLU796  ALA797  LYS798  CYS799  TRP800  GLU811  SER814 

> <Gold.Protein.RotatedAtoms>
  152.4214  134.5949  159.9983 H   0  0  0  0  0  0  0  0  0  0  0  0  # atno 6907 bound_to 6896
  151.6097  133.3343  159.3073 H   0  0  0  0  0  0  0  0  0  0  0  0  # atno 6908 bound_to 6896
  150.8102  134.7290  159.6746 H   0  0  0  0  0  0  0  0  0  0  0  0  # atno 6909 bound_to 6896
  146.0545  140.6435  142.9026 H   0  0  0  0  0  0  0  0  0  0  0  0  # atno 7974 bound_to 7965
  156.1461  140.1565  156.8844 H   0  0  0  0  0  0  0  0  0  0  0  0  # atno 8008 bound_to 7997
  154.5030  140.0820  156.7874 H   0  0  0  0  0  0  0  0  0  0  0  0  # atno 8009 bound_to 7997
  155.3985  140.3413  155.4258 H   0  0  0  0  0  0  0  0  0  0  0  0  # atno 8010 bound_to 7997
  140.1339  143.4337  152.1609 H   0  0  0  0  0  0  0  0  0  0  0  0  # atno 10167 bound_to 10162
  157.1579  131.0580  151.2247 H   0  0  0  0  0  0  0  0  0  0  0  0  # atno 10718 bound_to 10713
  153.3237  135.6971  153.7008 H   0  0  0  0  0  0  0  0  0  0  0  0  # atno 10763 bound_to 10752
  153.5837  135.3493  155.2885 H   0  0  0  0  0  0  0  0  0  0  0  0  # atno 10764 bound_to 10752
  154.8603  135.4301  154.2408 H   0  0  0  0  0  0  0  0  0  0  0  0  # atno 10765 bound_to 10752
  141.1515  133.7839  157.0058 H   0  0  0  0  0  0  0  0  0  0  0  0  # atno 11005 bound_to 11000
  144.7140  140.4144  143.7058 LP  0  0  0  0  0  0  0  0  0  0  0  0  # atno 17320 bound_to 7965
  145.6667  139.1591  143.2778 LP  0  0  0  0  0  0  0  0  0  0  0  0  # atno 17321 bound_to 7965
  139.5506  144.7334  151.4448 LP  0  0  0  0  0  0  0  0  0  0  0  0  # atno 17342 bound_to 10162
  140.6801  143.8102  150.7110 LP  0  0  0  0  0  0  0  0  0  0  0  0  # atno 17343 bound_to 10162
  157.4160  130.7411  149.6876 LP  0  0  0  0  0  0  0  0  0  0  0  0  # atno 17370 bound_to 10713
  155.9759  130.4083  150.3817 LP  0  0  0  0  0  0  0  0  0  0  0  0  # atno 17371 bound_to 10713
  140.0910  134.9592  157.1776 LP  0  0  0  0  0  0  0  0  0  0  0  0  # atno 17394 bound_to 11000
  140.3446  134.2666  155.7207 LP  0  0  0  0  0  0  0  0  0  0  0  0  # atno 17395 bound_to 11000

$$$$
