AV-unprocessed.smi:505|AV-procd|sdf|2748|dock8
  -GOLD-   2262023213D 1   1.00000     0.00000
 Structure written by MMmdl.
 37 38  0  0  0  0  0  0  0  0  1 V2000
  146.4796  142.4542  152.9629 C   0  0  0  0  0  0  0  0  0  0  0  0
  146.4844  142.0288  154.3136 O   0  0  0  0  0  0  0  0  0  0  0  0
  147.4682  141.0398  154.5705 C   0  0  0  0  0  0  0  0  0  0  0  0
  148.8601  141.6009  154.2484 C   0  0  0  0  0  0  0  0  0  0  0  0
  149.9167  140.8992  154.9709 N   0  0  0  0  0  0  0  0  0  0  0  0
  150.8618  141.4271  155.7878 C   0  0  0  0  0  0  0  0  0  0  0  0
  150.9164  142.7969  156.0067 N   0  0  0  0  0  0  0  0  0  0  0  0
  151.8019  143.6142  156.8134 C   0  0  0  0  0  0  0  0  0  0  0  0
  151.0234  144.6290  157.6603 C   0  0  0  0  0  0  0  0  0  0  0  0
  149.6711  144.2363  157.7632 O   0  0  0  0  0  0  0  0  0  0  0  0
  151.7036  140.5404  156.3248 N   0  0  0  0  0  0  0  0  0  0  0  0
  151.2614  139.3376  155.7907 C   0  0  0  0  0  0  0  0  0  0  0  0
  150.1968  139.5339  154.9706 C   0  0  0  0  0  0  0  0  0  0  0  0
  149.5377  138.4362  154.2533 C   0  0  0  0  0  0  0  0  0  0  0  0
  148.5793  138.5985  153.5008 O   0  0  0  0  0  0  0  0  0  0  0  0
  150.0992  137.2280  154.5019 N   0  0  0  0  0  0  0  0  0  0  0  0
  151.1660  136.9587  155.3155 C   0  0  0  0  0  0  0  0  0  0  0  0
  151.5680  135.8019  155.4390 O   0  0  0  0  0  0  0  0  0  0  0  0
  151.7519  138.0125  155.9700 N   0  0  0  0  0  0  0  0  0  0  0  0
  152.8942  137.7806  156.8560 C   0  0  0  0  0  0  0  0  0  0  0  0
  149.6852  136.4369  154.0309 H   0  0  0  0  0  0  0  0  0  0  0  0
  145.7103  143.2134  152.8215 H   0  0  0  0  0  0  0  0  0  0  0  0
  146.2621  141.6244  152.2893 H   0  0  0  0  0  0  0  0  0  0  0  0
  147.4393  142.8909  152.6836 H   0  0  0  0  0  0  0  0  0  0  0  0
  147.4270  140.7363  155.6175 H   0  0  0  0  0  0  0  0  0  0  0  0
  147.2731  140.1526  153.9661 H   0  0  0  0  0  0  0  0  0  0  0  0
  149.0503  141.5360  153.1769 H   0  0  0  0  0  0  0  0  0  0  0  0
  148.9084  142.6621  154.4904 H   0  0  0  0  0  0  0  0  0  0  0  0
  150.2556  143.3345  155.4645 H   0  0  0  0  0  0  0  0  0  0  0  0
  152.3539  142.9427  157.4713 H   0  0  0  0  0  0  0  0  0  0  0  0
  152.5376  144.1112  156.1799 H   0  0  0  0  0  0  0  0  0  0  0  0
  151.4632  144.7515  158.6508 H   0  0  0  0  0  0  0  0  0  0  0  0
  151.0470  145.6049  157.1751 H   0  0  0  0  0  0  0  0  0  0  0  0
  149.1449  144.8319  157.2519 H   0  0  0  0  0  0  0  0  0  0  0  0
  152.6453  137.0429  157.6204 H   0  0  0  0  0  0  0  0  0  0  0  0
  153.2131  138.6853  157.3735 H   0  0  0  0  0  0  0  0  0  0  0  0
  153.7479  137.4092  156.2875 H   0  0  0  0  0  0  0  0  0  0  0  0
  1  2  1  0  0  0  0
  1 22  1  0  0  0  0
  1 23  1  0  0  0  0
  1 24  1  0  0  0  0
  2  3  1  0  0  0  0
  3  4  1  0  0  0  0
  3 25  1  0  0  0  0
  3 26  1  0  0  0  0
  4  5  1  0  0  0  0
  4 27  1  0  0  0  0
  4 28  1  0  0  0  0
  5 13  1  0  0  0  0
  5  6  1  0  0  0  0
  6  7  1  0  0  0  0
  6 11  2  0  0  0  0
  7  8  1  0  0  0  0
  7 29  1  0  0  0  0
  8  9  1  0  0  0  0
  8 30  1  0  0  0  0
  8 31  1  0  0  0  0
  9 10  1  0  0  0  0
  9 32  1  0  0  0  0
  9 33  1  0  0  0  0
 10 34  1  0  0  0  0
 11 12  1  0  0  0  0
 12 19  1  0  0  0  0
 12 13  2  0  0  0  0
 13 14  1  0  0  0  0
 14 15  2  0  0  0  0
 14 16  1  0  0  0  0
 16 21  1  0  0  0  0
 16 17  1  0  0  0  0
 17 18  2  0  0  0  0
 17 19  1  0  0  0  0
 19 20  1  0  0  0  0
 20 35  1  0  0  0  0
 20 36  1  0  0  0  0
 20 37  1  0  0  0  0
M  END
> <s_m_source_file>
AV-unprocessed.smi

> <i_m_source_file_index>
505

> <i_lp_mmshare_version>
43012

> <i_f3d_flags>
0

> <s_epik_input>
W09IXVtDSDJdW0NIMl1bTkhdYyhuMSluKFtDSDJdW0NIMl1PW0NIM10pYyhjMTIpYyg9TylbbkhdYyg9TyluMltDSDNd

> <s_epik_cmdline>
J2VwaWtfcHl0aG9uJywgJy1waCcsICc3LjAnLCAnLXRuJywgJzgnLCAnLW1hJywgJzIwMCcsICctbWV0YWxfYmluZGluZycsICctaW1hZScsICc8aW5maWxlLm1hZT4nLCAnLW9tYWUnLCAnPG91dGZpbGUubWFlPic=

> <r_lp_tautomer_probability>
1

> <r_epik_Ionization_Penalty>
7.89905e-05

> <r_epik_Ionization_Penalty_Charging>
2.6983e-05

> <r_epik_Ionization_Penalty_Neutral>
5.20075e-05

> <r_epik_State_Penalty>
-0

> <r_epik_Charging_Adjusted_Penalty>
2.6983e-05

> <i_epik_Tot_Q>
0

> <i_epik_Tot_abs_Q>
0

> <r_epik_Metal_State_Penalty>
0.02526

> <b_epik_Metal_Only>
0

> <s_lp_Force_Field>
OPLS_2005

> <r_lp_Energy>
22.7063

> <b_lp_Chiralities_Consistent>
1

> <s_lp_Variant>
AV-unprocessed.smi:505-1

> <Gold.Version>
5.8.1

> <Gold.Id.Protein>
6NUR|6NUR_protein|mol2

> <Gold.PLP.Fitness>
47.5364

> <Gold.PLP.PLP>
-36.5466

> <Gold.PLP.part.hbond>
-4.8533

> <Gold.PLP.part.metal>
0.0000

> <Gold.PLP.part.buried>
-3.3104

> <Gold.PLP.part.nonpolar>
-31.3539

> <Gold.PLP.part.repulsive>
2.6739

> <Gold.PLP.ligand.clash>
0.0000

> <Gold.PLP.ligand.torsion>
0.5121

> <Gold.PLP.Chemscore.Hbond>
4.0000

> <Gold.PLP.Chemscore.CHOScore>
0.0000

> <Gold.PLP.Chemscore.Metal>
0.0000

> <Gold.Chemscore.Hbonds>
donor molecule, donor type, donor heavy atom, donor atom, acceptor molecule, acceptor atom, score
      L1  H     7    29       P1  8028  0.83
      L1  H    16    21       P1  7948  0.24
      P1  H 10752 10765       L1    18  1.00

> <Gold.PLP.Chemscore.Internal.Correction>
0.0140

> <Gold.Rescore>
     Score         DG    S(hbond)    S(metal)    S(lipo)     H(rot)  DE(clash)    DE(int)     intcor
     12.92     -15.68       3.72        0.00      47.91       3.06       0.68       2.09       ----

> <Gold.Chemscore.Fitness>
12.9163

> <Gold.Chemscore.DG>
-15.6792

> <Gold.Chemscore.ZeroCoef>
-5.4800

> <Gold.Chemscore.Hbond>
3.7223

> <Gold.Chemscore.Metal>
0.0000

> <Gold.Chemscore.Lipo>
47.9123

> <Gold.Chemscore.Internal_Hbond>
0.0000

> <Gold.Chemscore.DEClash>
0.6769

> <Gold.Chemscore.DEInternal>
2.0861

> <Gold.Chemscore.Rot>
3.0621

> <Gold.Chemscore.Internal.Correction>
   9.000000E+99

> <Gold.Chemscore.Hbonds>
donor molecule, donor type, donor heavy atom, donor atom, acceptor molecule, acceptor atom, score
      L1  H     7    29       P1  8028  0.82
      L1  H    16    21       P1  7948  0.15
      P1  H 10752 10765       L1    18  0.81

> <Gold.Chemscore.Hbond.Weighted>
-12.4325

> <Gold.Chemscore.Metal.Weighted>
-0.0000

> <Gold.Chemscore.Lipo.Weighted>
-5.6057

> <Gold.Chemscore.Internal_Hbond.Weighted>
0.0000

> <Gold.Chemscore.DEClash.Weighted>
0.6769

> <Gold.Chemscore.DEInternal.Weighted>
2.0861

> <Gold.Chemscore.Rot.Weighted>
7.8390

> <Gold.Chemscore.Internal.Correction.Weighted>
   9.000000E+99

> <Gold.Protein.RotatedTorsions>
[ 6907 6896 6895 6894 ] final   23.23 input  -60.11 | X-H torsion
[ 7974 7965 7964 7962 ] final  110.11 input  175.53 | X-H torsion
[ 8008 7997 7996 7995 ] final  -47.65 input   59.86 | X-H torsion
[ 10167 10162 10161 10158 ] final -162.10 input  -65.29 | X-H torsion
[ 10718 10713 10712 10709 ] final  -61.70 input   66.30 | X-H torsion
[ 10763 10752 10751 10750 ] final -176.81 input  -60.55 | X-H torsion
[ 11005 11000 10999 10996 ] final  -44.94 input  -57.11 | X-H torsion

> <Gold.Protein.ActiveResidues>
 VAL166  LYS551  ARG553  GLY616  TRP617  ASP618  TYR619  PRO620  LYS621  CYS622 
 ASP623  PHE694  ASN695  SER759  ASP760  ASP761  ALA762  ILE779  LEU786  VAL792 
 PHE793  MET794  SER795  GLU796  ALA797  LYS798  CYS799  TRP800  GLU811  SER814 

> <Gold.Protein.RotatedAtoms>
  151.9392  135.0221  160.0534 H   0  0  0  0  0  0  0  0  0  0  0  0  # atno 6907 bound_to 6896
  152.2051  133.4865  159.5088 H   0  0  0  0  0  0  0  0  0  0  0  0  # atno 6908 bound_to 6896
  150.6963  134.1456  159.4164 H   0  0  0  0  0  0  0  0  0  0  0  0  # atno 6909 bound_to 6896
  145.2591  139.2709  143.4026 H   0  0  0  0  0  0  0  0  0  0  0  0  # atno 7974 bound_to 7965
  154.4019  140.1341  156.4209 H   0  0  0  0  0  0  0  0  0  0  0  0  # atno 8008 bound_to 7997
  155.7643  140.3485  155.5194 H   0  0  0  0  0  0  0  0  0  0  0  0  # atno 8009 bound_to 7997
  155.8828  140.0990  157.1463 H   0  0  0  0  0  0  0  0  0  0  0  0  # atno 8010 bound_to 7997
  139.6417  144.0248  152.2097 H   0  0  0  0  0  0  0  0  0  0  0  0  # atno 10167 bound_to 10162
  156.0904  130.4201  150.1031 H   0  0  0  0  0  0  0  0  0  0  0  0  # atno 10718 bound_to 10713
  154.5679  135.2825  155.0856 H   0  0  0  0  0  0  0  0  0  0  0  0  # atno 10763 bound_to 10752
  154.2240  135.6386  153.5157 H   0  0  0  0  0  0  0  0  0  0  0  0  # atno 10764 bound_to 10752
  153.0048  135.5521  154.6293 H   0  0  0  0  0  0  0  0  0  0  0  0  # atno 10765 bound_to 10752
  141.0483  133.6752  156.2943 H   0  0  0  0  0  0  0  0  0  0  0  0  # atno 11005 bound_to 11000
  146.3280  140.3003  142.8620 LP  0  0  0  0  0  0  0  0  0  0  0  0  # atno 17320 bound_to 7965
  144.9434  140.8103  143.5616 LP  0  0  0  0  0  0  0  0  0  0  0  0  # atno 17321 bound_to 7965
  139.9939  144.6342  150.7790 LP  0  0  0  0  0  0  0  0  0  0  0  0  # atno 17342 bound_to 10162
  140.7494  143.2938  151.3259 LP  0  0  0  0  0  0  0  0  0  0  0  0  # atno 17343 bound_to 10162
  156.9042  130.9630  151.3572 LP  0  0  0  0  0  0  0  0  0  0  0  0  # atno 17370 bound_to 10713
  157.6051  130.8541  149.8863 LP  0  0  0  0  0  0  0  0  0  0  0  0  # atno 17371 bound_to 10713
  140.6104  134.5464  157.5532 LP  0  0  0  0  0  0  0  0  0  0  0  0  # atno 17394 bound_to 11000
  139.9330  134.7929  156.0880 LP  0  0  0  0  0  0  0  0  0  0  0  0  # atno 17395 bound_to 11000

$$$$
