AV-unprocessed.smi:1807|AV-procd|sdf|7303|dock2
  -GOLD-   22720 8563D 1   1.00000     0.00000
 Structure written by MMmdl.
 44 45  0  0  0  0  0  0  0  0  1 V2000
  153.1405  142.1113  161.4668 C   0  0  0  0  0  0  0  0  0  0  0  0
  152.9216  143.2274  160.4309 C   0  0  2  0  0  0  0  0  0  0  0  0
  151.6955  144.0946  160.7842 C   0  0  0  0  0  0  0  0  0  0  0  0
  151.5163  145.2512  159.7880 C   0  0  0  0  0  0  0  0  0  0  0  0
  151.4202  144.7362  158.3442 C   0  0  0  0  0  0  0  0  0  0  0  0
  152.6362  143.8659  157.9805 C   0  0  0  0  0  0  0  0  0  0  0  0
  152.8410  142.7035  158.9733 C   0  0  2  0  0  0  0  0  0  0  0  0
  151.7713  141.7176  158.8051 N   0  0  0  0  0  0  0  0  0  0  0  0
  151.9226  140.4296  158.4605 C   0  0  0  0  0  0  0  0  0  0  0  0
  153.0173  139.9108  158.2350 O   0  0  0  0  0  0  0  0  0  0  0  0
  150.6270  139.6212  158.3545 C   0  0  0  0  0  0  0  0  0  0  0  0
  150.7191  138.5640  157.3571 N   0  0  0  0  0  0  0  0  0  0  0  0
  150.2975  138.8104  156.0466 C   0  0  0  0  0  0  0  0  0  0  0  0
  150.3598  137.8168  155.0322 C   0  0  0  0  0  0  0  0  0  0  0  0
  149.8551  138.4582  153.9365 C   0  0  0  0  0  0  0  0  0  0  0  0
  149.5296  139.7448  154.3204 N   0  0  0  0  0  0  0  0  0  0  0  0
  148.9534  140.8075  153.5162 C   0  0  0  0  0  0  0  0  0  0  0  0
  147.5952  140.3936  152.9469 C   0  0  0  0  0  0  0  0  0  0  0  0
  146.5639  141.2123  153.1713 N   0  0  0  0  0  0  0  0  0  0  0  0
  147.4777  139.3479  152.3120 O   0  0  0  0  0  0  0  0  0  0  0  0
  149.8051  139.9653  155.6251 N   0  0  0  0  0  0  0  0  0  0  0  0
  152.2790  141.4465  161.5338 H   0  0  0  0  0  0  0  0  0  0  0  0
  153.3094  142.5290  162.4594 H   0  0  0  0  0  0  0  0  0  0  0  0
  154.0109  141.5055  161.2129 H   0  0  0  0  0  0  0  0  0  0  0  0
  153.7978  143.8753  160.4860 H   0  0  0  0  0  0  0  0  0  0  0  0
  150.7948  143.4795  160.7959 H   0  0  0  0  0  0  0  0  0  0  0  0
  151.8028  144.4979  161.7917 H   0  0  0  0  0  0  0  0  0  0  0  0
  150.6220  145.8226  160.0386 H   0  0  0  0  0  0  0  0  0  0  0  0
  152.3576  145.9400  159.8744 H   0  0  0  0  0  0  0  0  0  0  0  0
  150.5022  144.1603  158.2218 H   0  0  0  0  0  0  0  0  0  0  0  0
  151.3477  145.5774  157.6546 H   0  0  0  0  0  0  0  0  0  0  0  0
  152.5299  143.4813  156.9654 H   0  0  0  0  0  0  0  0  0  0  0  0
  153.5302  144.4906  157.9741 H   0  0  0  0  0  0  0  0  0  0  0  0
  153.7973  142.2381  158.7283 H   0  0  0  0  0  0  0  0  0  0  0  0
  150.8306  142.0464  158.9678 H   0  0  0  0  0  0  0  0  0  0  0  0
  150.3977  139.1841  159.3280 H   0  0  0  0  0  0  0  0  0  0  0  0
  149.8101  140.2959  158.0953 H   0  0  0  0  0  0  0  0  0  0  0  0
  151.0097  137.6398  157.6431 H   0  0  0  0  0  0  0  0  0  0  0  0
  150.7131  136.7984  155.0968 H   0  0  0  0  0  0  0  0  0  0  0  0
  149.6993  138.1093  152.9265 H   0  0  0  0  0  0  0  0  0  0  0  0
  148.8401  141.7046  154.1273 H   0  0  0  0  0  0  0  0  0  0  0  0
  149.6455  141.0554  152.7101 H   0  0  0  0  0  0  0  0  0  0  0  0
  145.6483  140.9836  152.8128 H   0  0  0  0  0  0  0  0  0  0  0  0
  146.7064  142.0619  153.6983 H   0  0  0  0  0  0  0  0  0  0  0  0
  1  2  1  0  0  0  0
  1 22  1  0  0  0  0
  1 23  1  0  0  0  0
  1 24  1  0  0  0  0
  2  7  1  0  0  0  0
  2  3  1  0  0  0  0
  2 25  1  0  0  0  0
  3  4  1  0  0  0  0
  3 26  1  0  0  0  0
  3 27  1  0  0  0  0
  4  5  1  0  0  0  0
  4 28  1  0  0  0  0
  4 29  1  0  0  0  0
  5  6  1  0  0  0  0
  5 30  1  0  0  0  0
  5 31  1  0  0  0  0
  6  7  1  0  0  0  0
  6 32  1  0  0  0  0
  6 33  1  0  0  0  0
  7  8  1  0  0  0  0
  7 34  1  0  0  0  0
  8  9  1  0  0  0  0
  8 35  1  0  0  0  0
  9 10  2  0  0  0  0
  9 11  1  0  0  0  0
 11 12  1  0  0  0  0
 11 36  1  0  0  0  0
 11 37  1  0  0  0  0
 12 13  1  0  0  0  0
 12 38  1  0  0  0  0
 13 21  2  0  0  0  0
 13 14  1  0  0  0  0
 14 15  2  0  0  0  0
 14 39  1  0  0  0  0
 15 16  1  0  0  0  0
 15 40  1  0  0  0  0
 16 17  1  0  0  0  0
 16 21  1  0  0  0  0
 17 18  1  0  0  0  0
 17 41  1  0  0  0  0
 17 42  1  0  0  0  0
 18 19  1  0  0  0  0
 18 20  2  0  0  0  0
 19 43  1  0  0  0  0
 19 44  1  0  0  0  0
M  END
> <s_m_source_file>
AV-unprocessed.smi

> <i_m_source_file_index>
1807

> <i_lp_mmshare_version>
43012

> <i_f3d_flags>
0

> <s_epik_input>
W0NIM11bQ0BASF0xW0NIMl1bQ0gyXVtDSDJdW0NIMl1bQ0BIXTFbTkhdQyg9TylbQ0gyXVtOSF1jMltjSF1bY0hdbihuMilbQ0gyXUMoPU8pW05IMl0=

> <s_epik_cmdline>
J2VwaWtfcHl0aG9uJywgJy1waCcsICc3LjAnLCAnLXRuJywgJzgnLCAnLW1hJywgJzIwMCcsICctbWV0YWxfYmluZGluZycsICctaW1hZScsICc8aW5maWxlLm1hZT4nLCAnLW9tYWUnLCAnPG91dGZpbGUubWFlPic=

> <r_lp_tautomer_probability>
1

> <r_epik_Ionization_Penalty>
0.000167642

> <r_epik_Ionization_Penalty_Charging>
0

> <r_epik_Ionization_Penalty_Neutral>
0.000167642

> <r_epik_State_Penalty>
-0

> <r_epik_Charging_Adjusted_Penalty>
0

> <i_epik_Tot_Q>
0

> <i_epik_Tot_abs_Q>
0

> <r_epik_Metal_State_Penalty>
-0

> <b_epik_Metal_Only>
0

> <s_lp_Force_Field>
OPLS_2005

> <r_lp_Energy>
5.83979

> <b_lp_Chiralities_Consistent>
1

> <s_lp_Variant>
AV-unprocessed.smi:1807-3

> <Gold.Version>
5.8.1

> <Gold.Id.Protein>
6NUR|6NUR_protein|mol2

> <Gold.PLP.Fitness>
55.0893

> <Gold.PLP.PLP>
-44.6121

> <Gold.PLP.part.hbond>
-2.0000

> <Gold.PLP.part.metal>
0.0000

> <Gold.PLP.part.buried>
-5.2739

> <Gold.PLP.part.nonpolar>
-38.5553

> <Gold.PLP.part.repulsive>
1.2929

> <Gold.PLP.ligand.clash>
0.0000

> <Gold.PLP.ligand.torsion>
0.6080

> <Gold.PLP.Chemscore.Hbond>
2.0000

> <Gold.PLP.Chemscore.CHOScore>
1.8787

> <Gold.PLP.Chemscore.Metal>
0.0000

> <Gold.Chemscore.Hbonds>
donor molecule, donor type, donor heavy atom, donor atom, acceptor molecule, acceptor atom, score
      L1  H    19    43       P1 10175  0.93
      P1  H  7997  8009       L1    10  1.00
      L1  C    15    40       P1  7948  1.00
      L1  C    15    40       P1  7957  0.58

> <Gold.PLP.Chemscore.Internal.Correction>
0.0569

> <Gold.Rescore>
     Score         DG    S(hbond)    S(metal)    S(lipo)     H(rot)  DE(clash)    DE(int)     intcor
     15.59     -17.73       1.94        0.00     106.98       2.64       0.04       2.10       ----

> <Gold.Chemscore.Fitness>
15.5933

> <Gold.Chemscore.DG>
-17.7270

> <Gold.Chemscore.ZeroCoef>
-5.4800

> <Gold.Chemscore.Hbond>
1.9404

> <Gold.Chemscore.Metal>
0.0000

> <Gold.Chemscore.Lipo>
106.9789

> <Gold.Chemscore.Internal_Hbond>
0.0000

> <Gold.Chemscore.DEClash>
0.0385

> <Gold.Chemscore.DEInternal>
2.0952

> <Gold.Chemscore.Rot>
2.6369

> <Gold.Chemscore.Internal.Correction>
   9.000000E+99

> <Gold.Chemscore.Hbonds>
donor molecule, donor type, donor heavy atom, donor atom, acceptor molecule, acceptor atom, score
      L1  H    19    43       P1 10175  0.20
      P1  H  7997  8009       L1    10  0.93

> <Gold.Chemscore.Hbond.Weighted>
-6.4809

> <Gold.Chemscore.Metal.Weighted>
-0.0000

> <Gold.Chemscore.Lipo.Weighted>
-12.5165

> <Gold.Chemscore.Internal_Hbond.Weighted>
0.0000

> <Gold.Chemscore.DEClash.Weighted>
0.0385

> <Gold.Chemscore.DEInternal.Weighted>
2.0952

> <Gold.Chemscore.Rot.Weighted>
6.7504

> <Gold.Chemscore.Internal.Correction.Weighted>
   9.000000E+99

> <Gold.Protein.RotatedTorsions>
[ 6907 6896 6895 6894 ] final   85.44 input  -60.11 | X-H torsion
[ 7974 7965 7964 7962 ] final  -29.71 input  175.53 | X-H torsion
[ 8008 7997 7996 7995 ] final  166.66 input   59.86 | X-H torsion
[ 10167 10162 10161 10158 ] final -111.59 input  -65.29 | X-H torsion
[ 10718 10713 10712 10709 ] final  112.68 input   66.30 | X-H torsion
[ 10763 10752 10751 10750 ] final   48.19 input  -60.55 | X-H torsion
[ 11005 11000 10999 10996 ] final   34.41 input  -57.11 | X-H torsion

> <Gold.Protein.ActiveResidues>
 VAL166  LYS551  ARG553  GLY616  TRP617  ASP618  TYR619  PRO620  LYS621  CYS622 
 ASP623  PHE694  ASN695  SER759  ASP760  ASP761  ALA762  ILE779  LEU786  VAL792 
 PHE793  MET794  SER795  GLU796  ALA797  LYS798  CYS799  TRP800  GLU811  SER814 

> <Gold.Protein.RotatedAtoms>
  152.5374  134.2586  159.8926 H   0  0  0  0  0  0  0  0  0  0  0  0  # atno 6907 bound_to 6896
  151.2547  133.4325  159.2621 H   0  0  0  0  0  0  0  0  0  0  0  0  # atno 6908 bound_to 6896
  151.0507  134.9685  159.8266 H   0  0  0  0  0  0  0  0  0  0  0  0  # atno 6909 bound_to 6896
  146.1197  140.5447  142.8741 H   0  0  0  0  0  0  0  0  0  0  0  0  # atno 7974 bound_to 7965
  156.1700  140.1637  156.8465 H   0  0  0  0  0  0  0  0  0  0  0  0  # atno 8008 bound_to 7997
  154.5246  140.0770  156.8270 H   0  0  0  0  0  0  0  0  0  0  0  0  # atno 8009 bound_to 7997
  155.3533  140.3391  155.4242 H   0  0  0  0  0  0  0  0  0  0  0  0  # atno 8010 bound_to 7997
  140.1319  143.4353  152.1621 H   0  0  0  0  0  0  0  0  0  0  0  0  # atno 10167 bound_to 10162
  157.6379  131.0971  150.6931 H   0  0  0  0  0  0  0  0  0  0  0  0  # atno 10718 bound_to 10713
  152.9794  135.5952  154.3885 H   0  0  0  0  0  0  0  0  0  0  0  0  # atno 10763 bound_to 10752
  154.3543  135.2767  155.2357 H   0  0  0  0  0  0  0  0  0  0  0  0  # atno 10764 bound_to 10752
  154.4382  135.6019  153.6167 H   0  0  0  0  0  0  0  0  0  0  0  0  # atno 10765 bound_to 10752
  140.2532  134.3279  155.7883 H   0  0  0  0  0  0  0  0  0  0  0  0  # atno 11005 bound_to 11000
  144.7585  140.5366  143.6752 LP  0  0  0  0  0  0  0  0  0  0  0  0  # atno 17320 bound_to 7965
  145.5493  139.1476  143.3403 LP  0  0  0  0  0  0  0  0  0  0  0  0  # atno 17321 bound_to 7965
  139.5515  144.7341  151.4420 LP  0  0  0  0  0  0  0  0  0  0  0  0  # atno 17342 bound_to 10162
  140.6812  143.8078  150.7124 LP  0  0  0  0  0  0  0  0  0  0  0  0  # atno 17343 bound_to 10162
  156.7259  130.4695  149.5511 LP  0  0  0  0  0  0  0  0  0  0  0  0  # atno 17370 bound_to 10713
  156.1634  130.6389  151.0748 LP  0  0  0  0  0  0  0  0  0  0  0  0  # atno 17371 bound_to 10713
  141.2199  133.7365  156.9069 LP  0  0  0  0  0  0  0  0  0  0  0  0  # atno 17394 bound_to 11000
  140.1538  134.9212  157.2627 LP  0  0  0  0  0  0  0  0  0  0  0  0  # atno 17395 bound_to 11000

$$$$
