AV-unprocessed.smi:3228|AV-procd|sdf|12323|dock3
  -GOLD-   2272018173D 1   1.00000     0.00000
 Structure written by MMmdl.
 30 31  0  0  0  0  0  0  0  0  2 V2000
  151.5652  141.4610  157.4876 O   0  0  0  0  0  0  0  0  0  0  0  0
  150.9586  142.4838  157.1611 C   0  0  0  0  0  0  0  0  0  0  0  0
  149.8167  142.3887  156.4675 N   0  0  0  0  0  0  0  0  0  0  0  0
  149.1912  141.1416  156.0443 C   0  0  0  0  0  0  0  0  0  0  0  0
  148.5458  141.2915  154.6553 C   0  0  2  0  0  0  0  0  0  0  0  0
  147.3277  142.2299  154.6296 C   0  0  0  0  0  0  0  0  0  0  0  0
  146.4088  141.7223  153.5068 C   0  0  0  0  0  0  0  0  0  0  0  0
  147.0482  140.4347  152.9742 C   0  0  0  0  0  0  0  0  0  0  0  0
  148.0016  139.9802  154.0798 C   0  0  1  0  0  0  0  0  0  0  0  0
  149.0250  139.1509  153.5690 O   0  0  0  0  0  0  0  0  0  0  0  0
  151.3258  143.7567  157.4343 N   0  5  0  0  0  0  0  0  0  0  0  0
  151.5485  144.1342  158.7037 C   0  0  0  0  0  0  0  0  0  0  0  0
  151.4193  145.3987  159.1223 N   0  0  0  0  0  0  0  0  0  0  0  0
  151.6917  145.5641  160.4814 C   0  0  0  0  0  0  0  0  0  0  0  0
  152.0269  144.3969  161.1148 C   0  0  0  0  0  0  0  0  0  0  0  0
  152.0108  143.0467  160.0163 S   0  0  0  0  0  0  0  0  0  0  0  0
  149.3486  143.2472  156.2176 H   0  0  0  0  0  0  0  0  0  0  0  0
  149.9470  140.3552  156.0212 H   0  0  0  0  0  0  0  0  0  0  0  0
  148.4408  140.8429  156.7783 H   0  0  0  0  0  0  0  0  0  0  0  0
  149.2882  141.6891  153.9601 H   0  0  0  0  0  0  0  0  0  0  0  0
  146.7935  142.1835  155.5797 H   0  0  0  0  0  0  0  0  0  0  0  0
  147.6241  143.2684  154.4772 H   0  0  0  0  0  0  0  0  0  0  0  0
  145.4142  141.5180  153.9047 H   0  0  0  0  0  0  0  0  0  0  0  0
  146.2962  142.4609  152.7125 H   0  0  0  0  0  0  0  0  0  0  0  0
  146.3101  139.6734  152.7191 H   0  0  0  0  0  0  0  0  0  0  0  0
  147.6104  140.6658  152.0680 H   0  0  0  0  0  0  0  0  0  0  0  0
  147.4433  139.4373  154.8443 H   0  0  0  0  0  0  0  0  0  0  0  0
  149.3879  139.5624  152.7997 H   0  0  0  0  0  0  0  0  0  0  0  0
  151.6212  146.5502  160.9159 H   0  0  0  0  0  0  0  0  0  0  0  0
  152.2793  144.2485  162.1537 H   0  0  0  0  0  0  0  0  0  0  0  0
  1  2  2  0  0  0  0
  2  3  1  0  0  0  0
  2 11  1  0  0  0  0
  3  4  1  0  0  0  0
  3 17  1  0  0  0  0
  4  5  1  0  0  0  0
  4 18  1  0  0  0  0
  4 19  1  0  0  0  0
  5  9  1  0  0  0  0
  5  6  1  0  0  0  0
  5 20  1  0  0  0  0
  6  7  1  0  0  0  0
  6 21  1  0  0  0  0
  6 22  1  0  0  0  0
  7  8  1  0  0  0  0
  7 23  1  0  0  0  0
  7 24  1  0  0  0  0
  8  9  1  0  0  0  0
  8 25  1  0  0  0  0
  8 26  1  0  0  0  0
  9 10  1  0  0  0  0
  9 27  1  0  0  0  0
 10 28  1  0  0  0  0
 11 12  1  0  0  0  0
 12 16  1  0  0  0  0
 12 13  2  0  0  0  0
 13 14  1  0  0  0  0
 14 15  2  0  0  0  0
 14 29  1  0  0  0  0
 15 16  1  0  0  0  0
 15 30  1  0  0  0  0
M  CHG  1  11  -1
M  END
> <s_m_source_file>
AV-unprocessed.smi

> <i_m_source_file_index>
3228

> <i_lp_mmshare_version>
43012

> <i_f3d_flags>
0

> <s_epik_input>
czFbY0hdW2NIXW5jMVtOSF1DKD1PKVtOSF1bQ0gyXVtDQEBIXTJbQ0gyXVtDSDJdW0NIMl1bQ0BIXTJbT0hd

> <s_epik_cmdline>
J2VwaWtfcHl0aG9uJywgJy1waCcsICc3LjAnLCAnLXRuJywgJzgnLCAnLW1hJywgJzIwMCcsICctbWV0YWxfYmluZGluZycsICctaW1hZScsICc8aW5maWxlLm1hZT4nLCAnLW9tYWUnLCAnPG91dGZpbGUubWFlPic=

> <r_lp_tautomer_probability>
0.999

> <r_epik_Ionization_Penalty>
8.49756

> <r_epik_Ionization_Penalty_Charging>
6.79645

> <r_epik_Ionization_Penalty_Neutral>
1.70111

> <r_epik_State_Penalty>
6.79662

> <r_epik_Charging_Adjusted_Penalty>
13.5931

> <i_epik_Tot_Q>
-1

> <i_epik_Tot_abs_Q>
1

> <r_epik_Metal_State_Penalty>
2.71629

> <b_epik_Metal_Only>
1

> <s_lp_Force_Field>
OPLS_2005

> <r_lp_Energy>
18.1026

> <b_lp_Chiralities_Consistent>
1

> <s_lp_Variant>
AV-unprocessed.smi:3228-5

> <Gold.Version>
5.8.1

> <Gold.Id.Protein>
6NUR|6NUR_protein|mol2

> <Gold.PLP.Fitness>
38.7737

> <Gold.PLP.PLP>
-34.4383

> <Gold.PLP.part.hbond>
-2.4208

> <Gold.PLP.part.metal>
0.0000

> <Gold.PLP.part.buried>
-3.3940

> <Gold.PLP.part.nonpolar>
-28.8257

> <Gold.PLP.part.repulsive>
0.3415

> <Gold.PLP.ligand.clash>
0.0000

> <Gold.PLP.ligand.torsion>
0.8365

> <Gold.PLP.Chemscore.Hbond>
2.0000

> <Gold.PLP.Chemscore.CHOScore>
0.0000

> <Gold.PLP.Chemscore.Metal>
0.0000

> <Gold.Chemscore.Hbonds>
donor molecule, donor type, donor heavy atom, donor atom, acceptor molecule, acceptor atom, score
      L1  H     3    17       P1  8028  1.00
      L1  H    10    28       P1  7957  1.00

> <Gold.PLP.Chemscore.Internal.Correction>
0.0085

> <Gold.Rescore>
     Score         DG    S(hbond)    S(metal)    S(lipo)     H(rot)  DE(clash)    DE(int)     intcor
     14.99     -16.25       2.00        0.00      75.43       1.85       0.32       0.94       ----

> <Gold.Chemscore.Fitness>
14.9896

> <Gold.Chemscore.DG>
-16.2528

> <Gold.Chemscore.ZeroCoef>
-5.4800

> <Gold.Chemscore.Hbond>
1.9998

> <Gold.Chemscore.Metal>
0.0000

> <Gold.Chemscore.Lipo>
75.4257

> <Gold.Chemscore.Internal_Hbond>
0.0000

> <Gold.Chemscore.DEClash>
0.3210

> <Gold.Chemscore.DEInternal>
0.9422

> <Gold.Chemscore.Rot>
1.8481

> <Gold.Chemscore.Internal.Correction>
   9.000000E+99

> <Gold.Chemscore.Hbonds>
donor molecule, donor type, donor heavy atom, donor atom, acceptor molecule, acceptor atom, score
      L1  H     3    17       P1  8028  1.00
      L1  H    10    28       P1  7957  1.00

> <Gold.Chemscore.Hbond.Weighted>
-6.6793

> <Gold.Chemscore.Metal.Weighted>
-0.0000

> <Gold.Chemscore.Lipo.Weighted>
-8.8248

> <Gold.Chemscore.Internal_Hbond.Weighted>
0.0000

> <Gold.Chemscore.DEClash.Weighted>
0.3210

> <Gold.Chemscore.DEInternal.Weighted>
0.9422

> <Gold.Chemscore.Rot.Weighted>
4.7313

> <Gold.Chemscore.Internal.Correction.Weighted>
   9.000000E+99

> <Gold.Protein.RotatedTorsions>
[ 6907 6896 6895 6894 ] final -160.55 input  -60.11 | X-H torsion
[ 7974 7965 7964 7962 ] final   25.13 input  175.53 | X-H torsion
[ 8008 7997 7996 7995 ] final  166.64 input   59.86 | X-H torsion
[ 10167 10162 10161 10158 ] final  126.77 input  -65.29 | X-H torsion
[ 10718 10713 10712 10709 ] final  150.90 input   66.30 | X-H torsion
[ 10763 10752 10751 10750 ] final  -39.28 input  -60.55 | X-H torsion
[ 11005 11000 10999 10996 ] final -164.85 input  -57.11 | X-H torsion

> <Gold.Protein.ActiveResidues>
 VAL166  LYS551  ARG553  GLY616  TRP617  ASP618  TYR619  PRO620  LYS621  CYS622 
 ASP623  PHE694  ASN695  SER759  ASP760  ASP761  ALA762  ILE779  LEU786  VAL792 
 PHE793  MET794  SER795  GLU796  ALA797  LYS798  CYS799  TRP800  GLU811  SER814 

> <Gold.Protein.RotatedAtoms>
  151.3508  133.3926  159.2679 H   0  0  0  0  0  0  0  0  0  0  0  0  # atno 6907 bound_to 6896
  150.9803  134.9160  159.7850 H   0  0  0  0  0  0  0  0  0  0  0  0  # atno 6908 bound_to 6896
  152.5214  134.3472  159.9290 H   0  0  0  0  0  0  0  0  0  0  0  0  # atno 6909 bound_to 6896
  146.1904  139.7509  142.8836 H   0  0  0  0  0  0  0  0  0  0  0  0  # atno 7974 bound_to 7965
  156.1701  140.1638  156.8462 H   0  0  0  0  0  0  0  0  0  0  0  0  # atno 8008 bound_to 7997
  154.5248  140.0770  156.8272 H   0  0  0  0  0  0  0  0  0  0  0  0  # atno 8009 bound_to 7997
  155.3530  140.3391  155.4242 H   0  0  0  0  0  0  0  0  0  0  0  0  # atno 8010 bound_to 7997
  139.5614  144.6884  151.4033 H   0  0  0  0  0  0  0  0  0  0  0  0  # atno 10167 bound_to 10162
  157.2776  131.0829  151.1555 H   0  0  0  0  0  0  0  0  0  0  0  0  # atno 10718 bound_to 10713
  153.9268  135.6776  153.4746 H   0  0  0  0  0  0  0  0  0  0  0  0  # atno 10763 bound_to 10752
  153.1000  135.4832  154.8846 H   0  0  0  0  0  0  0  0  0  0  0  0  # atno 10764 bound_to 10752
  154.7449  135.3170  154.8619 H   0  0  0  0  0  0  0  0  0  0  0  0  # atno 10765 bound_to 10752
  140.5823  134.5129  157.5180 H   0  0  0  0  0  0  0  0  0  0  0  0  # atno 11005 bound_to 11000
  145.3811  141.0358  143.3177 LP  0  0  0  0  0  0  0  0  0  0  0  0  # atno 17320 bound_to 7965
  144.8475  139.5373  143.6871 LP  0  0  0  0  0  0  0  0  0  0  0  0  # atno 17321 bound_to 7965
  140.6893  143.7898  150.7232 LP  0  0  0  0  0  0  0  0  0  0  0  0  # atno 17342 bound_to 10162
  140.1376  143.4470  152.2214 LP  0  0  0  0  0  0  0  0  0  0  0  0  # atno 17343 bound_to 10162
  157.3002  130.6839  149.6160 LP  0  0  0  0  0  0  0  0  0  0  0  0  # atno 17370 bound_to 10713
  155.9664  130.4394  150.5258 LP  0  0  0  0  0  0  0  0  0  0  0  0  # atno 17371 bound_to 10713
  139.9311  134.7961  156.0928 LP  0  0  0  0  0  0  0  0  0  0  0  0  # atno 17394 bound_to 11000
  141.0988  133.6685  156.2706 LP  0  0  0  0  0  0  0  0  0  0  0  0  # atno 17395 bound_to 11000

$$$$
