AV-unprocessed.smi:1362|AV-procd|sdf|5562|dock7
  -GOLD-   22720 5153D 1   1.00000     0.00000
 Structure written by MMmdl.
 38 38  0  0  0  0  0  0  0  0  2 V2000
  150.4955  135.0365  155.6865 C   0  0  0  0  0  0  0  0  0  0  0  0
  150.6813  136.5039  156.0079 C   0  0  0  0  0  0  0  0  0  0  0  0
  149.7813  137.1154  156.6796 N   0  0  0  0  0  0  0  0  0  0  0  0
  149.9483  138.4781  156.9788 C   0  0  0  0  0  0  0  0  0  0  0  0
  148.8298  139.1252  157.7768 C   0  0  0  0  0  0  0  0  0  0  0  0
  151.0544  139.1609  156.5659 C   0  0  0  0  0  0  0  0  0  0  0  0
  151.2802  140.6442  156.8610 C   0  0  0  0  0  0  0  0  0  0  0  0
  151.6004  141.0084  158.3132 C   0  0  0  0  0  0  0  0  0  0  0  0
  150.9058  140.5859  159.2381 O   0  0  0  0  0  0  0  0  0  0  0  0
  152.6642  141.8060  158.4945 N   0  0  0  0  0  0  0  0  0  0  0  0
  153.1625  142.2828  159.7840 C   0  0  2  0  0  0  0  0  0  0  0  0
  153.4498  141.0663  160.6854 C   0  0  0  0  0  0  0  0  0  0  0  0
  152.1554  143.2853  160.4080 C   0  0  0  0  0  0  0  0  0  0  0  0
  152.0130  144.5698  159.5676 C   0  0  0  0  0  0  0  0  0  0  0  0
  152.5192  143.6590  161.8564 C   0  0  0  0  0  0  0  0  0  0  0  0
  152.0712  138.4182  155.8002 C   0  0  0  0  0  0  0  0  0  0  0  0
  153.0956  138.9827  155.4178 O   0  0  0  0  0  0  0  0  0  0  0  0
  151.8318  137.1006  155.5429 N   0  5  0  0  0  0  0  0  0  0  0  0
  149.6612  134.6143  156.2481 H   0  0  0  0  0  0  0  0  0  0  0  0
  151.3946  134.4736  155.9392 H   0  0  0  0  0  0  0  0  0  0  0  0
  150.2936  134.9077  154.6229 H   0  0  0  0  0  0  0  0  0  0  0  0
  148.3297  139.8882  157.1803 H   0  0  0  0  0  0  0  0  0  0  0  0
  149.2219  139.5912  158.6809 H   0  0  0  0  0  0  0  0  0  0  0  0
  148.0820  138.3905  158.0776 H   0  0  0  0  0  0  0  0  0  0  0  0
  152.0678  141.0455  156.2226 H   0  0  0  0  0  0  0  0  0  0  0  0
  150.3836  141.1913  156.5691 H   0  0  0  0  0  0  0  0  0  0  0  0
  153.1730  142.1028  157.6746 H   0  0  0  0  0  0  0  0  0  0  0  0
  154.1021  142.8140  159.6203 H   0  0  0  0  0  0  0  0  0  0  0  0
  153.9424  141.3568  161.6127 H   0  0  0  0  0  0  0  0  0  0  0  0
  154.1117  140.3558  160.1892 H   0  0  0  0  0  0  0  0  0  0  0  0
  152.5317  140.5374  160.9430 H   0  0  0  0  0  0  0  0  0  0  0  0
  151.1752  142.8069  160.4335 H   0  0  0  0  0  0  0  0  0  0  0  0
  152.9703  145.0814  159.4635 H   0  0  0  0  0  0  0  0  0  0  0  0
  151.3145  145.2673  160.0308 H   0  0  0  0  0  0  0  0  0  0  0  0
  151.6358  144.3632  158.5661 H   0  0  0  0  0  0  0  0  0  0  0  0
  153.5219  144.0835  161.9168 H   0  0  0  0  0  0  0  0  0  0  0  0
  152.4784  142.7965  162.5207 H   0  0  0  0  0  0  0  0  0  0  0  0
  151.8235  144.3965  162.2573 H   0  0  0  0  0  0  0  0  0  0  0  0
  1  2  1  0  0  0  0
  1 19  1  0  0  0  0
  1 20  1  0  0  0  0
  1 21  1  0  0  0  0
  2 18  1  0  0  0  0
  2  3  2  0  0  0  0
  3  4  1  0  0  0  0
  4  5  1  0  0  0  0
  4  6  2  0  0  0  0
  5 22  1  0  0  0  0
  5 23  1  0  0  0  0
  5 24  1  0  0  0  0
  6  7  1  0  0  0  0
  6 16  1  0  0  0  0
  7  8  1  0  0  0  0
  7 25  1  0  0  0  0
  7 26  1  0  0  0  0
  8  9  2  0  0  0  0
  8 10  1  0  0  0  0
 10 11  1  0  0  0  0
 10 27  1  0  0  0  0
 11 12  1  0  0  0  0
 11 13  1  0  0  0  0
 11 28  1  0  0  0  0
 12 29  1  0  0  0  0
 12 30  1  0  0  0  0
 12 31  1  0  0  0  0
 13 14  1  0  0  0  0
 13 15  1  0  0  0  0
 13 32  1  0  0  0  0
 14 33  1  0  0  0  0
 14 34  1  0  0  0  0
 14 35  1  0  0  0  0
 15 36  1  0  0  0  0
 15 37  1  0  0  0  0
 15 38  1  0  0  0  0
 16 17  2  0  0  0  0
 16 18  1  0  0  0  0
M  CHG  1  18  -1
M  END
> <s_m_source_file>
AV-unprocessed.smi

> <i_m_source_file_index>
1362

> <i_lp_mmshare_version>
43012

> <i_f3d_flags>
0

> <s_epik_input>
W0NIM11jMW5jKFtDSDNdKWMoYyg9TylbbkhdMSlbQ0gyXUMoPU8pW05IXVtDQEhdKFtDSDNdKVtDSF0oW0NIM10pW0NIM10=

> <s_epik_cmdline>
J2VwaWtfcHl0aG9uJywgJy1waCcsICc3LjAnLCAnLXRuJywgJzgnLCAnLW1hJywgJzIwMCcsICctbWV0YWxfYmluZGluZycsICctaW1hZScsICc8aW5maWxlLm1hZT4nLCAnLW9tYWUnLCAnPG91dGZpbGUubWFlPic=

> <r_lp_tautomer_probability>
0.839158

> <r_epik_Ionization_Penalty>
6.62204

> <r_epik_Ionization_Penalty_Charging>
7.30593e-08

> <r_epik_Ionization_Penalty_Neutral>
6.62204

> <r_epik_State_Penalty>
4.44062

> <r_epik_Charging_Adjusted_Penalty>
4.44062

> <i_epik_Tot_Q>
-1

> <i_epik_Tot_abs_Q>
1

> <r_epik_Metal_State_Penalty>
0.802984

> <b_epik_Metal_Only>
1

> <s_lp_Force_Field>
OPLS_2005

> <r_lp_Energy>
10.6651

> <b_lp_Chiralities_Consistent>
1

> <s_lp_Variant>
AV-unprocessed.smi:1362-5

> <Gold.Version>
5.8.1

> <Gold.Id.Protein>
6NUR|6NUR_protein|mol2

> <Gold.PLP.Fitness>
40.2682

> <Gold.PLP.PLP>
-32.3316

> <Gold.PLP.part.hbond>
-2.1942

> <Gold.PLP.part.metal>
0.0000

> <Gold.PLP.part.buried>
-3.0313

> <Gold.PLP.part.nonpolar>
-27.5271

> <Gold.PLP.part.repulsive>
0.1457

> <Gold.PLP.ligand.clash>
0.0000

> <Gold.PLP.ligand.torsion>
0.3300

> <Gold.PLP.Chemscore.Hbond>
2.8560

> <Gold.PLP.Chemscore.CHOScore>
0.0000

> <Gold.PLP.Chemscore.Metal>
0.0000

> <Gold.Chemscore.Hbonds>
donor molecule, donor type, donor heavy atom, donor atom, acceptor molecule, acceptor atom, score
      P1  H  7997  8010       L1    17  1.00
      P1  H 10752 10763       L1    18  1.72

> <Gold.PLP.Chemscore.Internal.Correction>
0.0286

> <Gold.Rescore>
     Score         DG    S(hbond)    S(metal)    S(lipo)     H(rot)  DE(clash)    DE(int)     intcor
     14.49     -15.78       1.77        0.00      73.47       1.64       0.06       1.23       ----

> <Gold.Chemscore.Fitness>
14.4885

> <Gold.Chemscore.DG>
-15.7789

> <Gold.Chemscore.ZeroCoef>
-5.4800

> <Gold.Chemscore.Hbond>
1.7695

> <Gold.Chemscore.Metal>
0.0000

> <Gold.Chemscore.Lipo>
73.4675

> <Gold.Chemscore.Internal_Hbond>
0.0000

> <Gold.Chemscore.DEClash>
0.0563

> <Gold.Chemscore.DEInternal>
1.2341

> <Gold.Chemscore.Rot>
1.6433

> <Gold.Chemscore.Internal.Correction>
   9.000000E+99

> <Gold.Chemscore.Hbonds>
donor molecule, donor type, donor heavy atom, donor atom, acceptor molecule, acceptor atom, score
      P1  H  7997  8010       L1    17  0.97
      P1  H 10752 10763       L1    18  0.44

> <Gold.Chemscore.Hbond.Weighted>
-5.9102

> <Gold.Chemscore.Metal.Weighted>
-0.0000

> <Gold.Chemscore.Lipo.Weighted>
-8.5957

> <Gold.Chemscore.Internal_Hbond.Weighted>
0.0000

> <Gold.Chemscore.DEClash.Weighted>
0.0563

> <Gold.Chemscore.DEInternal.Weighted>
1.2341

> <Gold.Chemscore.Rot.Weighted>
4.2069

> <Gold.Chemscore.Internal.Correction.Weighted>
   9.000000E+99

> <Gold.Protein.RotatedTorsions>
[ 6907 6896 6895 6894 ] final  -34.08 input  -60.11 | X-H torsion
[ 7974 7965 7964 7962 ] final -115.34 input  175.53 | X-H torsion
[ 8008 7997 7996 7995 ] final   80.73 input   59.86 | X-H torsion
[ 10167 10162 10161 10158 ] final -165.47 input  -65.29 | X-H torsion
[ 10718 10713 10712 10709 ] final   -1.60 input   66.30 | X-H torsion
[ 10763 10752 10751 10750 ] final   77.92 input  -60.55 | X-H torsion
[ 11005 11000 10999 10996 ] final  -72.91 input  -57.11 | X-H torsion

> <Gold.Protein.ActiveResidues>
 VAL166  LYS551  ARG553  GLY616  TRP617  ASP618  TYR619  PRO620  LYS621  CYS622 
 ASP623  PHE694  ASN695  SER759  ASP760  ASP761  ALA762  ILE779  LEU786  VAL792 
 PHE793  MET794  SER795  GLU796  ALA797  LYS798  CYS799  TRP800  GLU811  SER814 

> <Gold.Protein.RotatedAtoms>
  151.0573  134.9713  159.8242 H   0  0  0  0  0  0  0  0  0  0  0  0  # atno 6907 bound_to 6896
  152.5390  134.2462  159.8891 H   0  0  0  0  0  0  0  0  0  0  0  0  # atno 6908 bound_to 6896
  151.2480  133.4322  159.2644 H   0  0  0  0  0  0  0  0  0  0  0  0  # atno 6909 bound_to 6896
  145.1095  140.8603  143.3878 H   0  0  0  0  0  0  0  0  0  0  0  0  # atno 7974 bound_to 7965
  155.8875  140.3440  155.5932 H   0  0  0  0  0  0  0  0  0  0  0  0  # atno 8008 bound_to 7997
  155.7648  140.0837  157.2156 H   0  0  0  0  0  0  0  0  0  0  0  0  # atno 8009 bound_to 7997
  154.4030  140.1529  156.2862 H   0  0  0  0  0  0  0  0  0  0  0  0  # atno 8010 bound_to 7997
  139.6180  144.0681  152.1906 H   0  0  0  0  0  0  0  0  0  0  0  0  # atno 10167 bound_to 10162
  156.8033  130.5400  149.5718 H   0  0  0  0  0  0  0  0  0  0  0  0  # atno 10718 bound_to 10713
  153.0835  135.4896  154.8550 H   0  0  0  0  0  0  0  0  0  0  0  0  # atno 10763 bound_to 10752
  154.7181  135.3033  154.9094 H   0  0  0  0  0  0  0  0  0  0  0  0  # atno 10764 bound_to 10752
  153.9766  135.6795  153.4802 H   0  0  0  0  0  0  0  0  0  0  0  0  # atno 10765 bound_to 10752
  141.1615  133.6862  156.7132 H   0  0  0  0  0  0  0  0  0  0  0  0  # atno 11005 bound_to 11000
  145.0863  139.2923  143.5758 LP  0  0  0  0  0  0  0  0  0  0  0  0  # atno 17320 bound_to 7965
  146.3527  140.0385  142.8645 LP  0  0  0  0  0  0  0  0  0  0  0  0  # atno 17321 bound_to 7965
  140.0316  144.6076  150.7483 LP  0  0  0  0  0  0  0  0  0  0  0  0  # atno 17342 bound_to 10162
  140.7363  143.2752  151.3764 LP  0  0  0  0  0  0  0  0  0  0  0  0  # atno 17343 bound_to 10162
  156.1088  130.6025  151.0014 LP  0  0  0  0  0  0  0  0  0  0  0  0  # atno 17370 bound_to 10713
  157.6543  131.0892  150.7982 LP  0  0  0  0  0  0  0  0  0  0  0  0  # atno 17371 bound_to 10713
  140.2872  134.8270  157.3985 LP  0  0  0  0  0  0  0  0  0  0  0  0  # atno 17394 bound_to 11000
  140.1380  134.5009  155.8053 LP  0  0  0  0  0  0  0  0  0  0  0  0  # atno 17395 bound_to 11000

$$$$
