AV-unprocessed.smi:617|AV-procd|sdf|3073|dock2
  -GOLD-   2262023593D 1   1.00000     0.00000
 Structure written by MMmdl.
 30 31  0  0  0  0  0  0  0  0  1 V2000
  146.6775  139.3141  153.0245 C   0  0  0  0  0  0  0  0  0  0  0  0
  147.8568  139.8734  153.7438 C   0  0  0  0  0  0  0  0  0  0  0  0
  148.0568  141.0287  154.4456 C   0  0  0  0  0  0  0  0  0  0  0  0
  149.4124  140.9271  154.8580 C   0  0  0  0  0  0  0  0  0  0  0  0
  150.0076  141.9653  155.6302 N   0  0  0  0  0  0  0  0  0  0  0  0
  151.0054  141.9313  156.5388 C   0  0  0  0  0  0  0  0  0  0  0  0
  151.5652  140.8750  156.8279 O   0  0  0  0  0  0  0  0  0  0  0  0
  151.3371  143.1063  157.0990 N   0  0  0  0  0  0  0  0  0  0  0  0
  152.3633  143.3018  158.1190 C   0  0  0  0  0  0  0  0  0  0  0  0
  152.0601  142.4461  159.3647 C   0  0  0  0  0  0  0  0  0  0  0  0
  152.1739  143.3870  160.5658 C   0  0  0  0  0  0  0  0  0  0  0  0
  151.8038  144.7579  160.0090 C   0  0  0  0  0  0  0  0  0  0  0  0
  152.4096  144.7641  158.6055 C   0  0  0  0  0  0  0  0  0  0  0  0
  149.9843  139.8041  154.4473 N   0  0  0  0  0  0  0  0  0  0  0  0
  148.9920  139.1244  153.7318 O   0  0  0  0  0  0  0  0  0  0  0  0
  145.8844  140.0573  152.9395 H   0  0  0  0  0  0  0  0  0  0  0  0
  146.2763  138.4500  153.5543 H   0  0  0  0  0  0  0  0  0  0  0  0
  146.9521  138.9972  152.0181 H   0  0  0  0  0  0  0  0  0  0  0  0
  147.3456  141.8205  154.6298 H   0  0  0  0  0  0  0  0  0  0  0  0
  149.6236  142.8838  155.4625 H   0  0  0  0  0  0  0  0  0  0  0  0
  150.8295  143.9277  156.8018 H   0  0  0  0  0  0  0  0  0  0  0  0
  153.3369  143.0211  157.7127 H   0  0  0  0  0  0  0  0  0  0  0  0
  151.0447  142.0481  159.3215 H   0  0  0  0  0  0  0  0  0  0  0  0
  152.7342  141.5935  159.4521 H   0  0  0  0  0  0  0  0  0  0  0  0
  151.5377  143.0845  161.3982 H   0  0  0  0  0  0  0  0  0  0  0  0
  153.2044  143.4042  160.9231 H   0  0  0  0  0  0  0  0  0  0  0  0
  150.7187  144.8472  159.9415 H   0  0  0  0  0  0  0  0  0  0  0  0
  152.1696  145.5770  160.6285 H   0  0  0  0  0  0  0  0  0  0  0  0
  153.4500  145.0865  158.6660 H   0  0  0  0  0  0  0  0  0  0  0  0
  151.8982  145.4627  157.9420 H   0  0  0  0  0  0  0  0  0  0  0  0
  1  2  1  0  0  0  0
  1 16  1  0  0  0  0
  1 17  1  0  0  0  0
  1 18  1  0  0  0  0
  2 15  1  0  0  0  0
  2  3  2  0  0  0  0
  3  4  1  0  0  0  0
  3 19  1  0  0  0  0
  4  5  1  0  0  0  0
  4 14  2  0  0  0  0
  5  6  1  0  0  0  0
  5 20  1  0  0  0  0
  6  7  2  0  0  0  0
  6  8  1  0  0  0  0
  8  9  1  0  0  0  0
  8 21  1  0  0  0  0
  9 13  1  0  0  0  0
  9 10  1  0  0  0  0
  9 22  1  0  0  0  0
 10 11  1  0  0  0  0
 10 23  1  0  0  0  0
 10 24  1  0  0  0  0
 11 12  1  0  0  0  0
 11 25  1  0  0  0  0
 11 26  1  0  0  0  0
 12 13  1  0  0  0  0
 12 27  1  0  0  0  0
 12 28  1  0  0  0  0
 13 29  1  0  0  0  0
 13 30  1  0  0  0  0
 14 15  1  0  0  0  0
M  END
> <s_m_source_file>
AV-unprocessed.smi

> <i_m_source_file_index>
617

> <i_lp_mmshare_version>
43012

> <i_f3d_flags>
0

> <s_epik_input>
W0NIM11jMVtjSF1jKG5vMSlbTkhdQyg9TylbTkhdW0NIXTJbQ0gyXVtDSDJdW0NIMl1bQ0gyXTI=

> <s_epik_cmdline>
J2VwaWtfcHl0aG9uJywgJy1waCcsICc3LjAnLCAnLXRuJywgJzgnLCAnLW1hJywgJzIwMCcsICctbWV0YWxfYmluZGluZycsICctaW1hZScsICc8aW5maWxlLm1hZT4nLCAnLW9tYWUnLCAnPG91dGZpbGUubWFlPic=

> <r_lp_tautomer_probability>
1

> <r_epik_Ionization_Penalty>
2.37631e-05

> <r_epik_Ionization_Penalty_Charging>
0

> <r_epik_Ionization_Penalty_Neutral>
2.37631e-05

> <r_epik_State_Penalty>
-0

> <r_epik_Charging_Adjusted_Penalty>
0

> <i_epik_Tot_Q>
0

> <i_epik_Tot_abs_Q>
0

> <r_epik_Metal_State_Penalty>
-0

> <b_epik_Metal_Only>
0

> <s_lp_Force_Field>
OPLS_2005

> <r_lp_Energy>
18.7169

> <b_lp_Chiralities_Consistent>
1

> <s_lp_Variant>
AV-unprocessed.smi:617-1

> <Gold.Version>
5.8.1

> <Gold.Id.Protein>
6NUR|6NUR_protein|mol2

> <Gold.PLP.Fitness>
42.4039

> <Gold.PLP.PLP>
-35.1915

> <Gold.PLP.part.hbond>
-2.9488

> <Gold.PLP.part.metal>
0.0000

> <Gold.PLP.part.buried>
-4.8659

> <Gold.PLP.part.nonpolar>
-29.2112

> <Gold.PLP.part.repulsive>
1.9194

> <Gold.PLP.ligand.clash>
0.0000

> <Gold.PLP.ligand.torsion>
0.1805

> <Gold.PLP.Chemscore.Hbond>
2.5236

> <Gold.PLP.Chemscore.CHOScore>
0.0000

> <Gold.PLP.Chemscore.Metal>
0.0000

> <Gold.Chemscore.Hbonds>
donor molecule, donor type, donor heavy atom, donor atom, acceptor molecule, acceptor atom, score
      L1  H     5    20       P1  8028  1.00
      L1  H     8    21       P1  8028  0.15
      P1  H  7989  7998       L1    14  0.42

> <Gold.PLP.Chemscore.Internal.Correction>
0.0025

> <Gold.Rescore>
     Score         DG    S(hbond)    S(metal)    S(lipo)     H(rot)  DE(clash)    DE(int)     intcor
     18.21     -19.78       2.35        0.00      77.04       1.00       0.07       1.50       ----

> <Gold.Chemscore.Fitness>
18.2067

> <Gold.Chemscore.DG>
-19.7801

> <Gold.Chemscore.ZeroCoef>
-5.4800

> <Gold.Chemscore.Hbond>
2.3493

> <Gold.Chemscore.Metal>
0.0000

> <Gold.Chemscore.Lipo>
77.0379

> <Gold.Chemscore.Internal_Hbond>
0.0000

> <Gold.Chemscore.DEClash>
0.0700

> <Gold.Chemscore.DEInternal>
1.5034

> <Gold.Chemscore.Rot>
1.0000

> <Gold.Chemscore.Internal.Correction>
   9.000000E+99

> <Gold.Chemscore.Hbonds>
donor molecule, donor type, donor heavy atom, donor atom, acceptor molecule, acceptor atom, score
      L1  H     5    20       P1  8028  0.97
      L1  H     8    21       P1  8028  0.16
      P1  H  7989  7998       L1    14  0.04

> <Gold.Chemscore.Hbond.Weighted>
-7.8466

> <Gold.Chemscore.Metal.Weighted>
-0.0000

> <Gold.Chemscore.Lipo.Weighted>
-9.0134

> <Gold.Chemscore.Internal_Hbond.Weighted>
0.0000

> <Gold.Chemscore.DEClash.Weighted>
0.0700

> <Gold.Chemscore.DEInternal.Weighted>
1.5034

> <Gold.Chemscore.Rot.Weighted>
2.5600

> <Gold.Chemscore.Internal.Correction.Weighted>
   9.000000E+99

> <Gold.Protein.RotatedTorsions>
[ 6907 6896 6895 6894 ] final -105.73 input  -60.11 | X-H torsion
[ 7974 7965 7964 7962 ] final  -65.76 input  175.53 | X-H torsion
[ 8008 7997 7996 7995 ] final  105.65 input   59.86 | X-H torsion
[ 10167 10162 10161 10158 ] final  111.55 input  -65.29 | X-H torsion
[ 10718 10713 10712 10709 ] final  158.45 input   66.30 | X-H torsion
[ 10763 10752 10751 10750 ] final  -47.84 input  -60.55 | X-H torsion
[ 11005 11000 10999 10996 ] final  -77.71 input  -57.11 | X-H torsion

> <Gold.Protein.ActiveResidues>
 VAL166  LYS551  ARG553  GLY616  TRP617  ASP618  TYR619  PRO620  LYS621  CYS622 
 ASP623  PHE694  ASN695  SER759  ASP760  ASP761  ALA762  ILE779  LEU786  VAL792 
 PHE793  MET794  SER795  GLU796  ALA797  LYS798  CYS799  TRP800  GLU811  SER814 

> <Gold.Protein.RotatedAtoms>
  150.7352  134.0083  159.3660 H   0  0  0  0  0  0  0  0  0  0  0  0  # atno 6907 bound_to 6896
  151.8041  135.0698  160.0413 H   0  0  0  0  0  0  0  0  0  0  0  0  # atno 6908 bound_to 6896
  152.3119  133.5726  159.5723 H   0  0  0  0  0  0  0  0  0  0  0  0  # atno 6909 bound_to 6896
  145.7502  140.8912  143.0484 H   0  0  0  0  0  0  0  0  0  0  0  0  # atno 7974 bound_to 7965
  156.1677  140.3127  155.8918 H   0  0  0  0  0  0  0  0  0  0  0  0  # atno 8008 bound_to 7997
  155.3652  140.0479  157.3063 H   0  0  0  0  0  0  0  0  0  0  0  0  # atno 8009 bound_to 7997
  154.5209  140.2198  155.8988 H   0  0  0  0  0  0  0  0  0  0  0  0  # atno 8010 bound_to 7997
  139.6602  144.7129  151.1879 H   0  0  0  0  0  0  0  0  0  0  0  0  # atno 10167 bound_to 10162
  157.1778  131.0625  151.2148 H   0  0  0  0  0  0  0  0  0  0  0  0  # atno 10718 bound_to 10713
  154.0679  135.6609  153.4820 H   0  0  0  0  0  0  0  0  0  0  0  0  # atno 10763 bound_to 10752
  153.0402  135.5150  154.7595 H   0  0  0  0  0  0  0  0  0  0  0  0  # atno 10764 bound_to 10752
  154.6652  135.3021  154.9782 H   0  0  0  0  0  0  0  0  0  0  0  0  # atno 10765 bound_to 10752
  141.1661  133.7033  156.7862 H   0  0  0  0  0  0  0  0  0  0  0  0  # atno 11005 bound_to 11000
  144.6851  139.9581  143.7479 LP  0  0  0  0  0  0  0  0  0  0  0  0  # atno 17320 bound_to 7965
  146.0364  139.3381  143.0724 LP  0  0  0  0  0  0  0  0  0  0  0  0  # atno 17321 bound_to 7965
  140.7577  143.6006  150.8704 LP  0  0  0  0  0  0  0  0  0  0  0  0  # atno 17342 bound_to 10162
  139.9663  143.6107  152.2987 LP  0  0  0  0  0  0  0  0  0  0  0  0  # atno 17343 bound_to 10162
  157.3982  130.7319  149.6747 LP  0  0  0  0  0  0  0  0  0  0  0  0  # atno 17370 bound_to 10713
  155.9729  130.4128  150.4050 LP  0  0  0  0  0  0  0  0  0  0  0  0  # atno 17371 bound_to 10713
  140.2358  134.8651  157.3524 LP  0  0  0  0  0  0  0  0  0  0  0  0  # atno 17394 bound_to 11000
  140.1845  134.4449  155.7752 LP  0  0  0  0  0  0  0  0  0  0  0  0  # atno 17395 bound_to 11000

$$$$
