AV-unprocessed.smi:243|AV-procd|sdf|1863|dock8
  -GOLD-   2262020503D 1   1.00000     0.00000
 Structure written by MMmdl.
 58 61  0  0  0  0  0  0  0  0  2 V2000
  146.7103  132.6702  152.2497 C   0  0  0  0  0  0  0  0  0  0  0  0
  147.2771  131.9706  153.4936 C   0  0  0  0  0  0  0  0  0  0  0  0
  148.0191  132.9020  154.3800 N   0  3  1  0  0  0  0  0  0  0  0  0
  149.1662  133.5420  153.6895 C   0  0  0  0  0  0  0  0  0  0  0  0
  150.0015  134.3957  154.6581 C   0  0  0  0  0  0  0  0  0  0  0  0
  149.1325  135.4607  155.3627 C   0  0  2  0  0  0  0  0  0  0  0  0
  149.9174  136.3218  156.2631 N   0  0  0  0  0  0  0  0  0  0  0  0
  151.1407  135.7674  156.8353 C   0  0  0  0  0  0  0  0  0  0  0  0
  150.1386  137.5900  155.8445 C   0  0  0  0  0  0  0  0  0  0  0  0
  149.7559  137.8979  154.5805 N   0  0  0  0  0  0  0  0  0  0  0  0
  149.9553  139.1297  154.1027 C   0  0  0  0  0  0  0  0  0  0  0  0
  150.5050  140.1824  154.7117 N   0  0  0  0  0  0  0  0  0  0  0  0
  150.8764  139.8801  155.9888 C   0  0  0  0  0  0  0  0  0  0  0  0
  150.7240  138.6209  156.6342 C   0  0  0  0  0  0  0  0  0  0  0  0
  151.2026  138.6960  157.9369 N   0  0  0  0  0  0  0  0  0  0  0  0
  151.6227  139.9262  158.0516 C   0  0  0  0  0  0  0  0  0  0  0  0
  151.4778  140.7032  156.9246 N   0  0  0  0  0  0  0  0  0  0  0  0
  151.8705  142.0948  156.7671 C   0  0  0  0  0  0  0  0  0  0  0  0
  151.2657  143.0271  157.8428 C   0  0  2  0  0  0  0  0  0  0  0  0
  149.8518  142.9619  157.7736 O   0  0  0  0  0  0  0  0  0  0  0  0
  151.6887  144.4883  157.7092 C   0  0  0  0  0  0  0  0  0  0  0  0
  151.7403  144.9628  159.1546 C   0  0  0  0  0  0  0  0  0  0  0  0
  152.2881  143.8411  159.8244 O   0  0  0  0  0  0  0  0  0  0  0  0
  151.7032  142.6645  159.2766 C   0  0  0  0  0  0  0  0  0  0  0  0
  147.9287  134.7578  156.0572 C   0  0  2  0  0  0  0  0  0  0  0  0
  148.3086  133.9130  157.2917 C   0  0  0  0  0  0  0  0  0  0  0  0
  147.1463  133.9138  155.0320 C   0  0  0  0  0  0  0  0  0  0  0  0
  146.0934  131.9823  151.6710 H   0  0  0  0  0  0  0  0  0  0  0  0
  147.4957  133.0319  151.5869 H   0  0  0  0  0  0  0  0  0  0  0  0
  146.0848  133.5194  152.5263 H   0  0  0  0  0  0  0  0  0  0  0  0
  146.4370  131.5446  154.0439 H   0  0  0  0  0  0  0  0  0  0  0  0
  147.9159  131.1334  153.2096 H   0  0  0  0  0  0  0  0  0  0  0  0
  149.8057  132.7760  153.2487 H   0  0  0  0  0  0  0  0  0  0  0  0
  148.7978  134.1585  152.8679 H   0  0  0  0  0  0  0  0  0  0  0  0
  150.4916  133.7561  155.3925 H   0  0  0  0  0  0  0  0  0  0  0  0
  150.7997  134.8688  154.0864 H   0  0  0  0  0  0  0  0  0  0  0  0
  148.7347  136.1014  154.5760 H   0  0  0  0  0  0  0  0  0  0  0  0
  151.7736  136.5369  157.2810 H   0  0  0  0  0  0  0  0  0  0  0  0
  151.7233  135.2512  156.0712 H   0  0  0  0  0  0  0  0  0  0  0  0
  150.8988  135.0544  157.6233 H   0  0  0  0  0  0  0  0  0  0  0  0
  149.6301  139.2948  153.0862 H   0  0  0  0  0  0  0  0  0  0  0  0
  152.0587  140.3009  158.9661 H   0  0  0  0  0  0  0  0  0  0  0  0
  152.9596  142.1520  156.7859 H   0  0  0  0  0  0  0  0  0  0  0  0
  151.5650  142.4222  155.7723 H   0  0  0  0  0  0  0  0  0  0  0  0
  149.5419  143.6923  157.2603 H   0  0  0  0  0  0  0  0  0  0  0  0
  152.6923  144.5532  157.2866 H   0  0  0  0  0  0  0  0  0  0  0  0
  151.0252  145.0857  157.0825 H   0  0  0  0  0  0  0  0  0  0  0  0
  152.3564  145.8525  159.2860 H   0  0  0  0  0  0  0  0  0  0  0  0
  150.7402  145.1711  159.5382 H   0  0  0  0  0  0  0  0  0  0  0  0
  150.8595  142.3581  159.8976 H   0  0  0  0  0  0  0  0  0  0  0  0
  152.4343  141.8558  159.2988 H   0  0  0  0  0  0  0  0  0  0  0  0
  147.2356  135.5232  156.4071 H   0  0  0  0  0  0  0  0  0  0  0  0
  148.9726  133.0875  157.0371 H   0  0  0  0  0  0  0  0  0  0  0  0
  147.4194  133.4836  157.7542 H   0  0  0  0  0  0  0  0  0  0  0  0
  148.8059  134.5103  158.0547 H   0  0  0  0  0  0  0  0  0  0  0  0
  146.7164  134.5635  154.2679 H   0  0  0  0  0  0  0  0  0  0  0  0
  146.3078  133.4310  155.5327 H   0  0  0  0  0  0  0  0  0  0  0  0
  148.4155  132.3373  155.1177 H   0  0  0  0  0  0  0  0  0  0  0  0
  1  2  1  0  0  0  0
  1 28  1  0  0  0  0
  1 29  1  0  0  0  0
  1 30  1  0  0  0  0
  2  3  1  0  0  0  0
  2 31  1  0  0  0  0
  2 32  1  0  0  0  0
  3 27  1  0  0  0  0
  3  4  1  0  0  0  0
  3 58  1  0  0  0  0
  4  5  1  0  0  0  0
  4 33  1  0  0  0  0
  4 34  1  0  0  0  0
  5  6  1  0  0  0  0
  5 35  1  0  0  0  0
  5 36  1  0  0  0  0
  6  7  1  0  0  0  0
  6 25  1  0  0  0  0
  6 37  1  0  0  0  0
  7  8  1  0  0  0  0
  7  9  1  0  0  0  0
  8 38  1  0  0  0  0
  8 39  1  0  0  0  0
  8 40  1  0  0  0  0
  9 14  1  0  0  0  0
  9 10  2  0  0  0  0
 10 11  1  0  0  0  0
 11 12  2  0  0  0  0
 11 41  1  0  0  0  0
 12 13  1  0  0  0  0
 13 17  1  0  0  0  0
 13 14  2  0  0  0  0
 14 15  1  0  0  0  0
 15 16  2  0  0  0  0
 16 17  1  0  0  0  0
 16 42  1  0  0  0  0
 17 18  1  0  0  0  0
 18 19  1  0  0  0  0
 18 43  1  0  0  0  0
 18 44  1  0  0  0  0
 19 24  1  0  0  0  0
 19 20  1  0  0  0  0
 19 21  1  0  0  0  0
 20 45  1  0  0  0  0
 21 22  1  0  0  0  0
 21 46  1  0  0  0  0
 21 47  1  0  0  0  0
 22 23  1  0  0  0  0
 22 48  1  0  0  0  0
 22 49  1  0  0  0  0
 23 24  1  0  0  0  0
 24 50  1  0  0  0  0
 24 51  1  0  0  0  0
 25 26  1  0  0  0  0
 25 27  1  0  0  0  0
 25 52  1  0  0  0  0
 26 53  1  0  0  0  0
 26 54  1  0  0  0  0
 26 55  1  0  0  0  0
 27 56  1  0  0  0  0
 27 57  1  0  0  0  0
M  CHG  1   3   1
M  END
> <s_m_source_file>
AV-unprocessed.smi

> <i_m_source_file_index>
243

> <i_lp_mmshare_version>
43012

> <i_f3d_flags>
0

> <s_epik_input>
W0NIM11bQ0gyXU4xW0NIMl1bQ0gyXVtDQEhdKFtDQEBIXShbQ0gzXSlbQ0gyXTEpTihbQ0gzXSljKG5bY0hdbjIpYyhjMjMpbltjSF1uM1tDSDJdW0NAQF00KFtPSF0pW0NIMl1bQ0gyXU9bQ0gyXTQ=

> <s_epik_cmdline>
J2VwaWtfcHl0aG9uJywgJy1waCcsICc3LjAnLCAnLXRuJywgJzgnLCAnLW1hJywgJzIwMCcsICctbWV0YWxfYmluZGluZycsICctaW1hZScsICc8aW5maWxlLm1hZT4nLCAnLW9tYWUnLCAnPG91dGZpbGUubWFlPic=

> <r_lp_tautomer_probability>
1

> <r_epik_Ionization_Penalty>
0.00253099

> <r_epik_Ionization_Penalty_Charging>
0.00137877

> <r_epik_Ionization_Penalty_Neutral>
0.00115221

> <r_epik_State_Penalty>
-0

> <r_epik_Charging_Adjusted_Penalty>
0.00137877

> <i_epik_Tot_Q>
1

> <i_epik_Tot_abs_Q>
1

> <r_epik_Metal_State_Penalty>
-0

> <b_epik_Metal_Only>
0

> <s_lp_Force_Field>
OPLS_2005

> <r_lp_Energy>
46.6392

> <b_lp_Chiralities_Consistent>
1

> <s_lp_Variant>
AV-unprocessed.smi:243-16

> <Gold.Version>
5.8.1

> <Gold.Id.Protein>
6NUR|6NUR_protein|mol2

> <Gold.PLP.Fitness>
42.8948

> <Gold.PLP.PLP>
-36.1432

> <Gold.PLP.part.hbond>
-2.0000

> <Gold.PLP.part.metal>
0.0000

> <Gold.PLP.part.buried>
-6.5620

> <Gold.PLP.part.nonpolar>
-27.8820

> <Gold.PLP.part.repulsive>
0.3197

> <Gold.PLP.ligand.clash>
0.0000

> <Gold.PLP.ligand.torsion>
1.3620

> <Gold.PLP.Chemscore.Hbond>
2.0000

> <Gold.PLP.Chemscore.CHOScore>
1.0000

> <Gold.PLP.Chemscore.Metal>
0.0000

> <Gold.Chemscore.Hbonds>
donor molecule, donor type, donor heavy atom, donor atom, acceptor molecule, acceptor atom, score
      L1  H    20    45       P1  8028  1.00
      P1  H  7989  7998       L1    12  1.00
      L1  C    11    41       P1  7957  1.00

> <Gold.PLP.Chemscore.Internal.Correction>
0.4756

> <Gold.Rescore>
     Score         DG    S(hbond)    S(metal)    S(lipo)     H(rot)  DE(clash)    DE(int)     intcor
     12.82     -16.89       1.95        0.00      97.24       2.53       2.03       2.04       ----

> <Gold.Chemscore.Fitness>
12.8207

> <Gold.Chemscore.DG>
-16.8907

> <Gold.Chemscore.ZeroCoef>
-5.4800

> <Gold.Chemscore.Hbond>
1.9496

> <Gold.Chemscore.Metal>
0.0000

> <Gold.Chemscore.Lipo>
97.2400

> <Gold.Chemscore.Internal_Hbond>
0.0000

> <Gold.Chemscore.DEClash>
2.0346

> <Gold.Chemscore.DEInternal>
2.0354

> <Gold.Chemscore.Rot>
2.5305

> <Gold.Chemscore.Internal.Correction>
   9.000000E+99

> <Gold.Chemscore.Hbonds>
donor molecule, donor type, donor heavy atom, donor atom, acceptor molecule, acceptor atom, score
      L1  H    20    45       P1  8028  0.72
      P1  H  7989  7998       L1    12  0.50

> <Gold.Chemscore.Hbond.Weighted>
-6.5115

> <Gold.Chemscore.Metal.Weighted>
-0.0000

> <Gold.Chemscore.Lipo.Weighted>
-11.3771

> <Gold.Chemscore.Internal_Hbond.Weighted>
0.0000

> <Gold.Chemscore.DEClash.Weighted>
2.0346

> <Gold.Chemscore.DEInternal.Weighted>
2.0354

> <Gold.Chemscore.Rot.Weighted>
6.4780

> <Gold.Chemscore.Internal.Correction.Weighted>
   9.000000E+99

> <Gold.Protein.RotatedTorsions>
[ 6907 6896 6895 6894 ] final  173.95 input  -60.11 | X-H torsion
[ 7974 7965 7964 7962 ] final   58.55 input  175.53 | X-H torsion
[ 8008 7997 7996 7995 ] final  119.14 input   59.86 | X-H torsion
[ 10167 10162 10161 10158 ] final   31.86 input  -65.29 | X-H torsion
[ 10718 10713 10712 10709 ] final   21.22 input   66.30 | X-H torsion
[ 10763 10752 10751 10750 ] final  124.37 input  -60.55 | X-H torsion
[ 11005 11000 10999 10996 ] final -119.30 input  -57.11 | X-H torsion

> <Gold.Protein.ActiveResidues>
 VAL166  LYS551  ARG553  GLY616  TRP617  ASP618  TYR619  PRO620  LYS621  CYS622 
 ASP623  PHE694  ASN695  SER759  ASP760  ASP761  ALA762  ILE779  LEU786  VAL792 
 PHE793  MET794  SER795  GLU796  ALA797  LYS798  CYS799  TRP800  GLU811  SER814 

> <Gold.Protein.RotatedAtoms>
  151.7601  133.3333  159.3415 H   0  0  0  0  0  0  0  0  0  0  0  0  # atno 6907 bound_to 6896
  150.7501  134.6113  159.6097 H   0  0  0  0  0  0  0  0  0  0  0  0  # atno 6908 bound_to 6896
  152.3411  134.7135  160.0315 H   0  0  0  0  0  0  0  0  0  0  0  0  # atno 6909 bound_to 6896
  145.9170  139.3699  143.0501 H   0  0  0  0  0  0  0  0  0  0  0  0  # atno 7974 bound_to 7965
  156.2581  140.2859  156.0944 H   0  0  0  0  0  0  0  0  0  0  0  0  # atno 8008 bound_to 7997
  155.1427  140.0396  157.2820 H   0  0  0  0  0  0  0  0  0  0  0  0  # atno 8009 bound_to 7997
  154.6518  140.2546  155.7212 H   0  0  0  0  0  0  0  0  0  0  0  0  # atno 8010 bound_to 7997
  140.4551  144.0991  150.6200 H   0  0  0  0  0  0  0  0  0  0  0  0  # atno 10167 bound_to 10162
  157.1354  130.6609  149.5964 H   0  0  0  0  0  0  0  0  0  0  0  0  # atno 10718 bound_to 10713
  153.6602  135.3347  155.3125 H   0  0  0  0  0  0  0  0  0  0  0  0  # atno 10763 bound_to 10752
  154.8516  135.4362  154.1812 H   0  0  0  0  0  0  0  0  0  0  0  0  # atno 10764 bound_to 10752
  153.2777  135.7006  153.7492 H   0  0  0  0  0  0  0  0  0  0  0  0  # atno 10765 bound_to 10752
  141.0225  134.0102  157.3261 H   0  0  0  0  0  0  0  0  0  0  0  0  # atno 11005 bound_to 11000
  145.8599  140.9481  143.0705 LP  0  0  0  0  0  0  0  0  0  0  0  0  # atno 17320 bound_to 7965
  144.6749  140.0517  143.7478 LP  0  0  0  0  0  0  0  0  0  0  0  0  # atno 17321 bound_to 7965
  140.4161  143.2633  151.9773 LP  0  0  0  0  0  0  0  0  0  0  0  0  # atno 17342 bound_to 10162
  139.4800  144.5872  151.7833 LP  0  0  0  0  0  0  0  0  0  0  0  0  # atno 17343 bound_to 10162
  155.9799  130.4796  150.6743 LP  0  0  0  0  0  0  0  0  0  0  0  0  # atno 17370 bound_to 10713
  157.4355  131.0854  151.0996 LP  0  0  0  0  0  0  0  0  0  0  0  0  # atno 17371 bound_to 10713
  139.9155  135.0196  156.7864 LP  0  0  0  0  0  0  0  0  0  0  0  0  # atno 17394 bound_to 11000
  140.6548  133.9699  155.7774 LP  0  0  0  0  0  0  0  0  0  0  0  0  # atno 17395 bound_to 11000

$$$$
