AV-unprocessed.smi:1540|AV-procd|sdf|6198|dock6
  -GOLD-   22720 6363D 1   1.00000     0.00000
 Structure written by MMmdl.
 33 33  0  0  0  0  0  0  0  0  1 V2000
  146.4562  142.6293  154.2522 C   0  0  0  0  0  0  0  0  0  0  0  0
  147.1607  141.5435  153.8999 C   0  0  0  0  0  0  0  0  0  0  0  0
  148.6109  141.3086  154.2587 C   0  0  0  0  0  0  0  0  0  0  0  0
  148.7842  139.9895  154.7615 O   0  0  0  0  0  0  0  0  0  0  0  0
  150.0862  139.4338  154.5938 C   0  0  2  0  0  0  0  0  0  0  0  0
  149.9829  137.9263  154.8682 C   0  0  0  0  0  0  0  0  0  0  0  0
  151.0856  140.1081  155.5480 C   0  0  0  0  0  0  0  0  0  0  0  0
  152.2586  140.2414  155.2001 O   0  0  0  0  0  0  0  0  0  0  0  0
  150.5745  140.5152  156.7268 N   0  0  0  0  0  0  0  0  0  0  0  0
  151.2217  141.1188  157.8179 C   0  0  0  0  0  0  0  0  0  0  0  0
  151.0414  142.4067  158.2119 C   0  0  0  0  0  0  0  0  0  0  0  0
  151.7511  142.9727  159.3471 C   0  0  0  0  0  0  0  0  0  0  0  0
  151.5838  144.4322  159.7417 C   0  0  0  0  0  0  0  0  0  0  0  0
  150.2957  144.7645  159.8385 F   0  0  0  0  0  0  0  0  0  0  0  0
  152.1688  144.6794  160.9139 F   0  0  0  0  0  0  0  0  0  0  0  0
  152.1474  145.2169  158.8243 F   0  0  0  0  0  0  0  0  0  0  0  0
  152.6224  142.1618  159.9751 C   0  0  0  0  0  0  0  0  0  0  0  0
  152.8142  140.8372  159.5758 N   0  0  0  0  0  0  0  0  0  0  0  0
  152.1769  140.2573  158.5341 C   0  0  0  0  0  0  0  0  0  0  0  0
  152.4092  139.0857  158.2379 O   0  0  0  0  0  0  0  0  0  0  0  0
  153.4797  140.2904  160.1032 H   0  0  0  0  0  0  0  0  0  0  0  0
  146.9018  143.4240  154.8323 H   0  0  0  0  0  0  0  0  0  0  0  0
  145.4212  142.7367  153.9631 H   0  0  0  0  0  0  0  0  0  0  0  0
  146.6825  140.7679  153.3195 H   0  0  0  0  0  0  0  0  0  0  0  0
  149.2367  141.4615  153.3779 H   0  0  0  0  0  0  0  0  0  0  0  0
  148.8999  142.0526  155.0013 H   0  0  0  0  0  0  0  0  0  0  0  0
  150.4067  139.5720  153.5593 H   0  0  0  0  0  0  0  0  0  0  0  0
  150.9530  137.4379  154.7687 H   0  0  0  0  0  0  0  0  0  0  0  0
  149.3019  137.4517  154.1614 H   0  0  0  0  0  0  0  0  0  0  0  0
  149.6067  137.7246  155.8721 H   0  0  0  0  0  0  0  0  0  0  0  0
  149.5767  140.4064  156.8399 H   0  0  0  0  0  0  0  0  0  0  0  0
  150.3697  143.0608  157.6807 H   0  0  0  0  0  0  0  0  0  0  0  0
  153.2352  142.4591  160.8135 H   0  0  0  0  0  0  0  0  0  0  0  0
  1  2  2  0  0  0  0
  1 22  1  0  0  0  0
  1 23  1  0  0  0  0
  2  3  1  0  0  0  0
  2 24  1  0  0  0  0
  3  4  1  0  0  0  0
  3 25  1  0  0  0  0
  3 26  1  0  0  0  0
  4  5  1  0  0  0  0
  5  6  1  0  0  0  0
  5  7  1  0  0  0  0
  5 27  1  0  0  0  0
  6 28  1  0  0  0  0
  6 29  1  0  0  0  0
  6 30  1  0  0  0  0
  7  8  2  0  0  0  0
  7  9  1  0  0  0  0
  9 10  1  0  0  0  0
  9 31  1  0  0  0  0
 10 19  1  0  0  0  0
 10 11  2  0  0  0  0
 11 12  1  0  0  0  0
 11 32  1  0  0  0  0
 12 13  1  0  0  0  0
 12 17  2  0  0  0  0
 13 14  1  0  0  0  0
 13 15  1  0  0  0  0
 13 16  1  0  0  0  0
 17 18  1  0  0  0  0
 17 33  1  0  0  0  0
 18 21  1  0  0  0  0
 18 19  1  0  0  0  0
 19 20  2  0  0  0  0
M  END
> <s_m_source_file>
AV-unprocessed.smi

> <i_m_source_file_index>
1540

> <i_lp_mmshare_version>
43012

> <i_f3d_flags>
0

> <s_epik_input>
W0NIMl09W0NIXVtDSDJdT1tDQEhdKFtDSDNdKUMoPU8pW05IXWMxW2NIXWMoQyhGKShGKUYpW2NIXVtuSF1jMT1P

> <s_epik_cmdline>
J2VwaWtfcHl0aG9uJywgJy1waCcsICc3LjAnLCAnLXRuJywgJzgnLCAnLW1hJywgJzIwMCcsICctbWV0YWxfYmluZGluZycsICctaW1hZScsICc8aW5maWxlLm1hZT4nLCAnLW9tYWUnLCAnPG91dGZpbGUubWFlPic=

> <r_lp_tautomer_probability>
0.999

> <r_epik_Ionization_Penalty>
0.0086731

> <r_epik_Ionization_Penalty_Charging>
0.00867296

> <r_epik_Ionization_Penalty_Neutral>
1.3954e-07

> <r_epik_State_Penalty>
0.00654787

> <r_epik_Charging_Adjusted_Penalty>
0.0152208

> <i_epik_Tot_Q>
0

> <i_epik_Tot_abs_Q>
0

> <r_epik_Metal_State_Penalty>
0.320056

> <b_epik_Metal_Only>
0

> <s_lp_Force_Field>
OPLS_2005

> <r_lp_Energy>
17.7944

> <b_lp_Chiralities_Consistent>
1

> <s_lp_Variant>
AV-unprocessed.smi:1540-1

> <Gold.Version>
5.8.1

> <Gold.Id.Protein>
6NUR|6NUR_protein|mol2

> <Gold.PLP.Fitness>
43.3750

> <Gold.PLP.PLP>
-46.3784

> <Gold.PLP.part.hbond>
-1.3177

> <Gold.PLP.part.metal>
0.0000

> <Gold.PLP.part.buried>
-6.2756

> <Gold.PLP.part.nonpolar>
-38.9174

> <Gold.PLP.part.repulsive>
0.2786

> <Gold.PLP.ligand.clash>
0.9039

> <Gold.PLP.ligand.torsion>
2.0666

> <Gold.PLP.Chemscore.Hbond>
0.6618

> <Gold.PLP.Chemscore.CHOScore>
0.0000

> <Gold.PLP.Chemscore.Metal>
0.0000

> <Gold.Chemscore.Hbonds>
donor molecule, donor type, donor heavy atom, donor atom, acceptor molecule, acceptor atom, score
      P1  H  7989  7998       L1     8  0.31
      P1  H  7997  8008       L1     8  0.32

> <Gold.PLP.Chemscore.Internal.Correction>
0.0484

> <Gold.Rescore>
     Score         DG    S(hbond)    S(metal)    S(lipo)     H(rot)  DE(clash)    DE(int)     intcor
     11.69     -13.45       0.99        0.00      79.41       1.81       0.12       1.65       ----

> <Gold.Chemscore.Fitness>
11.6853

> <Gold.Chemscore.DG>
-13.4530

> <Gold.Chemscore.ZeroCoef>
-5.4800

> <Gold.Chemscore.Hbond>
0.9917

> <Gold.Chemscore.Metal>
0.0000

> <Gold.Chemscore.Lipo>
79.4059

> <Gold.Chemscore.Internal_Hbond>
0.0000

> <Gold.Chemscore.DEClash>
0.1195

> <Gold.Chemscore.DEInternal>
1.6482

> <Gold.Chemscore.Rot>
1.8084

> <Gold.Chemscore.Internal.Correction>
   9.000000E+99

> <Gold.Chemscore.Hbonds>
donor molecule, donor type, donor heavy atom, donor atom, acceptor molecule, acceptor atom, score
      P1  H  7989  7998       L1     8  0.01
      P1  H  7997  8008       L1     8  0.30

> <Gold.Chemscore.Hbond.Weighted>
-3.3121

> <Gold.Chemscore.Metal.Weighted>
-0.0000

> <Gold.Chemscore.Lipo.Weighted>
-9.2905

> <Gold.Chemscore.Internal_Hbond.Weighted>
0.0000

> <Gold.Chemscore.DEClash.Weighted>
0.1195

> <Gold.Chemscore.DEInternal.Weighted>
1.6482

> <Gold.Chemscore.Rot.Weighted>
4.6296

> <Gold.Chemscore.Internal.Correction.Weighted>
   9.000000E+99

> <Gold.Protein.RotatedTorsions>
[ 6907 6896 6895 6894 ] final  153.01 input  -60.11 | X-H torsion
[ 7974 7965 7964 7962 ] final  126.94 input  175.53 | X-H torsion
[ 8008 7997 7996 7995 ] final  -33.45 input   59.86 | X-H torsion
[ 10167 10162 10161 10158 ] final -159.16 input  -65.29 | X-H torsion
[ 10718 10713 10712 10709 ] final   34.32 input   66.30 | X-H torsion
[ 10763 10752 10751 10750 ] final  126.08 input  -60.55 | X-H torsion
[ 11005 11000 10999 10996 ] final   38.99 input  -57.11 | X-H torsion

> <Gold.Protein.ActiveResidues>
 VAL166  LYS551  ARG553  GLY616  TRP617  ASP618  TYR619  PRO620  LYS621  CYS622 
 ASP623  PHE694  ASN695  SER759  ASP760  ASP761  ALA762  ILE779  LEU786  VAL792 
 PHE793  MET794  SER795  GLU796  ALA797  LYS798  CYS799  TRP800  GLU811  SER814 

> <Gold.Protein.RotatedAtoms>
  152.0787  133.4142  159.4491 H   0  0  0  0  0  0  0  0  0  0  0  0  # atno 6907 bound_to 6896
  150.6862  134.3007  159.4714 H   0  0  0  0  0  0  0  0  0  0  0  0  # atno 6908 bound_to 6896
  152.0847  134.9447  160.0623 H   0  0  0  0  0  0  0  0  0  0  0  0  # atno 6909 bound_to 6896
  145.0561  139.3843  143.5029 H   0  0  0  0  0  0  0  0  0  0  0  0  # atno 7974 bound_to 7965
  154.4149  140.1710  156.1889 H   0  0  0  0  0  0  0  0  0  0  0  0  # atno 8008 bound_to 7997
  155.9620  140.3393  155.6475 H   0  0  0  0  0  0  0  0  0  0  0  0  # atno 8009 bound_to 7997
  155.6737  140.0714  157.2501 H   0  0  0  0  0  0  0  0  0  0  0  0  # atno 8010 bound_to 7997
  139.6637  143.9868  152.2241 H   0  0  0  0  0  0  0  0  0  0  0  0  # atno 10167 bound_to 10162
  157.3088  130.7388  149.6712 H   0  0  0  0  0  0  0  0  0  0  0  0  # atno 10718 bound_to 10713
  153.6875  135.3304  155.3194 H   0  0  0  0  0  0  0  0  0  0  0  0  # atno 10763 bound_to 10752
  154.8449  135.4424  154.1542 H   0  0  0  0  0  0  0  0  0  0  0  0  # atno 10764 bound_to 10752
  153.2575  135.6988  153.7691 H   0  0  0  0  0  0  0  0  0  0  0  0  # atno 10765 bound_to 10752
  140.2072  134.3799  155.8067 H   0  0  0  0  0  0  0  0  0  0  0  0  # atno 11005 bound_to 11000
  146.3521  140.0236  142.8656 LP  0  0  0  0  0  0  0  0  0  0  0  0  # atno 17320 bound_to 7965
  145.1466  140.9600  143.4457 LP  0  0  0  0  0  0  0  0  0  0  0  0  # atno 17321 bound_to 7965
  139.9613  144.6555  150.8076 LP  0  0  0  0  0  0  0  0  0  0  0  0  # atno 17342 bound_to 10162
  140.7590  143.3120  151.2822 LP  0  0  0  0  0  0  0  0  0  0  0  0  # atno 17343 bound_to 10162
  155.9676  130.4257  150.4668 LP  0  0  0  0  0  0  0  0  0  0  0  0  # atno 17370 bound_to 10713
  157.2663  131.0577  151.2289 LP  0  0  0  0  0  0  0  0  0  0  0  0  # atno 17371 bound_to 10713
  141.2227  133.7124  156.8357 LP  0  0  0  0  0  0  0  0  0  0  0  0  # atno 17394 bound_to 11000
  140.1990  134.8911  157.3147 LP  0  0  0  0  0  0  0  0  0  0  0  0  # atno 17395 bound_to 11000

$$$$
