AV-unprocessed.smi:1423|AV-procd|sdf|5797|dock3
  -GOLD-   22720 5443D 1   1.00000     0.00000
 Structure written by MMmdl.
 43 44  0  0  0  0  0  0  0  0  3 V2000
  152.7822  139.1748  159.0679 C   0  0  0  0  0  0  0  0  0  0  0  0
  152.6707  139.3389  157.6584 O   0  0  0  0  0  0  0  0  0  0  0  0
  151.8898  138.4450  156.9546 C   0  0  0  0  0  0  0  0  0  0  0  0
  151.0108  137.6085  157.6705 C   0  0  0  0  0  0  0  0  0  0  0  0
  150.2119  136.6916  156.9609 C   0  0  0  0  0  0  0  0  0  0  0  0
  150.3119  136.6454  155.5493 C   0  0  0  0  0  0  0  0  0  0  0  0
  149.5782  135.7573  154.7154 N   0  0  0  0  0  0  0  0  0  0  0  0
  149.0636  134.5508  155.0101 C   0  0  0  0  0  0  0  0  0  0  0  0
  149.1102  134.0028  156.1109 O   0  0  0  0  0  0  0  0  0  0  0  0
  148.4667  134.0052  153.9405 N   0  0  0  0  0  0  0  0  0  0  0  0
  147.8134  132.6995  153.9176 C   0  0  2  0  0  0  0  0  0  0  0  0
  148.8563  131.5668  153.9149 C   0  0  0  0  0  0  0  0  0  0  0  0
  148.1832  130.1908  153.7836 C   0  0  0  0  0  0  0  0  0  0  0  0
  147.3320  130.1252  152.5659 N   0  3  1  0  0  0  0  0  0  0  0  0
  146.7701  128.7736  152.3142 C   0  0  0  0  0  0  0  0  0  0  0  0
  147.8171  127.8611  151.6660 C   0  0  0  0  0  0  0  0  0  0  0  0
  148.0780  128.2050  150.3884 N   0  5  0  0  0  0  0  0  0  0  0  0
  148.3102  126.9427  152.3167 O   0  0  0  0  0  0  0  0  0  0  0  0
  146.2911  131.1833  152.5664 C   0  0  0  0  0  0  0  0  0  0  0  0
  146.9226  132.5818  152.6703 C   0  0  0  0  0  0  0  0  0  0  0  0
  151.2298  137.5192  154.9299 C   0  0  0  0  0  0  0  0  0  0  0  0
  151.9990  138.3997  155.6040 N   0  0  0  0  0  0  0  0  0  0  0  0
  153.4273  139.9549  159.4715 H   0  0  0  0  0  0  0  0  0  0  0  0
  153.2272  138.2123  159.3239 H   0  0  0  0  0  0  0  0  0  0  0  0
  151.8113  139.2628  159.5579 H   0  0  0  0  0  0  0  0  0  0  0  0
  150.9535  137.6654  158.7476 H   0  0  0  0  0  0  0  0  0  0  0  0
  149.5552  136.0411  157.5163 H   0  0  0  0  0  0  0  0  0  0  0  0
  149.3959  136.0986  153.7829 H   0  0  0  0  0  0  0  0  0  0  0  0
  148.4709  134.5276  153.0765 H   0  0  0  0  0  0  0  0  0  0  0  0
  147.1793  132.5988  154.8008 H   0  0  0  0  0  0  0  0  0  0  0  0
  149.5550  131.7067  153.0884 H   0  0  0  0  0  0  0  0  0  0  0  0
  149.4496  131.5972  154.8295 H   0  0  0  0  0  0  0  0  0  0  0  0
  148.9535  129.4200  153.7469 H   0  0  0  0  0  0  0  0  0  0  0  0
  147.5747  129.9858  154.6657 H   0  0  0  0  0  0  0  0  0  0  0  0
  146.3980  128.3367  153.2424 H   0  0  0  0  0  0  0  0  0  0  0  0
  145.9172  128.8356  151.6360 H   0  0  0  0  0  0  0  0  0  0  0  0
  148.1508  129.2022  150.1521 H   0  0  0  0  0  0  0  0  0  0  0  0
  145.7057  131.1237  151.6481 H   0  0  0  0  0  0  0  0  0  0  0  0
  145.6011  131.0164  153.3953 H   0  0  0  0  0  0  0  0  0  0  0  0
  146.1378  133.3386  152.6976 H   0  0  0  0  0  0  0  0  0  0  0  0
  147.5113  132.7783  151.7728 H   0  0  0  0  0  0  0  0  0  0  0  0
  151.3518  137.5143  153.8563 H   0  0  0  0  0  0  0  0  0  0  0  0
  147.9314  130.3132  151.7739 H   0  0  0  0  0  0  0  0  0  0  0  0
  1  2  1  0  0  0  0
  1 23  1  0  0  0  0
  1 24  1  0  0  0  0
  1 25  1  0  0  0  0
  2  3  1  0  0  0  0
  3 22  1  0  0  0  0
  3  4  2  0  0  0  0
  4  5  1  0  0  0  0
  4 26  1  0  0  0  0
  5  6  2  0  0  0  0
  5 27  1  0  0  0  0
  6  7  1  0  0  0  0
  6 21  1  0  0  0  0
  7  8  1  0  0  0  0
  7 28  1  0  0  0  0
  8  9  2  0  0  0  0
  8 10  1  0  0  0  0
 10 11  1  0  0  0  0
 10 29  1  0  0  0  0
 11 20  1  0  0  0  0
 11 12  1  0  0  0  0
 11 30  1  0  0  0  0
 12 13  1  0  0  0  0
 12 31  1  0  0  0  0
 12 32  1  0  0  0  0
 13 14  1  0  0  0  0
 13 33  1  0  0  0  0
 13 34  1  0  0  0  0
 14 15  1  0  0  0  0
 14 19  1  0  0  0  0
 14 43  1  0  0  0  0
 15 16  1  0  0  0  0
 15 35  1  0  0  0  0
 15 36  1  0  0  0  0
 16 17  1  0  0  0  0
 16 18  2  0  0  0  0
 17 37  1  0  0  0  0
 19 20  1  0  0  0  0
 19 38  1  0  0  0  0
 19 39  1  0  0  0  0
 20 40  1  0  0  0  0
 20 41  1  0  0  0  0
 21 22  2  0  0  0  0
 21 42  1  0  0  0  0
M  CHG  1  14   1
M  CHG  1  17  -1
M  END
> <s_m_source_file>
AV-unprocessed.smi

> <i_m_source_file_index>
1423

> <i_lp_mmshare_version>
43012

> <i_f3d_flags>
0

> <s_epik_input>
W0NIM11PYzFbY0hdW2NIXWMoW2NIXW4xKVtOSF1DKD1PKVtOSF1bQ0hdMltDSDJdW0NIMl1OKFtDSDJdW0NIMl0yKVtDSDJdQyg9TylbTkgyXQ==

> <s_epik_cmdline>
J2VwaWtfcHl0aG9uJywgJy1waCcsICc3LjAnLCAnLXRuJywgJzgnLCAnLW1hJywgJzIwMCcsICctbWV0YWxfYmluZGluZycsICctaW1hZScsICc8aW5maWxlLm1hZT4nLCAnLW9tYWUnLCAnPG91dGZpbGUubWFlPic=

> <r_lp_tautomer_probability>
1

> <r_epik_Ionization_Penalty>
5.72888

> <r_epik_Ionization_Penalty_Charging>
5.7288

> <r_epik_Ionization_Penalty_Neutral>
7.8452e-05

> <r_epik_State_Penalty>
6.54882

> <r_epik_Charging_Adjusted_Penalty>
12.2776

> <i_epik_Tot_Q>
0

> <i_epik_Tot_abs_Q>
2

> <r_epik_Metal_State_Penalty>
2.51301

> <b_epik_Metal_Only>
1

> <s_lp_Force_Field>
OPLS_2005

> <r_lp_Energy>
10.9641

> <b_lp_Chiralities_Consistent>
1

> <s_lp_Variant>
AV-unprocessed.smi:1423-4

> <Gold.Version>
5.8.1

> <Gold.Id.Protein>
6NUR|6NUR_protein|mol2

> <Gold.PLP.Fitness>
47.4459

> <Gold.PLP.PLP>
-31.9120

> <Gold.PLP.part.hbond>
-6.0649

> <Gold.PLP.part.metal>
0.0000

> <Gold.PLP.part.buried>
-3.1771

> <Gold.PLP.part.nonpolar>
-23.2617

> <Gold.PLP.part.repulsive>
0.1874

> <Gold.PLP.ligand.clash>
0.1256

> <Gold.PLP.ligand.torsion>
0.8751

> <Gold.PLP.Chemscore.Hbond>
4.7920

> <Gold.PLP.Chemscore.CHOScore>
1.0000

> <Gold.PLP.Chemscore.Metal>
0.0000

> <Gold.Chemscore.Hbonds>
donor molecule, donor type, donor heavy atom, donor atom, acceptor molecule, acceptor atom, score
      L1  H     7    28       P1  7948  1.00
      L1  H    10    29       P1  7948  0.81
      L1  H    14    43       P1 10747  1.00
      L1  H    17    37       P1 10747  0.80
      P1  H  7997  8010       L1     2  0.40
      L1  C    21    42       P1  7949  0.28

> <Gold.PLP.Chemscore.Internal.Correction>
0.0337

> <Gold.Rescore>
     Score         DG    S(hbond)    S(metal)    S(lipo)     H(rot)  DE(clash)    DE(int)     intcor
     17.29     -19.26       3.87        0.00      57.52       2.29       0.03       1.94       ----

> <Gold.Chemscore.Fitness>
17.2900

> <Gold.Chemscore.DG>
-19.2585

> <Gold.Chemscore.ZeroCoef>
-5.4800

> <Gold.Chemscore.Hbond>
3.8651

> <Gold.Chemscore.Metal>
0.0000

> <Gold.Chemscore.Lipo>
57.5207

> <Gold.Chemscore.Internal_Hbond>
0.0000

> <Gold.Chemscore.DEClash>
0.0275

> <Gold.Chemscore.DEInternal>
1.9410

> <Gold.Chemscore.Rot>
2.2894

> <Gold.Chemscore.Internal.Correction>
   9.000000E+99

> <Gold.Chemscore.Hbonds>
donor molecule, donor type, donor heavy atom, donor atom, acceptor molecule, acceptor atom, score
      L1  H     7    28       P1  7948  0.69
      L1  H    10    29       P1  7948  0.27
      L1  H    14    43       P1 10747  1.00
      L1  H    17    37       P1 10747  0.11
      P1  H  7997  8010       L1     2  0.31

> <Gold.Chemscore.Hbond.Weighted>
-12.9093

> <Gold.Chemscore.Metal.Weighted>
-0.0000

> <Gold.Chemscore.Lipo.Weighted>
-6.7299

> <Gold.Chemscore.Internal_Hbond.Weighted>
0.0000

> <Gold.Chemscore.DEClash.Weighted>
0.0275

> <Gold.Chemscore.DEInternal.Weighted>
1.9410

> <Gold.Chemscore.Rot.Weighted>
5.8608

> <Gold.Chemscore.Internal.Correction.Weighted>
   9.000000E+99

> <Gold.Protein.RotatedTorsions>
[ 6907 6896 6895 6894 ] final  -96.55 input  -60.11 | X-H torsion
[ 7974 7965 7964 7962 ] final -146.57 input  175.53 | X-H torsion
[ 8008 7997 7996 7995 ] final   76.60 input   59.86 | X-H torsion
[ 10167 10162 10161 10158 ] final  -36.50 input  -65.29 | X-H torsion
[ 10718 10713 10712 10709 ] final    2.22 input   66.30 | X-H torsion
[ 10763 10752 10751 10750 ] final -119.36 input  -60.55 | X-H torsion
[ 11005 11000 10999 10996 ] final  -48.59 input  -57.11 | X-H torsion

> <Gold.Protein.ActiveResidues>
 VAL166  LYS551  ARG553  GLY616  TRP617  ASP618  TYR619  PRO620  LYS621  CYS622 
 ASP623  PHE694  ASN695  SER759  ASP760  ASP761  ALA762  ILE779  LEU786  VAL792 
 PHE793  MET794  SER795  GLU796  ALA797  LYS798  CYS799  TRP800  GLU811  SER814 

> <Gold.Protein.RotatedAtoms>
  150.6992  134.1485  159.4131 H   0  0  0  0  0  0  0  0  0  0  0  0  # atno 6907 bound_to 6896
  151.9469  135.0185  160.0549 H   0  0  0  0  0  0  0  0  0  0  0  0  # atno 6908 bound_to 6896
  152.2045  133.4830  159.5113 H   0  0  0  0  0  0  0  0  0  0  0  0  # atno 6909 bound_to 6896
  144.8151  140.5439  143.5616 H   0  0  0  0  0  0  0  0  0  0  0  0  # atno 7974 bound_to 7965
  155.8296  140.3466  155.5564 H   0  0  0  0  0  0  0  0  0  0  0  0  # atno 8008 bound_to 7997
  155.8256  140.0919  157.1843 H   0  0  0  0  0  0  0  0  0  0  0  0  # atno 8009 bound_to 7997
  154.4004  140.1422  156.3539 H   0  0  0  0  0  0  0  0  0  0  0  0  # atno 8010 bound_to 7997
  140.7141  143.3404  151.2370 H   0  0  0  0  0  0  0  0  0  0  0  0  # atno 10167 bound_to 10162
  156.8598  130.5583  149.5663 H   0  0  0  0  0  0  0  0  0  0  0  0  # atno 10718 bound_to 10713
  154.8615  135.4241  154.2286 H   0  0  0  0  0  0  0  0  0  0  0  0  # atno 10763 bound_to 10752
  153.3276  135.6986  153.6982 H   0  0  0  0  0  0  0  0  0  0  0  0  # atno 10764 bound_to 10752
  153.6011  135.3536  155.2919 H   0  0  0  0  0  0  0  0  0  0  0  0  # atno 10765 bound_to 10752
  141.0709  133.6679  156.3462 H   0  0  0  0  0  0  0  0  0  0  0  0  # atno 11005 bound_to 11000
  145.5234  139.1476  143.3539 LP  0  0  0  0  0  0  0  0  0  0  0  0  # atno 17320 bound_to 7965
  146.2453  140.5375  142.8916 LP  0  0  0  0  0  0  0  0  0  0  0  0  # atno 17321 bound_to 7965
  139.6910  143.9692  152.2859 LP  0  0  0  0  0  0  0  0  0  0  0  0  # atno 17342 bound_to 10162
  139.9353  144.6715  150.8321 LP  0  0  0  0  0  0  0  0  0  0  0  0  # atno 17343 bound_to 10162
  156.0783  130.5800  150.9515 LP  0  0  0  0  0  0  0  0  0  0  0  0  # atno 17370 bound_to 10713
  157.6256  131.0926  150.8539 LP  0  0  0  0  0  0  0  0  0  0  0  0  # atno 17371 bound_to 10713
  140.5675  134.5873  157.5449 LP  0  0  0  0  0  0  0  0  0  0  0  0  # atno 17394 bound_to 11000
  139.9523  134.7596  156.0421 LP  0  0  0  0  0  0  0  0  0  0  0  0  # atno 17395 bound_to 11000

$$$$
