AV-unprocessed.smi:399|AV-procd|sdf|2490|dock7
  -GOLD-   2262022433D 1   1.00000     0.00000
 Structure written by MMmdl.
 46 47  0  0  0  0  0  0  0  0  3 V2000
  144.0330  134.9606  153.2602 C   0  0  0  0  0  0  0  0  0  0  0  0
  145.2879  134.7372  152.3773 C   0  0  0  0  0  0  0  0  0  0  0  0
  145.5430  136.0970  151.6765 C   0  0  0  0  0  0  0  0  0  0  0  0
  146.5021  134.4082  153.2973 C   0  0  0  0  0  0  0  0  0  0  0  0
  146.7360  135.4247  154.3187 N   0  0  0  0  0  0  0  0  0  0  0  0
  147.5017  135.2495  155.4043 C   0  0  0  0  0  0  0  0  0  0  0  0
  148.0953  134.1971  155.6454 O   0  0  0  0  0  0  0  0  0  0  0  0
  147.6206  136.4582  156.3438 C   0  0  0  0  0  0  0  0  0  0  0  0
  149.0135  136.8304  156.6447 N   0  0  0  0  0  0  0  0  0  0  0  0
  149.6025  137.8161  155.8284 C   0  0  0  0  0  0  0  0  0  0  0  0
  150.8730  138.2283  156.0069 C   0  0  0  0  0  0  0  0  0  0  0  0
  151.4640  139.2365  155.1546 N   0  3  0  0  0  0  0  0  0  0  0  0
  150.7466  139.8194  154.3481 O   0  0  0  0  0  0  0  0  0  0  0  0
  152.6627  139.4787  155.2616 O   0  5  0  0  0  0  0  0  0  0  0  0
  151.6333  137.6222  157.0826 C   0  0  0  0  0  0  0  0  0  0  0  0
  151.0773  136.6754  157.8639 C   0  0  0  0  0  0  0  0  0  0  0  0
  149.6963  136.2243  157.6638 C   0  0  0  0  0  0  0  0  0  0  0  0
  149.1848  135.3544  158.3693 O   0  0  0  0  0  0  0  0  0  0  0  0
  145.0262  133.6754  151.3667 N   0  0  0  0  0  0  0  0  0  0  0  0
  144.6504  132.3691  151.9217 C   0  0  0  0  0  0  0  0  0  0  0  0
  144.5219  131.2917  150.8311 C   0  0  0  0  0  0  0  0  0  0  0  0
  143.5759  131.7092  149.8545 O   0  0  0  0  0  0  0  0  0  0  0  0
  143.9337  132.9443  149.2464 C   0  0  0  0  0  0  0  0  0  0  0  0
  144.0581  134.0358  150.3233 C   0  0  0  0  0  0  0  0  0  0  0  0
  144.1142  135.8595  153.8719 H   0  0  0  0  0  0  0  0  0  0  0  0
  143.8648  134.1363  153.9532 H   0  0  0  0  0  0  0  0  0  0  0  0
  143.1354  135.0721  152.6504 H   0  0  0  0  0  0  0  0  0  0  0  0
  145.5397  136.9299  152.3802 H   0  0  0  0  0  0  0  0  0  0  0  0
  144.7748  136.3078  150.9314 H   0  0  0  0  0  0  0  0  0  0  0  0
  146.5105  136.1282  151.1755 H   0  0  0  0  0  0  0  0  0  0  0  0
  146.3543  133.4576  153.8102 H   0  0  0  0  0  0  0  0  0  0  0  0
  147.4122  134.3072  152.7052 H   0  0  0  0  0  0  0  0  0  0  0  0
  146.2821  136.3175  154.1898 H   0  0  0  0  0  0  0  0  0  0  0  0
  147.0931  137.2970  155.8871 H   0  0  0  0  0  0  0  0  0  0  0  0
  147.0765  136.2493  157.2669 H   0  0  0  0  0  0  0  0  0  0  0  0
  148.9563  138.1989  155.0516 H   0  0  0  0  0  0  0  0  0  0  0  0
  152.6539  137.9221  157.2696 H   0  0  0  0  0  0  0  0  0  0  0  0
  151.6623  136.2369  158.6590 H   0  0  0  0  0  0  0  0  0  0  0  0
  145.3894  132.0242  152.6425 H   0  0  0  0  0  0  0  0  0  0  0  0
  143.7004  132.4419  152.4511 H   0  0  0  0  0  0  0  0  0  0  0  0
  145.4869  131.1038  150.3576 H   0  0  0  0  0  0  0  0  0  0  0  0
  144.1901  130.3494  151.2673 H   0  0  0  0  0  0  0  0  0  0  0  0
  144.8713  132.8316  148.6998 H   0  0  0  0  0  0  0  0  0  0  0  0
  143.1694  133.2165  148.5185 H   0  0  0  0  0  0  0  0  0  0  0  0
  143.0747  134.2053  150.7617 H   0  0  0  0  0  0  0  0  0  0  0  0
  144.3464  134.9599  149.8258 H   0  0  0  0  0  0  0  0  0  0  0  0
  1  2  1  0  0  0  0
  1 25  1  0  0  0  0
  1 26  1  0  0  0  0
  1 27  1  0  0  0  0
  2  3  1  0  0  0  0
  2  4  1  0  0  0  0
  2 19  1  0  0  0  0
  3 28  1  0  0  0  0
  3 29  1  0  0  0  0
  3 30  1  0  0  0  0
  4  5  1  0  0  0  0
  4 31  1  0  0  0  0
  4 32  1  0  0  0  0
  5  6  1  0  0  0  0
  5 33  1  0  0  0  0
  6  7  2  0  0  0  0
  6  8  1  0  0  0  0
  8  9  1  0  0  0  0
  8 34  1  0  0  0  0
  8 35  1  0  0  0  0
  9 17  1  0  0  0  0
  9 10  1  0  0  0  0
 10 11  2  0  0  0  0
 10 36  1  0  0  0  0
 11 12  1  0  0  0  0
 11 15  1  0  0  0  0
 12 13  2  0  0  0  0
 12 14  1  0  0  0  0
 15 16  2  0  0  0  0
 15 37  1  0  0  0  0
 16 17  1  0  0  0  0
 16 38  1  0  0  0  0
 17 18  2  0  0  0  0
 19 24  1  0  0  0  0
 19 20  1  0  0  0  0
 20 21  1  0  0  0  0
 20 39  1  0  0  0  0
 20 40  1  0  0  0  0
 21 22  1  0  0  0  0
 21 41  1  0  0  0  0
 21 42  1  0  0  0  0
 22 23  1  0  0  0  0
 23 24  1  0  0  0  0
 23 43  1  0  0  0  0
 23 44  1  0  0  0  0
 24 45  1  0  0  0  0
 24 46  1  0  0  0  0
M  CHG  1  12   1
M  CHG  1  14  -1
M  END
> <s_m_source_file>
AV-unprocessed.smi

> <i_m_source_file_index>
399

> <i_lp_mmshare_version>
43012

> <i_f3d_flags>
0

> <s_epik_input>
W0NIMl0xW0NIMl1PW0NIMl1bQ0gyXU4xQyhbQ0gzXSkoW0NIM10pW0NIMl1bTkhdQyg9TylbQ0gyXW4yW2NIXWMoW04rXSg9TylbTy1dKVtjSF1bY0hdYzI9Tw==

> <s_epik_cmdline>
J2VwaWtfcHl0aG9uJywgJy1waCcsICc3LjAnLCAnLXRuJywgJzgnLCAnLW1hJywgJzIwMCcsICctbWV0YWxfYmluZGluZycsICctaW1hZScsICc8aW5maWxlLm1hZT4nLCAnLW9tYWUnLCAnPG91dGZpbGUubWFlPic=

> <r_lp_tautomer_probability>
1

> <r_epik_Ionization_Penalty>
0.237382

> <r_epik_Ionization_Penalty_Charging>
7.45368e-11

> <r_epik_Ionization_Penalty_Neutral>
0.237382

> <r_epik_State_Penalty>
0.228245

> <r_epik_Charging_Adjusted_Penalty>
0.228245

> <i_epik_Tot_Q>
0

> <i_epik_Tot_abs_Q>
2

> <r_epik_Metal_State_Penalty>
0.22822

> <b_epik_Metal_Only>
0

> <s_lp_Force_Field>
OPLS_2005

> <r_lp_Energy>
50.757

> <b_lp_Chiralities_Consistent>
1

> <s_lp_Variant>
AV-unprocessed.smi:399-1

> <Gold.Version>
5.8.1

> <Gold.Id.Protein>
6NUR|6NUR_protein|mol2

> <Gold.PLP.Fitness>
38.0308

> <Gold.PLP.PLP>
-27.7420

> <Gold.PLP.part.hbond>
-5.0000

> <Gold.PLP.part.metal>
0.0000

> <Gold.PLP.part.buried>
-4.1350

> <Gold.PLP.part.nonpolar>
-18.7846

> <Gold.PLP.part.repulsive>
0.4244

> <Gold.PLP.ligand.clash>
0.0000

> <Gold.PLP.ligand.torsion>
0.6482

> <Gold.PLP.Chemscore.Hbond>
3.8320

> <Gold.PLP.Chemscore.CHOScore>
0.0000

> <Gold.PLP.Chemscore.Metal>
0.0000

> <Gold.Chemscore.Hbonds>
donor molecule, donor type, donor heavy atom, donor atom, acceptor molecule, acceptor atom, score
      P1  H  6896  6909       L1    18  0.96
      P1  H  7989  7998       L1    13  1.00
      P1  H  7997  8010       L1    14  1.00
      P1  H 10785 10796       L1    22  0.96

> <Gold.PLP.Chemscore.Internal.Correction>
0.0892

> <Gold.Rescore>
     Score         DG    S(hbond)    S(metal)    S(lipo)     H(rot)  DE(clash)    DE(int)     intcor
     17.97     -18.59       3.31        0.00      63.83       2.11       0.01       0.61       ----

> <Gold.Chemscore.Fitness>
17.9692

> <Gold.Chemscore.DG>
-18.5890

> <Gold.Chemscore.ZeroCoef>
-5.4800

> <Gold.Chemscore.Hbond>
3.3054

> <Gold.Chemscore.Metal>
0.0000

> <Gold.Chemscore.Lipo>
63.8295

> <Gold.Chemscore.Internal_Hbond>
0.0000

> <Gold.Chemscore.DEClash>
0.0073

> <Gold.Chemscore.DEInternal>
0.6125

> <Gold.Chemscore.Rot>
2.1090

> <Gold.Chemscore.Internal.Correction>
   9.000000E+99

> <Gold.Chemscore.Hbonds>
donor molecule, donor type, donor heavy atom, donor atom, acceptor molecule, acceptor atom, score
      P1  H  6896  6909       L1    18  0.64
      P1  H  7989  7998       L1    13  0.74
      P1  H  7997  8010       L1    14  0.94
      P1  H 10785 10796       L1    22  0.49

> <Gold.Chemscore.Hbond.Weighted>
-11.0399

> <Gold.Chemscore.Metal.Weighted>
-0.0000

> <Gold.Chemscore.Lipo.Weighted>
-7.4681

> <Gold.Chemscore.Internal_Hbond.Weighted>
0.0000

> <Gold.Chemscore.DEClash.Weighted>
0.0073

> <Gold.Chemscore.DEInternal.Weighted>
0.6125

> <Gold.Chemscore.Rot.Weighted>
5.3989

> <Gold.Chemscore.Internal.Correction.Weighted>
   9.000000E+99

> <Gold.Protein.RotatedTorsions>
[ 6907 6896 6895 6894 ] final   42.78 input  -60.11 | X-H torsion
[ 7974 7965 7964 7962 ] final  160.04 input  175.53 | X-H torsion
[ 8008 7997 7996 7995 ] final  100.40 input   59.86 | X-H torsion
[ 10167 10162 10161 10158 ] final -178.33 input  -65.29 | X-H torsion
[ 10718 10713 10712 10709 ] final   10.56 input   66.30 | X-H torsion
[ 10763 10752 10751 10750 ] final  -35.70 input  -60.55 | X-H torsion
[ 11005 11000 10999 10996 ] final -128.03 input  -57.11 | X-H torsion

> <Gold.Protein.ActiveResidues>
 VAL166  LYS551  ARG553  GLY616  TRP617  ASP618  TYR619  PRO620  LYS621  CYS622 
 ASP623  PHE694  ASN695  SER759  ASP760  ASP761  ALA762  ILE779  LEU786  VAL792 
 PHE793  MET794  SER795  GLU796  ALA797  LYS798  CYS799  TRP800  GLU811  SER814 

> <Gold.Protein.RotatedAtoms>
  152.2121  134.8492  160.0495 H   0  0  0  0  0  0  0  0  0  0  0  0  # atno 6907 bound_to 6896
  151.9307  133.3605  159.3938 H   0  0  0  0  0  0  0  0  0  0  0  0  # atno 6908 bound_to 6896
  150.6979  134.4465  159.5360 H   0  0  0  0  0  0  0  0  0  0  0  0  # atno 6909 bound_to 6896
  144.7758  139.7701  143.6279 H   0  0  0  0  0  0  0  0  0  0  0  0  # atno 7974 bound_to 7965
  156.1200  140.3214  155.8194 H   0  0  0  0  0  0  0  0  0  0  0  0  # atno 8008 bound_to 7997
  155.4522  140.0533  157.3017 H   0  0  0  0  0  0  0  0  0  0  0  0  # atno 8009 bound_to 7997
  154.4820  140.2057  155.9755 H   0  0  0  0  0  0  0  0  0  0  0  0  # atno 8010 bound_to 7997
  139.5437  144.2292  152.0947 H   0  0  0  0  0  0  0  0  0  0  0  0  # atno 10167 bound_to 10162
  156.9827  130.6012  149.5678 H   0  0  0  0  0  0  0  0  0  0  0  0  # atno 10718 bound_to 10713
  153.8676  135.6834  153.4777 H   0  0  0  0  0  0  0  0  0  0  0  0  # atno 10763 bound_to 10752
  153.1306  135.4700  154.9340 H   0  0  0  0  0  0  0  0  0  0  0  0  # atno 10764 bound_to 10752
  154.7729  135.3244  154.8102 H   0  0  0  0  0  0  0  0  0  0  0  0  # atno 10765 bound_to 10752
  140.9550  134.1014  157.4025 H   0  0  0  0  0  0  0  0  0  0  0  0  # atno 11005 bound_to 11000
  146.1936  139.5190  142.9789 LP  0  0  0  0  0  0  0  0  0  0  0  0  # atno 17320 bound_to 7965
  145.6191  141.0326  143.1925 LP  0  0  0  0  0  0  0  0  0  0  0  0  # atno 17321 bound_to 7965
  140.1775  144.4876  150.6546 LP  0  0  0  0  0  0  0  0  0  0  0  0  # atno 17342 bound_to 10162
  140.6678  143.2274  151.5701 LP  0  0  0  0  0  0  0  0  0  0  0  0  # atno 17343 bound_to 10162
  156.0238  130.5332  150.8349 LP  0  0  0  0  0  0  0  0  0  0  0  0  # atno 17370 bound_to 10713
  157.5514  131.0944  150.9690 LP  0  0  0  0  0  0  0  0  0  0  0  0  # atno 17371 bound_to 10713
  139.8859  135.0077  156.6466 LP  0  0  0  0  0  0  0  0  0  0  0  0  # atno 17394 bound_to 11000
  140.7549  133.8866  155.8374 LP  0  0  0  0  0  0  0  0  0  0  0  0  # atno 17395 bound_to 11000

$$$$
