AV-unprocessed.smi:207|AV-procd|sdf|1602|dock9
  -GOLD-   2262019513D 1   1.00000     0.00000
 Structure written by MMmdl.
 55 58  0  0  0  0  0  0  0  0  1 V2000
  143.9781  134.8954  152.8194 C   0  0  0  0  0  0  0  0  0  0  0  0
  145.4711  134.5329  152.6823 C   0  0  0  0  0  0  0  0  0  0  0  0
  146.2059  135.8162  152.2096 C   0  0  0  0  0  0  0  0  0  0  0  0
  145.9546  134.1979  154.1189 C   0  0  0  0  0  0  0  0  0  0  0  0
  147.3497  133.7551  154.1327 N   0  0  0  0  0  0  0  0  0  0  0  0
  147.9854  133.6909  155.3300 C   0  0  0  0  0  0  0  0  0  0  0  0
  149.3028  133.3568  155.3848 N   0  0  0  0  0  0  0  0  0  0  0  0
  149.9388  133.3065  156.5586 C   0  0  0  0  0  0  0  0  0  0  0  0
  149.4559  133.5439  157.7793 N   0  0  0  0  0  0  0  0  0  0  0  0
  148.1320  133.8667  157.7349 C   0  0  0  0  0  0  0  0  0  0  0  0
  147.3289  133.9653  156.5631 C   0  0  0  0  0  0  0  0  0  0  0  0
  146.0290  134.3133  156.9099 N   0  0  0  0  0  0  0  0  0  0  0  0
  146.0644  134.4250  158.2093 C   0  0  0  0  0  0  0  0  0  0  0  0
  147.2856  134.1628  158.7898 N   0  0  0  0  0  0  0  0  0  0  0  0
  147.5986  134.2109  160.2109 C   0  0  0  0  0  0  0  0  0  0  0  0
  147.5766  135.6286  160.8216 C   0  0  0  0  0  0  0  0  0  0  0  0
  147.9777  135.5944  162.3072 C   0  0  0  0  0  0  0  0  0  0  0  0
  148.2429  136.8920  162.8009 O   0  0  0  0  0  0  0  0  0  0  0  0
  148.2752  136.7247  160.0031 C   0  0  0  0  0  0  0  0  0  0  0  0
  147.1223  137.5891  160.0730 O   0  0  0  0  0  0  0  0  0  0  0  0
  146.3283  136.4676  160.5132 C   0  0  0  0  0  0  0  0  0  0  0  0
  147.5945  132.6175  153.2536 C   0  0  0  0  0  0  0  0  0  0  0  0
  147.0966  132.9284  151.8348 C   0  0  0  0  0  0  0  0  0  0  0  0
  145.6893  133.3430  151.8093 N   0  0  0  0  0  0  0  0  0  0  0  0
  145.1988  133.4537  150.4264 C   0  0  0  0  0  0  0  0  0  0  0  0
  145.3717  132.1865  149.5709 C   0  0  0  0  0  0  0  0  0  0  0  0
  144.7188  132.3648  148.3328 O   0  0  0  0  0  0  0  0  0  0  0  0
  143.8215  135.6464  153.5951 H   0  0  0  0  0  0  0  0  0  0  0  0
  143.3778  134.0252  153.0876 H   0  0  0  0  0  0  0  0  0  0  0  0
  143.5773  135.3187  151.8987 H   0  0  0  0  0  0  0  0  0  0  0  0
  146.0460  136.6341  152.9130 H   0  0  0  0  0  0  0  0  0  0  0  0
  145.8500  136.1681  151.2422 H   0  0  0  0  0  0  0  0  0  0  0  0
  147.2844  135.6834  152.1338 H   0  0  0  0  0  0  0  0  0  0  0  0
  145.8435  135.0722  154.7624 H   0  0  0  0  0  0  0  0  0  0  0  0
  145.3321  133.4099  154.5463 H   0  0  0  0  0  0  0  0  0  0  0  0
  150.9838  133.0371  156.5129 H   0  0  0  0  0  0  0  0  0  0  0  0
  145.1911  134.6963  158.7842 H   0  0  0  0  0  0  0  0  0  0  0  0
  146.8924  133.5604  160.7283 H   0  0  0  0  0  0  0  0  0  0  0  0
  148.5764  133.7504  160.3585 H   0  0  0  0  0  0  0  0  0  0  0  0
  147.2108  135.1245  162.9234 H   0  0  0  0  0  0  0  0  0  0  0  0
  148.8798  134.9972  162.4455 H   0  0  0  0  0  0  0  0  0  0  0  0
  147.7222  137.0314  163.5768 H   0  0  0  0  0  0  0  0  0  0  0  0
  149.1541  137.1515  160.4879 H   0  0  0  0  0  0  0  0  0  0  0  0
  148.4970  136.4439  158.9726 H   0  0  0  0  0  0  0  0  0  0  0  0
  145.7126  136.0661  159.7064 H   0  0  0  0  0  0  0  0  0  0  0  0
  145.7193  136.7014  161.3874 H   0  0  0  0  0  0  0  0  0  0  0  0
  148.6527  132.3613  153.2164 H   0  0  0  0  0  0  0  0  0  0  0  0
  147.0718  131.7457  153.6500 H   0  0  0  0  0  0  0  0  0  0  0  0
  147.7280  133.6857  151.3703 H   0  0  0  0  0  0  0  0  0  0  0  0
  147.2228  132.0270  151.2340 H   0  0  0  0  0  0  0  0  0  0  0  0
  144.1620  133.7850  150.4030 H   0  0  0  0  0  0  0  0  0  0  0  0
  145.7526  134.2407  149.9125 H   0  0  0  0  0  0  0  0  0  0  0  0
  146.4294  131.9970  149.3852 H   0  0  0  0  0  0  0  0  0  0  0  0
  144.9644  131.2963  150.0435 H   0  0  0  0  0  0  0  0  0  0  0  0
  144.9746  133.2018  147.9761 H   0  0  0  0  0  0  0  0  0  0  0  0
  1  2  1  0  0  0  0
  1 28  1  0  0  0  0
  1 29  1  0  0  0  0
  1 30  1  0  0  0  0
  2 24  1  0  0  0  0
  2  3  1  0  0  0  0
  2  4  1  0  0  0  0
  3 31  1  0  0  0  0
  3 32  1  0  0  0  0
  3 33  1  0  0  0  0
  4  5  1  0  0  0  0
  4 34  1  0  0  0  0
  4 35  1  0  0  0  0
  5  6  1  0  0  0  0
  5 22  1  0  0  0  0
  6 11  1  0  0  0  0
  6  7  2  0  0  0  0
  7  8  1  0  0  0  0
  8  9  2  0  0  0  0
  8 36  1  0  0  0  0
  9 10  1  0  0  0  0
 10 14  1  0  0  0  0
 10 11  2  0  0  0  0
 11 12  1  0  0  0  0
 12 13  2  0  0  0  0
 13 14  1  0  0  0  0
 13 37  1  0  0  0  0
 14 15  1  0  0  0  0
 15 16  1  0  0  0  0
 15 38  1  0  0  0  0
 15 39  1  0  0  0  0
 16 21  1  0  0  0  0
 16 17  1  0  0  0  0
 16 19  1  0  0  0  0
 17 18  1  0  0  0  0
 17 40  1  0  0  0  0
 17 41  1  0  0  0  0
 18 42  1  0  0  0  0
 19 20  1  0  0  0  0
 19 43  1  0  0  0  0
 19 44  1  0  0  0  0
 20 21  1  0  0  0  0
 21 45  1  0  0  0  0
 21 46  1  0  0  0  0
 22 23  1  0  0  0  0
 22 47  1  0  0  0  0
 22 48  1  0  0  0  0
 23 24  1  0  0  0  0
 23 49  1  0  0  0  0
 23 50  1  0  0  0  0
 24 25  1  0  0  0  0
 25 26  1  0  0  0  0
 25 51  1  0  0  0  0
 25 52  1  0  0  0  0
 26 27  1  0  0  0  0
 26 53  1  0  0  0  0
 26 54  1  0  0  0  0
 27 55  1  0  0  0  0
M  END
> <s_m_source_file>
AV-unprocessed.smi

> <i_m_source_file_index>
207

> <i_lp_mmshare_version>
43012

> <i_f3d_flags>
0

> <s_epik_input>
W09IXVtDSDJdW0NIMl1OMVtDSDJdW0NIMl1OKFtDSDJdQzEoW0NIM10pW0NIM10pYyhuW2NIXW4yKWMoYzIzKW5bY0hdbjNbQ0gyXUM0KFtDSDJdW09IXSlbQ0gyXU9bQ0gyXTQ=

> <s_epik_cmdline>
J2VwaWtfcHl0aG9uJywgJy1waCcsICc3LjAnLCAnLXRuJywgJzgnLCAnLW1hJywgJzIwMCcsICctbWV0YWxfYmluZGluZycsICctaW1hZScsICc8aW5maWxlLm1hZT4nLCAnLW9tYWUnLCAnPG91dGZpbGUubWFlPic=

> <r_lp_tautomer_probability>
1

> <r_epik_Ionization_Penalty>
0.411763

> <r_epik_Ionization_Penalty_Charging>
0

> <r_epik_Ionization_Penalty_Neutral>
0.411763

> <r_epik_State_Penalty>
0.407012

> <r_epik_Charging_Adjusted_Penalty>
0.407012

> <i_epik_Tot_Q>
0

> <i_epik_Tot_abs_Q>
0

> <r_epik_Metal_State_Penalty>
0.401279

> <b_epik_Metal_Only>
0

> <s_lp_Force_Field>
OPLS_2005

> <r_lp_Energy>
76.2772

> <b_lp_Chiralities_Consistent>
1

> <s_lp_Variant>
AV-unprocessed.smi:207-1

> <Gold.Version>
5.8.1

> <Gold.Id.Protein>
6NUR|6NUR_protein|mol2

> <Gold.PLP.Fitness>
44.5138

> <Gold.PLP.PLP>
-33.4323

> <Gold.PLP.part.hbond>
-5.1838

> <Gold.PLP.part.metal>
0.0000

> <Gold.PLP.part.buried>
-5.1189

> <Gold.PLP.part.nonpolar>
-23.0462

> <Gold.PLP.part.repulsive>
0.2383

> <Gold.PLP.ligand.clash>
0.0000

> <Gold.PLP.ligand.torsion>
0.5416

> <Gold.PLP.Chemscore.Hbond>
3.8160

> <Gold.PLP.Chemscore.CHOScore>
0.0000

> <Gold.PLP.Chemscore.Metal>
0.0000

> <Gold.Chemscore.Hbonds>
donor molecule, donor type, donor heavy atom, donor atom, acceptor molecule, acceptor atom, score
      L1  H    27    55       P1  7921  1.00
      P1  H  6896  6908       L1     9  1.00
      P1  H  6931  6943       L1    18  0.91
      P1  H  6934  6947       L1    20  1.00

> <Gold.PLP.Chemscore.Internal.Correction>
0.7167

> <Gold.Rescore>
     Score         DG    S(hbond)    S(metal)    S(lipo)     H(rot)  DE(clash)    DE(int)     intcor
     13.25     -16.42       3.57        0.00      73.50       3.74       0.18       2.99       ----

> <Gold.Chemscore.Fitness>
13.2531

> <Gold.Chemscore.DG>
-16.4216

> <Gold.Chemscore.ZeroCoef>
-5.4800

> <Gold.Chemscore.Hbond>
3.5702

> <Gold.Chemscore.Metal>
0.0000

> <Gold.Chemscore.Lipo>
73.5005

> <Gold.Chemscore.Internal_Hbond>
0.0000

> <Gold.Chemscore.DEClash>
0.1806

> <Gold.Chemscore.DEInternal>
2.9880

> <Gold.Chemscore.Rot>
3.7432

> <Gold.Chemscore.Internal.Correction>
   9.000000E+99

> <Gold.Chemscore.Hbonds>
donor molecule, donor type, donor heavy atom, donor atom, acceptor molecule, acceptor atom, score
      L1  H    27    55       P1  7921  0.38
      P1  H  6896  6908       L1     9  0.93
      P1  H  6931  6943       L1    18  0.87
      P1  H  6934  6947       L1    20  0.95

> <Gold.Chemscore.Hbond.Weighted>
-11.9246

> <Gold.Chemscore.Metal.Weighted>
-0.0000

> <Gold.Chemscore.Lipo.Weighted>
-8.5996

> <Gold.Chemscore.Internal_Hbond.Weighted>
0.0000

> <Gold.Chemscore.DEClash.Weighted>
0.1806

> <Gold.Chemscore.DEInternal.Weighted>
2.9880

> <Gold.Chemscore.Rot.Weighted>
9.5825

> <Gold.Chemscore.Internal.Correction.Weighted>
   9.000000E+99

> <Gold.Protein.RotatedTorsions>
[ 6907 6896 6895 6894 ] final  130.58 input  -60.11 | X-H torsion
[ 7974 7965 7964 7962 ] final -135.49 input  175.53 | X-H torsion
[ 8008 7997 7996 7995 ] final -151.94 input   59.86 | X-H torsion
[ 10167 10162 10161 10158 ] final  -64.39 input  -65.29 | X-H torsion
[ 10718 10713 10712 10709 ] final  135.60 input   66.30 | X-H torsion
[ 10763 10752 10751 10750 ] final   92.25 input  -60.55 | X-H torsion
[ 11005 11000 10999 10996 ] final  -67.69 input  -57.11 | X-H torsion

> <Gold.Protein.ActiveResidues>
 VAL166  LYS551  ARG553  GLY616  TRP617  ASP618  TYR619  PRO620  LYS621  CYS622 
 ASP623  PHE694  ASN695  SER759  ASP760  ASP761  ALA762  ILE779  LEU786  VAL792 
 PHE793  MET794  SER795  GLU796  ALA797  LYS798  CYS799  TRP800  GLU811  SER814 

> <Gold.Protein.RotatedAtoms>
  152.3512  133.6182  159.5945 H   0  0  0  0  0  0  0  0  0  0  0  0  # atno 6907 bound_to 6896
  150.7539  133.9571  159.3513 H   0  0  0  0  0  0  0  0  0  0  0  0  # atno 6908 bound_to 6896
  151.7423  135.0852  160.0369 H   0  0  0  0  0  0  0  0  0  0  0  0  # atno 6909 bound_to 6896
  144.9010  140.6770  143.5085 H   0  0  0  0  0  0  0  0  0  0  0  0  # atno 7974 bound_to 7965
  155.6473  140.0708  157.2599 H   0  0  0  0  0  0  0  0  0  0  0  0  # atno 8008 bound_to 7997
  154.4170  140.1739  156.1686 H   0  0  0  0  0  0  0  0  0  0  0  0  # atno 8009 bound_to 7997
  155.9806  140.3354  155.6663 H   0  0  0  0  0  0  0  0  0  0  0  0  # atno 8010 bound_to 7997
  140.5804  143.2326  151.6354 H   0  0  0  0  0  0  0  0  0  0  0  0  # atno 10167 bound_to 10162
  157.4553  131.1069  150.9985 H   0  0  0  0  0  0  0  0  0  0  0  0  # atno 10718 bound_to 10713
  153.2172  135.4368  155.0447 H   0  0  0  0  0  0  0  0  0  0  0  0  # atno 10763 bound_to 10752
  154.8231  135.3347  154.6981 H   0  0  0  0  0  0  0  0  0  0  0  0  # atno 10764 bound_to 10752
  153.7415  135.7004  153.5022 H   0  0  0  0  0  0  0  0  0  0  0  0  # atno 10765 bound_to 10752
  141.1514  133.6724  156.6332 H   0  0  0  0  0  0  0  0  0  0  0  0  # atno 11005 bound_to 11000
  145.3617  139.1680  143.4380 LP  0  0  0  0  0  0  0  0  0  0  0  0  # atno 17320 bound_to 7965
  146.3108  140.3680  142.8671 LP  0  0  0  0  0  0  0  0  0  0  0  0  # atno 17321 bound_to 7965
  139.5166  144.3340  152.0801 LP  0  0  0  0  0  0  0  0  0  0  0  0  # atno 17342 bound_to 10162
  140.2489  144.4190  150.6229 LP  0  0  0  0  0  0  0  0  0  0  0  0  # atno 17343 bound_to 10162
  157.0800  130.5899  149.5419 LP  0  0  0  0  0  0  0  0  0  0  0  0  # atno 17370 bound_to 10713
  156.0005  130.5082  150.7643 LP  0  0  0  0  0  0  0  0  0  0  0  0  # atno 17371 bound_to 10713
  140.3451  134.7816  157.4426 LP  0  0  0  0  0  0  0  0  0  0  0  0  # atno 17394 bound_to 11000
  140.0906  134.5606  155.8448 LP  0  0  0  0  0  0  0  0  0  0  0  0  # atno 17395 bound_to 11000

$$$$
