AV-unprocessed.smi:1077|AV-procd|sdf|4701|dock2
  -GOLD-   22720 3223D 1   1.00000     0.00000
 Structure written by MMmdl.
 42 43  0  0  0  0  0  0  0  0  1 V2000
  148.3326  141.2999  153.8964 C   0  0  0  0  0  0  0  0  0  0  0  0
  147.8322  139.8490  153.9638 C   0  0  0  0  0  0  0  0  0  0  0  0
  148.8247  138.9327  154.4628 N   0  0  0  0  0  0  0  0  0  0  0  0
  150.1748  139.1732  154.3142 C   0  0  0  0  0  0  0  0  0  0  0  0
  151.1180  138.3233  154.7696 C   0  0  0  0  0  0  0  0  0  0  0  0
  152.5093  138.5897  154.6106 C   0  0  0  0  0  0  0  0  0  0  0  0
  153.6366  138.8027  154.4574 N   0  0  0  0  0  0  0  0  0  0  0  0
  150.7506  137.0838  155.4497 C   0  0  0  0  0  0  0  0  0  0  0  0
  151.5749  136.2818  155.8925 O   0  0  0  0  0  0  0  0  0  0  0  0
  149.3583  136.8482  155.5815 N   0  0  0  0  0  0  0  0  0  0  0  0
  148.9174  135.6177  156.2743 C   0  0  0  0  0  0  0  0  0  0  0  0
  149.1408  135.6657  157.7931 C   0  0  0  0  0  0  0  0  0  0  0  0
  150.1353  136.2151  158.2695 O   0  0  0  0  0  0  0  0  0  0  0  0
  148.1907  135.0870  158.5428 N   0  0  0  0  0  0  0  0  0  0  0  0
  148.1969  135.0021  160.0000 C   0  0  0  0  0  0  0  0  0  0  0  0
  147.0298  134.1238  160.4994 C   0  0  0  0  0  0  0  0  0  0  0  0
  146.9631  134.0929  162.0348 C   0  0  0  0  0  0  0  0  0  0  0  0
  146.8712  135.5114  162.6173 C   0  0  0  0  0  0  0  0  0  0  0  0
  148.0384  136.3847  162.1317 C   0  0  0  0  0  0  0  0  0  0  0  0
  148.1075  136.4199  160.5964 C   0  0  0  0  0  0  0  0  0  0  0  0
  148.3795  137.7542  155.1058 C   0  0  0  0  0  0  0  0  0  0  0  0
  147.1767  137.5212  155.2516 O   0  0  0  0  0  0  0  0  0  0  0  0
  147.5363  141.9667  153.5655 H   0  0  0  0  0  0  0  0  0  0  0  0
  149.1624  141.4074  153.1976 H   0  0  0  0  0  0  0  0  0  0  0  0
  148.6706  141.6455  154.8736 H   0  0  0  0  0  0  0  0  0  0  0  0
  146.9819  139.7683  154.6425 H   0  0  0  0  0  0  0  0  0  0  0  0
  147.4961  139.4739  152.9952 H   0  0  0  0  0  0  0  0  0  0  0  0
  150.4909  140.0777  153.8145 H   0  0  0  0  0  0  0  0  0  0  0  0
  147.8621  135.4107  156.0930 H   0  0  0  0  0  0  0  0  0  0  0  0
  149.4305  134.7455  155.8647 H   0  0  0  0  0  0  0  0  0  0  0  0
  147.4066  134.6645  158.0671 H   0  0  0  0  0  0  0  0  0  0  0  0
  149.1395  134.5561  160.3236 H   0  0  0  0  0  0  0  0  0  0  0  0
  146.0866  134.5054  160.1055 H   0  0  0  0  0  0  0  0  0  0  0  0
  147.1323  133.1062  160.1208 H   0  0  0  0  0  0  0  0  0  0  0  0
  146.1050  133.5023  162.3572 H   0  0  0  0  0  0  0  0  0  0  0  0
  147.8485  133.5924  162.4284 H   0  0  0  0  0  0  0  0  0  0  0  0
  145.9251  135.9672  162.3224 H   0  0  0  0  0  0  0  0  0  0  0  0
  146.8669  135.4672  163.7068 H   0  0  0  0  0  0  0  0  0  0  0  0
  147.9323  137.3973  162.5220 H   0  0  0  0  0  0  0  0  0  0  0  0
  148.9763  135.9962  162.5307 H   0  0  0  0  0  0  0  0  0  0  0  0
  148.9680  137.0122  160.2824 H   0  0  0  0  0  0  0  0  0  0  0  0
  147.2240  136.9293  160.2083 H   0  0  0  0  0  0  0  0  0  0  0  0
  1  2  1  0  0  0  0
  1 23  1  0  0  0  0
  1 24  1  0  0  0  0
  1 25  1  0  0  0  0
  2  3  1  0  0  0  0
  2 26  1  0  0  0  0
  2 27  1  0  0  0  0
  3 21  1  0  0  0  0
  3  4  1  0  0  0  0
  4  5  2  0  0  0  0
  4 28  1  0  0  0  0
  5  6  1  0  0  0  0
  5  8  1  0  0  0  0
  6  7  3  0  0  0  0
  8  9  2  0  0  0  0
  8 10  1  0  0  0  0
 10 11  1  0  0  0  0
 10 21  1  0  0  0  0
 11 12  1  0  0  0  0
 11 29  1  0  0  0  0
 11 30  1  0  0  0  0
 12 13  2  0  0  0  0
 12 14  1  0  0  0  0
 14 15  1  0  0  0  0
 14 31  1  0  0  0  0
 15 20  1  0  0  0  0
 15 16  1  0  0  0  0
 15 32  1  0  0  0  0
 16 17  1  0  0  0  0
 16 33  1  0  0  0  0
 16 34  1  0  0  0  0
 17 18  1  0  0  0  0
 17 35  1  0  0  0  0
 17 36  1  0  0  0  0
 18 19  1  0  0  0  0
 18 37  1  0  0  0  0
 18 38  1  0  0  0  0
 19 20  1  0  0  0  0
 19 39  1  0  0  0  0
 19 40  1  0  0  0  0
 20 41  1  0  0  0  0
 20 42  1  0  0  0  0
 21 22  2  0  0  0  0
M  END
> <s_m_source_file>
AV-unprocessed.smi

> <i_m_source_file_index>
1077

> <i_lp_mmshare_version>
43012

> <i_f3d_flags>
0

> <s_epik_input>
W0NIM11bQ0gyXW4xW2NIXWMoQyNOKWMoPU8pbihjMT1PKVtDSDJdQyg9TylbTkhdW0NIXTJbQ0gyXVtDSDJdW0NIMl1bQ0gyXVtDSDJdMg==

> <s_epik_cmdline>
J2VwaWtfcHl0aG9uJywgJy1waCcsICc3LjAnLCAnLXRuJywgJzgnLCAnLW1hJywgJzIwMCcsICctbWV0YWxfYmluZGluZycsICctaW1hZScsICc8aW5maWxlLm1hZT4nLCAnLW9tYWUnLCAnPG91dGZpbGUubWFlPic=

> <r_lp_tautomer_probability>
1

> <r_epik_Ionization_Penalty>
1.90876e-08

> <r_epik_Ionization_Penalty_Charging>
4.07395e-11

> <r_epik_Ionization_Penalty_Neutral>
1.90469e-08

> <r_epik_State_Penalty>
-0

> <r_epik_Charging_Adjusted_Penalty>
4.07395e-11

> <i_epik_Tot_Q>
0

> <i_epik_Tot_abs_Q>
0

> <r_epik_Metal_State_Penalty>
-0

> <b_epik_Metal_Only>
0

> <s_lp_Force_Field>
OPLS_2005

> <r_lp_Energy>
10.9803

> <b_lp_Chiralities_Consistent>
1

> <s_lp_Variant>
AV-unprocessed.smi:1077-1

> <Gold.Version>
5.8.1

> <Gold.Id.Protein>
6NUR|6NUR_protein|mol2

> <Gold.PLP.Fitness>
46.2372

> <Gold.PLP.PLP>
-38.6330

> <Gold.PLP.part.hbond>
-3.0000

> <Gold.PLP.part.metal>
0.0000

> <Gold.PLP.part.buried>
-4.8573

> <Gold.PLP.part.nonpolar>
-31.6382

> <Gold.PLP.part.repulsive>
0.1654

> <Gold.PLP.ligand.clash>
0.0000

> <Gold.PLP.ligand.torsion>
0.8799

> <Gold.PLP.Chemscore.Hbond>
2.9516

> <Gold.PLP.Chemscore.CHOScore>
0.1603

> <Gold.PLP.Chemscore.Metal>
0.0000

> <Gold.Chemscore.Hbonds>
donor molecule, donor type, donor heavy atom, donor atom, acceptor molecule, acceptor atom, score
      P1  H  6896  6908       L1    13  0.86
      P1  H  7997  8008       L1     7  0.80
      P1  H 10752 10763       L1     9  1.00
      L1  C     4    28       P1  7957  0.21

> <Gold.PLP.Chemscore.Internal.Correction>
0.0282

> <Gold.Rescore>
     Score         DG    S(hbond)    S(metal)    S(lipo)     H(rot)  DE(clash)    DE(int)     intcor
     17.80     -18.69       2.84        0.00      70.12       1.75       0.00       0.89       ----

> <Gold.Chemscore.Fitness>
17.7960

> <Gold.Chemscore.DG>
-18.6881

> <Gold.Chemscore.ZeroCoef>
-5.4800

> <Gold.Chemscore.Hbond>
2.8412

> <Gold.Chemscore.Metal>
0.0000

> <Gold.Chemscore.Lipo>
70.1172

> <Gold.Chemscore.Internal_Hbond>
0.0000

> <Gold.Chemscore.DEClash>
0.0000

> <Gold.Chemscore.DEInternal>
0.8921

> <Gold.Chemscore.Rot>
1.7520

> <Gold.Chemscore.Internal.Correction>
   9.000000E+99

> <Gold.Chemscore.Hbonds>
donor molecule, donor type, donor heavy atom, donor atom, acceptor molecule, acceptor atom, score
      P1  H  6896  6908       L1    13  0.27
      P1  H  7997  8008       L1     7  0.75
      P1  H 10752 10763       L1     9  0.99

> <Gold.Chemscore.Hbond.Weighted>
-9.4896

> <Gold.Chemscore.Metal.Weighted>
-0.0000

> <Gold.Chemscore.Lipo.Weighted>
-8.2037

> <Gold.Chemscore.Internal_Hbond.Weighted>
0.0000

> <Gold.Chemscore.DEClash.Weighted>
0.0000

> <Gold.Chemscore.DEInternal.Weighted>
0.8921

> <Gold.Chemscore.Rot.Weighted>
4.4852

> <Gold.Chemscore.Internal.Correction.Weighted>
   9.000000E+99

> <Gold.Protein.RotatedTorsions>
[ 6907 6896 6895 6894 ] final -176.01 input  -60.11 | X-H torsion
[ 7974 7965 7964 7962 ] final  154.14 input  175.53 | X-H torsion
[ 8008 7997 7996 7995 ] final    5.53 input   59.86 | X-H torsion
[ 10167 10162 10161 10158 ] final   49.81 input  -65.29 | X-H torsion
[ 10718 10713 10712 10709 ] final -178.09 input   66.30 | X-H torsion
[ 10763 10752 10751 10750 ] final   83.37 input  -60.55 | X-H torsion
[ 11005 11000 10999 10996 ] final  118.48 input  -57.11 | X-H torsion

> <Gold.Protein.ActiveResidues>
 VAL166  LYS551  ARG553  GLY616  TRP617  ASP618  TYR619  PRO620  LYS621  CYS622 
 ASP623  PHE694  ASN695  SER759  ASP760  ASP761  ALA762  ILE779  LEU786  VAL792 
 PHE793  MET794  SER795  GLU796  ALA797  LYS798  CYS799  TRP800  GLU811  SER814 

> <Gold.Protein.RotatedAtoms>
  151.5978  133.3359  159.3040 H   0  0  0  0  0  0  0  0  0  0  0  0  # atno 6907 bound_to 6896
  150.8224  134.7442  159.6795 H   0  0  0  0  0  0  0  0  0  0  0  0  # atno 6908 bound_to 6896
  152.4317  134.5771  159.9989 H   0  0  0  0  0  0  0  0  0  0  0  0  # atno 6909 bound_to 6896
  144.8108  139.6893  143.6142 H   0  0  0  0  0  0  0  0  0  0  0  0  # atno 7974 bound_to 7965
  154.7295  140.2727  155.6469 H   0  0  0  0  0  0  0  0  0  0  0  0  # atno 8008 bound_to 7997
  156.2846  140.2718  156.1916 H   0  0  0  0  0  0  0  0  0  0  0  0  # atno 8009 bound_to 7997
  155.0401  140.0371  157.2496 H   0  0  0  0  0  0  0  0  0  0  0  0  # atno 8010 bound_to 7997
  140.2789  144.3179  150.6269 H   0  0  0  0  0  0  0  0  0  0  0  0  # atno 10167 bound_to 10162
  156.8392  130.9680  151.3101 H   0  0  0  0  0  0  0  0  0  0  0  0  # atno 10718 bound_to 10713
  153.1285  135.4693  154.9311 H   0  0  0  0  0  0  0  0  0  0  0  0  # atno 10763 bound_to 10752
  154.7643  135.3140  154.8320 H   0  0  0  0  0  0  0  0  0  0  0  0  # atno 10764 bound_to 10752
  153.8868  135.6889  153.4817 H   0  0  0  0  0  0  0  0  0  0  0  0  # atno 10765 bound_to 10752
  139.9111  134.9620  156.7510 H   0  0  0  0  0  0  0  0  0  0  0  0  # atno 11005 bound_to 11000
  146.2407  139.5995  142.9494 LP  0  0  0  0  0  0  0  0  0  0  0  0  # atno 17320 bound_to 7965
  145.5328  141.0426  143.2373 LP  0  0  0  0  0  0  0  0  0  0  0  0  # atno 17321 bound_to 7965
  140.5828  143.2172  151.7397 LP  0  0  0  0  0  0  0  0  0  0  0  0  # atno 17342 bound_to 10162
  139.4968  144.4055  152.0136 LP  0  0  0  0  0  0  0  0  0  0  0  0  # atno 17343 bound_to 10162
  157.6365  130.8771  149.9368 LP  0  0  0  0  0  0  0  0  0  0  0  0  # atno 17370 bound_to 10713
  156.0890  130.3665  150.0431 LP  0  0  0  0  0  0  0  0  0  0  0  0  # atno 17371 bound_to 10713
  140.6774  133.9505  155.7890 LP  0  0  0  0  0  0  0  0  0  0  0  0  # atno 17394 bound_to 11000
  141.0535  134.0451  157.3753 LP  0  0  0  0  0  0  0  0  0  0  0  0  # atno 17395 bound_to 11000

$$$$
