AV-unprocessed.smi:2862|AV-procd|sdf|11009|dock10
  -GOLD-   2272015473D 1   1.00000     0.00000
 Structure written by MMmdl.
 52 54  0  0  0  0  0  0  0  0  1 V2000
  143.0072  137.5494  153.9583 C   0  0  0  0  0  0  0  0  0  0  0  0
  143.5197  137.2039  152.5495 C   0  0  1  0  0  0  0  0  0  0  0  0
  144.8307  137.8025  152.3036 N   0  0  0  0  0  0  0  0  0  0  0  0
  145.8330  137.9691  153.1865 C   0  0  0  0  0  0  0  0  0  0  0  0
  145.7578  137.6156  154.3622 O   0  0  0  0  0  0  0  0  0  0  0  0
  147.1305  138.6362  152.6958 C   0  0  0  0  0  0  0  0  0  0  0  0
  147.5783  139.7929  153.4943 N   0  0  0  0  0  0  0  0  0  0  0  0
  146.7679  140.9448  153.4495 C   0  0  0  0  0  0  0  0  0  0  0  0
  147.0684  142.0564  154.1377 C   0  0  0  0  0  0  0  0  0  0  0  0
  148.2630  142.0589  154.9453 C   0  0  0  0  0  0  0  0  0  0  0  0
  149.0329  140.9494  155.0229 C   0  0  0  0  0  0  0  0  0  0  0  0
  150.2882  140.9184  155.7855 C   0  0  0  0  0  0  0  0  0  0  0  0
  151.3408  140.4893  155.3085 O   0  0  0  0  0  0  0  0  0  0  0  0
  150.2311  141.4291  157.0498 N   0  0  0  0  0  0  0  0  0  0  0  0
  148.9816  141.5509  157.8204 C   0  0  0  0  0  0  0  0  0  0  0  0
  151.4401  141.7505  157.8400 C   0  0  2  0  0  0  0  0  0  0  0  0
  151.7341  140.6730  158.9032 C   0  0  0  0  0  0  0  0  0  0  0  0
  151.4493  143.1456  158.4519 C   0  0  0  0  0  0  0  0  0  0  0  0
  151.8736  144.3503  157.6469 C   0  0  0  0  0  0  0  0  0  0  0  0
  152.7492  143.8441  158.7712 C   0  0  0  0  0  0  0  0  0  0  0  0
  148.7189  139.7252  154.2506 C   0  0  0  0  0  0  0  0  0  0  0  0
  149.3966  138.6941  154.2806 O   0  0  0  0  0  0  0  0  0  0  0  0
  143.4364  135.7110  152.2696 C   0  0  0  0  0  0  0  0  0  0  0  0
  144.6461  134.8215  152.4244 C   0  0  0  0  0  0  0  0  0  0  0  0
  144.0905  135.1122  151.0477 C   0  0  0  0  0  0  0  0  0  0  0  0
  141.9750  137.2226  154.0874 H   0  0  0  0  0  0  0  0  0  0  0  0
  143.0344  138.6252  154.1345 H   0  0  0  0  0  0  0  0  0  0  0  0
  143.6020  137.0685  154.7351 H   0  0  0  0  0  0  0  0  0  0  0  0
  142.8518  137.6976  151.8427 H   0  0  0  0  0  0  0  0  0  0  0  0
  144.9946  138.1272  151.3617 H   0  0  0  0  0  0  0  0  0  0  0  0
  147.9149  137.8783  152.6548 H   0  0  0  0  0  0  0  0  0  0  0  0
  146.9798  138.9337  151.6572 H   0  0  0  0  0  0  0  0  0  0  0  0
  145.8876  140.8635  152.8283 H   0  0  0  0  0  0  0  0  0  0  0  0
  146.4301  142.9264  154.0912 H   0  0  0  0  0  0  0  0  0  0  0  0
  148.5380  142.9604  155.4740 H   0  0  0  0  0  0  0  0  0  0  0  0
  148.2087  140.8562  157.4891 H   0  0  0  0  0  0  0  0  0  0  0  0
  148.5884  142.5652  157.7488 H   0  0  0  0  0  0  0  0  0  0  0  0
  149.1371  141.3303  158.8769 H   0  0  0  0  0  0  0  0  0  0  0  0
  152.2987  141.7066  157.1677 H   0  0  0  0  0  0  0  0  0  0  0  0
  152.7143  140.8328  159.3531 H   0  0  0  0  0  0  0  0  0  0  0  0
  151.7377  139.6761  158.4614 H   0  0  0  0  0  0  0  0  0  0  0  0
  151.0061  140.6775  159.7140 H   0  0  0  0  0  0  0  0  0  0  0  0
  150.6520  143.3184  159.1717 H   0  0  0  0  0  0  0  0  0  0  0  0
  152.2212  144.1863  156.6291 H   0  0  0  0  0  0  0  0  0  0  0  0
  151.3292  145.2782  157.8098 H   0  0  0  0  0  0  0  0  0  0  0  0
  152.7896  144.4349  159.6840 H   0  0  0  0  0  0  0  0  0  0  0  0
  153.6762  143.3439  158.4980 H   0  0  0  0  0  0  0  0  0  0  0  0
  142.4831  135.2643  152.5458 H   0  0  0  0  0  0  0  0  0  0  0  0
  145.5897  135.2912  152.6948 H   0  0  0  0  0  0  0  0  0  0  0  0
  144.4865  133.8257  152.8332 H   0  0  0  0  0  0  0  0  0  0  0  0
  143.5630  134.3081  150.5384 H   0  0  0  0  0  0  0  0  0  0  0  0
  144.6661  135.7741  150.4036 H   0  0  0  0  0  0  0  0  0  0  0  0
  1  2  1  0  0  0  0
  1 26  1  0  0  0  0
  1 27  1  0  0  0  0
  1 28  1  0  0  0  0
  2  3  1  0  0  0  0
  2 23  1  0  0  0  0
  2 29  1  0  0  0  0
  3  4  1  0  0  0  0
  3 30  1  0  0  0  0
  4  5  2  0  0  0  0
  4  6  1  0  0  0  0
  6  7  1  0  0  0  0
  6 31  1  0  0  0  0
  6 32  1  0  0  0  0
  7 21  1  0  0  0  0
  7  8  1  0  0  0  0
  8  9  2  0  0  0  0
  8 33  1  0  0  0  0
  9 10  1  0  0  0  0
  9 34  1  0  0  0  0
 10 11  2  0  0  0  0
 10 35  1  0  0  0  0
 11 12  1  0  0  0  0
 11 21  1  0  0  0  0
 12 13  2  0  0  0  0
 12 14  1  0  0  0  0
 14 15  1  0  0  0  0
 14 16  1  0  0  0  0
 15 36  1  0  0  0  0
 15 37  1  0  0  0  0
 15 38  1  0  0  0  0
 16 17  1  0  0  0  0
 16 18  1  0  0  0  0
 16 39  1  0  0  0  0
 17 40  1  0  0  0  0
 17 41  1  0  0  0  0
 17 42  1  0  0  0  0
 18 20  1  0  0  0  0
 18 19  1  0  0  0  0
 18 43  1  0  0  0  0
 19 20  1  0  0  0  0
 19 44  1  0  0  0  0
 19 45  1  0  0  0  0
 20 46  1  0  0  0  0
 20 47  1  0  0  0  0
 21 22  2  0  0  0  0
 23 25  1  0  0  0  0
 23 24  1  0  0  0  0
 23 48  1  0  0  0  0
 24 25  1  0  0  0  0
 24 49  1  0  0  0  0
 24 50  1  0  0  0  0
 25 51  1  0  0  0  0
 25 52  1  0  0  0  0
M  END
> <s_m_source_file>
AV-unprocessed.smi

> <i_m_source_file_index>
2862

> <i_lp_mmshare_version>
43012

> <i_f3d_flags>
0

> <s_epik_input>
W0NIMl0xW0NIMl1bQ0hdMVtDQEhdKFtDSDNdKVtOSF1DKD1PKVtDSDJdbjJbY0hdW2NIXVtjSF1jKGMyPU8pQyg9TylOKFtDSDNdKVtDQEhdKFtDSDNdKVtDSF0zW0NIMl1bQ0gyXTM=

> <s_epik_cmdline>
J2VwaWtfcHl0aG9uJywgJy1waCcsICc3LjAnLCAnLXRuJywgJzgnLCAnLW1hJywgJzIwMCcsICctbWV0YWxfYmluZGluZycsICctaW1hZScsICc8aW5maWxlLm1hZT4nLCAnLW9tYWUnLCAnPG91dGZpbGUubWFlPic=

> <r_lp_tautomer_probability>
1

> <r_epik_Ionization_Penalty>
4.00841e-08

> <r_epik_Ionization_Penalty_Charging>
2.07773e-08

> <r_epik_Ionization_Penalty_Neutral>
1.93069e-08

> <r_epik_State_Penalty>
-0

> <r_epik_Charging_Adjusted_Penalty>
2.07773e-08

> <i_epik_Tot_Q>
0

> <i_epik_Tot_abs_Q>
0

> <r_epik_Metal_State_Penalty>
-0

> <b_epik_Metal_Only>
0

> <s_lp_Force_Field>
OPLS_2005

> <r_lp_Energy>
60.0482

> <b_lp_Chiralities_Consistent>
1

> <s_lp_Variant>
AV-unprocessed.smi:2862-2

> <Gold.Version>
5.8.1

> <Gold.Id.Protein>
6NUR|6NUR_protein|mol2

> <Gold.PLP.Fitness>
54.4314

> <Gold.PLP.PLP>
-47.5530

> <Gold.PLP.part.hbond>
-3.0000

> <Gold.PLP.part.metal>
0.0000

> <Gold.PLP.part.buried>
0.6194

> <Gold.PLP.part.nonpolar>
-44.9268

> <Gold.PLP.part.repulsive>
0.3471

> <Gold.PLP.ligand.clash>
0.0000

> <Gold.PLP.ligand.torsion>
2.6874

> <Gold.PLP.Chemscore.Hbond>
1.6640

> <Gold.PLP.Chemscore.CHOScore>
1.0000

> <Gold.PLP.Chemscore.Metal>
0.0000

> <Gold.Chemscore.Hbonds>
donor molecule, donor type, donor heavy atom, donor atom, acceptor molecule, acceptor atom, score
      L1  H     3    30       P1 10171  0.72
      P1  H  7989  7998       L1    13  0.90
      L1  C     8    33       P1 10175  1.00

> <Gold.PLP.Chemscore.Internal.Correction>
4.2612

> <Gold.Rescore>
     Score         DG    S(hbond)    S(metal)    S(lipo)     H(rot)  DE(clash)    DE(int)     intcor
     12.72     -19.47       1.87        0.00     104.03       1.73       0.21       6.54       ----

> <Gold.Chemscore.Fitness>
12.7195

> <Gold.Chemscore.DG>
-19.4666

> <Gold.Chemscore.ZeroCoef>
-5.4800

> <Gold.Chemscore.Hbond>
1.8731

> <Gold.Chemscore.Metal>
0.0000

> <Gold.Chemscore.Lipo>
104.0309

> <Gold.Chemscore.Internal_Hbond>
0.0000

> <Gold.Chemscore.DEClash>
0.2050

> <Gold.Chemscore.DEInternal>
6.5421

> <Gold.Chemscore.Rot>
1.7348

> <Gold.Chemscore.Internal.Correction>
   9.000000E+99

> <Gold.Chemscore.Hbonds>
donor molecule, donor type, donor heavy atom, donor atom, acceptor molecule, acceptor atom, score
      L1  H     3    30       P1 10171  0.71
      P1  H  7989  7998       L1    13  0.82

> <Gold.Chemscore.Hbond.Weighted>
-6.2561

> <Gold.Chemscore.Metal.Weighted>
-0.0000

> <Gold.Chemscore.Lipo.Weighted>
-12.1716

> <Gold.Chemscore.Internal_Hbond.Weighted>
0.0000

> <Gold.Chemscore.DEClash.Weighted>
0.2050

> <Gold.Chemscore.DEInternal.Weighted>
6.5421

> <Gold.Chemscore.Rot.Weighted>
4.4412

> <Gold.Chemscore.Internal.Correction.Weighted>
   9.000000E+99

> <Gold.Protein.RotatedTorsions>
[ 6907 6896 6895 6894 ] final -130.46 input  -60.11 | X-H torsion
[ 7974 7965 7964 7962 ] final   34.12 input  175.53 | X-H torsion
[ 8008 7997 7996 7995 ] final  -36.53 input   59.86 | X-H torsion
[ 10167 10162 10161 10158 ] final  179.94 input  -65.29 | X-H torsion
[ 10718 10713 10712 10709 ] final    5.72 input   66.30 | X-H torsion
[ 10763 10752 10751 10750 ] final   50.25 input  -60.55 | X-H torsion
[ 11005 11000 10999 10996 ] final  139.15 input  -57.11 | X-H torsion

> <Gold.Protein.ActiveResidues>
 VAL166  LYS551  ARG553  GLY616  TRP617  ASP618  TYR619  PRO620  LYS621  CYS622 
 ASP623  PHE694  ASN695  SER759  ASP760  ASP761  ALA762  ILE779  LEU786  VAL792 
 PHE793  MET794  SER795  GLU796  ALA797  LYS798  CYS799  TRP800  GLU811  SER814 

> <Gold.Protein.RotatedAtoms>
  150.9400  133.6667  159.2792 H   0  0  0  0  0  0  0  0  0  0  0  0  # atno 6907 bound_to 6896
  151.4060  135.0977  159.9580 H   0  0  0  0  0  0  0  0  0  0  0  0  # atno 6908 bound_to 6896
  152.5065  133.8884  159.7436 H   0  0  0  0  0  0  0  0  0  0  0  0  # atno 6909 bound_to 6896
  146.1374  139.6309  142.9186 H   0  0  0  0  0  0  0  0  0  0  0  0  # atno 7974 bound_to 7965
  154.4071  140.1628  156.2390 H   0  0  0  0  0  0  0  0  0  0  0  0  # atno 8008 bound_to 7997
  155.9218  140.3420  155.6156 H   0  0  0  0  0  0  0  0  0  0  0  0  # atno 8009 bound_to 7997
  155.7213  140.0769  157.2320 H   0  0  0  0  0  0  0  0  0  0  0  0  # atno 8010 bound_to 7997
  139.5358  144.2501  152.0791 H   0  0  0  0  0  0  0  0  0  0  0  0  # atno 10167 bound_to 10162
  156.9116  130.5758  149.5647 H   0  0  0  0  0  0  0  0  0  0  0  0  # atno 10718 bound_to 10713
  152.9785  135.5885  154.4222 H   0  0  0  0  0  0  0  0  0  0  0  0  # atno 10763 bound_to 10752
  154.3845  135.2767  155.2194 H   0  0  0  0  0  0  0  0  0  0  0  0  # atno 10764 bound_to 10752
  154.4093  135.6085  153.5997 H   0  0  0  0  0  0  0  0  0  0  0  0  # atno 10765 bound_to 10752
  140.0234  134.9386  157.0520 H   0  0  0  0  0  0  0  0  0  0  0  0  # atno 11005 bound_to 11000
  145.5125  141.0435  143.2480 LP  0  0  0  0  0  0  0  0  0  0  0  0  # atno 17320 bound_to 7965
  144.7755  139.6640  143.7177 LP  0  0  0  0  0  0  0  0  0  0  0  0  # atno 17321 bound_to 7965
  140.1972  144.4694  150.6449 LP  0  0  0  0  0  0  0  0  0  0  0  0  # atno 17342 bound_to 10162
  140.6564  143.2239  151.5959 LP  0  0  0  0  0  0  0  0  0  0  0  0  # atno 17343 bound_to 10162
  156.0533  130.5599  150.9038 LP  0  0  0  0  0  0  0  0  0  0  0  0  # atno 17370 bound_to 10713
  157.5964  131.0943  150.9034 LP  0  0  0  0  0  0  0  0  0  0  0  0  # atno 17371 bound_to 10713
  140.4348  134.1743  155.7170 LP  0  0  0  0  0  0  0  0  0  0  0  0  # atno 17394 bound_to 11000
  141.1788  133.8458  157.1330 LP  0  0  0  0  0  0  0  0  0  0  0  0  # atno 17395 bound_to 11000

$$$$
