AV-unprocessed.smi:1726|AV-procd|sdf|6958|dock4
  -GOLD-   22720 8173D 1   1.00000     0.00000
 Structure written by MMmdl.
 43 44  0  0  0  0  0  0  0  0  2 V2000
  144.6542  132.8610  150.2077 C   0  0  0  0  0  0  0  0  0  0  0  0
  144.7312  132.4234  151.6777 C   0  0  0  0  0  0  0  0  0  0  0  0
  143.9334  133.3012  152.5696 N   0  3  2  0  0  0  0  0  0  0  0  0
  142.5987  133.6258  152.0022 C   0  0  0  0  0  0  0  0  0  0  0  0
  141.7389  134.4064  153.0120 C   0  0  0  0  0  0  0  0  0  0  0  0
  142.4651  135.6658  153.5142 C   0  0  0  0  0  0  0  0  0  0  0  0
  143.8644  135.3164  154.0518 C   0  0  1  0  0  0  0  0  0  0  0  0
  143.7435  134.5562  155.2965 N   0  0  0  0  0  0  0  0  0  0  0  0
  144.1152  134.9880  156.5099 C   0  0  0  0  0  0  0  0  0  0  0  0
  144.6147  136.0953  156.7062 O   0  0  0  0  0  0  0  0  0  0  0  0
  143.8930  134.0452  157.4435 N   0  0  0  0  0  0  0  0  0  0  0  0
  144.1358  134.0899  158.8266 C   0  0  0  0  0  0  0  0  0  0  0  0
  145.3438  134.3405  159.3961 C   0  0  0  0  0  0  0  0  0  0  0  0
  145.5224  134.3844  160.8378 C   0  0  0  0  0  0  0  0  0  0  0  0
  146.8941  134.5814  161.4641 C   0  0  0  0  0  0  0  0  0  0  0  0
  147.8280  134.7779  160.5321 F   0  0  0  0  0  0  0  0  0  0  0  0
  146.8975  135.6297  162.2880 F   0  0  0  0  0  0  0  0  0  0  0  0
  147.2300  133.5004  162.1669 F   0  0  0  0  0  0  0  0  0  0  0  0
  144.4267  134.1575  161.5856 C   0  0  0  0  0  0  0  0  0  0  0  0
  143.1771  133.9216  161.0081 N   0  0  0  0  0  0  0  0  0  0  0  0
  142.9530  133.8721  159.6759 C   0  0  0  0  0  0  0  0  0  0  0  0
  141.8218  133.6544  159.2430 O   0  0  0  0  0  0  0  0  0  0  0  0
  144.6551  134.5356  152.9784 C   0  0  0  0  0  0  0  0  0  0  0  0
  142.4008  133.7757  161.6374 H   0  0  0  0  0  0  0  0  0  0  0  0
  145.3220  132.2573  149.5930 H   0  0  0  0  0  0  0  0  0  0  0  0
  144.9521  133.9036  150.0912 H   0  0  0  0  0  0  0  0  0  0  0  0
  143.6510  132.7505  149.7970 H   0  0  0  0  0  0  0  0  0  0  0  0
  144.4152  131.3853  151.7911 H   0  0  0  0  0  0  0  0  0  0  0  0
  145.7788  132.4616  151.9790 H   0  0  0  0  0  0  0  0  0  0  0  0
  142.7234  134.2050  151.0857 H   0  0  0  0  0  0  0  0  0  0  0  0
  142.0790  132.7071  151.7278 H   0  0  0  0  0  0  0  0  0  0  0  0
  140.7890  134.6845  152.5541 H   0  0  0  0  0  0  0  0  0  0  0  0
  141.4924  133.7610  153.8561 H   0  0  0  0  0  0  0  0  0  0  0  0
  142.5615  136.3766  152.6923 H   0  0  0  0  0  0  0  0  0  0  0  0
  141.8722  136.1649  154.2819 H   0  0  0  0  0  0  0  0  0  0  0  0
  144.3889  136.2477  154.2733 H   0  0  0  0  0  0  0  0  0  0  0  0
  143.3350  133.6352  155.2280 H   0  0  0  0  0  0  0  0  0  0  0  0
  143.5380  133.1598  157.1125 H   0  0  0  0  0  0  0  0  0  0  0  0
  146.2129  134.5394  158.7905 H   0  0  0  0  0  0  0  0  0  0  0  0
  144.4218  134.1326  162.6655 H   0  0  0  0  0  0  0  0  0  0  0  0
  145.6460  134.2906  153.3584 H   0  0  0  0  0  0  0  0  0  0  0  0
  144.8153  135.1663  152.1025 H   0  0  0  0  0  0  0  0  0  0  0  0
  143.7607  132.7690  153.4103 H   0  0  0  0  0  0  0  0  0  0  0  0
  1  2  1  0  0  0  0
  1 25  1  0  0  0  0
  1 26  1  0  0  0  0
  1 27  1  0  0  0  0
  2  3  1  0  0  0  0
  2 28  1  0  0  0  0
  2 29  1  0  0  0  0
  3 23  1  0  0  0  0
  3  4  1  0  0  0  0
  3 43  1  0  0  0  0
  4  5  1  0  0  0  0
  4 30  1  0  0  0  0
  4 31  1  0  0  0  0
  5  6  1  0  0  0  0
  5 32  1  0  0  0  0
  5 33  1  0  0  0  0
  6  7  1  0  0  0  0
  6 34  1  0  0  0  0
  6 35  1  0  0  0  0
  7  8  1  0  0  0  0
  7 23  1  0  0  0  0
  7 36  1  0  0  0  0
  8  9  1  0  0  0  0
  8 37  1  0  0  0  0
  9 10  2  0  0  0  0
  9 11  1  0  0  0  0
 11 12  1  0  0  0  0
 11 38  1  0  0  0  0
 12 21  1  0  0  0  0
 12 13  2  0  0  0  0
 13 14  1  0  0  0  0
 13 39  1  0  0  0  0
 14 15  1  0  0  0  0
 14 19  2  0  0  0  0
 15 16  1  0  0  0  0
 15 17  1  0  0  0  0
 15 18  1  0  0  0  0
 19 20  1  0  0  0  0
 19 40  1  0  0  0  0
 20 24  1  0  0  0  0
 20 21  1  0  0  0  0
 21 22  2  0  0  0  0
 23 41  1  0  0  0  0
 23 42  1  0  0  0  0
M  CHG  1   3   1
M  END
> <s_m_source_file>
AV-unprocessed.smi

> <i_m_source_file_index>
1726

> <i_lp_mmshare_version>
43012

> <i_f3d_flags>
0

> <s_epik_input>
W0NIM11bQ0gyXU4xW0NIMl1bQ0gyXVtDSDJdW0NASF0oW0NIMl0xKVtOSF1DKD1PKVtOSF1jMltjSF1jKEMoRikoRilGKVtjSF1bbkhdYzI9Tw==

> <s_epik_cmdline>
J2VwaWtfcHl0aG9uJywgJy1waCcsICc3LjAnLCAnLXRuJywgJzgnLCAnLW1hJywgJzIwMCcsICctbWV0YWxfYmluZGluZycsICctaW1hZScsICc8aW5maWxlLm1hZT4nLCAnLW9tYWUnLCAnPG91dGZpbGUubWFlPic=

> <r_lp_tautomer_probability>
1

> <r_epik_Ionization_Penalty>
0.00745721

> <r_epik_Ionization_Penalty_Charging>
0.00743804

> <r_epik_Ionization_Penalty_Neutral>
1.91703e-05

> <r_epik_State_Penalty>
-0

> <r_epik_Charging_Adjusted_Penalty>
0.00743804

> <i_epik_Tot_Q>
1

> <i_epik_Tot_abs_Q>
1

> <r_epik_Metal_State_Penalty>
0.37929

> <b_epik_Metal_Only>
0

> <s_lp_Force_Field>
OPLS_2005

> <r_lp_Energy>
34.544

> <b_lp_Chiralities_Consistent>
1

> <s_lp_Variant>
AV-unprocessed.smi:1726-2

> <Gold.Version>
5.8.1

> <Gold.Id.Protein>
6NUR|6NUR_protein|mol2

> <Gold.PLP.Fitness>
39.8935

> <Gold.PLP.PLP>
-29.4139

> <Gold.PLP.part.hbond>
-3.0000

> <Gold.PLP.part.metal>
0.0000

> <Gold.PLP.part.buried>
-3.6922

> <Gold.PLP.part.nonpolar>
-22.9603

> <Gold.PLP.part.repulsive>
0.0044

> <Gold.PLP.ligand.clash>
0.0000

> <Gold.PLP.ligand.torsion>
0.7851

> <Gold.PLP.Chemscore.Hbond>
4.0000

> <Gold.PLP.Chemscore.CHOScore>
0.0000

> <Gold.PLP.Chemscore.Metal>
0.0000

> <Gold.Chemscore.Hbonds>
donor molecule, donor type, donor heavy atom, donor atom, acceptor molecule, acceptor atom, score
      L1  H     3    43       P1 10957  2.00
      L1  H     8    37       P1 10957  1.00
      P1  H 11000 11005       L1    22  1.00

> <Gold.PLP.Chemscore.Internal.Correction>
0.0497

> <Gold.Rescore>
     Score         DG    S(hbond)    S(metal)    S(lipo)     H(rot)  DE(clash)    DE(int)     intcor
     16.01     -16.91       2.37        0.00      58.33       1.29       0.27       0.64       ----

> <Gold.Chemscore.Fitness>
16.0076

> <Gold.Chemscore.DG>
-16.9093

> <Gold.Chemscore.ZeroCoef>
-5.4800

> <Gold.Chemscore.Hbond>
2.3661

> <Gold.Chemscore.Metal>
0.0000

> <Gold.Chemscore.Lipo>
58.3317

> <Gold.Chemscore.Internal_Hbond>
0.0000

> <Gold.Chemscore.DEClash>
0.2655

> <Gold.Chemscore.DEInternal>
0.6362

> <Gold.Chemscore.Rot>
1.2884

> <Gold.Chemscore.Internal.Correction>
   9.000000E+99

> <Gold.Chemscore.Hbonds>
donor molecule, donor type, donor heavy atom, donor atom, acceptor molecule, acceptor atom, score
      L1  H     3    43       P1 10957  0.52
      L1  H     8    37       P1 10957  0.93
      P1  H 11000 11005       L1    22  0.93

> <Gold.Chemscore.Hbond.Weighted>
-7.9028

> <Gold.Chemscore.Metal.Weighted>
-0.0000

> <Gold.Chemscore.Lipo.Weighted>
-6.8248

> <Gold.Chemscore.Internal_Hbond.Weighted>
0.0000

> <Gold.Chemscore.DEClash.Weighted>
0.2655

> <Gold.Chemscore.DEInternal.Weighted>
0.6362

> <Gold.Chemscore.Rot.Weighted>
3.2983

> <Gold.Chemscore.Internal.Correction.Weighted>
   9.000000E+99

> <Gold.Protein.RotatedTorsions>
[ 6907 6896 6895 6894 ] final -146.43 input  -60.11 | X-H torsion
[ 7974 7965 7964 7962 ] final   11.64 input  175.53 | X-H torsion
[ 8008 7997 7996 7995 ] final -168.43 input   59.86 | X-H torsion
[ 10167 10162 10161 10158 ] final   32.58 input  -65.29 | X-H torsion
[ 10718 10713 10712 10709 ] final   72.94 input   66.30 | X-H torsion
[ 10763 10752 10751 10750 ] final -105.30 input  -60.55 | X-H torsion
[ 11005 11000 10999 10996 ] final -136.91 input  -57.11 | X-H torsion

> <Gold.Protein.ActiveResidues>
 VAL166  LYS551  ARG553  GLY616  TRP617  ASP618  TYR619  PRO620  LYS621  CYS622 
 ASP623  PHE694  ASN695  SER759  ASP760  ASP761  ALA762  ILE779  LEU786  VAL792 
 PHE793  MET794  SER795  GLU796  ALA797  LYS798  CYS799  TRP800  GLU811  SER814 

> <Gold.Protein.RotatedAtoms>
  151.1416  133.4967  159.2596 H   0  0  0  0  0  0  0  0  0  0  0  0  # atno 6907 bound_to 6896
  151.1649  135.0290  159.8736 H   0  0  0  0  0  0  0  0  0  0  0  0  # atno 6908 bound_to 6896
  152.5462  134.1286  159.8482 H   0  0  0  0  0  0  0  0  0  0  0  0  # atno 6909 bound_to 6896
  146.2367  139.9455  142.8477 H   0  0  0  0  0  0  0  0  0  0  0  0  # atno 7974 bound_to 7965
  155.8913  140.1025  157.1416 H   0  0  0  0  0  0  0  0  0  0  0  0  # atno 8008 bound_to 7997
  154.4015  140.1310  156.4383 H   0  0  0  0  0  0  0  0  0  0  0  0  # atno 8009 bound_to 7997
  155.7530  140.3464  155.5162 H   0  0  0  0  0  0  0  0  0  0  0  0  # atno 8010 bound_to 7997
  140.4486  144.1082  150.6187 H   0  0  0  0  0  0  0  0  0  0  0  0  # atno 10167 bound_to 10162
  157.6525  130.9604  150.0999 H   0  0  0  0  0  0  0  0  0  0  0  0  # atno 10718 bound_to 10713
  154.7937  135.4754  154.0112 H   0  0  0  0  0  0  0  0  0  0  0  0  # atno 10763 bound_to 10752
  153.1670  135.6818  153.8668 H   0  0  0  0  0  0  0  0  0  0  0  0  # atno 10764 bound_to 10752
  153.8263  135.3197  155.3392 H   0  0  0  0  0  0  0  0  0  0  0  0  # atno 10765 bound_to 10752
  140.8761  134.1990  157.4621 H   0  0  0  0  0  0  0  0  0  0  0  0  # atno 11005 bound_to 11000
  145.1912  140.9812  143.4210 LP  0  0  0  0  0  0  0  0  0  0  0  0  # atno 17320 bound_to 7965
  144.9856  139.3740  143.6240 LP  0  0  0  0  0  0  0  0  0  0  0  0  # atno 17321 bound_to 7965
  140.4234  143.2601  151.9687 LP  0  0  0  0  0  0  0  0  0  0  0  0  # atno 17342 bound_to 10162
  139.4795  144.5810  151.7932 LP  0  0  0  0  0  0  0  0  0  0  0  0  # atno 17343 bound_to 10162
  156.1925  130.3655  149.8892 LP  0  0  0  0  0  0  0  0  0  0  0  0  # atno 17370 bound_to 10713
  156.6816  130.8860  151.3576 LP  0  0  0  0  0  0  0  0  0  0  0  0  # atno 17371 bound_to 10713
  139.8715  134.9796  156.5043 LP  0  0  0  0  0  0  0  0  0  0  0  0  # atno 17394 bound_to 11000
  140.8517  133.8127  155.9175 LP  0  0  0  0  0  0  0  0  0  0  0  0  # atno 17395 bound_to 11000

$$$$
