AV-unprocessed.smi:533|AV-procd|sdf|2855|dock8
  -GOLD-   2262023343D 1   1.00000     0.00000
 Structure written by MMmdl.
 35 36  0  0  0  0  0  0  0  0  2 V2000
  151.9539  145.0218  159.2268 C   0  0  0  0  0  0  0  0  0  0  0  0
  150.5261  144.5118  159.0131 C   0  0  0  0  0  0  0  0  0  0  0  0
  150.4375  143.6411  157.8572 N   0  0  0  0  0  0  0  0  0  0  0  0
  150.9515  142.3738  157.6114 C   0  0  0  0  0  0  0  0  0  0  0  0
  151.6870  141.6772  158.4789 N   0  0  0  0  0  0  0  0  0  0  0  0
  151.9568  140.5120  157.7748 C   0  0  0  0  0  0  0  0  0  0  0  0
  151.3944  140.5367  156.5362 C   0  0  0  0  0  0  0  0  0  0  0  0
  151.5231  139.4387  155.5535 C   0  0  0  0  0  0  0  0  0  0  0  0
  151.0044  139.5146  154.4417 O   0  0  0  0  0  0  0  0  0  0  0  0
  152.2636  138.3937  156.0427 N   0  5  0  0  0  0  0  0  0  0  0  0
  152.8467  138.3246  157.2902 C   0  0  0  0  0  0  0  0  0  0  0  0
  153.4966  137.3403  157.6428 O   0  0  0  0  0  0  0  0  0  0  0  0
  152.7056  139.3706  158.1666 N   0  0  0  0  0  0  0  0  0  0  0  0
  153.2943  139.3745  159.5095 C   0  0  0  0  0  0  0  0  0  0  0  0
  150.7235  141.7585  156.4247 N   0  0  0  0  0  0  0  0  0  0  0  0
  149.9545  142.2815  155.2979 C   0  0  0  0  0  0  0  0  0  0  0  0
  148.7416  141.4005  154.9634 C   0  0  0  0  0  0  0  0  0  0  0  0
  148.5081  141.4043  153.5648 O   0  0  0  0  0  0  0  0  0  0  0  0
  147.2689  140.8151  153.2156 C   0  0  0  0  0  0  0  0  0  0  0  0
  152.0039  145.6757  160.0977 H   0  0  0  0  0  0  0  0  0  0  0  0
  152.3025  145.5907  158.3644 H   0  0  0  0  0  0  0  0  0  0  0  0
  152.6480  144.1968  159.3903 H   0  0  0  0  0  0  0  0  0  0  0  0
  150.1866  143.9643  159.8929 H   0  0  0  0  0  0  0  0  0  0  0  0
  149.8443  145.3515  158.8750 H   0  0  0  0  0  0  0  0  0  0  0  0
  149.9106  144.0342  157.0912 H   0  0  0  0  0  0  0  0  0  0  0  0
  153.8430  138.4675  159.7642 H   0  0  0  0  0  0  0  0  0  0  0  0
  152.5108  139.4991  160.2576 H   0  0  0  0  0  0  0  0  0  0  0  0
  153.9867  140.2109  159.6076 H   0  0  0  0  0  0  0  0  0  0  0  0
  149.6416  143.3024  155.5087 H   0  0  0  0  0  0  0  0  0  0  0  0
  150.6073  142.3572  154.4281 H   0  0  0  0  0  0  0  0  0  0  0  0
  148.9211  140.3816  155.3091 H   0  0  0  0  0  0  0  0  0  0  0  0
  147.8584  141.7701  155.4870 H   0  0  0  0  0  0  0  0  0  0  0  0
  147.1444  140.8416  152.1332 H   0  0  0  0  0  0  0  0  0  0  0  0
  146.4349  141.3563  153.6639 H   0  0  0  0  0  0  0  0  0  0  0  0
  147.2237  139.7730  153.5345 H   0  0  0  0  0  0  0  0  0  0  0  0
  1  2  1  0  0  0  0
  1 20  1  0  0  0  0
  1 21  1  0  0  0  0
  1 22  1  0  0  0  0
  2  3  1  0  0  0  0
  2 23  1  0  0  0  0
  2 24  1  0  0  0  0
  3  4  1  0  0  0  0
  3 25  1  0  0  0  0
  4 15  1  0  0  0  0
  4  5  2  0  0  0  0
  5  6  1  0  0  0  0
  6 13  1  0  0  0  0
  6  7  2  0  0  0  0
  7  8  1  0  0  0  0
  7 15  1  0  0  0  0
  8  9  2  0  0  0  0
  8 10  1  0  0  0  0
 10 11  1  0  0  0  0
 11 12  2  0  0  0  0
 11 13  1  0  0  0  0
 13 14  1  0  0  0  0
 14 26  1  0  0  0  0
 14 27  1  0  0  0  0
 14 28  1  0  0  0  0
 15 16  1  0  0  0  0
 16 17  1  0  0  0  0
 16 29  1  0  0  0  0
 16 30  1  0  0  0  0
 17 18  1  0  0  0  0
 17 31  1  0  0  0  0
 17 32  1  0  0  0  0
 18 19  1  0  0  0  0
 19 33  1  0  0  0  0
 19 34  1  0  0  0  0
 19 35  1  0  0  0  0
M  CHG  1  10  -1
M  END
> <s_m_source_file>
AV-unprocessed.smi

> <i_m_source_file_index>
533

> <i_lp_mmshare_version>
43012

> <i_f3d_flags>
0

> <s_epik_input>
W0NIM11bQ0gyXVtOSF1jKG4xKW4oW0NIMl1bQ0gyXU9bQ0gzXSljKGMxMiljKD1PKVtuSF1jKD1PKW4yW0NIM10=

> <s_epik_cmdline>
J2VwaWtfcHl0aG9uJywgJy1waCcsICc3LjAnLCAnLXRuJywgJzgnLCAnLW1hJywgJzIwMCcsICctbWV0YWxfYmluZGluZycsICctaW1hZScsICc8aW5maWxlLm1hZT4nLCAnLW9tYWUnLCAnPG91dGZpbGUubWFlPic=

> <r_lp_tautomer_probability>
1

> <r_epik_Ionization_Penalty>
5.85583

> <r_epik_Ionization_Penalty_Charging>
1.37787e-08

> <r_epik_Ionization_Penalty_Neutral>
5.85583

> <r_epik_State_Penalty>
5.8557

> <r_epik_Charging_Adjusted_Penalty>
5.8557

> <i_epik_Tot_Q>
-1

> <i_epik_Tot_abs_Q>
1

> <r_epik_Metal_State_Penalty>
1.82051

> <b_epik_Metal_Only>
1

> <s_lp_Force_Field>
OPLS_2005

> <r_lp_Energy>
24.2596

> <b_lp_Chiralities_Consistent>
1

> <s_lp_Variant>
AV-unprocessed.smi:533-2

> <Gold.Version>
5.8.1

> <Gold.Id.Protein>
6NUR|6NUR_protein|mol2

> <Gold.PLP.Fitness>
38.7986

> <Gold.PLP.PLP>
-31.1308

> <Gold.PLP.part.hbond>
-3.0000

> <Gold.PLP.part.metal>
0.0000

> <Gold.PLP.part.buried>
-1.0596

> <Gold.PLP.part.nonpolar>
-27.2648

> <Gold.PLP.part.repulsive>
1.3227

> <Gold.PLP.ligand.clash>
0.0000

> <Gold.PLP.ligand.torsion>
0.2898

> <Gold.PLP.Chemscore.Hbond>
2.7488

> <Gold.PLP.Chemscore.CHOScore>
0.0000

> <Gold.PLP.Chemscore.Metal>
0.0000

> <Gold.Chemscore.Hbonds>
donor molecule, donor type, donor heavy atom, donor atom, acceptor molecule, acceptor atom, score
      L1  H     3    25       P1  8028  1.00
      P1  H  7989  7998       L1     9  1.00
      P1  H  8011  8017       L1    18  0.75

> <Gold.PLP.Chemscore.Internal.Correction>
0.0010

> <Gold.Rescore>
     Score         DG    S(hbond)    S(metal)    S(lipo)     H(rot)  DE(clash)    DE(int)     intcor
     12.58     -14.69       2.17        0.00      56.88       1.83       1.78       0.34       ----

> <Gold.Chemscore.Fitness>
12.5768

> <Gold.Chemscore.DG>
-14.6945

> <Gold.Chemscore.ZeroCoef>
-5.4800

> <Gold.Chemscore.Hbond>
2.1722

> <Gold.Chemscore.Metal>
0.0000

> <Gold.Chemscore.Lipo>
56.8801

> <Gold.Chemscore.Internal_Hbond>
0.0000

> <Gold.Chemscore.DEClash>
1.7799

> <Gold.Chemscore.DEInternal>
0.3379

> <Gold.Chemscore.Rot>
1.8342

> <Gold.Chemscore.Internal.Correction>
   9.000000E+99

> <Gold.Chemscore.Hbonds>
donor molecule, donor type, donor heavy atom, donor atom, acceptor molecule, acceptor atom, score
      L1  H     3    25       P1  8028  0.85
      P1  H  7989  7998       L1     9  0.85
      P1  H  8011  8017       L1    18  0.68

> <Gold.Chemscore.Hbond.Weighted>
-7.2552

> <Gold.Chemscore.Metal.Weighted>
-0.0000

> <Gold.Chemscore.Lipo.Weighted>
-6.6550

> <Gold.Chemscore.Internal_Hbond.Weighted>
0.0000

> <Gold.Chemscore.DEClash.Weighted>
1.7799

> <Gold.Chemscore.DEInternal.Weighted>
0.3379

> <Gold.Chemscore.Rot.Weighted>
4.6957

> <Gold.Chemscore.Internal.Correction.Weighted>
   9.000000E+99

> <Gold.Protein.RotatedTorsions>
[ 6907 6896 6895 6894 ] final  -84.65 input  -60.11 | X-H torsion
[ 7974 7965 7964 7962 ] final -106.33 input  175.53 | X-H torsion
[ 8008 7997 7996 7995 ] final  -42.10 input   59.86 | X-H torsion
[ 10167 10162 10161 10158 ] final  171.96 input  -65.29 | X-H torsion
[ 10718 10713 10712 10709 ] final   67.38 input   66.30 | X-H torsion
[ 10763 10752 10751 10750 ] final  118.57 input  -60.55 | X-H torsion
[ 11005 11000 10999 10996 ] final   18.13 input  -57.11 | X-H torsion

> <Gold.Protein.ActiveResidues>
 VAL166  LYS551  ARG553  GLY616  TRP617  ASP618  TYR619  PRO620  LYS621  CYS622 
 ASP623  PHE694  ASN695  SER759  ASP760  ASP761  ALA762  ILE779  LEU786  VAL792 
 PHE793  MET794  SER795  GLU796  ALA797  LYS798  CYS799  TRP800  GLU811  SER814 

> <Gold.Protein.RotatedAtoms>
  150.6875  134.3326  159.4833 H   0  0  0  0  0  0  0  0  0  0  0  0  # atno 6907 bound_to 6896
  152.1188  134.9218  160.0573 H   0  0  0  0  0  0  0  0  0  0  0  0  # atno 6908 bound_to 6896
  152.0432  133.3951  159.4382 H   0  0  0  0  0  0  0  0  0  0  0  0  # atno 6909 bound_to 6896
  145.2192  140.9127  143.3269 H   0  0  0  0  0  0  0  0  0  0  0  0  # atno 7974 bound_to 7965
  154.4000  140.1482  156.3300 H   0  0  0  0  0  0  0  0  0  0  0  0  # atno 8008 bound_to 7997
  155.8452  140.3460  155.5636 H   0  0  0  0  0  0  0  0  0  0  0  0  # atno 8009 bound_to 7997
  155.8044  140.0875  157.1930 H   0  0  0  0  0  0  0  0  0  0  0  0  # atno 8010 bound_to 7997
  139.5062  144.3428  152.0001 H   0  0  0  0  0  0  0  0  0  0  0  0  # atno 10167 bound_to 10162
  157.6226  130.9318  150.0234 H   0  0  0  0  0  0  0  0  0  0  0  0  # atno 10718 bound_to 10713
  153.5697  135.3504  155.2832 H   0  0  0  0  0  0  0  0  0  0  0  0  # atno 10763 bound_to 10752
  154.8684  135.4156  154.2739 H   0  0  0  0  0  0  0  0  0  0  0  0  # atno 10764 bound_to 10752
  153.3502  135.7054  153.6864 H   0  0  0  0  0  0  0  0  0  0  0  0  # atno 10765 bound_to 10752
  140.4283  134.1447  155.7678 H   0  0  0  0  0  0  0  0  0  0  0  0  # atno 11005 bound_to 11000
  144.9782  139.3810  143.6275 LP  0  0  0  0  0  0  0  0  0  0  0  0  # atno 17320 bound_to 7965
  146.3380  139.8910  142.8809 LP  0  0  0  0  0  0  0  0  0  0  0  0  # atno 17321 bound_to 7965
  140.2865  144.3801  150.6102 LP  0  0  0  0  0  0  0  0  0  0  0  0  # atno 17342 bound_to 10162
  140.5979  143.2167  151.7129 LP  0  0  0  0  0  0  0  0  0  0  0  0  # atno 17343 bound_to 10162
  156.1380  130.3642  149.9626 LP  0  0  0  0  0  0  0  0  0  0  0  0  # atno 17370 bound_to 10713
  156.7673  130.9173  151.3643 LP  0  0  0  0  0  0  0  0  0  0  0  0  # atno 17371 bound_to 10713
  141.1756  133.8520  157.1431 LP  0  0  0  0  0  0  0  0  0  0  0  0  # atno 17394 bound_to 11000
  140.0152  134.9970  157.0478 LP  0  0  0  0  0  0  0  0  0  0  0  0  # atno 17395 bound_to 11000

$$$$
