AV-unprocessed.smi:2855|AV-procd|sdf|10985|dock8
  -GOLD-   2272015443D 1   1.00000     0.00000
 Structure written by MMmdl.
 46 47  0  0  0  0  0  0  0  0  2 V2000
  150.8523  141.7091  156.1875 C   0  0  0  0  0  0  0  0  0  0  0  0
  150.8483  140.1783  156.3034 C   0  0  2  0  0  0  0  0  0  0  0  0
  151.7861  139.5310  155.2724 C   0  0  0  0  0  0  0  0  0  0  0  0
  151.7843  137.9985  155.3857 C   0  0  0  0  0  0  0  0  0  0  0  0
  150.3651  137.3943  155.2331 C   0  0  1  0  0  0  0  0  0  0  0  0
  150.3692  135.8352  155.3087 C   0  0  0  0  0  0  0  0  0  0  0  0
  148.9485  135.2452  155.3956 C   0  0  0  0  0  0  0  0  0  0  0  0
  151.2030  135.2961  156.4878 C   0  0  0  0  0  0  0  0  0  0  0  0
  149.3946  138.0671  156.2454 C   0  0  1  0  0  0  0  0  0  0  0  0
  149.6713  137.6226  157.6110 N   0  0  0  0  0  0  0  0  0  0  0  0
  148.8403  136.9094  158.3842 C   0  0  0  0  0  0  0  0  0  0  0  0
  147.7002  136.5929  158.0431 O   0  0  0  0  0  0  0  0  0  0  0  0
  149.3789  136.5118  159.7636 C   0  0  0  0  0  0  0  0  0  0  0  0
  148.4286  135.6751  160.5125 N   0  0  0  0  0  0  0  0  0  0  0  0
  147.8141  136.2349  161.6464 C   0  0  0  0  0  0  0  0  0  0  0  0
  146.9248  135.5448  162.3853 C   0  0  0  0  0  0  0  0  0  0  0  0
  146.6033  134.1812  161.9830 C   0  0  0  0  0  0  0  0  0  0  0  0
  145.7970  133.5344  162.6488 O   0  0  0  0  0  0  0  0  0  0  0  0
  147.2227  133.6842  160.8725 N   0  5  0  0  0  0  0  0  0  0  0  0
  148.1236  134.3984  160.1290 C   0  0  0  0  0  0  0  0  0  0  0  0
  148.6692  133.9318  159.1278 O   0  0  0  0  0  0  0  0  0  0  0  0
  149.4281  139.6068  156.1486 C   0  0  0  0  0  0  0  0  0  0  0  0
  150.4884  142.0343  155.2124 H   0  0  0  0  0  0  0  0  0  0  0  0
  151.8574  142.1105  156.3193 H   0  0  0  0  0  0  0  0  0  0  0  0
  150.2154  142.1612  156.9483 H   0  0  0  0  0  0  0  0  0  0  0  0
  151.2139  139.9258  157.2997 H   0  0  0  0  0  0  0  0  0  0  0  0
  151.4848  139.8205  154.2646 H   0  0  0  0  0  0  0  0  0  0  0  0
  152.8019  139.9040  155.4083 H   0  0  0  0  0  0  0  0  0  0  0  0
  152.4537  137.6105  154.6194 H   0  0  0  0  0  0  0  0  0  0  0  0
  152.2130  137.7028  156.3442 H   0  0  0  0  0  0  0  0  0  0  0  0
  150.0117  137.6634  154.2364 H   0  0  0  0  0  0  0  0  0  0  0  0
  150.8193  135.4452  154.3948 H   0  0  0  0  0  0  0  0  0  0  0  0
  148.3942  135.6663  156.2348 H   0  0  0  0  0  0  0  0  0  0  0  0
  148.9795  134.1637  155.5315 H   0  0  0  0  0  0  0  0  0  0  0  0
  148.3748  135.4236  154.4873 H   0  0  0  0  0  0  0  0  0  0  0  0
  150.8677  135.7161  157.4365 H   0  0  0  0  0  0  0  0  0  0  0  0
  152.2632  135.5214  156.3739 H   0  0  0  0  0  0  0  0  0  0  0  0
  151.1267  134.2110  156.5606 H   0  0  0  0  0  0  0  0  0  0  0  0
  148.3784  137.7658  155.9879 H   0  0  0  0  0  0  0  0  0  0  0  0
  150.5853  137.8393  157.9811 H   0  0  0  0  0  0  0  0  0  0  0  0
  150.3332  135.9913  159.6605 H   0  0  0  0  0  0  0  0  0  0  0  0
  149.6081  137.4243  160.3154 H   0  0  0  0  0  0  0  0  0  0  0  0
  148.1021  137.2512  161.8717 H   0  0  0  0  0  0  0  0  0  0  0  0
  146.4588  135.9908  163.2515 H   0  0  0  0  0  0  0  0  0  0  0  0
  148.7651  140.0425  156.8973 H   0  0  0  0  0  0  0  0  0  0  0  0
  149.0240  139.9076  155.1812 H   0  0  0  0  0  0  0  0  0  0  0  0
  1  2  1  0  0  0  0
  1 23  1  0  0  0  0
  1 24  1  0  0  0  0
  1 25  1  0  0  0  0
  2 22  1  0  0  0  0
  2  3  1  0  0  0  0
  2 26  1  0  0  0  0
  3  4  1  0  0  0  0
  3 27  1  0  0  0  0
  3 28  1  0  0  0  0
  4  5  1  0  0  0  0
  4 29  1  0  0  0  0
  4 30  1  0  0  0  0
  5  6  1  0  0  0  0
  5  9  1  0  0  0  0
  5 31  1  0  0  0  0
  6  7  1  0  0  0  0
  6  8  1  0  0  0  0
  6 32  1  0  0  0  0
  7 33  1  0  0  0  0
  7 34  1  0  0  0  0
  7 35  1  0  0  0  0
  8 36  1  0  0  0  0
  8 37  1  0  0  0  0
  8 38  1  0  0  0  0
  9 10  1  0  0  0  0
  9 22  1  0  0  0  0
  9 39  1  0  0  0  0
 10 11  1  0  0  0  0
 10 40  1  0  0  0  0
 11 12  2  0  0  0  0
 11 13  1  0  0  0  0
 13 14  1  0  0  0  0
 13 41  1  0  0  0  0
 13 42  1  0  0  0  0
 14 20  1  0  0  0  0
 14 15  1  0  0  0  0
 15 16  2  0  0  0  0
 15 43  1  0  0  0  0
 16 17  1  0  0  0  0
 16 44  1  0  0  0  0
 17 18  2  0  0  0  0
 17 19  1  0  0  0  0
 19 20  1  0  0  0  0
 20 21  2  0  0  0  0
 22 45  1  0  0  0  0
 22 46  1  0  0  0  0
M  CHG  1  19  -1
M  END
> <s_m_source_file>
AV-unprocessed.smi

> <i_m_source_file_index>
2855

> <i_lp_mmshare_version>
43012

> <i_f3d_flags>
0

> <s_epik_input>
W0NIM11bQ0BASF0xW0NIMl1bQ0gyXVtDQEBIXShbQ0hdKFtDSDNdKVtDSDNdKVtDQEhdKFtDSDJdMSlbTkhdQyg9TylbQ0gyXW4yW2NIXVtjSF1jKD1PKVtuSF1jMj1P

> <s_epik_cmdline>
J2VwaWtfcHl0aG9uJywgJy1waCcsICc3LjAnLCAnLXRuJywgJzgnLCAnLW1hJywgJzIwMCcsICctbWV0YWxfYmluZGluZycsICctaW1hZScsICc8aW5maWxlLm1hZT4nLCAnLW9tYWUnLCAnPG91dGZpbGUubWFlPic=

> <r_lp_tautomer_probability>
0.999537

> <r_epik_Ionization_Penalty>
3.12102

> <r_epik_Ionization_Penalty_Charging>
2.9581e-08

> <r_epik_Ionization_Penalty_Neutral>
3.12102

> <r_epik_State_Penalty>
3.12011

> <r_epik_Charging_Adjusted_Penalty>
3.12011

> <i_epik_Tot_Q>
-1

> <i_epik_Tot_abs_Q>
1

> <r_epik_Metal_State_Penalty>
0.463583

> <b_epik_Metal_Only>
1

> <s_lp_Force_Field>
OPLS_2005

> <r_lp_Energy>
22.0986

> <b_lp_Chiralities_Consistent>
1

> <s_lp_Variant>
AV-unprocessed.smi:2855-9

> <Gold.Version>
5.8.1

> <Gold.Id.Protein>
6NUR|6NUR_protein|mol2

> <Gold.PLP.Fitness>
35.5209

> <Gold.PLP.PLP>
-33.1096

> <Gold.PLP.part.hbond>
-1.4880

> <Gold.PLP.part.metal>
0.0000

> <Gold.PLP.part.buried>
-4.0503

> <Gold.PLP.part.nonpolar>
-28.2191

> <Gold.PLP.part.repulsive>
0.1038

> <Gold.PLP.ligand.clash>
0.0000

> <Gold.PLP.ligand.torsion>
0.3014

> <Gold.PLP.Chemscore.Hbond>
0.9913

> <Gold.PLP.Chemscore.CHOScore>
0.0000

> <Gold.PLP.Chemscore.Metal>
0.0000

> <Gold.Chemscore.Hbonds>
donor molecule, donor type, donor heavy atom, donor atom, acceptor molecule, acceptor atom, score
      P1  H  6896  6909       L1    21  1.00

> <Gold.PLP.Chemscore.Internal.Correction>
0.0403

> <Gold.Rescore>
     Score         DG    S(hbond)    S(metal)    S(lipo)     H(rot)  DE(clash)    DE(int)     intcor
     11.81     -12.43       0.93        0.00      72.44       1.81       0.03       0.59       ----

> <Gold.Chemscore.Fitness>
11.8087

> <Gold.Chemscore.DG>
-12.4336

> <Gold.Chemscore.ZeroCoef>
-5.4800

> <Gold.Chemscore.Hbond>
0.9318

> <Gold.Chemscore.Metal>
0.0000

> <Gold.Chemscore.Lipo>
72.4353

> <Gold.Chemscore.Internal_Hbond>
0.0000

> <Gold.Chemscore.DEClash>
0.0309

> <Gold.Chemscore.DEInternal>
0.5940

> <Gold.Chemscore.Rot>
1.8100

> <Gold.Chemscore.Internal.Correction>
   9.000000E+99

> <Gold.Chemscore.Hbonds>
donor molecule, donor type, donor heavy atom, donor atom, acceptor molecule, acceptor atom, score
      P1  H  6896  6909       L1    21  0.47

> <Gold.Chemscore.Hbond.Weighted>
-3.1121

> <Gold.Chemscore.Metal.Weighted>
-0.0000

> <Gold.Chemscore.Lipo.Weighted>
-8.4749

> <Gold.Chemscore.Internal_Hbond.Weighted>
0.0000

> <Gold.Chemscore.DEClash.Weighted>
0.0309

> <Gold.Chemscore.DEInternal.Weighted>
0.5940

> <Gold.Chemscore.Rot.Weighted>
4.6335

> <Gold.Chemscore.Internal.Correction.Weighted>
   9.000000E+99

> <Gold.Protein.RotatedTorsions>
[ 6907 6896 6895 6894 ] final   27.33 input  -60.11 | X-H torsion
[ 7974 7965 7964 7962 ] final   20.64 input  175.53 | X-H torsion
[ 8008 7997 7996 7995 ] final -109.36 input   59.86 | X-H torsion
[ 10167 10162 10161 10158 ] final   67.79 input  -65.29 | X-H torsion
[ 10718 10713 10712 10709 ] final  120.79 input   66.30 | X-H torsion
[ 10763 10752 10751 10750 ] final  -32.81 input  -60.55 | X-H torsion
[ 11005 11000 10999 10996 ] final   32.20 input  -57.11 | X-H torsion

> <Gold.Protein.ActiveResidues>
 VAL166  LYS551  ARG553  GLY616  TRP617  ASP618  TYR619  PRO620  LYS621  CYS622 
 ASP623  PHE694  ASN695  SER759  ASP760  ASP761  ALA762  ILE779  LEU786  VAL792 
 PHE793  MET794  SER795  GLU796  ALA797  LYS798  CYS799  TRP800  GLU811  SER814 

> <Gold.Protein.RotatedAtoms>
  152.0007  134.9930  160.0564 H   0  0  0  0  0  0  0  0  0  0  0  0  # atno 6907 bound_to 6896
  152.1522  133.4524  159.4827 H   0  0  0  0  0  0  0  0  0  0  0  0  # atno 6908 bound_to 6896
  150.6877  134.2093  159.4396 H   0  0  0  0  0  0  0  0  0  0  0  0  # atno 6909 bound_to 6896
  146.2103  139.8140  142.8694 H   0  0  0  0  0  0  0  0  0  0  0  0  # atno 7974 bound_to 7965
  154.9581  140.0399  157.2177 H   0  0  0  0  0  0  0  0  0  0  0  0  # atno 8008 bound_to 7997
  154.7914  140.2836  155.5966 H   0  0  0  0  0  0  0  0  0  0  0  0  # atno 8009 bound_to 7997
  156.2950  140.2572  156.2763 H   0  0  0  0  0  0  0  0  0  0  0  0  # atno 8010 bound_to 7997
  140.0857  144.5032  150.7132 H   0  0  0  0  0  0  0  0  0  0  0  0  # atno 10167 bound_to 10162
  157.5865  131.1069  150.8084 H   0  0  0  0  0  0  0  0  0  0  0  0  # atno 10718 bound_to 10713
  153.8199  135.6875  153.4828 H   0  0  0  0  0  0  0  0  0  0  0  0  # atno 10763 bound_to 10752
  153.1576  135.4593  154.9724 H   0  0  0  0  0  0  0  0  0  0  0  0  # atno 10764 bound_to 10752
  154.7932  135.3309  154.7672 H   0  0  0  0  0  0  0  0  0  0  0  0  # atno 10765 bound_to 10752
  140.2760  134.3028  155.7814 H   0  0  0  0  0  0  0  0  0  0  0  0  # atno 11005 bound_to 11000
  145.3166  141.0233  143.3524 LP  0  0  0  0  0  0  0  0  0  0  0  0  # atno 17320 bound_to 7965
  144.8897  139.4791  143.6684 LP  0  0  0  0  0  0  0  0  0  0  0  0  # atno 17321 bound_to 7965
  140.7055  143.2465  151.4740 LP  0  0  0  0  0  0  0  0  0  0  0  0  # atno 17342 bound_to 10162
  139.5753  144.1832  152.1895 LP  0  0  0  0  0  0  0  0  0  0  0  0  # atno 17343 bound_to 10162
  156.8517  130.5083  149.5311 LP  0  0  0  0  0  0  0  0  0  0  0  0  # atno 17370 bound_to 10713
  156.0915  130.5899  150.9740 LP  0  0  0  0  0  0  0  0  0  0  0  0  # atno 17371 bound_to 10713
  141.2170  133.7496  156.9407 LP  0  0  0  0  0  0  0  0  0  0  0  0  # atno 17394 bound_to 11000
  140.1328  134.9344  157.2361 LP  0  0  0  0  0  0  0  0  0  0  0  0  # atno 17395 bound_to 11000

$$$$
