AV-unprocessed.smi:1966|AV-procd|sdf|7950|dock10
  -GOLD-   2272010123D 1   1.00000     0.00000
 Structure written by MMmdl.
 53 54  0  0  0  0  0  0  0  0  1 V2000
  146.0559  137.1065  152.6558 C   0  0  0  0  0  0  0  0  0  0  0  0
  146.6096  136.5160  153.9477 C   0  0  0  0  0  0  0  0  0  0  0  0
  145.9981  136.6602  155.0059 O   0  0  0  0  0  0  0  0  0  0  0  0
  147.7721  135.8521  153.8460 N   0  0  0  0  0  0  0  0  0  0  0  0
  148.4912  135.2218  154.9555 C   0  0  2  0  0  0  0  0  0  0  0  0
  148.9035  136.3150  155.9613 C   0  0  0  0  0  0  0  0  0  0  0  0
  148.5307  136.2413  157.1327 O   0  0  0  0  0  0  0  0  0  0  0  0
  149.6384  137.3221  155.4535 N   0  0  0  0  0  0  0  0  0  0  0  0
  150.1869  138.4542  156.1155 C   0  0  0  0  0  0  0  0  0  0  0  0
  150.8508  139.5214  155.4665 C   0  0  0  0  0  0  0  0  0  0  0  0
  151.3304  140.5970  156.2383 C   0  0  0  0  0  0  0  0  0  0  0  0
  151.1282  140.5911  157.6384 C   0  0  0  0  0  0  0  0  0  0  0  0
  151.5967  141.6643  158.4274 N   0  0  0  0  0  0  0  0  0  0  0  0
  152.1718  141.3553  159.7336 C   0  0  0  0  0  0  0  0  0  0  0  0
  152.9220  142.5771  160.2933 C   0  0  2  0  0  0  0  0  0  0  0  0
  153.4245  142.3348  161.7202 C   0  0  0  0  0  0  0  0  0  0  0  0
  152.0479  143.7046  160.3192 O   0  0  0  0  0  0  0  0  0  0  0  0
  151.4901  144.0581  159.0517 C   0  0  1  0  0  0  0  0  0  0  0  0
  152.5368  144.6759  158.1072 C   0  0  0  0  0  0  0  0  0  0  0  0
  150.7481  142.8531  158.4402 C   0  0  0  0  0  0  0  0  0  0  0  0
  150.4875  139.5688  158.2563 N   0  0  0  0  0  0  0  0  0  0  0  0
  150.0295  138.5399  157.5132 C   0  0  0  0  0  0  0  0  0  0  0  0
  149.7522  134.5019  154.3919 C   0  0  0  0  0  0  0  0  0  0  0  0
  149.3824  133.4460  153.3311 C   0  0  0  0  0  0  0  0  0  0  0  0
  150.6111  133.8359  155.4872 C   0  0  0  0  0  0  0  0  0  0  0  0
  146.7635  137.8181  152.2291 H   0  0  0  0  0  0  0  0  0  0  0  0
  145.1159  137.6282  152.8389 H   0  0  0  0  0  0  0  0  0  0  0  0
  145.8730  136.3191  151.9244 H   0  0  0  0  0  0  0  0  0  0  0  0
  148.2032  135.7897  152.9352 H   0  0  0  0  0  0  0  0  0  0  0  0
  147.8436  134.4895  155.4428 H   0  0  0  0  0  0  0  0  0  0  0  0
  149.7995  137.2872  154.4572 H   0  0  0  0  0  0  0  0  0  0  0  0
  150.9938  139.5476  154.3979 H   0  0  0  0  0  0  0  0  0  0  0  0
  151.8531  141.4057  155.7497 H   0  0  0  0  0  0  0  0  0  0  0  0
  151.3737  141.0569  160.4150 H   0  0  0  0  0  0  0  0  0  0  0  0
  152.8629  140.5154  159.6520 H   0  0  0  0  0  0  0  0  0  0  0  0
  153.7856  142.7952  159.6650 H   0  0  0  0  0  0  0  0  0  0  0  0
  154.1092  141.4871  161.7567 H   0  0  0  0  0  0  0  0  0  0  0  0
  152.5974  142.1275  162.4001 H   0  0  0  0  0  0  0  0  0  0  0  0
  153.9560  143.2083  162.0986 H   0  0  0  0  0  0  0  0  0  0  0  0
  150.7513  144.8345  159.2522 H   0  0  0  0  0  0  0  0  0  0  0  0
  152.0611  145.0652  157.2069 H   0  0  0  0  0  0  0  0  0  0  0  0
  153.2852  143.9508  157.7879 H   0  0  0  0  0  0  0  0  0  0  0  0
  153.0562  145.5039  158.5898 H   0  0  0  0  0  0  0  0  0  0  0  0
  150.3941  143.1156  157.4443 H   0  0  0  0  0  0  0  0  0  0  0  0
  149.8620  142.6302  159.0360 H   0  0  0  0  0  0  0  0  0  0  0  0
  149.5211  137.7567  158.0568 H   0  0  0  0  0  0  0  0  0  0  0  0
  150.3817  135.2434  153.8965 H   0  0  0  0  0  0  0  0  0  0  0  0
  148.7240  132.6830  153.7472 H   0  0  0  0  0  0  0  0  0  0  0  0
  150.2720  132.9434  152.9506 H   0  0  0  0  0  0  0  0  0  0  0  0
  148.8776  133.8880  152.4719 H   0  0  0  0  0  0  0  0  0  0  0  0
  150.0278  133.1166  156.0629 H   0  0  0  0  0  0  0  0  0  0  0  0
  151.0267  134.5637  156.1842 H   0  0  0  0  0  0  0  0  0  0  0  0
  151.4565  133.3025  155.0514 H   0  0  0  0  0  0  0  0  0  0  0  0
  1  2  1  0  0  0  0
  1 26  1  0  0  0  0
  1 27  1  0  0  0  0
  1 28  1  0  0  0  0
  2  3  2  0  0  0  0
  2  4  1  0  0  0  0
  4  5  1  0  0  0  0
  4 29  1  0  0  0  0
  5  6  1  0  0  0  0
  5 23  1  0  0  0  0
  5 30  1  0  0  0  0
  6  7  2  0  0  0  0
  6  8  1  0  0  0  0
  8  9  1  0  0  0  0
  8 31  1  0  0  0  0
  9 22  1  0  0  0  0
  9 10  2  0  0  0  0
 10 11  1  0  0  0  0
 10 32  1  0  0  0  0
 11 12  2  0  0  0  0
 11 33  1  0  0  0  0
 12 13  1  0  0  0  0
 12 21  1  0  0  0  0
 13 20  1  0  0  0  0
 13 14  1  0  0  0  0
 14 15  1  0  0  0  0
 14 34  1  0  0  0  0
 14 35  1  0  0  0  0
 15 16  1  0  0  0  0
 15 17  1  0  0  0  0
 15 36  1  0  0  0  0
 16 37  1  0  0  0  0
 16 38  1  0  0  0  0
 16 39  1  0  0  0  0
 17 18  1  0  0  0  0
 18 19  1  0  0  0  0
 18 20  1  0  0  0  0
 18 40  1  0  0  0  0
 19 41  1  0  0  0  0
 19 42  1  0  0  0  0
 19 43  1  0  0  0  0
 20 44  1  0  0  0  0
 20 45  1  0  0  0  0
 21 22  2  0  0  0  0
 22 46  1  0  0  0  0
 23 24  1  0  0  0  0
 23 25  1  0  0  0  0
 23 47  1  0  0  0  0
 24 48  1  0  0  0  0
 24 49  1  0  0  0  0
 24 50  1  0  0  0  0
 25 51  1  0  0  0  0
 25 52  1  0  0  0  0
 25 53  1  0  0  0  0
M  END
> <s_m_source_file>
AV-unprocessed.smi

> <i_m_source_file_index>
1966

> <i_lp_mmshare_version>
43012

> <i_f3d_flags>
0

> <s_epik_input>
W0NIM11DKD1PKVtOSF1bQ0BASF0oW0NIXShbQ0gzXSlbQ0gzXSlDKD1PKVtOSF1jMVtjSF1bY0hdYyhuW2NIXTEpTjJbQ0gyXVtDQEBIXShbQ0gzXSlPW0NAQEhdKFtDSDNdKVtDSDJdMg==

> <s_epik_cmdline>
J2VwaWtfcHl0aG9uJywgJy1waCcsICc3LjAnLCAnLXRuJywgJzgnLCAnLW1hJywgJzIwMCcsICctbWV0YWxfYmluZGluZycsICctaW1hZScsICc8aW5maWxlLm1hZT4nLCAnLW9tYWUnLCAnPG91dGZpbGUubWFlPic=

> <r_lp_tautomer_probability>
1

> <r_epik_Ionization_Penalty>
0.000679699

> <r_epik_Ionization_Penalty_Charging>
0

> <r_epik_Ionization_Penalty_Neutral>
0.000679699

> <r_epik_State_Penalty>
0.000430485

> <r_epik_Charging_Adjusted_Penalty>
0.000430485

> <i_epik_Tot_Q>
0

> <i_epik_Tot_abs_Q>
0

> <r_epik_Metal_State_Penalty>
-0

> <b_epik_Metal_Only>
0

> <s_lp_Force_Field>
OPLS_2005

> <r_lp_Energy>
28.7238

> <b_lp_Chiralities_Consistent>
1

> <s_lp_Variant>
AV-unprocessed.smi:1966-3

> <Gold.Version>
5.8.1

> <Gold.Id.Protein>
6NUR|6NUR_protein|mol2

> <Gold.PLP.Fitness>
42.2955

> <Gold.PLP.PLP>
-40.2071

> <Gold.PLP.part.hbond>
-1.0000

> <Gold.PLP.part.metal>
0.0000

> <Gold.PLP.part.buried>
-5.8000

> <Gold.PLP.part.nonpolar>
-34.2588

> <Gold.PLP.part.repulsive>
0.0721

> <Gold.PLP.ligand.clash>
0.0000

> <Gold.PLP.ligand.torsion>
0.6236

> <Gold.PLP.Chemscore.Hbond>
1.0000

> <Gold.PLP.Chemscore.CHOScore>
0.0000

> <Gold.PLP.Chemscore.Metal>
0.0000

> <Gold.Chemscore.Hbonds>
donor molecule, donor type, donor heavy atom, donor atom, acceptor molecule, acceptor atom, score
      L1  H     4    29       P1  7948  0.60

> <Gold.PLP.Chemscore.Internal.Correction>
0.3356

> <Gold.Rescore>
     Score         DG    S(hbond)    S(metal)    S(lipo)     H(rot)  DE(clash)    DE(int)     intcor
     15.40     -17.50       0.99        0.00     111.08       1.68       0.02       2.07       ----

> <Gold.Chemscore.Fitness>
15.3983

> <Gold.Chemscore.DG>
-17.4950

> <Gold.Chemscore.ZeroCoef>
-5.4800

> <Gold.Chemscore.Hbond>
0.9906

> <Gold.Chemscore.Metal>
0.0000

> <Gold.Chemscore.Lipo>
111.0824

> <Gold.Chemscore.Internal_Hbond>
0.0000

> <Gold.Chemscore.DEClash>
0.0238

> <Gold.Chemscore.DEInternal>
2.0729

> <Gold.Chemscore.Rot>
1.6759

> <Gold.Chemscore.Internal.Correction>
   9.000000E+99

> <Gold.Chemscore.Hbonds>
donor molecule, donor type, donor heavy atom, donor atom, acceptor molecule, acceptor atom, score
      L1  H     4    29       P1  7948  0.60

> <Gold.Chemscore.Hbond.Weighted>
-3.3086

> <Gold.Chemscore.Metal.Weighted>
-0.0000

> <Gold.Chemscore.Lipo.Weighted>
-12.9966

> <Gold.Chemscore.Internal_Hbond.Weighted>
0.0000

> <Gold.Chemscore.DEClash.Weighted>
0.0238

> <Gold.Chemscore.DEInternal.Weighted>
2.0729

> <Gold.Chemscore.Rot.Weighted>
4.2902

> <Gold.Chemscore.Internal.Correction.Weighted>
   9.000000E+99

> <Gold.Protein.RotatedTorsions>
[ 6907 6896 6895 6894 ] final  -40.15 input  -60.11 | X-H torsion
[ 7974 7965 7964 7962 ] final  -76.67 input  175.53 | X-H torsion
[ 8008 7997 7996 7995 ] final  128.54 input   59.86 | X-H torsion
[ 10167 10162 10161 10158 ] final  -77.26 input  -65.29 | X-H torsion
[ 10718 10713 10712 10709 ] final -174.65 input   66.30 | X-H torsion
[ 10763 10752 10751 10750 ] final   61.23 input  -60.55 | X-H torsion
[ 11005 11000 10999 10996 ] final -104.43 input  -57.11 | X-H torsion

> <Gold.Protein.ActiveResidues>
 VAL166  LYS551  ARG553  GLY616  TRP617  ASP618  TYR619  PRO620  LYS621  CYS622 
 ASP623  PHE694  ASN695  SER759  ASP760  ASP761  ALA762  ILE779  LEU786  VAL792 
 PHE793  MET794  SER795  GLU796  ALA797  LYS798  CYS799  TRP800  GLU811  SER814 

> <Gold.Protein.RotatedAtoms>
  150.9819  134.9172  159.7848 H   0  0  0  0  0  0  0  0  0  0  0  0  # atno 6907 bound_to 6896
  152.5224  134.3399  159.9223 H   0  0  0  0  0  0  0  0  0  0  0  0  # atno 6908 bound_to 6896
  151.3406  133.3923  159.2705 H   0  0  0  0  0  0  0  0  0  0  0  0  # atno 6909 bound_to 6896
  145.6098  140.9389  143.1196 H   0  0  0  0  0  0  0  0  0  0  0  0  # atno 7974 bound_to 7965
  156.2917  140.2642  156.2452 H   0  0  0  0  0  0  0  0  0  0  0  0  # atno 8008 bound_to 7997
  154.9937  140.0388  157.2349 H   0  0  0  0  0  0  0  0  0  0  0  0  # atno 8009 bound_to 7997
  154.7663  140.2770  155.6178 H   0  0  0  0  0  0  0  0  0  0  0  0  # atno 8010 bound_to 7997
  140.4785  143.2408  151.8095 H   0  0  0  0  0  0  0  0  0  0  0  0  # atno 10167 bound_to 10162
  156.7882  130.9508  151.3120 H   0  0  0  0  0  0  0  0  0  0  0  0  # atno 10718 bound_to 10713
  152.9944  135.5508  154.6000 H   0  0  0  0  0  0  0  0  0  0  0  0  # atno 10763 bound_to 10752
  154.5343  135.2815  155.1154 H   0  0  0  0  0  0  0  0  0  0  0  0  # atno 10764 bound_to 10752
  154.2457  135.6408  153.5275 H   0  0  0  0  0  0  0  0  0  0  0  0  # atno 10765 bound_to 10752
  141.1101  133.8722  157.1609 H   0  0  0  0  0  0  0  0  0  0  0  0  # atno 11005 bound_to 11000
  144.7275  139.7830  143.7359 LP  0  0  0  0  0  0  0  0  0  0  0  0  # atno 17320 bound_to 7965
  146.1513  139.4597  143.0047 LP  0  0  0  0  0  0  0  0  0  0  0  0  # atno 17321 bound_to 7965
  139.4829  144.4802  151.9316 LP  0  0  0  0  0  0  0  0  0  0  0  0  # atno 17342 bound_to 10162
  140.3888  144.2642  150.5901 LP  0  0  0  0  0  0  0  0  0  0  0  0  # atno 17343 bound_to 10162
  157.6614  130.8969  149.9837 LP  0  0  0  0  0  0  0  0  0  0  0  0  # atno 17370 bound_to 10713
  156.1176  130.3647  149.9942 LP  0  0  0  0  0  0  0  0  0  0  0  0  # atno 17371 bound_to 10713
  139.9990  135.0035  157.0148 LP  0  0  0  0  0  0  0  0  0  0  0  0  # atno 17394 bound_to 11000
  140.4798  134.1301  155.7215 LP  0  0  0  0  0  0  0  0  0  0  0  0  # atno 17395 bound_to 11000

$$$$
