AV-unprocessed.smi:1829|AV-procd|sdf|7431|dock2
  -GOLD-   22720 9113D 1   1.00000     0.00000
 Structure written by MMmdl.
 46 48  0  0  0  0  0  0  0  0  2 V2000
  142.6711  146.6556  155.3352 C   0  0  0  0  0  0  0  0  0  0  0  0
  142.4823  145.1343  155.4376 C   0  0  0  0  0  0  0  0  0  0  0  0
  141.9663  144.7174  156.8242 C   0  0  0  0  0  0  0  0  0  0  0  0
  143.7561  144.3896  155.0591 C   0  0  0  0  0  0  0  0  0  0  0  0
  144.3254  143.4613  155.9566 C   0  0  0  0  0  0  0  0  0  0  0  0
  145.4927  142.7560  155.6064 C   0  0  0  0  0  0  0  0  0  0  0  0
  146.1070  142.9729  154.3538 C   0  0  0  0  0  0  0  0  0  0  0  0
  147.3407  142.1820  153.9398 C   0  0  1  0  0  0  0  0  0  0  0  0
  148.4751  143.0037  153.7567 O   0  0  0  0  0  0  0  0  0  0  0  0
  147.7008  141.0751  154.9526 C   0  0  0  0  0  0  0  0  0  0  0  0
  148.5635  140.0337  154.3698 N   0  0  0  0  0  0  0  0  0  0  0  0
  148.2910  139.1099  153.4033 C   0  0  0  0  0  0  0  0  0  0  0  0
  147.0073  138.9346  152.6607 C   0  0  0  0  0  0  0  0  0  0  0  0
  147.1171  137.9887  151.6207 O   0  0  0  0  0  0  0  0  0  0  0  0
  149.4184  138.3657  153.2259 N   0  3  0  0  0  0  0  0  0  0  0  0
  150.4210  138.8129  154.0867 C   0  0  0  0  0  0  0  0  0  0  0  0
  151.7260  138.3674  154.2724 C   0  0  0  0  0  0  0  0  0  0  0  0
  152.4931  139.0426  155.2441 C   0  0  0  0  0  0  0  0  0  0  0  0
  151.9588  140.1170  155.9841 C   0  0  0  0  0  0  0  0  0  0  0  0
  150.6367  140.5635  155.7820 C   0  0  0  0  0  0  0  0  0  0  0  0
  149.8815  139.8881  154.8227 C   0  0  0  0  0  0  0  0  0  0  0  0
  145.5438  143.9085  153.4606 C   0  0  0  0  0  0  0  0  0  0  0  0
  144.3742  144.6096  153.8090 C   0  0  0  0  0  0  0  0  0  0  0  0
  142.9848  146.9443  154.3315 H   0  0  0  0  0  0  0  0  0  0  0  0
  143.4245  147.0158  156.0363 H   0  0  0  0  0  0  0  0  0  0  0  0
  141.7404  147.1807  155.5522 H   0  0  0  0  0  0  0  0  0  0  0  0
  141.7119  144.8582  154.7163 H   0  0  0  0  0  0  0  0  0  0  0  0
  141.7877  143.6426  156.8679 H   0  0  0  0  0  0  0  0  0  0  0  0
  141.0248  145.2157  157.0572 H   0  0  0  0  0  0  0  0  0  0  0  0
  142.6749  144.9703  157.6132 H   0  0  0  0  0  0  0  0  0  0  0  0
  143.8649  143.2792  156.9166 H   0  0  0  0  0  0  0  0  0  0  0  0
  145.9051  142.0380  156.3000 H   0  0  0  0  0  0  0  0  0  0  0  0
  147.1412  141.7248  152.9697 H   0  0  0  0  0  0  0  0  0  0  0  0
  148.4335  143.7169  154.3751 H   0  0  0  0  0  0  0  0  0  0  0  0
  148.2506  141.5038  155.7915 H   0  0  0  0  0  0  0  0  0  0  0  0
  146.8091  140.6171  155.3809 H   0  0  0  0  0  0  0  0  0  0  0  0
  146.2304  138.6122  153.3545 H   0  0  0  0  0  0  0  0  0  0  0  0
  146.6860  139.8884  152.2427 H   0  0  0  0  0  0  0  0  0  0  0  0
  147.5651  137.2260  151.9536 H   0  0  0  0  0  0  0  0  0  0  0  0
  152.1373  137.5443  153.7067 H   0  0  0  0  0  0  0  0  0  0  0  0
  153.5114  138.7301  155.4257 H   0  0  0  0  0  0  0  0  0  0  0  0
  152.5748  140.6090  156.7227 H   0  0  0  0  0  0  0  0  0  0  0  0
  150.2405  141.3852  156.3593 H   0  0  0  0  0  0  0  0  0  0  0  0
  145.9977  144.0784  152.4952 H   0  0  0  0  0  0  0  0  0  0  0  0
  143.9500  145.3129  153.1077 H   0  0  0  0  0  0  0  0  0  0  0  0
  149.4931  137.6074  152.5601 H   0  0  0  0  0  0  0  0  0  0  0  0
  1  2  1  0  0  0  0
  1 24  1  0  0  0  0
  1 25  1  0  0  0  0
  1 26  1  0  0  0  0
  2  3  1  0  0  0  0
  2  4  1  0  0  0  0
  2 27  1  0  0  0  0
  3 28  1  0  0  0  0
  3 29  1  0  0  0  0
  3 30  1  0  0  0  0
  4 23  1  0  0  0  0
  4  5  2  0  0  0  0
  5  6  1  0  0  0  0
  5 31  1  0  0  0  0
  6  7  2  0  0  0  0
  6 32  1  0  0  0  0
  7  8  1  0  0  0  0
  7 22  1  0  0  0  0
  8  9  1  0  0  0  0
  8 10  1  0  0  0  0
  8 33  1  0  0  0  0
  9 34  1  0  0  0  0
 10 11  1  0  0  0  0
 10 35  1  0  0  0  0
 10 36  1  0  0  0  0
 11 21  1  0  0  0  0
 11 12  1  0  0  0  0
 12 13  1  0  0  0  0
 12 15  2  0  0  0  0
 13 14  1  0  0  0  0
 13 37  1  0  0  0  0
 13 38  1  0  0  0  0
 14 39  1  0  0  0  0
 15 16  1  0  0  0  0
 15 46  1  0  0  0  0
 16 21  2  0  0  0  0
 16 17  1  0  0  0  0
 17 18  2  0  0  0  0
 17 40  1  0  0  0  0
 18 19  1  0  0  0  0
 18 41  1  0  0  0  0
 19 20  2  0  0  0  0
 19 42  1  0  0  0  0
 20 21  1  0  0  0  0
 20 43  1  0  0  0  0
 22 23  2  0  0  0  0
 22 44  1  0  0  0  0
 23 45  1  0  0  0  0
M  CHG  1  15   1
M  END
> <s_m_source_file>
AV-unprocessed.smi

> <i_m_source_file_index>
1829

> <i_lp_mmshare_version>
43012

> <i_f3d_flags>
0

> <s_epik_input>
W0NIM11bQ0hdKFtDSDNdKWMxW2NIXVtjSF1jKFtjSF1bY0hdMSlbQ0BIXShbT0hdKVtDSDJdbihjKG4yKVtDSDJdW09IXSljKGMyMylbY0hdW2NIXVtjSF1bY0hdMw==

> <s_epik_cmdline>
J2VwaWtfcHl0aG9uJywgJy1waCcsICc3LjAnLCAnLXRuJywgJzgnLCAnLW1hJywgJzIwMCcsICctbWV0YWxfYmluZGluZycsICctaW1hZScsICc8aW5maWxlLm1hZT4nLCAnLW9tYWUnLCAnPG91dGZpbGUubWFlPic=

> <r_epik_Ionization_Penalty>
1.35642

> <r_epik_Ionization_Penalty_Charging>
1.35557

> <r_epik_Ionization_Penalty_Neutral>
0.000856322

> <r_epik_State_Penalty>
1.43401

> <r_epik_Charging_Adjusted_Penalty>
2.78958

> <i_epik_Tot_Q>
1

> <i_epik_Tot_abs_Q>
1

> <r_epik_Metal_State_Penalty>
5.47166

> <b_epik_Metal_Only>
0

> <s_lp_Force_Field>
OPLS_2005

> <r_lp_Energy>
15.3906

> <b_lp_Chiralities_Consistent>
1

> <s_lp_Variant>
AV-unprocessed.smi:1829-4

> <Gold.Version>
5.8.1

> <Gold.Id.Protein>
6NUR|6NUR_protein|mol2

> <Gold.PLP.Fitness>
60.1201

> <Gold.PLP.PLP>
-47.2965

> <Gold.PLP.part.hbond>
-6.9297

> <Gold.PLP.part.metal>
0.0000

> <Gold.PLP.part.buried>
0.9554

> <Gold.PLP.part.nonpolar>
-41.5383

> <Gold.PLP.part.repulsive>
0.0852

> <Gold.PLP.ligand.clash>
0.0000

> <Gold.PLP.ligand.torsion>
0.3337

> <Gold.PLP.Chemscore.Hbond>
4.4673

> <Gold.PLP.Chemscore.CHOScore>
0.0000

> <Gold.PLP.Chemscore.Metal>
0.0000

> <Gold.Chemscore.Hbonds>
donor molecule, donor type, donor heavy atom, donor atom, acceptor molecule, acceptor atom, score
      L1  H     9    34       P1  8028  1.00
      L1  H    14    39       P1  7948  0.90
      L1  H    15    46       P1  7948  2.00
      P1  H  7954  7966       L1    14  0.50

> <Gold.PLP.Chemscore.Internal.Correction>
0.0893

> <Gold.Rescore>
     Score         DG    S(hbond)    S(metal)    S(lipo)     H(rot)  DE(clash)    DE(int)     intcor
     19.08     -19.77       2.58        0.00     108.80       2.75       0.42       0.27       ----

> <Gold.Chemscore.Fitness>
19.0842

> <Gold.Chemscore.DG>
-19.7725

> <Gold.Chemscore.ZeroCoef>
-5.4800

> <Gold.Chemscore.Hbond>
2.5794

> <Gold.Chemscore.Metal>
0.0000

> <Gold.Chemscore.Lipo>
108.8024

> <Gold.Chemscore.Internal_Hbond>
0.0000

> <Gold.Chemscore.DEClash>
0.4221

> <Gold.Chemscore.DEInternal>
0.2662

> <Gold.Chemscore.Rot>
2.7550

> <Gold.Chemscore.Internal.Correction>
   9.000000E+99

> <Gold.Chemscore.Hbonds>
donor molecule, donor type, donor heavy atom, donor atom, acceptor molecule, acceptor atom, score
      L1  H     9    34       P1  8028  0.97
      L1  H    14    39       P1  7948  0.88
      L1  H    15    46       P1  7948  0.63
      P1  H  7954  7966       L1    14  0.02
      P1  H  8011  8017       L1     9  0.01

> <Gold.Chemscore.Hbond.Weighted>
-8.6153

> <Gold.Chemscore.Metal.Weighted>
-0.0000

> <Gold.Chemscore.Lipo.Weighted>
-12.7299

> <Gold.Chemscore.Internal_Hbond.Weighted>
0.0000

> <Gold.Chemscore.DEClash.Weighted>
0.4221

> <Gold.Chemscore.DEInternal.Weighted>
0.2662

> <Gold.Chemscore.Rot.Weighted>
7.0527

> <Gold.Chemscore.Internal.Correction.Weighted>
   9.000000E+99

> <Gold.Protein.RotatedTorsions>
[ 6907 6896 6895 6894 ] final  145.37 input  -60.11 | X-H torsion
[ 7974 7965 7964 7962 ] final  132.83 input  175.53 | X-H torsion
[ 8008 7997 7996 7995 ] final -121.81 input   59.86 | X-H torsion
[ 10167 10162 10161 10158 ] final   78.38 input  -65.29 | X-H torsion
[ 10718 10713 10712 10709 ] final -159.19 input   66.30 | X-H torsion
[ 10763 10752 10751 10750 ] final   34.63 input  -60.55 | X-H torsion
[ 11005 11000 10999 10996 ] final  177.14 input  -57.11 | X-H torsion

> <Gold.Protein.ActiveResidues>
 VAL166  LYS551  ARG553  GLY616  TRP617  ASP618  TYR619  PRO620  LYS621  CYS622 
 ASP623  PHE694  ASN695  SER759  ASP760  ASP761  ALA762  ILE779  LEU786  VAL792 
 PHE793  MET794  SER795  GLU796  ALA797  LYS798  CYS799  TRP800  GLU811  SER814 

> <Gold.Protein.RotatedAtoms>
  152.1817  133.4712  159.4961 H   0  0  0  0  0  0  0  0  0  0  0  0  # atno 6907 bound_to 6896
  150.6935  134.1825  159.4263 H   0  0  0  0  0  0  0  0  0  0  0  0  # atno 6908 bound_to 6896
  151.9736  135.0064  160.0604 H   0  0  0  0  0  0  0  0  0  0  0  0  # atno 6909 bound_to 6896
  144.9927  139.4390  143.5331 H   0  0  0  0  0  0  0  0  0  0  0  0  # atno 7974 bound_to 7965
  155.1540  140.0404  157.2827 H   0  0  0  0  0  0  0  0  0  0  0  0  # atno 8008 bound_to 7997
  154.6384  140.2541  155.7324 H   0  0  0  0  0  0  0  0  0  0  0  0  # atno 8009 bound_to 7997
  156.2520  140.2861  156.0766 H   0  0  0  0  0  0  0  0  0  0  0  0  # atno 8010 bound_to 7997
  139.9715  144.5891  150.7981 H   0  0  0  0  0  0  0  0  0  0  0  0  # atno 10167 bound_to 10162
  156.5647  130.8662  151.2820 H   0  0  0  0  0  0  0  0  0  0  0  0  # atno 10718 bound_to 10713
  153.0155  135.6355  154.1698 H   0  0  0  0  0  0  0  0  0  0  0  0  # atno 10763 bound_to 10752
  154.1438  135.2833  155.3155 H   0  0  0  0  0  0  0  0  0  0  0  0  # atno 10764 bound_to 10752
  154.6105  135.5558  153.7529 H   0  0  0  0  0  0  0  0  0  0  0  0  # atno 10765 bound_to 10752
  140.3808  134.6948  157.4450 H   0  0  0  0  0  0  0  0  0  0  0  0  # atno 11005 bound_to 11000
  146.3435  139.9269  142.8759 LP  0  0  0  0  0  0  0  0  0  0  0  0  # atno 17320 bound_to 7965
  145.2262  140.9955  143.4017 LP  0  0  0  0  0  0  0  0  0  0  0  0  # atno 17321 bound_to 7965
  140.7520  143.2983  151.3148 LP  0  0  0  0  0  0  0  0  0  0  0  0  # atno 17342 bound_to 10162
  139.6477  144.0420  152.2603 LP  0  0  0  0  0  0  0  0  0  0  0  0  # atno 17343 bound_to 10162
  157.7361  130.9773  150.2118 LP  0  0  0  0  0  0  0  0  0  0  0  0  # atno 17370 bound_to 10713
  156.2768  130.3728  149.7976 LP  0  0  0  0  0  0  0  0  0  0  0  0  # atno 17371 bound_to 10713
  140.0480  134.6171  155.8897 LP  0  0  0  0  0  0  0  0  0  0  0  0  # atno 17394 bound_to 11000
  141.1924  133.6575  156.5500 LP  0  0  0  0  0  0  0  0  0  0  0  0  # atno 17395 bound_to 11000

$$$$
