AV-unprocessed.smi:2954|AV-procd|sdf|11299|dock5
  -GOLD-   2272016193D 1   1.00000     0.00000
 Structure written by MMmdl.
 43 45  0  0  0  0  0  0  0  0  2 V2000
  150.4122  133.0771  155.2725 C   0  0  0  0  0  0  0  0  0  0  0  0
  149.3871  134.2131  155.1536 C   0  0  2  0  0  0  0  0  0  0  0  0
  148.7381  134.1568  153.8493 N   0  0  0  0  0  0  0  0  0  0  0  0
  148.1510  133.0620  153.3503 C   0  0  0  0  0  0  0  0  0  0  0  0
  148.1082  131.9911  153.9498 O   0  0  0  0  0  0  0  0  0  0  0  0
  150.0433  135.5406  155.3992 C   0  0  0  0  0  0  0  0  0  0  0  0
  150.7649  136.2534  154.4869 N   0  3  0  0  0  0  0  0  0  0  0  0
  151.2539  137.4198  155.0740 C   0  0  0  0  0  0  0  0  0  0  0  0
  152.0386  138.4424  154.5501 C   0  0  0  0  0  0  0  0  0  0  0  0
  152.3785  139.4924  155.4277 C   0  0  0  0  0  0  0  0  0  0  0  0
  151.9395  139.4999  156.7674 C   0  0  0  0  0  0  0  0  0  0  0  0
  151.1403  138.4597  157.2853 C   0  0  0  0  0  0  0  0  0  0  0  0
  150.8081  137.4239  156.4113 C   0  0  0  0  0  0  0  0  0  0  0  0
  150.0618  136.2482  156.5668 N   0  0  0  0  0  0  0  0  0  0  0  0
  149.4705  135.9381  157.8789 C   0  0  0  0  0  0  0  0  0  0  0  0
  147.9763  135.6038  157.7675 C   0  0  0  0  0  0  0  0  0  0  0  0
  147.6824  134.5160  158.6334 O   0  0  0  0  0  0  0  0  0  0  0  0
  147.4484  134.7755  159.9661 C   0  0  0  0  0  0  0  0  0  0  0  0
  147.4568  136.0763  160.5303 C   0  0  0  0  0  0  0  0  0  0  0  0
  147.2084  136.2593  161.9042 C   0  0  0  0  0  0  0  0  0  0  0  0
  146.9511  135.1498  162.7299 C   0  0  0  0  0  0  0  0  0  0  0  0
  146.9425  133.8550  162.1798 C   0  0  0  0  0  0  0  0  0  0  0  0
  147.1900  133.6690  160.8056 C   0  0  0  0  0  0  0  0  0  0  0  0
  147.1654  132.0700  160.1514 Cl  0  0  0  0  0  0  0  0  0  0  0  0
  150.8789  133.0721  156.2581 H   0  0  0  0  0  0  0  0  0  0  0  0
  151.2055  133.1745  154.5305 H   0  0  0  0  0  0  0  0  0  0  0  0
  149.9395  132.1049  155.1287 H   0  0  0  0  0  0  0  0  0  0  0  0
  148.6225  134.0500  155.9139 H   0  0  0  0  0  0  0  0  0  0  0  0
  148.7414  134.9973  153.2896 H   0  0  0  0  0  0  0  0  0  0  0  0
  147.7247  133.2434  152.3510 H   0  0  0  0  0  0  0  0  0  0  0  0
  152.3800  138.4365  153.5253 H   0  0  0  0  0  0  0  0  0  0  0  0
  152.9909  140.3064  155.0672 H   0  0  0  0  0  0  0  0  0  0  0  0
  152.2243  140.3180  157.4131 H   0  0  0  0  0  0  0  0  0  0  0  0
  150.8201  138.4742  158.3163 H   0  0  0  0  0  0  0  0  0  0  0  0
  150.0190  135.1154  158.3368 H   0  0  0  0  0  0  0  0  0  0  0  0
  149.6209  136.7972  158.5325 H   0  0  0  0  0  0  0  0  0  0  0  0
  147.3793  136.4764  158.0365 H   0  0  0  0  0  0  0  0  0  0  0  0
  147.7426  135.3396  156.7350 H   0  0  0  0  0  0  0  0  0  0  0  0
  147.6552  136.9508  159.9296 H   0  0  0  0  0  0  0  0  0  0  0  0
  147.2165  137.2538  162.3258 H   0  0  0  0  0  0  0  0  0  0  0  0
  146.7610  135.2914  163.7836 H   0  0  0  0  0  0  0  0  0  0  0  0
  146.7439  133.0033  162.8138 H   0  0  0  0  0  0  0  0  0  0  0  0
  150.9152  135.9552  153.5318 H   0  0  0  0  0  0  0  0  0  0  0  0
  1  2  1  0  0  0  0
  1 25  1  0  0  0  0
  1 26  1  0  0  0  0
  1 27  1  0  0  0  0
  2  3  1  0  0  0  0
  2  6  1  0  0  0  0
  2 28  1  0  0  0  0
  3  4  1  0  0  0  0
  3 29  1  0  0  0  0
  4  5  2  0  0  0  0
  4 30  1  0  0  0  0
  6 14  1  0  0  0  0
  6  7  2  0  0  0  0
  7  8  1  0  0  0  0
  7 43  1  0  0  0  0
  8 13  2  0  0  0  0
  8  9  1  0  0  0  0
  9 10  2  0  0  0  0
  9 31  1  0  0  0  0
 10 11  1  0  0  0  0
 10 32  1  0  0  0  0
 11 12  2  0  0  0  0
 11 33  1  0  0  0  0
 12 13  1  0  0  0  0
 12 34  1  0  0  0  0
 13 14  1  0  0  0  0
 14 15  1  0  0  0  0
 15 16  1  0  0  0  0
 15 35  1  0  0  0  0
 15 36  1  0  0  0  0
 16 17  1  0  0  0  0
 16 37  1  0  0  0  0
 16 38  1  0  0  0  0
 17 18  1  0  0  0  0
 18 23  1  0  0  0  0
 18 19  2  0  0  0  0
 19 20  1  0  0  0  0
 19 39  1  0  0  0  0
 20 21  2  0  0  0  0
 20 40  1  0  0  0  0
 21 22  1  0  0  0  0
 21 41  1  0  0  0  0
 22 23  2  0  0  0  0
 22 42  1  0  0  0  0
 23 24  1  0  0  0  0
M  CHG  1   7   1
M  END
> <s_m_source_file>
AV-unprocessed.smi

> <i_m_source_file_index>
2954

> <i_lp_mmshare_version>
43012

> <i_f3d_flags>
0

> <s_epik_input>
Tz1bQ0hdW05IXVtDQEBIXShbQ0gzXSljKG4xKW4oYyhjMTIpW2NIXVtjSF1bY0hdW2NIXTIpW0NIMl1bQ0gyXU9jM1tjSF1bY0hdW2NIXVtjSF1jM0Ns

> <s_epik_cmdline>
J2VwaWtfcHl0aG9uJywgJy1waCcsICc3LjAnLCAnLXRuJywgJzgnLCAnLW1hJywgJzIwMCcsICctbWV0YWxfYmluZGluZycsICctaW1hZScsICc8aW5maWxlLm1hZT4nLCAnLW9tYWUnLCAnPG91dGZpbGUubWFlPic=

> <r_lp_tautomer_probability>
1

> <r_epik_Ionization_Penalty>
1.18508

> <r_epik_Ionization_Penalty_Charging>
1.18508

> <r_epik_Ionization_Penalty_Neutral>
5.5802e-08

> <r_epik_State_Penalty>
1.24934

> <r_epik_Charging_Adjusted_Penalty>
2.43443

> <i_epik_Tot_Q>
1

> <i_epik_Tot_abs_Q>
1

> <r_epik_Metal_State_Penalty>
1.32564

> <b_epik_Metal_Only>
0

> <s_lp_Force_Field>
OPLS_2005

> <r_lp_Energy>
16.9753

> <b_lp_Chiralities_Consistent>
1

> <s_lp_Variant>
AV-unprocessed.smi:2954-3

> <Gold.Version>
5.8.1

> <Gold.Id.Protein>
6NUR|6NUR_protein|mol2

> <Gold.PLP.Fitness>
48.9280

> <Gold.PLP.PLP>
-42.0249

> <Gold.PLP.part.hbond>
-2.4366

> <Gold.PLP.part.metal>
0.0000

> <Gold.PLP.part.buried>
-3.1626

> <Gold.PLP.part.nonpolar>
-34.9043

> <Gold.PLP.part.repulsive>
0.3311

> <Gold.PLP.ligand.clash>
0.0000

> <Gold.PLP.ligand.torsion>
1.0827

> <Gold.PLP.Chemscore.Hbond>
3.0000

> <Gold.PLP.Chemscore.CHOScore>
0.0000

> <Gold.PLP.Chemscore.Metal>
0.0000

> <Gold.Chemscore.Hbonds>
donor molecule, donor type, donor heavy atom, donor atom, acceptor molecule, acceptor atom, score
      L1  H     3    29       P1  7948  1.00
      L1  H     7    43       P1  7949  1.53

> <Gold.PLP.Chemscore.Internal.Correction>
0.0685

> <Gold.Rescore>
     Score         DG    S(hbond)    S(metal)    S(lipo)     H(rot)  DE(clash)    DE(int)     intcor
     12.19     -14.76       0.96        0.00     103.36       2.35       0.33       2.23       ----

> <Gold.Chemscore.Fitness>
12.1949

> <Gold.Chemscore.DG>
-14.7570

> <Gold.Chemscore.ZeroCoef>
-5.4800

> <Gold.Chemscore.Hbond>
0.9555

> <Gold.Chemscore.Metal>
0.0000

> <Gold.Chemscore.Lipo>
103.3606

> <Gold.Chemscore.Internal_Hbond>
0.0000

> <Gold.Chemscore.DEClash>
0.3301

> <Gold.Chemscore.DEInternal>
2.2320

> <Gold.Chemscore.Rot>
2.3467

> <Gold.Chemscore.Internal.Correction>
   9.000000E+99

> <Gold.Chemscore.Hbonds>
donor molecule, donor type, donor heavy atom, donor atom, acceptor molecule, acceptor atom, score
      L1  H     3    29       P1  7948  0.55
      L1  H     7    43       P1  7949  0.11

> <Gold.Chemscore.Hbond.Weighted>
-3.1915

> <Gold.Chemscore.Metal.Weighted>
-0.0000

> <Gold.Chemscore.Lipo.Weighted>
-12.0932

> <Gold.Chemscore.Internal_Hbond.Weighted>
0.0000

> <Gold.Chemscore.DEClash.Weighted>
0.3301

> <Gold.Chemscore.DEInternal.Weighted>
2.2320

> <Gold.Chemscore.Rot.Weighted>
6.0077

> <Gold.Chemscore.Internal.Correction.Weighted>
   9.000000E+99

> <Gold.Protein.RotatedTorsions>
[ 6907 6896 6895 6894 ] final   14.31 input  -60.11 | X-H torsion
[ 7974 7965 7964 7962 ] final -122.23 input  175.53 | X-H torsion
[ 8008 7997 7996 7995 ] final -166.80 input   59.86 | X-H torsion
[ 10167 10162 10161 10158 ] final   82.61 input  -65.29 | X-H torsion
[ 10718 10713 10712 10709 ] final -179.50 input   66.30 | X-H torsion
[ 10763 10752 10751 10750 ] final  -63.45 input  -60.55 | X-H torsion
[ 11005 11000 10999 10996 ] final  162.12 input  -57.11 | X-H torsion

> <Gold.Protein.ActiveResidues>
 VAL166  LYS551  ARG553  GLY616  TRP617  ASP618  TYR619  PRO620  LYS621  CYS622 
 ASP623  PHE694  ASN695  SER759  ASP760  ASP761  ALA762  ILE779  LEU786  VAL792 
 PHE793  MET794  SER795  GLU796  ALA797  LYS798  CYS799  TRP800  GLU811  SER814 

> <Gold.Protein.RotatedAtoms>
  151.8002  135.0711  160.0398 H   0  0  0  0  0  0  0  0  0  0  0  0  # atno 6907 bound_to 6896
  152.3094  133.5733  159.5679 H   0  0  0  0  0  0  0  0  0  0  0  0  # atno 6908 bound_to 6896
  150.7312  134.0090  159.3705 H   0  0  0  0  0  0  0  0  0  0  0  0  # atno 6909 bound_to 6896
  145.0317  140.8073  143.4319 H   0  0  0  0  0  0  0  0  0  0  0  0  # atno 7974 bound_to 7965
  155.8689  140.0990  157.1564 H   0  0  0  0  0  0  0  0  0  0  0  0  # atno 8008 bound_to 7997
  154.3995  140.1351  156.4116 H   0  0  0  0  0  0  0  0  0  0  0  0  # atno 8009 bound_to 7997
  155.7773  140.3459  155.5281 H   0  0  0  0  0  0  0  0  0  0  0  0  # atno 8010 bound_to 7997
  139.9270  144.6176  150.8383 H   0  0  0  0  0  0  0  0  0  0  0  0  # atno 10167 bound_to 10162
  156.8600  130.9748  151.3084 H   0  0  0  0  0  0  0  0  0  0  0  0  # atno 10718 bound_to 10713
  154.3153  135.6207  153.5483 H   0  0  0  0  0  0  0  0  0  0  0  0  # atno 10763 bound_to 10752
  152.9825  135.5711  154.5132 H   0  0  0  0  0  0  0  0  0  0  0  0  # atno 10764 bound_to 10752
  154.4789  135.2862  155.1562 H   0  0  0  0  0  0  0  0  0  0  0  0  # atno 10765 bound_to 10752
  140.2226  134.8184  157.3236 H   0  0  0  0  0  0  0  0  0  0  0  0  # atno 11005 bound_to 11000
  145.1761  139.2377  143.5316 LP  0  0  0  0  0  0  0  0  0  0  0  0  # atno 17320 bound_to 7965
  146.3499  140.1524  142.8592 LP  0  0  0  0  0  0  0  0  0  0  0  0  # atno 17321 bound_to 7965
  140.7647  143.3257  151.2521 LP  0  0  0  0  0  0  0  0  0  0  0  0  # atno 17342 bound_to 10162
  139.6814  143.9848  152.2810 LP  0  0  0  0  0  0  0  0  0  0  0  0  # atno 17343 bound_to 10162
  157.6256  130.8688  149.9183 LP  0  0  0  0  0  0  0  0  0  0  0  0  # atno 17370 bound_to 10713
  156.0782  130.3676  150.0634 LP  0  0  0  0  0  0  0  0  0  0  0  0  # atno 17371 bound_to 10713
  140.1834  134.4462  155.7758 LP  0  0  0  0  0  0  0  0  0  0  0  0  # atno 17394 bound_to 11000
  141.2222  133.6994  156.7906 LP  0  0  0  0  0  0  0  0  0  0  0  0  # atno 17395 bound_to 11000

$$$$
