AV-unprocessed.smi:594|AV-procd|sdf|3017|dock3
  -GOLD-   2262023523D 1   1.00000     0.00000
 Structure written by MMmdl.
 40 41  0  0  0  0  0  0  0  0  3 V2000
  153.6218  142.0247  161.1026 C   0  0  0  0  0  0  0  0  0  0  0  0
  152.5111  142.5462  160.1724 C   0  0  1  0  0  0  0  0  0  0  0  0
  152.6177  144.0765  160.0117 C   0  0  0  0  0  0  0  0  0  0  0  0
  151.5159  144.6364  159.0995 C   0  0  0  0  0  0  0  0  0  0  0  0
  151.5407  143.9533  157.7258 C   0  0  0  0  0  0  0  0  0  0  0  0
  151.4153  142.4297  157.8689 C   0  0  0  0  0  0  0  0  0  0  0  0
  152.5112  141.8510  158.7856 C   0  0  2  0  0  0  0  0  0  0  0  0
  152.2958  140.4115  158.9254 N   0  0  0  0  0  0  0  0  0  0  0  0
  152.3049  139.5126  157.9288 C   0  0  0  0  0  0  0  0  0  0  0  0
  152.4690  139.8110  156.7451 O   0  0  0  0  0  0  0  0  0  0  0  0
  152.0863  138.0507  158.3409 C   0  0  0  0  0  0  0  0  0  0  0  0
  150.8102  137.5037  157.8501 N   0  0  0  0  0  0  0  0  0  0  0  0
  149.7471  137.4258  158.7717 C   0  0  0  0  0  0  0  0  0  0  0  0
  148.5353  136.9473  158.4279 C   0  0  0  0  0  0  0  0  0  0  0  0
  147.4540  136.8779  159.3860 N   0  3  0  0  0  0  0  0  0  0  0  0
  147.6244  137.3599  160.5013 O   0  0  0  0  0  0  0  0  0  0  0  0
  146.3999  136.3421  159.0568 O   0  5  0  0  0  0  0  0  0  0  0  0
  148.3482  136.5055  157.0593 C   0  0  0  0  0  0  0  0  0  0  0  0
  149.3599  136.5802  156.1723 C   0  0  0  0  0  0  0  0  0  0  0  0
  150.6776  137.1030  156.5482 C   0  0  0  0  0  0  0  0  0  0  0  0
  151.6053  137.1763  155.7418 O   0  0  0  0  0  0  0  0  0  0  0  0
  154.6066  142.1526  160.6523 H   0  0  0  0  0  0  0  0  0  0  0  0
  153.4945  140.9662  161.3296 H   0  0  0  0  0  0  0  0  0  0  0  0
  153.6195  142.5583  162.0534 H   0  0  0  0  0  0  0  0  0  0  0  0
  151.5563  142.3340  160.6564 H   0  0  0  0  0  0  0  0  0  0  0  0
  152.5582  144.5588  160.9881 H   0  0  0  0  0  0  0  0  0  0  0  0
  153.5946  144.3351  159.6005 H   0  0  0  0  0  0  0  0  0  0  0  0
  150.5414  144.4872  159.5664 H   0  0  0  0  0  0  0  0  0  0  0  0
  151.6414  145.7131  158.9817 H   0  0  0  0  0  0  0  0  0  0  0  0
  150.7312  144.3373  157.1043 H   0  0  0  0  0  0  0  0  0  0  0  0
  152.4704  144.1981  157.2106 H   0  0  0  0  0  0  0  0  0  0  0  0
  150.4303  142.1864  158.2700 H   0  0  0  0  0  0  0  0  0  0  0  0
  151.4702  141.9655  156.8833 H   0  0  0  0  0  0  0  0  0  0  0  0
  153.4741  142.0404  158.3072 H   0  0  0  0  0  0  0  0  0  0  0  0
  152.1481  140.0685  159.8635 H   0  0  0  0  0  0  0  0  0  0  0  0
  152.9156  137.4380  157.9816 H   0  0  0  0  0  0  0  0  0  0  0  0
  152.1403  137.9936  159.4289 H   0  0  0  0  0  0  0  0  0  0  0  0
  149.9848  137.7863  159.7621 H   0  0  0  0  0  0  0  0  0  0  0  0
  147.3957  136.1123  156.7357 H   0  0  0  0  0  0  0  0  0  0  0  0
  149.1984  136.2465  155.1577 H   0  0  0  0  0  0  0  0  0  0  0  0
  1  2  1  0  0  0  0
  1 22  1  0  0  0  0
  1 23  1  0  0  0  0
  1 24  1  0  0  0  0
  2  7  1  0  0  0  0
  2  3  1  0  0  0  0
  2 25  1  0  0  0  0
  3  4  1  0  0  0  0
  3 26  1  0  0  0  0
  3 27  1  0  0  0  0
  4  5  1  0  0  0  0
  4 28  1  0  0  0  0
  4 29  1  0  0  0  0
  5  6  1  0  0  0  0
  5 30  1  0  0  0  0
  5 31  1  0  0  0  0
  6  7  1  0  0  0  0
  6 32  1  0  0  0  0
  6 33  1  0  0  0  0
  7  8  1  0  0  0  0
  7 34  1  0  0  0  0
  8  9  1  0  0  0  0
  8 35  1  0  0  0  0
  9 10  2  0  0  0  0
  9 11  1  0  0  0  0
 11 12  1  0  0  0  0
 11 36  1  0  0  0  0
 11 37  1  0  0  0  0
 12 20  1  0  0  0  0
 12 13  1  0  0  0  0
 13 14  2  0  0  0  0
 13 38  1  0  0  0  0
 14 15  1  0  0  0  0
 14 18  1  0  0  0  0
 15 16  2  0  0  0  0
 15 17  1  0  0  0  0
 18 19  2  0  0  0  0
 18 39  1  0  0  0  0
 19 20  1  0  0  0  0
 19 40  1  0  0  0  0
 20 21  2  0  0  0  0
M  CHG  1  15   1
M  CHG  1  17  -1
M  END
> <s_m_source_file>
AV-unprocessed.smi

> <i_m_source_file_index>
594

> <i_lp_mmshare_version>
43012

> <i_f3d_flags>
0

> <s_epik_input>
W0NIM11bQ0BASF0xW0NIMl1bQ0gyXVtDSDJdW0NIMl1bQ0BIXTFbTkhdQyg9TylbQ0gyXW4yW2NIXWMoW04rXSg9TylbTy1dKVtjSF1bY0hdYzI9Tw==

> <s_epik_cmdline>
J2VwaWtfcHl0aG9uJywgJy1waCcsICc3LjAnLCAnLXRuJywgJzgnLCAnLW1hJywgJzIwMCcsICctbWV0YWxfYmluZGluZycsICctaW1hZScsICc8aW5maWxlLm1hZT4nLCAnLW9tYWUnLCAnPG91dGZpbGUubWFlPic=

> <r_lp_tautomer_probability>
1

> <r_epik_Ionization_Penalty>
1.91305e-08

> <r_epik_Ionization_Penalty_Charging>
8.35811e-11

> <r_epik_Ionization_Penalty_Neutral>
1.90469e-08

> <r_epik_State_Penalty>
-0

> <r_epik_Charging_Adjusted_Penalty>
8.35811e-11

> <i_epik_Tot_Q>
0

> <i_epik_Tot_abs_Q>
2

> <r_epik_Metal_State_Penalty>
-0

> <b_epik_Metal_Only>
0

> <s_lp_Force_Field>
OPLS_2005

> <r_lp_Energy>
21.4369

> <b_lp_Chiralities_Consistent>
1

> <s_lp_Variant>
AV-unprocessed.smi:594-4

> <Gold.Version>
5.8.1

> <Gold.Id.Protein>
6NUR|6NUR_protein|mol2

> <Gold.PLP.Fitness>
48.4991

> <Gold.PLP.PLP>
-38.3307

> <Gold.PLP.part.hbond>
-4.0000

> <Gold.PLP.part.metal>
0.0000

> <Gold.PLP.part.buried>
-5.1918

> <Gold.PLP.part.nonpolar>
-28.9152

> <Gold.PLP.part.repulsive>
0.1312

> <Gold.PLP.ligand.clash>
0.0000

> <Gold.PLP.ligand.torsion>
0.3264

> <Gold.PLP.Chemscore.Hbond>
3.5998

> <Gold.PLP.Chemscore.CHOScore>
0.0000

> <Gold.PLP.Chemscore.Metal>
0.0000

> <Gold.Chemscore.Hbonds>
donor molecule, donor type, donor heavy atom, donor atom, acceptor molecule, acceptor atom, score
      P1  H  6931  6943       L1    16  0.44
      P1  H  6934  6947       L1    16  0.93
      P1  H  7997  8008       L1    10  1.00

> <Gold.PLP.Chemscore.Internal.Correction>
0.0220

> <Gold.Rescore>
     Score         DG    S(hbond)    S(metal)    S(lipo)     H(rot)  DE(clash)    DE(int)     intcor
     22.43     -24.04       3.30        0.00      98.40       1.55       0.04       1.56       ----

> <Gold.Chemscore.Fitness>
22.4330

> <Gold.Chemscore.DG>
-24.0398

> <Gold.Chemscore.ZeroCoef>
-5.4800

> <Gold.Chemscore.Hbond>
3.2984

> <Gold.Chemscore.Metal>
0.0000

> <Gold.Chemscore.Lipo>
98.3970

> <Gold.Chemscore.Internal_Hbond>
0.0000

> <Gold.Chemscore.DEClash>
0.0449

> <Gold.Chemscore.DEInternal>
1.5620

> <Gold.Chemscore.Rot>
1.5505

> <Gold.Chemscore.Internal.Correction>
   9.000000E+99

> <Gold.Chemscore.Hbonds>
donor molecule, donor type, donor heavy atom, donor atom, acceptor molecule, acceptor atom, score
      P1  H  6931  6943       L1    16  0.44
      P1  H  6934  6947       L1    16  0.90
      P1  H  7997  8008       L1    10  0.34
      P1  H 10752 10764       L1    21  0.02

> <Gold.Chemscore.Hbond.Weighted>
-11.0165

> <Gold.Chemscore.Metal.Weighted>
-0.0000

> <Gold.Chemscore.Lipo.Weighted>
-11.5125

> <Gold.Chemscore.Internal_Hbond.Weighted>
0.0000

> <Gold.Chemscore.DEClash.Weighted>
0.0449

> <Gold.Chemscore.DEInternal.Weighted>
1.5620

> <Gold.Chemscore.Rot.Weighted>
3.9692

> <Gold.Chemscore.Internal.Correction.Weighted>
   9.000000E+99

> <Gold.Protein.RotatedTorsions>
[ 6907 6896 6895 6894 ] final  115.53 input  -60.11 | X-H torsion
[ 7974 7965 7964 7962 ] final -149.92 input  175.53 | X-H torsion
[ 8008 7997 7996 7995 ] final  -63.12 input   59.86 | X-H torsion
[ 10167 10162 10161 10158 ] final  105.38 input  -65.29 | X-H torsion
[ 10718 10713 10712 10709 ] final   58.42 input   66.30 | X-H torsion
[ 10763 10752 10751 10750 ] final  -18.00 input  -60.55 | X-H torsion
[ 11005 11000 10999 10996 ] final   80.77 input  -57.11 | X-H torsion

> <Gold.Protein.ActiveResidues>
 VAL166  LYS551  ARG553  GLY616  TRP617  ASP618  TYR619  PRO620  LYS621  CYS622 
 ASP623  PHE694  ASN695  SER759  ASP760  ASP761  ALA762  ILE779  LEU786  VAL792 
 PHE793  MET794  SER795  GLU796  ALA797  LYS798  CYS799  TRP800  GLU811  SER814 

> <Gold.Protein.RotatedAtoms>
  152.4736  133.8086  159.6990 H   0  0  0  0  0  0  0  0  0  0  0  0  # atno 6907 bound_to 6896
  150.8739  133.7457  159.2959 H   0  0  0  0  0  0  0  0  0  0  0  0  # atno 6908 bound_to 6896
  151.4983  135.1064  159.9874 H   0  0  0  0  0  0  0  0  0  0  0  0  # atno 6909 bound_to 6896
  144.7938  140.5001  143.5754 H   0  0  0  0  0  0  0  0  0  0  0  0  # atno 7974 bound_to 7965
  154.4537  140.0981  156.6694 H   0  0  0  0  0  0  0  0  0  0  0  0  # atno 8008 bound_to 7997
  155.5205  140.3479  155.4387 H   0  0  0  0  0  0  0  0  0  0  0  0  # atno 8009 bound_to 7997
  156.0734  140.1355  156.9790 H   0  0  0  0  0  0  0  0  0  0  0  0  # atno 8010 bound_to 7997
  139.7098  144.7080  151.1047 H   0  0  0  0  0  0  0  0  0  0  0  0  # atno 10167 bound_to 10162
  157.5595  130.8825  149.9088 H   0  0  0  0  0  0  0  0  0  0  0  0  # atno 10718 bound_to 10713
  153.5825  135.7004  153.5457 H   0  0  0  0  0  0  0  0  0  0  0  0  # atno 10763 bound_to 10752
  153.3248  135.4064  155.1447 H   0  0  0  0  0  0  0  0  0  0  0  0  # atno 10764 bound_to 10752
  154.8615  135.3704  154.5353 H   0  0  0  0  0  0  0  0  0  0  0  0  # atno 10765 bound_to 10752
  139.9122  134.7946  156.1953 H   0  0  0  0  0  0  0  0  0  0  0  0  # atno 11005 bound_to 11000
  145.5725  139.1484  143.3280 LP  0  0  0  0  0  0  0  0  0  0  0  0  # atno 17320 bound_to 7965
  146.2200  140.5858  142.9021 LP  0  0  0  0  0  0  0  0  0  0  0  0  # atno 17321 bound_to 7965
  140.7730  143.5309  150.9424 LP  0  0  0  0  0  0  0  0  0  0  0  0  # atno 17342 bound_to 10162
  139.8993  143.6855  152.3133 LP  0  0  0  0  0  0  0  0  0  0  0  0  # atno 17343 bound_to 10162
  156.0649  130.3694  150.0900 LP  0  0  0  0  0  0  0  0  0  0  0  0  # atno 17370 bound_to 10713
  156.9065  130.9637  151.3569 LP  0  0  0  0  0  0  0  0  0  0  0  0  # atno 17371 bound_to 10713
  141.0558  133.6866  156.1858 LP  0  0  0  0  0  0  0  0  0  0  0  0  # atno 17394 bound_to 11000
  140.6739  134.4839  157.5588 LP  0  0  0  0  0  0  0  0  0  0  0  0  # atno 17395 bound_to 11000

$$$$
