AV-unprocessed.smi:290|AV-procd|sdf|2241|dock3
  -GOLD-   2262022113D 1   1.00000     0.00000
 Structure written by MMmdl.
 59 62  0  0  0  0  0  0  0  0  2 V2000
  153.4332  141.9330  159.5577 C   0  0  0  0  0  0  0  0  0  0  0  0
  152.6859  143.0774  158.8537 C   0  0  2  0  0  0  0  0  0  0  0  0
  152.4930  144.1698  159.7401 O   0  0  0  0  0  0  0  0  0  0  0  0
  151.4964  144.9962  159.1664 C   0  0  0  0  0  0  0  0  0  0  0  0
  150.4525  143.9905  158.6959 C   0  0  0  0  0  0  0  0  0  0  0  0
  151.2742  142.7616  158.2929 C   0  0  2  0  0  0  0  0  0  0  0  0
  150.7044  141.6256  158.9219 O   0  0  0  0  0  0  0  0  0  0  0  0
  151.2586  142.5293  156.7618 C   0  0  0  0  0  0  0  0  0  0  0  0
  150.1905  141.6477  156.3138 N   0  0  0  0  0  0  0  0  0  0  0  0
  148.8437  141.8042  156.5452 C   0  0  0  0  0  0  0  0  0  0  0  0
  148.0824  140.8732  156.0404 N   0  0  0  0  0  0  0  0  0  0  0  0
  148.9640  140.0156  155.3903 C   0  0  0  0  0  0  0  0  0  0  0  0
  148.8235  138.8125  154.6342 C   0  0  0  0  0  0  0  0  0  0  0  0
  147.6455  138.1982  154.3458 N   0  0  0  0  0  0  0  0  0  0  0  0
  147.3672  136.8398  154.7754 C   0  0  0  0  0  0  0  0  0  0  0  0
  145.8569  136.8074  154.9665 C   0  0  0  0  0  0  0  0  0  0  0  0
  145.3222  137.7969  153.9172 C   0  0  1  0  0  0  0  0  0  0  0  0
  143.9658  138.3222  154.2734 N   0  3  2  0  0  0  0  0  0  0  0  0
  143.9168  138.7974  155.6812 C   0  0  0  0  0  0  0  0  0  0  0  0
  142.8401  137.3983  153.9500 C   0  0  0  0  0  0  0  0  0  0  0  0
  141.4480  138.0564  154.0039 C   0  0  0  0  0  0  0  0  0  0  0  0
  141.3153  139.0050  152.9662 O   0  0  0  0  0  0  0  0  0  0  0  0
  146.4527  138.8584  153.8236 C   0  0  2  0  0  0  0  0  0  0  0  0
  146.6973  139.3355  152.3747 C   0  0  0  0  0  0  0  0  0  0  0  0
  149.9623  138.2390  154.1644 N   0  0  0  0  0  0  0  0  0  0  0  0
  151.1525  138.7983  154.3957 C   0  0  0  0  0  0  0  0  0  0  0  0
  151.4304  139.9149  155.0684 N   0  0  0  0  0  0  0  0  0  0  0  0
  150.2970  140.4931  155.5575 C   0  0  0  0  0  0  0  0  0  0  0  0
  145.2546  137.2727  152.9619 H   0  0  0  0  0  0  0  0  0  0  0  0
  146.2168  139.6950  154.4802 H   0  0  0  0  0  0  0  0  0  0  0  0
  153.5734  141.0833  158.8894 H   0  0  0  0  0  0  0  0  0  0  0  0
  152.8964  141.5857  160.4408 H   0  0  0  0  0  0  0  0  0  0  0  0
  154.4199  142.2620  159.8839 H   0  0  0  0  0  0  0  0  0  0  0  0
  153.3159  143.4565  158.0485 H   0  0  0  0  0  0  0  0  0  0  0  0
  151.0993  145.7113  159.8871 H   0  0  0  0  0  0  0  0  0  0  0  0
  151.9151  145.5495  158.3241 H   0  0  0  0  0  0  0  0  0  0  0  0
  149.7855  143.7610  159.5289 H   0  0  0  0  0  0  0  0  0  0  0  0
  149.8355  144.3860  157.8882 H   0  0  0  0  0  0  0  0  0  0  0  0
  150.6797  141.7820  159.8533 H   0  0  0  0  0  0  0  0  0  0  0  0
  151.1552  143.4802  156.2372 H   0  0  0  0  0  0  0  0  0  0  0  0
  152.2106  142.1076  156.4369 H   0  0  0  0  0  0  0  0  0  0  0  0
  148.4420  142.6331  157.1102 H   0  0  0  0  0  0  0  0  0  0  0  0
  147.6782  136.1477  153.9921 H   0  0  0  0  0  0  0  0  0  0  0  0
  147.8857  136.5746  155.6978 H   0  0  0  0  0  0  0  0  0  0  0  0
  145.4587  135.7987  154.8556 H   0  0  0  0  0  0  0  0  0  0  0  0
  145.6140  137.1579  155.9709 H   0  0  0  0  0  0  0  0  0  0  0  0
  143.9851  137.9603  156.3770 H   0  0  0  0  0  0  0  0  0  0  0  0
  142.9996  139.3445  155.8918 H   0  0  0  0  0  0  0  0  0  0  0  0
  144.7273  139.4889  155.9072 H   0  0  0  0  0  0  0  0  0  0  0  0
  142.9513  137.0087  152.9400 H   0  0  0  0  0  0  0  0  0  0  0  0
  142.8723  136.5418  154.6248 H   0  0  0  0  0  0  0  0  0  0  0  0
  140.6818  137.2936  153.8623 H   0  0  0  0  0  0  0  0  0  0  0  0
  141.2378  138.5196  154.9669 H   0  0  0  0  0  0  0  0  0  0  0  0
  142.1254  139.4874  152.8931 H   0  0  0  0  0  0  0  0  0  0  0  0
  145.8164  139.7966  151.9322 H   0  0  0  0  0  0  0  0  0  0  0  0
  146.9804  138.5010  151.7322 H   0  0  0  0  0  0  0  0  0  0  0  0
  147.5013  140.0685  152.3196 H   0  0  0  0  0  0  0  0  0  0  0  0
  152.0032  138.2773  153.9818 H   0  0  0  0  0  0  0  0  0  0  0  0
  143.8230  139.1351  153.6908 H   0  0  0  0  0  0  0  0  0  0  0  0
  1  2  1  0  0  0  0
  1 31  1  0  0  0  0
  1 32  1  0  0  0  0
  1 33  1  0  0  0  0
  2  6  1  0  0  0  0
  2  3  1  0  0  0  0
  2 34  1  0  0  0  0
  3  4  1  0  0  0  0
  4  5  1  0  0  0  0
  4 35  1  0  0  0  0
  4 36  1  0  0  0  0
  5  6  1  0  0  0  0
  5 37  1  0  0  0  0
  5 38  1  0  0  0  0
  6  7  1  0  0  0  0
  6  8  1  0  0  0  0
  7 39  1  0  0  0  0
  8  9  1  0  0  0  0
  8 40  1  0  0  0  0
  8 41  1  0  0  0  0
  9 28  1  0  0  0  0
  9 10  1  0  0  0  0
 10 11  2  0  0  0  0
 10 42  1  0  0  0  0
 11 12  1  0  0  0  0
 12 28  2  0  0  0  0
 12 13  1  0  0  0  0
 13 14  1  0  0  0  0
 13 25  2  0  0  0  0
 14 23  1  0  0  0  0
 14 15  1  0  0  0  0
 15 16  1  0  0  0  0
 15 43  1  0  0  0  0
 15 44  1  0  0  0  0
 16 17  1  0  0  0  0
 16 45  1  0  0  0  0
 16 46  1  0  0  0  0
 17 29  1  0  0  0  0
 17 18  1  0  0  0  0
 17 23  1  0  0  0  0
 18 19  1  0  0  0  0
 18 20  1  0  0  0  0
 18 59  1  0  0  0  0
 19 47  1  0  0  0  0
 19 48  1  0  0  0  0
 19 49  1  0  0  0  0
 20 21  1  0  0  0  0
 20 50  1  0  0  0  0
 20 51  1  0  0  0  0
 21 22  1  0  0  0  0
 21 52  1  0  0  0  0
 21 53  1  0  0  0  0
 22 54  1  0  0  0  0
 23 30  1  0  0  0  0
 23 24  1  0  0  0  0
 24 55  1  0  0  0  0
 24 56  1  0  0  0  0
 24 57  1  0  0  0  0
 25 26  1  0  0  0  0
 26 27  2  0  0  0  0
 26 58  1  0  0  0  0
 27 28  1  0  0  0  0
M  CHG  1  18   1
M  END
> <s_m_source_file>
AV-unprocessed.smi

> <i_m_source_file_index>
290

> <i_lp_mmshare_version>
43012

> <i_f3d_flags>
0

> <s_epik_input>
W0NIMl0xW0NIMl1PW0NAQEhdKFtDSDNdKVtDQEBdMShbT0hdKVtDSDJdbihbY0hdbjIpYyhjMjMpbltjSF1uYzNONFtDSDJdW0NIMl1bQ0BIXShbQ0BIXTRbQ0gzXSlOKFtDSDNdKVtDSDJdW0NIMl1bT0hd

> <s_epik_cmdline>
J2VwaWtfcHl0aG9uJywgJy1waCcsICc3LjAnLCAnLXRuJywgJzgnLCAnLW1hJywgJzIwMCcsICctbWV0YWxfYmluZGluZycsICctaW1hZScsICc8aW5maWxlLm1hZT4nLCAnLW9tYWUnLCAnPG91dGZpbGUubWFlPic=

> <r_lp_tautomer_probability>
1

> <r_epik_Ionization_Penalty>
0.0036983

> <r_epik_Ionization_Penalty_Charging>
0.0032725

> <r_epik_Ionization_Penalty_Neutral>
0.000425798

> <r_epik_State_Penalty>
-0

> <r_epik_Charging_Adjusted_Penalty>
0.0032725

> <i_epik_Tot_Q>
1

> <i_epik_Tot_abs_Q>
1

> <r_epik_Metal_State_Penalty>
-0

> <b_epik_Metal_Only>
0

> <s_lp_Force_Field>
OPLS_2005

> <r_lp_Energy>
64.4963

> <b_lp_Chiralities_Consistent>
1

> <s_lp_Variant>
AV-unprocessed.smi:290-27

> <Gold.Version>
5.8.1

> <Gold.Id.Protein>
6NUR|6NUR_protein|mol2

> <Gold.PLP.Fitness>
53.3689

> <Gold.PLP.PLP>
-44.2029

> <Gold.PLP.part.hbond>
-4.3011

> <Gold.PLP.part.metal>
0.0000

> <Gold.PLP.part.buried>
-5.7971

> <Gold.PLP.part.nonpolar>
-34.6864

> <Gold.PLP.part.repulsive>
0.3526

> <Gold.PLP.ligand.clash>
0.0000

> <Gold.PLP.ligand.torsion>
1.8720

> <Gold.PLP.Chemscore.Hbond>
3.5950

> <Gold.PLP.Chemscore.CHOScore>
0.5936

> <Gold.PLP.Chemscore.Metal>
0.0000

> <Gold.Chemscore.Hbonds>
donor molecule, donor type, donor heavy atom, donor atom, acceptor molecule, acceptor atom, score
      L1  H    18    59       P1 10175  2.00
      L1  H    22    54       P1 10175  1.00
      P1  H  7989  7998       L1    27  0.60
      L1  C    10    42       P1  8028  0.47

> <Gold.PLP.Chemscore.Internal.Correction>
0.3441

> <Gold.Rescore>
     Score         DG    S(hbond)    S(metal)    S(lipo)     H(rot)  DE(clash)    DE(int)     intcor
     10.94     -13.69       1.96        0.00      87.68       3.35       0.10       2.65       ----

> <Gold.Chemscore.Fitness>
10.9375

> <Gold.Chemscore.DG>
-13.6887

> <Gold.Chemscore.ZeroCoef>
-5.4800

> <Gold.Chemscore.Hbond>
1.9553

> <Gold.Chemscore.Metal>
0.0000

> <Gold.Chemscore.Lipo>
87.6790

> <Gold.Chemscore.Internal_Hbond>
0.0000

> <Gold.Chemscore.DEClash>
0.0975

> <Gold.Chemscore.DEInternal>
2.6538

> <Gold.Chemscore.Rot>
3.3518

> <Gold.Chemscore.Internal.Correction>
   9.000000E+99

> <Gold.Chemscore.Hbonds>
donor molecule, donor type, donor heavy atom, donor atom, acceptor molecule, acceptor atom, score
      L1  H    18    59       P1 10175  1.00
      L1  H    22    54       P1 10175  0.82
      P1  H  7989  7998       L1    27  0.01

> <Gold.Chemscore.Hbond.Weighted>
-6.5309

> <Gold.Chemscore.Metal.Weighted>
-0.0000

> <Gold.Chemscore.Lipo.Weighted>
-10.2584

> <Gold.Chemscore.Internal_Hbond.Weighted>
0.0000

> <Gold.Chemscore.DEClash.Weighted>
0.0975

> <Gold.Chemscore.DEInternal.Weighted>
2.6538

> <Gold.Chemscore.Rot.Weighted>
8.5806

> <Gold.Chemscore.Internal.Correction.Weighted>
   9.000000E+99

> <Gold.Protein.RotatedTorsions>
[ 6907 6896 6895 6894 ] final  146.82 input  -60.11 | X-H torsion
[ 7974 7965 7964 7962 ] final   63.33 input  175.53 | X-H torsion
[ 8008 7997 7996 7995 ] final  116.09 input   59.86 | X-H torsion
[ 10167 10162 10161 10158 ] final  -22.38 input  -65.29 | X-H torsion
[ 10718 10713 10712 10709 ] final  -31.66 input   66.30 | X-H torsion
[ 10763 10752 10751 10750 ] final  -18.03 input  -60.55 | X-H torsion
[ 11005 11000 10999 10996 ] final -155.63 input  -57.11 | X-H torsion

> <Gold.Protein.ActiveResidues>
 VAL166  LYS551  ARG553  GLY616  TRP617  ASP618  TYR619  PRO620  LYS621  CYS622 
 ASP623  PHE694  ASN695  SER759  ASP760  ASP761  ALA762  ILE779  LEU786  VAL792 
 PHE793  MET794  SER795  GLU796  ALA797  LYS798  CYS799  TRP800  GLU811  SER814 

> <Gold.Protein.RotatedAtoms>
  152.1628  133.4593  159.4869 H   0  0  0  0  0  0  0  0  0  0  0  0  # atno 6907 bound_to 6896
  150.6909  134.2050  159.4346 H   0  0  0  0  0  0  0  0  0  0  0  0  # atno 6908 bound_to 6896
  151.9953  134.9957  160.0614 H   0  0  0  0  0  0  0  0  0  0  0  0  # atno 6909 bound_to 6896
  145.8631  139.3328  143.0807 H   0  0  0  0  0  0  0  0  0  0  0  0  # atno 7974 bound_to 7965
  156.2419  140.2925  156.0470 H   0  0  0  0  0  0  0  0  0  0  0  0  # atno 8008 bound_to 7997
  155.1924  140.0407  157.2920 H   0  0  0  0  0  0  0  0  0  0  0  0  # atno 8009 bound_to 7997
  154.6185  140.2470  155.7585 H   0  0  0  0  0  0  0  0  0  0  0  0  # atno 8010 bound_to 7997
  140.7285  143.4540  151.0476 H   0  0  0  0  0  0  0  0  0  0  0  0  # atno 10167 bound_to 10162
  156.3845  130.4362  149.7443 H   0  0  0  0  0  0  0  0  0  0  0  0  # atno 10718 bound_to 10713
  153.5829  135.7004  153.5455 H   0  0  0  0  0  0  0  0  0  0  0  0  # atno 10763 bound_to 10752
  153.3245  135.4065  155.1444 H   0  0  0  0  0  0  0  0  0  0  0  0  # atno 10764 bound_to 10752
  154.8614  135.3703  154.5358 H   0  0  0  0  0  0  0  0  0  0  0  0  # atno 10765 bound_to 10752
  140.6843  134.4110  157.5224 H   0  0  0  0  0  0  0  0  0  0  0  0  # atno 11005 bound_to 11000
  145.9225  140.9105  143.0398 LP  0  0  0  0  0  0  0  0  0  0  0  0  # atno 17320 bound_to 7965
  144.6726  140.1308  143.7444 LP  0  0  0  0  0  0  0  0  0  0  0  0  # atno 17321 bound_to 7965
  139.8218  143.7809  152.3177 LP  0  0  0  0  0  0  0  0  0  0  0  0  # atno 17342 bound_to 10162
  139.7894  144.7415  150.9975 LP  0  0  0  0  0  0  0  0  0  0  0  0  # atno 17343 bound_to 10162
  156.4520  130.7911  151.2932 LP  0  0  0  0  0  0  0  0  0  0  0  0  # atno 17370 bound_to 10713
  157.7495  131.0092  150.3259 LP  0  0  0  0  0  0  0  0  0  0  0  0  # atno 17371 bound_to 10713
  139.8942  134.8712  156.2188 LP  0  0  0  0  0  0  0  0  0  0  0  0  # atno 17394 bound_to 11000
  141.0292  133.6998  156.1401 LP  0  0  0  0  0  0  0  0  0  0  0  0  # atno 17395 bound_to 11000

$$$$
