AV-unprocessed.smi:179|AV-procd|sdf|1449|dock9
  -GOLD-   2262019243D 1   1.00000     0.00000
 Structure written by MMmdl.
 44 47  0  0  0  0  0  0  0  0  1 V2000
  146.7550  132.4809  150.2515 O   0  0  0  0  0  0  0  0  0  0  0  0
  145.6560  132.3304  149.3750 C   0  0  0  0  0  0  0  0  0  0  0  0
  144.3731  132.9946  149.9133 C   0  0  0  0  0  0  0  0  0  0  0  0
  143.2831  132.8173  148.8394 C   0  0  0  0  0  0  0  0  0  0  0  0
  143.3149  133.8626  147.8883 O   0  0  0  0  0  0  0  0  0  0  0  0
  143.9435  132.6382  151.3566 C   0  0  0  0  0  0  0  0  0  0  0  0
  143.5772  134.1050  151.5972 C   0  0  0  0  0  0  0  0  0  0  0  0
  143.7336  134.7108  152.8905 N   0  0  0  0  0  0  0  0  0  0  0  0
  142.7205  135.0800  153.7478 C   0  0  0  0  0  0  0  0  0  0  0  0
  143.1074  135.6088  154.8764 N   0  0  0  0  0  0  0  0  0  0  0  0
  144.4935  135.6031  154.7949 C   0  0  0  0  0  0  0  0  0  0  0  0
  145.5242  136.0276  155.6765 C   0  0  0  0  0  0  0  0  0  0  0  0
  145.2373  136.6028  156.9457 N   0  0  0  0  0  0  0  0  0  0  0  0
  145.8102  135.9122  158.0972 C   0  0  0  0  0  0  0  0  0  0  0  0
  146.5965  137.1835  158.4293 C   0  0  0  0  0  0  0  0  0  0  0  0
  146.2649  137.7917  159.6612 O   0  0  0  0  0  0  0  0  0  0  0  0
  148.1274  137.1013  158.4745 C   0  0  0  0  0  0  0  0  0  0  0  0
  148.5286  136.4698  159.5786 F   0  0  0  0  0  0  0  0  0  0  0  0
  148.6168  136.4554  157.4173 F   0  0  0  0  0  0  0  0  0  0  0  0
  145.9476  137.8488  157.2109 C   0  0  0  0  0  0  0  0  0  0  0  0
  146.8029  135.8620  155.2429 N   0  0  0  0  0  0  0  0  0  0  0  0
  147.0570  135.3228  154.0473 C   0  0  0  0  0  0  0  0  0  0  0  0
  146.1929  134.8832  153.1322 N   0  0  0  0  0  0  0  0  0  0  0  0
  144.9058  135.0439  153.5517 C   0  0  0  0  0  0  0  0  0  0  0  0
  144.5140  134.4447  150.4343 C   0  0  0  0  0  0  0  0  0  0  0  0
  147.3975  131.8195  150.0449 H   0  0  0  0  0  0  0  0  0  0  0  0
  145.9374  132.7556  148.4111 H   0  0  0  0  0  0  0  0  0  0  0  0
  145.5084  131.2617  149.2167 H   0  0  0  0  0  0  0  0  0  0  0  0
  143.4058  131.8761  148.3030 H   0  0  0  0  0  0  0  0  0  0  0  0
  142.2906  132.7838  149.2898 H   0  0  0  0  0  0  0  0  0  0  0  0
  144.2174  134.0652  147.6935 H   0  0  0  0  0  0  0  0  0  0  0  0
  143.0999  131.9513  151.4302 H   0  0  0  0  0  0  0  0  0  0  0  0
  144.7678  132.2993  151.9848 H   0  0  0  0  0  0  0  0  0  0  0  0
  142.5417  134.2784  151.2987 H   0  0  0  0  0  0  0  0  0  0  0  0
  141.6754  134.9431  153.5109 H   0  0  0  0  0  0  0  0  0  0  0  0
  145.0538  135.6602  158.8410 H   0  0  0  0  0  0  0  0  0  0  0  0
  146.4371  135.0526  157.8571 H   0  0  0  0  0  0  0  0  0  0  0  0
  145.8241  137.1369  160.1810 H   0  0  0  0  0  0  0  0  0  0  0  0
  148.5918  138.0883  158.4759 H   0  0  0  0  0  0  0  0  0  0  0  0
  146.6537  138.1408  156.4323 H   0  0  0  0  0  0  0  0  0  0  0  0
  145.2673  138.6629  157.4636 H   0  0  0  0  0  0  0  0  0  0  0  0
  148.1011  135.2312  153.7867 H   0  0  0  0  0  0  0  0  0  0  0  0
  145.5219  134.6982  150.7637 H   0  0  0  0  0  0  0  0  0  0  0  0
  144.1296  135.2110  149.7604 H   0  0  0  0  0  0  0  0  0  0  0  0
  1  2  1  0  0  0  0
  1 26  1  0  0  0  0
  2  3  1  0  0  0  0
  2 27  1  0  0  0  0
  2 28  1  0  0  0  0
  3 25  1  0  0  0  0
  3  4  1  0  0  0  0
  3  6  1  0  0  0  0
  4  5  1  0  0  0  0
  4 29  1  0  0  0  0
  4 30  1  0  0  0  0
  5 31  1  0  0  0  0
  6  7  1  0  0  0  0
  6 32  1  0  0  0  0
  6 33  1  0  0  0  0
  7  8  1  0  0  0  0
  7 25  1  0  0  0  0
  7 34  1  0  0  0  0
  8 24  1  0  0  0  0
  8  9  1  0  0  0  0
  9 10  2  0  0  0  0
  9 35  1  0  0  0  0
 10 11  1  0  0  0  0
 11 24  2  0  0  0  0
 11 12  1  0  0  0  0
 12 13  1  0  0  0  0
 12 21  2  0  0  0  0
 13 20  1  0  0  0  0
 13 14  1  0  0  0  0
 14 15  1  0  0  0  0
 14 36  1  0  0  0  0
 14 37  1  0  0  0  0
 15 16  1  0  0  0  0
 15 17  1  0  0  0  0
 15 20  1  0  0  0  0
 16 38  1  0  0  0  0
 17 18  1  0  0  0  0
 17 19  1  0  0  0  0
 17 39  1  0  0  0  0
 20 40  1  0  0  0  0
 20 41  1  0  0  0  0
 21 22  1  0  0  0  0
 22 23  2  0  0  0  0
 22 42  1  0  0  0  0
 23 24  1  0  0  0  0
 25 43  1  0  0  0  0
 25 44  1  0  0  0  0
M  END
> <s_m_source_file>
AV-unprocessed.smi

> <i_m_source_file_index>
179

> <i_lp_mmshare_version>
43012

> <i_f3d_flags>
0

> <s_epik_input>
W09IXVtDSDJdQzEoW0NIMl1bT0hdKVtDSDJdW0NIXShbQ0gyXTEpbihbY0hdbjIpYyhjMjMpbltjSF1uYzNOKFtDSDJdNClbQ0gyXUM0KFtPSF0pW0NIXShGKUY=

> <s_epik_cmdline>
J2VwaWtfcHl0aG9uJywgJy1waCcsICc3LjAnLCAnLXRuJywgJzgnLCAnLW1hJywgJzIwMCcsICctbWV0YWxfYmluZGluZycsICctaW1hZScsICc8aW5maWxlLm1hZT4nLCAnLW9tYWUnLCAnPG91dGZpbGUubWFlPic=

> <r_lp_tautomer_probability>
1

> <r_epik_Ionization_Penalty>
0.00851647

> <r_epik_Ionization_Penalty_Charging>
0

> <r_epik_Ionization_Penalty_Neutral>
0.00851647

> <r_epik_State_Penalty>
0.00617896

> <r_epik_Charging_Adjusted_Penalty>
0.00617896

> <i_epik_Tot_Q>
0

> <i_epik_Tot_abs_Q>
0

> <r_epik_Metal_State_Penalty>
0.00609441

> <b_epik_Metal_Only>
0

> <s_lp_Force_Field>
OPLS_2005

> <r_lp_Energy>
53.402

> <b_lp_Chiralities_Consistent>
1

> <s_lp_Variant>
AV-unprocessed.smi:179-1

> <Gold.Version>
5.8.1

> <Gold.Id.Protein>
6NUR|6NUR_protein|mol2

> <Gold.PLP.Fitness>
44.7150

> <Gold.PLP.PLP>
-32.3133

> <Gold.PLP.part.hbond>
-5.9726

> <Gold.PLP.part.metal>
0.0000

> <Gold.PLP.part.buried>
-2.6559

> <Gold.PLP.part.nonpolar>
-23.4397

> <Gold.PLP.part.repulsive>
0.1923

> <Gold.PLP.ligand.clash>
0.0000

> <Gold.PLP.ligand.torsion>
1.2280

> <Gold.PLP.Chemscore.Hbond>
4.0000

> <Gold.PLP.Chemscore.CHOScore>
0.7266

> <Gold.PLP.Chemscore.Metal>
0.0000

> <Gold.Chemscore.Hbonds>
donor molecule, donor type, donor heavy atom, donor atom, acceptor molecule, acceptor atom, score
      L1  H     1    26       P1 10747  1.00
      L1  H     5    31       P1  7921  1.00
      P1  H  6934  6947       L1    16  0.91
      P1  H 10192 10197       L1     5  1.00
      L1  C    22    42       P1  7948  0.84

> <Gold.PLP.Chemscore.Internal.Correction>
0.6778

> <Gold.Rescore>
     Score         DG    S(hbond)    S(metal)    S(lipo)     H(rot)  DE(clash)    DE(int)     intcor
     10.80     -13.92       3.71        0.00      58.57       4.22       0.84       2.28       ----

> <Gold.Chemscore.Fitness>
10.7963

> <Gold.Chemscore.DG>
-13.9192

> <Gold.Chemscore.ZeroCoef>
-5.4800

> <Gold.Chemscore.Hbond>
3.7118

> <Gold.Chemscore.Metal>
0.0000

> <Gold.Chemscore.Lipo>
58.5715

> <Gold.Chemscore.Internal_Hbond>
0.0000

> <Gold.Chemscore.DEClash>
0.8435

> <Gold.Chemscore.DEInternal>
2.2794

> <Gold.Chemscore.Rot>
4.2230

> <Gold.Chemscore.Internal.Correction>
   9.000000E+99

> <Gold.Chemscore.Hbonds>
donor molecule, donor type, donor heavy atom, donor atom, acceptor molecule, acceptor atom, score
      L1  H     1    26       P1 10747  0.98
      L1  H     5    31       P1  7921  0.93
      P1  H  6934  6947       L1    16  0.57
      P1  H 10192 10197       L1     5  0.86

> <Gold.Chemscore.Hbond.Weighted>
-12.3973

> <Gold.Chemscore.Metal.Weighted>
-0.0000

> <Gold.Chemscore.Lipo.Weighted>
-6.8529

> <Gold.Chemscore.Internal_Hbond.Weighted>
0.0000

> <Gold.Chemscore.DEClash.Weighted>
0.8435

> <Gold.Chemscore.DEInternal.Weighted>
2.2794

> <Gold.Chemscore.Rot.Weighted>
10.8110

> <Gold.Chemscore.Internal.Correction.Weighted>
   9.000000E+99

> <Gold.Protein.RotatedTorsions>
[ 6907 6896 6895 6894 ] final -173.23 input  -60.11 | X-H torsion
[ 7974 7965 7964 7962 ] final   54.44 input  175.53 | X-H torsion
[ 8008 7997 7996 7995 ] final   91.51 input   59.86 | X-H torsion
[ 10167 10162 10161 10158 ] final  155.91 input  -65.29 | X-H torsion
[ 10718 10713 10712 10709 ] final  136.06 input   66.30 | X-H torsion
[ 10763 10752 10751 10750 ] final  -74.72 input  -60.55 | X-H torsion
[ 11005 11000 10999 10996 ] final   81.26 input  -57.11 | X-H torsion

> <Gold.Protein.ActiveResidues>
 VAL166  LYS551  ARG553  GLY616  TRP617  ASP618  TYR619  PRO620  LYS621  CYS622 
 ASP623  PHE694  ASN695  SER759  ASP760  ASP761  ALA762  ILE779  LEU786  VAL792 
 PHE793  MET794  SER795  GLU796  ALA797  LYS798  CYS799  TRP800  GLU811  SER814 

> <Gold.Protein.RotatedAtoms>
  151.5527  133.3415  159.2955 H   0  0  0  0  0  0  0  0  0  0  0  0  # atno 6907 bound_to 6896
  150.8469  134.7783  159.6988 H   0  0  0  0  0  0  0  0  0  0  0  0  # atno 6908 bound_to 6896
  152.4524  134.5372  159.9880 H   0  0  0  0  0  0  0  0  0  0  0  0  # atno 6909 bound_to 6896
  145.9609  139.4058  143.0249 H   0  0  0  0  0  0  0  0  0  0  0  0  # atno 7974 bound_to 7965
  156.0246  140.3336  155.7075 H   0  0  0  0  0  0  0  0  0  0  0  0  # atno 8008 bound_to 7997
  155.5973  140.0652  157.2760 H   0  0  0  0  0  0  0  0  0  0  0  0  # atno 8009 bound_to 7997
  154.4329  140.1816  156.1124 H   0  0  0  0  0  0  0  0  0  0  0  0  # atno 8010 bound_to 7997
  139.4821  144.5056  151.8102 H   0  0  0  0  0  0  0  0  0  0  0  0  # atno 10167 bound_to 10162
  157.4506  131.1065  151.0038 H   0  0  0  0  0  0  0  0  0  0  0  0  # atno 10718 bound_to 10713
  154.4769  135.5855  153.6362 H   0  0  0  0  0  0  0  0  0  0  0  0  # atno 10763 bound_to 10752
  152.9842  135.6080  154.3295 H   0  0  0  0  0  0  0  0  0  0  0  0  # atno 10764 bound_to 10752
  154.3183  135.2844  155.2511 H   0  0  0  0  0  0  0  0  0  0  0  0  # atno 10765 bound_to 10752
  139.9104  134.7983  156.2018 H   0  0  0  0  0  0  0  0  0  0  0  0  # atno 11005 bound_to 11000
  145.8042  140.9757  143.0983 LP  0  0  0  0  0  0  0  0  0  0  0  0  # atno 17320 bound_to 7965
  144.6815  139.9839  143.7483 LP  0  0  0  0  0  0  0  0  0  0  0  0  # atno 17321 bound_to 7965
  140.4554  144.1796  150.5901 LP  0  0  0  0  0  0  0  0  0  0  0  0  # atno 17342 bound_to 10162
  140.4541  143.2475  151.9309 LP  0  0  0  0  0  0  0  0  0  0  0  0  # atno 17343 bound_to 10162
  157.0869  130.5926  149.5432 LP  0  0  0  0  0  0  0  0  0  0  0  0  # atno 17370 bound_to 10713
  155.9985  130.5059  150.7574 LP  0  0  0  0  0  0  0  0  0  0  0  0  # atno 17371 bound_to 10713
  141.0520  133.6884  156.1789 LP  0  0  0  0  0  0  0  0  0  0  0  0  # atno 17394 bound_to 11000
  140.6796  134.4781  157.5589 LP  0  0  0  0  0  0  0  0  0  0  0  0  # atno 17395 bound_to 11000

$$$$
