AV-unprocessed.smi:2390|AV-procd|sdf|9479|dock10
  -GOLD-   2272013113D 1   1.00000     0.00000
 Structure written by MMmdl.
 46 47  0  0  0  0  0  0  0  0  2 V2000
  153.5221  141.4661  160.6280 C   0  0  0  0  0  0  0  0  0  0  0  0
  152.6458  142.5834  160.1015 C   0  0  0  0  0  0  0  0  0  0  0  0
  152.5815  143.8272  160.7596 C   0  0  0  0  0  0  0  0  0  0  0  0
  151.7478  144.8218  160.2177 C   0  0  0  0  0  0  0  0  0  0  0  0
  151.0169  144.5337  159.0489 C   0  0  0  0  0  0  0  0  0  0  0  0
  151.1398  143.2602  158.4492 C   0  0  0  0  0  0  0  0  0  0  0  0
  150.3576  143.0651  157.2799 N   0  0  0  0  0  0  0  0  0  0  0  0
  150.2713  141.9614  156.5174 C   0  0  0  0  0  0  0  0  0  0  0  0
  150.9338  140.9357  156.6732 O   0  0  0  0  0  0  0  0  0  0  0  0
  149.3490  142.1057  155.5532 N   0  0  0  0  0  0  0  0  0  0  0  0
  148.9957  141.1114  154.5358 C   0  0  2  0  0  0  0  0  0  0  0  0
  147.8138  141.6669  153.7235 C   0  0  0  0  0  0  0  0  0  0  0  0
  148.6945  139.7283  155.1823 C   0  0  1  0  0  0  0  0  0  0  0  0
  147.6763  138.8902  154.3788 C   0  0  0  0  0  0  0  0  0  0  0  0
  149.9520  138.9746  155.4678 N   0  3  0  0  0  0  0  0  0  0  0  0
  149.7438  137.6451  156.0888 C   0  0  0  0  0  0  0  0  0  0  0  0
  151.0971  137.0530  156.5206 C   0  0  0  0  0  0  0  0  0  0  0  0
  151.9752  136.9850  155.4027 O   0  0  0  0  0  0  0  0  0  0  0  0
  152.2358  138.2682  154.8448 C   0  0  0  0  0  0  0  0  0  0  0  0
  150.9182  138.8809  154.3445 C   0  0  0  0  0  0  0  0  0  0  0  0
  151.9446  142.3065  158.9810 N   0  0  0  0  0  0  0  0  0  0  0  0
  154.0936  141.7878  161.4991 H   0  0  0  0  0  0  0  0  0  0  0  0
  154.2262  141.1423  159.8609 H   0  0  0  0  0  0  0  0  0  0  0  0
  152.9115  140.6106  160.9178 H   0  0  0  0  0  0  0  0  0  0  0  0
  153.1545  144.0175  161.6552 H   0  0  0  0  0  0  0  0  0  0  0  0
  151.6690  145.7900  160.6903 H   0  0  0  0  0  0  0  0  0  0  0  0
  150.3715  145.2870  158.6208 H   0  0  0  0  0  0  0  0  0  0  0  0
  149.7805  143.8478  157.0094 H   0  0  0  0  0  0  0  0  0  0  0  0
  148.8594  142.9876  155.5040 H   0  0  0  0  0  0  0  0  0  0  0  0
  149.8309  141.0019  153.8421 H   0  0  0  0  0  0  0  0  0  0  0  0
  147.5837  141.0385  152.8636 H   0  0  0  0  0  0  0  0  0  0  0  0
  148.0393  142.6610  153.3357 H   0  0  0  0  0  0  0  0  0  0  0  0
  146.9127  141.7455  154.3328 H   0  0  0  0  0  0  0  0  0  0  0  0
  148.2342  139.9426  156.1482 H   0  0  0  0  0  0  0  0  0  0  0  0
  146.6969  139.3675  154.3583 H   0  0  0  0  0  0  0  0  0  0  0  0
  147.5320  137.9043  154.8206 H   0  0  0  0  0  0  0  0  0  0  0  0
  147.9925  138.7512  153.3447 H   0  0  0  0  0  0  0  0  0  0  0  0
  149.0932  137.7344  156.9595 H   0  0  0  0  0  0  0  0  0  0  0  0
  149.2496  136.9763  155.3831 H   0  0  0  0  0  0  0  0  0  0  0  0
  151.5479  137.6531  157.3129 H   0  0  0  0  0  0  0  0  0  0  0  0
  150.9576  136.0492  156.9223 H   0  0  0  0  0  0  0  0  0  0  0  0
  152.7114  138.9137  155.5852 H   0  0  0  0  0  0  0  0  0  0  0  0
  152.9380  138.1591  154.0182 H   0  0  0  0  0  0  0  0  0  0  0  0
  150.5127  138.2595  153.5451 H   0  0  0  0  0  0  0  0  0  0  0  0
  151.1077  139.8666  153.9202 H   0  0  0  0  0  0  0  0  0  0  0  0
  150.4185  139.5209  156.1782 H   0  0  0  0  0  0  0  0  0  0  0  0
  1  2  1  0  0  0  0
  1 22  1  0  0  0  0
  1 23  1  0  0  0  0
  1 24  1  0  0  0  0
  2 21  1  0  0  0  0
  2  3  2  0  0  0  0
  3  4  1  0  0  0  0
  3 25  1  0  0  0  0
  4  5  2  0  0  0  0
  4 26  1  0  0  0  0
  5  6  1  0  0  0  0
  5 27  1  0  0  0  0
  6  7  1  0  0  0  0
  6 21  2  0  0  0  0
  7  8  1  0  0  0  0
  7 28  1  0  0  0  0
  8  9  2  0  0  0  0
  8 10  1  0  0  0  0
 10 11  1  0  0  0  0
 10 29  1  0  0  0  0
 11 12  1  0  0  0  0
 11 13  1  0  0  0  0
 11 30  1  0  0  0  0
 12 31  1  0  0  0  0
 12 32  1  0  0  0  0
 12 33  1  0  0  0  0
 13 14  1  0  0  0  0
 13 15  1  0  0  0  0
 13 34  1  0  0  0  0
 14 35  1  0  0  0  0
 14 36  1  0  0  0  0
 14 37  1  0  0  0  0
 15 20  1  0  0  0  0
 15 16  1  0  0  0  0
 15 46  1  0  0  0  0
 16 17  1  0  0  0  0
 16 38  1  0  0  0  0
 16 39  1  0  0  0  0
 17 18  1  0  0  0  0
 17 40  1  0  0  0  0
 17 41  1  0  0  0  0
 18 19  1  0  0  0  0
 19 20  1  0  0  0  0
 19 42  1  0  0  0  0
 19 43  1  0  0  0  0
 20 44  1  0  0  0  0
 20 45  1  0  0  0  0
M  CHG  1  15   1
M  END
> <s_m_source_file>
AV-unprocessed.smi

> <i_m_source_file_index>
2390

> <i_lp_mmshare_version>
43012

> <i_f3d_flags>
0

> <s_epik_input>
W0NIM11jMVtjSF1bY0hdW2NIXWMobjEpW05IXUMoPU8pW05IXVtDQEhdKFtDSDNdKVtDQEhdKFtDSDNdKU4yW0NIMl1bQ0gyXU9bQ0gyXVtDSDJdMg==

> <s_epik_cmdline>
J2VwaWtfcHl0aG9uJywgJy1waCcsICc3LjAnLCAnLXRuJywgJzgnLCAnLW1hJywgJzIwMCcsICctbWV0YWxfYmluZGluZycsICctaW1hZScsICc8aW5maWxlLm1hZT4nLCAnLW9tYWUnLCAnPG91dGZpbGUubWFlPic=

> <r_epik_Ionization_Penalty>
0.60259

> <r_epik_Ionization_Penalty_Charging>
0.602531

> <r_epik_Ionization_Penalty_Neutral>
5.9516e-05

> <r_epik_State_Penalty>
0.617039

> <r_epik_Charging_Adjusted_Penalty>
1.21957

> <i_epik_Tot_Q>
1

> <i_epik_Tot_abs_Q>
1

> <r_epik_Metal_State_Penalty>
0.617047

> <b_epik_Metal_Only>
0

> <s_lp_Force_Field>
OPLS_2005

> <r_lp_Energy>
26.9068

> <b_lp_Chiralities_Consistent>
1

> <s_lp_Variant>
AV-unprocessed.smi:2390-7

> <Gold.Version>
5.8.1

> <Gold.Id.Protein>
6NUR|6NUR_protein|mol2

> <Gold.PLP.Fitness>
48.9013

> <Gold.PLP.PLP>
-41.3551

> <Gold.PLP.part.hbond>
-3.0000

> <Gold.PLP.part.metal>
0.0000

> <Gold.PLP.part.buried>
-6.3425

> <Gold.PLP.part.nonpolar>
-32.1340

> <Gold.PLP.part.repulsive>
0.2840

> <Gold.PLP.ligand.clash>
0.0000

> <Gold.PLP.ligand.torsion>
0.7872

> <Gold.PLP.Chemscore.Hbond>
2.9920

> <Gold.PLP.Chemscore.CHOScore>
0.0000

> <Gold.PLP.Chemscore.Metal>
0.0000

> <Gold.Chemscore.Hbonds>
donor molecule, donor type, donor heavy atom, donor atom, acceptor molecule, acceptor atom, score
      L1  H     7    28       P1  8028  0.98
      L1  H    10    29       P1  8028  0.99
      P1  H 10752 10765       L1    18  1.00

> <Gold.PLP.Chemscore.Internal.Correction>
0.1445

> <Gold.Rescore>
     Score         DG    S(hbond)    S(metal)    S(lipo)     H(rot)  DE(clash)    DE(int)     intcor
     19.58     -22.84       2.72        0.00     103.09       1.48       0.02       3.24       ----

> <Gold.Chemscore.Fitness>
19.5767

> <Gold.Chemscore.DG>
-22.8356

> <Gold.Chemscore.ZeroCoef>
-5.4800

> <Gold.Chemscore.Hbond>
2.7227

> <Gold.Chemscore.Metal>
0.0000

> <Gold.Chemscore.Lipo>
103.0919

> <Gold.Chemscore.Internal_Hbond>
0.0000

> <Gold.Chemscore.DEClash>
0.0195

> <Gold.Chemscore.DEInternal>
3.2393

> <Gold.Chemscore.Rot>
1.4844

> <Gold.Chemscore.Internal.Correction>
   9.000000E+99

> <Gold.Chemscore.Hbonds>
donor molecule, donor type, donor heavy atom, donor atom, acceptor molecule, acceptor atom, score
      L1  H     7    28       P1  8028  0.87
      L1  H    10    29       P1  8028  0.94
      P1  H 10752 10765       L1    18  0.88

> <Gold.Chemscore.Hbond.Weighted>
-9.0938

> <Gold.Chemscore.Metal.Weighted>
-0.0000

> <Gold.Chemscore.Lipo.Weighted>
-12.0618

> <Gold.Chemscore.Internal_Hbond.Weighted>
0.0000

> <Gold.Chemscore.DEClash.Weighted>
0.0195

> <Gold.Chemscore.DEInternal.Weighted>
3.2393

> <Gold.Chemscore.Rot.Weighted>
3.8000

> <Gold.Chemscore.Internal.Correction.Weighted>
   9.000000E+99

> <Gold.Protein.RotatedTorsions>
[ 6907 6896 6895 6894 ] final  146.68 input  -60.11 | X-H torsion
[ 7974 7965 7964 7962 ] final -108.99 input  175.53 | X-H torsion
[ 8008 7997 7996 7995 ] final  -46.45 input   59.86 | X-H torsion
[ 10167 10162 10161 10158 ] final -153.53 input  -65.29 | X-H torsion
[ 10718 10713 10712 10709 ] final   59.42 input   66.30 | X-H torsion
[ 10763 10752 10751 10750 ] final -170.20 input  -60.55 | X-H torsion
[ 11005 11000 10999 10996 ] final   23.24 input  -57.11 | X-H torsion

> <Gold.Protein.ActiveResidues>
 VAL166  LYS551  ARG553  GLY616  TRP617  ASP618  TYR619  PRO620  LYS621  CYS622 
 ASP623  PHE694  ASN695  SER759  ASP760  ASP761  ALA762  ILE779  LEU786  VAL792 
 PHE793  MET794  SER795  GLU796  ALA797  LYS798  CYS799  TRP800  GLU811  SER814 

> <Gold.Protein.RotatedAtoms>
  152.1648  133.4605  159.4878 H   0  0  0  0  0  0  0  0  0  0  0  0  # atno 6907 bound_to 6896
  150.6911  134.2027  159.4337 H   0  0  0  0  0  0  0  0  0  0  0  0  # atno 6908 bound_to 6896
  151.9931  134.9968  160.0613 H   0  0  0  0  0  0  0  0  0  0  0  0  # atno 6909 bound_to 6896
  145.1861  140.8993  143.3452 H   0  0  0  0  0  0  0  0  0  0  0  0  # atno 7974 bound_to 7965
  154.4007  140.1371  156.4012 H   0  0  0  0  0  0  0  0  0  0  0  0  # atno 8008 bound_to 7997
  155.7822  140.3481  155.5283 H   0  0  0  0  0  0  0  0  0  0  0  0  # atno 8009 bound_to 7997
  155.8662  140.0964  157.1571 H   0  0  0  0  0  0  0  0  0  0  0  0  # atno 8010 bound_to 7997
  139.7089  143.9141  152.2460 H   0  0  0  0  0  0  0  0  0  0  0  0  # atno 10167 bound_to 10162
  157.5674  130.8881  149.9210 H   0  0  0  0  0  0  0  0  0  0  0  0  # atno 10718 bound_to 10713
  154.6441  135.2902  155.0068 H   0  0  0  0  0  0  0  0  0  0  0  0  # atno 10763 bound_to 10752
  154.1184  135.6552  153.4902 H   0  0  0  0  0  0  0  0  0  0  0  0  # atno 10764 bound_to 10752
  153.0341  135.5282  154.7320 H   0  0  0  0  0  0  0  0  0  0  0  0  # atno 10765 bound_to 10752
  140.3718  134.2014  155.7666 H   0  0  0  0  0  0  0  0  0  0  0  0  # atno 11005 bound_to 11000
  145.0088  139.3529  143.6130 LP  0  0  0  0  0  0  0  0  0  0  0  0  # atno 17320 bound_to 7965
  146.3444  139.9341  142.8749 LP  0  0  0  0  0  0  0  0  0  0  0  0  # atno 17321 bound_to 7965
  139.9005  144.6914  150.8671 LP  0  0  0  0  0  0  0  0  0  0  0  0  # atno 17342 bound_to 10162
  140.7728  143.3517  151.2000 LP  0  0  0  0  0  0  0  0  0  0  0  0  # atno 17343 bound_to 10162
  156.0721  130.3683  150.0753 LP  0  0  0  0  0  0  0  0  0  0  0  0  # atno 17370 bound_to 10713
  156.8910  130.9588  151.3588 LP  0  0  0  0  0  0  0  0  0  0  0  0  # atno 17371 bound_to 10713
  141.1952  133.8111  157.0725 LP  0  0  0  0  0  0  0  0  0  0  0  0  # atno 17394 bound_to 11000
  140.0546  134.9787  157.1197 LP  0  0  0  0  0  0  0  0  0  0  0  0  # atno 17395 bound_to 11000

$$$$
