AV-unprocessed.smi:3263|AV-procd|sdf|12493|dock7
  -GOLD-   2272018393D 1   1.00000     0.00000
 Structure written by MMmdl.
 42 44  0  0  0  0  0  0  0  0  2 V2000
  152.5826  139.3738  158.4966 O   0  0  0  0  0  0  0  0  0  0  0  0
  151.7755  140.1383  157.9672 C   0  0  0  0  0  0  0  0  0  0  0  0
  151.0547  141.2024  158.8013 C   0  0  0  0  0  0  0  0  0  0  0  0
  151.4431  142.6434  158.4004 C   0  0  1  0  0  0  0  0  0  0  0  0
  150.4504  143.7421  158.8436 C   0  0  0  0  0  0  0  0  0  0  0  0
  151.3672  144.7796  159.5188 C   0  0  1  0  0  0  0  0  0  0  0  0
  151.8147  144.2387  160.8889 C   0  0  0  0  0  0  0  0  0  0  0  0
  152.8196  143.1375  160.5046 C   0  0  0  0  0  0  0  0  0  0  0  0
  152.7871  143.1646  158.9623 C   0  0  2  0  0  0  0  0  0  0  0  0
  152.6487  144.6616  158.7004 C   0  0  0  0  0  0  0  0  0  0  0  0
  151.4788  140.1001  156.6588 N   0  0  0  0  0  0  0  0  0  0  0  0
  152.0727  139.1799  155.6966 C   0  0  0  0  0  0  0  0  0  0  0  0
  150.9963  138.4543  154.8715 C   0  0  0  0  0  0  0  0  0  0  0  0
  150.5670  137.1482  155.5100 C   0  0  0  0  0  0  0  0  0  0  0  0
  150.9773  136.7729  156.8078 C   0  0  0  0  0  0  0  0  0  0  0  0
  150.5431  135.5399  157.3376 C   0  0  0  0  0  0  0  0  0  0  0  0
  149.7106  134.7087  156.5596 C   0  0  0  0  0  0  0  0  0  0  0  0
  149.3327  135.1322  155.2692 C   0  0  0  0  0  0  0  0  0  0  0  0
  149.7690  136.3207  154.7968 N   0  3  0  0  0  0  0  0  0  0  0  0
  149.9784  141.0553  158.7086 H   0  0  0  0  0  0  0  0  0  0  0  0
  151.3026  141.0350  159.8500 H   0  0  0  0  0  0  0  0  0  0  0  0
  151.5235  142.6803  157.3122 H   0  0  0  0  0  0  0  0  0  0  0  0
  149.9439  144.1698  157.9774 H   0  0  0  0  0  0  0  0  0  0  0  0
  149.6833  143.3755  159.5271 H   0  0  0  0  0  0  0  0  0  0  0  0
  150.9372  145.7804  159.5637 H   0  0  0  0  0  0  0  0  0  0  0  0
  152.3055  145.0168  161.4748 H   0  0  0  0  0  0  0  0  0  0  0  0
  150.9800  143.8544  161.4761 H   0  0  0  0  0  0  0  0  0  0  0  0
  153.8157  143.3975  160.8655 H   0  0  0  0  0  0  0  0  0  0  0  0
  152.5691  142.1669  160.9303 H   0  0  0  0  0  0  0  0  0  0  0  0
  153.6597  142.7020  158.5001 H   0  0  0  0  0  0  0  0  0  0  0  0
  152.5131  144.9102  157.6462 H   0  0  0  0  0  0  0  0  0  0  0  0
  153.4744  145.2516  159.1024 H   0  0  0  0  0  0  0  0  0  0  0  0
  150.8015  140.7606  156.3050 H   0  0  0  0  0  0  0  0  0  0  0  0
  152.7595  139.7208  155.0434 H   0  0  0  0  0  0  0  0  0  0  0  0
  152.6732  138.4535  156.2451 H   0  0  0  0  0  0  0  0  0  0  0  0
  150.1242  139.0981  154.7480 H   0  0  0  0  0  0  0  0  0  0  0  0
  151.3653  138.2435  153.8666 H   0  0  0  0  0  0  0  0  0  0  0  0
  151.6174  137.4192  157.3909 H   0  0  0  0  0  0  0  0  0  0  0  0
  150.8457  135.2344  158.3286 H   0  0  0  0  0  0  0  0  0  0  0  0
  149.3674  133.7605  156.9473 H   0  0  0  0  0  0  0  0  0  0  0  0
  148.7002  134.5609  154.6055 H   0  0  0  0  0  0  0  0  0  0  0  0
  149.4837  136.6078  153.8598 H   0  0  0  0  0  0  0  0  0  0  0  0
  1  2  2  0  0  0  0
  2  3  1  0  0  0  0
  2 11  1  0  0  0  0
  3  4  1  0  0  0  0
  3 20  1  0  0  0  0
  3 21  1  0  0  0  0
  4  9  1  0  0  0  0
  4  5  1  0  0  0  0
  4 22  1  0  0  0  0
  5  6  1  0  0  0  0
  5 23  1  0  0  0  0
  5 24  1  0  0  0  0
  6 10  1  0  0  0  0
  6  7  1  0  0  0  0
  6 25  1  0  0  0  0
  7  8  1  0  0  0  0
  7 26  1  0  0  0  0
  7 27  1  0  0  0  0
  8  9  1  0  0  0  0
  8 28  1  0  0  0  0
  8 29  1  0  0  0  0
  9 10  1  0  0  0  0
  9 30  1  0  0  0  0
 10 31  1  0  0  0  0
 10 32  1  0  0  0  0
 11 12  1  0  0  0  0
 11 33  1  0  0  0  0
 12 13  1  0  0  0  0
 12 34  1  0  0  0  0
 12 35  1  0  0  0  0
 13 14  1  0  0  0  0
 13 36  1  0  0  0  0
 13 37  1  0  0  0  0
 14 19  1  0  0  0  0
 14 15  2  0  0  0  0
 15 16  1  0  0  0  0
 15 38  1  0  0  0  0
 16 17  2  0  0  0  0
 16 39  1  0  0  0  0
 17 18  1  0  0  0  0
 17 40  1  0  0  0  0
 18 19  2  0  0  0  0
 18 41  1  0  0  0  0
 19 42  1  0  0  0  0
M  CHG  1  19   1
M  END
> <s_m_source_file>
AV-unprocessed.smi

> <i_m_source_file_index>
3263

> <i_lp_mmshare_version>
43012

> <i_f3d_flags>
0

> <s_epik_input>
W0NIMl0xW0NIMl1bQ0BASF0oW0NIMl0yKVtDQEBIXShbQ0gyXVtDQEhdMTIpW0NIMl1DKD1PKVtOSF1bQ0gyXVtDSDJdYzNbY0hdW2NIXVtjSF1bY0hdbjM=

> <s_epik_cmdline>
J2VwaWtfcHl0aG9uJywgJy1waCcsICc3LjAnLCAnLXRuJywgJzgnLCAnLW1hJywgJzIwMCcsICctbWV0YWxfYmluZGluZycsICctaW1hZScsICc8aW5maWxlLm1hZT4nLCAnLW9tYWUnLCAnPG91dGZpbGUubWFlPic=

> <r_epik_Ionization_Penalty>
1.83579

> <r_epik_Ionization_Penalty_Charging>
1.83579

> <r_epik_Ionization_Penalty_Neutral>
2.47288e-08

> <r_epik_State_Penalty>
1.95213

> <r_epik_Charging_Adjusted_Penalty>
3.78793

> <i_epik_Tot_Q>
1

> <i_epik_Tot_abs_Q>
1

> <r_epik_Metal_State_Penalty>
1.97847

> <b_epik_Metal_Only>
0

> <s_lp_Force_Field>
OPLS_2005

> <r_lp_Energy>
51.7701

> <b_lp_Chiralities_Consistent>
1

> <s_lp_Variant>
AV-unprocessed.smi:3263-8

> <Gold.Version>
5.8.1

> <Gold.Id.Protein>
6NUR|6NUR_protein|mol2

> <Gold.PLP.Fitness>
51.8402

> <Gold.PLP.PLP>
-43.8527

> <Gold.PLP.part.hbond>
-2.9079

> <Gold.PLP.part.metal>
0.0000

> <Gold.PLP.part.buried>
-4.7054

> <Gold.PLP.part.nonpolar>
-36.6433

> <Gold.PLP.part.repulsive>
0.2090

> <Gold.PLP.ligand.clash>
0.0000

> <Gold.PLP.ligand.torsion>
0.5241

> <Gold.PLP.Chemscore.Hbond>
3.0000

> <Gold.PLP.Chemscore.CHOScore>
0.0000

> <Gold.PLP.Chemscore.Metal>
0.0000

> <Gold.Chemscore.Hbonds>
donor molecule, donor type, donor heavy atom, donor atom, acceptor molecule, acceptor atom, score
      L1  H    19    42       P1  7948  1.79

> <Gold.PLP.Chemscore.Internal.Correction>
0.0358

> <Gold.Rescore>
     Score         DG    S(hbond)    S(metal)    S(lipo)     H(rot)  DE(clash)    DE(int)     intcor
     21.49     -22.11       1.75        0.00     126.26       1.56       0.04       0.58       ----

> <Gold.Chemscore.Fitness>
21.4863

> <Gold.Chemscore.DG>
-22.1097

> <Gold.Chemscore.ZeroCoef>
-5.4800

> <Gold.Chemscore.Hbond>
1.7546

> <Gold.Chemscore.Metal>
0.0000

> <Gold.Chemscore.Lipo>
126.2650

> <Gold.Chemscore.Internal_Hbond>
0.0000

> <Gold.Chemscore.DEClash>
0.0398

> <Gold.Chemscore.DEInternal>
0.5835

> <Gold.Chemscore.Rot>
1.5640

> <Gold.Chemscore.Internal.Correction>
   9.000000E+99

> <Gold.Chemscore.Hbonds>
donor molecule, donor type, donor heavy atom, donor atom, acceptor molecule, acceptor atom, score
      L1  H    19    42       P1  7948  0.71

> <Gold.Chemscore.Hbond.Weighted>
-5.8604

> <Gold.Chemscore.Metal.Weighted>
-0.0000

> <Gold.Chemscore.Lipo.Weighted>
-14.7730

> <Gold.Chemscore.Internal_Hbond.Weighted>
0.0000

> <Gold.Chemscore.DEClash.Weighted>
0.0398

> <Gold.Chemscore.DEInternal.Weighted>
0.5835

> <Gold.Chemscore.Rot.Weighted>
4.0038

> <Gold.Chemscore.Internal.Correction.Weighted>
   9.000000E+99

> <Gold.Protein.RotatedTorsions>
[ 6907 6896 6895 6894 ] final  136.88 input  -60.11 | X-H torsion
[ 7974 7965 7964 7962 ] final  -46.60 input  175.53 | X-H torsion
[ 8008 7997 7996 7995 ] final   36.09 input   59.86 | X-H torsion
[ 10167 10162 10161 10158 ] final -111.88 input  -65.29 | X-H torsion
[ 10718 10713 10712 10709 ] final  -45.84 input   66.30 | X-H torsion
[ 10763 10752 10751 10750 ] final   59.29 input  -60.55 | X-H torsion
[ 11005 11000 10999 10996 ] final -151.86 input  -57.11 | X-H torsion

> <Gold.Protein.ActiveResidues>
 VAL166  LYS551  ARG553  GLY616  TRP617  ASP618  TYR619  PRO620  LYS621  CYS622 
 ASP623  PHE694  ASN695  SER759  ASP760  ASP761  ALA762  ILE779  LEU786  VAL792 
 PHE793  MET794  SER795  GLU796  ALA797  LYS798  CYS799  TRP800  GLU811  SER814 

> <Gold.Protein.RotatedAtoms>
  152.2844  133.5501  159.5517 H   0  0  0  0  0  0  0  0  0  0  0  0  # atno 6907 bound_to 6896
  150.7209  134.0518  159.3810 H   0  0  0  0  0  0  0  0  0  0  0  0  # atno 6908 bound_to 6896
  151.8427  135.0585  160.0501 H   0  0  0  0  0  0  0  0  0  0  0  0  # atno 6909 bound_to 6896
  145.9702  140.7390  142.9414 H   0  0  0  0  0  0  0  0  0  0  0  0  # atno 7974 bound_to 7965
  155.1818  140.3300  155.4374 H   0  0  0  0  0  0  0  0  0  0  0  0  # atno 8008 bound_to 7997
  156.2474  140.1925  156.6866 H   0  0  0  0  0  0  0  0  0  0  0  0  # atno 8009 bound_to 7997
  154.6266  140.0588  156.9667 H   0  0  0  0  0  0  0  0  0  0  0  0  # atno 8010 bound_to 7997
  140.1288  143.4379  152.1642 H   0  0  0  0  0  0  0  0  0  0  0  0  # atno 10167 bound_to 10162
  156.2243  130.4168  149.8953 H   0  0  0  0  0  0  0  0  0  0  0  0  # atno 10718 bound_to 10713
  152.9891  135.5577  154.5689 H   0  0  0  0  0  0  0  0  0  0  0  0  # atno 10763 bound_to 10752
  154.5093  135.2801  155.1358 H   0  0  0  0  0  0  0  0  0  0  0  0  # atno 10764 bound_to 10752
  154.2756  135.6354  153.5380 H   0  0  0  0  0  0  0  0  0  0  0  0  # atno 10765 bound_to 10752
  140.7250  134.3684  157.5177 H   0  0  0  0  0  0  0  0  0  0  0  0  # atno 11005 bound_to 11000
  144.6835  140.2737  143.7302 LP  0  0  0  0  0  0  0  0  0  0  0  0  # atno 17320 bound_to 7965
  145.7916  139.1929  143.2099 LP  0  0  0  0  0  0  0  0  0  0  0  0  # atno 17321 bound_to 7965
  139.5530  144.7352  151.4377 LP  0  0  0  0  0  0  0  0  0  0  0  0  # atno 17342 bound_to 10162
  140.6829  143.8040  150.7146 LP  0  0  0  0  0  0  0  0  0  0  0  0  # atno 17343 bound_to 10162
  156.6589  130.8774  151.3544 LP  0  0  0  0  0  0  0  0  0  0  0  0  # atno 17370 bound_to 10713
  157.7103  130.9432  150.1066 LP  0  0  0  0  0  0  0  0  0  0  0  0  # atno 17371 bound_to 10713
  139.8839  134.8980  156.2736 LP  0  0  0  0  0  0  0  0  0  0  0  0  # atno 17394 bound_to 11000
  140.9970  133.7174  156.0901 LP  0  0  0  0  0  0  0  0  0  0  0  0  # atno 17395 bound_to 11000

$$$$
