AV-unprocessed.smi:1007|AV-procd|sdf|4404|dock2
  -GOLD-   22720 2343D 1   1.00000     0.00000
 Structure written by MMmdl.
 57 59  0  0  0  0  0  0  0  0  3 V2000
  142.0454  135.4350  153.0450 C   0  0  0  0  0  0  0  0  0  0  0  0
  143.1940  135.9840  152.4229 O   0  0  0  0  0  0  0  0  0  0  0  0
  143.7851  137.0198  153.1899 C   0  0  0  0  0  0  0  0  0  0  0  0
  145.1286  137.4056  152.5525 C   0  0  0  0  0  0  0  0  0  0  0  0
  145.9899  138.1908  153.4719 N   0  3  0  0  0  0  0  0  0  0  0  0
  147.2244  138.7179  152.8308 C   0  0  0  0  0  0  0  0  0  0  0  0
  148.0312  139.5618  153.8383 C   0  0  0  0  0  0  0  0  0  0  0  0
  148.3847  138.8310  155.0584 N   0  0  0  0  0  0  0  0  0  0  0  0
  149.3992  137.7858  154.8778 C   0  0  0  0  0  0  0  0  0  0  0  0
  150.8093  138.2895  154.5136 C   0  0  2  0  0  0  0  0  0  0  0  0
  151.5701  137.1805  154.0786 O   0  0  0  0  0  0  0  0  0  0  0  0
  151.5293  138.9535  155.7049 C   0  0  0  0  0  0  0  0  0  0  0  0
  151.0576  140.3206  155.9572 N   0  0  0  0  0  0  0  0  0  0  0  0
  150.1946  141.0954  155.2460 C   0  0  0  0  0  0  0  0  0  0  0  0
  150.0735  142.2825  155.9027 N   0  3  0  0  0  0  0  0  0  0  0  0
  150.8711  142.2645  157.0493 C   0  0  0  0  0  0  0  0  0  0  0  0
  151.0786  143.2257  158.0315 C   0  0  0  0  0  0  0  0  0  0  0  0
  151.9605  142.8920  159.0846 C   0  0  0  0  0  0  0  0  0  0  0  0
  152.2056  143.9184  160.1774 C   0  0  0  0  0  0  0  0  0  0  0  0
  152.6041  141.6276  159.1258 C   0  0  0  0  0  0  0  0  0  0  0  0
  153.5516  141.2803  160.2614 C   0  0  0  0  0  0  0  0  0  0  0  0
  152.3804  140.6639  158.1166 C   0  0  0  0  0  0  0  0  0  0  0  0
  151.5067  141.0086  157.0887 C   0  0  0  0  0  0  0  0  0  0  0  0
  147.1546  138.3245  155.6663 C   0  0  0  0  0  0  0  0  0  0  0  0
  146.3210  137.4440  154.7126 C   0  0  0  0  0  0  0  0  0  0  0  0
  141.6314  134.6451  152.4183 H   0  0  0  0  0  0  0  0  0  0  0  0
  141.2728  136.1920  153.1858 H   0  0  0  0  0  0  0  0  0  0  0  0
  142.2916  135.0007  154.0149 H   0  0  0  0  0  0  0  0  0  0  0  0
  143.1259  137.8892  153.1932 H   0  0  0  0  0  0  0  0  0  0  0  0
  143.9080  136.7106  154.2280 H   0  0  0  0  0  0  0  0  0  0  0  0
  145.6424  136.4875  152.2640 H   0  0  0  0  0  0  0  0  0  0  0  0
  144.9663  137.9685  151.6321 H   0  0  0  0  0  0  0  0  0  0  0  0
  147.8257  137.8954  152.4418 H   0  0  0  0  0  0  0  0  0  0  0  0
  146.9659  139.3443  151.9781 H   0  0  0  0  0  0  0  0  0  0  0  0
  148.9218  139.9646  153.3587 H   0  0  0  0  0  0  0  0  0  0  0  0
  147.4363  140.4339  154.1134 H   0  0  0  0  0  0  0  0  0  0  0  0
  149.4798  137.2114  155.8020 H   0  0  0  0  0  0  0  0  0  0  0  0
  149.0707  137.0741  154.1207 H   0  0  0  0  0  0  0  0  0  0  0  0
  150.7588  138.9825  153.6745 H   0  0  0  0  0  0  0  0  0  0  0  0
  151.3912  137.0303  153.1627 H   0  0  0  0  0  0  0  0  0  0  0  0
  151.4003  138.3731  156.6191 H   0  0  0  0  0  0  0  0  0  0  0  0
  152.6035  139.0034  155.5210 H   0  0  0  0  0  0  0  0  0  0  0  0
  149.6919  140.8159  154.3312 H   0  0  0  0  0  0  0  0  0  0  0  0
  150.5858  144.1861  157.9935 H   0  0  0  0  0  0  0  0  0  0  0  0
  153.2600  144.1926  160.2160 H   0  0  0  0  0  0  0  0  0  0  0  0
  151.9151  143.5195  161.1496 H   0  0  0  0  0  0  0  0  0  0  0  0
  151.6305  144.8290  160.0065 H   0  0  0  0  0  0  0  0  0  0  0  0
  153.9731  140.2821  160.1384 H   0  0  0  0  0  0  0  0  0  0  0  0
  153.0288  141.3058  161.2177 H   0  0  0  0  0  0  0  0  0  0  0  0
  154.3800  141.9881  160.2998 H   0  0  0  0  0  0  0  0  0  0  0  0
  152.8690  139.7014  158.1461 H   0  0  0  0  0  0  0  0  0  0  0  0
  147.3911  137.7669  156.5735 H   0  0  0  0  0  0  0  0  0  0  0  0
  146.5445  139.1692  155.9896 H   0  0  0  0  0  0  0  0  0  0  0  0
  145.3994  137.1474  155.2147 H   0  0  0  0  0  0  0  0  0  0  0  0
  146.8527  136.5247  154.4642 H   0  0  0  0  0  0  0  0  0  0  0  0
  145.4447  138.9897  153.7645 H   0  0  0  0  0  0  0  0  0  0  0  0
  149.4862  143.0450  155.5906 H   0  0  0  0  0  0  0  0  0  0  0  0
  1  2  1  0  0  0  0
  1 26  1  0  0  0  0
  1 27  1  0  0  0  0
  1 28  1  0  0  0  0
  2  3  1  0  0  0  0
  3  4  1  0  0  0  0
  3 29  1  0  0  0  0
  3 30  1  0  0  0  0
  4  5  1  0  0  0  0
  4 31  1  0  0  0  0
  4 32  1  0  0  0  0
  5 25  1  0  0  0  0
  5  6  1  0  0  0  0
  5 56  1  0  0  0  0
  6  7  1  0  0  0  0
  6 33  1  0  0  0  0
  6 34  1  0  0  0  0
  7  8  1  0  0  0  0
  7 35  1  0  0  0  0
  7 36  1  0  0  0  0
  8  9  1  0  0  0  0
  8 24  1  0  0  0  0
  9 10  1  0  0  0  0
  9 37  1  0  0  0  0
  9 38  1  0  0  0  0
 10 11  1  0  0  0  0
 10 12  1  0  0  0  0
 10 39  1  0  0  0  0
 11 40  1  0  0  0  0
 12 13  1  0  0  0  0
 12 41  1  0  0  0  0
 12 42  1  0  0  0  0
 13 23  1  0  0  0  0
 13 14  1  0  0  0  0
 14 15  2  0  0  0  0
 14 43  1  0  0  0  0
 15 16  1  0  0  0  0
 15 57  1  0  0  0  0
 16 23  2  0  0  0  0
 16 17  1  0  0  0  0
 17 18  2  0  0  0  0
 17 44  1  0  0  0  0
 18 19  1  0  0  0  0
 18 20  1  0  0  0  0
 19 45  1  0  0  0  0
 19 46  1  0  0  0  0
 19 47  1  0  0  0  0
 20 21  1  0  0  0  0
 20 22  2  0  0  0  0
 21 48  1  0  0  0  0
 21 49  1  0  0  0  0
 21 50  1  0  0  0  0
 22 23  1  0  0  0  0
 22 51  1  0  0  0  0
 24 25  1  0  0  0  0
 24 52  1  0  0  0  0
 24 53  1  0  0  0  0
 25 54  1  0  0  0  0
 25 55  1  0  0  0  0
M  CHG  1   5   1
M  CHG  1  15   1
M  END
> <s_m_source_file>
AV-unprocessed.smi

> <i_m_source_file_index>
1007

> <i_lp_mmshare_version>
43012

> <i_f3d_flags>
0

> <s_epik_input>
W0NIM11PW0NIMl1bQ0gyXU4xW0NIMl1bQ0gyXU4oW0NIMl1bQ0gyXTEpW0NIMl1bQ0BIXShbT0hdKVtDSDJdbihbY0hdbjIpYyhjMjMpW2NIXWMoW0NIM10pYyhbY0hdMylbQ0gzXQ==

> <s_epik_cmdline>
J2VwaWtfcHl0aG9uJywgJy1waCcsICc3LjAnLCAnLXRuJywgJzgnLCAnLW1hJywgJzIwMCcsICctbWV0YWxfYmluZGluZycsICctaW1hZScsICc8aW5maWxlLm1hZT4nLCAnLW9tYWUnLCAnPG91dGZpbGUubWFlPic=

> <r_epik_Ionization_Penalty>
1.34507

> <r_epik_Ionization_Penalty_Charging>
1.29906

> <r_epik_Ionization_Penalty_Neutral>
0.0460038

> <r_epik_State_Penalty>
2.55679

> <r_epik_Charging_Adjusted_Penalty>
3.85586

> <i_epik_Tot_Q>
2

> <i_epik_Tot_abs_Q>
2

> <r_epik_Metal_State_Penalty>
6.56928

> <b_epik_Metal_Only>
0

> <s_lp_Force_Field>
OPLS_2005

> <r_lp_Energy>
40.0573

> <b_lp_Chiralities_Consistent>
1

> <s_lp_Variant>
AV-unprocessed.smi:1007-7

> <Gold.Version>
5.8.1

> <Gold.Id.Protein>
6NUR|6NUR_protein|mol2

> <Gold.PLP.Fitness>
55.7950

> <Gold.PLP.PLP>
-44.7142

> <Gold.PLP.part.hbond>
-2.9675

> <Gold.PLP.part.metal>
0.0000

> <Gold.PLP.part.buried>
-4.4708

> <Gold.PLP.part.nonpolar>
-37.5266

> <Gold.PLP.part.repulsive>
0.3739

> <Gold.PLP.ligand.clash>
0.0000

> <Gold.PLP.ligand.torsion>
0.4222

> <Gold.PLP.Chemscore.Hbond>
3.8775

> <Gold.PLP.Chemscore.CHOScore>
0.0000

> <Gold.PLP.Chemscore.Metal>
0.0000

> <Gold.Chemscore.Hbonds>
donor molecule, donor type, donor heavy atom, donor atom, acceptor molecule, acceptor atom, score
      L1  H    11    40       P1  7949  1.00
      L1  H    15    57       P1  8028  2.00
      P1  H 10752 10763       L1    11  0.75

> <Gold.PLP.Chemscore.Internal.Correction>
0.2927

> <Gold.Rescore>
     Score         DG    S(hbond)    S(metal)    S(lipo)     H(rot)  DE(clash)    DE(int)     intcor
     19.13     -20.01       2.32        0.00     115.73       2.64       0.33       0.55       ----

> <Gold.Chemscore.Fitness>
19.1268

> <Gold.Chemscore.DG>
-20.0140

> <Gold.Chemscore.ZeroCoef>
-5.4800

> <Gold.Chemscore.Hbond>
2.3235

> <Gold.Chemscore.Metal>
0.0000

> <Gold.Chemscore.Lipo>
115.7263

> <Gold.Chemscore.Internal_Hbond>
0.0000

> <Gold.Chemscore.DEClash>
0.3341

> <Gold.Chemscore.DEInternal>
0.5531

> <Gold.Chemscore.Rot>
2.6432

> <Gold.Chemscore.Internal.Correction>
   9.000000E+99

> <Gold.Chemscore.Hbonds>
donor molecule, donor type, donor heavy atom, donor atom, acceptor molecule, acceptor atom, score
      L1  H    11    40       P1  7949  0.79
      L1  H    15    57       P1  8028  0.98
      P1  H 10752 10763       L1    11  0.11

> <Gold.Chemscore.Hbond.Weighted>
-7.7606

> <Gold.Chemscore.Metal.Weighted>
-0.0000

> <Gold.Chemscore.Lipo.Weighted>
-13.5400

> <Gold.Chemscore.Internal_Hbond.Weighted>
0.0000

> <Gold.Chemscore.DEClash.Weighted>
0.3341

> <Gold.Chemscore.DEInternal.Weighted>
0.5531

> <Gold.Chemscore.Rot.Weighted>
6.7665

> <Gold.Chemscore.Internal.Correction.Weighted>
   9.000000E+99

> <Gold.Protein.RotatedTorsions>
[ 6907 6896 6895 6894 ] final -114.23 input  -60.11 | X-H torsion
[ 7974 7965 7964 7962 ] final -123.79 input  175.53 | X-H torsion
[ 8008 7997 7996 7995 ] final -126.16 input   59.86 | X-H torsion
[ 10167 10162 10161 10158 ] final  110.41 input  -65.29 | X-H torsion
[ 10718 10713 10712 10709 ] final  170.70 input   66.30 | X-H torsion
[ 10763 10752 10751 10750 ] final   41.00 input  -60.55 | X-H torsion
[ 11005 11000 10999 10996 ] final -102.35 input  -57.11 | X-H torsion

> <Gold.Protein.ActiveResidues>
 VAL166  LYS551  ARG553  GLY616  TRP617  ASP618  TYR619  PRO620  LYS621  CYS622 
 ASP623  PHE694  ASN695  SER759  ASP760  ASP761  ALA762  ILE779  LEU786  VAL792 
 PHE793  MET794  SER795  GLU796  ALA797  LYS798  CYS799  TRP800  GLU811  SER814 

> <Gold.Protein.RotatedAtoms>
  150.7887  133.8830  159.3291 H   0  0  0  0  0  0  0  0  0  0  0  0  # atno 6907 bound_to 6896
  151.6674  135.0979  160.0201 H   0  0  0  0  0  0  0  0  0  0  0  0  # atno 6908 bound_to 6896
  152.3957  133.6704  159.6309 H   0  0  0  0  0  0  0  0  0  0  0  0  # atno 6909 bound_to 6896
  145.0149  140.7938  143.4416 H   0  0  0  0  0  0  0  0  0  0  0  0  # atno 7974 bound_to 7965
  155.2251  140.0423  157.2954 H   0  0  0  0  0  0  0  0  0  0  0  0  # atno 8008 bound_to 7997
  154.5924  140.2430  155.7873 H   0  0  0  0  0  0  0  0  0  0  0  0  # atno 8009 bound_to 7997
  156.2268  140.2952  156.0096 H   0  0  0  0  0  0  0  0  0  0  0  0  # atno 8010 bound_to 7997
  139.6691  144.7126  151.1722 H   0  0  0  0  0  0  0  0  0  0  0  0  # atno 10167 bound_to 10162
  157.0043  131.0185  151.2821 H   0  0  0  0  0  0  0  0  0  0  0  0  # atno 10718 bound_to 10713
  152.9920  135.6175  154.2717 H   0  0  0  0  0  0  0  0  0  0  0  0  # atno 10763 bound_to 10752
  154.2450  135.2787  155.2841 H   0  0  0  0  0  0  0  0  0  0  0  0  # atno 10764 bound_to 10752
  154.5337  135.5781  153.6838 H   0  0  0  0  0  0  0  0  0  0  0  0  # atno 10765 bound_to 10752
  141.1193  133.8551  157.1348 H   0  0  0  0  0  0  0  0  0  0  0  0  # atno 11005 bound_to 11000
  145.1973  139.2270  143.5211 LP  0  0  0  0  0  0  0  0  0  0  0  0  # atno 17320 bound_to 7965
  146.3476  140.1783  142.8589 LP  0  0  0  0  0  0  0  0  0  0  0  0  # atno 17321 bound_to 7965
  140.7611  143.5873  150.8832 LP  0  0  0  0  0  0  0  0  0  0  0  0  # atno 17342 bound_to 10162
  139.9537  143.6243  152.3022 LP  0  0  0  0  0  0  0  0  0  0  0  0  # atno 17343 bound_to 10162
  157.5367  130.8093  149.7980 LP  0  0  0  0  0  0  0  0  0  0  0  0  # atno 17370 bound_to 10713
  156.0159  130.3814  150.2112 LP  0  0  0  0  0  0  0  0  0  0  0  0  # atno 17371 bound_to 10713
  140.0138  134.9976  157.0450 LP  0  0  0  0  0  0  0  0  0  0  0  0  # atno 17394 bound_to 11000
  140.4555  134.1538  155.7186 LP  0  0  0  0  0  0  0  0  0  0  0  0  # atno 17395 bound_to 11000

$$$$
