AV-unprocessed.smi:2087|AV-procd|sdf|8520|dock1
  -GOLD-   2272011233D 1   1.00000     0.00000
 Structure written by MMmdl.
 51 52  0  0  0  0  0  0  0  0  2 V2000
  144.8179  132.1327  151.7483 C   0  0  0  0  0  0  0  0  0  0  0  0
  145.5546  132.8203  150.5893 C   0  0  0  0  0  0  0  0  0  0  0  0
  145.8510  131.8094  149.4682 C   0  0  0  0  0  0  0  0  0  0  0  0
  146.8384  133.5119  151.0976 C   0  0  0  0  0  0  0  0  0  0  0  0
  146.5691  134.7751  151.8312 N   0  3  1  0  0  0  0  0  0  0  0  0
  145.6918  135.7196  151.0958 C   0  0  0  0  0  0  0  0  0  0  0  0
  145.4982  137.0125  151.9052 C   0  0  0  0  0  0  0  0  0  0  0  0
  144.9803  136.6923  153.1888 O   0  0  0  0  0  0  0  0  0  0  0  0
  145.8679  135.8732  153.9440 C   0  0  1  0  0  0  0  0  0  0  0  0
  145.2917  135.6820  155.3590 C   0  0  0  0  0  0  0  0  0  0  0  0
  146.3487  135.7602  156.3603 N   0  0  0  0  0  0  0  0  0  0  0  0
  146.4645  136.7279  157.2816 C   0  0  0  0  0  0  0  0  0  0  0  0
  145.6103  137.5955  157.4650 O   0  0  0  0  0  0  0  0  0  0  0  0
  147.7545  136.7239  158.1104 C   0  0  0  0  0  0  0  0  0  0  0  0
  147.7408  135.6833  159.1473 N   0  0  0  0  0  0  0  0  0  0  0  0
  147.7970  134.3502  158.7839 C   0  0  0  0  0  0  0  0  0  0  0  0
  147.7820  133.3341  159.6743 C   0  0  0  0  0  0  0  0  0  0  0  0
  147.6972  133.5935  161.1065 C   0  0  0  0  0  0  0  0  0  0  0  0
  147.6975  132.6979  161.9516 O   0  0  0  0  0  0  0  0  0  0  0  0
  147.6257  134.9646  161.4507 N   0  0  0  0  0  0  0  0  0  0  0  0
  147.5456  135.3263  162.8509 C   0  0  0  0  0  0  0  0  0  0  0  0
  147.6639  136.0233  160.5166 C   0  0  0  0  0  0  0  0  0  0  0  0
  147.6331  137.2052  160.8710 O   0  0  0  0  0  0  0  0  0  0  0  0
  146.0438  134.5378  153.1971 C   0  0  0  0  0  0  0  0  0  0  0  0
  145.4272  131.3470  152.1964 H   0  0  0  0  0  0  0  0  0  0  0  0
  143.8872  131.6780  151.4077 H   0  0  0  0  0  0  0  0  0  0  0  0
  144.5650  132.8461  152.5331 H   0  0  0  0  0  0  0  0  0  0  0  0
  144.8757  133.5736  150.1907 H   0  0  0  0  0  0  0  0  0  0  0  0
  146.5319  131.0284  149.8078 H   0  0  0  0  0  0  0  0  0  0  0  0
  146.3031  132.2922  148.6016 H   0  0  0  0  0  0  0  0  0  0  0  0
  144.9357  131.3251  149.1266 H   0  0  0  0  0  0  0  0  0  0  0  0
  147.4100  132.8395  151.7392 H   0  0  0  0  0  0  0  0  0  0  0  0
  147.4750  133.7233  150.2369 H   0  0  0  0  0  0  0  0  0  0  0  0
  146.1202  135.9670  150.1253 H   0  0  0  0  0  0  0  0  0  0  0  0
  144.7242  135.2509  150.9088 H   0  0  0  0  0  0  0  0  0  0  0  0
  146.4373  137.5594  152.0031 H   0  0  0  0  0  0  0  0  0  0  0  0
  144.7967  137.6744  151.3971 H   0  0  0  0  0  0  0  0  0  0  0  0
  146.8369  136.3700  154.0265 H   0  0  0  0  0  0  0  0  0  0  0  0
  144.5020  136.4079  155.5608 H   0  0  0  0  0  0  0  0  0  0  0  0
  144.8337  134.6960  155.4408 H   0  0  0  0  0  0  0  0  0  0  0  0
  147.0918  135.0797  156.2936 H   0  0  0  0  0  0  0  0  0  0  0  0
  148.5958  136.5776  157.4319 H   0  0  0  0  0  0  0  0  0  0  0  0
  147.9117  137.6992  158.5751 H   0  0  0  0  0  0  0  0  0  0  0  0
  147.8564  134.1032  157.7338 H   0  0  0  0  0  0  0  0  0  0  0  0
  147.8326  132.3144  159.3218 H   0  0  0  0  0  0  0  0  0  0  0  0
  146.8203  136.1352  162.9576 H   0  0  0  0  0  0  0  0  0  0  0  0
  148.5450  135.6417  163.1544 H   0  0  0  0  0  0  0  0  0  0  0  0
  147.2023  134.4808  163.4473 H   0  0  0  0  0  0  0  0  0  0  0  0
  145.0920  134.0069  153.1374 H   0  0  0  0  0  0  0  0  0  0  0  0
  146.7342  133.8989  153.7492 H   0  0  0  0  0  0  0  0  0  0  0  0
  147.4621  135.2323  151.9495 H   0  0  0  0  0  0  0  0  0  0  0  0
  1  2  1  0  0  0  0
  1 25  1  0  0  0  0
  1 26  1  0  0  0  0
  1 27  1  0  0  0  0
  2  3  1  0  0  0  0
  2  4  1  0  0  0  0
  2 28  1  0  0  0  0
  3 29  1  0  0  0  0
  3 30  1  0  0  0  0
  3 31  1  0  0  0  0
  4  5  1  0  0  0  0
  4 32  1  0  0  0  0
  4 33  1  0  0  0  0
  5 24  1  0  0  0  0
  5  6  1  0  0  0  0
  5 51  1  0  0  0  0
  6  7  1  0  0  0  0
  6 34  1  0  0  0  0
  6 35  1  0  0  0  0
  7  8  1  0  0  0  0
  7 36  1  0  0  0  0
  7 37  1  0  0  0  0
  8  9  1  0  0  0  0
  9 10  1  0  0  0  0
  9 24  1  0  0  0  0
  9 38  1  0  0  0  0
 10 11  1  0  0  0  0
 10 39  1  0  0  0  0
 10 40  1  0  0  0  0
 11 12  1  0  0  0  0
 11 41  1  0  0  0  0
 12 13  2  0  0  0  0
 12 14  1  0  0  0  0
 14 15  1  0  0  0  0
 14 42  1  0  0  0  0
 14 43  1  0  0  0  0
 15 22  1  0  0  0  0
 15 16  1  0  0  0  0
 16 17  2  0  0  0  0
 16 44  1  0  0  0  0
 17 18  1  0  0  0  0
 17 45  1  0  0  0  0
 18 19  2  0  0  0  0
 18 20  1  0  0  0  0
 20 21  1  0  0  0  0
 20 22  1  0  0  0  0
 21 46  1  0  0  0  0
 21 47  1  0  0  0  0
 21 48  1  0  0  0  0
 22 23  2  0  0  0  0
 24 49  1  0  0  0  0
 24 50  1  0  0  0  0
M  CHG  1   5   1
M  END
> <s_m_source_file>
AV-unprocessed.smi

> <i_m_source_file_index>
2087

> <i_lp_mmshare_version>
43012

> <i_f3d_flags>
0

> <s_epik_input>
W0NIM11bQ0hdKFtDSDNdKVtDSDJdTjFbQ0gyXVtDSDJdT1tDQEhdKFtDSDJdMSlbQ0gyXVtOSF1DKD1PKVtDSDJdbjJbY0hdW2NIXWMoPU8pbihbQ0gzXSljMj1P

> <s_epik_cmdline>
J2VwaWtfcHl0aG9uJywgJy1waCcsICc3LjAnLCAnLXRuJywgJzgnLCAnLW1hJywgJzIwMCcsICctbWV0YWxfYmluZGluZycsICctaW1hZScsICc8aW5maWxlLm1hZT4nLCAnLW9tYWUnLCAnPG91dGZpbGUubWFlPic=

> <r_lp_tautomer_probability>
1

> <r_epik_Ionization_Penalty>
0.097593

> <r_epik_Ionization_Penalty_Charging>
0.097593

> <r_epik_Ionization_Penalty_Neutral>
6.27044e-08

> <r_epik_State_Penalty>
0.0877056

> <r_epik_Charging_Adjusted_Penalty>
0.185299

> <i_epik_Tot_Q>
1

> <i_epik_Tot_abs_Q>
1

> <r_epik_Metal_State_Penalty>
0.0877109

> <b_epik_Metal_Only>
0

> <s_lp_Force_Field>
OPLS_2005

> <r_lp_Energy>
25.8425

> <b_lp_Chiralities_Consistent>
1

> <s_lp_Variant>
AV-unprocessed.smi:2087-1

> <Gold.Version>
5.8.1

> <Gold.Id.Protein>
6NUR|6NUR_protein|mol2

> <Gold.PLP.Fitness>
44.2609

> <Gold.PLP.PLP>
-34.7126

> <Gold.PLP.part.hbond>
-3.0000

> <Gold.PLP.part.metal>
0.0000

> <Gold.PLP.part.buried>
-5.1537

> <Gold.PLP.part.nonpolar>
-26.9951

> <Gold.PLP.part.repulsive>
0.1881

> <Gold.PLP.ligand.clash>
0.0000

> <Gold.PLP.ligand.torsion>
1.1023

> <Gold.PLP.Chemscore.Hbond>
3.7920

> <Gold.PLP.Chemscore.CHOScore>
0.0000

> <Gold.PLP.Chemscore.Metal>
0.0000

> <Gold.Chemscore.Hbonds>
donor molecule, donor type, donor heavy atom, donor atom, acceptor molecule, acceptor atom, score
      L1  H     5    51       P1  7948  2.00
      P1  H  6931  6943       L1    23  0.83
      P1  H  6934  6947       L1    23  0.94

> <Gold.PLP.Chemscore.Internal.Correction>
0.3769

> <Gold.Rescore>
     Score         DG    S(hbond)    S(metal)    S(lipo)     H(rot)  DE(clash)    DE(int)     intcor
     15.56     -16.70       2.75        0.00      65.95       2.22       0.01       1.14       ----

> <Gold.Chemscore.Fitness>
15.5567

> <Gold.Chemscore.DG>
-16.7018

> <Gold.Chemscore.ZeroCoef>
-5.4800

> <Gold.Chemscore.Hbond>
2.7548

> <Gold.Chemscore.Metal>
0.0000

> <Gold.Chemscore.Lipo>
65.9535

> <Gold.Chemscore.Internal_Hbond>
0.0000

> <Gold.Chemscore.DEClash>
0.0093

> <Gold.Chemscore.DEInternal>
1.1358

> <Gold.Chemscore.Rot>
2.2249

> <Gold.Chemscore.Internal.Correction>
   9.000000E+99

> <Gold.Chemscore.Hbonds>
donor molecule, donor type, donor heavy atom, donor atom, acceptor molecule, acceptor atom, score
      L1  H     5    51       P1  7948  0.98
      P1  H  6931  6943       L1    23  0.78
      P1  H  6934  6947       L1    23  0.91

> <Gold.Chemscore.Hbond.Weighted>
-9.2009

> <Gold.Chemscore.Metal.Weighted>
-0.0000

> <Gold.Chemscore.Lipo.Weighted>
-7.7166

> <Gold.Chemscore.Internal_Hbond.Weighted>
0.0000

> <Gold.Chemscore.DEClash.Weighted>
0.0093

> <Gold.Chemscore.DEInternal.Weighted>
1.1358

> <Gold.Chemscore.Rot.Weighted>
5.6957

> <Gold.Chemscore.Internal.Correction.Weighted>
   9.000000E+99

> <Gold.Protein.RotatedTorsions>
[ 6907 6896 6895 6894 ] final   44.81 input  -60.11 | X-H torsion
[ 7974 7965 7964 7962 ] final -150.19 input  175.53 | X-H torsion
[ 8008 7997 7996 7995 ] final -159.36 input   59.86 | X-H torsion
[ 10167 10162 10161 10158 ] final  -23.57 input  -65.29 | X-H torsion
[ 10718 10713 10712 10709 ] final   49.50 input   66.30 | X-H torsion
[ 10763 10752 10751 10750 ] final   98.20 input  -60.55 | X-H torsion
[ 11005 11000 10999 10996 ] final -163.48 input  -57.11 | X-H torsion

> <Gold.Protein.ActiveResidues>
 VAL166  LYS551  ARG553  GLY616  TRP617  ASP618  TYR619  PRO620  LYS621  CYS622 
 ASP623  PHE694  ASN695  SER759  ASP760  ASP761  ALA762  ILE779  LEU786  VAL792 
 PHE793  MET794  SER795  GLU796  ALA797  LYS798  CYS799  TRP800  GLU811  SER814 

> <Gold.Protein.RotatedAtoms>
  152.2370  134.8266  160.0465 H   0  0  0  0  0  0  0  0  0  0  0  0  # atno 6907 bound_to 6896
  151.8994  133.3529  159.3833 H   0  0  0  0  0  0  0  0  0  0  0  0  # atno 6908 bound_to 6896
  150.7042  134.4769  159.5496 H   0  0  0  0  0  0  0  0  0  0  0  0  # atno 6909 bound_to 6896
  144.7922  140.4965  143.5765 H   0  0  0  0  0  0  0  0  0  0  0  0  # atno 7974 bound_to 7965
  155.7613  140.0839  157.2153 H   0  0  0  0  0  0  0  0  0  0  0  0  # atno 8008 bound_to 7997
  154.4003  140.1542  156.2893 H   0  0  0  0  0  0  0  0  0  0  0  0  # atno 8009 bound_to 7997
  155.8836  140.3419  155.5908 H   0  0  0  0  0  0  0  0  0  0  0  0  # atno 8010 bound_to 7997
  140.7288  143.4431  151.0627 H   0  0  0  0  0  0  0  0  0  0  0  0  # atno 10167 bound_to 10162
  157.4792  130.8304  149.8074 H   0  0  0  0  0  0  0  0  0  0  0  0  # atno 10718 bound_to 10713
  153.2861  135.4157  155.1124 H   0  0  0  0  0  0  0  0  0  0  0  0  # atno 10763 bound_to 10752
  154.8505  135.3507  154.6045 H   0  0  0  0  0  0  0  0  0  0  0  0  # atno 10764 bound_to 10752
  153.6467  135.7054  153.5281 H   0  0  0  0  0  0  0  0  0  0  0  0  # atno 10765 bound_to 10752
  140.5976  134.4980  157.5201 H   0  0  0  0  0  0  0  0  0  0  0  0  # atno 11005 bound_to 11000
  145.5764  139.1486  143.3259 LP  0  0  0  0  0  0  0  0  0  0  0  0  # atno 17320 bound_to 7965
  146.2178  140.5896  142.9030 LP  0  0  0  0  0  0  0  0  0  0  0  0  # atno 17321 bound_to 7965
  139.8100  143.7964  152.3170 LP  0  0  0  0  0  0  0  0  0  0  0  0  # atno 17342 bound_to 10162
  139.8010  144.7374  150.9824 LP  0  0  0  0  0  0  0  0  0  0  0  0  # atno 17343 bound_to 10162
  156.0113  130.3832  150.2256 LP  0  0  0  0  0  0  0  0  0  0  0  0  # atno 17370 bound_to 10713
  157.0442  131.0044  151.3274 LP  0  0  0  0  0  0  0  0  0  0  0  0  # atno 17371 bound_to 10713
  139.9246  134.8080  156.1106 LP  0  0  0  0  0  0  0  0  0  0  0  0  # atno 17394 bound_to 11000
  141.0893  133.6721  156.2506 LP  0  0  0  0  0  0  0  0  0  0  0  0  # atno 17395 bound_to 11000

$$$$
