AV-unprocessed.smi:924|AV-procd|sdf|4179|dock6
  -GOLD-   22720 2 83D 1   1.00000     0.00000
 Structure written by MMmdl.
 46 49  0  0  0  0  0  0  0  0  1 V2000
  144.4056  137.2494  153.0585 O   0  0  0  0  0  0  0  0  0  0  0  0
  145.4817  136.6685  152.9084 C   0  0  0  0  0  0  0  0  0  0  0  0
  145.6155  135.1638  153.1824 C   0  0  0  0  0  0  0  0  0  0  0  0
  145.0597  134.3289  152.1071 N   0  0  0  0  0  0  0  0  0  0  0  0
  145.8805  133.4447  151.4215 C   0  0  0  0  0  0  0  0  0  0  0  0
  145.4479  132.6576  150.4084 C   0  0  0  0  0  0  0  0  0  0  0  0
  144.0544  132.7059  149.9792 C   0  0  0  0  0  0  0  0  0  0  0  0
  143.5671  132.0311  149.0750 O   0  0  0  0  0  0  0  0  0  0  0  0
  143.2613  133.6106  150.6902 N   0  0  0  0  0  0  0  0  0  0  0  0
  143.7019  134.4280  151.7325 C   0  0  0  0  0  0  0  0  0  0  0  0
  142.9186  135.1988  152.2861 O   0  0  0  0  0  0  0  0  0  0  0  0
  146.5968  137.2860  152.4889 N   0  0  0  0  0  0  0  0  0  0  0  0
  146.7040  138.6968  152.1231 C   0  0  0  0  0  0  0  0  0  0  0  0
  147.1596  139.6025  153.2956 C   0  0  0  0  0  0  0  0  0  0  0  0
  148.5939  139.2330  153.7644 C   0  0  0  0  0  0  0  0  0  0  0  0
  149.0131  140.1148  154.9607 C   0  0  1  0  0  0  0  0  0  0  0  0
  148.9915  141.5996  154.5408 C   0  0  0  0  0  0  0  0  0  0  0  0
  147.5630  141.9828  154.1002 C   0  0  2  0  0  0  0  0  0  0  0  0
  146.5827  141.7664  155.2710 C   0  0  0  0  0  0  0  0  0  0  0  0
  146.6116  140.2814  155.6873 C   0  0  2  0  0  0  0  0  0  0  0  0
  148.0365  139.8949  156.1345 C   0  0  0  0  0  0  0  0  0  0  0  0
  146.1898  139.4028  154.4903 C   0  0  0  0  0  0  0  0  0  0  0  0
  147.1410  141.1059  152.9022 C   0  0  0  0  0  0  0  0  0  0  0  0
  142.2898  133.6817  150.4252 H   0  0  0  0  0  0  0  0  0  0  0  0
  146.6721  134.9254  153.3165 H   0  0  0  0  0  0  0  0  0  0  0  0
  145.1480  134.9359  154.1420 H   0  0  0  0  0  0  0  0  0  0  0  0
  146.9221  133.3805  151.7037 H   0  0  0  0  0  0  0  0  0  0  0  0
  146.1367  131.9897  149.9118 H   0  0  0  0  0  0  0  0  0  0  0  0
  147.4354  136.7313  152.3969 H   0  0  0  0  0  0  0  0  0  0  0  0
  147.3704  138.8222  151.2679 H   0  0  0  0  0  0  0  0  0  0  0  0
  145.7197  139.0149  151.7778 H   0  0  0  0  0  0  0  0  0  0  0  0
  148.6394  138.1803  154.0461 H   0  0  0  0  0  0  0  0  0  0  0  0
  149.3107  139.3624  152.9527 H   0  0  0  0  0  0  0  0  0  0  0  0
  150.0215  139.8426  155.2742 H   0  0  0  0  0  0  0  0  0  0  0  0
  149.3142  142.2317  155.3690 H   0  0  0  0  0  0  0  0  0  0  0  0
  149.6974  141.7727  153.7273 H   0  0  0  0  0  0  0  0  0  0  0  0
  147.5457  143.0322  153.8036 H   0  0  0  0  0  0  0  0  0  0  0  0
  146.8551  142.4016  156.1149 H   0  0  0  0  0  0  0  0  0  0  0  0
  145.5734  142.0580  154.9781 H   0  0  0  0  0  0  0  0  0  0  0  0
  145.9181  140.1244  156.5139 H   0  0  0  0  0  0  0  0  0  0  0  0
  148.0622  138.8536  156.4586 H   0  0  0  0  0  0  0  0  0  0  0  0
  148.3384  140.4930  156.9951 H   0  0  0  0  0  0  0  0  0  0  0  0
  145.1693  139.6503  154.1941 H   0  0  0  0  0  0  0  0  0  0  0  0
  146.1725  138.3546  154.7921 H   0  0  0  0  0  0  0  0  0  0  0  0
  147.8176  141.2970  152.0691 H   0  0  0  0  0  0  0  0  0  0  0  0
  146.1462  141.3947  152.5602 H   0  0  0  0  0  0  0  0  0  0  0  0
  1  2  2  0  0  0  0
  2  3  1  0  0  0  0
  2 12  1  0  0  0  0
  3  4  1  0  0  0  0
  3 25  1  0  0  0  0
  3 26  1  0  0  0  0
  4 10  1  0  0  0  0
  4  5  1  0  0  0  0
  5  6  2  0  0  0  0
  5 27  1  0  0  0  0
  6  7  1  0  0  0  0
  6 28  1  0  0  0  0
  7  8  2  0  0  0  0
  7  9  1  0  0  0  0
  9 24  1  0  0  0  0
  9 10  1  0  0  0  0
 10 11  2  0  0  0  0
 12 13  1  0  0  0  0
 12 29  1  0  0  0  0
 13 14  1  0  0  0  0
 13 30  1  0  0  0  0
 13 31  1  0  0  0  0
 14 22  1  0  0  0  0
 14 23  1  0  0  0  0
 14 15  1  0  0  0  0
 15 16  1  0  0  0  0
 15 32  1  0  0  0  0
 15 33  1  0  0  0  0
 16 21  1  0  0  0  0
 16 17  1  0  0  0  0
 16 34  1  0  0  0  0
 17 18  1  0  0  0  0
 17 35  1  0  0  0  0
 17 36  1  0  0  0  0
 18 19  1  0  0  0  0
 18 23  1  0  0  0  0
 18 37  1  0  0  0  0
 19 20  1  0  0  0  0
 19 38  1  0  0  0  0
 19 39  1  0  0  0  0
 20 21  1  0  0  0  0
 20 22  1  0  0  0  0
 20 40  1  0  0  0  0
 21 41  1  0  0  0  0
 21 42  1  0  0  0  0
 22 43  1  0  0  0  0
 22 44  1  0  0  0  0
 23 45  1  0  0  0  0
 23 46  1  0  0  0  0
M  END
> <s_m_source_file>
AV-unprocessed.smi

> <i_m_source_file_index>
924

> <i_lp_mmshare_version>
43012

> <i_f3d_flags>
0

> <s_epik_input>
Tz1jMVtuSF1jKD1PKVtjSF1bY0hdbjFbQ0gyXUMoPU8pW05IXVtDSDJdQzIzW0NIMl1bQ0BIXTRbQ0gyXVtDQEBIXShbQ0gyXTMpW0NIMl1bQ0BIXShbQ0gyXTQpW0NIMl0y

> <s_epik_cmdline>
J2VwaWtfcHl0aG9uJywgJy1waCcsICc3LjAnLCAnLXRuJywgJzgnLCAnLW1hJywgJzIwMCcsICctbWV0YWxfYmluZGluZycsICctaW1hZScsICc8aW5maWxlLm1hZT4nLCAnLW9tYWUnLCAnPG91dGZpbGUubWFlPic=

> <r_lp_tautomer_probability>
0.999537

> <r_epik_Ionization_Penalty>
0.00304541

> <r_epik_Ionization_Penalty_Charging>
0.00304539

> <r_epik_Ionization_Penalty_Neutral>
1.85865e-08

> <r_epik_State_Penalty>
0.00214042

> <r_epik_Charging_Adjusted_Penalty>
0.00518582

> <i_epik_Tot_Q>
0

> <i_epik_Tot_abs_Q>
0

> <r_epik_Metal_State_Penalty>
0.361861

> <b_epik_Metal_Only>
0

> <s_lp_Force_Field>
OPLS_2005

> <r_lp_Energy>
33.277

> <b_lp_Chiralities_Consistent>
1

> <s_lp_Variant>
AV-unprocessed.smi:924-1

> <Gold.Version>
5.8.1

> <Gold.Id.Protein>
6NUR|6NUR_protein|mol2

> <Gold.PLP.Fitness>
44.1500

> <Gold.PLP.PLP>
-36.3571

> <Gold.PLP.part.hbond>
-3.0000

> <Gold.PLP.part.metal>
0.0000

> <Gold.PLP.part.buried>
-4.9735

> <Gold.PLP.part.nonpolar>
-29.3808

> <Gold.PLP.part.repulsive>
0.6946

> <Gold.PLP.ligand.clash>
0.0000

> <Gold.PLP.ligand.torsion>
0.4281

> <Gold.PLP.Chemscore.Hbond>
2.8800

> <Gold.PLP.Chemscore.CHOScore>
0.0000

> <Gold.PLP.Chemscore.Metal>
0.0000

> <Gold.Chemscore.Hbonds>
donor molecule, donor type, donor heavy atom, donor atom, acceptor molecule, acceptor atom, score
      L1  H     9    24       P1 10186  1.00
      L1  H    12    29       P1  7948  1.00
      P1  H 10785 10796       L1     8  0.88

> <Gold.PLP.Chemscore.Internal.Correction>
0.0091

> <Gold.Rescore>
     Score         DG    S(hbond)    S(metal)    S(lipo)     H(rot)  DE(clash)    DE(int)     intcor
     15.28     -18.48       2.79        0.00      73.91       1.94       0.09       3.11       ----

> <Gold.Chemscore.Fitness>
15.2822

> <Gold.Chemscore.DG>
-18.4842

> <Gold.Chemscore.ZeroCoef>
-5.4800

> <Gold.Chemscore.Hbond>
2.7924

> <Gold.Chemscore.Metal>
0.0000

> <Gold.Chemscore.Lipo>
73.9120

> <Gold.Chemscore.Internal_Hbond>
0.0000

> <Gold.Chemscore.DEClash>
0.0936

> <Gold.Chemscore.DEInternal>
3.1084

> <Gold.Chemscore.Rot>
1.9415

> <Gold.Chemscore.Internal.Correction>
   9.000000E+99

> <Gold.Chemscore.Hbonds>
donor molecule, donor type, donor heavy atom, donor atom, acceptor molecule, acceptor atom, score
      L1  H     9    24       P1 10186  0.94
      L1  H    12    29       P1  7948  0.99
      P1  H 10785 10796       L1     8  0.86

> <Gold.Chemscore.Hbond.Weighted>
-9.3266

> <Gold.Chemscore.Metal.Weighted>
-0.0000

> <Gold.Chemscore.Lipo.Weighted>
-8.6477

> <Gold.Chemscore.Internal_Hbond.Weighted>
0.0000

> <Gold.Chemscore.DEClash.Weighted>
0.0936

> <Gold.Chemscore.DEInternal.Weighted>
3.1084

> <Gold.Chemscore.Rot.Weighted>
4.9701

> <Gold.Chemscore.Internal.Correction.Weighted>
   9.000000E+99

> <Gold.Protein.RotatedTorsions>
[ 6907 6896 6895 6894 ] final -172.02 input  -60.11 | X-H torsion
[ 7974 7965 7964 7962 ] final  -34.71 input  175.53 | X-H torsion
[ 8008 7997 7996 7995 ] final   80.90 input   59.86 | X-H torsion
[ 10167 10162 10161 10158 ] final   49.74 input  -65.29 | X-H torsion
[ 10718 10713 10712 10709 ] final    6.75 input   66.30 | X-H torsion
[ 10763 10752 10751 10750 ] final  -62.16 input  -60.55 | X-H torsion
[ 11005 11000 10999 10996 ] final  -26.19 input  -57.11 | X-H torsion

> <Gold.Protein.ActiveResidues>
 VAL166  LYS551  ARG553  GLY616  TRP617  ASP618  TYR619  PRO620  LYS621  CYS622 
 ASP623  PHE694  ASN695  SER759  ASP760  ASP761  ALA762  ILE779  LEU786  VAL792 
 PHE793  MET794  SER795  GLU796  ALA797  LYS798  CYS799  TRP800  GLU811  SER814 

> <Gold.Protein.RotatedAtoms>
  151.5333  133.3445  159.2921 H   0  0  0  0  0  0  0  0  0  0  0  0  # atno 6907 bound_to 6896
  150.8580  134.7927  159.7072 H   0  0  0  0  0  0  0  0  0  0  0  0  # atno 6908 bound_to 6896
  152.4608  134.5197  159.9830 H   0  0  0  0  0  0  0  0  0  0  0  0  # atno 6909 bound_to 6896
  146.0807  140.6071  142.8909 H   0  0  0  0  0  0  0  0  0  0  0  0  # atno 7974 bound_to 7965
  155.8898  140.3439  155.5948 H   0  0  0  0  0  0  0  0  0  0  0  0  # atno 8008 bound_to 7997
  155.7623  140.0834  157.2168 H   0  0  0  0  0  0  0  0  0  0  0  0  # atno 8009 bound_to 7997
  154.4032  140.1533  156.2834 H   0  0  0  0  0  0  0  0  0  0  0  0  # atno 8010 bound_to 7997
  140.2797  144.3170  150.6267 H   0  0  0  0  0  0  0  0  0  0  0  0  # atno 10167 bound_to 10162
  156.9268  130.5811  149.5648 H   0  0  0  0  0  0  0  0  0  0  0  0  # atno 10718 bound_to 10713
  154.2957  135.6244  153.5403 H   0  0  0  0  0  0  0  0  0  0  0  0  # atno 10763 bound_to 10752
  152.9847  135.5666  154.5340 H   0  0  0  0  0  0  0  0  0  0  0  0  # atno 10764 bound_to 10752
  154.4960  135.2869  155.1435 H   0  0  0  0  0  0  0  0  0  0  0  0  # atno 10765 bound_to 10752
  140.9007  133.7526  156.0539 H   0  0  0  0  0  0  0  0  0  0  0  0  # atno 11005 bound_to 11000
  144.7291  140.4617  143.6951 LP  0  0  0  0  0  0  0  0  0  0  0  0  # atno 17320 bound_to 7965
  145.6223  139.1525  143.3015 LP  0  0  0  0  0  0  0  0  0  0  0  0  # atno 17321 bound_to 7965
  140.5821  143.2172  151.7408 LP  0  0  0  0  0  0  0  0  0  0  0  0  # atno 17342 bound_to 10162
  139.4966  144.4064  152.0127 LP  0  0  0  0  0  0  0  0  0  0  0  0  # atno 17343 bound_to 10162
  156.0466  130.5541  150.8894 LP  0  0  0  0  0  0  0  0  0  0  0  0  # atno 17370 bound_to 10713
  157.5873  131.0945  150.9176 LP  0  0  0  0  0  0  0  0  0  0  0  0  # atno 17371 bound_to 10713
  140.8234  134.3263  157.5374 LP  0  0  0  0  0  0  0  0  0  0  0  0  # atno 17394 bound_to 11000
  139.8742  134.9322  156.3548 LP  0  0  0  0  0  0  0  0  0  0  0  0  # atno 17395 bound_to 11000

$$$$
