AV-unprocessed.smi:1703|AV-procd|sdf|6874|dock6
  -GOLD-   22720 8 73D 1   1.00000     0.00000
 Structure written by MMmdl.
 50 52  0  0  0  0  0  0  0  0  3 V2000
  145.9245  135.4122  154.5573 C   0  0  0  0  0  0  0  0  0  0  0  0
  147.4458  135.5747  154.4689 C   0  0  1  0  0  0  0  0  0  0  0  0
  148.0204  136.3216  155.6894 C   0  0  0  0  0  0  0  0  0  0  0  0
  149.5000  136.3995  155.6251 N   0  3  2  0  0  0  0  0  0  0  0  0
  150.0038  137.4339  154.6820 C   0  0  0  0  0  0  0  0  0  0  0  0
  151.2428  138.1740  155.2302 C   0  0  2  0  0  0  0  0  0  0  0  0
  152.3155  137.2597  155.3251 O   0  0  0  0  0  0  0  0  0  0  0  0
  151.0336  138.7972  156.6254 C   0  0  0  0  0  0  0  0  0  0  0  0
  150.8470  140.2570  156.5811 N   0  0  0  0  0  0  0  0  0  0  0  0
  150.1366  141.0217  155.7010 C   0  0  0  0  0  0  0  0  0  0  0  0
  149.3528  140.5482  154.5214 C   0  0  0  0  0  0  0  0  0  0  0  0
  149.8615  141.0504  153.3061 O   0  0  0  0  0  0  0  0  0  0  0  0
  150.2839  142.3210  156.0833 N   0  3  0  0  0  0  0  0  0  0  0  0
  151.0981  142.3926  157.2135 C   0  0  0  0  0  0  0  0  0  0  0  0
  151.5288  143.4882  157.9553 C   0  0  0  0  0  0  0  0  0  0  0  0
  152.3624  143.2166  159.0595 C   0  0  0  0  0  0  0  0  0  0  0  0
  152.7366  141.8978  159.3892 C   0  0  0  0  0  0  0  0  0  0  0  0
  152.2931  140.7946  158.6300 C   0  0  0  0  0  0  0  0  0  0  0  0
  151.4686  141.0709  157.5383 C   0  0  0  0  0  0  0  0  0  0  0  0
  150.0835  135.0466  155.4343 C   0  0  0  0  0  0  0  0  0  0  0  0
  149.4398  134.3074  154.2403 C   0  0  1  0  0  0  0  0  0  0  0  0
  149.9364  132.8620  154.1266 C   0  0  0  0  0  0  0  0  0  0  0  0
  148.0267  134.2764  154.4104 O   0  0  0  0  0  0  0  0  0  0  0  0
  145.4277  136.3816  154.6051 H   0  0  0  0  0  0  0  0  0  0  0  0
  145.6386  134.8458  155.4442 H   0  0  0  0  0  0  0  0  0  0  0  0
  145.5370  134.8835  153.6858 H   0  0  0  0  0  0  0  0  0  0  0  0
  147.6807  136.1176  153.5517 H   0  0  0  0  0  0  0  0  0  0  0  0
  147.5882  137.3192  155.7772 H   0  0  0  0  0  0  0  0  0  0  0  0
  147.7471  135.7907  156.6026 H   0  0  0  0  0  0  0  0  0  0  0  0
  150.2234  136.9682  153.7226 H   0  0  0  0  0  0  0  0  0  0  0  0
  149.2230  138.1701  154.4850 H   0  0  0  0  0  0  0  0  0  0  0  0
  151.5435  138.9631  154.5425 H   0  0  0  0  0  0  0  0  0  0  0  0
  152.9783  137.6228  155.8930 H   0  0  0  0  0  0  0  0  0  0  0  0
  150.1921  138.3365  157.1425 H   0  0  0  0  0  0  0  0  0  0  0  0
  151.9073  138.6082  157.2510 H   0  0  0  0  0  0  0  0  0  0  0  0
  149.3499  139.4593  154.4846 H   0  0  0  0  0  0  0  0  0  0  0  0
  148.3155  140.8665  154.6287 H   0  0  0  0  0  0  0  0  0  0  0  0
  149.7365  140.3983  152.6333 H   0  0  0  0  0  0  0  0  0  0  0  0
  151.2452  144.4999  157.7032 H   0  0  0  0  0  0  0  0  0  0  0  0
  152.7238  144.0363  159.6639 H   0  0  0  0  0  0  0  0  0  0  0  0
  153.3792  141.7294  160.2415 H   0  0  0  0  0  0  0  0  0  0  0  0
  152.5895  139.7915  158.8971 H   0  0  0  0  0  0  0  0  0  0  0  0
  151.1649  135.0985  155.3143 H   0  0  0  0  0  0  0  0  0  0  0  0
  149.9078  134.4770  156.3479 H   0  0  0  0  0  0  0  0  0  0  0  0
  149.6746  134.8186  153.3057 H   0  0  0  0  0  0  0  0  0  0  0  0
  151.0162  132.8279  153.9786 H   0  0  0  0  0  0  0  0  0  0  0  0
  149.4696  132.3543  153.2821 H   0  0  0  0  0  0  0  0  0  0  0  0
  149.7037  132.2919  155.0266 H   0  0  0  0  0  0  0  0  0  0  0  0
  149.7976  136.7160  156.5377 H   0  0  0  0  0  0  0  0  0  0  0  0
  149.8638  143.1024  155.5958 H   0  0  0  0  0  0  0  0  0  0  0  0
  1  2  1  0  0  0  0
  1 24  1  0  0  0  0
  1 25  1  0  0  0  0
  1 26  1  0  0  0  0
  2 23  1  0  0  0  0
  2  3  1  0  0  0  0
  2 27  1  0  0  0  0
  3  4  1  0  0  0  0
  3 28  1  0  0  0  0
  3 29  1  0  0  0  0
  4  5  1  0  0  0  0
  4 20  1  0  0  0  0
  4 49  1  0  0  0  0
  5  6  1  0  0  0  0
  5 30  1  0  0  0  0
  5 31  1  0  0  0  0
  6  7  1  0  0  0  0
  6  8  1  0  0  0  0
  6 32  1  0  0  0  0
  7 33  1  0  0  0  0
  8  9  1  0  0  0  0
  8 34  1  0  0  0  0
  8 35  1  0  0  0  0
  9 19  1  0  0  0  0
  9 10  1  0  0  0  0
 10 11  1  0  0  0  0
 10 13  2  0  0  0  0
 11 12  1  0  0  0  0
 11 36  1  0  0  0  0
 11 37  1  0  0  0  0
 12 38  1  0  0  0  0
 13 14  1  0  0  0  0
 13 50  1  0  0  0  0
 14 19  2  0  0  0  0
 14 15  1  0  0  0  0
 15 16  2  0  0  0  0
 15 39  1  0  0  0  0
 16 17  1  0  0  0  0
 16 40  1  0  0  0  0
 17 18  2  0  0  0  0
 17 41  1  0  0  0  0
 18 19  1  0  0  0  0
 18 42  1  0  0  0  0
 20 21  1  0  0  0  0
 20 43  1  0  0  0  0
 20 44  1  0  0  0  0
 21 22  1  0  0  0  0
 21 23  1  0  0  0  0
 21 45  1  0  0  0  0
 22 46  1  0  0  0  0
 22 47  1  0  0  0  0
 22 48  1  0  0  0  0
M  CHG  1   4   1
M  CHG  1  13   1
M  END
> <s_m_source_file>
AV-unprocessed.smi

> <i_m_source_file_index>
1703

> <i_lp_mmshare_version>
43012

> <i_f3d_flags>
0

> <s_epik_input>
W0NIM11bQ0BASF0xW0NIMl1OKFtDSDJdW0NASF0oTzEpW0NIM10pW0NIMl1bQ0BIXShbT0hdKVtDSDJdbihjKG4yKVtDSDJdW09IXSljKGMyMylbY0hdW2NIXVtjSF1bY0hdMw==

> <s_epik_cmdline>
J2VwaWtfcHl0aG9uJywgJy1waCcsICc3LjAnLCAnLXRuJywgJzgnLCAnLW1hJywgJzIwMCcsICctbWV0YWxfYmluZGluZycsICctaW1hZScsICc8aW5maWxlLm1hZT4nLCAnLW9tYWUnLCAnPG91dGZpbGUubWFlPic=

> <r_epik_Ionization_Penalty>
2.22579

> <r_epik_Ionization_Penalty_Charging>
2.22492

> <r_epik_Ionization_Penalty_Neutral>
0.000870007

> <r_epik_State_Penalty>
2.3141

> <r_epik_Charging_Adjusted_Penalty>
4.53902

> <i_epik_Tot_Q>
2

> <i_epik_Tot_abs_Q>
2

> <r_epik_Metal_State_Penalty>
6.36517

> <b_epik_Metal_Only>
0

> <s_lp_Force_Field>
OPLS_2005

> <r_lp_Energy>
32.0601

> <b_lp_Chiralities_Consistent>
1

> <s_lp_Variant>
AV-unprocessed.smi:1703-22

> <Gold.Version>
5.8.1

> <Gold.Id.Protein>
6NUR|6NUR_protein|mol2

> <Gold.PLP.Fitness>
50.8275

> <Gold.PLP.PLP>
-39.2084

> <Gold.PLP.part.hbond>
-4.6811

> <Gold.PLP.part.metal>
0.0000

> <Gold.PLP.part.buried>
-5.7904

> <Gold.PLP.part.nonpolar>
-30.0409

> <Gold.PLP.part.repulsive>
0.1913

> <Gold.PLP.ligand.clash>
0.0000

> <Gold.PLP.ligand.torsion>
1.3834

> <Gold.PLP.Chemscore.Hbond>
4.7747

> <Gold.PLP.Chemscore.CHOScore>
0.0000

> <Gold.PLP.Chemscore.Metal>
0.0000

> <Gold.Chemscore.Hbonds>
donor molecule, donor type, donor heavy atom, donor atom, acceptor molecule, acceptor atom, score
      L1  H    12    38       P1  7957  0.94
      L1  H    13    50       P1  8028  1.98
      P1  H  7989  7998       L1    12  0.14
      P1  H  8011  8017       L1    12  0.90
      P1  H 10752 10765       L1     7  0.70

> <Gold.PLP.Chemscore.Internal.Correction>
0.0617

> <Gold.Rescore>
     Score         DG    S(hbond)    S(metal)    S(lipo)     H(rot)  DE(clash)    DE(int)     intcor
     17.16     -18.63       2.81        0.00      98.52       3.04       0.00       1.46       ----

> <Gold.Chemscore.Fitness>
17.1641

> <Gold.Chemscore.DG>
-18.6276

> <Gold.Chemscore.ZeroCoef>
-5.4800

> <Gold.Chemscore.Hbond>
2.8137

> <Gold.Chemscore.Metal>
0.0000

> <Gold.Chemscore.Lipo>
98.5188

> <Gold.Chemscore.Internal_Hbond>
0.0000

> <Gold.Chemscore.DEClash>
0.0004

> <Gold.Chemscore.DEInternal>
1.4631

> <Gold.Chemscore.Rot>
3.0378

> <Gold.Chemscore.Internal.Correction>
   9.000000E+99

> <Gold.Chemscore.Hbonds>
donor molecule, donor type, donor heavy atom, donor atom, acceptor molecule, acceptor atom, score
      L1  H    12    38       P1  7957  0.85
      L1  H    13    50       P1  8028  0.94
      P1  H  7989  7998       L1    12  0.02
      P1  H  8011  8017       L1    12  0.17
      P1  H 10752 10765       L1     7  0.52

> <Gold.Chemscore.Hbond.Weighted>
-9.3976

> <Gold.Chemscore.Metal.Weighted>
-0.0000

> <Gold.Chemscore.Lipo.Weighted>
-11.5267

> <Gold.Chemscore.Internal_Hbond.Weighted>
0.0000

> <Gold.Chemscore.DEClash.Weighted>
0.0004

> <Gold.Chemscore.DEInternal.Weighted>
1.4631

> <Gold.Chemscore.Rot.Weighted>
7.7767

> <Gold.Chemscore.Internal.Correction.Weighted>
   9.000000E+99

> <Gold.Protein.RotatedTorsions>
[ 6907 6896 6895 6894 ] final   99.59 input  -60.11 | X-H torsion
[ 7974 7965 7964 7962 ] final  115.85 input  175.53 | X-H torsion
[ 8008 7997 7996 7995 ] final  -46.69 input   59.86 | X-H torsion
[ 10167 10162 10161 10158 ] final  -19.53 input  -65.29 | X-H torsion
[ 10718 10713 10712 10709 ] final  102.63 input   66.30 | X-H torsion
[ 10763 10752 10751 10750 ] final  173.83 input  -60.55 | X-H torsion
[ 11005 11000 10999 10996 ] final   64.92 input  -57.11 | X-H torsion

> <Gold.Protein.ActiveResidues>
 VAL166  LYS551  ARG553  GLY616  TRP617  ASP618  TYR619  PRO620  LYS621  CYS622 
 ASP623  PHE694  ASN695  SER759  ASP760  ASP761  ALA762  ILE779  LEU786  VAL792 
 PHE793  MET794  SER795  GLU796  ALA797  LYS798  CYS799  TRP800  GLU811  SER814 

> <Gold.Protein.RotatedAtoms>
  152.5389  134.0406  159.8065 H   0  0  0  0  0  0  0  0  0  0  0  0  # atno 6907 bound_to 6896
  151.0562  133.5574  159.2645 H   0  0  0  0  0  0  0  0  0  0  0  0  # atno 6908 bound_to 6896
  151.2490  135.0623  159.9108 H   0  0  0  0  0  0  0  0  0  0  0  0  # atno 6909 bound_to 6896
  145.1869  139.3020  143.4389 H   0  0  0  0  0  0  0  0  0  0  0  0  # atno 7974 bound_to 7965
  154.4009  140.1365  156.4052 H   0  0  0  0  0  0  0  0  0  0  0  0  # atno 8008 bound_to 7997
  155.7786  140.3482  155.5265 H   0  0  0  0  0  0  0  0  0  0  0  0  # atno 8009 bound_to 7997
  155.8696  140.0969  157.1549 H   0  0  0  0  0  0  0  0  0  0  0  0  # atno 8010 bound_to 7997
  140.7269  143.4809  151.0119 H   0  0  0  0  0  0  0  0  0  0  0  0  # atno 10167 bound_to 10162
  157.6796  131.0758  150.5433 H   0  0  0  0  0  0  0  0  0  0  0  0  # atno 10718 bound_to 10713
  154.4456  135.2763  155.1817 H   0  0  0  0  0  0  0  0  0  0  0  0  # atno 10763 bound_to 10752
  154.3666  135.6118  153.5721 H   0  0  0  0  0  0  0  0  0  0  0  0  # atno 10764 bound_to 10752
  152.9843  135.5847  154.4791 H   0  0  0  0  0  0  0  0  0  0  0  0  # atno 10765 bound_to 10752
  139.9928  134.6565  156.0062 H   0  0  0  0  0  0  0  0  0  0  0  0  # atno 11005 bound_to 11000
  146.3443  140.2068  142.8589 LP  0  0  0  0  0  0  0  0  0  0  0  0  # atno 17320 bound_to 7965
  145.0080  140.8690  143.5241 LP  0  0  0  0  0  0  0  0  0  0  0  0  # atno 17321 bound_to 7965
  139.8508  143.7441  152.3178 LP  0  0  0  0  0  0  0  0  0  0  0  0  # atno 17342 bound_to 10162
  139.7622  144.7503  151.0346 LP  0  0  0  0  0  0  0  0  0  0  0  0  # atno 17343 bound_to 10162
  156.5740  130.4287  149.6007 LP  0  0  0  0  0  0  0  0  0  0  0  0  # atno 17370 bound_to 10713
  156.2717  130.7020  151.1820 LP  0  0  0  0  0  0  0  0  0  0  0  0  # atno 17371 bound_to 10713
  141.1580  133.6541  156.4223 LP  0  0  0  0  0  0  0  0  0  0  0  0  # atno 17394 bound_to 11000
  140.4876  134.6606  157.5197 LP  0  0  0  0  0  0  0  0  0  0  0  0  # atno 17395 bound_to 11000

$$$$
