AV-unprocessed.smi:1322|AV-procd|sdf|5464|dock5
  -GOLD-   22720 5 33D 1   1.00000     0.00000
 Structure written by MMmdl.
 32 33  0  0  0  0  0  0  0  0  1 V2000
  150.2530  141.8932  155.5595 C   0  0  0  0  0  0  0  0  0  0  0  0
  150.8551  141.2271  156.8106 C   0  0  1  0  0  0  0  0  0  0  0  0
  151.9170  140.1598  156.4797 C   0  0  0  0  0  0  0  0  0  0  0  0
  151.4184  139.1290  155.5867 N   0  0  0  0  0  0  0  0  0  0  0  0
  151.3782  137.7663  155.7939 C   0  0  0  0  0  0  0  0  0  0  0  0
  150.8258  137.2018  154.6800 C   0  0  0  0  0  0  0  0  0  0  0  0
  150.5597  138.3148  153.8342 C   0  0  0  0  0  0  0  0  0  0  0  0
  150.9176  139.4666  154.3785 N   0  0  0  0  0  0  0  0  0  0  0  0
  151.4499  142.2377  157.6812 N   0  0  0  0  0  0  0  0  0  0  0  0
  151.9996  142.0055  158.8831 C   0  0  0  0  0  0  0  0  0  0  0  0
  152.0582  140.8866  159.3946 O   0  0  0  0  0  0  0  0  0  0  0  0
  152.5672  143.2318  159.6101 C   0  0  0  0  0  0  0  0  0  0  0  0
  151.6613  143.7976  160.7184 C   0  0  0  0  0  0  0  0  0  0  0  0
  151.9590  145.2030  160.1875 C   0  0  0  0  0  0  0  0  0  0  0  0
  152.3784  144.5627  158.8610 C   0  0  0  0  0  0  0  0  0  0  0  0
  149.7410  141.1676  154.9275 H   0  0  0  0  0  0  0  0  0  0  0  0
  151.0247  142.3735  154.9570 H   0  0  0  0  0  0  0  0  0  0  0  0
  149.5208  142.6545  155.8307 H   0  0  0  0  0  0  0  0  0  0  0  0
  150.0477  140.7313  157.3531 H   0  0  0  0  0  0  0  0  0  0  0  0
  152.7954  140.6248  156.0283 H   0  0  0  0  0  0  0  0  0  0  0  0
  152.2589  139.6739  157.3947 H   0  0  0  0  0  0  0  0  0  0  0  0
  151.7402  137.3181  156.7075 H   0  0  0  0  0  0  0  0  0  0  0  0
  150.6404  136.1538  154.4972 H   0  0  0  0  0  0  0  0  0  0  0  0
  150.1206  138.3198  152.8474 H   0  0  0  0  0  0  0  0  0  0  0  0
  151.4442  143.1888  157.3420 H   0  0  0  0  0  0  0  0  0  0  0  0
  153.5955  143.0986  159.9526 H   0  0  0  0  0  0  0  0  0  0  0  0
  150.6085  143.5263  160.6224 H   0  0  0  0  0  0  0  0  0  0  0  0
  152.0255  143.6203  161.7306 H   0  0  0  0  0  0  0  0  0  0  0  0
  151.0899  145.8583  160.1220 H   0  0  0  0  0  0  0  0  0  0  0  0
  152.7906  145.6822  160.7063 H   0  0  0  0  0  0  0  0  0  0  0  0
  153.2957  144.9753  158.4405 H   0  0  0  0  0  0  0  0  0  0  0  0
  151.5727  144.5542  158.1244 H   0  0  0  0  0  0  0  0  0  0  0  0
  1  2  1  0  0  0  0
  1 16  1  0  0  0  0
  1 17  1  0  0  0  0
  1 18  1  0  0  0  0
  2  3  1  0  0  0  0
  2  9  1  0  0  0  0
  2 19  1  0  0  0  0
  3  4  1  0  0  0  0
  3 20  1  0  0  0  0
  3 21  1  0  0  0  0
  4  8  1  0  0  0  0
  4  5  1  0  0  0  0
  5  6  2  0  0  0  0
  5 22  1  0  0  0  0
  6  7  1  0  0  0  0
  6 23  1  0  0  0  0
  7  8  2  0  0  0  0
  7 24  1  0  0  0  0
  9 10  1  0  0  0  0
  9 25  1  0  0  0  0
 10 11  2  0  0  0  0
 10 12  1  0  0  0  0
 12 15  1  0  0  0  0
 12 13  1  0  0  0  0
 12 26  1  0  0  0  0
 13 14  1  0  0  0  0
 13 27  1  0  0  0  0
 13 28  1  0  0  0  0
 14 15  1  0  0  0  0
 14 29  1  0  0  0  0
 14 30  1  0  0  0  0
 15 31  1  0  0  0  0
 15 32  1  0  0  0  0
M  END
> <s_m_source_file>
AV-unprocessed.smi

> <i_m_source_file_index>
1322

> <i_lp_mmshare_version>
43012

> <i_f3d_flags>
0

> <s_epik_input>
W0NIMl0xW0NIMl1bQ0gyXVtDSF0xQyg9TylbTkhdW0NASF0oW0NIM10pW0NIMl1uMltjSF1bY0hdW2NIXW4y

> <s_epik_cmdline>
J2VwaWtfcHl0aG9uJywgJy1waCcsICc3LjAnLCAnLXRuJywgJzgnLCAnLW1hJywgJzIwMCcsICctbWV0YWxfYmluZGluZycsICctaW1hZScsICc8aW5maWxlLm1hZT4nLCAnLW9tYWUnLCAnPG91dGZpbGUubWFlPic=

> <r_lp_tautomer_probability>
1

> <r_epik_Ionization_Penalty>
0.000326653

> <r_epik_Ionization_Penalty_Charging>
0

> <r_epik_Ionization_Penalty_Neutral>
0.000326653

> <r_epik_State_Penalty>
-0

> <r_epik_Charging_Adjusted_Penalty>
0

> <i_epik_Tot_Q>
0

> <i_epik_Tot_abs_Q>
0

> <r_epik_Metal_State_Penalty>
-0

> <b_epik_Metal_Only>
0

> <s_lp_Force_Field>
OPLS_2005

> <r_lp_Energy>
10.775

> <b_lp_Chiralities_Consistent>
1

> <s_lp_Variant>
AV-unprocessed.smi:1322-2

> <Gold.Version>
5.8.1

> <Gold.Id.Protein>
6NUR|6NUR_protein|mol2

> <Gold.PLP.Fitness>
43.9833

> <Gold.PLP.PLP>
-35.2553

> <Gold.PLP.part.hbond>
-1.0000

> <Gold.PLP.part.metal>
0.0000

> <Gold.PLP.part.buried>
-3.1032

> <Gold.PLP.part.nonpolar>
-31.1555

> <Gold.PLP.part.repulsive>
0.1814

> <Gold.PLP.ligand.clash>
0.0000

> <Gold.PLP.ligand.torsion>
0.2853

> <Gold.PLP.Chemscore.Hbond>
1.0000

> <Gold.PLP.Chemscore.CHOScore>
1.9601

> <Gold.PLP.Chemscore.Metal>
0.0000

> <Gold.Chemscore.Hbonds>
donor molecule, donor type, donor heavy atom, donor atom, acceptor molecule, acceptor atom, score
      P1  H  7989  7998       L1     8  1.00
      L1  C     7    24       P1  7948  0.83
      L1  C     7    24       P1  7949  0.01
      L1  C     7    24       P1  7957  1.00

> <Gold.PLP.Chemscore.Internal.Correction>
0.4184

> <Gold.Rescore>
     Score         DG    S(hbond)    S(metal)    S(lipo)     H(rot)  DE(clash)    DE(int)     intcor
     13.66     -15.53       0.98        0.00      91.86       1.55       0.22       1.65       ----

> <Gold.Chemscore.Fitness>
13.6561

> <Gold.Chemscore.DG>
-15.5307

> <Gold.Chemscore.ZeroCoef>
-5.4800

> <Gold.Chemscore.Hbond>
0.9770

> <Gold.Chemscore.Metal>
0.0000

> <Gold.Chemscore.Lipo>
91.8645

> <Gold.Chemscore.Internal_Hbond>
0.0000

> <Gold.Chemscore.DEClash>
0.2229

> <Gold.Chemscore.DEInternal>
1.6517

> <Gold.Chemscore.Rot>
1.5471

> <Gold.Chemscore.Internal.Correction>
   9.000000E+99

> <Gold.Chemscore.Hbonds>
donor molecule, donor type, donor heavy atom, donor atom, acceptor molecule, acceptor atom, score
      P1  H  7989  7998       L1     8  0.97

> <Gold.Chemscore.Hbond.Weighted>
-3.2631

> <Gold.Chemscore.Metal.Weighted>
-0.0000

> <Gold.Chemscore.Lipo.Weighted>
-10.7481

> <Gold.Chemscore.Internal_Hbond.Weighted>
0.0000

> <Gold.Chemscore.DEClash.Weighted>
0.2229

> <Gold.Chemscore.DEInternal.Weighted>
1.6517

> <Gold.Chemscore.Rot.Weighted>
3.9606

> <Gold.Chemscore.Internal.Correction.Weighted>
   9.000000E+99

> <Gold.Protein.RotatedTorsions>
[ 6907 6896 6895 6894 ] final  167.44 input  -60.11 | X-H torsion
[ 7974 7965 7964 7962 ] final   93.66 input  175.53 | X-H torsion
[ 8008 7997 7996 7995 ] final  159.95 input   59.86 | X-H torsion
[ 10167 10162 10161 10158 ] final   84.01 input  -65.29 | X-H torsion
[ 10718 10713 10712 10709 ] final  150.64 input   66.30 | X-H torsion
[ 10763 10752 10751 10750 ] final -174.33 input  -60.55 | X-H torsion
[ 11005 11000 10999 10996 ] final   85.91 input  -57.11 | X-H torsion

> <Gold.Protein.ActiveResidues>
 VAL166  LYS551  ARG553  GLY616  TRP617  ASP618  TYR619  PRO620  LYS621  CYS622 
 ASP623  PHE694  ASN695  SER759  ASP760  ASP761  ALA762  ILE779  LEU786  VAL792 
 PHE793  MET794  SER795  GLU796  ALA797  LYS798  CYS799  TRP800  GLU811  SER814 

> <Gold.Protein.RotatedAtoms>
  151.8633  133.3461  159.3710 H   0  0  0  0  0  0  0  0  0  0  0  0  # atno 6907 bound_to 6896
  150.7173  134.5185  159.5651 H   0  0  0  0  0  0  0  0  0  0  0  0  # atno 6908 bound_to 6896
  152.2702  134.7941  160.0466 H   0  0  0  0  0  0  0  0  0  0  0  0  # atno 6909 bound_to 6896
  145.4760  139.2280  143.2909 H   0  0  0  0  0  0  0  0  0  0  0  0  # atno 7974 bound_to 7965
  156.2205  140.1817  156.7489 H   0  0  0  0  0  0  0  0  0  0  0  0  # atno 8008 bound_to 7997
  154.5857  140.0659  156.9197 H   0  0  0  0  0  0  0  0  0  0  0  0  # atno 8009 bound_to 7997
  155.2423  140.3323  155.4293 H   0  0  0  0  0  0  0  0  0  0  0  0  # atno 8010 bound_to 7997
  139.9125  144.6263  150.8523 H   0  0  0  0  0  0  0  0  0  0  0  0  # atno 10167 bound_to 10162
  157.2809  131.0835  151.1532 H   0  0  0  0  0  0  0  0  0  0  0  0  # atno 10718 bound_to 10713
  154.5975  135.2851  155.0571 H   0  0  0  0  0  0  0  0  0  0  0  0  # atno 10763 bound_to 10752
  154.1848  135.6450  153.5048 H   0  0  0  0  0  0  0  0  0  0  0  0  # atno 10764 bound_to 10752
  153.0144  135.5432  154.6682 H   0  0  0  0  0  0  0  0  0  0  0  0  # atno 10765 bound_to 10752
  139.8959  134.8319  156.2647 H   0  0  0  0  0  0  0  0  0  0  0  0  # atno 11005 bound_to 11000
  146.2369  140.5542  142.8951 LP  0  0  0  0  0  0  0  0  0  0  0  0  # atno 17320 bound_to 7965
  144.7917  140.6044  143.6537 LP  0  0  0  0  0  0  0  0  0  0  0  0  # atno 17321 bound_to 7965
  140.7682  143.3356  151.2317 LP  0  0  0  0  0  0  0  0  0  0  0  0  # atno 17342 bound_to 10162
  139.6931  143.9659  152.2869 LP  0  0  0  0  0  0  0  0  0  0  0  0  # atno 17343 bound_to 10162
  157.2967  130.6823  149.6142 LP  0  0  0  0  0  0  0  0  0  0  0  0  # atno 17370 bound_to 10713
  155.9664  130.4404  150.5299 LP  0  0  0  0  0  0  0  0  0  0  0  0  # atno 17371 bound_to 10713
  141.0140  133.7079  156.1157 LP  0  0  0  0  0  0  0  0  0  0  0  0  # atno 17394 bound_to 11000
  140.7328  134.4236  157.5564 LP  0  0  0  0  0  0  0  0  0  0  0  0  # atno 17395 bound_to 11000

$$$$
