AV-unprocessed.smi:878|AV-procd|sdf|4032|dock7
  -GOLD-   22720 1523D 1   1.00000     0.00000
 Structure written by MMmdl.
 32 33  0  0  0  0  0  0  0  0  2 V2000
  143.0960  146.5446  153.6846 C   0  0  0  0  0  0  0  0  0  0  0  0
  143.4722  145.6454  155.2139 S   0  0  0  0  0  0  0  0  0  0  0  0
  144.6841  144.4097  154.8436 C   0  0  0  0  0  0  0  0  0  0  0  0
  145.1266  144.1809  153.5235 C   0  0  0  0  0  0  0  0  0  0  0  0
  146.0902  143.1868  153.2625 C   0  0  0  0  0  0  0  0  0  0  0  0
  146.6261  142.4093  154.3196 C   0  0  0  0  0  0  0  0  0  0  0  0
  147.5723  141.4220  154.1546 O   0  0  0  0  0  0  0  0  0  0  0  0
  148.4237  141.1104  155.2488 C   0  0  0  0  0  0  0  0  0  0  0  0
  149.8370  141.6444  154.9655 C   0  0  0  0  0  0  0  0  0  0  0  0
  150.7379  141.4383  156.1088 N   0  0  0  0  0  0  0  0  0  0  0  0
  150.7345  142.4167  157.1172 C   0  0  0  0  0  0  0  0  0  0  0  0
  151.5262  142.3280  158.2036 C   0  0  0  0  0  0  0  0  0  0  0  0
  151.5022  143.5487  159.4261 Cl  0  0  0  0  0  0  0  0  0  0  0  0
  152.4090  141.1686  158.3157 C   0  0  0  0  0  0  0  0  0  0  0  0
  153.1430  141.0545  159.2963 O   0  0  0  0  0  0  0  0  0  0  0  0
  152.3779  140.2487  157.3075 N   0  5  0  0  0  0  0  0  0  0  0  0
  151.5674  140.3571  156.2096 C   0  0  0  0  0  0  0  0  0  0  0  0
  151.5618  139.5140  155.3125 O   0  0  0  0  0  0  0  0  0  0  0  0
  146.1768  142.6483  155.6339 C   0  0  0  0  0  0  0  0  0  0  0  0
  145.2109  143.6381  155.8965 C   0  0  0  0  0  0  0  0  0  0  0  0
  142.3985  147.3560  153.8923 H   0  0  0  0  0  0  0  0  0  0  0  0
  142.6389  145.8821  152.9498 H   0  0  0  0  0  0  0  0  0  0  0  0
  144.0043  146.9723  153.2599 H   0  0  0  0  0  0  0  0  0  0  0  0
  144.7370  144.7546  152.6974 H   0  0  0  0  0  0  0  0  0  0  0  0
  146.4044  143.0412  152.2403 H   0  0  0  0  0  0  0  0  0  0  0  0
  148.0375  141.5433  156.1733 H   0  0  0  0  0  0  0  0  0  0  0  0
  148.4718  140.0286  155.3794 H   0  0  0  0  0  0  0  0  0  0  0  0
  150.2450  141.1298  154.0944 H   0  0  0  0  0  0  0  0  0  0  0  0
  149.7899  142.6946  154.6739 H   0  0  0  0  0  0  0  0  0  0  0  0
  150.0556  143.2404  156.9507 H   0  0  0  0  0  0  0  0  0  0  0  0
  146.5757  142.0627  156.4494 H   0  0  0  0  0  0  0  0  0  0  0  0
  144.8770  143.8038  156.9102 H   0  0  0  0  0  0  0  0  0  0  0  0
  1  2  1  0  0  0  0
  1 21  1  0  0  0  0
  1 22  1  0  0  0  0
  1 23  1  0  0  0  0
  2  3  1  0  0  0  0
  3 20  1  0  0  0  0
  3  4  2  0  0  0  0
  4  5  1  0  0  0  0
  4 24  1  0  0  0  0
  5  6  2  0  0  0  0
  5 25  1  0  0  0  0
  6  7  1  0  0  0  0
  6 19  1  0  0  0  0
  7  8  1  0  0  0  0
  8  9  1  0  0  0  0
  8 26  1  0  0  0  0
  8 27  1  0  0  0  0
  9 10  1  0  0  0  0
  9 28  1  0  0  0  0
  9 29  1  0  0  0  0
 10 17  1  0  0  0  0
 10 11  1  0  0  0  0
 11 12  2  0  0  0  0
 11 30  1  0  0  0  0
 12 13  1  0  0  0  0
 12 14  1  0  0  0  0
 14 15  2  0  0  0  0
 14 16  1  0  0  0  0
 16 17  1  0  0  0  0
 17 18  2  0  0  0  0
 19 20  2  0  0  0  0
 19 31  1  0  0  0  0
 20 32  1  0  0  0  0
M  CHG  1  16  -1
M  END
> <s_m_source_file>
AV-unprocessed.smi

> <i_m_source_file_index>
878

> <i_lp_mmshare_version>
43012

> <i_f3d_flags>
0

> <s_epik_input>
W0NIM11TYzFbY0hdW2NIXWMoW2NIXVtjSF0xKU9bQ0gyXVtDSDJdbjJbY0hdYyhDbCljKD1PKVtuSF1jMj1P

> <s_epik_cmdline>
J2VwaWtfcHl0aG9uJywgJy1waCcsICc3LjAnLCAnLXRuJywgJzgnLCAnLW1hJywgJzIwMCcsICctbWV0YWxfYmluZGluZycsICctaW1hZScsICc8aW5maWxlLm1hZT4nLCAnLW9tYWUnLCAnPG91dGZpbGUubWFlPic=

> <r_lp_tautomer_probability>
1

> <r_epik_Ionization_Penalty>
1.65349

> <r_epik_Ionization_Penalty_Charging>
1.22116e-08

> <r_epik_Ionization_Penalty_Neutral>
1.65349

> <r_epik_State_Penalty>
1.75578

> <r_epik_Charging_Adjusted_Penalty>
1.75578

> <i_epik_Tot_Q>
-1

> <i_epik_Tot_abs_Q>
1

> <r_epik_Metal_State_Penalty>
0.0107816

> <b_epik_Metal_Only>
0

> <s_lp_Force_Field>
OPLS_2005

> <r_lp_Energy>
23.8138

> <b_lp_Chiralities_Consistent>
1

> <s_lp_Variant>
AV-unprocessed.smi:878-2

> <Gold.Version>
5.8.1

> <Gold.Id.Protein>
6NUR|6NUR_protein|mol2

> <Gold.PLP.Fitness>
48.7388

> <Gold.PLP.PLP>
-38.8564

> <Gold.PLP.part.hbond>
-2.0000

> <Gold.PLP.part.metal>
0.0000

> <Gold.PLP.part.buried>
-4.8090

> <Gold.PLP.part.nonpolar>
-30.3165

> <Gold.PLP.part.repulsive>
0.1856

> <Gold.PLP.ligand.clash>
0.0058

> <Gold.PLP.ligand.torsion>
1.0707

> <Gold.PLP.Chemscore.Hbond>
3.0000

> <Gold.PLP.Chemscore.CHOScore>
1.0000

> <Gold.PLP.Chemscore.Metal>
0.0000

> <Gold.Chemscore.Hbonds>
donor molecule, donor type, donor heavy atom, donor atom, acceptor molecule, acceptor atom, score
      P1  H  7989  7998       L1    18  0.42
      P1  H  7997  8009       L1    16  1.62
      L1  C    11    30       P1  8028  1.00

> <Gold.PLP.Chemscore.Internal.Correction>
0.0296

> <Gold.Rescore>
     Score         DG    S(hbond)    S(metal)    S(lipo)     H(rot)  DE(clash)    DE(int)     intcor
     12.95     -14.64       1.31        0.00      82.54       1.91       0.62       1.07       ----

> <Gold.Chemscore.Fitness>
12.9501

> <Gold.Chemscore.DG>
-14.6393

> <Gold.Chemscore.ZeroCoef>
-5.4800

> <Gold.Chemscore.Hbond>
1.3130

> <Gold.Chemscore.Metal>
0.0000

> <Gold.Chemscore.Lipo>
82.5354

> <Gold.Chemscore.Internal_Hbond>
0.0000

> <Gold.Chemscore.DEClash>
0.6225

> <Gold.Chemscore.DEInternal>
1.0667

> <Gold.Chemscore.Rot>
1.9073

> <Gold.Chemscore.Internal.Correction>
   9.000000E+99

> <Gold.Chemscore.Hbonds>
donor molecule, donor type, donor heavy atom, donor atom, acceptor molecule, acceptor atom, score
      P1  H  7989  7998       L1    18  0.11
      P1  H  7997  8009       L1    16  0.23

> <Gold.Chemscore.Hbond.Weighted>
-4.3853

> <Gold.Chemscore.Metal.Weighted>
-0.0000

> <Gold.Chemscore.Lipo.Weighted>
-9.6566

> <Gold.Chemscore.Internal_Hbond.Weighted>
0.0000

> <Gold.Chemscore.DEClash.Weighted>
0.6225

> <Gold.Chemscore.DEInternal.Weighted>
1.0667

> <Gold.Chemscore.Rot.Weighted>
4.8826

> <Gold.Chemscore.Internal.Correction.Weighted>
   9.000000E+99

> <Gold.Protein.RotatedTorsions>
[ 6907 6896 6895 6894 ] final  112.39 input  -60.11 | X-H torsion
[ 7974 7965 7964 7962 ] final -169.50 input  175.53 | X-H torsion
[ 8008 7997 7996 7995 ] final -178.06 input   59.86 | X-H torsion
[ 10167 10162 10161 10158 ] final  -59.90 input  -65.29 | X-H torsion
[ 10718 10713 10712 10709 ] final -128.79 input   66.30 | X-H torsion
[ 10763 10752 10751 10750 ] final   52.36 input  -60.55 | X-H torsion
[ 11005 11000 10999 10996 ] final -126.26 input  -57.11 | X-H torsion

> <Gold.Protein.ActiveResidues>
 VAL166  LYS551  ARG553  GLY616  TRP617  ASP618  TYR619  PRO620  LYS621  CYS622 
 ASP623  PHE694  ASN695  SER759  ASP760  ASP761  ALA762  ILE779  LEU786  VAL792 
 PHE793  MET794  SER795  GLU796  ALA797  LYS798  CYS799  TRP800  GLU811  SER814 

> <Gold.Protein.RotatedAtoms>
  152.4919  133.8523  159.7207 H   0  0  0  0  0  0  0  0  0  0  0  0  # atno 6907 bound_to 6896
  150.9057  133.7052  159.2874 H   0  0  0  0  0  0  0  0  0  0  0  0  # atno 6908 bound_to 6896
  151.4478  135.1031  159.9741 H   0  0  0  0  0  0  0  0  0  0  0  0  # atno 6909 bound_to 6896
  144.7184  140.2211  143.6316 H   0  0  0  0  0  0  0  0  0  0  0  0  # atno 7974 bound_to 7965
  156.0144  140.1247  157.0421 H   0  0  0  0  0  0  0  0  0  0  0  0  # atno 8008 bound_to 7997
  154.4287  140.1081  156.5944 H   0  0  0  0  0  0  0  0  0  0  0  0  # atno 8009 bound_to 7997
  155.6034  140.3471  155.4603 H   0  0  0  0  0  0  0  0  0  0  0  0  # atno 8010 bound_to 7997
  140.6105  143.2386  151.5720 H   0  0  0  0  0  0  0  0  0  0  0  0  # atno 10167 bound_to 10162
  156.1985  130.6841  151.0510 H   0  0  0  0  0  0  0  0  0  0  0  0  # atno 10718 bound_to 10713
  152.9788  135.5815  154.4566 H   0  0  0  0  0  0  0  0  0  0  0  0  # atno 10763 bound_to 10752
  154.4148  135.2770  155.2015 H   0  0  0  0  0  0  0  0  0  0  0  0  # atno 10764 bound_to 10752
  154.3790  135.6151  153.5834 H   0  0  0  0  0  0  0  0  0  0  0  0  # atno 10765 bound_to 10752
  140.9696  134.0824  157.3883 H   0  0  0  0  0  0  0  0  0  0  0  0  # atno 11005 bound_to 11000
  145.8500  139.2171  143.1777 LP  0  0  0  0  0  0  0  0  0  0  0  0  # atno 17320 bound_to 7965
  146.0269  140.8295  142.9895 LP  0  0  0  0  0  0  0  0  0  0  0  0  # atno 17321 bound_to 7965
  139.5358  144.2786  152.1247 LP  0  0  0  0  0  0  0  0  0  0  0  0  # atno 17342 bound_to 10162
  140.1984  144.4682  150.6443 LP  0  0  0  0  0  0  0  0  0  0  0  0  # atno 17343 bound_to 10162
  157.6971  131.0790  150.6934 LP  0  0  0  0  0  0  0  0  0  0  0  0  # atno 17370 bound_to 10713
  156.6991  130.4618  149.5578 LP  0  0  0  0  0  0  0  0  0  0  0  0  # atno 17371 bound_to 10713
  139.8907  135.0114  156.6752 LP  0  0  0  0  0  0  0  0  0  0  0  0  # atno 17394 bound_to 11000
  140.7348  133.9028  155.8237 LP  0  0  0  0  0  0  0  0  0  0  0  0  # atno 17395 bound_to 11000

$$$$
