AV-unprocessed.smi:447|AV-procd|sdf|2601|dock7
  -GOLD-   2262022593D 1   1.00000     0.00000
 Structure written by MMmdl.
 46 48  0  0  0  0  0  0  0  0  2 V2000
  152.0909  136.6111  158.8832 C   0  0  0  0  0  0  0  0  0  0  0  0
  152.2091  136.5792  157.3632 C   0  0  0  0  0  0  0  0  0  0  0  0
  152.9992  135.8061  156.8236 O   0  0  0  0  0  0  0  0  0  0  0  0
  151.4167  137.4231  156.6841 N   0  0  0  0  0  0  0  0  0  0  0  0
  151.3934  137.5741  155.2306 C   0  0  2  0  0  0  0  0  0  0  0  0
  152.7726  138.0360  154.7418 C   0  0  0  0  0  0  0  0  0  0  0  0
  150.3267  138.5212  154.7583 C   0  0  0  0  0  0  0  0  0  0  0  0
  149.3439  138.2429  153.8530 N   0  3  0  0  0  0  0  0  0  0  0  0
  148.5358  139.3647  153.6686 C   0  0  0  0  0  0  0  0  0  0  0  0
  147.4291  139.5672  152.8497 C   0  0  0  0  0  0  0  0  0  0  0  0
  146.8293  140.8427  152.9003 C   0  0  0  0  0  0  0  0  0  0  0  0
  147.3303  141.8570  153.7421 C   0  0  0  0  0  0  0  0  0  0  0  0
  148.4521  141.6390  154.5691 C   0  0  0  0  0  0  0  0  0  0  0  0
  149.0399  140.3755  154.5112 C   0  0  0  0  0  0  0  0  0  0  0  0
  150.1383  139.8100  155.1677 N   0  0  0  0  0  0  0  0  0  0  0  0
  150.8883  140.6279  156.1341 C   0  0  0  0  0  0  0  0  0  0  0  0
  150.5391  140.2948  157.5985 C   0  0  2  0  0  0  0  0  0  0  0  0
  149.1470  140.4376  157.8011 O   0  0  0  0  0  0  0  0  0  0  0  0
  151.3515  141.1396  158.5668 C   0  0  0  0  0  0  0  0  0  0  0  0
  152.1235  140.5148  159.5699 C   0  0  0  0  0  0  0  0  0  0  0  0
  152.8818  141.2903  160.4684 C   0  0  0  0  0  0  0  0  0  0  0  0
  152.8753  142.6946  160.3670 C   0  0  0  0  0  0  0  0  0  0  0  0
  152.1118  143.3234  159.3648 C   0  0  0  0  0  0  0  0  0  0  0  0
  151.3527  142.5485  158.4663 C   0  0  0  0  0  0  0  0  0  0  0  0
  151.0859  136.8984  159.1945 H   0  0  0  0  0  0  0  0  0  0  0  0
  152.7989  137.3272  159.3007 H   0  0  0  0  0  0  0  0  0  0  0  0
  152.3082  135.6291  159.3045 H   0  0  0  0  0  0  0  0  0  0  0  0
  150.8018  138.0239  157.2139 H   0  0  0  0  0  0  0  0  0  0  0  0
  151.1956  136.5912  154.8007 H   0  0  0  0  0  0  0  0  0  0  0  0
  152.8013  138.1031  153.6537 H   0  0  0  0  0  0  0  0  0  0  0  0
  153.5519  137.3371  155.0473 H   0  0  0  0  0  0  0  0  0  0  0  0
  153.0285  139.0178  155.1423 H   0  0  0  0  0  0  0  0  0  0  0  0
  147.0434  138.7920  152.2038 H   0  0  0  0  0  0  0  0  0  0  0  0
  145.9683  141.0474  152.2804 H   0  0  0  0  0  0  0  0  0  0  0  0
  146.8448  142.8223  153.7540 H   0  0  0  0  0  0  0  0  0  0  0  0
  148.8291  142.4224  155.2099 H   0  0  0  0  0  0  0  0  0  0  0  0
  151.9536  140.4881  155.9478 H   0  0  0  0  0  0  0  0  0  0  0  0
  150.6798  141.6766  155.9203 H   0  0  0  0  0  0  0  0  0  0  0  0
  150.7712  139.2460  157.7874 H   0  0  0  0  0  0  0  0  0  0  0  0
  148.6956  140.0633  157.0599 H   0  0  0  0  0  0  0  0  0  0  0  0
  152.1371  139.4380  159.6546 H   0  0  0  0  0  0  0  0  0  0  0  0
  153.4687  140.8076  161.2359 H   0  0  0  0  0  0  0  0  0  0  0  0
  153.4565  143.2892  161.0565 H   0  0  0  0  0  0  0  0  0  0  0  0
  152.1081  144.4006  159.2848 H   0  0  0  0  0  0  0  0  0  0  0  0
  150.7721  143.0398  157.6990 H   0  0  0  0  0  0  0  0  0  0  0  0
  149.2442  137.3495  153.3890 H   0  0  0  0  0  0  0  0  0  0  0  0
  1  2  1  0  0  0  0
  1 25  1  0  0  0  0
  1 26  1  0  0  0  0
  1 27  1  0  0  0  0
  2  3  2  0  0  0  0
  2  4  1  0  0  0  0
  4  5  1  0  0  0  0
  4 28  1  0  0  0  0
  5  6  1  0  0  0  0
  5  7  1  0  0  0  0
  5 29  1  0  0  0  0
  6 30  1  0  0  0  0
  6 31  1  0  0  0  0
  6 32  1  0  0  0  0
  7 15  1  0  0  0  0
  7  8  2  0  0  0  0
  8  9  1  0  0  0  0
  8 46  1  0  0  0  0
  9 14  2  0  0  0  0
  9 10  1  0  0  0  0
 10 11  2  0  0  0  0
 10 33  1  0  0  0  0
 11 12  1  0  0  0  0
 11 34  1  0  0  0  0
 12 13  2  0  0  0  0
 12 35  1  0  0  0  0
 13 14  1  0  0  0  0
 13 36  1  0  0  0  0
 14 15  1  0  0  0  0
 15 16  1  0  0  0  0
 16 17  1  0  0  0  0
 16 37  1  0  0  0  0
 16 38  1  0  0  0  0
 17 18  1  0  0  0  0
 17 19  1  0  0  0  0
 17 39  1  0  0  0  0
 18 40  1  0  0  0  0
 19 24  1  0  0  0  0
 19 20  2  0  0  0  0
 20 21  1  0  0  0  0
 20 41  1  0  0  0  0
 21 22  2  0  0  0  0
 21 42  1  0  0  0  0
 22 23  1  0  0  0  0
 22 43  1  0  0  0  0
 23 24  2  0  0  0  0
 23 44  1  0  0  0  0
 24 45  1  0  0  0  0
M  CHG  1   8   1
M  END
> <s_m_source_file>
AV-unprocessed.smi

> <i_m_source_file_index>
447

> <i_lp_mmshare_version>
43012

> <i_f3d_flags>
0

> <s_epik_input>
W0NIM11DKD1PKVtOSF1bQ0BIXShbQ0gzXSljKG4xKW4oYyhjMTIpW2NIXVtjSF1bY0hdW2NIXTIpW0NIMl1bQ0BIXShbT0hdKWMzW2NIXVtjSF1bY0hdW2NIXVtjSF0z

> <s_epik_cmdline>
J2VwaWtfcHl0aG9uJywgJy1waCcsICc3LjAnLCAnLXRuJywgJzgnLCAnLW1hJywgJzIwMCcsICctbWV0YWxfYmluZGluZycsICctaW1hZScsICc8aW5maWxlLm1hZT4nLCAnLW9tYWUnLCAnPG91dGZpbGUubWFlPic=

> <r_epik_Ionization_Penalty>
0.950381

> <r_epik_Ionization_Penalty_Charging>
0.950379

> <r_epik_Ionization_Penalty_Neutral>
1.42115e-06

> <r_epik_State_Penalty>
0.994584

> <r_epik_Charging_Adjusted_Penalty>
1.94496

> <i_epik_Tot_Q>
1

> <i_epik_Tot_abs_Q>
1

> <r_epik_Metal_State_Penalty>
1.10485

> <b_epik_Metal_Only>
0

> <s_lp_Force_Field>
OPLS_2005

> <r_lp_Energy>
11.6076

> <b_lp_Chiralities_Consistent>
1

> <s_lp_Variant>
AV-unprocessed.smi:447-5

> <Gold.Version>
5.8.1

> <Gold.Id.Protein>
6NUR|6NUR_protein|mol2

> <Gold.PLP.Fitness>
57.2422

> <Gold.PLP.PLP>
-49.1440

> <Gold.PLP.part.hbond>
-2.5581

> <Gold.PLP.part.metal>
0.0000

> <Gold.PLP.part.buried>
-0.1272

> <Gold.PLP.part.nonpolar>
-47.8812

> <Gold.PLP.part.repulsive>
0.1218

> <Gold.PLP.ligand.clash>
0.0000

> <Gold.PLP.ligand.torsion>
0.4602

> <Gold.PLP.Chemscore.Hbond>
2.9760

> <Gold.PLP.Chemscore.CHOScore>
0.0000

> <Gold.PLP.Chemscore.Metal>
0.0000

> <Gold.Chemscore.Hbonds>
donor molecule, donor type, donor heavy atom, donor atom, acceptor molecule, acceptor atom, score
      L1  H     8    46       P1  7948  2.00
      P1  H 10752 10763       L1     3  1.00

> <Gold.PLP.Chemscore.Internal.Correction>
0.0905

> <Gold.Rescore>
     Score         DG    S(hbond)    S(metal)    S(lipo)     H(rot)  DE(clash)    DE(int)     intcor
     19.54     -21.59       1.75        0.00     140.50       2.41       1.64       0.41       ----

> <Gold.Chemscore.Fitness>
19.5390

> <Gold.Chemscore.DG>
-21.5900

> <Gold.Chemscore.ZeroCoef>
-5.4800

> <Gold.Chemscore.Hbond>
1.7498

> <Gold.Chemscore.Metal>
0.0000

> <Gold.Chemscore.Lipo>
140.4971

> <Gold.Chemscore.Internal_Hbond>
0.0000

> <Gold.Chemscore.DEClash>
1.6391

> <Gold.Chemscore.DEInternal>
0.4119

> <Gold.Chemscore.Rot>
2.4112

> <Gold.Chemscore.Internal.Correction>
   9.000000E+99

> <Gold.Chemscore.Hbonds>
donor molecule, donor type, donor heavy atom, donor atom, acceptor molecule, acceptor atom, score
      L1  H     8    46       P1  7948  0.96
      P1  H 10752 10763       L1     3  1.00

> <Gold.Chemscore.Hbond.Weighted>
-5.8445

> <Gold.Chemscore.Metal.Weighted>
-0.0000

> <Gold.Chemscore.Lipo.Weighted>
-16.4382

> <Gold.Chemscore.Internal_Hbond.Weighted>
0.0000

> <Gold.Chemscore.DEClash.Weighted>
1.6391

> <Gold.Chemscore.DEInternal.Weighted>
0.4119

> <Gold.Chemscore.Rot.Weighted>
6.1727

> <Gold.Chemscore.Internal.Correction.Weighted>
   9.000000E+99

> <Gold.Protein.RotatedTorsions>
[ 6907 6896 6895 6894 ] final -168.73 input  -60.11 | X-H torsion
[ 7974 7965 7964 7962 ] final  117.50 input  175.53 | X-H torsion
[ 8008 7997 7996 7995 ] final   -4.75 input   59.86 | X-H torsion
[ 10167 10162 10161 10158 ] final   78.59 input  -65.29 | X-H torsion
[ 10718 10713 10712 10709 ] final  -62.38 input   66.30 | X-H torsion
[ 10763 10752 10751 10750 ] final  119.26 input  -60.55 | X-H torsion
[ 11005 11000 10999 10996 ] final    7.10 input  -57.11 | X-H torsion

> <Gold.Protein.ActiveResidues>
 VAL166  LYS551  ARG553  GLY616  TRP617  ASP618  TYR619  PRO620  LYS621  CYS622 
 ASP623  PHE694  ASN695  SER759  ASP760  ASP761  ALA762  ILE779  LEU786  VAL792 
 PHE793  MET794  SER795  GLU796  ALA797  LYS798  CYS799  TRP800  GLU811  SER814 

> <Gold.Protein.RotatedAtoms>
  151.4803  133.3548  159.2836 H   0  0  0  0  0  0  0  0  0  0  0  0  # atno 6907 bound_to 6896
  150.8902  134.8306  159.7298 H   0  0  0  0  0  0  0  0  0  0  0  0  # atno 6908 bound_to 6896
  152.4818  134.4711  159.9688 H   0  0  0  0  0  0  0  0  0  0  0  0  # atno 6909 bound_to 6896
  145.1665  139.3125  143.4490 H   0  0  0  0  0  0  0  0  0  0  0  0  # atno 7974 bound_to 7965
  154.6110  140.2476  155.7668 H   0  0  0  0  0  0  0  0  0  0  0  0  # atno 8008 bound_to 7997
  156.2371  140.2946  156.0291 H   0  0  0  0  0  0  0  0  0  0  0  0  # atno 8009 bound_to 7997
  155.2052  140.0395  157.2914 H   0  0  0  0  0  0  0  0  0  0  0  0  # atno 8010 bound_to 7997
  139.9693  144.5906  150.8000 H   0  0  0  0  0  0  0  0  0  0  0  0  # atno 10167 bound_to 10162
  156.0859  130.4208  150.1127 H   0  0  0  0  0  0  0  0  0  0  0  0  # atno 10718 bound_to 10713
  153.5802  135.3485  155.2872 H   0  0  0  0  0  0  0  0  0  0  0  0  # atno 10763 bound_to 10752
  154.8669  135.4180  154.2628 H   0  0  0  0  0  0  0  0  0  0  0  0  # atno 10764 bound_to 10752
  153.3413  135.7050  153.6935 H   0  0  0  0  0  0  0  0  0  0  0  0  # atno 10765 bound_to 10752
  140.5520  134.0274  155.7940 H   0  0  0  0  0  0  0  0  0  0  0  0  # atno 11005 bound_to 11000
  146.3475  140.1795  142.8589 LP  0  0  0  0  0  0  0  0  0  0  0  0  # atno 17320 bound_to 7965
  145.0276  140.8845  143.5129 LP  0  0  0  0  0  0  0  0  0  0  0  0  # atno 17321 bound_to 7965
  140.7527  143.2995  151.3116 LP  0  0  0  0  0  0  0  0  0  0  0  0  # atno 17342 bound_to 10162
  139.6494  144.0391  152.2615 LP  0  0  0  0  0  0  0  0  0  0  0  0  # atno 17343 bound_to 10162
  156.9148  130.9663  151.3557 LP  0  0  0  0  0  0  0  0  0  0  0  0  # atno 17370 bound_to 10713
  157.5993  130.8501  149.8777 LP  0  0  0  0  0  0  0  0  0  0  0  0  # atno 17371 bound_to 10713
  141.1166  133.9530  157.2811 LP  0  0  0  0  0  0  0  0  0  0  0  0  # atno 17394 bound_to 11000
  139.9450  135.0185  156.8826 LP  0  0  0  0  0  0  0  0  0  0  0  0  # atno 17395 bound_to 11000

$$$$
