AV-unprocessed.smi:1962|AV-procd|sdf|7922|dock6
  -GOLD-   2272010 93D 1   1.00000     0.00000
 Structure written by MMmdl.
 36 37  0  0  0  0  0  0  0  0  1 V2000
  154.3296  142.0218  159.2298 C   0  0  0  0  0  0  0  0  0  0  0  0
  153.1466  141.3585  159.9478 C   0  0  2  0  0  0  0  0  0  0  0  0
  152.5338  142.2966  161.0088 C   0  0  0  0  0  0  0  0  0  0  0  0
  151.7835  143.3923  160.4194 N   0  0  0  0  0  0  0  0  0  0  0  0
  152.0286  144.7461  160.5125 C   0  0  0  0  0  0  0  0  0  0  0  0
  151.0689  145.3838  159.7802 C   0  0  0  0  0  0  0  0  0  0  0  0
  150.2700  144.3216  159.2719 C   0  0  0  0  0  0  0  0  0  0  0  0
  150.6976  143.1311  159.6590 N   0  0  0  0  0  0  0  0  0  0  0  0
  153.6011  140.1108  160.5598 N   0  0  0  0  0  0  0  0  0  0  0  0
  154.0037  139.0087  159.8994 C   0  0  0  0  0  0  0  0  0  0  0  0
  154.0670  138.9460  158.6712 O   0  0  0  0  0  0  0  0  0  0  0  0
  154.3576  137.8379  160.7450 C   0  0  0  0  0  0  0  0  0  0  0  0
  154.3825  137.9530  162.0360 N   0  0  0  0  0  0  0  0  0  0  0  0
  154.6863  136.8889  162.8607 N   0  0  0  0  0  0  0  0  0  0  0  0
  154.4005  137.1094  164.2769 C   0  0  0  0  0  0  0  0  0  0  0  0
  155.2323  135.7201  162.4419 C   0  0  0  0  0  0  0  0  0  0  0  0
  155.4825  134.7748  163.1896 O   0  0  0  0  0  0  0  0  0  0  0  0
  155.5703  135.6205  160.9516 C   0  0  0  0  0  0  0  0  0  0  0  0
  154.6519  136.5051  160.0851 C   0  0  0  0  0  0  0  0  0  0  0  0
  154.0227  142.9465  158.7404 H   0  0  0  0  0  0  0  0  0  0  0  0
  154.7412  141.3653  158.4625 H   0  0  0  0  0  0  0  0  0  0  0  0
  155.1325  142.2649  159.9268 H   0  0  0  0  0  0  0  0  0  0  0  0
  152.3882  141.1484  159.1915 H   0  0  0  0  0  0  0  0  0  0  0  0
  151.8838  141.7388  161.6853 H   0  0  0  0  0  0  0  0  0  0  0  0
  153.3235  142.7289  161.6245 H   0  0  0  0  0  0  0  0  0  0  0  0
  152.8598  145.1373  161.0806 H   0  0  0  0  0  0  0  0  0  0  0  0
  150.9559  146.4469  159.6284 H   0  0  0  0  0  0  0  0  0  0  0  0
  149.3974  144.3798  158.6381 H   0  0  0  0  0  0  0  0  0  0  0  0
  153.5765  140.0664  161.5685 H   0  0  0  0  0  0  0  0  0  0  0  0
  155.3072  137.0041  164.8745 H   0  0  0  0  0  0  0  0  0  0  0  0
  153.6673  136.3856  164.6362 H   0  0  0  0  0  0  0  0  0  0  0  0
  153.9972  138.1062  164.4632 H   0  0  0  0  0  0  0  0  0  0  0  0
  156.6066  135.9374  160.8291 H   0  0  0  0  0  0  0  0  0  0  0  0
  155.5179  134.5821  160.6228 H   0  0  0  0  0  0  0  0  0  0  0  0
  153.7125  135.9869  159.8889 H   0  0  0  0  0  0  0  0  0  0  0  0
  155.1300  136.6522  159.1158 H   0  0  0  0  0  0  0  0  0  0  0  0
  1  2  1  0  0  0  0
  1 20  1  0  0  0  0
  1 21  1  0  0  0  0
  1 22  1  0  0  0  0
  2  3  1  0  0  0  0
  2  9  1  0  0  0  0
  2 23  1  0  0  0  0
  3  4  1  0  0  0  0
  3 24  1  0  0  0  0
  3 25  1  0  0  0  0
  4  8  1  0  0  0  0
  4  5  1  0  0  0  0
  5  6  2  0  0  0  0
  5 26  1  0  0  0  0
  6  7  1  0  0  0  0
  6 27  1  0  0  0  0
  7  8  2  0  0  0  0
  7 28  1  0  0  0  0
  9 10  1  0  0  0  0
  9 29  1  0  0  0  0
 10 11  2  0  0  0  0
 10 12  1  0  0  0  0
 12 19  1  0  0  0  0
 12 13  2  0  0  0  0
 13 14  1  0  0  0  0
 14 15  1  0  0  0  0
 14 16  1  0  0  0  0
 15 30  1  0  0  0  0
 15 31  1  0  0  0  0
 15 32  1  0  0  0  0
 16 17  2  0  0  0  0
 16 18  1  0  0  0  0
 18 19  1  0  0  0  0
 18 33  1  0  0  0  0
 18 34  1  0  0  0  0
 19 35  1  0  0  0  0
 19 36  1  0  0  0  0
M  END
> <s_m_source_file>
AV-unprocessed.smi

> <i_m_source_file_index>
1962

> <i_lp_mmshare_version>
43012

> <i_f3d_flags>
0

> <s_epik_input>
bjFbY0hdW2NIXVtjSF1uMVtDSDJdW0NAQEhdKFtDSDNdKVtOSF1DKD1PKUMyPU5OKFtDSDNdKUMoPU8pW0NIMl1bQ0gyXTI=

> <s_epik_cmdline>
J2VwaWtfcHl0aG9uJywgJy1waCcsICc3LjAnLCAnLXRuJywgJzgnLCAnLW1hJywgJzIwMCcsICctbWV0YWxfYmluZGluZycsICctaW1hZScsICc8aW5maWxlLm1hZT4nLCAnLW9tYWUnLCAnPG91dGZpbGUubWFlPic=

> <r_lp_tautomer_probability>
1

> <r_epik_Ionization_Penalty>
9.43868e-05

> <r_epik_Ionization_Penalty_Charging>
0

> <r_epik_Ionization_Penalty_Neutral>
9.43868e-05

> <r_epik_State_Penalty>
-0

> <r_epik_Charging_Adjusted_Penalty>
0

> <i_epik_Tot_Q>
0

> <i_epik_Tot_abs_Q>
0

> <r_epik_Metal_State_Penalty>
0.0732556

> <b_epik_Metal_Only>
0

> <s_epik_Chemistry_Notes>
This compound has an imine and may undergo hydrolysis.

> <s_lp_Force_Field>
OPLS_2005

> <r_lp_Energy>
16.0967

> <b_lp_Chiralities_Consistent>
1

> <s_lp_Variant>
AV-unprocessed.smi:1962-1

> <Gold.Version>
5.8.1

> <Gold.Id.Protein>
6NUR|6NUR_protein|mol2

> <Gold.PLP.Fitness>
41.8351

> <Gold.PLP.PLP>
-36.0788

> <Gold.PLP.part.hbond>
-1.2254

> <Gold.PLP.part.metal>
0.0000

> <Gold.PLP.part.buried>
-6.1664

> <Gold.PLP.part.nonpolar>
-28.2008

> <Gold.PLP.part.repulsive>
0.1249

> <Gold.PLP.ligand.clash>
0.0000

> <Gold.PLP.ligand.torsion>
0.1830

> <Gold.PLP.Chemscore.Hbond>
1.0000

> <Gold.PLP.Chemscore.CHOScore>
1.0286

> <Gold.PLP.Chemscore.Metal>
0.0000

> <Gold.Chemscore.Hbonds>
donor molecule, donor type, donor heavy atom, donor atom, acceptor molecule, acceptor atom, score
      P1  H  7997  8008       L1    11  1.00
      L1  C     7    28       P1  8029  0.93

> <Gold.PLP.Chemscore.Internal.Correction>
0.0364

> <Gold.Rescore>
     Score         DG    S(hbond)    S(metal)    S(lipo)     H(rot)  DE(clash)    DE(int)     intcor
     13.99     -14.86       1.00        0.00      85.06       1.53       0.67       0.19       ----

> <Gold.Chemscore.Fitness>
13.9855

> <Gold.Chemscore.DG>
-14.8553

> <Gold.Chemscore.ZeroCoef>
-5.4800

> <Gold.Chemscore.Hbond>
0.9966

> <Gold.Chemscore.Metal>
0.0000

> <Gold.Chemscore.Lipo>
85.0579

> <Gold.Chemscore.Internal_Hbond>
0.0000

> <Gold.Chemscore.DEClash>
0.6750

> <Gold.Chemscore.DEInternal>
0.1948

> <Gold.Chemscore.Rot>
1.5254

> <Gold.Chemscore.Internal.Correction>
   9.000000E+99

> <Gold.Chemscore.Hbonds>
donor molecule, donor type, donor heavy atom, donor atom, acceptor molecule, acceptor atom, score
      P1  H  7997  8008       L1    11  0.98

> <Gold.Chemscore.Hbond.Weighted>
-3.3286

> <Gold.Chemscore.Metal.Weighted>
-0.0000

> <Gold.Chemscore.Lipo.Weighted>
-9.9518

> <Gold.Chemscore.Internal_Hbond.Weighted>
0.0000

> <Gold.Chemscore.DEClash.Weighted>
0.6750

> <Gold.Chemscore.DEInternal.Weighted>
0.1948

> <Gold.Chemscore.Rot.Weighted>
3.9051

> <Gold.Chemscore.Internal.Correction.Weighted>
   9.000000E+99

> <Gold.Protein.RotatedTorsions>
[ 6907 6896 6895 6894 ] final -135.93 input  -60.11 | X-H torsion
[ 7974 7965 7964 7962 ] final  -40.97 input  175.53 | X-H torsion
[ 8008 7997 7996 7995 ] final  -97.77 input   59.86 | X-H torsion
[ 10167 10162 10161 10158 ] final  -82.59 input  -65.29 | X-H torsion
[ 10718 10713 10712 10709 ] final  155.92 input   66.30 | X-H torsion
[ 10763 10752 10751 10750 ] final   54.56 input  -60.55 | X-H torsion
[ 11005 11000 10999 10996 ] final  -25.32 input  -57.11 | X-H torsion

> <Gold.Protein.ActiveResidues>
 VAL166  LYS551  ARG553  GLY616  TRP617  ASP618  TYR619  PRO620  LYS621  CYS622 
 ASP623  PHE694  ASN695  SER759  ASP760  ASP761  ALA762  ILE779  LEU786  VAL792 
 PHE793  MET794  SER795  GLU796  ALA797  LYS798  CYS799  TRP800  GLU811  SER814 

> <Gold.Protein.RotatedAtoms>
  151.0039  133.6029  159.2691 H   0  0  0  0  0  0  0  0  0  0  0  0  # atno 6907 bound_to 6896
  151.3206  135.0816  159.9314 H   0  0  0  0  0  0  0  0  0  0  0  0  # atno 6908 bound_to 6896
  152.5281  133.9687  159.7806 H   0  0  0  0  0  0  0  0  0  0  0  0  # atno 6909 bound_to 6896
  146.0255  140.6797  142.9158 H   0  0  0  0  0  0  0  0  0  0  0  0  # atno 7974 bound_to 7965
  154.7922  140.0460  157.1209 H   0  0  0  0  0  0  0  0  0  0  0  0  # atno 8008 bound_to 7997
  154.9578  140.3073  155.5025 H   0  0  0  0  0  0  0  0  0  0  0  0  # atno 8009 bound_to 7997
  156.2951  140.2276  156.4660 H   0  0  0  0  0  0  0  0  0  0  0  0  # atno 8010 bound_to 7997
  140.4305  143.2550  151.8765 H   0  0  0  0  0  0  0  0  0  0  0  0  # atno 10167 bound_to 10162
  157.2119  131.0699  151.1964 H   0  0  0  0  0  0  0  0  0  0  0  0  # atno 10718 bound_to 10713
  152.9806  135.5741  154.4923 H   0  0  0  0  0  0  0  0  0  0  0  0  # atno 10763 bound_to 10752
  154.4456  135.2777  155.1819 H   0  0  0  0  0  0  0  0  0  0  0  0  # atno 10764 bound_to 10752
  154.3469  135.6217  153.5677 H   0  0  0  0  0  0  0  0  0  0  0  0  # atno 10765 bound_to 10752
  140.8927  133.7577  156.0442 H   0  0  0  0  0  0  0  0  0  0  0  0  # atno 11005 bound_to 11000
  144.7008  140.3642  143.7158 LP  0  0  0  0  0  0  0  0  0  0  0  0  # atno 17320 bound_to 7965
  145.7125  139.1688  143.2531 LP  0  0  0  0  0  0  0  0  0  0  0  0  # atno 17321 bound_to 7965
  139.4785  144.5339  151.8626 LP  0  0  0  0  0  0  0  0  0  0  0  0  # atno 17342 bound_to 10162
  140.4432  144.1957  150.5892 LP  0  0  0  0  0  0  0  0  0  0  0  0  # atno 17343 bound_to 10162
  157.3663  130.7157  149.6535 LP  0  0  0  0  0  0  0  0  0  0  0  0  # atno 17370 bound_to 10713
  155.9690  130.4211  150.4455 LP  0  0  0  0  0  0  0  0  0  0  0  0  # atno 17371 bound_to 10713
  140.8327  134.3159  157.5343 LP  0  0  0  0  0  0  0  0  0  0  0  0  # atno 17394 bound_to 11000
  139.8731  134.9372  156.3681 LP  0  0  0  0  0  0  0  0  0  0  0  0  # atno 17395 bound_to 11000

$$$$
