AV-unprocessed.smi:2865|AV-procd|sdf|11015|dock6
  -GOLD-   2272015473D 1   1.00000     0.00000
 Structure written by MMmdl.
 38 41  0  0  0  0  0  0  0  0  1 V2000
  146.2993  137.3783  154.8481 O   0  0  0  0  0  0  0  0  0  0  0  0
  147.1531  136.9768  154.0608 C   0  0  0  0  0  0  0  0  0  0  0  0
  148.3834  137.5086  153.9233 N   0  0  0  0  0  0  0  0  0  0  0  0
  148.9883  138.5592  154.6641 C   0  0  0  0  0  0  0  0  0  0  0  0
  148.6091  138.9677  155.9669 C   0  0  0  0  0  0  0  0  0  0  0  0
  149.2506  139.9665  156.6117 N   0  0  0  0  0  0  0  0  0  0  0  0
  150.2575  140.5591  155.9640 C   0  0  0  0  0  0  0  0  0  0  0  0
  150.9889  141.6381  156.7013 C   0  0  0  0  0  0  0  0  0  0  0  0
  151.7622  141.3266  157.9664 C   0  0  0  0  0  0  0  0  0  0  0  0
  150.4949  142.1311  158.0462 C   0  0  0  0  0  0  0  0  0  0  0  0
  150.7153  140.2463  154.7489 N   0  0  0  0  0  0  0  0  0  0  0  0
  150.0803  139.2488  154.0970 C   0  0  0  0  0  0  0  0  0  0  0  0
  146.9007  135.9546  153.2244 N   0  0  0  0  0  0  0  0  0  0  0  0
  145.6747  135.1623  153.1130 C   0  0  2  0  0  0  0  0  0  0  0  0
  145.9399  133.6511  153.0923 C   0  0  0  0  0  0  0  0  0  0  0  0
  145.3234  133.2401  151.7487 C   0  0  1  0  0  0  0  0  0  0  0  0
  143.7908  133.3408  151.7593 C   0  0  0  0  0  0  0  0  0  0  0  0
  143.5734  134.8538  151.7270 C   0  0  0  0  0  0  0  0  0  0  0  0
  145.0168  135.3738  151.7385 C   0  0  2  0  0  0  0  0  0  0  0  0
  145.6536  134.3713  150.9636 O   0  0  0  0  0  0  0  0  0  0  0  0
  148.9473  137.1246  153.1794 H   0  0  0  0  0  0  0  0  0  0  0  0
  147.8115  138.4984  156.5205 H   0  0  0  0  0  0  0  0  0  0  0  0
  151.4116  142.3697  156.0153 H   0  0  0  0  0  0  0  0  0  0  0  0
  151.7313  140.3060  158.3431 H   0  0  0  0  0  0  0  0  0  0  0  0
  152.7023  141.8524  158.1203 H   0  0  0  0  0  0  0  0  0  0  0  0
  150.5865  143.1951  158.2543 H   0  0  0  0  0  0  0  0  0  0  0  0
  149.6211  141.6453  158.4762 H   0  0  0  0  0  0  0  0  0  0  0  0
  150.4506  138.9984  153.1137 H   0  0  0  0  0  0  0  0  0  0  0  0
  147.6347  135.7142  152.5737 H   0  0  0  0  0  0  0  0  0  0  0  0
  144.9793  135.4420  153.9066 H   0  0  0  0  0  0  0  0  0  0  0  0
  147.0084  133.4303  153.1002 H   0  0  0  0  0  0  0  0  0  0  0  0
  145.4825  133.1316  153.9350 H   0  0  0  0  0  0  0  0  0  0  0  0
  145.7033  132.2955  151.3588 H   0  0  0  0  0  0  0  0  0  0  0  0
  143.3639  132.8756  150.8702 H   0  0  0  0  0  0  0  0  0  0  0  0
  143.3513  132.8677  152.6379 H   0  0  0  0  0  0  0  0  0  0  0  0
  143.0639  135.1474  150.8085 H   0  0  0  0  0  0  0  0  0  0  0  0
  142.9894  135.2181  152.5730 H   0  0  0  0  0  0  0  0  0  0  0  0
  145.1180  136.3841  151.3400 H   0  0  0  0  0  0  0  0  0  0  0  0
  1  2  2  0  0  0  0
  2  3  1  0  0  0  0
  2 13  1  0  0  0  0
  3  4  1  0  0  0  0
  3 21  1  0  0  0  0
  4 12  1  0  0  0  0
  4  5  2  0  0  0  0
  5  6  1  0  0  0  0
  5 22  1  0  0  0  0
  6  7  2  0  0  0  0
  7  8  1  0  0  0  0
  7 11  1  0  0  0  0
  8 10  1  0  0  0  0
  8  9  1  0  0  0  0
  8 23  1  0  0  0  0
  9 10  1  0  0  0  0
  9 24  1  0  0  0  0
  9 25  1  0  0  0  0
 10 26  1  0  0  0  0
 10 27  1  0  0  0  0
 11 12  2  0  0  0  0
 12 28  1  0  0  0  0
 13 14  1  0  0  0  0
 13 29  1  0  0  0  0
 14 19  1  0  0  0  0
 14 15  1  0  0  0  0
 14 30  1  0  0  0  0
 15 16  1  0  0  0  0
 15 31  1  0  0  0  0
 15 32  1  0  0  0  0
 16 20  1  0  0  0  0
 16 17  1  0  0  0  0
 16 33  1  0  0  0  0
 17 18  1  0  0  0  0
 17 34  1  0  0  0  0
 17 35  1  0  0  0  0
 18 19  1  0  0  0  0
 18 36  1  0  0  0  0
 18 37  1  0  0  0  0
 19 20  1  0  0  0  0
 19 38  1  0  0  0  0
M  END
> <s_m_source_file>
AV-unprocessed.smi

> <i_m_source_file_index>
2865

> <i_lp_mmshare_version>
43012

> <i_f3d_flags>
0

> <s_epik_input>
W0NIMl0xW0NIMl1bQ0BIXShPMilbQ0BASF0oW0NIMl1bQ0BASF0xMilbTkhdQyg9TylbTkhdYzNbY0hdbmMobltjSF0zKVtDSF00W0NIMl1bQ0gyXTQ=

> <s_epik_cmdline>
J2VwaWtfcHl0aG9uJywgJy1waCcsICc3LjAnLCAnLXRuJywgJzgnLCAnLW1hJywgJzIwMCcsICctbWV0YWxfYmluZGluZycsICctaW1hZScsICc8aW5maWxlLm1hZT4nLCAnLW9tYWUnLCAnPG91dGZpbGUubWFlPic=

> <r_lp_tautomer_probability>
1

> <r_epik_Ionization_Penalty>
2.43104e-05

> <r_epik_Ionization_Penalty_Charging>
0

> <r_epik_Ionization_Penalty_Neutral>
2.43104e-05

> <r_epik_State_Penalty>
-0

> <r_epik_Charging_Adjusted_Penalty>
0

> <i_epik_Tot_Q>
0

> <i_epik_Tot_abs_Q>
0

> <r_epik_Metal_State_Penalty>
-0

> <b_epik_Metal_Only>
0

> <s_lp_Force_Field>
OPLS_2005

> <r_lp_Energy>
45.9934

> <b_lp_Chiralities_Consistent>
1

> <s_lp_Variant>
AV-unprocessed.smi:2865-1

> <Gold.Version>
5.8.1

> <Gold.Id.Protein>
6NUR|6NUR_protein|mol2

> <Gold.PLP.Fitness>
36.0215

> <Gold.PLP.PLP>
-24.8873

> <Gold.PLP.part.hbond>
-2.8226

> <Gold.PLP.part.metal>
0.0000

> <Gold.PLP.part.buried>
-2.1472

> <Gold.PLP.part.nonpolar>
-19.9573

> <Gold.PLP.part.repulsive>
0.3217

> <Gold.PLP.ligand.clash>
0.0000

> <Gold.PLP.ligand.torsion>
0.2359

> <Gold.PLP.Chemscore.Hbond>
2.9360

> <Gold.PLP.Chemscore.CHOScore>
0.8841

> <Gold.PLP.Chemscore.Metal>
0.0000

> <Gold.Chemscore.Hbonds>
donor molecule, donor type, donor heavy atom, donor atom, acceptor molecule, acceptor atom, score
      L1  H     3    21       P1  7948  0.94
      L1  H    13    29       P1  7948  0.93
      P1  H  7989  7998       L1    11  1.00
      L1  C    12    28       P1  7957  0.86

> <Gold.PLP.Chemscore.Internal.Correction>
0.1458

> <Gold.Rescore>
     Score         DG    S(hbond)    S(metal)    S(lipo)     H(rot)  DE(clash)    DE(int)     intcor
     16.25     -17.83       2.56        0.00      58.72       1.20       0.38       1.20       ----

> <Gold.Chemscore.Fitness>
16.2532

> <Gold.Chemscore.DG>
-17.8336

> <Gold.Chemscore.ZeroCoef>
-5.4800

> <Gold.Chemscore.Hbond>
2.5625

> <Gold.Chemscore.Metal>
0.0000

> <Gold.Chemscore.Lipo>
58.7173

> <Gold.Chemscore.Internal_Hbond>
0.0000

> <Gold.Chemscore.DEClash>
0.3813

> <Gold.Chemscore.DEInternal>
1.1991

> <Gold.Chemscore.Rot>
1.2012

> <Gold.Chemscore.Internal.Correction>
   9.000000E+99

> <Gold.Chemscore.Hbonds>
donor molecule, donor type, donor heavy atom, donor atom, acceptor molecule, acceptor atom, score
      L1  H     3    21       P1  7948  0.89
      L1  H    13    29       P1  7948  0.87
      P1  H  7989  7998       L1    11  0.25

> <Gold.Chemscore.Hbond.Weighted>
-8.5588

> <Gold.Chemscore.Metal.Weighted>
-0.0000

> <Gold.Chemscore.Lipo.Weighted>
-6.8699

> <Gold.Chemscore.Internal_Hbond.Weighted>
0.0000

> <Gold.Chemscore.DEClash.Weighted>
0.3813

> <Gold.Chemscore.DEInternal.Weighted>
1.1991

> <Gold.Chemscore.Rot.Weighted>
3.0752

> <Gold.Chemscore.Internal.Correction.Weighted>
   9.000000E+99

> <Gold.Protein.RotatedTorsions>
[ 6907 6896 6895 6894 ] final -120.98 input  -60.11 | X-H torsion
[ 7974 7965 7964 7962 ] final  -81.55 input  175.53 | X-H torsion
[ 8008 7997 7996 7995 ] final  -75.48 input   59.86 | X-H torsion
[ 10167 10162 10161 10158 ] final  -74.19 input  -65.29 | X-H torsion
[ 10718 10713 10712 10709 ] final   -5.22 input   66.30 | X-H torsion
[ 10763 10752 10751 10750 ] final  -14.91 input  -60.55 | X-H torsion
[ 11005 11000 10999 10996 ] final -134.19 input  -57.11 | X-H torsion

> <Gold.Protein.ActiveResidues>
 VAL166  LYS551  ARG553  GLY616  TRP617  ASP618  TYR619  PRO620  LYS621  CYS622 
 ASP623  PHE694  ASN695  SER759  ASP760  ASP761  ALA762  ILE779  LEU786  VAL792 
 PHE793  MET794  SER795  GLU796  ALA797  LYS798  CYS799  TRP800  GLU811  SER814 

> <Gold.Protein.RotatedAtoms>
  150.8442  133.7888  159.3049 H   0  0  0  0  0  0  0  0  0  0  0  0  # atno 6907 bound_to 6896
  151.5580  135.1064  159.9975 H   0  0  0  0  0  0  0  0  0  0  0  0  # atno 6908 bound_to 6896
  152.4499  133.7567  159.6780 H   0  0  0  0  0  0  0  0  0  0  0  0  # atno 6909 bound_to 6896
  145.5452  140.9504  143.1529 H   0  0  0  0  0  0  0  0  0  0  0  0  # atno 7974 bound_to 7965
  154.5421  140.0743  156.8527 H   0  0  0  0  0  0  0  0  0  0  0  0  # atno 8008 bound_to 7997
  155.3160  140.3393  155.4224 H   0  0  0  0  0  0  0  0  0  0  0  0  # atno 8009 bound_to 7997
  156.1884  140.1677  156.8127 H   0  0  0  0  0  0  0  0  0  0  0  0  # atno 8010 bound_to 7997
  140.5047  143.2355  151.7693 H   0  0  0  0  0  0  0  0  0  0  0  0  # atno 10167 bound_to 10162
  156.7498  130.5236  149.5806 H   0  0  0  0  0  0  0  0  0  0  0  0  # atno 10718 bound_to 10713
  153.5354  135.7014  153.5662 H   0  0  0  0  0  0  0  0  0  0  0  0  # atno 10763 bound_to 10752
  153.3651  135.3959  155.1747 H   0  0  0  0  0  0  0  0  0  0  0  0  # atno 10764 bound_to 10752
  154.8680  135.3798  154.4855 H   0  0  0  0  0  0  0  0  0  0  0  0  # atno 10765 bound_to 10752
  140.9012  134.1688  157.4459 H   0  0  0  0  0  0  0  0  0  0  0  0  # atno 11005 bound_to 11000
  144.7557  139.7081  143.7255 LP  0  0  0  0  0  0  0  0  0  0  0  0  # atno 17320 bound_to 7965
  146.1954  139.5218  142.9778 LP  0  0  0  0  0  0  0  0  0  0  0  0  # atno 17321 bound_to 7965
  139.4881  144.4473  151.9695 LP  0  0  0  0  0  0  0  0  0  0  0  0  # atno 17342 bound_to 10162
  140.3563  144.3027  150.5940 LP  0  0  0  0  0  0  0  0  0  0  0  0  # atno 17343 bound_to 10162
  156.1409  130.6243  151.0465 LP  0  0  0  0  0  0  0  0  0  0  0  0  # atno 17370 bound_to 10713
  157.6782  131.0845  150.7440 LP  0  0  0  0  0  0  0  0  0  0  0  0  # atno 17371 bound_to 10713
  139.8742  134.9899  156.5477 LP  0  0  0  0  0  0  0  0  0  0  0  0  # atno 17394 bound_to 11000
  140.8227  133.8341  155.8910 LP  0  0  0  0  0  0  0  0  0  0  0  0  # atno 17395 bound_to 11000

$$$$
