AV-unprocessed.smi:50|AV-procd|sdf|496|dock8
  -GOLD-   2262016363D 1   1.00000     0.00000
 Structure written by MMmdl.
 43 44  0  0  0  0  0  0  0  0  3 V2000
  146.2570  132.9270  151.7813 C   0  0  0  0  0  0  0  0  0  0  0  0
  144.9502  133.1321  150.9897 C   0  0  0  0  0  0  0  0  0  0  0  0
  144.8885  132.1145  149.8353 C   0  0  0  0  0  0  0  0  0  0  0  0
  144.7915  134.5935  150.4867 C   0  0  1  0  0  0  0  0  0  0  0  0
  143.7930  134.6971  149.4062 N   0  3  0  0  0  0  0  0  0  0  0  0
  144.3315  135.5814  151.5705 C   0  0  0  0  0  0  0  0  0  0  0  0
  143.2750  135.4886  152.1978 O   0  0  0  0  0  0  0  0  0  0  0  0
  145.2253  136.5760  151.7020 O   0  0  0  0  0  0  0  0  0  0  0  0
  145.1562  137.4382  152.8265 C   0  0  0  0  0  0  0  0  0  0  0  0
  146.2095  138.5416  152.6933 C   0  0  0  0  0  0  0  0  0  0  0  0
  147.3406  138.1892  153.4722 O   0  0  0  0  0  0  0  0  0  0  0  0
  147.5345  139.0342  154.5586 C   0  0  0  0  0  0  0  0  0  0  0  0
  148.9599  139.2618  154.7210 N   0  0  0  0  0  0  0  0  0  0  0  0
  149.6250  140.4313  154.6266 C   0  0  0  0  0  0  0  0  0  0  0  0
  150.9422  140.3572  154.8126 N   0  0  0  0  0  0  0  0  0  0  0  0
  151.1275  138.9981  155.0387 C   0  0  0  0  0  0  0  0  0  0  0  0
  152.3483  138.1999  155.3076 C   0  0  0  0  0  0  0  0  0  0  0  0
  153.4357  138.7706  155.3700 O   0  0  0  0  0  0  0  0  0  0  0  0
  152.1487  136.8558  155.4659 N   0  5  0  0  0  0  0  0  0  0  0  0
  150.8591  136.3135  155.3739 C   0  0  0  0  0  0  0  0  0  0  0  0
  150.8411  134.9470  155.5502 N   0  0  0  0  0  0  0  0  0  0  0  0
  149.7400  136.9565  155.1463 N   0  0  0  0  0  0  0  0  0  0  0  0
  149.9427  138.3149  154.9848 C   0  0  0  0  0  0  0  0  0  0  0  0
  145.7474  134.9293  150.0828 H   0  0  0  0  0  0  0  0  0  0  0  0
  147.1292  133.1582  151.1690 H   0  0  0  0  0  0  0  0  0  0  0  0
  146.3543  131.8937  152.1160 H   0  0  0  0  0  0  0  0  0  0  0  0
  146.3026  133.5535  152.6720 H   0  0  0  0  0  0  0  0  0  0  0  0
  144.1203  132.9032  151.6606 H   0  0  0  0  0  0  0  0  0  0  0  0
  145.6681  132.3061  149.0973 H   0  0  0  0  0  0  0  0  0  0  0  0
  143.9276  132.1384  149.3213 H   0  0  0  0  0  0  0  0  0  0  0  0
  145.0253  131.0969  150.2030 H   0  0  0  0  0  0  0  0  0  0  0  0
  143.9157  135.5750  148.9220 H   0  0  0  0  0  0  0  0  0  0  0  0
  142.8651  134.6582  149.8031 H   0  0  0  0  0  0  0  0  0  0  0  0
  144.1606  137.8815  152.8697 H   0  0  0  0  0  0  0  0  0  0  0  0
  145.3077  136.8807  153.7523 H   0  0  0  0  0  0  0  0  0  0  0  0
  146.4845  138.6921  151.6481 H   0  0  0  0  0  0  0  0  0  0  0  0
  145.7920  139.4796  153.0619 H   0  0  0  0  0  0  0  0  0  0  0  0
  147.0437  139.9934  154.3852 H   0  0  0  0  0  0  0  0  0  0  0  0
  147.1497  138.5835  155.4742 H   0  0  0  0  0  0  0  0  0  0  0  0
  149.1290  141.3671  154.4159 H   0  0  0  0  0  0  0  0  0  0  0  0
  151.6680  134.3962  155.7266 H   0  0  0  0  0  0  0  0  0  0  0  0
  149.9934  134.3996  155.5225 H   0  0  0  0  0  0  0  0  0  0  0  0
  143.9160  133.9325  148.7580 H   0  0  0  0  0  0  0  0  0  0  0  0
  1  2  1  0  0  0  0
  1 25  1  0  0  0  0
  1 26  1  0  0  0  0
  1 27  1  0  0  0  0
  2  3  1  0  0  0  0
  2  4  1  0  0  0  0
  2 28  1  0  0  0  0
  3 29  1  0  0  0  0
  3 30  1  0  0  0  0
  3 31  1  0  0  0  0
  4 24  1  0  0  0  0
  4  5  1  0  0  0  0
  4  6  1  0  0  0  0
  5 32  1  0  0  0  0
  5 33  1  0  0  0  0
  5 43  1  0  0  0  0
  6  7  2  0  0  0  0
  6  8  1  0  0  0  0
  8  9  1  0  0  0  0
  9 10  1  0  0  0  0
  9 34  1  0  0  0  0
  9 35  1  0  0  0  0
 10 11  1  0  0  0  0
 10 36  1  0  0  0  0
 10 37  1  0  0  0  0
 11 12  1  0  0  0  0
 12 13  1  0  0  0  0
 12 38  1  0  0  0  0
 12 39  1  0  0  0  0
 13 23  1  0  0  0  0
 13 14  1  0  0  0  0
 14 15  2  0  0  0  0
 14 40  1  0  0  0  0
 15 16  1  0  0  0  0
 16 23  2  0  0  0  0
 16 17  1  0  0  0  0
 17 18  2  0  0  0  0
 17 19  1  0  0  0  0
 19 20  1  0  0  0  0
 20 21  1  0  0  0  0
 20 22  2  0  0  0  0
 21 41  1  0  0  0  0
 21 42  1  0  0  0  0
 22 23  1  0  0  0  0
M  CHG  1   5   1
M  CHG  1  19  -1
M  END
> <s_m_source_file>
AV-unprocessed.smi

> <i_m_source_file_index>
50

> <i_lp_mmshare_version>
43012

> <i_f3d_flags>
0

> <s_epik_input>
W0NIM11bQ0hdKFtDSDNdKVtDQEhdKFtOSDJdKUMoPU8pT1tDSDJdW0NIMl1PW0NIMl1uKFtjSF1uMSljKGMxMiluYyhbTkgyXSlbbkhdYzI9Tw==

> <s_epik_cmdline>
J2VwaWtfcHl0aG9uJywgJy1waCcsICc3LjAnLCAnLXRuJywgJzgnLCAnLW1hJywgJzIwMCcsICctbWV0YWxfYmluZGluZycsICctaW1hZScsICc8aW5maWxlLm1hZT4nLCAnLW9tYWUnLCAnPG91dGZpbGUubWFlPic=

> <r_lp_tautomer_probability>
0.99994

> <r_epik_Ionization_Penalty>
3.77459

> <r_epik_Ionization_Penalty_Charging>
0.215994

> <r_epik_Ionization_Penalty_Neutral>
3.5586

> <r_epik_State_Penalty>
3.75449

> <r_epik_Charging_Adjusted_Penalty>
3.97048

> <i_epik_Tot_Q>
0

> <i_epik_Tot_abs_Q>
2

> <r_epik_Metal_State_Penalty>
0.723824

> <b_epik_Metal_Only>
1

> <s_epik_Chemistry_Notes>
This compound has an ester and may undergo hydrolysis at high or low pH. This compound contains an acetal/aminal-like group ( X-CH(R)-Y where X, Y are N, S, or O) that may be acid/base labile, releasing an aldehyde.

> <s_lp_Force_Field>
OPLS_2005

> <r_lp_Energy>
22.4326

> <b_lp_Chiralities_Consistent>
1

> <s_lp_Variant>
AV-unprocessed.smi:50-6

> <Gold.Version>
5.8.1

> <Gold.Id.Protein>
6NUR|6NUR_protein|mol2

> <Gold.PLP.Fitness>
49.0220

> <Gold.PLP.PLP>
-34.0970

> <Gold.PLP.part.hbond>
-4.8946

> <Gold.PLP.part.metal>
0.0000

> <Gold.PLP.part.buried>
-6.1304

> <Gold.PLP.part.nonpolar>
-26.4581

> <Gold.PLP.part.repulsive>
2.5230

> <Gold.PLP.ligand.clash>
0.0000

> <Gold.PLP.ligand.torsion>
1.4672

> <Gold.PLP.Chemscore.Hbond>
5.9280

> <Gold.PLP.Chemscore.CHOScore>
0.0000

> <Gold.PLP.Chemscore.Metal>
0.0000

> <Gold.Chemscore.Hbonds>
donor molecule, donor type, donor heavy atom, donor atom, acceptor molecule, acceptor atom, score
      L1  H     5    33       P1 10186  1.95
      P1  H  7989  7998       L1    15  1.00
      P1  H  7997  8008       L1    18  0.94
      P1  H 10752 10763       L1    19  1.85

> <Gold.PLP.Chemscore.Internal.Correction>
0.0754

> <Gold.Rescore>
     Score         DG    S(hbond)    S(metal)    S(lipo)     H(rot)  DE(clash)    DE(int)     intcor
      7.57      -9.33       3.25        0.00      45.91       4.83       0.04       1.72       ----

> <Gold.Chemscore.Fitness>
7.5669

> <Gold.Chemscore.DG>
-9.3314

> <Gold.Chemscore.ZeroCoef>
-5.4800

> <Gold.Chemscore.Hbond>
3.2478

> <Gold.Chemscore.Metal>
0.0000

> <Gold.Chemscore.Lipo>
45.9109

> <Gold.Chemscore.Internal_Hbond>
0.0000

> <Gold.Chemscore.DEClash>
0.0407

> <Gold.Chemscore.DEInternal>
1.7238

> <Gold.Chemscore.Rot>
4.8312

> <Gold.Chemscore.Internal.Correction>
   9.000000E+99

> <Gold.Chemscore.Hbonds>
donor molecule, donor type, donor heavy atom, donor atom, acceptor molecule, acceptor atom, score
      L1  H     5    33       P1 10186  0.77
      P1  H  7989  7998       L1    15  0.51
      P1  H  7997  8008       L1    18  0.91
      P1  H 10752 10763       L1    19  0.20

> <Gold.Chemscore.Hbond.Weighted>
-10.8477

> <Gold.Chemscore.Metal.Weighted>
-0.0000

> <Gold.Chemscore.Lipo.Weighted>
-5.3716

> <Gold.Chemscore.Internal_Hbond.Weighted>
0.0000

> <Gold.Chemscore.DEClash.Weighted>
0.0407

> <Gold.Chemscore.DEInternal.Weighted>
1.7238

> <Gold.Chemscore.Rot.Weighted>
12.3678

> <Gold.Chemscore.Internal.Correction.Weighted>
   9.000000E+99

> <Gold.Protein.RotatedTorsions>
[ 6907 6896 6895 6894 ] final  154.59 input  -60.11 | X-H torsion
[ 7974 7965 7964 7962 ] final   33.84 input  175.53 | X-H torsion
[ 8008 7997 7996 7995 ] final  -30.84 input   59.86 | X-H torsion
[ 10167 10162 10161 10158 ] final -106.93 input  -65.29 | X-H torsion
[ 10718 10713 10712 10709 ] final   68.43 input   66.30 | X-H torsion
[ 10763 10752 10751 10750 ] final   76.14 input  -60.55 | X-H torsion
[ 11005 11000 10999 10996 ] final -135.44 input  -57.11 | X-H torsion

> <Gold.Protein.ActiveResidues>
 VAL166  LYS551  ARG553  GLY616  TRP617  ASP618  TYR619  PRO620  LYS621  CYS622 
 ASP623  PHE694  ASN695  SER759  ASP760  ASP761  ALA762  ILE779  LEU786  VAL792 
 PHE793  MET794  SER795  GLU796  ALA797  LYS798  CYS799  TRP800  GLU811  SER814 

> <Gold.Protein.RotatedAtoms>
  152.0563  133.4042  159.4398 H   0  0  0  0  0  0  0  0  0  0  0  0  # atno 6907 bound_to 6896
  150.6868  134.3251  159.4812 H   0  0  0  0  0  0  0  0  0  0  0  0  # atno 6908 bound_to 6896
  152.1066  134.9303  160.0618 H   0  0  0  0  0  0  0  0  0  0  0  0  # atno 6909 bound_to 6896
  146.1393  139.6345  142.9174 H   0  0  0  0  0  0  0  0  0  0  0  0  # atno 7974 bound_to 7965
  154.4235  140.1780  156.1472 H   0  0  0  0  0  0  0  0  0  0  0  0  # atno 8008 bound_to 7997
  155.9945  140.3366  155.6760 H   0  0  0  0  0  0  0  0  0  0  0  0  # atno 8009 bound_to 7997
  155.6328  140.0671  157.2634 H   0  0  0  0  0  0  0  0  0  0  0  0  # atno 8010 bound_to 7997
  140.1824  143.3956  152.1271 H   0  0  0  0  0  0  0  0  0  0  0  0  # atno 10167 bound_to 10162
  157.6289  130.9373  150.0377 H   0  0  0  0  0  0  0  0  0  0  0  0  # atno 10718 bound_to 10713
  153.0704  135.4962  154.8292 H   0  0  0  0  0  0  0  0  0  0  0  0  # atno 10763 bound_to 10752
  154.7014  135.3002  154.9338 H   0  0  0  0  0  0  0  0  0  0  0  0  # atno 10764 bound_to 10752
  154.0060  135.6760  153.4815 H   0  0  0  0  0  0  0  0  0  0  0  0  # atno 10765 bound_to 10752
  140.8898  134.1826  157.4535 H   0  0  0  0  0  0  0  0  0  0  0  0  # atno 11005 bound_to 11000
  145.5083  141.0436  143.2502 LP  0  0  0  0  0  0  0  0  0  0  0  0  # atno 17320 bound_to 7965
  144.7774  139.6599  143.7169 LP  0  0  0  0  0  0  0  0  0  0  0  0  # atno 17321 bound_to 7965
  139.5290  144.7137  151.5123 LP  0  0  0  0  0  0  0  0  0  0  0  0  # atno 17342 bound_to 10162
  140.6510  143.8696  150.6786 LP  0  0  0  0  0  0  0  0  0  0  0  0  # atno 17343 bound_to 10162
  156.1479  130.3642  149.9483 LP  0  0  0  0  0  0  0  0  0  0  0  0  # atno 17370 bound_to 10713
  156.7509  130.9115  151.3637 LP  0  0  0  0  0  0  0  0  0  0  0  0  # atno 17371 bound_to 10713
  139.8728  134.9853  156.5278 LP  0  0  0  0  0  0  0  0  0  0  0  0  # atno 17394 bound_to 11000
  140.8360  133.8241  155.9029 LP  0  0  0  0  0  0  0  0  0  0  0  0  # atno 17395 bound_to 11000

$$$$
