AV-unprocessed.smi:915|AV-procd|sdf|4156|dock7
  -GOLD-   22720 2 63D 1   1.00000     0.00000
 Structure written by MMmdl.
 33 34  0  0  0  0  0  0  0  0  2 V2000
  152.0964  145.4153  159.8621 C   0  0  0  0  0  0  0  0  0  0  0  0
  151.3080  144.1056  159.9766 C   0  0  0  0  0  0  0  0  0  0  0  0
  152.2027  142.9129  160.1265 C   0  0  0  0  0  0  0  0  0  0  0  0
  153.0423  142.6392  161.1748 C   0  0  0  0  0  0  0  0  0  0  0  0
  153.9038  141.1459  160.9361 S   0  0  0  0  0  0  0  0  0  0  0  0
  153.0754  140.9279  159.3928 C   0  0  0  0  0  0  0  0  0  0  0  0
  153.2586  139.8887  158.5621 N   0  5  0  0  0  0  0  0  0  0  0  0
  152.2273  139.4315  157.8162 C   0  0  0  0  0  0  0  0  0  0  0  0
  151.0395  139.4090  158.1474 O   0  0  0  0  0  0  0  0  0  0  0  0
  152.5946  138.9662  156.6138 N   0  0  0  0  0  0  0  0  0  0  0  0
  151.7015  138.3962  155.6098 C   0  0  0  0  0  0  0  0  0  0  0  0
  150.9524  139.4808  154.8128 C   0  0  2  0  0  0  0  0  0  0  0  0
  150.5805  140.7191  155.6414 C   0  0  0  0  0  0  0  0  0  0  0  0
  149.4413  141.4191  154.9000 C   0  0  0  0  0  0  0  0  0  0  0  0
  148.4508  140.3256  154.4971 C   0  0  0  0  0  0  0  0  0  0  0  0
  149.4127  138.8444  154.0938 S   0  0  0  0  0  0  0  0  0  0  0  0
  152.2404  141.9382  159.1258 N   0  0  0  0  0  0  0  0  0  0  0  0
  151.4234  146.2664  159.7576 H   0  0  0  0  0  0  0  0  0  0  0  0
  152.7560  145.4034  158.9937 H   0  0  0  0  0  0  0  0  0  0  0  0
  152.7108  145.5818  160.7474 H   0  0  0  0  0  0  0  0  0  0  0  0
  150.6270  144.1704  160.8258 H   0  0  0  0  0  0  0  0  0  0  0  0
  150.6760  143.9880  159.0955 H   0  0  0  0  0  0  0  0  0  0  0  0
  153.2074  143.2222  162.0681 H   0  0  0  0  0  0  0  0  0  0  0  0
  153.5762  139.0064  156.3824 H   0  0  0  0  0  0  0  0  0  0  0  0
  152.2681  137.7524  154.9354 H   0  0  0  0  0  0  0  0  0  0  0  0
  150.9874  137.7510  156.1222 H   0  0  0  0  0  0  0  0  0  0  0  0
  151.5672  139.8053  153.9723 H   0  0  0  0  0  0  0  0  0  0  0  0
  150.2346  140.4166  156.6310 H   0  0  0  0  0  0  0  0  0  0  0  0
  151.4355  141.3806  155.7854 H   0  0  0  0  0  0  0  0  0  0  0  0
  148.9691  142.1895  155.5102 H   0  0  0  0  0  0  0  0  0  0  0  0
  149.8345  141.9063  154.0068 H   0  0  0  0  0  0  0  0  0  0  0  0
  147.7953  140.0872  155.3352 H   0  0  0  0  0  0  0  0  0  0  0  0
  147.8235  140.6267  153.6578 H   0  0  0  0  0  0  0  0  0  0  0  0
  1  2  1  0  0  0  0
  1 18  1  0  0  0  0
  1 19  1  0  0  0  0
  1 20  1  0  0  0  0
  2  3  1  0  0  0  0
  2 21  1  0  0  0  0
  2 22  1  0  0  0  0
  3 17  1  0  0  0  0
  3  4  2  0  0  0  0
  4  5  1  0  0  0  0
  4 23  1  0  0  0  0
  5  6  1  0  0  0  0
  6  7  1  0  0  0  0
  6 17  2  0  0  0  0
  7  8  1  0  0  0  0
  8  9  2  0  0  0  0
  8 10  1  0  0  0  0
 10 11  1  0  0  0  0
 10 24  1  0  0  0  0
 11 12  1  0  0  0  0
 11 25  1  0  0  0  0
 11 26  1  0  0  0  0
 12 16  1  0  0  0  0
 12 13  1  0  0  0  0
 12 27  1  0  0  0  0
 13 14  1  0  0  0  0
 13 28  1  0  0  0  0
 13 29  1  0  0  0  0
 14 15  1  0  0  0  0
 14 30  1  0  0  0  0
 14 31  1  0  0  0  0
 15 16  1  0  0  0  0
 15 32  1  0  0  0  0
 15 33  1  0  0  0  0
M  CHG  1   7  -1
M  END
> <s_m_source_file>
AV-unprocessed.smi

> <i_m_source_file_index>
915

> <i_lp_mmshare_version>
43012

> <i_f3d_flags>
0

> <s_epik_input>
W0NIM11bQ0gyXWMxW2NIXXNjKG4xKVtOSF1DKD1PKVtOSF1bQ0gyXVtDQEBIXTJbQ0gyXVtDSDJdW0NIMl1TMg==

> <s_epik_cmdline>
J2VwaWtfcHl0aG9uJywgJy1waCcsICc3LjAnLCAnLXRuJywgJzgnLCAnLW1hJywgJzIwMCcsICctbWV0YWxfYmluZGluZycsICctaW1hZScsICc8aW5maWxlLm1hZT4nLCAnLW9tYWUnLCAnPG91dGZpbGUubWFlPic=

> <r_lp_tautomer_probability>
0.999

> <r_epik_Ionization_Penalty>
8.73043

> <r_epik_Ionization_Penalty_Charging>
6.79141

> <r_epik_Ionization_Penalty_Neutral>
1.93902

> <r_epik_State_Penalty>
6.79158

> <r_epik_Charging_Adjusted_Penalty>
13.583

> <i_epik_Tot_Q>
-1

> <i_epik_Tot_abs_Q>
1

> <r_epik_Metal_State_Penalty>
2.71141

> <b_epik_Metal_Only>
1

> <s_lp_Force_Field>
OPLS_2005

> <r_lp_Energy>
4.53782

> <b_lp_Chiralities_Consistent>
1

> <s_lp_Variant>
AV-unprocessed.smi:915-3

> <Gold.Version>
5.8.1

> <Gold.Id.Protein>
6NUR|6NUR_protein|mol2

> <Gold.PLP.Fitness>
42.1371

> <Gold.PLP.PLP>
-37.8642

> <Gold.PLP.part.hbond>
-1.0000

> <Gold.PLP.part.metal>
0.0000

> <Gold.PLP.part.buried>
-1.4374

> <Gold.PLP.part.nonpolar>
-33.2687

> <Gold.PLP.part.repulsive>
0.3418

> <Gold.PLP.ligand.clash>
0.0000

> <Gold.PLP.ligand.torsion>
0.8811

> <Gold.PLP.Chemscore.Hbond>
2.0000

> <Gold.PLP.Chemscore.CHOScore>
0.0000

> <Gold.PLP.Chemscore.Metal>
0.0000

> <Gold.Chemscore.Hbonds>
donor molecule, donor type, donor heavy atom, donor atom, acceptor molecule, acceptor atom, score
      P1  H  7997  8010       L1     7  1.95

> <Gold.PLP.Chemscore.Internal.Correction>
0.0351

> <Gold.Rescore>
     Score         DG    S(hbond)    S(metal)    S(lipo)     H(rot)  DE(clash)    DE(int)     intcor
     12.09     -16.08       0.75        0.00      98.40       1.33       0.06       3.93       ----

> <Gold.Chemscore.Fitness>
12.0896

> <Gold.Chemscore.DG>
-16.0791

> <Gold.Chemscore.ZeroCoef>
-5.4800

> <Gold.Chemscore.Hbond>
0.7462

> <Gold.Chemscore.Metal>
0.0000

> <Gold.Chemscore.Lipo>
98.4017

> <Gold.Chemscore.Internal_Hbond>
0.0000

> <Gold.Chemscore.DEClash>
0.0624

> <Gold.Chemscore.DEInternal>
3.9271

> <Gold.Chemscore.Rot>
1.3305

> <Gold.Chemscore.Internal.Correction>
   9.000000E+99

> <Gold.Chemscore.Hbonds>
donor molecule, donor type, donor heavy atom, donor atom, acceptor molecule, acceptor atom, score
      P1  H  7997  8010       L1     7  0.26

> <Gold.Chemscore.Hbond.Weighted>
-2.4921

> <Gold.Chemscore.Metal.Weighted>
-0.0000

> <Gold.Chemscore.Lipo.Weighted>
-11.5130

> <Gold.Chemscore.Internal_Hbond.Weighted>
0.0000

> <Gold.Chemscore.DEClash.Weighted>
0.0624

> <Gold.Chemscore.DEInternal.Weighted>
3.9271

> <Gold.Chemscore.Rot.Weighted>
3.4060

> <Gold.Chemscore.Internal.Correction.Weighted>
   9.000000E+99

> <Gold.Protein.RotatedTorsions>
[ 6907 6896 6895 6894 ] final   69.83 input  -60.11 | X-H torsion
[ 7974 7965 7964 7962 ] final -149.15 input  175.53 | X-H torsion
[ 8008 7997 7996 7995 ] final   23.51 input   59.86 | X-H torsion
[ 10167 10162 10161 10158 ] final   72.55 input  -65.29 | X-H torsion
[ 10718 10713 10712 10709 ] final  -53.66 input   66.30 | X-H torsion
[ 10763 10752 10751 10750 ] final  119.10 input  -60.55 | X-H torsion
[ 11005 11000 10999 10996 ] final  103.64 input  -57.11 | X-H torsion

> <Gold.Protein.ActiveResidues>
 VAL166  LYS551  ARG553  GLY616  TRP617  ASP618  TYR619  PRO620  LYS621  CYS622 
 ASP623  PHE694  ASN695  SER759  ASP760  ASP761  ALA762  ILE779  LEU786  VAL792 
 PHE793  MET794  SER795  GLU796  ALA797  LYS798  CYS799  TRP800  GLU811  SER814 

> <Gold.Protein.RotatedAtoms>
  152.4711  134.4958  159.9709 H   0  0  0  0  0  0  0  0  0  0  0  0  # atno 6907 bound_to 6896
  151.4984  133.3503  159.2873 H   0  0  0  0  0  0  0  0  0  0  0  0  # atno 6908 bound_to 6896
  150.8722  134.8125  159.7224 H   0  0  0  0  0  0  0  0  0  0  0  0  # atno 6909 bound_to 6896
  144.7985  140.5102  143.5723 H   0  0  0  0  0  0  0  0  0  0  0  0  # atno 7974 bound_to 7965
  154.9820  140.3103  155.4942 H   0  0  0  0  0  0  0  0  0  0  0  0  # atno 8008 bound_to 7997
  156.2952  140.2265  156.4859 H   0  0  0  0  0  0  0  0  0  0  0  0  # atno 8009 bound_to 7997
  154.7781  140.0448  157.1093 H   0  0  0  0  0  0  0  0  0  0  0  0  # atno 8010 bound_to 7997
  140.0341  144.5442  150.7484 H   0  0  0  0  0  0  0  0  0  0  0  0  # atno 10167 bound_to 10162
  156.1516  130.4151  149.9935 H   0  0  0  0  0  0  0  0  0  0  0  0  # atno 10718 bound_to 10713
  153.5778  135.3490  155.2863 H   0  0  0  0  0  0  0  0  0  0  0  0  # atno 10763 bound_to 10752
  154.8672  135.4175  154.2654 H   0  0  0  0  0  0  0  0  0  0  0  0  # atno 10764 bound_to 10752
  153.3434  135.7051  153.6918 H   0  0  0  0  0  0  0  0  0  0  0  0  # atno 10765 bound_to 10752
  139.8785  134.9271  156.5240 H   0  0  0  0  0  0  0  0  0  0  0  0  # atno 11005 bound_to 11000
  145.5612  139.1479  143.3340 LP  0  0  0  0  0  0  0  0  0  0  0  0  # atno 17320 bound_to 7965
  146.2260  140.5748  142.8996 LP  0  0  0  0  0  0  0  0  0  0  0  0  # atno 17321 bound_to 7965
  140.7289  143.2667  151.4022 LP  0  0  0  0  0  0  0  0  0  0  0  0  # atno 17342 bound_to 10162
  139.6057  144.1203  152.2246 LP  0  0  0  0  0  0  0  0  0  0  0  0  # atno 17343 bound_to 10162
  156.7791  130.9214  151.3645 LP  0  0  0  0  0  0  0  0  0  0  0  0  # atno 17370 bound_to 10713
  157.6662  130.9009  149.9937 LP  0  0  0  0  0  0  0  0  0  0  0  0  # atno 17371 bound_to 10713
  140.8429  133.8191  155.9093 LP  0  0  0  0  0  0  0  0  0  0  0  0  # atno 17394 bound_to 11000
  140.9220  134.2130  157.4920 LP  0  0  0  0  0  0  0  0  0  0  0  0  # atno 17395 bound_to 11000

$$$$
