AV-unprocessed.smi:209|AV-procd|sdf|1610|dock10
  -GOLD-   2262019533D 1   1.00000     0.00000
 Structure written by MMmdl.
 48 52  0  0  0  0  0  0  0  0  1 V2000
  151.3298  144.5167  161.2453 O   0  0  0  0  0  0  0  0  0  0  0  0
  151.1318  143.9547  160.1701 C   0  0  0  0  0  0  0  0  0  0  0  0
  149.9425  143.6503  159.6534 N   0  0  0  0  0  0  0  0  0  0  0  0
  150.0347  142.9087  158.4071 C   0  0  0  0  0  0  0  0  0  0  0  0
  151.5210  142.4817  158.3167 C   0  0  1  0  0  0  0  0  0  0  0  0
  152.2314  143.5308  159.2069 C   0  0  2  0  0  0  0  0  0  0  0  0
  153.5615  143.0735  159.8423 C   0  0  0  0  0  0  0  0  0  0  0  0
  153.4887  141.6368  160.3664 C   0  0  0  0  0  0  0  0  0  0  0  0
  153.0151  140.7022  159.2497 C   0  0  0  0  0  0  0  0  0  0  0  0
  151.6854  141.0948  158.7911 N   0  0  0  0  0  0  0  0  0  0  0  0
  151.0822  140.1078  158.0795 C   0  0  0  0  0  0  0  0  0  0  0  0
  151.0650  138.8342  158.5564 N   0  0  0  0  0  0  0  0  0  0  0  0
  150.4594  137.8643  157.8654 C   0  0  0  0  0  0  0  0  0  0  0  0
  149.8215  137.9463  156.6962 N   0  0  0  0  0  0  0  0  0  0  0  0
  149.8412  139.2203  156.2098 C   0  0  0  0  0  0  0  0  0  0  0  0
  150.4429  140.3498  156.8319 C   0  0  0  0  0  0  0  0  0  0  0  0
  150.2653  141.4773  156.0398 N   0  0  0  0  0  0  0  0  0  0  0  0
  149.5901  141.0405  155.0116 C   0  0  0  0  0  0  0  0  0  0  0  0
  149.2998  139.6942  155.0270 N   0  0  0  0  0  0  0  0  0  0  0  0
  148.5581  138.9467  154.0216 C   0  0  0  0  0  0  0  0  0  0  0  0
  147.0718  139.3399  153.8988 C   0  0  0  0  0  0  0  0  0  0  0  0
  146.4567  138.5890  152.7006 C   0  0  0  0  0  0  0  0  0  0  0  0
  147.0696  138.9258  151.4721 O   0  0  0  0  0  0  0  0  0  0  0  0
  146.3064  139.2774  155.2297 C   0  0  0  0  0  0  0  0  0  0  0  0
  146.3024  140.7156  155.3638 O   0  0  0  0  0  0  0  0  0  0  0  0
  146.7713  140.8428  154.0032 C   0  0  0  0  0  0  0  0  0  0  0  0
  151.8867  142.5601  157.2920 H   0  0  0  0  0  0  0  0  0  0  0  0
  152.4360  144.4170  158.6044 H   0  0  0  0  0  0  0  0  0  0  0  0
  149.0619  143.8411  160.1094 H   0  0  0  0  0  0  0  0  0  0  0  0
  149.3254  142.0808  158.3914 H   0  0  0  0  0  0  0  0  0  0  0  0
  149.7792  143.5800  157.5867 H   0  0  0  0  0  0  0  0  0  0  0  0
  154.3485  143.1344  159.0897 H   0  0  0  0  0  0  0  0  0  0  0  0
  153.8618  143.7502  160.6431 H   0  0  0  0  0  0  0  0  0  0  0  0
  154.4687  141.3227  160.7263 H   0  0  0  0  0  0  0  0  0  0  0  0
  152.8081  141.5780  161.2168 H   0  0  0  0  0  0  0  0  0  0  0  0
  153.7091  140.7349  158.4086 H   0  0  0  0  0  0  0  0  0  0  0  0
  153.0171  139.6767  159.6198 H   0  0  0  0  0  0  0  0  0  0  0  0
  150.4899  136.8821  158.3134 H   0  0  0  0  0  0  0  0  0  0  0  0
  149.2813  141.6969  154.2113 H   0  0  0  0  0  0  0  0  0  0  0  0
  149.0632  139.0710  153.0629 H   0  0  0  0  0  0  0  0  0  0  0  0
  148.6512  137.8871  154.2643 H   0  0  0  0  0  0  0  0  0  0  0  0
  146.5544  137.5099  152.8196 H   0  0  0  0  0  0  0  0  0  0  0  0
  145.3913  138.8046  152.6150 H   0  0  0  0  0  0  0  0  0  0  0  0
  147.6342  139.6707  151.6118 H   0  0  0  0  0  0  0  0  0  0  0  0
  145.2948  138.8755  155.1606 H   0  0  0  0  0  0  0  0  0  0  0  0
  146.8561  138.7869  156.0339 H   0  0  0  0  0  0  0  0  0  0  0  0
  147.6472  141.4860  153.9284 H   0  0  0  0  0  0  0  0  0  0  0  0
  145.9825  141.1922  153.3356 H   0  0  0  0  0  0  0  0  0  0  0  0
  1  2  2  0  0  0  0
  2  6  1  0  0  0  0
  2  3  1  0  0  0  0
  3  4  1  0  0  0  0
  3 29  1  0  0  0  0
  4  5  1  0  0  0  0
  4 30  1  0  0  0  0
  4 31  1  0  0  0  0
  5 27  1  0  0  0  0
  5 10  1  0  0  0  0
  5  6  1  0  0  0  0
  6 28  1  0  0  0  0
  6  7  1  0  0  0  0
  7  8  1  0  0  0  0
  7 32  1  0  0  0  0
  7 33  1  0  0  0  0
  8  9  1  0  0  0  0
  8 34  1  0  0  0  0
  8 35  1  0  0  0  0
  9 10  1  0  0  0  0
  9 36  1  0  0  0  0
  9 37  1  0  0  0  0
 10 11  1  0  0  0  0
 11 16  1  0  0  0  0
 11 12  2  0  0  0  0
 12 13  1  0  0  0  0
 13 14  2  0  0  0  0
 13 38  1  0  0  0  0
 14 15  1  0  0  0  0
 15 19  1  0  0  0  0
 15 16  2  0  0  0  0
 16 17  1  0  0  0  0
 17 18  2  0  0  0  0
 18 19  1  0  0  0  0
 18 39  1  0  0  0  0
 19 20  1  0  0  0  0
 20 21  1  0  0  0  0
 20 40  1  0  0  0  0
 20 41  1  0  0  0  0
 21 26  1  0  0  0  0
 21 22  1  0  0  0  0
 21 24  1  0  0  0  0
 22 23  1  0  0  0  0
 22 42  1  0  0  0  0
 22 43  1  0  0  0  0
 23 44  1  0  0  0  0
 24 25  1  0  0  0  0
 24 45  1  0  0  0  0
 24 46  1  0  0  0  0
 25 26  1  0  0  0  0
 26 47  1  0  0  0  0
 26 48  1  0  0  0  0
M  END
> <s_m_source_file>
AV-unprocessed.smi

> <i_m_source_file_index>
209

> <i_lp_mmshare_version>
43012

> <i_f3d_flags>
0

> <s_epik_input>
W0NIMl0xW05IXUMoPU8pW0NAQEhdKFtDQEBIXTEyKVtDSDJdW0NIMl1bQ0gyXU4yYyhuW2NIXW4zKWMoYzM0KW5bY0hdbjRbQ0gyXUM1KFtDSDJdW09IXSlbQ0gyXU9bQ0gyXTU=

> <s_epik_cmdline>
J2VwaWtfcHl0aG9uJywgJy1waCcsICc3LjAnLCAnLXRuJywgJzgnLCAnLW1hJywgJzIwMCcsICctbWV0YWxfYmluZGluZycsICctaW1hZScsICc8aW5maWxlLm1hZT4nLCAnLW9tYWUnLCAnPG91dGZpbGUubWFlPic=

> <r_lp_tautomer_probability>
1

> <r_epik_Ionization_Penalty>
0.00113306

> <r_epik_Ionization_Penalty_Charging>
0

> <r_epik_Ionization_Penalty_Neutral>
0.00113306

> <r_epik_State_Penalty>
0.000624042

> <r_epik_Charging_Adjusted_Penalty>
0.000624042

> <i_epik_Tot_Q>
0

> <i_epik_Tot_abs_Q>
0

> <r_epik_Metal_State_Penalty>
-0

> <b_epik_Metal_Only>
0

> <s_lp_Force_Field>
OPLS_2005

> <r_lp_Energy>
50.5129

> <b_lp_Chiralities_Consistent>
1

> <s_lp_Variant>
AV-unprocessed.smi:209-4

> <Gold.Version>
5.8.1

> <Gold.Id.Protein>
6NUR|6NUR_protein|mol2

> <Gold.PLP.Fitness>
47.0314

> <Gold.PLP.PLP>
-42.2494

> <Gold.PLP.part.hbond>
-3.3405

> <Gold.PLP.part.metal>
0.0000

> <Gold.PLP.part.buried>
-5.8678

> <Gold.PLP.part.nonpolar>
-32.9484

> <Gold.PLP.part.repulsive>
0.4695

> <Gold.PLP.ligand.clash>
0.0000

> <Gold.PLP.ligand.torsion>
0.4208

> <Gold.PLP.Chemscore.Hbond>
1.6448

> <Gold.PLP.Chemscore.CHOScore>
0.0000

> <Gold.PLP.Chemscore.Metal>
0.0000

> <Gold.Chemscore.Hbonds>
donor molecule, donor type, donor heavy atom, donor atom, acceptor molecule, acceptor atom, score
      L1  H    23    44       P1  7957  0.64
      P1  H  7954  7966       L1    23  0.58

> <Gold.PLP.Chemscore.Internal.Correction>
0.6893

> <Gold.Rescore>
     Score         DG    S(hbond)    S(metal)    S(lipo)     H(rot)  DE(clash)    DE(int)     intcor
      9.95     -12.26       0.94        0.00      89.34       2.66       0.39       1.92       ----

> <Gold.Chemscore.Fitness>
9.9539

> <Gold.Chemscore.DG>
-12.2648

> <Gold.Chemscore.ZeroCoef>
-5.4800

> <Gold.Chemscore.Hbond>
0.9421

> <Gold.Chemscore.Metal>
0.0000

> <Gold.Chemscore.Lipo>
89.3421

> <Gold.Chemscore.Internal_Hbond>
0.0000

> <Gold.Chemscore.DEClash>
0.3881

> <Gold.Chemscore.DEInternal>
1.9228

> <Gold.Chemscore.Rot>
2.6620

> <Gold.Chemscore.Internal.Correction>
   9.000000E+99

> <Gold.Chemscore.Hbonds>
donor molecule, donor type, donor heavy atom, donor atom, acceptor molecule, acceptor atom, score
      L1  H    23    44       P1  7957  0.60
      P1  H  7954  7966       L1    23  0.15

> <Gold.Chemscore.Hbond.Weighted>
-3.1466

> <Gold.Chemscore.Metal.Weighted>
-0.0000

> <Gold.Chemscore.Lipo.Weighted>
-10.4530

> <Gold.Chemscore.Internal_Hbond.Weighted>
0.0000

> <Gold.Chemscore.DEClash.Weighted>
0.3881

> <Gold.Chemscore.DEInternal.Weighted>
1.9228

> <Gold.Chemscore.Rot.Weighted>
6.8148

> <Gold.Chemscore.Internal.Correction.Weighted>
   9.000000E+99

> <Gold.Protein.RotatedTorsions>
[ 6907 6896 6895 6894 ] final   70.93 input  -60.11 | X-H torsion
[ 7974 7965 7964 7962 ] final  145.40 input  175.53 | X-H torsion
[ 8008 7997 7996 7995 ] final -142.43 input   59.86 | X-H torsion
[ 10167 10162 10161 10158 ] final -101.50 input  -65.29 | X-H torsion
[ 10718 10713 10712 10709 ] final   99.60 input   66.30 | X-H torsion
[ 10763 10752 10751 10750 ] final   16.86 input  -60.55 | X-H torsion
[ 11005 11000 10999 10996 ] final   41.42 input  -57.11 | X-H torsion

> <Gold.Protein.ActiveResidues>
 VAL166  LYS551  ARG553  GLY616  TRP617  ASP618  TYR619  PRO620  LYS621  CYS622 
 ASP623  PHE694  ASN695  SER759  ASP760  ASP761  ALA762  ILE779  LEU786  VAL792 
 PHE793  MET794  SER795  GLU796  ALA797  LYS798  CYS799  TRP800  GLU811  SER814 

> <Gold.Protein.RotatedAtoms>
  152.4779  134.4795  159.9660 H   0  0  0  0  0  0  0  0  0  0  0  0  # atno 6907 bound_to 6896
  151.4807  133.3541  159.2845 H   0  0  0  0  0  0  0  0  0  0  0  0  # atno 6908 bound_to 6896
  150.8831  134.8251  159.7300 H   0  0  0  0  0  0  0  0  0  0  0  0  # atno 6909 bound_to 6896
  144.8755  139.5779  143.5867 H   0  0  0  0  0  0  0  0  0  0  0  0  # atno 7974 bound_to 7965
  155.4940  140.0570  157.2949 H   0  0  0  0  0  0  0  0  0  0  0  0  # atno 8008 bound_to 7997
  154.4612  140.1997  156.0190 H   0  0  0  0  0  0  0  0  0  0  0  0  # atno 8009 bound_to 7997
  156.0893  140.3235  155.7799 H   0  0  0  0  0  0  0  0  0  0  0  0  # atno 8010 bound_to 7997
  140.2406  143.3542  152.0805 H   0  0  0  0  0  0  0  0  0  0  0  0  # atno 10167 bound_to 10162
  157.6872  131.0674  150.4973 H   0  0  0  0  0  0  0  0  0  0  0  0  # atno 10718 bound_to 10713
  153.1392  135.6756  153.9054 H   0  0  0  0  0  0  0  0  0  0  0  0  # atno 10763 bound_to 10752
  153.8516  135.3092  155.3434 H   0  0  0  0  0  0  0  0  0  0  0  0  # atno 10764 bound_to 10752
  154.7773  135.4907  153.9854 H   0  0  0  0  0  0  0  0  0  0  0  0  # atno 10765 bound_to 10752
  140.1836  134.4073  155.8186 H   0  0  0  0  0  0  0  0  0  0  0  0  # atno 11005 bound_to 11000
  146.2960  139.7279  142.9126 LP  0  0  0  0  0  0  0  0  0  0  0  0  # atno 17320 bound_to 7965
  145.4050  141.0390  143.3049 LP  0  0  0  0  0  0  0  0  0  0  0  0  # atno 17321 bound_to 7965
  139.5079  144.6840  151.5936 LP  0  0  0  0  0  0  0  0  0  0  0  0  # atno 17342 bound_to 10162
  140.6116  143.9425  150.6458 LP  0  0  0  0  0  0  0  0  0  0  0  0  # atno 17343 bound_to 10162
  156.5296  130.4181  149.6208 LP  0  0  0  0  0  0  0  0  0  0  0  0  # atno 17370 bound_to 10713
  156.3081  130.7214  151.2100 LP  0  0  0  0  0  0  0  0  0  0  0  0  # atno 17371 bound_to 10713
  141.2224  133.7012  156.7974 LP  0  0  0  0  0  0  0  0  0  0  0  0  # atno 17394 bound_to 11000
  140.2239  134.8736  157.3406 LP  0  0  0  0  0  0  0  0  0  0  0  0  # atno 17395 bound_to 11000

$$$$
