AV-unprocessed.smi:1285|AV-procd|sdf|5371|dock5
  -GOLD-   22720 4513D 1   1.00000     0.00000
 Structure written by MMmdl.
 47 48  0  0  0  0  0  0  0  0  2 V2000
  149.1573  132.3822  154.1036 C   0  0  0  0  0  0  0  0  0  0  0  0
  149.6671  133.8297  153.9861 C   0  0  0  0  0  0  0  0  0  0  0  0
  148.8958  134.8885  154.8337 C   0  0  1  0  0  0  0  0  0  0  0  0
  147.4027  134.8075  154.4172 C   0  0  0  0  0  0  0  0  0  0  0  0
  149.0133  134.5413  156.3511 C   0  0  0  0  0  0  0  0  0  0  0  0
  148.1000  135.3171  157.1872 N   0  0  0  0  0  0  0  0  0  0  0  0
  148.4381  136.0262  158.2756 C   0  0  0  0  0  0  0  0  0  0  0  0
  149.6010  136.1718  158.6539 O   0  0  0  0  0  0  0  0  0  0  0  0
  147.2687  136.6185  159.0748 C   0  0  2  0  0  0  0  0  0  0  0  0
  147.1804  138.1524  158.9666 C   0  0  0  0  0  0  0  0  0  0  0  0
  147.3659  136.1877  160.4628 N   0  0  0  0  0  0  0  0  0  0  0  0
  147.3506  134.9656  161.0028 C   0  0  0  0  0  0  0  0  0  0  0  0
  147.4051  134.9629  162.3270 N   0  0  0  0  0  0  0  0  0  0  0  0
  147.4528  136.3085  162.5559 C   0  0  0  0  0  0  0  0  0  0  0  0
  147.4206  137.0871  161.4745 N   0  0  0  0  0  0  0  0  0  0  0  0
  149.4447  136.2667  154.5584 N   0  3  0  0  0  0  0  0  0  0  0  0
  148.6574  137.4074  155.1067 C   0  0  0  0  0  0  0  0  0  0  0  0
  149.2154  138.7457  154.5928 C   0  0  0  0  0  0  0  0  0  0  0  0
  150.5877  138.8622  154.9406 O   0  0  0  0  0  0  0  0  0  0  0  0
  151.3681  137.8319  154.3513 C   0  0  0  0  0  0  0  0  0  0  0  0
  150.8893  136.4658  154.8687 C   0  0  0  0  0  0  0  0  0  0  0  0
  149.7604  131.7170  153.4853 H   0  0  0  0  0  0  0  0  0  0  0  0
  148.1244  132.2848  153.7704 H   0  0  0  0  0  0  0  0  0  0  0  0
  149.2186  132.0128  155.1270 H   0  0  0  0  0  0  0  0  0  0  0  0
  150.7178  133.8226  154.2770 H   0  0  0  0  0  0  0  0  0  0  0  0
  149.6795  134.1174  152.9352 H   0  0  0  0  0  0  0  0  0  0  0  0
  147.0479  133.7765  154.3836 H   0  0  0  0  0  0  0  0  0  0  0  0
  147.2330  135.2362  153.4293 H   0  0  0  0  0  0  0  0  0  0  0  0
  146.7526  135.3301  155.1193 H   0  0  0  0  0  0  0  0  0  0  0  0
  148.8526  133.4774  156.5259 H   0  0  0  0  0  0  0  0  0  0  0  0
  150.0183  134.7533  156.7143 H   0  0  0  0  0  0  0  0  0  0  0  0
  147.1180  135.2581  156.9579 H   0  0  0  0  0  0  0  0  0  0  0  0
  146.3465  136.2088  158.6575 H   0  0  0  0  0  0  0  0  0  0  0  0
  147.0846  138.4689  157.9273 H   0  0  0  0  0  0  0  0  0  0  0  0
  148.0608  138.6427  159.3838 H   0  0  0  0  0  0  0  0  0  0  0  0
  146.3090  138.5289  159.5034 H   0  0  0  0  0  0  0  0  0  0  0  0
  147.2857  134.0609  160.4158 H   0  0  0  0  0  0  0  0  0  0  0  0
  147.5042  136.7271  163.5503 H   0  0  0  0  0  0  0  0  0  0  0  0
  147.6116  137.3540  154.8104 H   0  0  0  0  0  0  0  0  0  0  0  0
  148.6853  137.3959  156.1966 H   0  0  0  0  0  0  0  0  0  0  0  0
  149.0932  138.8290  153.5116 H   0  0  0  0  0  0  0  0  0  0  0  0
  148.6677  139.5763  155.0385 H   0  0  0  0  0  0  0  0  0  0  0  0
  151.3050  137.8830  153.2630 H   0  0  0  0  0  0  0  0  0  0  0  0
  152.4136  137.9884  154.6171 H   0  0  0  0  0  0  0  0  0  0  0  0
  151.0575  136.4181  155.9447 H   0  0  0  0  0  0  0  0  0  0  0  0
  151.5072  135.6952  154.4123 H   0  0  0  0  0  0  0  0  0  0  0  0
  149.3760  136.3643  153.5554 H   0  0  0  0  0  0  0  0  0  0  0  0
  1  2  1  0  0  0  0
  1 22  1  0  0  0  0
  1 23  1  0  0  0  0
  1 24  1  0  0  0  0
  2  3  1  0  0  0  0
  2 25  1  0  0  0  0
  2 26  1  0  0  0  0
  3  4  1  0  0  0  0
  3  5  1  0  0  0  0
  3 16  1  0  0  0  0
  4 27  1  0  0  0  0
  4 28  1  0  0  0  0
  4 29  1  0  0  0  0
  5  6  1  0  0  0  0
  5 30  1  0  0  0  0
  5 31  1  0  0  0  0
  6  7  1  0  0  0  0
  6 32  1  0  0  0  0
  7  8  2  0  0  0  0
  7  9  1  0  0  0  0
  9 10  1  0  0  0  0
  9 11  1  0  0  0  0
  9 33  1  0  0  0  0
 10 34  1  0  0  0  0
 10 35  1  0  0  0  0
 10 36  1  0  0  0  0
 11 15  1  0  0  0  0
 11 12  1  0  0  0  0
 12 13  2  0  0  0  0
 12 37  1  0  0  0  0
 13 14  1  0  0  0  0
 14 15  2  0  0  0  0
 14 38  1  0  0  0  0
 16 21  1  0  0  0  0
 16 17  1  0  0  0  0
 16 47  1  0  0  0  0
 17 18  1  0  0  0  0
 17 39  1  0  0  0  0
 17 40  1  0  0  0  0
 18 19  1  0  0  0  0
 18 41  1  0  0  0  0
 18 42  1  0  0  0  0
 19 20  1  0  0  0  0
 20 21  1  0  0  0  0
 20 43  1  0  0  0  0
 20 44  1  0  0  0  0
 21 45  1  0  0  0  0
 21 46  1  0  0  0  0
M  CHG  1  16   1
M  END
> <s_m_source_file>
AV-unprocessed.smi

> <i_m_source_file_index>
1285

> <i_lp_mmshare_version>
43012

> <i_f3d_flags>
0

> <s_epik_input>
W0NIMl0xW0NIMl1PW0NIMl1bQ0gyXU4xW0NAQF0oW0NIM10pKFtDSDJdW0NIM10pW0NIMl1bTkhdQyg9TylbQ0BIXShbQ0gzXSluMltjSF1uW2NIXW4y

> <s_epik_cmdline>
J2VwaWtfcHl0aG9uJywgJy1waCcsICc3LjAnLCAnLXRuJywgJzgnLCAnLW1hJywgJzIwMCcsICctbWV0YWxfYmluZGluZycsICctaW1hZScsICc8aW5maWxlLm1hZT4nLCAnLW9tYWUnLCAnPG91dGZpbGUubWFlPic=

> <r_lp_tautomer_probability>
1

> <r_epik_Ionization_Penalty>
0.569304

> <r_epik_Ionization_Penalty_Charging>
0.569295

> <r_epik_Ionization_Penalty_Neutral>
8.22697e-06

> <r_epik_State_Penalty>
0.581114

> <r_epik_Charging_Adjusted_Penalty>
1.15041

> <i_epik_Tot_Q>
1

> <i_epik_Tot_abs_Q>
1

> <r_epik_Metal_State_Penalty>
0.581117

> <b_epik_Metal_Only>
0

> <s_lp_Force_Field>
OPLS_2005

> <r_lp_Energy>
33.7003

> <b_lp_Chiralities_Consistent>
1

> <s_lp_Variant>
AV-unprocessed.smi:1285-5

> <Gold.Version>
5.8.1

> <Gold.Id.Protein>
6NUR|6NUR_protein|mol2

> <Gold.PLP.Fitness>
41.5251

> <Gold.PLP.PLP>
-27.6085

> <Gold.PLP.part.hbond>
-4.0000

> <Gold.PLP.part.metal>
0.0000

> <Gold.PLP.part.buried>
-0.9016

> <Gold.PLP.part.nonpolar>
-22.2570

> <Gold.PLP.part.repulsive>
0.1564

> <Gold.PLP.ligand.clash>
0.0000

> <Gold.PLP.ligand.torsion>
0.3633

> <Gold.PLP.Chemscore.Hbond>
4.7840

> <Gold.PLP.Chemscore.CHOScore>
0.0000

> <Gold.PLP.Chemscore.Metal>
0.0000

> <Gold.Chemscore.Hbonds>
donor molecule, donor type, donor heavy atom, donor atom, acceptor molecule, acceptor atom, score
      L1  H    16    47       P1  7948  2.00
      P1  H  6896  6908       L1     8  0.86
      P1  H  6931  6943       L1    15  0.86
      P1  H  6934  6947       L1    15  0.91

> <Gold.PLP.Chemscore.Internal.Correction>
0.2911

> <Gold.Rescore>
     Score         DG    S(hbond)    S(metal)    S(lipo)     H(rot)  DE(clash)    DE(int)     intcor
     10.47     -13.34       2.87        0.00      45.74       2.76       1.62       1.24       ----

> <Gold.Chemscore.Fitness>
10.4737

> <Gold.Chemscore.DG>
-13.3407

> <Gold.Chemscore.ZeroCoef>
-5.4800

> <Gold.Chemscore.Hbond>
2.8659

> <Gold.Chemscore.Metal>
0.0000

> <Gold.Chemscore.Lipo>
45.7379

> <Gold.Chemscore.Internal_Hbond>
0.0000

> <Gold.Chemscore.DEClash>
1.6233

> <Gold.Chemscore.DEInternal>
1.2437

> <Gold.Chemscore.Rot>
2.7589

> <Gold.Chemscore.Internal.Correction>
   9.000000E+99

> <Gold.Chemscore.Hbonds>
donor molecule, donor type, donor heavy atom, donor atom, acceptor molecule, acceptor atom, score
      L1  H    16    47       P1  7948  0.82
      P1  H  6896  6908       L1     8  0.83
      P1  H  6931  6943       L1    15  0.15
      P1  H  6934  6947       L1    15  0.78

> <Gold.Chemscore.Hbond.Weighted>
-9.5721

> <Gold.Chemscore.Metal.Weighted>
-0.0000

> <Gold.Chemscore.Lipo.Weighted>
-5.3513

> <Gold.Chemscore.Internal_Hbond.Weighted>
0.0000

> <Gold.Chemscore.DEClash.Weighted>
1.6233

> <Gold.Chemscore.DEInternal.Weighted>
1.2437

> <Gold.Chemscore.Rot.Weighted>
7.0627

> <Gold.Chemscore.Internal.Correction.Weighted>
   9.000000E+99

> <Gold.Protein.RotatedTorsions>
[ 6907 6896 6895 6894 ] final  176.40 input  -60.11 | X-H torsion
[ 7974 7965 7964 7962 ] final  -21.07 input  175.53 | X-H torsion
[ 8008 7997 7996 7995 ] final  -58.74 input   59.86 | X-H torsion
[ 10167 10162 10161 10158 ] final  151.70 input  -65.29 | X-H torsion
[ 10718 10713 10712 10709 ] final  -99.45 input   66.30 | X-H torsion
[ 10763 10752 10751 10750 ] final  -15.29 input  -60.55 | X-H torsion
[ 11005 11000 10999 10996 ] final -117.36 input  -57.11 | X-H torsion

> <Gold.Protein.ActiveResidues>
 VAL166  LYS551  ARG553  GLY616  TRP617  ASP618  TYR619  PRO620  LYS621  CYS622 
 ASP623  PHE694  ASN695  SER759  ASP760  ASP761  ALA762  ILE779  LEU786  VAL792 
 PHE793  MET794  SER795  GLU796  ALA797  LYS798  CYS799  TRP800  GLU811  SER814 

> <Gold.Protein.RotatedAtoms>
  151.7207  133.3314  159.3314 H   0  0  0  0  0  0  0  0  0  0  0  0  # atno 6907 bound_to 6896
  150.7654  134.6450  159.6267 H   0  0  0  0  0  0  0  0  0  0  0  0  # atno 6908 bound_to 6896
  152.3653  134.6815  160.0245 H   0  0  0  0  0  0  0  0  0  0  0  0  # atno 6909 bound_to 6896
  146.1753  140.4290  142.8516 H   0  0  0  0  0  0  0  0  0  0  0  0  # atno 7974 bound_to 7965
  154.4322  140.1077  156.6005 H   0  0  0  0  0  0  0  0  0  0  0  0  # atno 8008 bound_to 7997
  155.5916  140.3492  155.4549 H   0  0  0  0  0  0  0  0  0  0  0  0  # atno 8009 bound_to 7997
  156.0242  140.1246  157.0315 H   0  0  0  0  0  0  0  0  0  0  0  0  # atno 8010 bound_to 7997
  139.4838  144.5419  151.7550 H   0  0  0  0  0  0  0  0  0  0  0  0  # atno 10167 bound_to 10162
  156.0134  130.5283  150.6671 H   0  0  0  0  0  0  0  0  0  0  0  0  # atno 10718 bound_to 10713
  153.5411  135.7013  153.5636 H   0  0  0  0  0  0  0  0  0  0  0  0  # atno 10763 bound_to 10752
  153.3602  135.3972  155.1712 H   0  0  0  0  0  0  0  0  0  0  0  0  # atno 10764 bound_to 10752
  154.8673  135.3787  154.4915 H   0  0  0  0  0  0  0  0  0  0  0  0  # atno 10765 bound_to 10752
  141.0360  133.9909  157.3070 H   0  0  0  0  0  0  0  0  0  0  0  0  # atno 11005 bound_to 11000
  144.8227  140.6576  143.6342 LP  0  0  0  0  0  0  0  0  0  0  0  0  # atno 17320 bound_to 7965
  145.4228  139.1561  143.4065 LP  0  0  0  0  0  0  0  0  0  0  0  0  # atno 17321 bound_to 7965
  140.4960  144.1240  150.5960 LP  0  0  0  0  0  0  0  0  0  0  0  0  # atno 17342 bound_to 10162
  140.4117  143.2653  151.9824 LP  0  0  0  0  0  0  0  0  0  0  0  0  # atno 17343 bound_to 10162
  157.4402  131.0860  151.0951 LP  0  0  0  0  0  0  0  0  0  0  0  0  # atno 17370 bound_to 10713
  157.1498  130.6179  149.5579 LP  0  0  0  0  0  0  0  0  0  0  0  0  # atno 17371 bound_to 10713
  139.9241  135.0201  156.8171 LP  0  0  0  0  0  0  0  0  0  0  0  0  # atno 17394 bound_to 11000
  140.6321  133.9896  155.7667 LP  0  0  0  0  0  0  0  0  0  0  0  0  # atno 17395 bound_to 11000

$$$$
