AV-unprocessed.smi:187|AV-procd|sdf|1470|dock10
  -GOLD-   2262019283D 1   1.00000     0.00000
 Structure written by MMmdl.
 53 56  0  0  0  0  0  0  0  0  1 V2000
  147.2371  132.8575  152.9738 C   0  0  0  0  0  0  0  0  0  0  0  0
  145.7986  132.4433  152.5984 C   0  0  2  0  0  0  0  0  0  0  0  0
  145.8411  131.3558  151.5046 C   0  0  0  0  0  0  0  0  0  0  0  0
  144.4305  130.9484  151.0448 C   0  0  0  0  0  0  0  0  0  0  0  0
  143.5771  132.1648  150.6278 C   0  0  2  0  0  0  0  0  0  0  0  0
  143.9875  132.7358  149.2566 C   0  0  0  0  0  0  0  0  0  0  0  0
  144.3215  134.0285  149.2165 N   0  0  0  0  0  0  0  0  0  0  0  0
  144.0160  132.0302  148.2499 O   0  0  0  0  0  0  0  0  0  0  0  0
  143.6094  133.2282  151.7467 C   0  0  0  0  0  0  0  0  0  0  0  0
  144.9731  133.5750  152.1527 N   0  0  0  0  0  0  0  0  0  0  0  0
  144.9898  134.6555  152.9647 C   0  0  0  0  0  0  0  0  0  0  0  0
  144.5467  134.5509  154.2453 N   0  0  0  0  0  0  0  0  0  0  0  0
  144.5807  135.6189  155.0478 C   0  0  0  0  0  0  0  0  0  0  0  0
  145.0120  136.8529  154.7775 N   0  0  0  0  0  0  0  0  0  0  0  0
  145.4588  136.9573  153.4919 C   0  0  0  0  0  0  0  0  0  0  0  0
  145.4785  135.9131  152.5264 C   0  0  0  0  0  0  0  0  0  0  0  0
  146.0001  136.3774  151.3267 N   0  0  0  0  0  0  0  0  0  0  0  0
  146.2768  137.6297  151.5691 C   0  0  0  0  0  0  0  0  0  0  0  0
  145.9861  138.0639  152.8442 N   0  0  0  0  0  0  0  0  0  0  0  0
  146.1985  139.3857  153.3644 C   0  0  0  0  0  0  0  0  0  0  0  0
  147.2427  140.3231  152.7519 C   0  0  0  0  0  0  0  0  0  0  0  0
  147.5166  140.9174  154.1538 C   0  0  0  0  0  0  0  0  0  0  0  0
  148.9867  141.1930  154.5268 C   0  0  0  0  0  0  0  0  0  0  0  0
  149.8500  140.1418  154.1409 O   0  0  0  0  0  0  0  0  0  0  0  0
  146.7122  142.1844  154.4994 C   0  0  0  0  0  0  0  0  0  0  0  0
  146.8875  142.5617  155.8502 O   0  0  0  0  0  0  0  0  0  0  0  0
  146.8995  139.6109  154.7069 C   0  0  0  0  0  0  0  0  0  0  0  0
  147.8366  131.9871  153.2413 H   0  0  0  0  0  0  0  0  0  0  0  0
  147.2585  133.5318  153.8304 H   0  0  0  0  0  0  0  0  0  0  0  0
  147.7334  133.3584  152.1417 H   0  0  0  0  0  0  0  0  0  0  0  0
  145.3245  132.0154  153.4832 H   0  0  0  0  0  0  0  0  0  0  0  0
  146.4188  131.7128  150.6514 H   0  0  0  0  0  0  0  0  0  0  0  0
  146.3686  130.4765  151.8756 H   0  0  0  0  0  0  0  0  0  0  0  0
  144.4992  130.2301  150.2267 H   0  0  0  0  0  0  0  0  0  0  0  0
  143.9290  130.4271  151.8611 H   0  0  0  0  0  0  0  0  0  0  0  0
  142.5438  131.8268  150.5346 H   0  0  0  0  0  0  0  0  0  0  0  0
  144.5986  134.4516  148.3427 H   0  0  0  0  0  0  0  0  0  0  0  0
  144.2957  134.5781  150.0630 H   0  0  0  0  0  0  0  0  0  0  0  0
  143.0864  134.1272  151.4153 H   0  0  0  0  0  0  0  0  0  0  0  0
  143.0619  132.8537  152.6133 H   0  0  0  0  0  0  0  0  0  0  0  0
  144.2123  135.4625  156.0509 H   0  0  0  0  0  0  0  0  0  0  0  0
  146.7062  138.2742  150.8158 H   0  0  0  0  0  0  0  0  0  0  0  0
  145.2231  139.8759  153.3708 H   0  0  0  0  0  0  0  0  0  0  0  0
  148.0958  139.7902  152.3308 H   0  0  0  0  0  0  0  0  0  0  0  0
  146.8364  141.0272  152.0253 H   0  0  0  0  0  0  0  0  0  0  0  0
  149.3486  142.1048  154.0508 H   0  0  0  0  0  0  0  0  0  0  0  0
  149.0940  141.3357  155.6024 H   0  0  0  0  0  0  0  0  0  0  0  0
  149.6118  139.8605  153.2710 H   0  0  0  0  0  0  0  0  0  0  0  0
  147.0159  143.0266  153.8771 H   0  0  0  0  0  0  0  0  0  0  0  0
  145.6479  142.0360  154.3128 H   0  0  0  0  0  0  0  0  0  0  0  0
  147.7131  143.0148  155.9312 H   0  0  0  0  0  0  0  0  0  0  0  0
  146.2189  139.7482  155.5476 H   0  0  0  0  0  0  0  0  0  0  0  0
  147.6336  138.8370  154.9335 H   0  0  0  0  0  0  0  0  0  0  0  0
  1  2  1  0  0  0  0
  1 28  1  0  0  0  0
  1 29  1  0  0  0  0
  1 30  1  0  0  0  0
  2 10  1  0  0  0  0
  2  3  1  0  0  0  0
  2 31  1  0  0  0  0
  3  4  1  0  0  0  0
  3 32  1  0  0  0  0
  3 33  1  0  0  0  0
  4  5  1  0  0  0  0
  4 34  1  0  0  0  0
  4 35  1  0  0  0  0
  5  6  1  0  0  0  0
  5  9  1  0  0  0  0
  5 36  1  0  0  0  0
  6  7  1  0  0  0  0
  6  8  2  0  0  0  0
  7 37  1  0  0  0  0
  7 38  1  0  0  0  0
  9 10  1  0  0  0  0
  9 39  1  0  0  0  0
  9 40  1  0  0  0  0
 10 11  1  0  0  0  0
 11 16  1  0  0  0  0
 11 12  2  0  0  0  0
 12 13  1  0  0  0  0
 13 14  2  0  0  0  0
 13 41  1  0  0  0  0
 14 15  1  0  0  0  0
 15 19  1  0  0  0  0
 15 16  2  0  0  0  0
 16 17  1  0  0  0  0
 17 18  2  0  0  0  0
 18 19  1  0  0  0  0
 18 42  1  0  0  0  0
 19 20  1  0  0  0  0
 20 27  1  0  0  0  0
 20 21  1  0  0  0  0
 20 43  1  0  0  0  0
 21 22  1  0  0  0  0
 21 44  1  0  0  0  0
 21 45  1  0  0  0  0
 22 23  1  0  0  0  0
 22 25  1  0  0  0  0
 22 27  1  0  0  0  0
 23 24  1  0  0  0  0
 23 46  1  0  0  0  0
 23 47  1  0  0  0  0
 24 48  1  0  0  0  0
 25 26  1  0  0  0  0
 25 49  1  0  0  0  0
 25 50  1  0  0  0  0
 26 51  1  0  0  0  0
 27 52  1  0  0  0  0
 27 53  1  0  0  0  0
M  END
> <s_m_source_file>
AV-unprocessed.smi

> <i_m_source_file_index>
187

> <i_lp_mmshare_version>
43012

> <i_f3d_flags>
0

> <s_epik_input>
W0NIM11bQ0BASF0xW0NIMl1bQ0gyXVtDQEBIXShDKD1PKVtOSDJdKVtDSDJdTjFjKG5bY0hdbjIpYyhjMjMpbltjSF1uM1tDSF0oW0NIMl00KVtDSDJdQzQoW0NIMl1bT0hdKVtDSDJdW09IXQ==

> <s_epik_cmdline>
J2VwaWtfcHl0aG9uJywgJy1waCcsICc3LjAnLCAnLXRuJywgJzgnLCAnLW1hJywgJzIwMCcsICctbWV0YWxfYmluZGluZycsICctaW1hZScsICc8aW5maWxlLm1hZT4nLCAnLW9tYWUnLCAnPG91dGZpbGUubWFlPic=

> <r_lp_tautomer_probability>
1

> <r_epik_Ionization_Penalty>
0.0017711

> <r_epik_Ionization_Penalty_Charging>
0

> <r_epik_Ionization_Penalty_Neutral>
0.0017711

> <r_epik_State_Penalty>
0.00107211

> <r_epik_Charging_Adjusted_Penalty>
0.00107211

> <i_epik_Tot_Q>
0

> <i_epik_Tot_abs_Q>
0

> <r_epik_Metal_State_Penalty>
-0

> <b_epik_Metal_Only>
0

> <s_lp_Force_Field>
OPLS_2005

> <r_lp_Energy>
40.7321

> <b_lp_Chiralities_Consistent>
1

> <s_lp_Variant>
AV-unprocessed.smi:187-3

> <Gold.Version>
5.8.1

> <Gold.Id.Protein>
6NUR|6NUR_protein|mol2

> <Gold.PLP.Fitness>
49.3480

> <Gold.PLP.PLP>
-38.8779

> <Gold.PLP.part.hbond>
-5.6671

> <Gold.PLP.part.metal>
0.0000

> <Gold.PLP.part.buried>
-0.7307

> <Gold.PLP.part.nonpolar>
-35.8911

> <Gold.PLP.part.repulsive>
1.1777

> <Gold.PLP.ligand.clash>
0.0866

> <Gold.PLP.ligand.torsion>
0.7577

> <Gold.PLP.Chemscore.Hbond>
3.7430

> <Gold.PLP.Chemscore.CHOScore>
0.0734

> <Gold.PLP.Chemscore.Metal>
0.0000

> <Gold.Chemscore.Hbonds>
donor molecule, donor type, donor heavy atom, donor atom, acceptor molecule, acceptor atom, score
      L1  H     7    37       P1  7921  0.69
      L1  H    24    48       P1  7957  0.78
      L1  H    26    51       P1  8028  0.90
      P1  H  7989  7998       L1    24  0.48
      P1  H 10785 10796       L1     8  0.34

> <Gold.PLP.Chemscore.Internal.Correction>
0.6230

> <Gold.Rescore>
     Score         DG    S(hbond)    S(metal)    S(lipo)     H(rot)  DE(clash)    DE(int)     intcor
     11.71     -15.46       3.14        0.00      83.05       3.99       1.77       1.97       ----

> <Gold.Chemscore.Fitness>
11.7131

> <Gold.Chemscore.DG>
-15.4586

> <Gold.Chemscore.ZeroCoef>
-5.4800

> <Gold.Chemscore.Hbond>
3.1366

> <Gold.Chemscore.Metal>
0.0000

> <Gold.Chemscore.Lipo>
83.0524

> <Gold.Chemscore.Internal_Hbond>
0.0000

> <Gold.Chemscore.DEClash>
1.7745

> <Gold.Chemscore.DEInternal>
1.9710

> <Gold.Chemscore.Rot>
3.9902

> <Gold.Chemscore.Internal.Correction>
   9.000000E+99

> <Gold.Chemscore.Hbonds>
donor molecule, donor type, donor heavy atom, donor atom, acceptor molecule, acceptor atom, score
      L1  H     7    37       P1  7921  0.68
      L1  H    24    48       P1  7957  0.74
      L1  H    26    51       P1  8028  0.25
      P1  H  7989  7998       L1    24  0.02
      P1  H 10785 10796       L1     8  0.24

> <Gold.Chemscore.Hbond.Weighted>
-10.4762

> <Gold.Chemscore.Metal.Weighted>
-0.0000

> <Gold.Chemscore.Lipo.Weighted>
-9.7171

> <Gold.Chemscore.Internal_Hbond.Weighted>
0.0000

> <Gold.Chemscore.DEClash.Weighted>
1.7745

> <Gold.Chemscore.DEInternal.Weighted>
1.9710

> <Gold.Chemscore.Rot.Weighted>
10.2148

> <Gold.Chemscore.Internal.Correction.Weighted>
   9.000000E+99

> <Gold.Protein.RotatedTorsions>
[ 6907 6896 6895 6894 ] final -144.52 input  -60.11 | X-H torsion
[ 7974 7965 7964 7962 ] final  175.61 input  175.53 | X-H torsion
[ 8008 7997 7996 7995 ] final  -69.20 input   59.86 | X-H torsion
[ 10167 10162 10161 10158 ] final -168.26 input  -65.29 | X-H torsion
[ 10718 10713 10712 10709 ] final  -86.06 input   66.30 | X-H torsion
[ 10763 10752 10751 10750 ] final  169.79 input  -60.55 | X-H torsion
[ 11005 11000 10999 10996 ] final  167.63 input  -57.11 | X-H torsion

> <Gold.Protein.ActiveResidues>
 VAL166  LYS551  ARG553  GLY616  TRP617  ASP618  TYR619  PRO620  LYS621  CYS622 
 ASP623  PHE694  ASN695  SER759  ASP760  ASP761  ALA762  ILE779  LEU786  VAL792 
 PHE793  MET794  SER795  GLU796  ALA797  LYS798  CYS799  TRP800  GLU811  SER814 

> <Gold.Protein.RotatedAtoms>
  151.1152  133.5144  159.2603 H   0  0  0  0  0  0  0  0  0  0  0  0  # atno 6907 bound_to 6896
  151.1923  135.0407  159.8848 H   0  0  0  0  0  0  0  0  0  0  0  0  # atno 6908 bound_to 6896
  152.5452  134.0990  159.8363 H   0  0  0  0  0  0  0  0  0  0  0  0  # atno 6909 bound_to 6896
  144.7198  139.9973  143.6440 H   0  0  0  0  0  0  0  0  0  0  0  0  # atno 7974 bound_to 7965
  154.4922  140.0858  156.7619 H   0  0  0  0  0  0  0  0  0  0  0  0  # atno 8008 bound_to 7997
  155.4203  140.3445  155.4252 H   0  0  0  0  0  0  0  0  0  0  0  0  # atno 8009 bound_to 7997
  156.1345  140.1511  156.9003 H   0  0  0  0  0  0  0  0  0  0  0  0  # atno 8010 bound_to 7997
  139.5996  144.1038  152.1728 H   0  0  0  0  0  0  0  0  0  0  0  0  # atno 10167 bound_to 10162
  155.9992  130.4752  150.4658 H   0  0  0  0  0  0  0  0  0  0  0  0  # atno 10718 bound_to 10713
  154.3882  135.2754  155.2170 H   0  0  0  0  0  0  0  0  0  0  0  0  # atno 10763 bound_to 10752
  154.4248  135.5991  153.6035 H   0  0  0  0  0  0  0  0  0  0  0  0  # atno 10764 bound_to 10752
  152.9832  135.5981  154.4134 H   0  0  0  0  0  0  0  0  0  0  0  0  # atno 10765 bound_to 10752
  140.2788  134.7767  157.3740 H   0  0  0  0  0  0  0  0  0  0  0  0  # atno 11005 bound_to 11000
  146.0363  139.3381  143.0724 LP  0  0  0  0  0  0  0  0  0  0  0  0  # atno 17320 bound_to 7965
  145.8390  140.9591  143.0809 LP  0  0  0  0  0  0  0  0  0  0  0  0  # atno 17321 bound_to 7965
  140.0632  144.5840  150.7247 LP  0  0  0  0  0  0  0  0  0  0  0  0  # atno 17342 bound_to 10162
  140.7239  143.2616  151.4186 LP  0  0  0  0  0  0  0  0  0  0  0  0  # atno 17343 bound_to 10162
  157.2677  131.0580  151.2279 LP  0  0  0  0  0  0  0  0  0  0  0  0  # atno 17370 bound_to 10713
  157.3371  130.7014  149.6359 LP  0  0  0  0  0  0  0  0  0  0  0  0  # atno 17371 bound_to 10713
  140.1303  134.5104  155.8111 LP  0  0  0  0  0  0  0  0  0  0  0  0  # atno 17394 bound_to 11000
  141.2166  133.6787  156.7027 LP  0  0  0  0  0  0  0  0  0  0  0  0  # atno 17395 bound_to 11000

$$$$
