AV-unprocessed.smi:2886|AV-procd|sdf|11089|dock1
  -GOLD-   2272015563D 1   1.00000     0.00000
 Structure written by MMmdl.
 28 30  0  0  0  0  0  0  0  0  1 V2000
  151.0258  138.0805  153.9314 O   0  0  0  0  0  0  0  0  0  0  0  0
  150.7126  139.1895  154.3598 C   0  0  0  0  0  0  0  0  0  0  0  0
  149.9677  140.0471  153.6235 N   0  0  0  0  0  0  0  0  0  0  0  0
  149.5515  141.3008  153.9999 N   0  0  0  0  0  0  0  0  0  0  0  0
  149.8956  141.7380  155.1629 C   0  0  0  0  0  0  0  0  0  0  0  0
  150.7113  140.9614  156.0907 C   0  0  0  0  0  0  0  0  0  0  0  0
  151.0808  141.4333  157.3436 N   0  0  0  0  0  0  0  0  0  0  0  0
  150.7617  142.7115  157.9655 C   0  0  2  0  0  0  0  0  0  0  0  0
  151.4412  143.8979  157.2808 C   0  0  0  0  0  0  0  0  0  0  0  0
  152.1498  144.5731  158.4641 C   0  0  2  0  0  0  0  0  0  0  0  0
  153.3938  143.7867  158.8974 C   0  0  0  0  0  0  0  0  0  0  0  0
  152.7705  142.5663  159.5726 C   0  0  0  0  0  0  0  0  0  0  0  0
  151.2667  142.8469  159.4122 C   0  0  1  0  0  0  0  0  0  0  0  0
  151.2649  144.2600  159.5279 O   0  0  0  0  0  0  0  0  0  0  0  0
  151.0883  139.7193  155.6780 C   0  0  0  0  0  0  0  0  0  0  0  0
  152.0450  138.7046  156.7052 Cl  0  0  0  0  0  0  0  0  0  0  0  0
  149.6637  139.7694  152.7012 H   0  0  0  0  0  0  0  0  0  0  0  0
  149.5802  142.7221  155.5076 H   0  0  0  0  0  0  0  0  0  0  0  0
  151.7675  140.8858  157.8433 H   0  0  0  0  0  0  0  0  0  0  0  0
  149.6855  142.8820  157.9406 H   0  0  0  0  0  0  0  0  0  0  0  0
  152.1417  143.6100  156.4954 H   0  0  0  0  0  0  0  0  0  0  0  0
  150.6948  144.5606  156.8418 H   0  0  0  0  0  0  0  0  0  0  0  0
  152.3276  145.6397  158.3241 H   0  0  0  0  0  0  0  0  0  0  0  0
  154.0351  143.5247  158.0552 H   0  0  0  0  0  0  0  0  0  0  0  0
  153.9855  144.3585  159.6132 H   0  0  0  0  0  0  0  0  0  0  0  0
  153.0811  141.6240  159.1207 H   0  0  0  0  0  0  0  0  0  0  0  0
  153.0437  142.5380  160.6278 H   0  0  0  0  0  0  0  0  0  0  0  0
  150.6418  142.3359  160.1454 H   0  0  0  0  0  0  0  0  0  0  0  0
  1  2  2  0  0  0  0
  2 15  1  0  0  0  0
  2  3  1  0  0  0  0
  3 17  1  0  0  0  0
  3  4  1  0  0  0  0
  4  5  2  0  0  0  0
  5  6  1  0  0  0  0
  5 18  1  0  0  0  0
  6  7  1  0  0  0  0
  6 15  2  0  0  0  0
  7  8  1  0  0  0  0
  7 19  1  0  0  0  0
  8 13  1  0  0  0  0
  8  9  1  0  0  0  0
  8 20  1  0  0  0  0
  9 10  1  0  0  0  0
  9 21  1  0  0  0  0
  9 22  1  0  0  0  0
 10 14  1  0  0  0  0
 10 11  1  0  0  0  0
 10 23  1  0  0  0  0
 11 12  1  0  0  0  0
 11 24  1  0  0  0  0
 11 25  1  0  0  0  0
 12 13  1  0  0  0  0
 12 26  1  0  0  0  0
 12 27  1  0  0  0  0
 13 14  1  0  0  0  0
 13 28  1  0  0  0  0
 15 16  1  0  0  0  0
M  END
> <s_m_source_file>
AV-unprocessed.smi

> <i_m_source_file_index>
2886

> <i_lp_mmshare_version>
43012

> <i_f3d_flags>
0

> <s_epik_input>
Tz1jMVtuSF1uW2NIXWMoYzFDbClbTkhdW0NASF0oW0NIMl1bQ0BASF0yMylbQ0BASF0oTzMpW0NIMl1bQ0gyXTI=

> <s_epik_cmdline>
J2VwaWtfcHl0aG9uJywgJy1waCcsICc3LjAnLCAnLXRuJywgJzgnLCAnLW1hJywgJzIwMCcsICctbWV0YWxfYmluZGluZycsICctaW1hZScsICc8aW5maWxlLm1hZT4nLCAnLW9tYWUnLCAnPG91dGZpbGUubWFlPic=

> <r_lp_tautomer_probability>
0.986175

> <r_epik_Ionization_Penalty>
0.000975594

> <r_epik_Ionization_Penalty_Charging>
0.000940184

> <r_epik_Ionization_Penalty_Neutral>
3.54099e-05

> <r_epik_State_Penalty>
0.00620319

> <r_epik_Charging_Adjusted_Penalty>
0.00714337

> <i_epik_Tot_Q>
0

> <i_epik_Tot_abs_Q>
0

> <r_epik_Metal_State_Penalty>
0.287699

> <b_epik_Metal_Only>
0

> <s_lp_Force_Field>
OPLS_2005

> <r_lp_Energy>
55.2825

> <b_lp_Chiralities_Consistent>
1

> <s_lp_Variant>
AV-unprocessed.smi:2886-3

> <Gold.Version>
5.8.1

> <Gold.Id.Protein>
6NUR|6NUR_protein|mol2

> <Gold.PLP.Fitness>
38.9779

> <Gold.PLP.PLP>
-31.6763

> <Gold.PLP.part.hbond>
-3.0000

> <Gold.PLP.part.metal>
0.0000

> <Gold.PLP.part.buried>
-3.3029

> <Gold.PLP.part.nonpolar>
-26.8330

> <Gold.PLP.part.repulsive>
2.7142

> <Gold.PLP.ligand.clash>
0.0000

> <Gold.PLP.ligand.torsion>
0.0401

> <Gold.PLP.Chemscore.Hbond>
1.4576

> <Gold.PLP.Chemscore.CHOScore>
1.0000

> <Gold.PLP.Chemscore.Metal>
0.0000

> <Gold.Chemscore.Hbonds>
donor molecule, donor type, donor heavy atom, donor atom, acceptor molecule, acceptor atom, score
      L1  H     3    17       P1  7957  0.99
      P1  H  8011  8017       L1     4  0.77
      L1  C     5    18       P1  8028  1.00

> <Gold.PLP.Chemscore.Internal.Correction>
0.0090

> <Gold.Rescore>
     Score         DG    S(hbond)    S(metal)    S(lipo)     H(rot)  DE(clash)    DE(int)     intcor
     15.64     -16.31       0.78        0.00      92.14       1.00       0.61       0.05       ----

> <Gold.Chemscore.Fitness>
15.6447

> <Gold.Chemscore.DG>
-16.3143

> <Gold.Chemscore.ZeroCoef>
-5.4800

> <Gold.Chemscore.Hbond>
0.7826

> <Gold.Chemscore.Metal>
0.0000

> <Gold.Chemscore.Lipo>
92.1404

> <Gold.Chemscore.Internal_Hbond>
0.0000

> <Gold.Chemscore.DEClash>
0.6147

> <Gold.Chemscore.DEInternal>
0.0549

> <Gold.Chemscore.Rot>
1.0000

> <Gold.Chemscore.Internal.Correction>
   9.000000E+99

> <Gold.Chemscore.Hbonds>
donor molecule, donor type, donor heavy atom, donor atom, acceptor molecule, acceptor atom, score
      L1  H     3    17       P1  7957  0.91
      P1  H  8011  8017       L1     4  0.32

> <Gold.Chemscore.Hbond.Weighted>
-2.6139

> <Gold.Chemscore.Metal.Weighted>
-0.0000

> <Gold.Chemscore.Lipo.Weighted>
-10.7804

> <Gold.Chemscore.Internal_Hbond.Weighted>
0.0000

> <Gold.Chemscore.DEClash.Weighted>
0.6147

> <Gold.Chemscore.DEInternal.Weighted>
0.0549

> <Gold.Chemscore.Rot.Weighted>
2.5600

> <Gold.Chemscore.Internal.Correction.Weighted>
   9.000000E+99

> <Gold.Protein.RotatedTorsions>
[ 6907 6896 6895 6894 ] final  -44.70 input  -60.11 | X-H torsion
[ 7974 7965 7964 7962 ] final  -64.06 input  175.53 | X-H torsion
[ 8008 7997 7996 7995 ] final   46.65 input   59.86 | X-H torsion
[ 10167 10162 10161 10158 ] final -174.42 input  -65.29 | X-H torsion
[ 10718 10713 10712 10709 ] final   77.47 input   66.30 | X-H torsion
[ 10763 10752 10751 10750 ] final   16.66 input  -60.55 | X-H torsion
[ 11005 11000 10999 10996 ] final -149.73 input  -57.11 | X-H torsion

> <Gold.Protein.ActiveResidues>
 VAL166  LYS551  ARG553  GLY616  TRP617  ASP618  TYR619  PRO620  LYS621  CYS622 
 ASP623  PHE694  ASN695  SER759  ASP760  ASP761  ALA762  ILE779  LEU786  VAL792 
 PHE793  MET794  SER795  GLU796  ALA797  LYS798  CYS799  TRP800  GLU811  SER814 

> <Gold.Protein.RotatedAtoms>
  150.9299  134.8714  159.7544 H   0  0  0  0  0  0  0  0  0  0  0  0  # atno 6907 bound_to 6896
  152.5033  134.4094  159.9453 H   0  0  0  0  0  0  0  0  0  0  0  0  # atno 6908 bound_to 6896
  151.4122  133.3684  159.2780 H   0  0  0  0  0  0  0  0  0  0  0  0  # atno 6909 bound_to 6896
  145.7714  140.8811  143.0378 H   0  0  0  0  0  0  0  0  0  0  0  0  # atno 7974 bound_to 7965
  155.3560  140.3416  155.4240 H   0  0  0  0  0  0  0  0  0  0  0  0  # atno 8008 bound_to 7997
  156.1739  140.1641  156.8433 H   0  0  0  0  0  0  0  0  0  0  0  0  # atno 8009 bound_to 7997
  154.5261  140.0756  156.8244 H   0  0  0  0  0  0  0  0  0  0  0  0  # atno 8010 bound_to 7997
  139.5634  144.1813  152.1275 H   0  0  0  0  0  0  0  0  0  0  0  0  # atno 10167 bound_to 10162
  157.6711  130.9823  150.1646 H   0  0  0  0  0  0  0  0  0  0  0  0  # atno 10718 bound_to 10713
  153.1410  135.6760  153.9027 H   0  0  0  0  0  0  0  0  0  0  0  0  # atno 10763 bound_to 10752
  153.8483  135.3096  155.3432 H   0  0  0  0  0  0  0  0  0  0  0  0  # atno 10764 bound_to 10752
  154.7787  135.4900  153.9883 H   0  0  0  0  0  0  0  0  0  0  0  0  # atno 10765 bound_to 10752
  140.7477  134.3442  157.5133 H   0  0  0  0  0  0  0  0  0  0  0  0  # atno 11005 bound_to 11000
  144.6812  139.9860  143.7484 LP  0  0  0  0  0  0  0  0  0  0  0  0  # atno 17320 bound_to 7965
  146.0166  139.3215  143.0838 LP  0  0  0  0  0  0  0  0  0  0  0  0  # atno 17321 bound_to 7965
  140.1331  144.5270  150.6790 LP  0  0  0  0  0  0  0  0  0  0  0  0  # atno 17342 bound_to 10162
  140.6916  143.2379  151.5115 LP  0  0  0  0  0  0  0  0  0  0  0  0  # atno 17343 bound_to 10162
  156.2414  130.3691  149.8332 LP  0  0  0  0  0  0  0  0  0  0  0  0  # atno 17370 bound_to 10713
  156.6131  130.8595  151.3459 LP  0  0  0  0  0  0  0  0  0  0  0  0  # atno 17371 bound_to 10713
  139.8793  134.9122  156.3054 LP  0  0  0  0  0  0  0  0  0  0  0  0  # atno 17394 bound_to 11000
  140.9779  133.7285  156.0629 LP  0  0  0  0  0  0  0  0  0  0  0  0  # atno 17395 bound_to 11000

$$$$
