AV-unprocessed.smi:3019|AV-procd|sdf|11494|dock2
  -GOLD-   2272016433D 1   1.00000     0.00000
 Structure written by MMmdl.
 30 31  0  0  0  0  0  0  0  0  3 V2000
  152.5736  143.6553  158.5481 C   0  0  0  0  0  0  0  0  0  0  0  0
  152.3559  142.2086  159.0117 C   0  0  0  0  0  0  0  0  0  0  0  0
  153.5547  141.6349  159.7793 C   0  0  0  0  0  0  0  0  0  0  0  0
  151.9484  141.3091  157.8604 C   0  0  0  0  0  0  0  0  0  0  0  0
  152.5099  140.1278  157.5465 N   0  5  0  0  0  0  0  0  0  0  0  0
  151.9107  139.6131  156.4926 N   0  0  0  0  0  0  0  0  0  0  0  0
  150.9689  140.5040  156.1480 C   0  0  0  0  0  0  0  0  0  0  0  0
  149.9925  140.3204  155.0051 C   0  0  1  0  0  0  0  0  0  0  0  0
  150.1172  138.9111  154.3938 C   0  0  0  0  0  0  0  0  0  0  0  0
  149.1477  138.7415  153.2944 N   0  3  0  0  0  0  0  0  0  0  0  0
  147.7709  139.0401  153.7330 C   0  0  0  0  0  0  0  0  0  0  0  0
  147.7118  140.4409  154.3644 C   0  0  0  0  0  0  0  0  0  0  0  0
  148.6469  140.5222  155.4338 O   0  0  0  0  0  0  0  0  0  0  0  0
  150.9718  141.5474  156.9895 N   0  0  0  0  0  0  0  0  0  0  0  0
  151.6766  144.0519  158.0716 H   0  0  0  0  0  0  0  0  0  0  0  0
  153.3901  143.7204  157.8285 H   0  0  0  0  0  0  0  0  0  0  0  0
  152.8172  144.3052  159.3889 H   0  0  0  0  0  0  0  0  0  0  0  0
  151.5133  142.2210  159.7045 H   0  0  0  0  0  0  0  0  0  0  0  0
  153.3363  140.6347  160.1545 H   0  0  0  0  0  0  0  0  0  0  0  0
  153.8109  142.2609  160.6342 H   0  0  0  0  0  0  0  0  0  0  0  0
  154.4358  141.5661  159.1406 H   0  0  0  0  0  0  0  0  0  0  0  0
  150.2333  141.0709  154.2497 H   0  0  0  0  0  0  0  0  0  0  0  0
  151.1246  138.7452  154.0112 H   0  0  0  0  0  0  0  0  0  0  0  0
  149.9321  138.1507  155.1541 H   0  0  0  0  0  0  0  0  0  0  0  0
  149.3945  139.3756  152.5480 H   0  0  0  0  0  0  0  0  0  0  0  0
  147.0959  138.9739  152.8795 H   0  0  0  0  0  0  0  0  0  0  0  0
  147.4537  138.2874  154.4560 H   0  0  0  0  0  0  0  0  0  0  0  0
  147.9216  141.2132  153.6227 H   0  0  0  0  0  0  0  0  0  0  0  0
  146.7124  140.6361  154.7532 H   0  0  0  0  0  0  0  0  0  0  0  0
  149.1942  137.7928  152.9508 H   0  0  0  0  0  0  0  0  0  0  0  0
  1  2  1  0  0  0  0
  1 15  1  0  0  0  0
  1 16  1  0  0  0  0
  1 17  1  0  0  0  0
  2  3  1  0  0  0  0
  2  4  1  0  0  0  0
  2 18  1  0  0  0  0
  3 19  1  0  0  0  0
  3 20  1  0  0  0  0
  3 21  1  0  0  0  0
  4 14  2  0  0  0  0
  4  5  1  0  0  0  0
  5  6  1  0  0  0  0
  6  7  2  0  0  0  0
  7  8  1  0  0  0  0
  7 14  1  0  0  0  0
  8 13  1  0  0  0  0
  8  9  1  0  0  0  0
  8 22  1  0  0  0  0
  9 10  1  0  0  0  0
  9 23  1  0  0  0  0
  9 24  1  0  0  0  0
 10 11  1  0  0  0  0
 10 25  1  0  0  0  0
 10 30  1  0  0  0  0
 11 12  1  0  0  0  0
 11 26  1  0  0  0  0
 11 27  1  0  0  0  0
 12 13  1  0  0  0  0
 12 28  1  0  0  0  0
 12 29  1  0  0  0  0
M  CHG  1   5  -1
M  CHG  1  10   1
M  END
> <s_m_source_file>
AV-unprocessed.smi

> <i_m_source_file_index>
3019

> <i_lp_mmshare_version>
43012

> <i_f3d_flags>
0

> <s_epik_input>
W0NIM11bQ0hdKFtDSDNdKWMxbltuSF1jKG4xKVtDQEBIXTJbQ0gyXVtOSF1bQ0gyXVtDSDJdTzI=

> <s_epik_cmdline>
J2VwaWtfcHl0aG9uJywgJy1waCcsICc3LjAnLCAnLXRuJywgJzgnLCAnLW1hJywgJzIwMCcsICctbWV0YWxfYmluZGluZycsICctaW1hZScsICc8aW5maWxlLm1hZT4nLCAnLW9tYWUnLCAnPG91dGZpbGUubWFlPic=

> <r_lp_tautomer_probability>
0.948284

> <r_epik_Ionization_Penalty>
5.01189

> <r_epik_Ionization_Penalty_Charging>
5.01189

> <r_epik_Ionization_Penalty_Neutral>
1.51292e-13

> <r_epik_State_Penalty>
2.75157

> <r_epik_Charging_Adjusted_Penalty>
7.76346

> <i_epik_Tot_Q>
0

> <i_epik_Tot_abs_Q>
2

> <r_epik_Metal_State_Penalty>
0.54282

> <b_epik_Metal_Only>
1

> <s_lp_Force_Field>
OPLS_2005

> <r_lp_Energy>
3.4393

> <b_lp_Chiralities_Consistent>
1

> <s_lp_Variant>
AV-unprocessed.smi:3019-10

> <Gold.Version>
5.8.1

> <Gold.Id.Protein>
6NUR|6NUR_protein|mol2

> <Gold.PLP.Fitness>
41.2054

> <Gold.PLP.PLP>
-26.6509

> <Gold.PLP.part.hbond>
-2.9149

> <Gold.PLP.part.metal>
0.0000

> <Gold.PLP.part.buried>
-3.8678

> <Gold.PLP.part.nonpolar>
-20.7060

> <Gold.PLP.part.repulsive>
0.2134

> <Gold.PLP.ligand.clash>
0.0000

> <Gold.PLP.ligand.torsion>
0.2456

> <Gold.PLP.Chemscore.Hbond>
4.9913

> <Gold.PLP.Chemscore.CHOScore>
0.0000

> <Gold.PLP.Chemscore.Metal>
0.0000

> <Gold.Chemscore.Hbonds>
donor molecule, donor type, donor heavy atom, donor atom, acceptor molecule, acceptor atom, score
      L1  H    10    25       P1  7957  1.00
      L1  H    10    30       P1  7948  2.00
      P1  H  7997  8010       L1     5  1.67

> <Gold.PLP.Chemscore.Internal.Correction>
0.0720

> <Gold.Rescore>
     Score         DG    S(hbond)    S(metal)    S(lipo)     H(rot)  DE(clash)    DE(int)     intcor
     17.08     -17.44       2.51        0.00      58.35       1.26       0.02       0.34       ----

> <Gold.Chemscore.Fitness>
17.0833

> <Gold.Chemscore.DG>
-17.4426

> <Gold.Chemscore.ZeroCoef>
-5.4800

> <Gold.Chemscore.Hbond>
2.5051

> <Gold.Chemscore.Metal>
0.0000

> <Gold.Chemscore.Lipo>
58.3549

> <Gold.Chemscore.Internal_Hbond>
0.0000

> <Gold.Chemscore.DEClash>
0.0234

> <Gold.Chemscore.DEInternal>
0.3359

> <Gold.Chemscore.Rot>
1.2625

> <Gold.Chemscore.Internal.Correction>
   9.000000E+99

> <Gold.Chemscore.Hbonds>
donor molecule, donor type, donor heavy atom, donor atom, acceptor molecule, acceptor atom, score
      L1  H    10    25       P1  7957  0.95
      L1  H    10    30       P1  7948  0.98
      P1  H  7997  8010       L1     5  0.17

> <Gold.Chemscore.Hbond.Weighted>
-8.3671

> <Gold.Chemscore.Metal.Weighted>
-0.0000

> <Gold.Chemscore.Lipo.Weighted>
-6.8275

> <Gold.Chemscore.Internal_Hbond.Weighted>
0.0000

> <Gold.Chemscore.DEClash.Weighted>
0.0234

> <Gold.Chemscore.DEInternal.Weighted>
0.3359

> <Gold.Chemscore.Rot.Weighted>
3.2320

> <Gold.Chemscore.Internal.Correction.Weighted>
   9.000000E+99

> <Gold.Protein.RotatedTorsions>
[ 6907 6896 6895 6894 ] final   11.87 input  -60.11 | X-H torsion
[ 7974 7965 7964 7962 ] final -156.56 input  175.53 | X-H torsion
[ 8008 7997 7996 7995 ] final   44.57 input   59.86 | X-H torsion
[ 10167 10162 10161 10158 ] final   46.37 input  -65.29 | X-H torsion
[ 10718 10713 10712 10709 ] final -156.03 input   66.30 | X-H torsion
[ 10763 10752 10751 10750 ] final  161.47 input  -60.55 | X-H torsion
[ 11005 11000 10999 10996 ] final   34.42 input  -57.11 | X-H torsion

> <Gold.Protein.ActiveResidues>
 VAL166  LYS551  ARG553  GLY616  TRP617  ASP618  TYR619  PRO620  LYS621  CYS622 
 ASP623  PHE694  ASN695  SER759  ASP760  ASP761  ALA762  ILE779  LEU786  VAL792 
 PHE793  MET794  SER795  GLU796  ALA797  LYS798  CYS799  TRP800  GLU811  SER814 

> <Gold.Protein.RotatedAtoms>
  151.7613  135.0809  160.0345 H   0  0  0  0  0  0  0  0  0  0  0  0  # atno 6907 bound_to 6896
  152.3351  133.5998  159.5845 H   0  0  0  0  0  0  0  0  0  0  0  0  # atno 6908 bound_to 6896
  150.7445  133.9724  159.3592 H   0  0  0  0  0  0  0  0  0  0  0  0  # atno 6909 bound_to 6896
  144.7587  140.4092  143.5992 H   0  0  0  0  0  0  0  0  0  0  0  0  # atno 7974 bound_to 7965
  155.3216  140.3397  155.4241 H   0  0  0  0  0  0  0  0  0  0  0  0  # atno 8008 bound_to 7997
  156.1906  140.1696  156.8136 H   0  0  0  0  0  0  0  0  0  0  0  0  # atno 8009 bound_to 7997
  154.5438  140.0719  156.8538 H   0  0  0  0  0  0  0  0  0  0  0  0  # atno 8010 bound_to 7997
  140.3146  144.2779  150.6193 H   0  0  0  0  0  0  0  0  0  0  0  0  # atno 10167 bound_to 10162
  156.5209  130.8477  151.2682 H   0  0  0  0  0  0  0  0  0  0  0  0  # atno 10718 bound_to 10713
  154.2635  135.2768  155.2768 H   0  0  0  0  0  0  0  0  0  0  0  0  # atno 10763 bound_to 10752
  154.5363  135.5715  153.6805 H   0  0  0  0  0  0  0  0  0  0  0  0  # atno 10764 bound_to 10752
  152.9958  135.6240  154.2786 H   0  0  0  0  0  0  0  0  0  0  0  0  # atno 10765 bound_to 10752
  140.2530  134.3281  155.7883 H   0  0  0  0  0  0  0  0  0  0  0  0  # atno 11005 bound_to 11000
  145.6690  139.1595  143.2765 LP  0  0  0  0  0  0  0  0  0  0  0  0  # atno 17320 bound_to 7965
  146.1627  140.6763  142.9270 LP  0  0  0  0  0  0  0  0  0  0  0  0  # atno 17321 bound_to 7965
  140.5537  143.2202  151.7883 LP  0  0  0  0  0  0  0  0  0  0  0  0  # atno 17342 bound_to 10162
  139.4886  144.4442  151.9730 LP  0  0  0  0  0  0  0  0  0  0  0  0  # atno 17343 bound_to 10162
  157.7437  130.9917  150.2612 LP  0  0  0  0  0  0  0  0  0  0  0  0  # atno 17370 bound_to 10713
  156.3150  130.3777  149.7627 LP  0  0  0  0  0  0  0  0  0  0  0  0  # atno 17371 bound_to 10713
  141.2199  133.7365  156.9067 LP  0  0  0  0  0  0  0  0  0  0  0  0  # atno 17394 bound_to 11000
  140.1539  134.9211  157.2628 LP  0  0  0  0  0  0  0  0  0  0  0  0  # atno 17395 bound_to 11000

$$$$
