AV-unprocessed.smi:1261|AV-procd|sdf|5307|dock7
  -GOLD-   22720 4433D 1   1.00000     0.00000
 Structure written by MMmdl.
 50 51  0  0  0  0  0  0  0  0  2 V2000
  145.9849  132.5088  154.6637 C   0  0  0  0  0  0  0  0  0  0  0  0
  145.5392  133.4673  153.5504 C   0  0  2  0  0  0  0  0  0  0  0  0
  145.0801  132.6975  152.2995 C   0  0  0  0  0  0  0  0  0  0  0  0
  144.6811  133.6645  151.1709 C   0  0  2  0  0  0  0  0  0  0  0  0
  144.2499  132.9032  149.9095 C   0  0  0  0  0  0  0  0  0  0  0  0
  145.8419  134.6364  150.8715 C   0  0  0  0  0  0  0  0  0  0  0  0
  146.2747  135.3837  152.0814 N   0  3  1  0  0  0  0  0  0  0  0  0
  145.3403  136.4740  152.4715 C   0  0  0  0  0  0  0  0  0  0  0  0
  146.0735  137.7033  153.0337 C   0  0  0  0  0  0  0  0  0  0  0  0
  146.5139  138.6764  151.9278 C   0  0  0  0  0  0  0  0  0  0  0  0
  147.4736  139.6535  152.4264 N   0  0  0  0  0  0  0  0  0  0  0  0
  147.4068  140.2684  153.6199 C   0  0  0  0  0  0  0  0  0  0  0  0
  146.5019  140.0548  154.4259 O   0  0  0  0  0  0  0  0  0  0  0  0
  148.5135  141.2723  153.9892 C   0  0  0  0  0  0  0  0  0  0  0  0
  149.3416  140.8910  155.1448 N   0  0  0  0  0  0  0  0  0  0  0  0
  150.6092  140.4410  154.8074 N   0  0  0  0  0  0  0  0  0  0  0  0
  151.4311  140.0746  155.7319 C   0  0  0  0  0  0  0  0  0  0  0  0
  152.6767  139.6374  155.3539 O   0  0  0  0  0  0  0  0  0  0  0  0
  151.0561  140.1220  157.1280 C   0  0  0  0  0  0  0  0  0  0  0  0
  149.8201  140.5641  157.4472 C   0  0  0  0  0  0  0  0  0  0  0  0
  148.8645  140.9913  156.4238 C   0  0  0  0  0  0  0  0  0  0  0  0
  147.7382  141.4112  156.6867 O   0  0  0  0  0  0  0  0  0  0  0  0
  146.6621  134.4633  153.1857 C   0  0  0  0  0  0  0  0  0  0  0  0
  152.6209  139.4930  154.4220 H   0  0  0  0  0  0  0  0  0  0  0  0
  146.8400  131.9079  154.3523 H   0  0  0  0  0  0  0  0  0  0  0  0
  145.1810  131.8256  154.9392 H   0  0  0  0  0  0  0  0  0  0  0  0
  146.2724  133.0564  155.5617 H   0  0  0  0  0  0  0  0  0  0  0  0
  144.6864  134.0263  153.9358 H   0  0  0  0  0  0  0  0  0  0  0  0
  145.8820  132.0422  151.9558 H   0  0  0  0  0  0  0  0  0  0  0  0
  144.2380  132.0510  152.5499 H   0  0  0  0  0  0  0  0  0  0  0  0
  143.8212  134.2451  151.5077 H   0  0  0  0  0  0  0  0  0  0  0  0
  145.0641  132.2947  149.5143 H   0  0  0  0  0  0  0  0  0  0  0  0
  143.9366  133.5910  149.1235 H   0  0  0  0  0  0  0  0  0  0  0  0
  143.4102  132.2399  150.1190 H   0  0  0  0  0  0  0  0  0  0  0  0
  146.6984  134.0764  150.4930 H   0  0  0  0  0  0  0  0  0  0  0  0
  145.5664  135.3343  150.0796 H   0  0  0  0  0  0  0  0  0  0  0  0
  144.7846  136.7932  151.5888 H   0  0  0  0  0  0  0  0  0  0  0  0
  144.5967  136.1139  153.1819 H   0  0  0  0  0  0  0  0  0  0  0  0
  145.4320  138.2342  153.7362 H   0  0  0  0  0  0  0  0  0  0  0  0
  146.9482  137.3782  153.5986 H   0  0  0  0  0  0  0  0  0  0  0  0
  146.9864  138.1267  151.1135 H   0  0  0  0  0  0  0  0  0  0  0  0
  145.6501  139.1867  151.4983 H   0  0  0  0  0  0  0  0  0  0  0  0
  148.2472  139.8858  151.8199 H   0  0  0  0  0  0  0  0  0  0  0  0
  149.1408  141.4362  153.1116 H   0  0  0  0  0  0  0  0  0  0  0  0
  148.0379  142.2355  154.1819 H   0  0  0  0  0  0  0  0  0  0  0  0
  151.7538  139.8094  157.8911 H   0  0  0  0  0  0  0  0  0  0  0  0
  149.5265  140.6046  158.4859 H   0  0  0  0  0  0  0  0  0  0  0  0
  146.9739  135.0251  154.0651 H   0  0  0  0  0  0  0  0  0  0  0  0
  147.5442  133.9084  152.8626 H   0  0  0  0  0  0  0  0  0  0  0  0
  147.1219  135.8602  151.8072 H   0  0  0  0  0  0  0  0  0  0  0  0
  1  2  1  0  0  0  0
  1 25  1  0  0  0  0
  1 26  1  0  0  0  0
  1 27  1  0  0  0  0
  2 23  1  0  0  0  0
  2  3  1  0  0  0  0
  2 28  1  0  0  0  0
  3  4  1  0  0  0  0
  3 29  1  0  0  0  0
  3 30  1  0  0  0  0
  4  5  1  0  0  0  0
  4  6  1  0  0  0  0
  4 31  1  0  0  0  0
  5 32  1  0  0  0  0
  5 33  1  0  0  0  0
  5 34  1  0  0  0  0
  6  7  1  0  0  0  0
  6 35  1  0  0  0  0
  6 36  1  0  0  0  0
  7  8  1  0  0  0  0
  7 23  1  0  0  0  0
  7 50  1  0  0  0  0
  8  9  1  0  0  0  0
  8 37  1  0  0  0  0
  8 38  1  0  0  0  0
  9 10  1  0  0  0  0
  9 39  1  0  0  0  0
  9 40  1  0  0  0  0
 10 11  1  0  0  0  0
 10 41  1  0  0  0  0
 10 42  1  0  0  0  0
 11 12  1  0  0  0  0
 11 43  1  0  0  0  0
 12 13  2  0  0  0  0
 12 14  1  0  0  0  0
 14 44  1  0  0  0  0
 14 45  1  0  0  0  0
 14 15  1  0  0  0  0
 15 16  1  0  0  0  0
 15 21  1  0  0  0  0
 16 17  2  0  0  0  0
 17 18  1  0  0  0  0
 17 19  1  0  0  0  0
 18 24  1  0  0  0  0
 19 46  1  0  0  0  0
 19 20  2  0  0  0  0
 20 47  1  0  0  0  0
 20 21  1  0  0  0  0
 21 22  2  0  0  0  0
 23 48  1  0  0  0  0
 23 49  1  0  0  0  0
M  CHG  1   7   1
M  END
> <s_m_source_file>
AV-unprocessed.smi

> <i_m_source_file_index>
1261

> <i_lp_mmshare_version>
43012

> <i_f3d_flags>
0

> <s_epik_input>
W0NIM11bQ0BASF0xW0NIMl1bQ0BASF0oW0NIM10pW0NIMl1OKFtDSDJdMSlbQ0gyXVtDSDJdW0NIMl1bTkhdQyg9TylbQ0gyXW4yW25IXWMoPU8pW2NIXVtjSF1jMj1P

> <s_epik_cmdline>
J2VwaWtfcHl0aG9uJywgJy1waCcsICc3LjAnLCAnLXRuJywgJzgnLCAnLW1hJywgJzIwMCcsICctbWV0YWxfYmluZGluZycsICctaW1hZScsICc8aW5maWxlLm1hZT4nLCAnLW9tYWUnLCAnPG91dGZpbGUubWFlPic=

> <r_lp_tautomer_probability>
0.9996

> <r_epik_Ionization_Penalty>
2.1425

> <r_epik_Ionization_Penalty_Charging>
0.000312112

> <r_epik_Ionization_Penalty_Neutral>
2.14218

> <r_epik_State_Penalty>
1.71978

> <r_epik_Charging_Adjusted_Penalty>
1.72009

> <i_epik_Tot_Q>
1

> <i_epik_Tot_abs_Q>
1

> <r_epik_Metal_State_Penalty>
1.71978

> <b_epik_Metal_Only>
0

> <s_lp_Force_Field>
OPLS_2005

> <r_lp_Energy>
29.2022

> <b_lp_Chiralities_Consistent>
1

> <s_lp_Variant>
AV-unprocessed.smi:1261-7

> <Gold.Version>
5.8.1

> <Gold.Id.Protein>
6NUR|6NUR_protein|mol2

> <Gold.PLP.Fitness>
50.9791

> <Gold.PLP.PLP>
-37.7261

> <Gold.PLP.part.hbond>
-4.8938

> <Gold.PLP.part.metal>
0.0000

> <Gold.PLP.part.buried>
-3.7331

> <Gold.PLP.part.nonpolar>
-28.6349

> <Gold.PLP.part.repulsive>
0.3702

> <Gold.PLP.ligand.clash>
0.0000

> <Gold.PLP.ligand.torsion>
0.9319

> <Gold.PLP.Chemscore.Hbond>
5.0000

> <Gold.PLP.Chemscore.CHOScore>
0.0000

> <Gold.PLP.Chemscore.Metal>
0.0000

> <Gold.Chemscore.Hbonds>
donor molecule, donor type, donor heavy atom, donor atom, acceptor molecule, acceptor atom, score
      L1  H     7    50       P1  7948  2.00
      L1  H    11    43       P1  7957  0.91
      P1  H  7989  7998       L1    16  1.00
      P1  H  7997  8008       L1    18  1.00

> <Gold.PLP.Chemscore.Internal.Correction>
0.1169

> <Gold.Rescore>
     Score         DG    S(hbond)    S(metal)    S(lipo)     H(rot)  DE(clash)    DE(int)     intcor
     13.67     -17.39       3.73        0.00      63.99       3.14       0.01       3.71       ----

> <Gold.Chemscore.Fitness>
13.6711

> <Gold.Chemscore.DG>
-17.3873

> <Gold.Chemscore.ZeroCoef>
-5.4800

> <Gold.Chemscore.Hbond>
3.7266

> <Gold.Chemscore.Metal>
0.0000

> <Gold.Chemscore.Lipo>
63.9884

> <Gold.Chemscore.Internal_Hbond>
0.0000

> <Gold.Chemscore.DEClash>
0.0088

> <Gold.Chemscore.DEInternal>
3.7074

> <Gold.Chemscore.Rot>
3.1352

> <Gold.Chemscore.Internal.Correction>
   9.000000E+99

> <Gold.Chemscore.Hbonds>
donor molecule, donor type, donor heavy atom, donor atom, acceptor molecule, acceptor atom, score
      L1  H     7    50       P1  7948  0.99
      L1  H    11    43       P1  7957  0.87
      P1  H  7989  7998       L1    16  0.44
      P1  H  7997  8008       L1    18  0.96

> <Gold.Chemscore.Hbond.Weighted>
-12.4467

> <Gold.Chemscore.Metal.Weighted>
-0.0000

> <Gold.Chemscore.Lipo.Weighted>
-7.4866

> <Gold.Chemscore.Internal_Hbond.Weighted>
0.0000

> <Gold.Chemscore.DEClash.Weighted>
0.0088

> <Gold.Chemscore.DEInternal.Weighted>
3.7074

> <Gold.Chemscore.Rot.Weighted>
8.0260

> <Gold.Chemscore.Internal.Correction.Weighted>
   9.000000E+99

> <Gold.Protein.RotatedTorsions>
[ 6907 6896 6895 6894 ] final  -84.21 input  -60.11 | X-H torsion
[ 7974 7965 7964 7962 ] final  -24.93 input  175.53 | X-H torsion
[ 8008 7997 7996 7995 ] final  -29.66 input   59.86 | X-H torsion
[ 10167 10162 10161 10158 ] final  -28.53 input  -65.29 | X-H torsion
[ 10718 10713 10712 10709 ] final  168.82 input   66.30 | X-H torsion
[ 10763 10752 10751 10750 ] final  -96.72 input  -60.55 | X-H torsion
[ 11005 11000 10999 10996 ] final   74.50 input  -57.11 | X-H torsion

> <Gold.Protein.ActiveResidues>
 VAL166  LYS551  ARG553  GLY616  TRP617  ASP618  TYR619  PRO620  LYS621  CYS622 
 ASP623  PHE694  ASN695  SER759  ASP760  ASP761  ALA762  ILE779  LEU786  VAL792 
 PHE793  MET794  SER795  GLU796  ALA797  LYS798  CYS799  TRP800  GLU811  SER814 

> <Gold.Protein.RotatedAtoms>
  150.6878  134.3394  159.4861 H   0  0  0  0  0  0  0  0  0  0  0  0  # atno 6907 bound_to 6896
  152.1249  134.9175  160.0570 H   0  0  0  0  0  0  0  0  0  0  0  0  # atno 6908 bound_to 6896
  152.0367  133.3925  159.4357 H   0  0  0  0  0  0  0  0  0  0  0  0  # atno 6909 bound_to 6896
  146.1523  140.4818  142.8606 H   0  0  0  0  0  0  0  0  0  0  0  0  # atno 7974 bound_to 7965
  154.4281  140.1812  156.1283 H   0  0  0  0  0  0  0  0  0  0  0  0  # atno 8008 bound_to 7997
  156.0088  140.3352  155.6894 H   0  0  0  0  0  0  0  0  0  0  0  0  # atno 8009 bound_to 7997
  155.6140  140.0653  157.2688 H   0  0  0  0  0  0  0  0  0  0  0  0  # atno 8010 bound_to 7997
  140.7269  143.4002  151.1277 H   0  0  0  0  0  0  0  0  0  0  0  0  # atno 10167 bound_to 10162
  157.0316  131.0261  151.2743 H   0  0  0  0  0  0  0  0  0  0  0  0  # atno 10718 bound_to 10713
  154.7265  135.5073  153.8894 H   0  0  0  0  0  0  0  0  0  0  0  0  # atno 10763 bound_to 10752
  153.0909  135.6659  153.9864 H   0  0  0  0  0  0  0  0  0  0  0  0  # atno 10764 bound_to 10752
  153.9675  135.3041  155.3409 H   0  0  0  0  0  0  0  0  0  0  0  0  # atno 10765 bound_to 10752
  139.9388  134.7438  156.1156 H   0  0  0  0  0  0  0  0  0  0  0  0  # atno 11005 bound_to 11000
  144.7920  140.6049  143.6535 LP  0  0  0  0  0  0  0  0  0  0  0  0  # atno 17320 bound_to 7965
  145.4793  139.1497  143.3771 LP  0  0  0  0  0  0  0  0  0  0  0  0  # atno 17321 bound_to 7965
  139.7621  143.8620  152.3102 LP  0  0  0  0  0  0  0  0  0  0  0  0  # atno 17342 bound_to 10162
  139.8509  144.7165  150.9215 LP  0  0  0  0  0  0  0  0  0  0  0  0  # atno 17343 bound_to 10162
  157.5173  130.7976  149.7770 LP  0  0  0  0  0  0  0  0  0  0  0  0  # atno 17370 bound_to 10713
  156.0068  130.3852  150.2404 LP  0  0  0  0  0  0  0  0  0  0  0  0  # atno 17371 bound_to 10713
  141.1014  133.6676  156.2762 LP  0  0  0  0  0  0  0  0  0  0  0  0  # atno 17394 bound_to 11000
  140.6006  134.5559  157.5516 LP  0  0  0  0  0  0  0  0  0  0  0  0  # atno 17395 bound_to 11000

$$$$
