AV-unprocessed.smi:306|AV-procd|sdf|2283|dock2
  -GOLD-   2262022183D 1   1.00000     0.00000
 Structure written by MMmdl.
 46 48  0  0  0  0  0  0  0  0  2 V2000
  151.0467  145.5911  159.9178 C   0  0  0  0  0  0  0  0  0  0  0  0
  152.1978  145.0325  160.7623 C   0  0  0  0  0  0  0  0  0  0  0  0
  152.5063  143.6035  160.4163 C   0  0  0  0  0  0  0  0  0  0  0  0
  153.1983  142.6383  161.2003 C   0  0  0  0  0  0  0  0  0  0  0  0
  153.2129  141.5164  160.4200 C   0  0  0  0  0  0  0  0  0  0  0  0
  153.7913  140.1630  160.6902 C   0  0  0  0  0  0  0  0  0  0  0  0
  155.0062  139.8370  159.8144 C   0  0  0  0  0  0  0  0  0  0  0  0
  152.5592  141.8407  159.2447 N   0  0  0  0  0  0  0  0  0  0  0  0
  152.3238  141.0266  158.1193 C   0  0  0  0  0  0  0  0  0  0  0  0
  153.0203  139.9236  157.8433 N   0  0  0  0  0  0  0  0  0  0  0  0
  152.4313  139.4850  156.6657 C   0  0  0  0  0  0  0  0  0  0  0  0
  151.4218  140.3117  156.2768 C   0  0  0  0  0  0  0  0  0  0  0  0
  150.6011  140.0959  155.0646 C   0  0  0  0  0  0  0  0  0  0  0  0
  149.6917  140.8668  154.7656 O   0  0  0  0  0  0  0  0  0  0  0  0
  150.9870  138.9772  154.3727 N   0  5  0  0  0  0  0  0  0  0  0  0
  152.0049  138.1170  154.7249 C   0  0  0  0  0  0  0  0  0  0  0  0
  152.2899  137.1330  154.0410 O   0  0  0  0  0  0  0  0  0  0  0  0
  152.7304  138.3498  155.8639 N   0  0  0  0  0  0  0  0  0  0  0  0
  153.8171  137.4508  156.2632 C   0  0  0  0  0  0  0  0  0  0  0  0
  151.3473  141.3319  157.2298 N   0  0  0  0  0  0  0  0  0  0  0  0
  150.4323  142.4693  157.2863 C   0  0  0  0  0  0  0  0  0  0  0  0
  149.4693  142.3814  158.4794 C   0  0  0  0  0  0  0  0  0  0  0  0
  148.6949  141.1967  158.3964 O   0  0  0  0  0  0  0  0  0  0  0  0
  147.6360  141.3021  157.4624 C   0  0  0  0  0  0  0  0  0  0  0  0
  152.1192  143.1158  159.2491 N   0  0  0  0  0  0  0  0  0  0  0  0
  150.8421  146.6296  160.1784 H   0  0  0  0  0  0  0  0  0  0  0  0
  150.1300  145.0218  160.0742 H   0  0  0  0  0  0  0  0  0  0  0  0
  151.2861  145.5550  158.8547 H   0  0  0  0  0  0  0  0  0  0  0  0
  153.0853  145.6485  160.6145 H   0  0  0  0  0  0  0  0  0  0  0  0
  151.9468  145.1149  161.8203 H   0  0  0  0  0  0  0  0  0  0  0  0
  153.6218  142.7532  162.1869 H   0  0  0  0  0  0  0  0  0  0  0  0
  154.0716  140.0842  161.7410 H   0  0  0  0  0  0  0  0  0  0  0  0
  153.0231  139.4060  160.5298 H   0  0  0  0  0  0  0  0  0  0  0  0
  155.3870  138.8397  160.0349 H   0  0  0  0  0  0  0  0  0  0  0  0
  155.8178  140.5455  159.9805 H   0  0  0  0  0  0  0  0  0  0  0  0
  154.7462  139.8685  158.7560 H   0  0  0  0  0  0  0  0  0  0  0  0
  153.4496  136.4296  156.3740 H   0  0  0  0  0  0  0  0  0  0  0  0
  154.2718  137.7347  157.2120 H   0  0  0  0  0  0  0  0  0  0  0  0
  154.6054  137.4496  155.5094 H   0  0  0  0  0  0  0  0  0  0  0  0
  151.0114  143.3902  157.3499 H   0  0  0  0  0  0  0  0  0  0  0  0
  149.8807  142.5437  156.3514 H   0  0  0  0  0  0  0  0  0  0  0  0
  150.0330  142.3897  159.4132 H   0  0  0  0  0  0  0  0  0  0  0  0
  148.8156  143.2545  158.4890 H   0  0  0  0  0  0  0  0  0  0  0  0
  147.0784  140.3659  157.4350 H   0  0  0  0  0  0  0  0  0  0  0  0
  148.0132  141.4993  156.4582 H   0  0  0  0  0  0  0  0  0  0  0  0
  146.9443  142.0983  157.7403 H   0  0  0  0  0  0  0  0  0  0  0  0
  1  2  1  0  0  0  0
  1 26  1  0  0  0  0
  1 27  1  0  0  0  0
  1 28  1  0  0  0  0
  2  3  1  0  0  0  0
  2 29  1  0  0  0  0
  2 30  1  0  0  0  0
  3 25  2  0  0  0  0
  3  4  1  0  0  0  0
  4  5  2  0  0  0  0
  4 31  1  0  0  0  0
  5  6  1  0  0  0  0
  5  8  1  0  0  0  0
  6  7  1  0  0  0  0
  6 32  1  0  0  0  0
  6 33  1  0  0  0  0
  7 34  1  0  0  0  0
  7 35  1  0  0  0  0
  7 36  1  0  0  0  0
  8  9  1  0  0  0  0
  8 25  1  0  0  0  0
  9 20  1  0  0  0  0
  9 10  2  0  0  0  0
 10 11  1  0  0  0  0
 11 18  1  0  0  0  0
 11 12  2  0  0  0  0
 12 13  1  0  0  0  0
 12 20  1  0  0  0  0
 13 14  2  0  0  0  0
 13 15  1  0  0  0  0
 15 16  1  0  0  0  0
 16 17  2  0  0  0  0
 16 18  1  0  0  0  0
 18 19  1  0  0  0  0
 19 37  1  0  0  0  0
 19 38  1  0  0  0  0
 19 39  1  0  0  0  0
 20 21  1  0  0  0  0
 21 22  1  0  0  0  0
 21 40  1  0  0  0  0
 21 41  1  0  0  0  0
 22 23  1  0  0  0  0
 22 42  1  0  0  0  0
 22 43  1  0  0  0  0
 23 24  1  0  0  0  0
 24 44  1  0  0  0  0
 24 45  1  0  0  0  0
 24 46  1  0  0  0  0
M  CHG  1  15  -1
M  END
> <s_m_source_file>
AV-unprocessed.smi

> <i_m_source_file_index>
306

> <i_lp_mmshare_version>
43012

> <i_f3d_flags>
0

> <s_epik_input>
W0NIM11bQ0gyXWMxW2NIXWMoW0NIMl1bQ0gzXSluKG4xKS1jKG4yKW4oW0NIMl1bQ0gyXU9bQ0gzXSljKGMyMyljKD1PKVtuSF1jKD1PKW4zW0NIM10=

> <s_epik_cmdline>
J2VwaWtfcHl0aG9uJywgJy1waCcsICc3LjAnLCAnLXRuJywgJzgnLCAnLW1hJywgJzIwMCcsICctbWV0YWxfYmluZGluZycsICctaW1hZScsICc8aW5maWxlLm1hZT4nLCAnLW9tYWUnLCAnPG91dGZpbGUubWFlPic=

> <r_lp_tautomer_probability>
1

> <r_epik_Ionization_Penalty>
3.98741

> <r_epik_Ionization_Penalty_Charging>
0.0180637

> <r_epik_Ionization_Penalty_Neutral>
3.96934

> <r_epik_State_Penalty>
3.96767

> <r_epik_Charging_Adjusted_Penalty>
3.98573

> <i_epik_Tot_Q>
-1

> <i_epik_Tot_abs_Q>
1

> <r_epik_Metal_State_Penalty>
0.612217

> <b_epik_Metal_Only>
1

> <s_lp_Force_Field>
OPLS_2005

> <r_lp_Energy>
26.8748

> <b_lp_Chiralities_Consistent>
1

> <s_lp_Variant>
AV-unprocessed.smi:306-2

> <Gold.Version>
5.8.1

> <Gold.Id.Protein>
6NUR|6NUR_protein|mol2

> <Gold.PLP.Fitness>
45.8777

> <Gold.PLP.PLP>
-43.7513

> <Gold.PLP.part.hbond>
-4.2112

> <Gold.PLP.part.metal>
0.0000

> <Gold.PLP.part.buried>
0.8438

> <Gold.PLP.part.nonpolar>
-41.9825

> <Gold.PLP.part.repulsive>
2.1632

> <Gold.PLP.ligand.clash>
2.9498

> <Gold.PLP.ligand.torsion>
0.6554

> <Gold.PLP.Chemscore.Hbond>
1.7808

> <Gold.PLP.Chemscore.CHOScore>
0.0000

> <Gold.PLP.Chemscore.Metal>
0.0000

> <Gold.Chemscore.Hbonds>
donor molecule, donor type, donor heavy atom, donor atom, acceptor molecule, acceptor atom, score
      P1  H  7997  8008       L1    10  0.63
      P1  H 10752 10765       L1    17  0.88

> <Gold.PLP.Chemscore.Internal.Correction>
1.0446

> <Gold.Rescore>
     Score         DG    S(hbond)    S(metal)    S(lipo)     H(rot)  DE(clash)    DE(int)     intcor
      8.61     -14.23       0.73        0.00      93.62       1.81       0.53       5.08       ----

> <Gold.Chemscore.Fitness>
8.6114

> <Gold.Chemscore.DG>
-14.2257

> <Gold.Chemscore.ZeroCoef>
-5.4800

> <Gold.Chemscore.Hbond>
0.7289

> <Gold.Chemscore.Metal>
0.0000

> <Gold.Chemscore.Lipo>
93.6230

> <Gold.Chemscore.Internal_Hbond>
0.0000

> <Gold.Chemscore.DEClash>
0.5337

> <Gold.Chemscore.DEInternal>
5.0806

> <Gold.Chemscore.Rot>
1.8136

> <Gold.Chemscore.Internal.Correction>
   9.000000E+99

> <Gold.Chemscore.Hbonds>
donor molecule, donor type, donor heavy atom, donor atom, acceptor molecule, acceptor atom, score
      P1  H  7997  8008       L1    10  0.05
      P1  H 10752 10765       L1    17  0.85

> <Gold.Chemscore.Hbond.Weighted>
-2.4346

> <Gold.Chemscore.Metal.Weighted>
-0.0000

> <Gold.Chemscore.Lipo.Weighted>
-10.9539

> <Gold.Chemscore.Internal_Hbond.Weighted>
0.0000

> <Gold.Chemscore.DEClash.Weighted>
0.5337

> <Gold.Chemscore.DEInternal.Weighted>
5.0806

> <Gold.Chemscore.Rot.Weighted>
4.6427

> <Gold.Chemscore.Internal.Correction.Weighted>
   9.000000E+99

> <Gold.Protein.RotatedTorsions>
[ 6907 6896 6895 6894 ] final  -10.98 input  -60.11 | X-H torsion
[ 7974 7965 7964 7962 ] final -118.64 input  175.53 | X-H torsion
[ 8008 7997 7996 7995 ] final  -91.48 input   59.86 | X-H torsion
[ 10167 10162 10161 10158 ] final -173.69 input  -65.29 | X-H torsion
[ 10718 10713 10712 10709 ] final  -41.98 input   66.30 | X-H torsion
[ 10763 10752 10751 10750 ] final  141.82 input  -60.55 | X-H torsion
[ 11005 11000 10999 10996 ] final   93.17 input  -57.11 | X-H torsion

> <Gold.Protein.ActiveResidues>
 VAL166  LYS551  ARG553  GLY616  TRP617  ASP618  TYR619  PRO620  LYS621  CYS622 
 ASP623  PHE694  ASN695  SER759  ASP760  ASP761  ALA762  ILE779  LEU786  VAL792 
 PHE793  MET794  SER795  GLU796  ALA797  LYS798  CYS799  TRP800  GLU811  SER814 

> <Gold.Protein.RotatedAtoms>
  151.3934  135.0959  159.9533 H   0  0  0  0  0  0  0  0  0  0  0  0  # atno 6907 bound_to 6896
  152.5073  133.8957  159.7426 H   0  0  0  0  0  0  0  0  0  0  0  0  # atno 6908 bound_to 6896
  150.9416  133.6594  159.2818 H   0  0  0  0  0  0  0  0  0  0  0  0  # atno 6909 bound_to 6896
  145.0715  140.8362  143.4092 H   0  0  0  0  0  0  0  0  0  0  0  0  # atno 7974 bound_to 7965
  154.7112  140.0519  157.0552 H   0  0  0  0  0  0  0  0  0  0  0  0  # atno 8008 bound_to 7997
  155.0552  140.3183  155.4660 H   0  0  0  0  0  0  0  0  0  0  0  0  # atno 8009 bound_to 7997
  156.2790  140.2108  156.5678 H   0  0  0  0  0  0  0  0  0  0  0  0  # atno 8010 bound_to 7997
  139.5674  144.1722  152.1333 H   0  0  0  0  0  0  0  0  0  0  0  0  # atno 10167 bound_to 10162
  156.2645  130.4200  149.8506 H   0  0  0  0  0  0  0  0  0  0  0  0  # atno 10718 bound_to 10713
  153.9456  135.2975  155.3441 H   0  0  0  0  0  0  0  0  0  0  0  0  # atno 10763 bound_to 10752
  154.7454  135.5005  153.9197 H   0  0  0  0  0  0  0  0  0  0  0  0  # atno 10764 bound_to 10752
  153.1020  135.6737  153.9763 H   0  0  0  0  0  0  0  0  0  0  0  0  # atno 10765 bound_to 10752
  139.8813  134.8775  156.3679 H   0  0  0  0  0  0  0  0  0  0  0  0  # atno 11005 bound_to 11000
  145.1286  139.2646  143.5551 LP  0  0  0  0  0  0  0  0  0  0  0  0  # atno 17320 bound_to 7965
  146.3529  140.0931  142.8611 LP  0  0  0  0  0  0  0  0  0  0  0  0  # atno 17321 bound_to 7965
  140.1248  144.5341  150.6840 LP  0  0  0  0  0  0  0  0  0  0  0  0  # atno 17342 bound_to 10162
  140.6958  143.2403  151.5004 LP  0  0  0  0  0  0  0  0  0  0  0  0  # atno 17343 bound_to 10162
  156.6009  130.8546  151.3431 LP  0  0  0  0  0  0  0  0  0  0  0  0  # atno 17370 bound_to 10713
  157.7262  130.9626  150.1647 LP  0  0  0  0  0  0  0  0  0  0  0  0  # atno 17371 bound_to 10713
  140.9484  133.7467  156.0239 LP  0  0  0  0  0  0  0  0  0  0  0  0  # atno 17394 bound_to 11000
  140.8135  134.3372  157.5404 LP  0  0  0  0  0  0  0  0  0  0  0  0  # atno 17395 bound_to 11000

$$$$
