AV-unprocessed.smi:649|AV-procd|sdf|3180|dock1
  -GOLD-   22720 0103D 1   1.00000     0.00000
 Structure written by MMmdl.
 34 35  0  0  0  0  0  0  0  0  2 V2000
  151.5960  144.7528  158.9788 C   0  0  0  0  0  0  0  0  0  0  0  0
  152.1946  143.4666  159.5090 C   0  0  0  0  0  0  0  0  0  0  0  0
  152.7801  143.4273  160.7871 C   0  0  0  0  0  0  0  0  0  0  0  0
  153.3485  142.2318  161.2616 C   0  0  0  0  0  0  0  0  0  0  0  0
  153.3442  141.0632  160.4693 C   0  0  0  0  0  0  0  0  0  0  0  0
  153.9954  139.8149  161.0422 C   0  0  0  0  0  0  0  0  0  0  0  0
  152.7482  141.0950  159.1769 C   0  0  0  0  0  0  0  0  0  0  0  0
  152.7134  139.8919  158.2283 C   0  0  2  0  0  0  0  0  0  0  0  0
  153.9821  139.3183  157.9894 O   0  0  0  0  0  0  0  0  0  0  0  0
  152.0011  140.1594  156.8805 C   0  0  0  0  0  0  0  0  0  0  0  0
  151.6234  138.9186  156.1848 N   0  0  0  0  0  0  0  0  0  0  0  0
  150.3168  138.4461  156.3927 C   0  0  0  0  0  0  0  0  0  0  0  0
  149.8489  137.3404  155.7825 C   0  0  0  0  0  0  0  0  0  0  0  0
  148.2336  136.7904  156.0518 Cl  0  0  0  0  0  0  0  0  0  0  0  0
  150.7481  136.6222  154.8821 C   0  0  0  0  0  0  0  0  0  0  0  0
  150.3522  135.6097  154.3064 O   0  0  0  0  0  0  0  0  0  0  0  0
  152.0097  137.1173  154.7186 N   0  5  0  0  0  0  0  0  0  0  0  0
  152.4666  138.2454  155.3449 C   0  0  0  0  0  0  0  0  0  0  0  0
  153.6073  138.6742  155.1711 O   0  0  0  0  0  0  0  0  0  0  0  0
  152.1793  142.3043  158.7154 C   0  0  0  0  0  0  0  0  0  0  0  0
  151.3808  145.4506  159.7886 H   0  0  0  0  0  0  0  0  0  0  0  0
  150.6649  144.5527  158.4478 H   0  0  0  0  0  0  0  0  0  0  0  0
  152.2903  145.2314  158.2879 H   0  0  0  0  0  0  0  0  0  0  0  0
  152.8018  144.3127  161.4053 H   0  0  0  0  0  0  0  0  0  0  0  0
  153.7994  142.2198  162.2430 H   0  0  0  0  0  0  0  0  0  0  0  0
  153.2406  139.0733  161.3024 H   0  0  0  0  0  0  0  0  0  0  0  0
  154.5566  140.0445  161.9481 H   0  0  0  0  0  0  0  0  0  0  0  0
  154.6953  139.3724  160.3365 H   0  0  0  0  0  0  0  0  0  0  0  0
  152.1518  139.1055  158.7344 H   0  0  0  0  0  0  0  0  0  0  0  0
  153.8966  138.3785  158.0361 H   0  0  0  0  0  0  0  0  0  0  0  0
  151.1335  140.8014  157.0277 H   0  0  0  0  0  0  0  0  0  0  0  0
  152.6589  140.7414  156.2331 H   0  0  0  0  0  0  0  0  0  0  0  0
  149.7214  139.0416  157.0694 H   0  0  0  0  0  0  0  0  0  0  0  0
  151.7381  142.3485  157.7303 H   0  0  0  0  0  0  0  0  0  0  0  0
  1  2  1  0  0  0  0
  1 21  1  0  0  0  0
  1 22  1  0  0  0  0
  1 23  1  0  0  0  0
  2 20  1  0  0  0  0
  2  3  2  0  0  0  0
  3  4  1  0  0  0  0
  3 24  1  0  0  0  0
  4  5  2  0  0  0  0
  4 25  1  0  0  0  0
  5  6  1  0  0  0  0
  5  7  1  0  0  0  0
  6 26  1  0  0  0  0
  6 27  1  0  0  0  0
  6 28  1  0  0  0  0
  7  8  1  0  0  0  0
  7 20  2  0  0  0  0
  8  9  1  0  0  0  0
  8 10  1  0  0  0  0
  8 29  1  0  0  0  0
  9 30  1  0  0  0  0
 10 11  1  0  0  0  0
 10 31  1  0  0  0  0
 10 32  1  0  0  0  0
 11 18  1  0  0  0  0
 11 12  1  0  0  0  0
 12 13  2  0  0  0  0
 12 33  1  0  0  0  0
 13 14  1  0  0  0  0
 13 15  1  0  0  0  0
 15 16  2  0  0  0  0
 15 17  1  0  0  0  0
 17 18  1  0  0  0  0
 18 19  2  0  0  0  0
 20 34  1  0  0  0  0
M  CHG  1  17  -1
M  END
> <s_m_source_file>
AV-unprocessed.smi

> <i_m_source_file_index>
649

> <i_lp_mmshare_version>
43012

> <i_f3d_flags>
0

> <s_epik_input>
W0NIM11jMVtjSF1bY0hdYyhbQ0gzXSljKFtjSF0xKVtDQEhdKFtPSF0pW0NIMl1uMltjSF1jKENsKWMoPU8pW25IXWMyPU8=

> <s_epik_cmdline>
J2VwaWtfcHl0aG9uJywgJy1waCcsICc3LjAnLCAnLXRuJywgJzgnLCAnLW1hJywgJzIwMCcsICctbWV0YWxfYmluZGluZycsICctaW1hZScsICc8aW5maWxlLm1hZT4nLCAnLW9tYWUnLCAnPG91dGZpbGUubWFlPic=

> <r_epik_Ionization_Penalty>
1.7979

> <r_epik_Ionization_Penalty_Charging>
3.23819e-08

> <r_epik_Ionization_Penalty_Neutral>
1.7979

> <r_epik_State_Penalty>
1.91135

> <r_epik_Charging_Adjusted_Penalty>
1.91135

> <i_epik_Tot_Q>
-1

> <i_epik_Tot_abs_Q>
1

> <r_epik_Metal_State_Penalty>
0.014155

> <b_epik_Metal_Only>
0

> <s_lp_Force_Field>
OPLS_2005

> <r_lp_Energy>
21.5696

> <b_lp_Chiralities_Consistent>
1

> <s_lp_Variant>
AV-unprocessed.smi:649-3

> <Gold.Version>
5.8.1

> <Gold.Id.Protein>
6NUR|6NUR_protein|mol2

> <Gold.PLP.Fitness>
46.7007

> <Gold.PLP.PLP>
-36.9893

> <Gold.PLP.part.hbond>
-2.5809

> <Gold.PLP.part.metal>
0.0000

> <Gold.PLP.part.buried>
-4.9650

> <Gold.PLP.part.nonpolar>
-29.2236

> <Gold.PLP.part.repulsive>
0.2895

> <Gold.PLP.ligand.clash>
0.0000

> <Gold.PLP.ligand.torsion>
0.4871

> <Gold.PLP.Chemscore.Hbond>
3.5360

> <Gold.PLP.Chemscore.CHOScore>
0.0000

> <Gold.PLP.Chemscore.Metal>
0.0000

> <Gold.Chemscore.Hbonds>
donor molecule, donor type, donor heavy atom, donor atom, acceptor molecule, acceptor atom, score
      P1  H  7997  8008       L1    19  0.82
      P1  H  7997  8010       L1     9  0.66
      P1  H 10752 10763       L1    17  1.89

> <Gold.PLP.Chemscore.Internal.Correction>
0.0777

> <Gold.Rescore>
     Score         DG    S(hbond)    S(metal)    S(lipo)     H(rot)  DE(clash)    DE(int)     intcor
     18.32     -20.03       2.23        0.00     106.23       2.09       0.07       1.63       ----

> <Gold.Chemscore.Fitness>
18.3230

> <Gold.Chemscore.DG>
-20.0259

> <Gold.Chemscore.ZeroCoef>
-5.4800

> <Gold.Chemscore.Hbond>
2.2335

> <Gold.Chemscore.Metal>
0.0000

> <Gold.Chemscore.Lipo>
106.2250

> <Gold.Chemscore.Internal_Hbond>
0.0000

> <Gold.Chemscore.DEClash>
0.0750

> <Gold.Chemscore.DEInternal>
1.6278

> <Gold.Chemscore.Rot>
2.0868

> <Gold.Chemscore.Internal.Correction>
   9.000000E+99

> <Gold.Chemscore.Hbonds>
donor molecule, donor type, donor heavy atom, donor atom, acceptor molecule, acceptor atom, score
      P1  H  7997  8008       L1    19  0.81
      P1  H  7997  8010       L1     9  0.63
      P1  H 10752 10763       L1    17  0.32

> <Gold.Chemscore.Hbond.Weighted>
-7.4598

> <Gold.Chemscore.Metal.Weighted>
-0.0000

> <Gold.Chemscore.Lipo.Weighted>
-12.4283

> <Gold.Chemscore.Internal_Hbond.Weighted>
0.0000

> <Gold.Chemscore.DEClash.Weighted>
0.0750

> <Gold.Chemscore.DEInternal.Weighted>
1.6278

> <Gold.Chemscore.Rot.Weighted>
5.3423

> <Gold.Chemscore.Internal.Correction.Weighted>
   9.000000E+99

> <Gold.Protein.RotatedTorsions>
[ 6907 6896 6895 6894 ] final   54.78 input  -60.11 | X-H torsion
[ 7974 7965 7964 7962 ] final -145.64 input  175.53 | X-H torsion
[ 8008 7997 7996 7995 ] final   -3.42 input   59.86 | X-H torsion
[ 10167 10162 10161 10158 ] final -161.30 input  -65.29 | X-H torsion
[ 10718 10713 10712 10709 ] final   10.76 input   66.30 | X-H torsion
[ 10763 10752 10751 10750 ] final   51.02 input  -60.55 | X-H torsion
[ 11005 11000 10999 10996 ] final  156.72 input  -57.11 | X-H torsion

> <Gold.Protein.ActiveResidues>
 VAL166  LYS551  ARG553  GLY616  TRP617  ASP618  TYR619  PRO620  LYS621  CYS622 
 ASP623  PHE694  ASN695  SER759  ASP760  ASP761  ALA762  ILE779  LEU786  VAL792 
 PHE793  MET794  SER795  GLU796  ALA797  LYS798  CYS799  TRP800  GLU811  SER814 

> <Gold.Protein.RotatedAtoms>
  152.3473  134.7053  160.0246 H   0  0  0  0  0  0  0  0  0  0  0  0  # atno 6907 bound_to 6896
  151.7419  133.3317  159.3376 H   0  0  0  0  0  0  0  0  0  0  0  0  # atno 6908 bound_to 6896
  150.7517  134.6203  159.6177 H   0  0  0  0  0  0  0  0  0  0  0  0  # atno 6909 bound_to 6896
  144.8213  140.5557  143.5576 H   0  0  0  0  0  0  0  0  0  0  0  0  # atno 7974 bound_to 7965
  154.6251  140.2509  155.7502 H   0  0  0  0  0  0  0  0  0  0  0  0  # atno 8008 bound_to 7997
  156.2448  140.2918  156.0496 H   0  0  0  0  0  0  0  0  0  0  0  0  # atno 8009 bound_to 7997
  155.1835  140.0389  157.2877 H   0  0  0  0  0  0  0  0  0  0  0  0  # atno 8010 bound_to 7997
  139.6475  144.0145  152.2138 H   0  0  0  0  0  0  0  0  0  0  0  0  # atno 10167 bound_to 10162
  156.9857  130.6023  149.5681 H   0  0  0  0  0  0  0  0  0  0  0  0  # atno 10718 bound_to 10713
  152.9785  135.5859  154.4347 H   0  0  0  0  0  0  0  0  0  0  0  0  # atno 10763 bound_to 10752
  154.3956  135.2768  155.2130 H   0  0  0  0  0  0  0  0  0  0  0  0  # atno 10764 bound_to 10752
  154.3983  135.6109  153.5937 H   0  0  0  0  0  0  0  0  0  0  0  0  # atno 10765 bound_to 10752
  140.1702  134.8549  157.2680 H   0  0  0  0  0  0  0  0  0  0  0  0  # atno 11005 bound_to 11000
  145.5099  139.1480  143.3611 LP  0  0  0  0  0  0  0  0  0  0  0  0  # atno 17320 bound_to 7965
  146.2518  140.5239  142.8890 LP  0  0  0  0  0  0  0  0  0  0  0  0  # atno 17321 bound_to 7965
  139.9851  144.6401  150.7865 LP  0  0  0  0  0  0  0  0  0  0  0  0  # atno 17342 bound_to 10162
  140.7522  143.2985  151.3141 LP  0  0  0  0  0  0  0  0  0  0  0  0  # atno 17343 bound_to 10162
  156.0227  130.5321  150.8320 LP  0  0  0  0  0  0  0  0  0  0  0  0  # atno 17370 bound_to 10713
  157.5494  131.0943  150.9716 LP  0  0  0  0  0  0  0  0  0  0  0  0  # atno 17371 bound_to 10713
  140.2387  134.3822  155.7490 LP  0  0  0  0  0  0  0  0  0  0  0  0  # atno 17394 bound_to 11000
  141.2217  133.7253  156.8754 LP  0  0  0  0  0  0  0  0  0  0  0  0  # atno 17395 bound_to 11000

$$$$
