AV-unprocessed.smi:652|AV-procd|sdf|3196|dock2
  -GOLD-   22720 0123D 1   1.00000     0.00000
 Structure written by MMmdl.
 47 48  0  0  0  0  0  0  0  0  1 V2000
  147.1227  135.6570  162.8287 C   0  0  0  0  0  0  0  0  0  0  0  0
  146.6850  134.8912  161.5701 C   0  0  0  0  0  0  0  0  0  0  0  0
  146.6983  133.3735  161.7956 C   0  0  0  0  0  0  0  0  0  0  0  0
  147.5550  135.2225  160.4459 N   0  0  0  0  0  0  0  0  0  0  0  0
  147.7397  136.4523  159.9410 C   0  0  0  0  0  0  0  0  0  0  0  0
  147.1672  137.4548  160.3686 O   0  0  0  0  0  0  0  0  0  0  0  0
  148.7260  136.5690  158.7746 C   0  0  0  0  0  0  0  0  0  0  0  0
  148.0768  137.1036  157.4805 C   0  0  0  0  0  0  0  0  0  0  0  0
  148.7383  138.2551  156.8625 N   0  0  0  0  0  0  0  0  0  0  0  0
  148.3414  138.4505  155.4709 C   0  0  0  0  0  0  0  0  0  0  0  0
  149.0287  139.6772  154.8500 C   0  0  0  0  0  0  0  0  0  0  0  0
  148.7418  140.8276  155.6366 O   0  0  0  0  0  0  0  0  0  0  0  0
  149.1733  140.7036  156.9899 C   0  0  1  0  0  0  0  0  0  0  0  0
  148.8282  141.9959  157.7493 C   0  0  0  0  0  0  0  0  0  0  0  0
  149.8299  143.0384  157.5559 N   0  0  0  0  0  0  0  0  0  0  0  0
  150.5274  143.5847  158.6432 C   0  0  0  0  0  0  0  0  0  0  0  0
  151.5386  144.5338  158.3927 C   0  0  0  0  0  0  0  0  0  0  0  0
  152.2259  145.0638  159.4983 C   0  0  0  0  0  0  0  0  0  0  0  0
  151.8507  144.6021  160.7730 C   0  0  0  0  0  0  0  0  0  0  0  0
  150.8747  143.6850  160.9568 N   0  0  0  0  0  0  0  0  0  0  0  0
  150.2227  143.1813  159.9027 N   0  0  0  0  0  0  0  0  0  0  0  0
  148.4715  139.4790  157.6098 C   0  0  0  0  0  0  0  0  0  0  0  0
  146.4814  135.4148  163.6765 H   0  0  0  0  0  0  0  0  0  0  0  0
  147.0684  136.7353  162.6751 H   0  0  0  0  0  0  0  0  0  0  0  0
  148.1484  135.4123  163.1064 H   0  0  0  0  0  0  0  0  0  0  0  0
  145.6613  135.1807  161.3255 H   0  0  0  0  0  0  0  0  0  0  0  0
  146.0352  133.0941  162.6147 H   0  0  0  0  0  0  0  0  0  0  0  0
  147.6990  133.0160  162.0409 H   0  0  0  0  0  0  0  0  0  0  0  0
  146.3625  132.8410  160.9050 H   0  0  0  0  0  0  0  0  0  0  0  0
  148.0692  134.4598  160.0297 H   0  0  0  0  0  0  0  0  0  0  0  0
  149.5721  137.1946  159.0609 H   0  0  0  0  0  0  0  0  0  0  0  0
  149.1401  135.5784  158.5850 H   0  0  0  0  0  0  0  0  0  0  0  0
  148.0069  136.2910  156.7561 H   0  0  0  0  0  0  0  0  0  0  0  0
  147.0462  137.3743  157.7150 H   0  0  0  0  0  0  0  0  0  0  0  0
  148.5929  137.5712  154.8783 H   0  0  0  0  0  0  0  0  0  0  0  0
  147.2590  138.5731  155.4080 H   0  0  0  0  0  0  0  0  0  0  0  0
  150.1078  139.5276  154.7890 H   0  0  0  0  0  0  0  0  0  0  0  0
  148.6693  139.8411  153.8342 H   0  0  0  0  0  0  0  0  0  0  0  0
  150.2538  140.5481  157.0136 H   0  0  0  0  0  0  0  0  0  0  0  0
  147.8291  142.3468  157.4879 H   0  0  0  0  0  0  0  0  0  0  0  0
  148.7997  141.7828  158.8181 H   0  0  0  0  0  0  0  0  0  0  0  0
  149.8006  143.5626  156.6937 H   0  0  0  0  0  0  0  0  0  0  0  0
  151.7797  144.8478  157.3877 H   0  0  0  0  0  0  0  0  0  0  0  0
  153.0099  145.7961  159.3750 H   0  0  0  0  0  0  0  0  0  0  0  0
  152.3425  144.9717  161.6606 H   0  0  0  0  0  0  0  0  0  0  0  0
  147.3958  139.6588  157.6509 H   0  0  0  0  0  0  0  0  0  0  0  0
  148.8060  139.3582  158.6408 H   0  0  0  0  0  0  0  0  0  0  0  0
  1  2  1  0  0  0  0
  1 23  1  0  0  0  0
  1 24  1  0  0  0  0
  1 25  1  0  0  0  0
  2  3  1  0  0  0  0
  2  4  1  0  0  0  0
  2 26  1  0  0  0  0
  3 27  1  0  0  0  0
  3 28  1  0  0  0  0
  3 29  1  0  0  0  0
  4  5  1  0  0  0  0
  4 30  1  0  0  0  0
  5  6  2  0  0  0  0
  5  7  1  0  0  0  0
  7  8  1  0  0  0  0
  7 31  1  0  0  0  0
  7 32  1  0  0  0  0
  8  9  1  0  0  0  0
  8 33  1  0  0  0  0
  8 34  1  0  0  0  0
  9 22  1  0  0  0  0
  9 10  1  0  0  0  0
 10 11  1  0  0  0  0
 10 35  1  0  0  0  0
 10 36  1  0  0  0  0
 11 12  1  0  0  0  0
 11 37  1  0  0  0  0
 11 38  1  0  0  0  0
 12 13  1  0  0  0  0
 13 14  1  0  0  0  0
 13 22  1  0  0  0  0
 13 39  1  0  0  0  0
 14 15  1  0  0  0  0
 14 40  1  0  0  0  0
 14 41  1  0  0  0  0
 15 16  1  0  0  0  0
 15 42  1  0  0  0  0
 16 21  1  0  0  0  0
 16 17  2  0  0  0  0
 17 18  1  0  0  0  0
 17 43  1  0  0  0  0
 18 19  2  0  0  0  0
 18 44  1  0  0  0  0
 19 20  1  0  0  0  0
 19 45  1  0  0  0  0
 20 21  2  0  0  0  0
 22 46  1  0  0  0  0
 22 47  1  0  0  0  0
M  END
> <s_m_source_file>
AV-unprocessed.smi

> <i_m_source_file_index>
652

> <i_lp_mmshare_version>
43012

> <i_f3d_flags>
0

> <s_epik_input>
W0NIM11bQ0hdKFtDSDNdKVtOSF1DKD1PKVtDSDJdW0NIMl1OMVtDSDJdW0NIMl1PW0NASF0oW0NIMl0xKVtDSDJdW05IXWMyW2NIXVtjSF1bY0hdbm4y

> <s_epik_cmdline>
J2VwaWtfcHl0aG9uJywgJy1waCcsICc3LjAnLCAnLXRuJywgJzgnLCAnLW1hJywgJzIwMCcsICctbWV0YWxfYmluZGluZycsICctaW1hZScsICc8aW5maWxlLm1hZT4nLCAnLW9tYWUnLCAnPG91dGZpbGUubWFlPic=

> <r_lp_tautomer_probability>
0.999978

> <r_epik_Ionization_Penalty>
0.428793

> <r_epik_Ionization_Penalty_Charging>
0

> <r_epik_Ionization_Penalty_Neutral>
0.428793

> <r_epik_State_Penalty>
0.437051

> <r_epik_Charging_Adjusted_Penalty>
0.437051

> <i_epik_Tot_Q>
0

> <i_epik_Tot_abs_Q>
0

> <r_epik_Metal_State_Penalty>
0.432371

> <b_epik_Metal_Only>
0

> <s_lp_Force_Field>
OPLS_2005

> <r_lp_Energy>
21.7245

> <b_lp_Chiralities_Consistent>
1

> <s_lp_Variant>
AV-unprocessed.smi:652-5

> <Gold.Version>
5.8.1

> <Gold.Id.Protein>
6NUR|6NUR_protein|mol2

> <Gold.PLP.Fitness>
45.5781

> <Gold.PLP.PLP>
-39.6012

> <Gold.PLP.part.hbond>
-4.6987

> <Gold.PLP.part.metal>
0.0000

> <Gold.PLP.part.buried>
-6.2457

> <Gold.PLP.part.nonpolar>
-29.0631

> <Gold.PLP.part.repulsive>
0.4207

> <Gold.PLP.ligand.clash>
0.0000

> <Gold.PLP.ligand.torsion>
0.7350

> <Gold.PLP.Chemscore.Hbond>
2.4243

> <Gold.PLP.Chemscore.CHOScore>
0.0000

> <Gold.PLP.Chemscore.Metal>
0.0000

> <Gold.Chemscore.Hbonds>
donor molecule, donor type, donor heavy atom, donor atom, acceptor molecule, acceptor atom, score
      L1  H    15    42       P1  8028  0.93
      P1  H  6934  6947       L1     6  1.00

> <Gold.PLP.Chemscore.Internal.Correction>
0.1740

> <Gold.Rescore>
     Score         DG    S(hbond)    S(metal)    S(lipo)     H(rot)  DE(clash)    DE(int)     intcor
     15.59     -16.42       1.97        0.00      85.48       2.20       0.00       0.83       ----

> <Gold.Chemscore.Fitness>
15.5895

> <Gold.Chemscore.DG>
-16.4210

> <Gold.Chemscore.ZeroCoef>
-5.4800

> <Gold.Chemscore.Hbond>
1.9687

> <Gold.Chemscore.Metal>
0.0000

> <Gold.Chemscore.Lipo>
85.4787

> <Gold.Chemscore.Internal_Hbond>
0.0000

> <Gold.Chemscore.DEClash>
0.0009

> <Gold.Chemscore.DEInternal>
0.8305

> <Gold.Chemscore.Rot>
2.2013

> <Gold.Chemscore.Internal.Correction>
   9.000000E+99

> <Gold.Chemscore.Hbonds>
donor molecule, donor type, donor heavy atom, donor atom, acceptor molecule, acceptor atom, score
      L1  H    15    42       P1  8028  0.91
      P1  H  6934  6947       L1     6  0.99

> <Gold.Chemscore.Hbond.Weighted>
-6.5754

> <Gold.Chemscore.Metal.Weighted>
-0.0000

> <Gold.Chemscore.Lipo.Weighted>
-10.0010

> <Gold.Chemscore.Internal_Hbond.Weighted>
0.0000

> <Gold.Chemscore.DEClash.Weighted>
0.0009

> <Gold.Chemscore.DEInternal.Weighted>
0.8305

> <Gold.Chemscore.Rot.Weighted>
5.6354

> <Gold.Chemscore.Internal.Correction.Weighted>
   9.000000E+99

> <Gold.Protein.RotatedTorsions>
[ 6907 6896 6895 6894 ] final  -70.76 input  -60.11 | X-H torsion
[ 7974 7965 7964 7962 ] final  129.88 input  175.53 | X-H torsion
[ 8008 7997 7996 7995 ] final    2.04 input   59.86 | X-H torsion
[ 10167 10162 10161 10158 ] final -141.59 input  -65.29 | X-H torsion
[ 10718 10713 10712 10709 ] final  -27.04 input   66.30 | X-H torsion
[ 10763 10752 10751 10750 ] final -171.16 input  -60.55 | X-H torsion
[ 11005 11000 10999 10996 ] final  131.34 input  -57.11 | X-H torsion

> <Gold.Protein.ActiveResidues>
 VAL166  LYS551  ARG553  GLY616  TRP617  ASP618  TYR619  PRO620  LYS621  CYS622 
 ASP623  PHE694  ASN695  SER759  ASP760  ASP761  ALA762  ILE779  LEU786  VAL792 
 PHE793  MET794  SER795  GLU796  ALA797  LYS798  CYS799  TRP800  GLU811  SER814 

> <Gold.Protein.RotatedAtoms>
  150.7243  134.5407  159.5745 H   0  0  0  0  0  0  0  0  0  0  0  0  # atno 6907 bound_to 6896
  152.2918  134.7710  160.0385 H   0  0  0  0  0  0  0  0  0  0  0  0  # atno 6908 bound_to 6896
  151.8321  133.3374  159.3653 H   0  0  0  0  0  0  0  0  0  0  0  0  # atno 6909 bound_to 6896
  145.0239  139.4106  143.5183 H   0  0  0  0  0  0  0  0  0  0  0  0  # atno 7974 bound_to 7965
  154.6869  140.2645  155.6852 H   0  0  0  0  0  0  0  0  0  0  0  0  # atno 8008 bound_to 7997
  156.2718  140.2799  156.1356 H   0  0  0  0  0  0  0  0  0  0  0  0  # atno 8009 bound_to 7997
  155.0952  140.0374  157.2670 H   0  0  0  0  0  0  0  0  0  0  0  0  # atno 8010 bound_to 7997
  139.8170  143.7626  152.2665 H   0  0  0  0  0  0  0  0  0  0  0  0  # atno 10167 bound_to 10162
  156.4434  130.4469  149.7038 H   0  0  0  0  0  0  0  0  0  0  0  0  # atno 10718 bound_to 10713
  154.6335  135.2889  155.0188 H   0  0  0  0  0  0  0  0  0  0  0  0  # atno 10763 bound_to 10752
  154.1340  135.6529  153.4932 H   0  0  0  0  0  0  0  0  0  0  0  0  # atno 10764 bound_to 10752
  153.0291  135.5317  154.7173 H   0  0  0  0  0  0  0  0  0  0  0  0  # atno 10765 bound_to 10752
  139.9724  134.9573  156.9424 H   0  0  0  0  0  0  0  0  0  0  0  0  # atno 11005 bound_to 11000
  146.3489  139.9752  142.8702 LP  0  0  0  0  0  0  0  0  0  0  0  0  # atno 17320 bound_to 7965
  145.1859  140.9789  143.4239 LP  0  0  0  0  0  0  0  0  0  0  0  0  # atno 17321 bound_to 7965
  139.7792  144.7450  151.0113 LP  0  0  0  0  0  0  0  0  0  0  0  0  # atno 17342 bound_to 10162
  140.7815  143.4560  151.0344 LP  0  0  0  0  0  0  0  0  0  0  0  0  # atno 17343 bound_to 10162
  156.3893  130.7619  151.2619 LP  0  0  0  0  0  0  0  0  0  0  0  0  # atno 17370 bound_to 10713
  157.7505  131.0272  150.3997 LP  0  0  0  0  0  0  0  0  0  0  0  0  # atno 17371 bound_to 10713
  140.5265  134.0856  155.7305 LP  0  0  0  0  0  0  0  0  0  0  0  0  # atno 17394 bound_to 11000
  141.1403  133.9149  157.2340 LP  0  0  0  0  0  0  0  0  0  0  0  0  # atno 17395 bound_to 11000

$$$$
