AV-unprocessed.smi:3314|AV-procd|sdf|12734|dock1
  -GOLD-   2272019 83D 1   1.00000     0.00000
 Structure written by MMmdl.
 38 39  0  0  0  0  0  0  0  0  2 V2000
  151.9121  145.8353  159.9136 C   0  0  0  0  0  0  0  0  0  0  0  0
  151.9865  144.4243  159.3689 C   0  0  0  0  0  0  0  0  0  0  0  0
  152.8524  143.4733  159.9419 C   0  0  0  0  0  0  0  0  0  0  0  0
  152.8773  142.1782  159.3888 C   0  0  0  0  0  0  0  0  0  0  0  0
  153.7830  141.1067  159.9587 C   0  0  0  0  0  0  0  0  0  0  0  0
  152.1099  141.8099  158.3405 N   0  0  0  0  0  0  0  0  0  0  0  0
  151.2730  142.7177  157.7802 C   0  0  0  0  0  0  0  0  0  0  0  0
  150.4274  142.4320  156.6761 N   0  0  0  0  0  0  0  0  0  0  0  0
  150.5169  141.4176  155.7938 C   0  0  0  0  0  0  0  0  0  0  0  0
  151.4049  140.5642  155.8061 O   0  0  0  0  0  0  0  0  0  0  0  0
  149.4364  141.3759  154.7018 C   0  0  1  0  0  0  0  0  0  0  0  0
  148.9120  139.9442  154.4396 C   0  0  0  0  0  0  0  0  0  0  0  0
  147.8233  139.9612  153.4358 N   0  3  1  0  0  0  0  0  0  0  0  0
  147.3126  138.6086  153.1267 C   0  0  0  0  0  0  0  0  0  0  0  0
  146.7499  140.8987  153.8346 C   0  0  0  0  0  0  0  0  0  0  0  0
  147.3356  142.2943  154.1004 C   0  0  0  0  0  0  0  0  0  0  0  0
  148.3436  142.2036  155.0993 O   0  0  0  0  0  0  0  0  0  0  0  0
  151.1882  144.0390  158.2731 C   0  0  0  0  0  0  0  0  0  0  0  0
  152.4471  145.9228  160.8597 H   0  0  0  0  0  0  0  0  0  0  0  0
  150.8741  146.1229  160.0827 H   0  0  0  0  0  0  0  0  0  0  0  0
  152.3528  146.5365  159.2046 H   0  0  0  0  0  0  0  0  0  0  0  0
  153.4807  143.7290  160.7828 H   0  0  0  0  0  0  0  0  0  0  0  0
  154.5624  141.5433  160.5838 H   0  0  0  0  0  0  0  0  0  0  0  0
  154.2668  140.5454  159.1585 H   0  0  0  0  0  0  0  0  0  0  0  0
  153.2053  140.4102  160.5666 H   0  0  0  0  0  0  0  0  0  0  0  0
  149.6536  143.0675  156.5470 H   0  0  0  0  0  0  0  0  0  0  0  0
  149.8790  141.7802  153.7898 H   0  0  0  0  0  0  0  0  0  0  0  0
  149.7187  139.3064  154.0749 H   0  0  0  0  0  0  0  0  0  0  0  0
  148.5440  139.4989  155.3660 H   0  0  0  0  0  0  0  0  0  0  0  0
  146.8631  138.1484  154.0076 H   0  0  0  0  0  0  0  0  0  0  0  0
  148.1196  137.9636  152.7779 H   0  0  0  0  0  0  0  0  0  0  0  0
  146.5581  138.6529  152.3408 H   0  0  0  0  0  0  0  0  0  0  0  0
  145.9977  140.9548  153.0468 H   0  0  0  0  0  0  0  0  0  0  0  0
  146.2506  140.5262  154.7306 H   0  0  0  0  0  0  0  0  0  0  0  0
  147.7479  142.7266  153.1872 H   0  0  0  0  0  0  0  0  0  0  0  0
  146.5538  142.9698  154.4482 H   0  0  0  0  0  0  0  0  0  0  0  0
  150.5175  144.7534  157.8176 H   0  0  0  0  0  0  0  0  0  0  0  0
  148.2223  140.3227  152.5812 H   0  0  0  0  0  0  0  0  0  0  0  0
  1  2  1  0  0  0  0
  1 19  1  0  0  0  0
  1 20  1  0  0  0  0
  1 21  1  0  0  0  0
  2 18  1  0  0  0  0
  2  3  2  0  0  0  0
  3  4  1  0  0  0  0
  3 22  1  0  0  0  0
  4  5  1  0  0  0  0
  4  6  2  0  0  0  0
  5 23  1  0  0  0  0
  5 24  1  0  0  0  0
  5 25  1  0  0  0  0
  6  7  1  0  0  0  0
  7  8  1  0  0  0  0
  7 18  2  0  0  0  0
  8  9  1  0  0  0  0
  8 26  1  0  0  0  0
  9 10  2  0  0  0  0
  9 11  1  0  0  0  0
 11 17  1  0  0  0  0
 11 12  1  0  0  0  0
 11 27  1  0  0  0  0
 12 13  1  0  0  0  0
 12 28  1  0  0  0  0
 12 29  1  0  0  0  0
 13 14  1  0  0  0  0
 13 15  1  0  0  0  0
 13 38  1  0  0  0  0
 14 30  1  0  0  0  0
 14 31  1  0  0  0  0
 14 32  1  0  0  0  0
 15 16  1  0  0  0  0
 15 33  1  0  0  0  0
 15 34  1  0  0  0  0
 16 17  1  0  0  0  0
 16 35  1  0  0  0  0
 16 36  1  0  0  0  0
 18 37  1  0  0  0  0
M  CHG  1  13   1
M  END
> <s_m_source_file>
AV-unprocessed.smi

> <i_m_source_file_index>
3314

> <i_lp_mmshare_version>
43012

> <i_f3d_flags>
0

> <s_epik_input>
W0NIM11jMVtjSF1jKFtDSDNdKW5jKFtjSF0xKVtOSF1DKD1PKVtDQEBIXTJbQ0gyXU4oW0NIM10pW0NIMl1bQ0gyXU8y

> <s_epik_cmdline>
J2VwaWtfcHl0aG9uJywgJy1waCcsICc3LjAnLCAnLXRuJywgJzgnLCAnLW1hJywgJzIwMCcsICctbWV0YWxfYmluZGluZycsICctaW1hZScsICc8aW5maWxlLm1hZT4nLCAnLW9tYWUnLCAnPG91dGZpbGUubWFlPic=

> <r_epik_Ionization_Penalty>
0.32442

> <r_epik_Ionization_Penalty_Charging>
0.314023

> <r_epik_Ionization_Penalty_Neutral>
0.0103972

> <r_epik_State_Penalty>
0.29453

> <r_epik_Charging_Adjusted_Penalty>
0.608553

> <i_epik_Tot_Q>
1

> <i_epik_Tot_abs_Q>
1

> <r_epik_Metal_State_Penalty>
0.286909

> <b_epik_Metal_Only>
0

> <s_lp_Force_Field>
OPLS_2005

> <r_lp_Energy>
16.6998

> <b_lp_Chiralities_Consistent>
1

> <s_lp_Variant>
AV-unprocessed.smi:3314-4

> <Gold.Version>
5.8.1

> <Gold.Id.Protein>
6NUR|6NUR_protein|mol2

> <Gold.PLP.Fitness>
45.9582

> <Gold.PLP.PLP>
-41.0228

> <Gold.PLP.part.hbond>
-2.6292

> <Gold.PLP.part.metal>
0.0000

> <Gold.PLP.part.buried>
-3.7698

> <Gold.PLP.part.nonpolar>
-37.6939

> <Gold.PLP.part.repulsive>
3.4696

> <Gold.PLP.ligand.clash>
0.0000

> <Gold.PLP.ligand.torsion>
0.5294

> <Gold.PLP.Chemscore.Hbond>
1.9969

> <Gold.PLP.Chemscore.CHOScore>
0.0000

> <Gold.PLP.Chemscore.Metal>
0.0000

> <Gold.Chemscore.Hbonds>
donor molecule, donor type, donor heavy atom, donor atom, acceptor molecule, acceptor atom, score
      L1  H     8    26       P1  8028  0.99
      L1  H    13    38       P1  7957  0.93
      P1  H  7989  7998       L1    10  0.08

> <Gold.PLP.Chemscore.Internal.Correction>
0.0034

> <Gold.Rescore>
     Score         DG    S(hbond)    S(metal)    S(lipo)     H(rot)  DE(clash)    DE(int)     intcor
     18.10     -21.46       1.93        0.00     103.33       1.00       1.67       1.70       ----

> <Gold.Chemscore.Fitness>
18.1011

> <Gold.Chemscore.DG>
-21.4628

> <Gold.Chemscore.ZeroCoef>
-5.4800

> <Gold.Chemscore.Hbond>
1.9321

> <Gold.Chemscore.Metal>
0.0000

> <Gold.Chemscore.Lipo>
103.3292

> <Gold.Chemscore.Internal_Hbond>
0.0000

> <Gold.Chemscore.DEClash>
1.6666

> <Gold.Chemscore.DEInternal>
1.6951

> <Gold.Chemscore.Rot>
1.0000

> <Gold.Chemscore.Internal.Correction>
   9.000000E+99

> <Gold.Chemscore.Hbonds>
donor molecule, donor type, donor heavy atom, donor atom, acceptor molecule, acceptor atom, score
      L1  H     8    26       P1  8028  0.87
      L1  H    13    38       P1  7957  0.87

> <Gold.Chemscore.Hbond.Weighted>
-6.4533

> <Gold.Chemscore.Metal.Weighted>
-0.0000

> <Gold.Chemscore.Lipo.Weighted>
-12.0895

> <Gold.Chemscore.Internal_Hbond.Weighted>
0.0000

> <Gold.Chemscore.DEClash.Weighted>
1.6666

> <Gold.Chemscore.DEInternal.Weighted>
1.6951

> <Gold.Chemscore.Rot.Weighted>
2.5600

> <Gold.Chemscore.Internal.Correction.Weighted>
   9.000000E+99

> <Gold.Protein.RotatedTorsions>
[ 6907 6896 6895 6894 ] final  -22.54 input  -60.11 | X-H torsion
[ 7974 7965 7964 7962 ] final  -50.29 input  175.53 | X-H torsion
[ 8008 7997 7996 7995 ] final  -24.29 input   59.86 | X-H torsion
[ 10167 10162 10161 10158 ] final  -73.79 input  -65.29 | X-H torsion
[ 10718 10713 10712 10709 ] final   45.78 input   66.30 | X-H torsion
[ 10763 10752 10751 10750 ] final -107.83 input  -60.55 | X-H torsion
[ 11005 11000 10999 10996 ] final  -62.25 input  -57.11 | X-H torsion

> <Gold.Protein.ActiveResidues>
 VAL166  LYS551  ARG553  GLY616  TRP617  ASP618  TYR619  PRO620  LYS621  CYS622 
 ASP623  PHE694  ASN695  SER759  ASP760  ASP761  ALA762  ILE779  LEU786  VAL792 
 PHE793  MET794  SER795  GLU796  ALA797  LYS798  CYS799  TRP800  GLU811  SER814 

> <Gold.Protein.RotatedAtoms>
  151.2172  135.0504  159.8934 H   0  0  0  0  0  0  0  0  0  0  0  0  # atno 6907 bound_to 6896
  152.5419  134.0680  159.8192 H   0  0  0  0  0  0  0  0  0  0  0  0  # atno 6908 bound_to 6896
  151.0842  133.5318  159.2650 H   0  0  0  0  0  0  0  0  0  0  0  0  # atno 6909 bound_to 6896
  145.9314  140.7746  142.9598 H   0  0  0  0  0  0  0  0  0  0  0  0  # atno 7974 bound_to 7965
  154.4537  140.1957  156.0442 H   0  0  0  0  0  0  0  0  0  0  0  0  # atno 8008 bound_to 7997
  156.0702  140.3285  155.7539 H   0  0  0  0  0  0  0  0  0  0  0  0  # atno 8009 bound_to 7997
  155.5275  140.0575  157.2886 H   0  0  0  0  0  0  0  0  0  0  0  0  # atno 8010 bound_to 7997
  140.5081  143.2349  151.7640 H   0  0  0  0  0  0  0  0  0  0  0  0  # atno 10167 bound_to 10162
  157.4412  130.8082  149.7696 H   0  0  0  0  0  0  0  0  0  0  0  0  # atno 10718 bound_to 10713
  154.8099  135.4660  154.0488 H   0  0  0  0  0  0  0  0  0  0  0  0  # atno 10763 bound_to 10752
  153.1928  135.6857  153.8338 H   0  0  0  0  0  0  0  0  0  0  0  0  # atno 10764 bound_to 10752
  153.7850  135.3251  155.3348 H   0  0  0  0  0  0  0  0  0  0  0  0  # atno 10765 bound_to 10752
  141.1353  133.6638  156.5498 H   0  0  0  0  0  0  0  0  0  0  0  0  # atno 11005 bound_to 11000
  144.6765  140.2133  143.7374 LP  0  0  0  0  0  0  0  0  0  0  0  0  # atno 17320 bound_to 7965
  145.8421  139.2135  143.1821 LP  0  0  0  0  0  0  0  0  0  0  0  0  # atno 17321 bound_to 7965
  139.4889  144.4429  151.9743 LP  0  0  0  0  0  0  0  0  0  0  0  0  # atno 17342 bound_to 10162
  140.3521  144.3076  150.5947 LP  0  0  0  0  0  0  0  0  0  0  0  0  # atno 17343 bound_to 10162
  155.9949  130.3915  150.2839 LP  0  0  0  0  0  0  0  0  0  0  0  0  # atno 17370 bound_to 10713
  157.1004  131.0194  151.3088 LP  0  0  0  0  0  0  0  0  0  0  0  0  # atno 17371 bound_to 10713
  140.4073  134.7304  157.4815 LP  0  0  0  0  0  0  0  0  0  0  0  0  # atno 17394 bound_to 11000
  140.0453  134.6208  155.8929 LP  0  0  0  0  0  0  0  0  0  0  0  0  # atno 17395 bound_to 11000

$$$$
