AV-unprocessed.smi:149|AV-procd|sdf|1241|dock2
  -GOLD-   2262018453D 1   1.00000     0.00000
 Structure written by MMmdl.
 59 63  0  0  0  0  0  0  0  0  1 V2000
  152.1500  126.9168  155.5503 C   0  0  0  0  0  0  0  0  0  0  0  0
  152.4093  128.2839  154.8936 C   0  0  1  0  0  0  0  0  0  0  0  0
  151.0886  128.9524  154.4741 C   0  0  0  0  0  0  0  0  0  0  0  0
  151.0214  130.2267  155.1712 N   0  0  0  0  0  0  0  0  0  0  0  0
  150.1257  131.1673  154.7626 C   0  0  0  0  0  0  0  0  0  0  0  0
  150.3902  132.4708  155.0486 N   0  0  0  0  0  0  0  0  0  0  0  0
  149.5503  133.4379  154.6710 C   0  0  0  0  0  0  0  0  0  0  0  0
  148.4003  133.3293  154.0061 N   0  0  0  0  0  0  0  0  0  0  0  0
  148.1247  132.0282  153.7063 C   0  0  0  0  0  0  0  0  0  0  0  0
  148.9271  130.8958  154.0337 C   0  0  0  0  0  0  0  0  0  0  0  0
  148.3239  129.7454  153.5343 N   0  0  0  0  0  0  0  0  0  0  0  0
  147.2380  130.1706  152.9511 C   0  0  0  0  0  0  0  0  0  0  0  0
  147.0230  131.5261  153.0355 N   0  0  0  0  0  0  0  0  0  0  0  0
  145.9339  132.2587  152.4599 C   0  0  0  0  0  0  0  0  0  0  0  0
  144.8112  131.5418  151.7067 C   0  0  0  0  0  0  0  0  0  0  0  0
  144.6662  132.7624  150.7716 C   0  0  0  0  0  0  0  0  0  0  0  0
  144.4585  132.4239  149.2858 C   0  0  0  0  0  0  0  0  0  0  0  0
  143.1014  132.1456  149.0067 O   0  0  0  0  0  0  0  0  0  0  0  0
  143.6172  133.8036  151.2117 C   0  0  0  0  0  0  0  0  0  0  0  0
  143.8008  135.0362  150.5456 O   0  0  0  0  0  0  0  0  0  0  0  0
  146.1212  133.0819  151.1829 C   0  0  0  0  0  0  0  0  0  0  0  0
  152.3652  130.6029  155.5589 C   0  0  0  0  0  0  0  0  0  0  0  0
  153.1209  129.2933  155.8283 C   0  0  2  0  0  0  0  0  0  0  0  0
  154.5756  129.4298  155.6461 N   0  0  0  0  0  0  0  0  0  0  0  0
  154.9117  129.9254  154.3098 C   0  0  0  0  0  0  0  0  0  0  0  0
  156.4291  130.0750  154.1060 C   0  0  0  0  0  0  0  0  0  0  0  0
  156.9606  130.9397  155.1027 O   0  0  0  0  0  0  0  0  0  0  0  0
  156.7048  130.4693  156.4207 C   0  0  0  0  0  0  0  0  0  0  0  0
  155.1884  130.3177  156.6334 C   0  0  0  0  0  0  0  0  0  0  0  0
  151.5247  127.0190  156.4379 H   0  0  0  0  0  0  0  0  0  0  0  0
  153.0739  126.4276  155.8552 H   0  0  0  0  0  0  0  0  0  0  0  0
  151.6383  126.2447  154.8610 H   0  0  0  0  0  0  0  0  0  0  0  0
  153.0054  128.1380  153.9916 H   0  0  0  0  0  0  0  0  0  0  0  0
  151.0696  129.1088  153.3944 H   0  0  0  0  0  0  0  0  0  0  0  0
  150.2248  128.3407  154.7378 H   0  0  0  0  0  0  0  0  0  0  0  0
  149.8403  134.4422  154.9428 H   0  0  0  0  0  0  0  0  0  0  0  0
  146.5576  129.4994  152.4474 H   0  0  0  0  0  0  0  0  0  0  0  0
  145.5279  132.8767  153.2625 H   0  0  0  0  0  0  0  0  0  0  0  0
  145.1635  130.6476  151.1887 H   0  0  0  0  0  0  0  0  0  0  0  0
  143.9311  131.3200  152.3112 H   0  0  0  0  0  0  0  0  0  0  0  0
  144.7967  133.2321  148.6373 H   0  0  0  0  0  0  0  0  0  0  0  0
  145.0405  131.5454  149.0058 H   0  0  0  0  0  0  0  0  0  0  0  0
  142.6015  132.9391  149.1236 H   0  0  0  0  0  0  0  0  0  0  0  0
  142.6019  133.4522  151.0274 H   0  0  0  0  0  0  0  0  0  0  0  0
  143.6784  133.9946  152.2832 H   0  0  0  0  0  0  0  0  0  0  0  0
  144.4549  134.9190  149.8738 H   0  0  0  0  0  0  0  0  0  0  0  0
  146.3332  134.1373  151.3571 H   0  0  0  0  0  0  0  0  0  0  0  0
  146.8591  132.6438  150.5083 H   0  0  0  0  0  0  0  0  0  0  0  0
  152.8275  131.1647  154.7454 H   0  0  0  0  0  0  0  0  0  0  0  0
  152.3576  131.2251  156.4538 H   0  0  0  0  0  0  0  0  0  0  0  0
  152.9133  129.0016  156.8595 H   0  0  0  0  0  0  0  0  0  0  0  0
  154.5299  129.2491  153.5451 H   0  0  0  0  0  0  0  0  0  0  0  0
  154.4295  130.8895  154.1415 H   0  0  0  0  0  0  0  0  0  0  0  0
  156.9236  129.1036  154.1538 H   0  0  0  0  0  0  0  0  0  0  0  0
  156.6397  130.4941  153.1222 H   0  0  0  0  0  0  0  0  0  0  0  0
  157.2133  129.5172  156.5799 H   0  0  0  0  0  0  0  0  0  0  0  0
  157.1192  131.1776  157.1381 H   0  0  0  0  0  0  0  0  0  0  0  0
  154.7163  131.3006  156.5919 H   0  0  0  0  0  0  0  0  0  0  0  0
  155.0277  129.9311  157.6387 H   0  0  0  0  0  0  0  0  0  0  0  0
  1  2  1  0  0  0  0
  1 30  1  0  0  0  0
  1 31  1  0  0  0  0
  1 32  1  0  0  0  0
  2 23  1  0  0  0  0
  2  3  1  0  0  0  0
  2 33  1  0  0  0  0
  3  4  1  0  0  0  0
  3 34  1  0  0  0  0
  3 35  1  0  0  0  0
  4  5  1  0  0  0  0
  4 22  1  0  0  0  0
  5 10  1  0  0  0  0
  5  6  2  0  0  0  0
  6  7  1  0  0  0  0
  7  8  2  0  0  0  0
  7 36  1  0  0  0  0
  8  9  1  0  0  0  0
  9 13  1  0  0  0  0
  9 10  2  0  0  0  0
 10 11  1  0  0  0  0
 11 12  2  0  0  0  0
 12 13  1  0  0  0  0
 12 37  1  0  0  0  0
 13 14  1  0  0  0  0
 14 21  1  0  0  0  0
 14 15  1  0  0  0  0
 14 38  1  0  0  0  0
 15 16  1  0  0  0  0
 15 39  1  0  0  0  0
 15 40  1  0  0  0  0
 16 17  1  0  0  0  0
 16 19  1  0  0  0  0
 16 21  1  0  0  0  0
 17 18  1  0  0  0  0
 17 41  1  0  0  0  0
 17 42  1  0  0  0  0
 18 43  1  0  0  0  0
 19 20  1  0  0  0  0
 19 44  1  0  0  0  0
 19 45  1  0  0  0  0
 20 46  1  0  0  0  0
 21 47  1  0  0  0  0
 21 48  1  0  0  0  0
 22 23  1  0  0  0  0
 22 49  1  0  0  0  0
 22 50  1  0  0  0  0
 23 24  1  0  0  0  0
 23 51  1  0  0  0  0
 24 29  1  0  0  0  0
 24 25  1  0  0  0  0
 25 26  1  0  0  0  0
 25 52  1  0  0  0  0
 25 53  1  0  0  0  0
 26 27  1  0  0  0  0
 26 54  1  0  0  0  0
 26 55  1  0  0  0  0
 27 28  1  0  0  0  0
 28 29  1  0  0  0  0
 28 56  1  0  0  0  0
 28 57  1  0  0  0  0
 29 58  1  0  0  0  0
 29 59  1  0  0  0  0
M  END
> <s_m_source_file>
AV-unprocessed.smi

> <i_m_source_file_index>
149

> <i_lp_mmshare_version>
43012

> <i_f3d_flags>
0

> <s_epik_input>
W0NIMl0xW0NIMl1PW0NIMl1bQ0gyXU4xW0NAQEhdMltDSDJdTihbQ0gyXVtDQEhdMltDSDNdKWMobltjSF1uMyljKGMzNCluW2NIXW40W0NIXShbQ0gyXTUpW0NIMl1DNShbQ0gyXVtPSF0pW0NIMl1bT0hd

> <s_epik_cmdline>
J2VwaWtfcHl0aG9uJywgJy1waCcsICc3LjAnLCAnLXRuJywgJzgnLCAnLW1hJywgJzIwMCcsICctbWV0YWxfYmluZGluZycsICctaW1hZScsICc8aW5maWxlLm1hZT4nLCAnLW9tYWUnLCAnPG91dGZpbGUubWFlPic=

> <r_lp_tautomer_probability>
1

> <r_epik_Ionization_Penalty>
0.41918

> <r_epik_Ionization_Penalty_Charging>
0

> <r_epik_Ionization_Penalty_Neutral>
0.41918

> <r_epik_State_Penalty>
0.654916

> <r_epik_Charging_Adjusted_Penalty>
0.654916

> <i_epik_Tot_Q>
0

> <i_epik_Tot_abs_Q>
0

> <r_epik_Metal_State_Penalty>
0.653217

> <b_epik_Metal_Only>
0

> <s_lp_Force_Field>
OPLS_2005

> <r_lp_Energy>
73.5543

> <b_lp_Chiralities_Consistent>
1

> <s_lp_Variant>
AV-unprocessed.smi:149-8

> <Gold.Version>
5.8.1

> <Gold.Id.Protein>
6NUR|6NUR_protein|mol2

> <Gold.PLP.Fitness>
48.3711

> <Gold.PLP.PLP>
-44.7798

> <Gold.PLP.part.hbond>
-3.7008

> <Gold.PLP.part.metal>
0.0000

> <Gold.PLP.part.buried>
-5.1434

> <Gold.PLP.part.nonpolar>
-36.4677

> <Gold.PLP.part.repulsive>
0.2580

> <Gold.PLP.ligand.clash>
0.0000

> <Gold.PLP.ligand.torsion>
1.0175

> <Gold.PLP.Chemscore.Hbond>
1.5850

> <Gold.PLP.Chemscore.CHOScore>
0.0000

> <Gold.PLP.Chemscore.Metal>
0.0000

> <Gold.Chemscore.Hbonds>
donor molecule, donor type, donor heavy atom, donor atom, acceptor molecule, acceptor atom, score
      L1  H    18    43       P1 10186  0.55
      P1  H 10785 10796       L1    18  1.00

> <Gold.PLP.Chemscore.Internal.Correction>
0.8714

> <Gold.Rescore>
     Score         DG    S(hbond)    S(metal)    S(lipo)     H(rot)  DE(clash)    DE(int)     intcor
     10.78     -12.99       1.55        0.00      92.91       3.34       0.13       2.08       ----

> <Gold.Chemscore.Fitness>
10.7833

> <Gold.Chemscore.DG>
-12.9875

> <Gold.Chemscore.ZeroCoef>
-5.4800

> <Gold.Chemscore.Hbond>
1.5545

> <Gold.Chemscore.Metal>
0.0000

> <Gold.Chemscore.Lipo>
92.9064

> <Gold.Chemscore.Internal_Hbond>
0.0000

> <Gold.Chemscore.DEClash>
0.1255

> <Gold.Chemscore.DEInternal>
2.0787

> <Gold.Chemscore.Rot>
3.3416

> <Gold.Chemscore.Internal.Correction>
   9.000000E+99

> <Gold.Chemscore.Hbonds>
donor molecule, donor type, donor heavy atom, donor atom, acceptor molecule, acceptor atom, score
      L1  H    18    43       P1 10186  0.54
      P1  H 10785 10796       L1    18  0.23

> <Gold.Chemscore.Hbond.Weighted>
-5.1919

> <Gold.Chemscore.Metal.Weighted>
-0.0000

> <Gold.Chemscore.Lipo.Weighted>
-10.8700

> <Gold.Chemscore.Internal_Hbond.Weighted>
0.0000

> <Gold.Chemscore.DEClash.Weighted>
0.1255

> <Gold.Chemscore.DEInternal.Weighted>
2.0787

> <Gold.Chemscore.Rot.Weighted>
8.5545

> <Gold.Chemscore.Internal.Correction.Weighted>
   9.000000E+99

> <Gold.Protein.RotatedTorsions>
[ 6907 6896 6895 6894 ] final  119.68 input  -60.11 | X-H torsion
[ 7974 7965 7964 7962 ] final    0.03 input  175.53 | X-H torsion
[ 8008 7997 7996 7995 ] final   41.74 input   59.86 | X-H torsion
[ 10167 10162 10161 10158 ] final -158.84 input  -65.29 | X-H torsion
[ 10718 10713 10712 10709 ] final   21.44 input   66.30 | X-H torsion
[ 10763 10752 10751 10750 ] final -105.17 input  -60.55 | X-H torsion
[ 11005 11000 10999 10996 ] final -179.32 input  -57.11 | X-H torsion

> <Gold.Protein.ActiveResidues>
 VAL166  LYS551  ARG553  GLY616  TRP617  ASP618  TYR619  PRO620  LYS621  CYS622 
 ASP623  PHE694  ASN695  SER759  ASP760  ASP761  ALA762  ILE779  LEU786  VAL792 
 PHE793  MET794  SER795  GLU796  ALA797  LYS798  CYS799  TRP800  GLU811  SER814 

> <Gold.Protein.RotatedAtoms>
  152.4454  133.7526  159.6701 H   0  0  0  0  0  0  0  0  0  0  0  0  # atno 6907 bound_to 6896
  150.8352  133.8014  159.3088 H   0  0  0  0  0  0  0  0  0  0  0  0  # atno 6908 bound_to 6896
  151.5656  135.1067  160.0035 H   0  0  0  0  0  0  0  0  0  0  0  0  # atno 6909 bound_to 6896
  146.2431  140.1200  142.8341 H   0  0  0  0  0  0  0  0  0  0  0  0  # atno 7974 bound_to 7965
  155.2745  140.3368  155.4262 H   0  0  0  0  0  0  0  0  0  0  0  0  # atno 8008 bound_to 7997
  156.2117  140.1773  156.7720 H   0  0  0  0  0  0  0  0  0  0  0  0  # atno 8009 bound_to 7997
  154.5696  140.0672  156.8929 H   0  0  0  0  0  0  0  0  0  0  0  0  # atno 8010 bound_to 7997
  139.6661  143.9827  152.2255 H   0  0  0  0  0  0  0  0  0  0  0  0  # atno 10167 bound_to 10162
  157.1384  130.6622  149.5973 H   0  0  0  0  0  0  0  0  0  0  0  0  # atno 10718 bound_to 10713
  154.7929  135.4759  154.0093 H   0  0  0  0  0  0  0  0  0  0  0  0  # atno 10763 bound_to 10752
  153.1658  135.6816  153.8685 H   0  0  0  0  0  0  0  0  0  0  0  0  # atno 10764 bound_to 10752
  153.8283  135.3195  155.3394 H   0  0  0  0  0  0  0  0  0  0  0  0  # atno 10765 bound_to 10752
  140.4199  134.6615  157.4658 H   0  0  0  0  0  0  0  0  0  0  0  0  # atno 11005 bound_to 11000
  145.0414  140.8948  143.5050 LP  0  0  0  0  0  0  0  0  0  0  0  0  # atno 17320 bound_to 7965
  145.1281  139.2649  143.5553 LP  0  0  0  0  0  0  0  0  0  0  0  0  # atno 17321 bound_to 7965
  139.9579  144.6577  150.8108 LP  0  0  0  0  0  0  0  0  0  0  0  0  # atno 17342 bound_to 10162
  140.7600  143.3140  151.2776 LP  0  0  0  0  0  0  0  0  0  0  0  0  # atno 17343 bound_to 10162
  155.9793  130.4786  150.6709 LP  0  0  0  0  0  0  0  0  0  0  0  0  # atno 17370 bound_to 10713
  157.4329  131.0851  151.1020 LP  0  0  0  0  0  0  0  0  0  0  0  0  # atno 17371 bound_to 10713
  140.0207  134.6551  155.9243 LP  0  0  0  0  0  0  0  0  0  0  0  0  # atno 17394 bound_to 11000
  141.1788  133.6543  156.4935 LP  0  0  0  0  0  0  0  0  0  0  0  0  # atno 17395 bound_to 11000

$$$$
