AV-unprocessed.smi:3323|AV-procd|sdf|12780|dock10
  -GOLD-   2272019123D 1   1.00000     0.00000
 Structure written by MMmdl.
 37 38  0  0  0  0  0  0  0  0  1 V2000
  153.7399  141.1043  159.8447 C   0  0  0  0  0  0  0  0  0  0  0  0
  152.6141  142.1056  159.5641 C   0  0  1  0  0  0  0  0  0  0  0  0
  153.1489  143.4312  158.9875 C   0  0  0  0  0  0  0  0  0  0  0  0
  152.0031  144.4039  158.6428 C   0  0  2  0  0  0  0  0  0  0  0  0
  151.3214  145.0491  159.8725 C   0  0  0  0  0  0  0  0  0  0  0  0
  149.8775  145.1841  159.7005 N   0  0  0  0  0  0  0  0  0  0  0  0
  148.9428  144.5761  160.4456 C   0  0  0  0  0  0  0  0  0  0  0  0
  149.2034  143.8304  161.3894 O   0  0  0  0  0  0  0  0  0  0  0  0
  147.7064  144.9115  160.0389 N   0  0  0  0  0  0  0  0  0  0  0  0
  146.4555  144.4811  160.5584 C   0  0  0  0  0  0  0  0  0  0  0  0
  146.2928  143.8079  161.7936 C   0  0  0  0  0  0  0  0  0  0  0  0
  144.9990  143.4160  162.1886 C   0  0  0  0  0  0  0  0  0  0  0  0
  143.9179  143.7038  161.3331 C   0  0  0  0  0  0  0  0  0  0  0  0
  144.0600  144.3324  160.1474 N   0  0  0  0  0  0  0  0  0  0  0  0
  145.3031  144.7043  159.7749 C   0  0  0  0  0  0  0  0  0  0  0  0
  150.9948  143.6628  157.7471 C   0  0  0  0  0  0  0  0  0  0  0  0
  150.5710  142.3166  158.3618 C   0  0  0  0  0  0  0  0  0  0  0  0
  151.7177  141.5157  158.6270 O   0  0  0  0  0  0  0  0  0  0  0  0
  154.4484  141.5057  160.5697 H   0  0  0  0  0  0  0  0  0  0  0  0
  154.2910  140.8627  158.9355 H   0  0  0  0  0  0  0  0  0  0  0  0
  153.3410  140.1741  160.2498 H   0  0  0  0  0  0  0  0  0  0  0  0
  152.0835  142.2905  160.4990 H   0  0  0  0  0  0  0  0  0  0  0  0
  153.8608  143.8880  159.6744 H   0  0  0  0  0  0  0  0  0  0  0  0
  153.7126  143.2169  158.0785 H   0  0  0  0  0  0  0  0  0  0  0  0
  152.4263  145.2195  158.0546 H   0  0  0  0  0  0  0  0  0  0  0  0
  151.4812  144.4167  160.7461 H   0  0  0  0  0  0  0  0  0  0  0  0
  151.7749  146.0098  160.1180 H   0  0  0  0  0  0  0  0  0  0  0  0
  149.5673  145.7867  158.9522 H   0  0  0  0  0  0  0  0  0  0  0  0
  147.6537  145.6009  159.3034 H   0  0  0  0  0  0  0  0  0  0  0  0
  147.1275  143.5726  162.4351 H   0  0  0  0  0  0  0  0  0  0  0  0
  144.8400  142.9017  163.1250 H   0  0  0  0  0  0  0  0  0  0  0  0
  142.9133  143.4158  161.6058 H   0  0  0  0  0  0  0  0  0  0  0  0
  145.3786  145.2025  158.8191 H   0  0  0  0  0  0  0  0  0  0  0  0
  150.1194  144.2845  157.5566 H   0  0  0  0  0  0  0  0  0  0  0  0
  151.4514  143.4747  156.7747 H   0  0  0  0  0  0  0  0  0  0  0  0
  149.9962  142.4620  159.2772 H   0  0  0  0  0  0  0  0  0  0  0  0
  149.9237  141.7795  157.6683 H   0  0  0  0  0  0  0  0  0  0  0  0
  1  2  1  0  0  0  0
  1 19  1  0  0  0  0
  1 20  1  0  0  0  0
  1 21  1  0  0  0  0
  2 18  1  0  0  0  0
  2  3  1  0  0  0  0
  2 22  1  0  0  0  0
  3  4  1  0  0  0  0
  3 23  1  0  0  0  0
  3 24  1  0  0  0  0
  4  5  1  0  0  0  0
  4 16  1  0  0  0  0
  4 25  1  0  0  0  0
  5  6  1  0  0  0  0
  5 26  1  0  0  0  0
  5 27  1  0  0  0  0
  6  7  1  0  0  0  0
  6 28  1  0  0  0  0
  7  8  2  0  0  0  0
  7  9  1  0  0  0  0
  9 10  1  0  0  0  0
  9 29  1  0  0  0  0
 10 15  1  0  0  0  0
 10 11  2  0  0  0  0
 11 12  1  0  0  0  0
 11 30  1  0  0  0  0
 12 13  2  0  0  0  0
 12 31  1  0  0  0  0
 13 14  1  0  0  0  0
 13 32  1  0  0  0  0
 14 15  2  0  0  0  0
 15 33  1  0  0  0  0
 16 17  1  0  0  0  0
 16 34  1  0  0  0  0
 16 35  1  0  0  0  0
 17 18  1  0  0  0  0
 17 36  1  0  0  0  0
 17 37  1  0  0  0  0
M  END
> <s_m_source_file>
AV-unprocessed.smi

> <i_m_source_file_index>
3323

> <i_lp_mmshare_version>
43012

> <i_f3d_flags>
0

> <s_epik_input>
W0NIM11bQ0BASF0xW0NIMl1bQ0BIXShbQ0gyXVtDSDJdTzEpW0NIMl1bTkhdQyg9TylbTkhdYzJbY0hdW2NIXVtjSF1uW2NIXTI=

> <s_epik_cmdline>
J2VwaWtfcHl0aG9uJywgJy1waCcsICc3LjAnLCAnLXRuJywgJzgnLCAnLW1hJywgJzIwMCcsICctbWV0YWxfYmluZGluZycsICctaW1hZScsICc8aW5maWxlLm1hZT4nLCAnLW9tYWUnLCAnPG91dGZpbGUubWFlPic=

> <r_epik_Ionization_Penalty>
0.00485293

> <r_epik_Ionization_Penalty_Charging>
0

> <r_epik_Ionization_Penalty_Neutral>
0.00485293

> <r_epik_State_Penalty>
0.00349083

> <r_epik_Charging_Adjusted_Penalty>
0.00349083

> <i_epik_Tot_Q>
0

> <i_epik_Tot_abs_Q>
0

> <r_epik_Metal_State_Penalty>
-0

> <b_epik_Metal_Only>
0

> <s_lp_Force_Field>
OPLS_2005

> <r_lp_Energy>
13.6237

> <b_lp_Chiralities_Consistent>
1

> <s_lp_Variant>
AV-unprocessed.smi:3323-4

> <Gold.Version>
5.8.1

> <Gold.Id.Protein>
6NUR|6NUR_protein|mol2

> <Gold.PLP.Fitness>
46.8887

> <Gold.PLP.PLP>
-41.9578

> <Gold.PLP.part.hbond>
-3.0000

> <Gold.PLP.part.metal>
0.0000

> <Gold.PLP.part.buried>
-7.8214

> <Gold.PLP.part.nonpolar>
-33.3802

> <Gold.PLP.part.repulsive>
0.6380

> <Gold.PLP.ligand.clash>
1.2172

> <Gold.PLP.ligand.torsion>
0.6123

> <Gold.PLP.Chemscore.Hbond>
2.4560

> <Gold.PLP.Chemscore.CHOScore>
0.0000

> <Gold.PLP.Chemscore.Metal>
0.0000

> <Gold.Chemscore.Hbonds>
donor molecule, donor type, donor heavy atom, donor atom, acceptor molecule, acceptor atom, score
      L1  H     6    28       P1  8029  0.15
      L1  H     9    29       P1  8029  0.86
      P1  H  6933  6944       L1     8  0.38

> <Gold.PLP.Chemscore.Internal.Correction>
0.0048

> <Gold.Rescore>
     Score         DG    S(hbond)    S(metal)    S(lipo)     H(rot)  DE(clash)    DE(int)     intcor
     20.58     -22.39       2.34        0.00     104.57       1.23       0.04       1.77       ----

> <Gold.Chemscore.Fitness>
20.5825

> <Gold.Chemscore.DG>
-22.3919

> <Gold.Chemscore.ZeroCoef>
-5.4800

> <Gold.Chemscore.Hbond>
2.3409

> <Gold.Chemscore.Metal>
0.0000

> <Gold.Chemscore.Lipo>
104.5750

> <Gold.Chemscore.Internal_Hbond>
0.0000

> <Gold.Chemscore.DEClash>
0.0354

> <Gold.Chemscore.DEInternal>
1.7741

> <Gold.Chemscore.Rot>
1.2273

> <Gold.Chemscore.Internal.Correction>
   9.000000E+99

> <Gold.Chemscore.Hbonds>
donor molecule, donor type, donor heavy atom, donor atom, acceptor molecule, acceptor atom, score
      L1  H     6    28       P1  8029  0.16
      L1  H     9    29       P1  8029  0.79
      P1  H  6933  6944       L1     8  0.37

> <Gold.Chemscore.Hbond.Weighted>
-7.8185

> <Gold.Chemscore.Metal.Weighted>
-0.0000

> <Gold.Chemscore.Lipo.Weighted>
-12.2353

> <Gold.Chemscore.Internal_Hbond.Weighted>
0.0000

> <Gold.Chemscore.DEClash.Weighted>
0.0354

> <Gold.Chemscore.DEInternal.Weighted>
1.7741

> <Gold.Chemscore.Rot.Weighted>
3.1418

> <Gold.Chemscore.Internal.Correction.Weighted>
   9.000000E+99

> <Gold.Protein.RotatedTorsions>
[ 6907 6896 6895 6894 ] final  -91.09 input  -60.11 | X-H torsion
[ 7974 7965 7964 7962 ] final   16.71 input  175.53 | X-H torsion
[ 8008 7997 7996 7995 ] final   52.67 input   59.86 | X-H torsion
[ 10167 10162 10161 10158 ] final   62.72 input  -65.29 | X-H torsion
[ 10718 10713 10712 10709 ] final  -52.86 input   66.30 | X-H torsion
[ 10763 10752 10751 10750 ] final   48.18 input  -60.55 | X-H torsion
[ 11005 11000 10999 10996 ] final  151.51 input  -57.11 | X-H torsion

> <Gold.Protein.ActiveResidues>
 VAL166  LYS551  ARG553  GLY616  TRP617  ASP618  TYR619  PRO620  LYS621  CYS622 
 ASP623  PHE694  ASN695  SER759  ASP760  ASP761  ALA762  ILE779  LEU786  VAL792 
 PHE793  MET794  SER795  GLU796  ALA797  LYS798  CYS799  TRP800  GLU811  SER814 

> <Gold.Protein.RotatedAtoms>
  150.6888  134.2331  159.4442 H   0  0  0  0  0  0  0  0  0  0  0  0  # atno 6907 bound_to 6896
  152.0280  134.9782  160.0581 H   0  0  0  0  0  0  0  0  0  0  0  0  # atno 6908 bound_to 6896
  152.1332  133.4385  159.4768 H   0  0  0  0  0  0  0  0  0  0  0  0  # atno 6909 bound_to 6896
  146.2241  139.8708  142.8588 H   0  0  0  0  0  0  0  0  0  0  0  0  # atno 7974 bound_to 7965
  155.4556  140.3460  155.4306 H   0  0  0  0  0  0  0  0  0  0  0  0  # atno 8008 bound_to 7997
  156.1193  140.1482  156.9257 H   0  0  0  0  0  0  0  0  0  0  0  0  # atno 8009 bound_to 7997
  154.4811  140.0869  156.7359 H   0  0  0  0  0  0  0  0  0  0  0  0  # atno 8010 bound_to 7997
  140.1408  144.4555  150.6812 H   0  0  0  0  0  0  0  0  0  0  0  0  # atno 10167 bound_to 10162
  156.1585  130.4150  149.9831 H   0  0  0  0  0  0  0  0  0  0  0  0  # atno 10718 bound_to 10713
  152.9794  135.5952  154.3884 H   0  0  0  0  0  0  0  0  0  0  0  0  # atno 10763 bound_to 10752
  154.3542  135.2767  155.2357 H   0  0  0  0  0  0  0  0  0  0  0  0  # atno 10764 bound_to 10752
  154.4383  135.6019  153.6168 H   0  0  0  0  0  0  0  0  0  0  0  0  # atno 10765 bound_to 10752
  140.1226  134.8854  157.2093 H   0  0  0  0  0  0  0  0  0  0  0  0  # atno 11005 bound_to 11000
  145.2610  141.0077  143.3826 LP  0  0  0  0  0  0  0  0  0  0  0  0  # atno 17320 bound_to 7965
  144.9298  139.4311  143.6500 LP  0  0  0  0  0  0  0  0  0  0  0  0  # atno 17321 bound_to 7965
  140.6761  143.2306  151.5503 LP  0  0  0  0  0  0  0  0  0  0  0  0  # atno 17342 bound_to 10162
  139.5473  144.2488  152.1465 LP  0  0  0  0  0  0  0  0  0  0  0  0  # atno 17343 bound_to 10162
  156.7667  130.9171  151.3643 LP  0  0  0  0  0  0  0  0  0  0  0  0  # atno 17370 bound_to 10713
  157.6714  130.9054  150.0048 LP  0  0  0  0  0  0  0  0  0  0  0  0  # atno 17371 bound_to 10713
  140.2946  134.3201  155.7306 LP  0  0  0  0  0  0  0  0  0  0  0  0  # atno 17394 bound_to 11000
  141.2154  133.7555  156.9552 LP  0  0  0  0  0  0  0  0  0  0  0  0  # atno 17395 bound_to 11000

$$$$
