AV-unprocessed.smi:1005|AV-procd|sdf|4379|dock9
  -GOLD-   22720 2303D 1   1.00000     0.00000
 Structure written by MMmdl.
 58 60  0  0  0  0  0  0  0  0  4 V2000
  152.3909  144.0431  159.9058 C   0  0  0  0  0  0  0  0  0  0  0  0
  152.0090  142.9729  158.8971 C   0  0  0  0  0  0  0  0  0  0  0  0
  151.1334  143.3206  157.8440 C   0  0  0  0  0  0  0  0  0  0  0  0
  150.8062  142.3214  156.9351 C   0  0  0  0  0  0  0  0  0  0  0  0
  149.9853  142.3466  155.8059 N   0  3  0  0  0  0  0  0  0  0  0  0
  149.9731  141.1154  155.2245 C   0  0  0  0  0  0  0  0  0  0  0  0
  150.7780  140.3035  155.9634 N   0  0  0  0  0  0  0  0  0  0  0  0
  151.1075  138.8831  155.7714 C   0  0  0  0  0  0  0  0  0  0  0  0
  150.0030  138.1042  155.0290 C   0  0  1  0  0  0  0  0  0  0  0  0
  150.1031  138.3466  153.6392 O   0  0  0  0  0  0  0  0  0  0  0  0
  150.1145  136.5853  155.2731 C   0  0  0  0  0  0  0  0  0  0  0  0
  149.1301  135.7995  154.4851 N   0  3  1  0  0  0  0  0  0  0  0  0
  149.3649  134.3395  154.5800 C   0  0  0  0  0  0  0  0  0  0  0  0
  148.3692  133.5791  153.6899 C   0  0  0  0  0  0  0  0  0  0  0  0
  147.0403  133.9190  154.0671 O   0  0  0  0  0  0  0  0  0  0  0  0
  146.7638  135.3054  153.8944 C   0  0  1  0  0  0  0  0  0  0  0  0
  145.2866  135.5445  154.2597 C   0  0  0  0  0  0  0  0  0  0  0  0
  144.3469  134.8873  153.3150 N   0  3  0  0  0  0  0  0  0  0  0  0
  144.6118  135.2186  151.8955 C   0  0  0  0  0  0  0  0  0  0  0  0
  142.9326  135.1346  153.6729 C   0  0  0  0  0  0  0  0  0  0  0  0
  147.7143  136.1140  154.8012 C   0  0  0  0  0  0  0  0  0  0  0  0
  151.3156  141.0127  157.0454 C   0  0  0  0  0  0  0  0  0  0  0  0
  152.1771  140.6530  158.0798 C   0  0  0  0  0  0  0  0  0  0  0  0
  152.5224  141.6553  159.0145 C   0  0  0  0  0  0  0  0  0  0  0  0
  153.4616  141.2920  160.1521 C   0  0  0  0  0  0  0  0  0  0  0  0
  151.9510  145.0077  159.6506 H   0  0  0  0  0  0  0  0  0  0  0  0
  153.4730  144.1709  159.9394 H   0  0  0  0  0  0  0  0  0  0  0  0
  152.0426  143.7708  160.9023 H   0  0  0  0  0  0  0  0  0  0  0  0
  150.7372  144.3211  157.7499 H   0  0  0  0  0  0  0  0  0  0  0  0
  149.4230  140.8352  154.3376 H   0  0  0  0  0  0  0  0  0  0  0  0
  152.0661  138.8021  155.2584 H   0  0  0  0  0  0  0  0  0  0  0  0
  151.2579  138.4551  156.7633 H   0  0  0  0  0  0  0  0  0  0  0  0
  149.0361  138.4741  155.3686 H   0  0  0  0  0  0  0  0  0  0  0  0
  149.6811  137.6363  153.1794 H   0  0  0  0  0  0  0  0  0  0  0  0
  151.1243  136.2680  155.0070 H   0  0  0  0  0  0  0  0  0  0  0  0
  149.9937  136.3574  156.3332 H   0  0  0  0  0  0  0  0  0  0  0  0
  150.3840  134.1045  154.2704 H   0  0  0  0  0  0  0  0  0  0  0  0
  149.2619  134.0177  155.6177 H   0  0  0  0  0  0  0  0  0  0  0  0
  148.5325  133.8092  152.6356 H   0  0  0  0  0  0  0  0  0  0  0  0
  148.5058  132.5038  153.8060 H   0  0  0  0  0  0  0  0  0  0  0  0
  146.9438  135.5879  152.8566 H   0  0  0  0  0  0  0  0  0  0  0  0
  145.1184  135.1607  155.2673 H   0  0  0  0  0  0  0  0  0  0  0  0
  145.0683  136.6129  154.3003 H   0  0  0  0  0  0  0  0  0  0  0  0
  144.4984  136.2887  151.7164 H   0  0  0  0  0  0  0  0  0  0  0  0
  143.9150  134.6915  151.2430 H   0  0  0  0  0  0  0  0  0  0  0  0
  145.6170  134.9268  151.5945 H   0  0  0  0  0  0  0  0  0  0  0  0
  142.6916  136.1962  153.6045 H   0  0  0  0  0  0  0  0  0  0  0  0
  142.7250  134.8006  154.6900 H   0  0  0  0  0  0  0  0  0  0  0  0
  142.2641  134.5885  153.0062 H   0  0  0  0  0  0  0  0  0  0  0  0
  147.5176  135.8886  155.8508 H   0  0  0  0  0  0  0  0  0  0  0  0
  147.5223  137.1773  154.6624 H   0  0  0  0  0  0  0  0  0  0  0  0
  152.5734  139.6525  158.1698 H   0  0  0  0  0  0  0  0  0  0  0  0
  153.7144  140.2314  160.1381 H   0  0  0  0  0  0  0  0  0  0  0  0
  153.0005  141.5096  161.1157 H   0  0  0  0  0  0  0  0  0  0  0  0
  154.3902  141.8581  160.0758 H   0  0  0  0  0  0  0  0  0  0  0  0
  144.4857  133.8916  153.4165 H   0  0  0  0  0  0  0  0  0  0  0  0
  149.2834  136.0479  153.5174 H   0  0  0  0  0  0  0  0  0  0  0  0
  149.4681  143.1438  155.4570 H   0  0  0  0  0  0  0  0  0  0  0  0
  1  2  1  0  0  0  0
  1 26  1  0  0  0  0
  1 27  1  0  0  0  0
  1 28  1  0  0  0  0
  2 24  1  0  0  0  0
  2  3  2  0  0  0  0
  3  4  1  0  0  0  0
  3 29  1  0  0  0  0
  4 22  2  0  0  0  0
  4  5  1  0  0  0  0
  5  6  2  0  0  0  0
  5 58  1  0  0  0  0
  6  7  1  0  0  0  0
  6 30  1  0  0  0  0
  7  8  1  0  0  0  0
  7 22  1  0  0  0  0
  8  9  1  0  0  0  0
  8 31  1  0  0  0  0
  8 32  1  0  0  0  0
  9 10  1  0  0  0  0
  9 11  1  0  0  0  0
  9 33  1  0  0  0  0
 10 34  1  0  0  0  0
 11 12  1  0  0  0  0
 11 35  1  0  0  0  0
 11 36  1  0  0  0  0
 12 21  1  0  0  0  0
 12 13  1  0  0  0  0
 12 57  1  0  0  0  0
 13 14  1  0  0  0  0
 13 37  1  0  0  0  0
 13 38  1  0  0  0  0
 14 15  1  0  0  0  0
 14 39  1  0  0  0  0
 14 40  1  0  0  0  0
 15 16  1  0  0  0  0
 16 17  1  0  0  0  0
 16 21  1  0  0  0  0
 16 41  1  0  0  0  0
 17 18  1  0  0  0  0
 17 42  1  0  0  0  0
 17 43  1  0  0  0  0
 18 19  1  0  0  0  0
 18 20  1  0  0  0  0
 18 56  1  0  0  0  0
 19 44  1  0  0  0  0
 19 45  1  0  0  0  0
 19 46  1  0  0  0  0
 20 47  1  0  0  0  0
 20 48  1  0  0  0  0
 20 49  1  0  0  0  0
 21 50  1  0  0  0  0
 21 51  1  0  0  0  0
 22 23  1  0  0  0  0
 23 24  2  0  0  0  0
 23 52  1  0  0  0  0
 24 25  1  0  0  0  0
 25 53  1  0  0  0  0
 25 54  1  0  0  0  0
 25 55  1  0  0  0  0
M  CHG  1   5   1
M  CHG  1  12   1
M  CHG  1  18   1
M  END
> <s_m_source_file>
AV-unprocessed.smi

> <i_m_source_file_index>
1005

> <i_lp_mmshare_version>
43012

> <i_f3d_flags>
0

> <s_epik_input>
W0NIM11jKFtjSF0xKWMoW0NIM10pW2NIXWMoYzEyKW4oW2NIXW4yKVtDSDJdW0NASF0oW09IXSlbQ0gyXU4zW0NIMl1bQ0gyXU9bQ0BIXShbQ0gyXTMpW0NIMl1OKFtDSDNdKVtDSDNd

> <s_epik_cmdline>
J2VwaWtfcHl0aG9uJywgJy1waCcsICc3LjAnLCAnLXRuJywgJzgnLCAnLW1hJywgJzIwMCcsICctbWV0YWxfYmluZGluZycsICctaW1hZScsICc8aW5maWxlLm1hZT4nLCAnLW9tYWUnLCAnPG91dGZpbGUubWFlPic=

> <r_epik_Ionization_Penalty>
2.30802

> <r_epik_Ionization_Penalty_Charging>
2.30798

> <r_epik_Ionization_Penalty_Neutral>
3.4851e-05

> <r_epik_State_Penalty>
2.52618

> <r_epik_Charging_Adjusted_Penalty>
4.83416

> <i_epik_Tot_Q>
3

> <i_epik_Tot_abs_Q>
3

> <r_epik_Metal_State_Penalty>
6.53149

> <b_epik_Metal_Only>
0

> <s_lp_Force_Field>
OPLS_2005

> <r_lp_Energy>
42.4596

> <b_lp_Chiralities_Consistent>
1

> <s_lp_Variant>
AV-unprocessed.smi:1005-18

> <Gold.Version>
5.8.1

> <Gold.Id.Protein>
6NUR|6NUR_protein|mol2

> <Gold.PLP.Fitness>
57.9533

> <Gold.PLP.PLP>
-44.0955

> <Gold.PLP.part.hbond>
-4.0000

> <Gold.PLP.part.metal>
0.0000

> <Gold.PLP.part.buried>
-3.6873

> <Gold.PLP.part.nonpolar>
-37.3220

> <Gold.PLP.part.repulsive>
0.2369

> <Gold.PLP.ligand.clash>
0.0000

> <Gold.PLP.ligand.torsion>
0.6208

> <Gold.PLP.Chemscore.Hbond>
5.0000

> <Gold.PLP.Chemscore.CHOScore>
0.0000

> <Gold.PLP.Chemscore.Metal>
0.0000

> <Gold.Chemscore.Hbonds>
donor molecule, donor type, donor heavy atom, donor atom, acceptor molecule, acceptor atom, score
      L1  H     5    58       P1  8028  2.00
      L1  H    10    34       P1  7948  1.00
      L1  H    12    57       P1  7948  2.00

> <Gold.PLP.Chemscore.Internal.Correction>
0.0995

> <Gold.Rescore>
     Score         DG    S(hbond)    S(metal)    S(lipo)     H(rot)  DE(clash)    DE(int)     intcor
     21.03     -21.83       2.90        0.00     112.73       2.56       0.12       0.68       ----

> <Gold.Chemscore.Fitness>
21.0306

> <Gold.Chemscore.DG>
-21.8252

> <Gold.Chemscore.ZeroCoef>
-5.4800

> <Gold.Chemscore.Hbond>
2.9043

> <Gold.Chemscore.Metal>
0.0000

> <Gold.Chemscore.Lipo>
112.7328

> <Gold.Chemscore.Internal_Hbond>
0.0000

> <Gold.Chemscore.DEClash>
0.1191

> <Gold.Chemscore.DEInternal>
0.6755

> <Gold.Chemscore.Rot>
2.5566

> <Gold.Chemscore.Internal.Correction>
   9.000000E+99

> <Gold.Chemscore.Hbonds>
donor molecule, donor type, donor heavy atom, donor atom, acceptor molecule, acceptor atom, score
      L1  H     5    58       P1  8028  0.95
      L1  H    10    34       P1  7948  0.70
      L1  H    12    57       P1  7948  0.74

> <Gold.Chemscore.Hbond.Weighted>
-9.7004

> <Gold.Chemscore.Metal.Weighted>
-0.0000

> <Gold.Chemscore.Lipo.Weighted>
-13.1897

> <Gold.Chemscore.Internal_Hbond.Weighted>
0.0000

> <Gold.Chemscore.DEClash.Weighted>
0.1191

> <Gold.Chemscore.DEInternal.Weighted>
0.6755

> <Gold.Chemscore.Rot.Weighted>
6.5450

> <Gold.Chemscore.Internal.Correction.Weighted>
   9.000000E+99

> <Gold.Protein.RotatedTorsions>
[ 6907 6896 6895 6894 ] final  133.56 input  -60.11 | X-H torsion
[ 7974 7965 7964 7962 ] final   31.43 input  175.53 | X-H torsion
[ 8008 7997 7996 7995 ] final  103.17 input   59.86 | X-H torsion
[ 10167 10162 10161 10158 ] final    2.09 input  -65.29 | X-H torsion
[ 10718 10713 10712 10709 ] final -137.76 input   66.30 | X-H torsion
[ 10763 10752 10751 10750 ] final  175.08 input  -60.55 | X-H torsion
[ 11005 11000 10999 10996 ] final  -59.85 input  -57.11 | X-H torsion

> <Gold.Protein.ActiveResidues>
 VAL166  LYS551  ARG553  GLY616  TRP617  ASP618  TYR619  PRO620  LYS621  CYS622 
 ASP623  PHE694  ASN695  SER759  ASP760  ASP761  ALA762  ILE779  LEU786  VAL792 
 PHE793  MET794  SER795  GLU796  ALA797  LYS798  CYS799  TRP800  GLU811  SER814 

> <Gold.Protein.RotatedAtoms>
  152.3206  133.5850  159.5741 H   0  0  0  0  0  0  0  0  0  0  0  0  # atno 6907 bound_to 6896
  150.7369  134.0016  159.3649 H   0  0  0  0  0  0  0  0  0  0  0  0  # atno 6908 bound_to 6896
  151.7901  135.0738  160.0437 H   0  0  0  0  0  0  0  0  0  0  0  0  # atno 6909 bound_to 6896
  146.1550  139.6657  142.9072 H   0  0  0  0  0  0  0  0  0  0  0  0  # atno 7974 bound_to 7965
  156.1460  140.3169  155.8571 H   0  0  0  0  0  0  0  0  0  0  0  0  # atno 8008 bound_to 7997
  155.4063  140.0503  157.3051 H   0  0  0  0  0  0  0  0  0  0  0  0  # atno 8009 bound_to 7997
  154.5017  140.2131  155.9346 H   0  0  0  0  0  0  0  0  0  0  0  0  # atno 8010 bound_to 7997
  140.6652  143.7199  150.7813 H   0  0  0  0  0  0  0  0  0  0  0  0  # atno 10167 bound_to 10162
  156.2918  130.7379  151.1407 H   0  0  0  0  0  0  0  0  0  0  0  0  # atno 10718 bound_to 10713
  154.4627  135.2768  155.1701 H   0  0  0  0  0  0  0  0  0  0  0  0  # atno 10763 bound_to 10752
  154.3482  135.6155  153.5633 H   0  0  0  0  0  0  0  0  0  0  0  0  # atno 10764 bound_to 10752
  152.9856  135.5805  154.4993 H   0  0  0  0  0  0  0  0  0  0  0  0  # atno 10765 bound_to 10752
  141.1264  133.6618  156.5134 H   0  0  0  0  0  0  0  0  0  0  0  0  # atno 11005 bound_to 11000
  145.4730  141.0436  143.2688 LP  0  0  0  0  0  0  0  0  0  0  0  0  # atno 17320 bound_to 7965
  144.7952  139.6249  143.7096 LP  0  0  0  0  0  0  0  0  0  0  0  0  # atno 17321 bound_to 7965
  140.0875  143.4909  152.2496 LP  0  0  0  0  0  0  0  0  0  0  0  0  # atno 17342 bound_to 10162
  139.5898  144.7545  151.3429 LP  0  0  0  0  0  0  0  0  0  0  0  0  # atno 17343 bound_to 10162
  157.7344  131.0582  150.5524 LP  0  0  0  0  0  0  0  0  0  0  0  0  # atno 17370 bound_to 10713
  156.5641  130.4263  149.6049 LP  0  0  0  0  0  0  0  0  0  0  0  0  # atno 17371 bound_to 10713
  140.4350  134.7067  157.4962 LP  0  0  0  0  0  0  0  0  0  0  0  0  # atno 17394 bound_to 11000
  140.0267  134.6466  155.9162 LP  0  0  0  0  0  0  0  0  0  0  0  0  # atno 17395 bound_to 11000

$$$$
