AV-unprocessed.smi:158|AV-procd|sdf|1330|dock3
  -GOLD-   2262019 23D 1   1.00000     0.00000
 Structure written by MMmdl.
 31 33  0  0  0  0  0  0  0  0  1 V2000
  153.6206  137.4767  156.5322 N   0  0  0  0  0  0  0  0  0  0  0  0
  152.7741  138.5155  156.5145 C   0  0  0  0  0  0  0  0  0  0  0  0
  152.9038  139.4706  157.4646 N   0  0  0  0  0  0  0  0  0  0  0  0
  152.0800  140.5261  157.4801 C   0  0  0  0  0  0  0  0  0  0  0  0
  152.3377  141.6806  158.7346 Cl  0  0  0  0  0  0  0  0  0  0  0  0
  151.0781  140.7859  156.6328 N   0  0  0  0  0  0  0  0  0  0  0  0
  150.9431  139.8221  155.6765 C   0  0  0  0  0  0  0  0  0  0  0  0
  151.7506  138.6618  155.5468 C   0  0  0  0  0  0  0  0  0  0  0  0
  151.3320  137.9146  154.4548 N   0  0  0  0  0  0  0  0  0  0  0  0
  150.3338  138.6027  153.9679 C   0  0  0  0  0  0  0  0  0  0  0  0
  150.0194  139.7573  154.6558 N   0  0  0  0  0  0  0  0  0  0  0  0
  148.9541  140.7743  154.3784 C   0  0  1  0  0  0  0  0  0  0  0  0
  148.2201  140.3421  153.2664 O   0  0  0  0  0  0  0  0  0  0  0  0
  146.9172  139.8878  153.6512 C   0  0  1  0  0  0  0  0  0  0  0  0
  146.5472  138.5960  152.9050 C   0  0  0  0  0  0  0  0  0  0  0  0
  147.2675  137.5065  153.4387 O   0  0  0  0  0  0  0  0  0  0  0  0
  147.0157  139.7107  155.1690 C   0  0  2  0  0  0  0  0  0  0  0  0
  145.7765  139.8276  155.8395 O   0  0  0  0  0  0  0  0  0  0  0  0
  147.9683  140.8285  155.5467 C   0  0  2  0  0  0  0  0  0  0  0  0
  147.3669  142.0203  155.5187 F   0  0  0  0  0  0  0  0  0  0  0  0
  149.4988  141.7010  154.1929 H   0  0  0  0  0  0  0  0  0  0  0  0
  146.2007  140.6814  153.4295 H   0  0  0  0  0  0  0  0  0  0  0  0
  147.4656  138.7465  155.4110 H   0  0  0  0  0  0  0  0  0  0  0  0
  148.4483  140.7072  156.5181 H   0  0  0  0  0  0  0  0  0  0  0  0
  153.5424  136.7533  155.8317 H   0  0  0  0  0  0  0  0  0  0  0  0
  154.3346  137.4190  157.2441 H   0  0  0  0  0  0  0  0  0  0  0  0
  149.8041  138.2785  153.0854 H   0  0  0  0  0  0  0  0  0  0  0  0
  145.4768  138.3984  152.9422 H   0  0  0  0  0  0  0  0  0  0  0  0
  146.8206  138.6820  151.8531 H   0  0  0  0  0  0  0  0  0  0  0  0
  147.9807  137.3009  152.8537 H   0  0  0  0  0  0  0  0  0  0  0  0
  145.0974  139.9645  155.1968 H   0  0  0  0  0  0  0  0  0  0  0  0
  1  2  1  0  0  0  0
  1 25  1  0  0  0  0
  1 26  1  0  0  0  0
  2  8  1  0  0  0  0
  2  3  2  0  0  0  0
  3  4  1  0  0  0  0
  4  5  1  0  0  0  0
  4  6  2  0  0  0  0
  6  7  1  0  0  0  0
  7 11  1  0  0  0  0
  7  8  2  0  0  0  0
  8  9  1  0  0  0  0
  9 10  2  0  0  0  0
 10 11  1  0  0  0  0
 10 27  1  0  0  0  0
 11 12  1  0  0  0  0
 12 21  1  0  0  0  0
 12 19  1  0  0  0  0
 12 13  1  0  0  0  0
 13 14  1  0  0  0  0
 14 22  1  0  0  0  0
 14 15  1  0  0  0  0
 14 17  1  0  0  0  0
 15 16  1  0  0  0  0
 15 28  1  0  0  0  0
 15 29  1  0  0  0  0
 16 30  1  0  0  0  0
 17 23  1  0  0  0  0
 17 18  1  0  0  0  0
 17 19  1  0  0  0  0
 18 31  1  0  0  0  0
 19 24  1  0  0  0  0
 19 20  1  0  0  0  0
M  END
> <s_m_source_file>
AV-unprocessed.smi

> <i_m_source_file_index>
158

> <i_lp_mmshare_version>
43012

> <i_f3d_flags>
0

> <s_epik_input>
Q2xjKG4xKW5jKFtOSDJdKWMoYzEyKW5bY0hdbjJbQ0BASF0zT1tDQEhdKFtDSDJdW09IXSlbQ0BASF0oW09IXSlbQ0BASF0zRg==

> <s_epik_cmdline>
J2VwaWtfcHl0aG9uJywgJy1waCcsICc3LjAnLCAnLXRuJywgJzgnLCAnLW1hJywgJzIwMCcsICctbWV0YWxfYmluZGluZycsICctaW1hZScsICc8aW5maWxlLm1hZT4nLCAnLW9tYWUnLCAnPG91dGZpbGUubWFlPic=

> <r_lp_tautomer_probability>
1

> <r_epik_Ionization_Penalty>
6.51543e-05

> <r_epik_Ionization_Penalty_Charging>
0

> <r_epik_Ionization_Penalty_Neutral>
6.51543e-05

> <r_epik_State_Penalty>
-0

> <r_epik_Charging_Adjusted_Penalty>
0

> <i_epik_Tot_Q>
0

> <i_epik_Tot_abs_Q>
0

> <r_epik_Metal_State_Penalty>
-0

> <b_epik_Metal_Only>
0

> <s_epik_Chemistry_Notes>
This compound contains an acetal/aminal-like group ( X-CH(R)-Y where X, Y are N, S, or O) that may be acid/base labile, releasing an aldehyde.

> <s_lp_Force_Field>
OPLS_2005

> <r_lp_Energy>
30.2805

> <b_lp_Chiralities_Consistent>
1

> <s_lp_Variant>
AV-unprocessed.smi:158-8

> <Gold.Version>
5.8.1

> <Gold.Id.Protein>
6NUR|6NUR_protein|mol2

> <Gold.PLP.Fitness>
34.2225

> <Gold.PLP.PLP>
-23.4689

> <Gold.PLP.part.hbond>
-2.0000

> <Gold.PLP.part.metal>
0.0000

> <Gold.PLP.part.buried>
-3.2069

> <Gold.PLP.part.nonpolar>
-22.4335

> <Gold.PLP.part.repulsive>
4.2769

> <Gold.PLP.ligand.clash>
0.0000

> <Gold.PLP.ligand.torsion>
0.1344

> <Gold.PLP.Chemscore.Hbond>
1.9000

> <Gold.PLP.Chemscore.CHOScore>
1.7650

> <Gold.PLP.Chemscore.Metal>
0.0000

> <Gold.Chemscore.Hbonds>
donor molecule, donor type, donor heavy atom, donor atom, acceptor molecule, acceptor atom, score
      L1  H    16    30       P1  7948  1.00
      P1  H  7997  8010       L1     3  0.90
      L1  C    10    27       P1  7948  1.00
      L1  C    10    27       P1  7957  0.61

> <Gold.PLP.Chemscore.Internal.Correction>
0.0276

> <Gold.Rescore>
     Score         DG    S(hbond)    S(metal)    S(lipo)     H(rot)  DE(clash)    DE(int)     intcor
      6.17      -8.55       2.00        0.00      37.64       3.12       2.20       0.19       ----

> <Gold.Chemscore.Fitness>
6.1699

> <Gold.Chemscore.DG>
-8.5538

> <Gold.Chemscore.ZeroCoef>
-5.4800

> <Gold.Chemscore.Hbond>
1.9955

> <Gold.Chemscore.Metal>
0.0000

> <Gold.Chemscore.Lipo>
37.6395

> <Gold.Chemscore.Internal_Hbond>
0.0000

> <Gold.Chemscore.DEClash>
2.1984

> <Gold.Chemscore.DEInternal>
0.1855

> <Gold.Chemscore.Rot>
3.1230

> <Gold.Chemscore.Internal.Correction>
   9.000000E+99

> <Gold.Chemscore.Hbonds>
donor molecule, donor type, donor heavy atom, donor atom, acceptor molecule, acceptor atom, score
      L1  H    16    30       P1  7948  0.98
      P1  H  7997  8010       L1     3  0.13

> <Gold.Chemscore.Hbond.Weighted>
-6.6649

> <Gold.Chemscore.Metal.Weighted>
-0.0000

> <Gold.Chemscore.Lipo.Weighted>
-4.4038

> <Gold.Chemscore.Internal_Hbond.Weighted>
0.0000

> <Gold.Chemscore.DEClash.Weighted>
2.1984

> <Gold.Chemscore.DEInternal.Weighted>
0.1855

> <Gold.Chemscore.Rot.Weighted>
7.9950

> <Gold.Chemscore.Internal.Correction.Weighted>
   9.000000E+99

> <Gold.Protein.RotatedTorsions>
[ 6907 6896 6895 6894 ] final   75.22 input  -60.11 | X-H torsion
[ 7974 7965 7964 7962 ] final -123.18 input  175.53 | X-H torsion
[ 8008 7997 7996 7995 ] final   30.44 input   59.86 | X-H torsion
[ 10167 10162 10161 10158 ] final  -35.61 input  -65.29 | X-H torsion
[ 10718 10713 10712 10709 ] final   32.73 input   66.30 | X-H torsion
[ 10763 10752 10751 10750 ] final -161.33 input  -60.55 | X-H torsion
[ 11005 11000 10999 10996 ] final   32.22 input  -57.11 | X-H torsion

> <Gold.Protein.ActiveResidues>
 VAL166  LYS551  ARG553  GLY616  TRP617  ASP618  TYR619  PRO620  LYS621  CYS622 
 ASP623  PHE694  ASN695  SER759  ASP760  ASP761  ALA762  ILE779  LEU786  VAL792 
 PHE793  MET794  SER795  GLU796  ALA797  LYS798  CYS799  TRP800  GLU811  SER814 

> <Gold.Protein.RotatedAtoms>
  152.5015  134.4154  159.9462 H   0  0  0  0  0  0  0  0  0  0  0  0  # atno 6907 bound_to 6896
  151.4124  133.3717  159.2753 H   0  0  0  0  0  0  0  0  0  0  0  0  # atno 6908 bound_to 6896
  150.9282  134.8720  159.7593 H   0  0  0  0  0  0  0  0  0  0  0  0  # atno 6909 bound_to 6896
  145.0214  140.7991  143.4378 H   0  0  0  0  0  0  0  0  0  0  0  0  # atno 7974 bound_to 7965
  155.0904  140.3219  155.4575 H   0  0  0  0  0  0  0  0  0  0  0  0  # atno 8008 bound_to 7997
  156.2744  140.2079  156.5977 H   0  0  0  0  0  0  0  0  0  0  0  0  # atno 8009 bound_to 7997
  154.6908  140.0516  157.0348 H   0  0  0  0  0  0  0  0  0  0  0  0  # atno 8010 bound_to 7997
  140.7161  143.3465  151.2245 H   0  0  0  0  0  0  0  0  0  0  0  0  # atno 10167 bound_to 10162
  157.2889  130.7293  149.6599 H   0  0  0  0  0  0  0  0  0  0  0  0  # atno 10718 bound_to 10713
  154.7313  135.3047  154.8887 H   0  0  0  0  0  0  0  0  0  0  0  0  # atno 10763 bound_to 10752
  153.9729  135.6739  153.4751 H   0  0  0  0  0  0  0  0  0  0  0  0  # atno 10764 bound_to 10752
  153.0921  135.4954  154.8630 H   0  0  0  0  0  0  0  0  0  0  0  0  # atno 10765 bound_to 10752
  140.2757  134.3031  155.7815 H   0  0  0  0  0  0  0  0  0  0  0  0  # atno 11005 bound_to 11000
  145.1890  139.2311  143.5252 LP  0  0  0  0  0  0  0  0  0  0  0  0  # atno 17320 bound_to 7965
  146.3486  140.1682  142.8590 LP  0  0  0  0  0  0  0  0  0  0  0  0  # atno 17321 bound_to 7965
  139.6986  143.9571  152.2894 LP  0  0  0  0  0  0  0  0  0  0  0  0  # atno 17342 bound_to 10162
  139.9257  144.6772  150.8415 LP  0  0  0  0  0  0  0  0  0  0  0  0  # atno 17343 bound_to 10162
  155.9666  130.4315  150.4922 LP  0  0  0  0  0  0  0  0  0  0  0  0  # atno 17370 bound_to 10713
  157.2881  131.0620  151.2153 LP  0  0  0  0  0  0  0  0  0  0  0  0  # atno 17371 bound_to 10713
  141.2170  133.7494  156.9403 LP  0  0  0  0  0  0  0  0  0  0  0  0  # atno 17394 bound_to 11000
  140.1331  134.9343  157.2364 LP  0  0  0  0  0  0  0  0  0  0  0  0  # atno 17395 bound_to 11000

$$$$
