AV-unprocessed.smi:1420|AV-procd|sdf|5786|dock5
  -GOLD-   22720 5433D 1   1.00000     0.00000
 Structure written by MMmdl.
 38 39  0  0  0  0  0  0  0  0  1 V2000
  151.8333  145.0920  158.3383 C   0  0  0  0  0  0  0  0  0  0  0  0
  152.1607  143.6150  158.6799 C   0  0  2  0  0  0  0  0  0  0  0  0
  150.8585  142.7704  158.5583 C   0  0  0  0  0  0  0  0  0  0  0  0
  150.3498  142.6992  157.1926 N   0  0  0  0  0  0  0  0  0  0  0  0
  150.2095  141.5718  156.4789 C   0  0  0  0  0  0  0  0  0  0  0  0
  150.4289  140.4480  156.9308 O   0  0  0  0  0  0  0  0  0  0  0  0
  149.7819  141.7420  155.0216 C   0  0  0  0  0  0  0  0  0  0  0  0
  148.5209  141.0651  154.7782 N   0  0  0  0  0  0  0  0  0  0  0  0
  147.8724  140.8697  153.5765 C   0  0  0  0  0  0  0  0  0  0  0  0
  146.7119  140.2021  153.8449 C   0  0  0  0  0  0  0  0  0  0  0  0
  146.7384  140.0321  155.2575 C   0  0  0  0  0  0  0  0  0  0  0  0
  147.8226  140.5483  155.8136 N   0  0  0  0  0  0  0  0  0  0  0  0
  152.8338  143.4628  159.9909 N   0  0  0  0  0  0  0  0  0  0  0  0
  153.0549  142.0576  160.3521 C   0  0  0  0  0  0  0  0  0  0  0  0
  153.7270  141.8918  161.7258 C   0  0  0  0  0  0  0  0  0  0  0  0
  152.9416  142.5309  162.7223 O   0  0  0  0  0  0  0  0  0  0  0  0
  152.7668  143.9152  162.4545 C   0  0  0  0  0  0  0  0  0  0  0  0
  152.0898  144.0984  161.0851 C   0  0  0  0  0  0  0  0  0  0  0  0
  151.2999  145.1945  157.3940 H   0  0  0  0  0  0  0  0  0  0  0  0
  152.7310  145.6968  158.2190 H   0  0  0  0  0  0  0  0  0  0  0  0
  151.2176  145.5487  159.1137 H   0  0  0  0  0  0  0  0  0  0  0  0
  152.8478  143.2589  157.9105 H   0  0  0  0  0  0  0  0  0  0  0  0
  150.9983  141.7453  158.8985 H   0  0  0  0  0  0  0  0  0  0  0  0
  150.0790  143.1999  159.1884 H   0  0  0  0  0  0  0  0  0  0  0  0
  150.1479  143.5769  156.7353 H   0  0  0  0  0  0  0  0  0  0  0  0
  149.6649  142.8009  154.7878 H   0  0  0  0  0  0  0  0  0  0  0  0
  150.5455  141.3459  154.3500 H   0  0  0  0  0  0  0  0  0  0  0  0
  148.2847  141.2217  152.6422 H   0  0  0  0  0  0  0  0  0  0  0  0
  145.9580  139.8857  153.1396 H   0  0  0  0  0  0  0  0  0  0  0  0
  146.0067  139.5528  155.8910 H   0  0  0  0  0  0  0  0  0  0  0  0
  152.1057  141.5193  160.3454 H   0  0  0  0  0  0  0  0  0  0  0  0
  153.7011  141.5712  159.6233 H   0  0  0  0  0  0  0  0  0  0  0  0
  153.8257  140.8350  161.9739 H   0  0  0  0  0  0  0  0  0  0  0  0
  154.7331  142.3139  161.7171 H   0  0  0  0  0  0  0  0  0  0  0  0
  152.1539  144.3548  163.2417 H   0  0  0  0  0  0  0  0  0  0  0  0
  153.7318  144.4236  162.4792 H   0  0  0  0  0  0  0  0  0  0  0  0
  151.9989  145.1699  160.9208 H   0  0  0  0  0  0  0  0  0  0  0  0
  151.0763  143.6962  161.1258 H   0  0  0  0  0  0  0  0  0  0  0  0
  1  2  1  0  0  0  0
  1 19  1  0  0  0  0
  1 20  1  0  0  0  0
  1 21  1  0  0  0  0
  2  3  1  0  0  0  0
  2 13  1  0  0  0  0
  2 22  1  0  0  0  0
  3  4  1  0  0  0  0
  3 23  1  0  0  0  0
  3 24  1  0  0  0  0
  4  5  1  0  0  0  0
  4 25  1  0  0  0  0
  5  6  2  0  0  0  0
  5  7  1  0  0  0  0
  7  8  1  0  0  0  0
  7 26  1  0  0  0  0
  7 27  1  0  0  0  0
  8 12  1  0  0  0  0
  8  9  1  0  0  0  0
  9 10  2  0  0  0  0
  9 28  1  0  0  0  0
 10 11  1  0  0  0  0
 10 29  1  0  0  0  0
 11 12  2  0  0  0  0
 11 30  1  0  0  0  0
 13 18  1  0  0  0  0
 13 14  1  0  0  0  0
 14 15  1  0  0  0  0
 14 31  1  0  0  0  0
 14 32  1  0  0  0  0
 15 16  1  0  0  0  0
 15 33  1  0  0  0  0
 15 34  1  0  0  0  0
 16 17  1  0  0  0  0
 17 18  1  0  0  0  0
 17 35  1  0  0  0  0
 17 36  1  0  0  0  0
 18 37  1  0  0  0  0
 18 38  1  0  0  0  0
M  END
> <s_m_source_file>
AV-unprocessed.smi

> <i_m_source_file_index>
1420

> <i_lp_mmshare_version>
43012

> <i_f3d_flags>
0

> <s_epik_input>
W0NIMl0xW0NIMl1PW0NIMl1bQ0gyXU4xW0NASF0oW0NIM10pW0NIMl1bTkhdQyg9TylbQ0gyXW4yW2NIXVtjSF1bY0hdbjI=

> <s_epik_cmdline>
J2VwaWtfcHl0aG9uJywgJy1waCcsICc3LjAnLCAnLXRuJywgJzgnLCAnLW1hJywgJzIwMCcsICctbWV0YWxfYmluZGluZycsICctaW1hZScsICc8aW5maWxlLm1hZT4nLCAnLW9tYWUnLCAnPG91dGZpbGUubWFlPic=

> <r_lp_tautomer_probability>
1

> <r_epik_Ionization_Penalty>
0.196927

> <r_epik_Ionization_Penalty_Charging>
0

> <r_epik_Ionization_Penalty_Neutral>
0.196927

> <r_epik_State_Penalty>
0.186684

> <r_epik_Charging_Adjusted_Penalty>
0.186684

> <i_epik_Tot_Q>
0

> <i_epik_Tot_abs_Q>
0

> <r_epik_Metal_State_Penalty>
0.186682

> <b_epik_Metal_Only>
0

> <s_lp_Force_Field>
OPLS_2005

> <r_lp_Energy>
27.7246

> <b_lp_Chiralities_Consistent>
1

> <s_lp_Variant>
AV-unprocessed.smi:1420-1

> <Gold.Version>
5.8.1

> <Gold.Id.Protein>
6NUR|6NUR_protein|mol2

> <Gold.PLP.Fitness>
42.6022

> <Gold.PLP.PLP>
-36.8867

> <Gold.PLP.part.hbond>
-1.0000

> <Gold.PLP.part.metal>
0.0000

> <Gold.PLP.part.buried>
-3.6268

> <Gold.PLP.part.nonpolar>
-31.4823

> <Gold.PLP.part.repulsive>
0.1661

> <Gold.PLP.ligand.clash>
0.0000

> <Gold.PLP.ligand.torsion>
0.1618

> <Gold.PLP.Chemscore.Hbond>
0.9920

> <Gold.PLP.Chemscore.CHOScore>
1.0000

> <Gold.PLP.Chemscore.Metal>
0.0000

> <Gold.Chemscore.Hbonds>
donor molecule, donor type, donor heavy atom, donor atom, acceptor molecule, acceptor atom, score
      L1  H     4    25       P1  8028  1.00
      L1  C     9    28       P1  7957  0.97

> <Gold.PLP.Chemscore.Internal.Correction>
0.0631

> <Gold.Rescore>
     Score         DG    S(hbond)    S(metal)    S(lipo)     H(rot)  DE(clash)    DE(int)     intcor
     14.25     -15.98       0.89        0.00     105.16       1.87       0.35       1.38       ----

> <Gold.Chemscore.Fitness>
14.2486

> <Gold.Chemscore.DG>
-15.9828

> <Gold.Chemscore.ZeroCoef>
-5.4800

> <Gold.Chemscore.Hbond>
0.8918

> <Gold.Chemscore.Metal>
0.0000

> <Gold.Chemscore.Lipo>
105.1579

> <Gold.Chemscore.Internal_Hbond>
0.0000

> <Gold.Chemscore.DEClash>
0.3543

> <Gold.Chemscore.DEInternal>
1.3800

> <Gold.Chemscore.Rot>
1.8669

> <Gold.Chemscore.Internal.Correction>
   9.000000E+99

> <Gold.Chemscore.Hbonds>
donor molecule, donor type, donor heavy atom, donor atom, acceptor molecule, acceptor atom, score
      L1  H     4    25       P1  8028  0.91

> <Gold.Chemscore.Hbond.Weighted>
-2.9785

> <Gold.Chemscore.Metal.Weighted>
-0.0000

> <Gold.Chemscore.Lipo.Weighted>
-12.3035

> <Gold.Chemscore.Internal_Hbond.Weighted>
0.0000

> <Gold.Chemscore.DEClash.Weighted>
0.3543

> <Gold.Chemscore.DEInternal.Weighted>
1.3800

> <Gold.Chemscore.Rot.Weighted>
4.7792

> <Gold.Chemscore.Internal.Correction.Weighted>
   9.000000E+99

> <Gold.Protein.RotatedTorsions>
[ 6907 6896 6895 6894 ] final  175.15 input  -60.11 | X-H torsion
[ 7974 7965 7964 7962 ] final -150.31 input  175.53 | X-H torsion
[ 8008 7997 7996 7995 ] final  150.71 input   59.86 | X-H torsion
[ 10167 10162 10161 10158 ] final -152.88 input  -65.29 | X-H torsion
[ 10718 10713 10712 10709 ] final  116.42 input   66.30 | X-H torsion
[ 10763 10752 10751 10750 ] final -129.83 input  -60.55 | X-H torsion
[ 11005 11000 10999 10996 ] final  115.07 input  -57.11 | X-H torsion

> <Gold.Protein.ActiveResidues>
 VAL166  LYS551  ARG553  GLY616  TRP617  ASP618  TYR619  PRO620  LYS621  CYS622 
 ASP623  PHE694  ASN695  SER759  ASP760  ASP761  ALA762  ILE779  LEU786  VAL792 
 PHE793  MET794  SER795  GLU796  ALA797  LYS798  CYS799  TRP800  GLU811  SER814 

> <Gold.Protein.RotatedAtoms>
  151.7409  133.3322  159.3365 H   0  0  0  0  0  0  0  0  0  0  0  0  # atno 6907 bound_to 6896
  150.7574  134.6279  159.6180 H   0  0  0  0  0  0  0  0  0  0  0  0  # atno 6908 bound_to 6896
  152.3531  134.6980  160.0282 H   0  0  0  0  0  0  0  0  0  0  0  0  # atno 6909 bound_to 6896
  144.7915  140.4948  143.5769 H   0  0  0  0  0  0  0  0  0  0  0  0  # atno 7974 bound_to 7965
  156.2704  140.2067  156.6061 H   0  0  0  0  0  0  0  0  0  0  0  0  # atno 8008 bound_to 7997
  154.6868  140.0534  157.0347 H   0  0  0  0  0  0  0  0  0  0  0  0  # atno 8009 bound_to 7997
  155.0922  140.3197  155.4573 H   0  0  0  0  0  0  0  0  0  0  0  0  # atno 8010 bound_to 7997
  139.7144  143.9056  152.2480 H   0  0  0  0  0  0  0  0  0  0  0  0  # atno 10167 bound_to 10162
  157.6161  131.1025  150.7470 H   0  0  0  0  0  0  0  0  0  0  0  0  # atno 10718 bound_to 10713
  154.8757  135.3882  154.3984 H   0  0  0  0  0  0  0  0  0  0  0  0  # atno 10763 bound_to 10752
  153.4711  135.7030  153.5998 H   0  0  0  0  0  0  0  0  0  0  0  0  # atno 10764 bound_to 10752
  153.4454  135.3846  155.2221 H   0  0  0  0  0  0  0  0  0  0  0  0  # atno 10765 bound_to 10752
  139.8999  134.9578  156.6989 H   0  0  0  0  0  0  0  0  0  0  0  0  # atno 11005 bound_to 11000
  145.5783  139.1487  143.3250 LP  0  0  0  0  0  0  0  0  0  0  0  0  # atno 17320 bound_to 7965
  146.2168  140.5913  142.9035 LP  0  0  0  0  0  0  0  0  0  0  0  0  # atno 17321 bound_to 7965
  139.8935  144.6952  150.8744 LP  0  0  0  0  0  0  0  0  0  0  0  0  # atno 17342 bound_to 10162
  140.7740  143.3568  151.1905 LP  0  0  0  0  0  0  0  0  0  0  0  0  # atno 17343 bound_to 10162
  156.7837  130.4867  149.5396 LP  0  0  0  0  0  0  0  0  0  0  0  0  # atno 17370 bound_to 10713
  156.1284  130.6160  151.0298 LP  0  0  0  0  0  0  0  0  0  0  0  0  # atno 17371 bound_to 10713
  140.7166  133.9177  155.8119 LP  0  0  0  0  0  0  0  0  0  0  0  0  # atno 17394 bound_to 11000
  141.0260  134.0823  157.4068 LP  0  0  0  0  0  0  0  0  0  0  0  0  # atno 17395 bound_to 11000

$$$$
