AV-unprocessed.smi:1560|AV-procd|sdf|6276|dock7
  -GOLD-   22720 6473D 1   1.00000     0.00000
 Structure written by MMmdl.
 47 48  0  0  0  0  0  0  0  0  1 V2000
  152.3208  138.5588  155.0063 C   0  0  0  0  0  0  0  0  0  0  0  0
  150.8442  138.9890  154.9417 C   0  0  0  0  0  0  0  0  0  0  0  0
  150.3427  139.8622  156.1366 C   0  0  2  0  0  0  0  0  0  0  0  0
  151.3135  141.0718  156.2318 C   0  0  0  0  0  0  0  0  0  0  0  0
  150.4790  139.0202  157.4442 C   0  0  0  0  0  0  0  0  0  0  0  0
  149.4963  137.9446  157.5176 N   0  0  0  0  0  0  0  0  0  0  0  0
  149.4711  136.9525  158.4214 C   0  0  0  0  0  0  0  0  0  0  0  0
  150.3277  136.8212  159.2947 O   0  0  0  0  0  0  0  0  0  0  0  0
  148.3087  135.9464  158.3483 C   0  0  0  0  0  0  0  0  0  0  0  0
  147.7518  135.5612  159.6567 N   0  0  0  0  0  0  0  0  0  0  0  0
  147.5995  134.2207  159.9822 C   0  0  0  0  0  0  0  0  0  0  0  0
  147.0658  133.7930  161.1507 C   0  0  0  0  0  0  0  0  0  0  0  0
  146.6119  134.7531  162.1509 C   0  0  0  0  0  0  0  0  0  0  0  0
  146.1128  134.4644  163.2360 O   0  0  0  0  0  0  0  0  0  0  0  0
  146.7831  136.0916  161.7877 N   0  0  0  0  0  0  0  0  0  0  0  0
  147.3332  136.5395  160.5858 C   0  0  0  0  0  0  0  0  0  0  0  0
  147.4282  137.7451  160.3606 O   0  0  0  0  0  0  0  0  0  0  0  0
  148.9449  140.3280  155.9117 N   0  0  0  0  0  0  0  0  0  0  0  0
  148.7274  141.0756  154.6676 C   0  0  0  0  0  0  0  0  0  0  0  0
  147.2400  141.3949  154.4402 C   0  0  0  0  0  0  0  0  0  0  0  0
  146.7286  142.1191  155.5524 O   0  0  0  0  0  0  0  0  0  0  0  0
  146.8695  141.4068  156.7759 C   0  0  0  0  0  0  0  0  0  0  0  0
  148.3537  141.0861  157.0215 C   0  0  0  0  0  0  0  0  0  0  0  0
  146.4824  136.7925  162.4496 H   0  0  0  0  0  0  0  0  0  0  0  0
  152.5809  137.9594  154.1339 H   0  0  0  0  0  0  0  0  0  0  0  0
  152.5278  137.9524  155.8874 H   0  0  0  0  0  0  0  0  0  0  0  0
  152.9933  139.4163  155.0230 H   0  0  0  0  0  0  0  0  0  0  0  0
  150.6695  139.5045  153.9973 H   0  0  0  0  0  0  0  0  0  0  0  0
  150.2463  138.0802  154.8660 H   0  0  0  0  0  0  0  0  0  0  0  0
  152.3585  140.7689  156.1536 H   0  0  0  0  0  0  0  0  0  0  0  0
  151.2171  141.5978  157.1818 H   0  0  0  0  0  0  0  0  0  0  0  0
  151.1315  141.7976  155.4387 H   0  0  0  0  0  0  0  0  0  0  0  0
  151.4632  138.5577  157.5150 H   0  0  0  0  0  0  0  0  0  0  0  0
  150.3711  139.6607  158.3201 H   0  0  0  0  0  0  0  0  0  0  0  0
  148.7506  137.9727  156.8374 H   0  0  0  0  0  0  0  0  0  0  0  0
  147.5256  136.3806  157.7251 H   0  0  0  0  0  0  0  0  0  0  0  0
  148.6451  135.0622  157.8039 H   0  0  0  0  0  0  0  0  0  0  0  0
  147.9161  133.4739  159.2677 H   0  0  0  0  0  0  0  0  0  0  0  0
  146.9715  132.7344  161.3453 H   0  0  0  0  0  0  0  0  0  0  0  0
  149.2866  142.0109  154.6845 H   0  0  0  0  0  0  0  0  0  0  0  0
  149.0802  140.5105  153.8066 H   0  0  0  0  0  0  0  0  0  0  0  0
  147.1148  141.9940  153.5381 H   0  0  0  0  0  0  0  0  0  0  0  0
  146.6660  140.4777  154.2984 H   0  0  0  0  0  0  0  0  0  0  0  0
  146.4745  142.0163  157.5886 H   0  0  0  0  0  0  0  0  0  0  0  0
  146.2764  140.4915  156.7444 H   0  0  0  0  0  0  0  0  0  0  0  0
  148.4248  140.5321  157.9556 H   0  0  0  0  0  0  0  0  0  0  0  0
  148.8907  142.0231  157.1680 H   0  0  0  0  0  0  0  0  0  0  0  0
  1  2  1  0  0  0  0
  1 25  1  0  0  0  0
  1 26  1  0  0  0  0
  1 27  1  0  0  0  0
  2  3  1  0  0  0  0
  2 28  1  0  0  0  0
  2 29  1  0  0  0  0
  3  4  1  0  0  0  0
  3  5  1  0  0  0  0
  3 18  1  0  0  0  0
  4 30  1  0  0  0  0
  4 31  1  0  0  0  0
  4 32  1  0  0  0  0
  5  6  1  0  0  0  0
  5 33  1  0  0  0  0
  5 34  1  0  0  0  0
  6  7  1  0  0  0  0
  6 35  1  0  0  0  0
  7  8  2  0  0  0  0
  7  9  1  0  0  0  0
  9 10  1  0  0  0  0
  9 36  1  0  0  0  0
  9 37  1  0  0  0  0
 10 16  1  0  0  0  0
 10 11  1  0  0  0  0
 11 12  2  0  0  0  0
 11 38  1  0  0  0  0
 12 13  1  0  0  0  0
 12 39  1  0  0  0  0
 13 14  2  0  0  0  0
 13 15  1  0  0  0  0
 15 24  1  0  0  0  0
 15 16  1  0  0  0  0
 16 17  2  0  0  0  0
 18 23  1  0  0  0  0
 18 19  1  0  0  0  0
 19 20  1  0  0  0  0
 19 40  1  0  0  0  0
 19 41  1  0  0  0  0
 20 21  1  0  0  0  0
 20 42  1  0  0  0  0
 20 43  1  0  0  0  0
 21 22  1  0  0  0  0
 22 23  1  0  0  0  0
 22 44  1  0  0  0  0
 22 45  1  0  0  0  0
 23 46  1  0  0  0  0
 23 47  1  0  0  0  0
M  END
> <s_m_source_file>
AV-unprocessed.smi

> <i_m_source_file_index>
1560

> <i_lp_mmshare_version>
43012

> <i_f3d_flags>
0

> <s_epik_input>
W0NIMl0xW0NIMl1PW0NIMl1bQ0gyXU4xW0NAQF0oW0NIM10pKFtDSDJdW0NIM10pW0NIMl1bTkhdQyg9TylbQ0gyXW4yW2NIXVtjSF1jKD1PKVtuSF1jMj1P

> <s_epik_cmdline>
J2VwaWtfcHl0aG9uJywgJy1waCcsICc3LjAnLCAnLXRuJywgJzgnLCAnLW1hJywgJzIwMCcsICctbWV0YWxfYmluZGluZycsICctaW1hZScsICc8aW5maWxlLm1hZT4nLCAnLW9tYWUnLCAnPG91dGZpbGUubWFlPic=

> <r_lp_tautomer_probability>
0.999537

> <r_epik_Ionization_Penalty>
0.321965

> <r_epik_Ionization_Penalty_Charging>
0.00329831

> <r_epik_Ionization_Penalty_Neutral>
0.318667

> <r_epik_State_Penalty>
0.288097

> <r_epik_Charging_Adjusted_Penalty>
0.291396

> <i_epik_Tot_Q>
0

> <i_epik_Tot_abs_Q>
0

> <r_epik_Metal_State_Penalty>
0.654595

> <b_epik_Metal_Only>
0

> <s_lp_Force_Field>
OPLS_2005

> <r_lp_Energy>
43.0709

> <b_lp_Chiralities_Consistent>
1

> <s_lp_Variant>
AV-unprocessed.smi:1560-2

> <Gold.Version>
5.8.1

> <Gold.Id.Protein>
6NUR|6NUR_protein|mol2

> <Gold.PLP.Fitness>
40.0909

> <Gold.PLP.PLP>
-34.2992

> <Gold.PLP.part.hbond>
-3.9013

> <Gold.PLP.part.metal>
0.0000

> <Gold.PLP.part.buried>
-5.9809

> <Gold.PLP.part.nonpolar>
-25.6390

> <Gold.PLP.part.repulsive>
0.3017

> <Gold.PLP.ligand.clash>
0.0000

> <Gold.PLP.ligand.torsion>
0.4749

> <Gold.PLP.Chemscore.Hbond>
2.2121

> <Gold.PLP.Chemscore.CHOScore>
0.0000

> <Gold.PLP.Chemscore.Metal>
0.0000

> <Gold.Chemscore.Hbonds>
donor molecule, donor type, donor heavy atom, donor atom, acceptor molecule, acceptor atom, score
      P1  H  6896  6908       L1     8  1.00
      P1  H  6931  6943       L1    17  0.18
      P1  H  6934  6947       L1    17  0.69

> <Gold.PLP.Chemscore.Internal.Correction>
0.1051

> <Gold.Rescore>
     Score         DG    S(hbond)    S(metal)    S(lipo)     H(rot)  DE(clash)    DE(int)     intcor
     12.45     -12.78       1.94        0.00      61.47       2.49       0.02       0.31       ----

> <Gold.Chemscore.Fitness>
12.4475

> <Gold.Chemscore.DG>
-12.7758

> <Gold.Chemscore.ZeroCoef>
-5.4800

> <Gold.Chemscore.Hbond>
1.9366

> <Gold.Chemscore.Metal>
0.0000

> <Gold.Chemscore.Lipo>
61.4708

> <Gold.Chemscore.Internal_Hbond>
0.0000

> <Gold.Chemscore.DEClash>
0.0174

> <Gold.Chemscore.DEInternal>
0.3109

> <Gold.Chemscore.Rot>
2.4862

> <Gold.Chemscore.Internal.Correction>
   9.000000E+99

> <Gold.Chemscore.Hbonds>
donor molecule, donor type, donor heavy atom, donor atom, acceptor molecule, acceptor atom, score
      P1  H  6896  6908       L1     8  0.96
      P1  H  6931  6943       L1    17  0.04
      P1  H  6934  6947       L1    17  0.65

> <Gold.Chemscore.Hbond.Weighted>
-6.4684

> <Gold.Chemscore.Metal.Weighted>
-0.0000

> <Gold.Chemscore.Lipo.Weighted>
-7.1921

> <Gold.Chemscore.Internal_Hbond.Weighted>
0.0000

> <Gold.Chemscore.DEClash.Weighted>
0.0174

> <Gold.Chemscore.DEInternal.Weighted>
0.3109

> <Gold.Chemscore.Rot.Weighted>
6.3646

> <Gold.Chemscore.Internal.Correction.Weighted>
   9.000000E+99

> <Gold.Protein.RotatedTorsions>
[ 6907 6896 6895 6894 ] final -143.60 input  -60.11 | X-H torsion
[ 7974 7965 7964 7962 ] final   -0.44 input  175.53 | X-H torsion
[ 8008 7997 7996 7995 ] final  -72.82 input   59.86 | X-H torsion
[ 10167 10162 10161 10158 ] final   70.55 input  -65.29 | X-H torsion
[ 10718 10713 10712 10709 ] final  -64.54 input   66.30 | X-H torsion
[ 10763 10752 10751 10750 ] final   11.45 input  -60.55 | X-H torsion
[ 11005 11000 10999 10996 ] final  -35.34 input  -57.11 | X-H torsion

> <Gold.Protein.ActiveResidues>
 VAL166  LYS551  ARG553  GLY616  TRP617  ASP618  TYR619  PRO620  LYS621  CYS622 
 ASP623  PHE694  ASN695  SER759  ASP760  ASP761  ALA762  ILE779  LEU786  VAL792 
 PHE793  MET794  SER795  GLU796  ALA797  LYS798  CYS799  TRP800  GLU811  SER814 

> <Gold.Protein.RotatedAtoms>
  151.1026  133.5232  159.2609 H   0  0  0  0  0  0  0  0  0  0  0  0  # atno 6907 bound_to 6896
  151.2057  135.0460  159.8900 H   0  0  0  0  0  0  0  0  0  0  0  0  # atno 6908 bound_to 6896
  152.5444  134.0849  159.8305 H   0  0  0  0  0  0  0  0  0  0  0  0  # atno 6909 bound_to 6896
  146.2427  140.1270  142.8339 H   0  0  0  0  0  0  0  0  0  0  0  0  # atno 7974 bound_to 7965
  154.5197  140.0790  156.8148 H   0  0  0  0  0  0  0  0  0  0  0  0  # atno 8008 bound_to 7997
  155.3603  140.3417  155.4222 H   0  0  0  0  0  0  0  0  0  0  0  0  # atno 8009 bound_to 7997
  156.1667  140.1606  156.8506 H   0  0  0  0  0  0  0  0  0  0  0  0  # atno 8010 bound_to 7997
  140.0557  144.5274  150.7330 H   0  0  0  0  0  0  0  0  0  0  0  0  # atno 10167 bound_to 10162
  156.0723  130.4235  150.1435 H   0  0  0  0  0  0  0  0  0  0  0  0  # atno 10718 bound_to 10713
  153.1925  135.6844  153.8334 H   0  0  0  0  0  0  0  0  0  0  0  0  # atno 10763 bound_to 10752
  153.7628  135.3207  155.3341 H   0  0  0  0  0  0  0  0  0  0  0  0  # atno 10764 bound_to 10752
  154.8125  135.4707  154.0654 H   0  0  0  0  0  0  0  0  0  0  0  0  # atno 10765 bound_to 10752
  140.9788  133.7068  156.1648 H   0  0  0  0  0  0  0  0  0  0  0  0  # atno 11005 bound_to 11000
  145.0358  140.8906  143.5082 LP  0  0  0  0  0  0  0  0  0  0  0  0  # atno 17320 bound_to 7965
  145.1342  139.2612  143.5523 LP  0  0  0  0  0  0  0  0  0  0  0  0  # atno 17321 bound_to 7965
  140.7196  143.2576  151.4323 LP  0  0  0  0  0  0  0  0  0  0  0  0  # atno 17342 bound_to 10162
  139.5925  144.1468  152.2105 LP  0  0  0  0  0  0  0  0  0  0  0  0  # atno 17343 bound_to 10162
  156.9483  130.9766  151.3503 LP  0  0  0  0  0  0  0  0  0  0  0  0  # atno 17370 bound_to 10713
  157.5800  130.8370  149.8509 LP  0  0  0  0  0  0  0  0  0  0  0  0  # atno 17371 bound_to 10713
  140.7218  134.4350  157.5574 LP  0  0  0  0  0  0  0  0  0  0  0  0  # atno 17394 bound_to 11000
  139.8941  134.8713  156.2190 LP  0  0  0  0  0  0  0  0  0  0  0  0  # atno 17395 bound_to 11000

$$$$
