AV-unprocessed.smi:1196|AV-procd|sdf|5005|dock2
  -GOLD-   22720 4 13D 1   1.00000     0.00000
 Structure written by MMmdl.
 36 37  0  0  0  0  0  0  0  0  2 V2000
  150.0776  141.5848  157.3677 C   0  0  0  0  0  0  0  0  0  0  0  0
  151.6087  141.4954  157.4232 C   0  0  1  0  0  0  0  0  0  0  0  0
  152.1352  141.7602  158.8492 C   0  0  0  0  0  0  0  0  0  0  0  0
  152.1981  143.1757  159.1690 N   0  0  0  0  0  0  0  0  0  0  0  0
  152.3402  144.2426  158.3071 C   0  0  0  0  0  0  0  0  0  0  0  0
  152.3583  145.3780  159.0653 C   0  0  0  0  0  0  0  0  0  0  0  0
  152.2138  144.8972  160.3968 C   0  0  0  0  0  0  0  0  0  0  0  0
  152.1145  143.5789  160.4557 N   0  0  0  0  0  0  0  0  0  0  0  0
  152.0244  140.1758  156.9485 N   0  0  0  0  0  0  0  0  0  0  0  0
  151.6284  139.5906  155.8066 C   0  0  0  0  0  0  0  0  0  0  0  0
  150.8528  140.1171  155.0084 O   0  0  0  0  0  0  0  0  0  0  0  0
  152.2101  138.2049  155.5173 C   0  0  0  0  0  0  0  0  0  0  0  0
  151.1294  137.1796  155.1257 C   0  0  0  0  0  0  0  0  0  0  0  0
  150.5352  136.4407  156.3412 C   0  0  2  0  0  0  0  0  0  0  0  0
  149.7250  137.3275  157.1481 N   0  0  0  0  0  0  0  0  0  0  0  0
  150.1691  137.3839  158.4023 C   0  0  0  0  0  0  0  0  0  0  0  0
  149.6067  138.0644  159.2574 O   0  0  0  0  0  0  0  0  0  0  0  0
  151.2677  136.6167  158.5408 N   0  5  0  0  0  0  0  0  0  0  0  0
  151.5807  136.0160  157.3722 C   0  0  0  0  0  0  0  0  0  0  0  0
  152.5007  135.2486  157.0935 O   0  0  0  0  0  0  0  0  0  0  0  0
  149.7309  142.5678  157.6875 H   0  0  0  0  0  0  0  0  0  0  0  0
  149.6112  140.8410  158.0149 H   0  0  0  0  0  0  0  0  0  0  0  0
  149.7112  141.4217  156.3536 H   0  0  0  0  0  0  0  0  0  0  0  0
  151.9981  142.2689  156.7587 H   0  0  0  0  0  0  0  0  0  0  0  0
  151.4811  141.2860  159.5818 H   0  0  0  0  0  0  0  0  0  0  0  0
  153.1230  141.3153  158.9824 H   0  0  0  0  0  0  0  0  0  0  0  0
  152.4228  144.1055  157.2390 H   0  0  0  0  0  0  0  0  0  0  0  0
  152.4601  146.3964  158.7212 H   0  0  0  0  0  0  0  0  0  0  0  0
  152.1775  145.4627  161.3160 H   0  0  0  0  0  0  0  0  0  0  0  0
  152.6691  139.6669  157.5355 H   0  0  0  0  0  0  0  0  0  0  0  0
  152.9419  138.3055  154.7153 H   0  0  0  0  0  0  0  0  0  0  0  0
  152.7537  137.8463  156.3928 H   0  0  0  0  0  0  0  0  0  0  0  0
  150.3258  137.7002  154.6018 H   0  0  0  0  0  0  0  0  0  0  0  0
  151.5349  136.4562  154.4157 H   0  0  0  0  0  0  0  0  0  0  0  0
  149.9513  135.5723  156.0332 H   0  0  0  0  0  0  0  0  0  0  0  0
  148.9157  137.8183  156.7981 H   0  0  0  0  0  0  0  0  0  0  0  0
  1  2  1  0  0  0  0
  1 21  1  0  0  0  0
  1 22  1  0  0  0  0
  1 23  1  0  0  0  0
  2  3  1  0  0  0  0
  2  9  1  0  0  0  0
  2 24  1  0  0  0  0
  3  4  1  0  0  0  0
  3 25  1  0  0  0  0
  3 26  1  0  0  0  0
  4  8  1  0  0  0  0
  4  5  1  0  0  0  0
  5  6  2  0  0  0  0
  5 27  1  0  0  0  0
  6  7  1  0  0  0  0
  6 28  1  0  0  0  0
  7  8  2  0  0  0  0
  7 29  1  0  0  0  0
  9 10  1  0  0  0  0
  9 30  1  0  0  0  0
 10 11  2  0  0  0  0
 10 12  1  0  0  0  0
 12 13  1  0  0  0  0
 12 31  1  0  0  0  0
 12 32  1  0  0  0  0
 13 14  1  0  0  0  0
 13 33  1  0  0  0  0
 13 34  1  0  0  0  0
 14 19  1  0  0  0  0
 14 15  1  0  0  0  0
 14 35  1  0  0  0  0
 15 16  1  0  0  0  0
 15 36  1  0  0  0  0
 16 17  2  0  0  0  0
 16 18  1  0  0  0  0
 18 19  1  0  0  0  0
 19 20  2  0  0  0  0
M  CHG  1  18  -1
M  END
> <s_m_source_file>
AV-unprocessed.smi

> <i_m_source_file_index>
1196

> <i_lp_mmshare_version>
43012

> <i_f3d_flags>
0

> <s_epik_input>
bjFbY0hdW2NIXVtjSF1uMVtDSDJdW0NAQEhdKFtDSDNdKVtOSF1DKD1PKVtDSDJdW0NIMl1bQ0BASF0yW05IXUMoPU8pW05IXUMyPU8=

> <s_epik_cmdline>
J2VwaWtfcHl0aG9uJywgJy1waCcsICc3LjAnLCAnLXRuJywgJzgnLCAnLW1hJywgJzIwMCcsICctbWV0YWxfYmluZGluZycsICctaW1hZScsICc8aW5maWxlLm1hZT4nLCAnLW9tYWUnLCAnPG91dGZpbGUubWFlPic=

> <r_lp_tautomer_probability>
1

> <r_epik_Ionization_Penalty>
2.57056

> <r_epik_Ionization_Penalty_Charging>
2.57023

> <r_epik_Ionization_Penalty_Neutral>
0.000331301

> <r_epik_State_Penalty>
2.56828

> <r_epik_Charging_Adjusted_Penalty>
5.13851

> <i_epik_Tot_Q>
-1

> <i_epik_Tot_abs_Q>
1

> <r_epik_Metal_State_Penalty>
0.444883

> <b_epik_Metal_Only>
1

> <s_lp_Force_Field>
OPLS_2005

> <r_lp_Energy>
8.81211

> <b_lp_Chiralities_Consistent>
1

> <s_lp_Variant>
AV-unprocessed.smi:1196-10

> <Gold.Version>
5.8.1

> <Gold.Id.Protein>
6NUR|6NUR_protein|mol2

> <Gold.PLP.Fitness>
46.0983

> <Gold.PLP.PLP>
-37.7730

> <Gold.PLP.part.hbond>
-4.0561

> <Gold.PLP.part.metal>
0.0000

> <Gold.PLP.part.buried>
-6.6633

> <Gold.PLP.part.nonpolar>
-29.2565

> <Gold.PLP.part.repulsive>
0.2640

> <Gold.PLP.ligand.clash>
0.0000

> <Gold.PLP.ligand.torsion>
1.0128

> <Gold.PLP.Chemscore.Hbond>
3.4040

> <Gold.PLP.Chemscore.CHOScore>
0.0000

> <Gold.PLP.Chemscore.Metal>
0.0000

> <Gold.Chemscore.Hbonds>
donor molecule, donor type, donor heavy atom, donor atom, acceptor molecule, acceptor atom, score
      P1  H  6896  6907       L1    18  1.40
      P1  H  7989  7998       L1    11  1.00
      P1  H 10752 10764       L1    20  0.86

> <Gold.PLP.Chemscore.Internal.Correction>
0.1389

> <Gold.Rescore>
     Score         DG    S(hbond)    S(metal)    S(lipo)     H(rot)  DE(clash)    DE(int)     intcor
     12.20     -14.58       2.36        0.00      73.67       2.89       0.01       2.38       ----

> <Gold.Chemscore.Fitness>
12.1970

> <Gold.Chemscore.DG>
-14.5835

> <Gold.Chemscore.ZeroCoef>
-5.4800

> <Gold.Chemscore.Hbond>
2.3634

> <Gold.Chemscore.Metal>
0.0000

> <Gold.Chemscore.Lipo>
73.6747

> <Gold.Chemscore.Internal_Hbond>
0.0000

> <Gold.Chemscore.DEClash>
0.0089

> <Gold.Chemscore.DEInternal>
2.3776

> <Gold.Chemscore.Rot>
2.8946

> <Gold.Chemscore.Internal.Correction>
   9.000000E+99

> <Gold.Chemscore.Hbonds>
donor molecule, donor type, donor heavy atom, donor atom, acceptor molecule, acceptor atom, score
      P1  H  6896  6907       L1    18  0.18
      P1  H  7989  7998       L1    11  0.92
      P1  H 10752 10764       L1    20  0.73

> <Gold.Chemscore.Hbond.Weighted>
-7.8937

> <Gold.Chemscore.Metal.Weighted>
-0.0000

> <Gold.Chemscore.Lipo.Weighted>
-8.6199

> <Gold.Chemscore.Internal_Hbond.Weighted>
0.0000

> <Gold.Chemscore.DEClash.Weighted>
0.0089

> <Gold.Chemscore.DEInternal.Weighted>
2.3776

> <Gold.Chemscore.Rot.Weighted>
7.4101

> <Gold.Chemscore.Internal.Correction.Weighted>
   9.000000E+99

> <Gold.Protein.RotatedTorsions>
[ 6907 6896 6895 6894 ] final  -36.14 input  -60.11 | X-H torsion
[ 7974 7965 7964 7962 ] final  -75.93 input  175.53 | X-H torsion
[ 8008 7997 7996 7995 ] final   13.64 input   59.86 | X-H torsion
[ 10167 10162 10161 10158 ] final   65.85 input  -65.29 | X-H torsion
[ 10718 10713 10712 10709 ] final   47.68 input   66.30 | X-H torsion
[ 10763 10752 10751 10750 ] final  -23.79 input  -60.55 | X-H torsion
[ 11005 11000 10999 10996 ] final -148.05 input  -57.11 | X-H torsion

> <Gold.Protein.ActiveResidues>
 VAL166  LYS551  ARG553  GLY616  TRP617  ASP618  TYR619  PRO620  LYS621  CYS622 
 ASP623  PHE694  ASN695  SER759  ASP760  ASP761  ALA762  ILE779  LEU786  VAL792 
 PHE793  MET794  SER795  GLU796  ALA797  LYS798  CYS799  TRP800  GLU811  SER814 

> <Gold.Protein.RotatedAtoms>
  151.0309  134.9538  159.8110 H   0  0  0  0  0  0  0  0  0  0  0  0  # atno 6907 bound_to 6896
  152.5345  134.2781  159.9007 H   0  0  0  0  0  0  0  0  0  0  0  0  # atno 6908 bound_to 6896
  151.2791  133.4176  159.2660 H   0  0  0  0  0  0  0  0  0  0  0  0  # atno 6909 bound_to 6896
  145.6196  140.9366  143.1145 H   0  0  0  0  0  0  0  0  0  0  0  0  # atno 7974 bound_to 7965
  154.8373  140.2909  155.5682 H   0  0  0  0  0  0  0  0  0  0  0  0  # atno 8008 bound_to 7997
  156.3009  140.2520  156.3241 H   0  0  0  0  0  0  0  0  0  0  0  0  # atno 8009 bound_to 7997
  154.9164  140.0387  157.1963 H   0  0  0  0  0  0  0  0  0  0  0  0  # atno 8010 bound_to 7997
  140.1068  144.4854  150.7003 H   0  0  0  0  0  0  0  0  0  0  0  0  # atno 10167 bound_to 10162
  157.4610  130.8196  149.7886 H   0  0  0  0  0  0  0  0  0  0  0  0  # atno 10718 bound_to 10713
  153.6734  135.6970  153.5140 H   0  0  0  0  0  0  0  0  0  0  0  0  # atno 10763 bound_to 10752
  153.2540  135.4266  155.0826 H   0  0  0  0  0  0  0  0  0  0  0  0  # atno 10764 bound_to 10752
  154.8420  135.3538  154.6278 H   0  0  0  0  0  0  0  0  0  0  0  0  # atno 10765 bound_to 10752
  140.7653  134.3252  157.5090 H   0  0  0  0  0  0  0  0  0  0  0  0  # atno 11005 bound_to 11000
  144.7236  139.7947  143.7373 LP  0  0  0  0  0  0  0  0  0  0  0  0  # atno 17320 bound_to 7965
  146.1441  139.4506  143.0090 LP  0  0  0  0  0  0  0  0  0  0  0  0  # atno 17321 bound_to 7965
  140.6948  143.2397  151.5032 LP  0  0  0  0  0  0  0  0  0  0  0  0  # atno 17342 bound_to 10162
  139.5641  144.2085  152.1737 LP  0  0  0  0  0  0  0  0  0  0  0  0  # atno 17343 bound_to 10162
  156.0028  130.3871  150.2540 LP  0  0  0  0  0  0  0  0  0  0  0  0  # atno 17370 bound_to 10713
  157.0717  131.0119  151.3187 LP  0  0  0  0  0  0  0  0  0  0  0  0  # atno 17371 bound_to 10713
  139.8764  134.9227  156.3307 LP  0  0  0  0  0  0  0  0  0  0  0  0  # atno 17394 bound_to 11000
  140.9625  133.7379  156.0421 LP  0  0  0  0  0  0  0  0  0  0  0  0  # atno 17395 bound_to 11000

$$$$
