AV-unprocessed.smi:243|AV-procd|sdf|1854|dock7
  -GOLD-   2262020483D 1   1.00000     0.00000
 Structure written by MMmdl.
 58 61  0  0  0  0  0  0  0  0  2 V2000
  145.9245  129.6189  151.9829 C   0  0  0  0  0  0  0  0  0  0  0  0
  145.4271  130.9056  151.3087 C   0  0  0  0  0  0  0  0  0  0  0  0
  146.4636  131.9723  151.2749 N   0  3  2  0  0  0  0  0  0  0  0  0
  146.9125  132.4030  152.6234 C   0  0  0  0  0  0  0  0  0  0  0  0
  145.8579  133.2776  153.3203 C   0  0  0  0  0  0  0  0  0  0  0  0
  145.4951  134.5045  152.4578 C   0  0  2  0  0  0  0  0  0  0  0  0
  144.4869  135.3486  153.1150 N   0  0  0  0  0  0  0  0  0  0  0  0
  143.1140  134.8737  153.2734 C   0  0  0  0  0  0  0  0  0  0  0  0
  144.8766  136.3888  153.9032 C   0  0  0  0  0  0  0  0  0  0  0  0
  144.5173  136.4026  155.2152 N   0  0  0  0  0  0  0  0  0  0  0  0
  144.8753  137.4149  156.0096 C   0  0  0  0  0  0  0  0  0  0  0  0
  145.5875  138.5002  155.7061 N   0  0  0  0  0  0  0  0  0  0  0  0
  145.9658  138.4925  154.3965 C   0  0  0  0  0  0  0  0  0  0  0  0
  145.6546  137.4892  153.4338 C   0  0  0  0  0  0  0  0  0  0  0  0
  146.2185  137.8284  152.2086 N   0  0  0  0  0  0  0  0  0  0  0  0
  146.8153  138.9668  152.4310 C   0  0  0  0  0  0  0  0  0  0  0  0
  146.7237  139.4345  153.7219 N   0  0  0  0  0  0  0  0  0  0  0  0
  147.2939  140.6661  154.2466 C   0  0  0  0  0  0  0  0  0  0  0  0
  148.8360  140.6352  154.3721 C   0  0  2  0  0  0  0  0  0  0  0  0
  149.4102  141.1466  153.1819 O   0  0  0  0  0  0  0  0  0  0  0  0
  149.3803  139.2306  154.6009 C   0  0  0  0  0  0  0  0  0  0  0  0
  150.6567  139.4881  155.3899 C   0  0  0  0  0  0  0  0  0  0  0  0
  150.2811  140.5400  156.2622 O   0  0  0  0  0  0  0  0  0  0  0  0
  149.4071  141.4258  155.5681 C   0  0  0  0  0  0  0  0  0  0  0  0
  145.0654  134.0668  151.0348 C   0  0  1  0  0  0  0  0  0  0  0  0
  144.8161  135.2734  150.1129 C   0  0  0  0  0  0  0  0  0  0  0  0
  146.1365  133.1406  150.4132 C   0  0  0  0  0  0  0  0  0  0  0  0
  145.1089  128.9029  152.0873 H   0  0  0  0  0  0  0  0  0  0  0  0
  146.3145  129.8212  152.9808 H   0  0  0  0  0  0  0  0  0  0  0  0
  146.7081  129.1293  151.4055 H   0  0  0  0  0  0  0  0  0  0  0  0
  145.0533  130.6894  150.3081 H   0  0  0  0  0  0  0  0  0  0  0  0
  144.5713  131.2666  151.8804 H   0  0  0  0  0  0  0  0  0  0  0  0
  147.1569  131.5352  153.2369 H   0  0  0  0  0  0  0  0  0  0  0  0
  147.8391  132.9684  152.5159 H   0  0  0  0  0  0  0  0  0  0  0  0
  144.9718  132.6798  153.5329 H   0  0  0  0  0  0  0  0  0  0  0  0
  146.2420  133.6021  154.2876 H   0  0  0  0  0  0  0  0  0  0  0  0
  146.4044  135.0915  152.3223 H   0  0  0  0  0  0  0  0  0  0  0  0
  142.7653  135.0046  154.2986 H   0  0  0  0  0  0  0  0  0  0  0  0
  143.0227  133.8152  153.0331 H   0  0  0  0  0  0  0  0  0  0  0  0
  142.4470  135.4226  152.6083 H   0  0  0  0  0  0  0  0  0  0  0  0
  144.5447  137.3453  157.0355 H   0  0  0  0  0  0  0  0  0  0  0  0
  147.3453  139.4967  151.6529 H   0  0  0  0  0  0  0  0  0  0  0  0
  146.9876  141.4845  153.5937 H   0  0  0  0  0  0  0  0  0  0  0  0
  146.8414  140.8668  155.2188 H   0  0  0  0  0  0  0  0  0  0  0  0
  149.3227  140.4959  152.5022 H   0  0  0  0  0  0  0  0  0  0  0  0
  148.6916  138.6538  155.2198 H   0  0  0  0  0  0  0  0  0  0  0  0
  149.5489  138.6686  153.6812 H   0  0  0  0  0  0  0  0  0  0  0  0
  150.9988  138.6112  155.9400 H   0  0  0  0  0  0  0  0  0  0  0  0
  151.4625  139.8232  154.7351 H   0  0  0  0  0  0  0  0  0  0  0  0
  149.9493  142.3190  155.2531 H   0  0  0  0  0  0  0  0  0  0  0  0
  148.6312  141.7430  156.2639 H   0  0  0  0  0  0  0  0  0  0  0  0
  144.1310  133.5097  151.0959 H   0  0  0  0  0  0  0  0  0  0  0  0
  145.7097  135.8910  150.0173 H   0  0  0  0  0  0  0  0  0  0  0  0
  144.0134  135.9079  150.4893 H   0  0  0  0  0  0  0  0  0  0  0  0
  144.5279  134.9487  149.1130 H   0  0  0  0  0  0  0  0  0  0  0  0
  147.0563  133.7071  150.2596 H   0  0  0  0  0  0  0  0  0  0  0  0
  145.8276  132.8100  149.4221 H   0  0  0  0  0  0  0  0  0  0  0  0
  147.2704  131.5342  150.8536 H   0  0  0  0  0  0  0  0  0  0  0  0
  1  2  1  0  0  0  0
  1 28  1  0  0  0  0
  1 29  1  0  0  0  0
  1 30  1  0  0  0  0
  2  3  1  0  0  0  0
  2 31  1  0  0  0  0
  2 32  1  0  0  0  0
  3 27  1  0  0  0  0
  3  4  1  0  0  0  0
  3 58  1  0  0  0  0
  4  5  1  0  0  0  0
  4 33  1  0  0  0  0
  4 34  1  0  0  0  0
  5  6  1  0  0  0  0
  5 35  1  0  0  0  0
  5 36  1  0  0  0  0
  6  7  1  0  0  0  0
  6 25  1  0  0  0  0
  6 37  1  0  0  0  0
  7  8  1  0  0  0  0
  7  9  1  0  0  0  0
  8 38  1  0  0  0  0
  8 39  1  0  0  0  0
  8 40  1  0  0  0  0
  9 14  1  0  0  0  0
  9 10  2  0  0  0  0
 10 11  1  0  0  0  0
 11 12  2  0  0  0  0
 11 41  1  0  0  0  0
 12 13  1  0  0  0  0
 13 17  1  0  0  0  0
 13 14  2  0  0  0  0
 14 15  1  0  0  0  0
 15 16  2  0  0  0  0
 16 17  1  0  0  0  0
 16 42  1  0  0  0  0
 17 18  1  0  0  0  0
 18 19  1  0  0  0  0
 18 43  1  0  0  0  0
 18 44  1  0  0  0  0
 19 24  1  0  0  0  0
 19 20  1  0  0  0  0
 19 21  1  0  0  0  0
 20 45  1  0  0  0  0
 21 22  1  0  0  0  0
 21 46  1  0  0  0  0
 21 47  1  0  0  0  0
 22 23  1  0  0  0  0
 22 48  1  0  0  0  0
 22 49  1  0  0  0  0
 23 24  1  0  0  0  0
 24 50  1  0  0  0  0
 24 51  1  0  0  0  0
 25 26  1  0  0  0  0
 25 27  1  0  0  0  0
 25 52  1  0  0  0  0
 26 53  1  0  0  0  0
 26 54  1  0  0  0  0
 26 55  1  0  0  0  0
 27 56  1  0  0  0  0
 27 57  1  0  0  0  0
M  CHG  1   3   1
M  END
> <s_m_source_file>
AV-unprocessed.smi

> <i_m_source_file_index>
243

> <i_lp_mmshare_version>
43012

> <i_f3d_flags>
0

> <s_epik_input>
W0NIM11bQ0gyXU4xW0NIMl1bQ0gyXVtDQEhdKFtDQEBIXShbQ0gzXSlbQ0gyXTEpTihbQ0gzXSljKG5bY0hdbjIpYyhjMjMpbltjSF1uM1tDSDJdW0NAQF00KFtPSF0pW0NIMl1bQ0gyXU9bQ0gyXTQ=

> <s_epik_cmdline>
J2VwaWtfcHl0aG9uJywgJy1waCcsICc3LjAnLCAnLXRuJywgJzgnLCAnLW1hJywgJzIwMCcsICctbWV0YWxfYmluZGluZycsICctaW1hZScsICc8aW5maWxlLm1hZT4nLCAnLW9tYWUnLCAnPG91dGZpbGUubWFlPic=

> <r_lp_tautomer_probability>
1

> <r_epik_Ionization_Penalty>
0.00253099

> <r_epik_Ionization_Penalty_Charging>
0.00137877

> <r_epik_Ionization_Penalty_Neutral>
0.00115221

> <r_epik_State_Penalty>
-0

> <r_epik_Charging_Adjusted_Penalty>
0.00137877

> <i_epik_Tot_Q>
1

> <i_epik_Tot_abs_Q>
1

> <r_epik_Metal_State_Penalty>
-0

> <b_epik_Metal_Only>
0

> <s_lp_Force_Field>
OPLS_2005

> <r_lp_Energy>
46.0239

> <b_lp_Chiralities_Consistent>
1

> <s_lp_Variant>
AV-unprocessed.smi:243-7

> <Gold.Version>
5.8.1

> <Gold.Id.Protein>
6NUR|6NUR_protein|mol2

> <Gold.PLP.Fitness>
47.5573

> <Gold.PLP.PLP>
-39.6000

> <Gold.PLP.part.hbond>
-3.3003

> <Gold.PLP.part.metal>
0.0000

> <Gold.PLP.part.buried>
-5.3675

> <Gold.PLP.part.nonpolar>
-32.8336

> <Gold.PLP.part.repulsive>
0.3748

> <Gold.PLP.ligand.clash>
0.0000

> <Gold.PLP.ligand.torsion>
2.0713

> <Gold.PLP.Chemscore.Hbond>
2.8687

> <Gold.PLP.Chemscore.CHOScore>
1.0000

> <Gold.PLP.Chemscore.Metal>
0.0000

> <Gold.Chemscore.Hbonds>
donor molecule, donor type, donor heavy atom, donor atom, acceptor molecule, acceptor atom, score
      L1  H     3    58       P1 10747  1.00
      L1  H    20    45       P1  7957  0.77
      P1  H  7989  7998       L1    20  0.04
      P1  H  8011  8017       L1    20  1.00
      L1  C    16    42       P1  7957  1.00

> <Gold.PLP.Chemscore.Internal.Correction>
0.4939

> <Gold.Rescore>
     Score         DG    S(hbond)    S(metal)    S(lipo)     H(rot)  DE(clash)    DE(int)     intcor
     15.98     -18.62       2.30        0.00      95.56       2.24       1.04       1.59       ----

> <Gold.Chemscore.Fitness>
15.9818

> <Gold.Chemscore.DG>
-18.6183

> <Gold.Chemscore.ZeroCoef>
-5.4800

> <Gold.Chemscore.Hbond>
2.3016

> <Gold.Chemscore.Metal>
0.0000

> <Gold.Chemscore.Lipo>
95.5558

> <Gold.Chemscore.Internal_Hbond>
0.0000

> <Gold.Chemscore.DEClash>
1.0428

> <Gold.Chemscore.DEInternal>
1.5937

> <Gold.Chemscore.Rot>
2.2379

> <Gold.Chemscore.Internal.Correction>
   9.000000E+99

> <Gold.Chemscore.Hbonds>
donor molecule, donor type, donor heavy atom, donor atom, acceptor molecule, acceptor atom, score
      L1  H     3    58       P1 10747  1.00
      L1  H    20    45       P1  7957  0.72
      P1  H  8011  8017       L1    20  0.25

> <Gold.Chemscore.Hbond.Weighted>
-7.6874

> <Gold.Chemscore.Metal.Weighted>
-0.0000

> <Gold.Chemscore.Lipo.Weighted>
-11.1800

> <Gold.Chemscore.Internal_Hbond.Weighted>
0.0000

> <Gold.Chemscore.DEClash.Weighted>
1.0428

> <Gold.Chemscore.DEInternal.Weighted>
1.5937

> <Gold.Chemscore.Rot.Weighted>
5.7291

> <Gold.Chemscore.Internal.Correction.Weighted>
   9.000000E+99

> <Gold.Protein.RotatedTorsions>
[ 6907 6896 6895 6894 ] final    0.39 input  -60.11 | X-H torsion
[ 7974 7965 7964 7962 ] final  127.69 input  175.53 | X-H torsion
[ 8008 7997 7996 7995 ] final   97.89 input   59.86 | X-H torsion
[ 10167 10162 10161 10158 ] final   82.83 input  -65.29 | X-H torsion
[ 10718 10713 10712 10709 ] final   25.33 input   66.30 | X-H torsion
[ 10763 10752 10751 10750 ] final  -12.67 input  -60.55 | X-H torsion
[ 11005 11000 10999 10996 ] final  154.02 input  -57.11 | X-H torsion

> <Gold.Protein.ActiveResidues>
 VAL166  LYS551  ARG553  GLY616  TRP617  ASP618  TYR619  PRO620  LYS621  CYS622 
 ASP623  PHE694  ASN695  SER759  ASP760  ASP761  ALA762  ILE779  LEU786  VAL792 
 PHE793  MET794  SER795  GLU796  ALA797  LYS798  CYS799  TRP800  GLU811  SER814 

> <Gold.Protein.RotatedAtoms>
  151.5757  135.1060  160.0005 H   0  0  0  0  0  0  0  0  0  0  0  0  # atno 6907 bound_to 6896
  152.4379  133.7390  159.6641 H   0  0  0  0  0  0  0  0  0  0  0  0  # atno 6908 bound_to 6896
  150.8279  133.8070  159.3134 H   0  0  0  0  0  0  0  0  0  0  0  0  # atno 6909 bound_to 6896
  145.0477  139.3909  143.5069 H   0  0  0  0  0  0  0  0  0  0  0  0  # atno 7974 bound_to 7965
  156.0948  140.3252  155.7863 H   0  0  0  0  0  0  0  0  0  0  0  0  # atno 8008 bound_to 7997
  155.4936  140.0563  157.2967 H   0  0  0  0  0  0  0  0  0  0  0  0  # atno 8009 bound_to 7997
  154.4659  140.1989  156.0134 H   0  0  0  0  0  0  0  0  0  0  0  0  # atno 8010 bound_to 7997
  139.9247  144.6190  150.8405 H   0  0  0  0  0  0  0  0  0  0  0  0  # atno 10167 bound_to 10162
  157.1918  130.6850  149.6153 H   0  0  0  0  0  0  0  0  0  0  0  0  # atno 10718 bound_to 10713
  153.5019  135.7017  153.5827 H   0  0  0  0  0  0  0  0  0  0  0  0  # atno 10763 bound_to 10752
  153.3955  135.3885  155.1952 H   0  0  0  0  0  0  0  0  0  0  0  0  # atno 10764 bound_to 10752
  154.8710  135.3868  154.4490 H   0  0  0  0  0  0  0  0  0  0  0  0  # atno 10765 bound_to 10752
  140.1451  134.8713  157.2382 H   0  0  0  0  0  0  0  0  0  0  0  0  # atno 11005 bound_to 11000
  146.3515  140.0111  142.8667 LP  0  0  0  0  0  0  0  0  0  0  0  0  # atno 17320 bound_to 7965
  145.1566  140.9651  143.4401 LP  0  0  0  0  0  0  0  0  0  0  0  0  # atno 17321 bound_to 7965
  140.7653  143.3272  151.2489 LP  0  0  0  0  0  0  0  0  0  0  0  0  # atno 17342 bound_to 10162
  139.6832  143.9818  152.2820 LP  0  0  0  0  0  0  0  0  0  0  0  0  # atno 17343 bound_to 10162
  155.9711  130.4612  150.6100 LP  0  0  0  0  0  0  0  0  0  0  0  0  # atno 17370 bound_to 10713
  157.3853  131.0787  151.1442 LP  0  0  0  0  0  0  0  0  0  0  0  0  # atno 17371 bound_to 10713
  140.2674  134.3500  155.7385 LP  0  0  0  0  0  0  0  0  0  0  0  0  # atno 17394 bound_to 11000
  141.2191  133.7403  156.9171 LP  0  0  0  0  0  0  0  0  0  0  0  0  # atno 17395 bound_to 11000

$$$$
