AV-unprocessed.smi:3128|AV-procd|sdf|11920|dock6
  -GOLD-   2272017303D 1   1.00000     0.00000
 Structure written by MMmdl.
 39 39  0  0  0  0  0  0  0  0  1 V2000
  146.4492  143.0573  153.7480 C   0  0  0  0  0  0  0  0  0  0  0  0
  147.1651  141.9646  154.5624 C   0  0  0  0  0  0  0  0  0  0  0  0
  148.4875  141.5912  153.8644 C   0  0  0  0  0  0  0  0  0  0  0  0
  146.2624  140.7279  154.8145 C   0  0  2  0  0  0  0  0  0  0  0  0
  146.8581  139.7365  155.8338 C   0  0  0  0  0  0  0  0  0  0  0  0
  146.0178  140.0191  153.5596 N   0  0  0  0  0  0  0  0  0  0  0  0
  146.8520  139.1386  152.9852 C   0  0  0  0  0  0  0  0  0  0  0  0
  147.9269  138.7994  153.4790 O   0  0  0  0  0  0  0  0  0  0  0  0
  146.4222  138.5691  151.6300 C   0  0  0  0  0  0  0  0  0  0  0  0
  145.4050  137.5162  151.7527 N   0  0  0  0  0  0  0  0  0  0  0  0
  145.8452  136.2204  151.2442 C   0  0  0  0  0  0  0  0  0  0  0  0
  144.6299  135.3897  150.8036 C   0  0  0  0  0  0  0  0  0  0  0  0
  144.9175  133.9663  150.8312 N   0  0  0  0  0  0  0  0  0  0  0  0
  144.0778  132.9149  150.5298 C   0  0  0  0  0  0  0  0  0  0  0  0
  144.7838  131.7626  150.7251 C   0  0  0  0  0  0  0  0  0  0  0  0
  146.0627  132.2179  151.1517 C   0  0  0  0  0  0  0  0  0  0  0  0
  146.1403  133.5374  151.2133 N   0  0  0  0  0  0  0  0  0  0  0  0
  146.1041  142.6730  152.7875 H   0  0  0  0  0  0  0  0  0  0  0  0
  147.1157  143.8969  153.5481 H   0  0  0  0  0  0  0  0  0  0  0  0
  145.5869  143.4605  154.2778 H   0  0  0  0  0  0  0  0  0  0  0  0
  147.4231  142.3969  155.5302 H   0  0  0  0  0  0  0  0  0  0  0  0
  148.3037  141.1090  152.9037 H   0  0  0  0  0  0  0  0  0  0  0  0
  149.0911  140.9131  154.4676 H   0  0  0  0  0  0  0  0  0  0  0  0
  149.0966  142.4763  153.6786 H   0  0  0  0  0  0  0  0  0  0  0  0
  145.3069  141.0853  155.2030 H   0  0  0  0  0  0  0  0  0  0  0  0
  146.9488  140.1798  156.8247 H   0  0  0  0  0  0  0  0  0  0  0  0
  147.8468  139.3954  155.5254 H   0  0  0  0  0  0  0  0  0  0  0  0
  146.2262  138.8543  155.9431 H   0  0  0  0  0  0  0  0  0  0  0  0
  145.1592  140.2384  153.0758 H   0  0  0  0  0  0  0  0  0  0  0  0
  146.0031  139.3866  151.0428 H   0  0  0  0  0  0  0  0  0  0  0  0
  147.2822  138.1961  151.0711 H   0  0  0  0  0  0  0  0  0  0  0  0
  144.5370  137.7742  151.3058 H   0  0  0  0  0  0  0  0  0  0  0  0
  146.5157  136.3897  150.4014 H   0  0  0  0  0  0  0  0  0  0  0  0
  146.4101  135.6530  151.9834 H   0  0  0  0  0  0  0  0  0  0  0  0
  143.7649  135.5921  151.4365 H   0  0  0  0  0  0  0  0  0  0  0  0
  144.3437  135.6616  149.7867 H   0  0  0  0  0  0  0  0  0  0  0  0
  143.0576  133.0731  150.2124 H   0  0  0  0  0  0  0  0  0  0  0  0
  144.4380  130.7488  150.5883 H   0  0  0  0  0  0  0  0  0  0  0  0
  146.9306  131.6329  151.4179 H   0  0  0  0  0  0  0  0  0  0  0  0
  1  2  1  0  0  0  0
  1 18  1  0  0  0  0
  1 19  1  0  0  0  0
  1 20  1  0  0  0  0
  2  3  1  0  0  0  0
  2  4  1  0  0  0  0
  2 21  1  0  0  0  0
  3 22  1  0  0  0  0
  3 23  1  0  0  0  0
  3 24  1  0  0  0  0
  4  5  1  0  0  0  0
  4  6  1  0  0  0  0
  4 25  1  0  0  0  0
  5 26  1  0  0  0  0
  5 27  1  0  0  0  0
  5 28  1  0  0  0  0
  6  7  1  0  0  0  0
  6 29  1  0  0  0  0
  7  8  2  0  0  0  0
  7  9  1  0  0  0  0
  9 10  1  0  0  0  0
  9 30  1  0  0  0  0
  9 31  1  0  0  0  0
 10 11  1  0  0  0  0
 10 32  1  0  0  0  0
 11 12  1  0  0  0  0
 11 33  1  0  0  0  0
 11 34  1  0  0  0  0
 12 13  1  0  0  0  0
 12 35  1  0  0  0  0
 12 36  1  0  0  0  0
 13 17  1  0  0  0  0
 13 14  1  0  0  0  0
 14 15  2  0  0  0  0
 14 37  1  0  0  0  0
 15 16  1  0  0  0  0
 15 38  1  0  0  0  0
 16 17  2  0  0  0  0
 16 39  1  0  0  0  0
M  END
> <s_m_source_file>
AV-unprocessed.smi

> <i_m_source_file_index>
3128

> <i_lp_mmshare_version>
43012

> <i_f3d_flags>
0

> <s_epik_input>
W0NIM11bQ0hdKFtDSDNdKVtDQEhdKFtDSDNdKVtOSF1DKD1PKVtDSDJdW05IXVtDSDJdW0NIMl1uMVtjSF1bY0hdW2NIXW4x

> <s_epik_cmdline>
J2VwaWtfcHl0aG9uJywgJy1waCcsICc3LjAnLCAnLXRuJywgJzgnLCAnLW1hJywgJzIwMCcsICctbWV0YWxfYmluZGluZycsICctaW1hZScsICc8aW5maWxlLm1hZT4nLCAnLW9tYWUnLCAnPG91dGZpbGUubWFlPic=

> <r_lp_tautomer_probability>
1

> <r_epik_Ionization_Penalty>
0.724947

> <r_epik_Ionization_Penalty_Charging>
0

> <r_epik_Ionization_Penalty_Neutral>
0.724947

> <r_epik_State_Penalty>
0.747959

> <r_epik_Charging_Adjusted_Penalty>
0.747959

> <i_epik_Tot_Q>
0

> <i_epik_Tot_abs_Q>
0

> <r_epik_Metal_State_Penalty>
0.746178

> <b_epik_Metal_Only>
0

> <s_lp_Force_Field>
OPLS_2005

> <r_lp_Energy>
7.88811

> <b_lp_Chiralities_Consistent>
1

> <s_lp_Variant>
AV-unprocessed.smi:3128-3

> <Gold.Version>
5.8.1

> <Gold.Id.Protein>
6NUR|6NUR_protein|mol2

> <Gold.PLP.Fitness>
45.4295

> <Gold.PLP.PLP>
-35.7003

> <Gold.PLP.part.hbond>
-2.0000

> <Gold.PLP.part.metal>
0.0000

> <Gold.PLP.part.buried>
-3.5881

> <Gold.PLP.part.nonpolar>
-31.1169

> <Gold.PLP.part.repulsive>
0.3902

> <Gold.PLP.ligand.clash>
0.0000

> <Gold.PLP.ligand.torsion>
1.2231

> <Gold.PLP.Chemscore.Hbond>
2.0000

> <Gold.PLP.Chemscore.CHOScore>
2.0000

> <Gold.PLP.Chemscore.Metal>
0.0000

> <Gold.Chemscore.Hbonds>
donor molecule, donor type, donor heavy atom, donor atom, acceptor molecule, acceptor atom, score
      L1  H     6    29       P1 10175  1.00
      L1  H    10    32       P1 10171  0.85
      L1  C    14    37       P1 10186  0.97
      L1  C    16    39       P1 10747  1.00

> <Gold.PLP.Chemscore.Internal.Correction>
0.1755

> <Gold.Rescore>
     Score         DG    S(hbond)    S(metal)    S(lipo)     H(rot)  DE(clash)    DE(int)     intcor
     12.42     -15.49       1.98        0.00      75.99       2.15       0.14       2.94       ----

> <Gold.Chemscore.Fitness>
12.4155

> <Gold.Chemscore.DG>
-15.4939

> <Gold.Chemscore.ZeroCoef>
-5.4800

> <Gold.Chemscore.Hbond>
1.9832

> <Gold.Chemscore.Metal>
0.0000

> <Gold.Chemscore.Lipo>
75.9919

> <Gold.Chemscore.Internal_Hbond>
0.0000

> <Gold.Chemscore.DEClash>
0.1418

> <Gold.Chemscore.DEInternal>
2.9366

> <Gold.Chemscore.Rot>
2.1488

> <Gold.Chemscore.Internal.Correction>
   9.000000E+99

> <Gold.Chemscore.Hbonds>
donor molecule, donor type, donor heavy atom, donor atom, acceptor molecule, acceptor atom, score
      L1  H     6    29       P1 10175  0.98
      L1  H    10    32       P1 10171  0.83

> <Gold.Chemscore.Hbond.Weighted>
-6.6238

> <Gold.Chemscore.Metal.Weighted>
-0.0000

> <Gold.Chemscore.Lipo.Weighted>
-8.8911

> <Gold.Chemscore.Internal_Hbond.Weighted>
0.0000

> <Gold.Chemscore.DEClash.Weighted>
0.1418

> <Gold.Chemscore.DEInternal.Weighted>
2.9366

> <Gold.Chemscore.Rot.Weighted>
5.5010

> <Gold.Chemscore.Internal.Correction.Weighted>
   9.000000E+99

> <Gold.Protein.RotatedTorsions>
[ 6907 6896 6895 6894 ] final  145.44 input  -60.11 | X-H torsion
[ 7974 7965 7964 7962 ] final   93.77 input  175.53 | X-H torsion
[ 8008 7997 7996 7995 ] final  112.01 input   59.86 | X-H torsion
[ 10167 10162 10161 10158 ] final -151.84 input  -65.29 | X-H torsion
[ 10718 10713 10712 10709 ] final -178.12 input   66.30 | X-H torsion
[ 10763 10752 10751 10750 ] final  109.08 input  -60.55 | X-H torsion
[ 11005 11000 10999 10996 ] final  -51.50 input  -57.11 | X-H torsion

> <Gold.Protein.ActiveResidues>
 VAL166  LYS551  ARG553  GLY616  TRP617  ASP618  TYR619  PRO620  LYS621  CYS622 
 ASP623  PHE694  ASN695  SER759  ASP760  ASP761  ALA762  ILE779  LEU786  VAL792 
 PHE793  MET794  SER795  GLU796  ALA797  LYS798  CYS799  TRP800  GLU811  SER814 

> <Gold.Protein.RotatedAtoms>
  152.1808  133.4706  159.4957 H   0  0  0  0  0  0  0  0  0  0  0  0  # atno 6907 bound_to 6896
  150.6934  134.1835  159.4267 H   0  0  0  0  0  0  0  0  0  0  0  0  # atno 6908 bound_to 6896
  151.9746  135.0059  160.0605 H   0  0  0  0  0  0  0  0  0  0  0  0  # atno 6909 bound_to 6896
  145.4745  139.2280  143.2916 H   0  0  0  0  0  0  0  0  0  0  0  0  # atno 7974 bound_to 7965
  156.2163  140.3008  155.9847 H   0  0  0  0  0  0  0  0  0  0  0  0  # atno 8008 bound_to 7997
  155.2597  140.0429  157.3013 H   0  0  0  0  0  0  0  0  0  0  0  0  # atno 8009 bound_to 7997
  154.5773  140.2365  155.8113 H   0  0  0  0  0  0  0  0  0  0  0  0  # atno 8010 bound_to 7997
  139.7232  143.8923  152.2510 H   0  0  0  0  0  0  0  0  0  0  0  0  # atno 10167 bound_to 10162
  156.8396  130.9682  151.3101 H   0  0  0  0  0  0  0  0  0  0  0  0  # atno 10718 bound_to 10713
  153.4297  135.3791  155.2163 H   0  0  0  0  0  0  0  0  0  0  0  0  # atno 10763 bound_to 10752
  154.8749  135.3837  154.4283 H   0  0  0  0  0  0  0  0  0  0  0  0  # atno 10764 bound_to 10752
  153.4814  135.7088  153.5999 H   0  0  0  0  0  0  0  0  0  0  0  0  # atno 10765 bound_to 10752
  141.0874  133.6639  156.3886 H   0  0  0  0  0  0  0  0  0  0  0  0  # atno 11005 bound_to 11000
  146.2377  140.5526  142.8947 LP  0  0  0  0  0  0  0  0  0  0  0  0  # atno 17320 bound_to 7965
  144.7925  140.6060  143.6532 LP  0  0  0  0  0  0  0  0  0  0  0  0  # atno 17321 bound_to 7965
  139.8825  144.7009  150.8861 LP  0  0  0  0  0  0  0  0  0  0  0  0  # atno 17342 bound_to 10162
  140.7758  143.3649  151.1757 LP  0  0  0  0  0  0  0  0  0  0  0  0  # atno 17343 bound_to 10162
  157.6362  130.8769  149.9364 LP  0  0  0  0  0  0  0  0  0  0  0  0  # atno 17370 bound_to 10713
  156.0888  130.3665  150.0435 LP  0  0  0  0  0  0  0  0  0  0  0  0  # atno 17371 bound_to 10713
  140.5331  134.6193  157.5356 LP  0  0  0  0  0  0  0  0  0  0  0  0  # atno 17394 bound_to 11000
  139.9694  134.7317  156.0071 LP  0  0  0  0  0  0  0  0  0  0  0  0  # atno 17395 bound_to 11000

$$$$
