AV-unprocessed.smi:2304|AV-procd|sdf|9244|dock3
  -GOLD-   2272012463D 1   1.00000     0.00000
 Structure written by MMmdl.
 37 38  0  0  0  0  0  0  0  0  1 V2000
  146.5769  142.8299  154.0483 C   0  0  0  0  0  0  0  0  0  0  0  0
  146.9968  141.4936  154.2594 O   0  0  0  0  0  0  0  0  0  0  0  0
  148.2938  141.2407  153.7433 C   0  0  0  0  0  0  0  0  0  0  0  0
  149.2514  140.8222  154.8728 C   0  0  2  0  0  0  0  0  0  0  0  0
  149.4886  141.9802  155.7299 N   0  0  0  0  0  0  0  0  0  0  0  0
  150.2310  141.9851  156.8465 C   0  0  0  0  0  0  0  0  0  0  0  0
  150.8004  140.9872  157.2898 O   0  0  0  0  0  0  0  0  0  0  0  0
  150.2646  143.2099  157.4006 N   0  0  0  0  0  0  0  0  0  0  0  0
  150.9414  143.6222  158.5794 C   0  0  0  0  0  0  0  0  0  0  0  0
  150.7535  144.9768  158.9356 C   0  0  0  0  0  0  0  0  0  0  0  0
  151.3822  145.4833  160.0895 C   0  0  0  0  0  0  0  0  0  0  0  0
  152.1836  144.6217  160.8597 C   0  0  0  0  0  0  0  0  0  0  0  0
  152.3192  143.2854  160.4355 C   0  0  0  0  0  0  0  0  0  0  0  0
  153.1676  142.3026  161.2148 C   0  0  0  0  0  0  0  0  0  0  0  0
  151.7170  142.7996  159.3288 N   0  0  0  0  0  0  0  0  0  0  0  0
  150.5316  140.2030  154.3310 C   0  0  0  0  0  0  0  0  0  0  0  0
  150.5987  138.7474  153.9303 C   0  0  0  0  0  0  0  0  0  0  0  0
  151.3427  139.2293  155.1540 C   0  0  0  0  0  0  0  0  0  0  0  0
  145.5779  142.9681  154.4620 H   0  0  0  0  0  0  0  0  0  0  0  0
  146.5367  143.0678  152.9845 H   0  0  0  0  0  0  0  0  0  0  0  0
  147.2462  143.5364  154.5409 H   0  0  0  0  0  0  0  0  0  0  0  0
  148.2355  140.4491  152.9942 H   0  0  0  0  0  0  0  0  0  0  0  0
  148.6743  142.1335  153.2440 H   0  0  0  0  0  0  0  0  0  0  0  0
  148.7371  140.0563  155.4570 H   0  0  0  0  0  0  0  0  0  0  0  0
  149.0581  142.8473  155.4441 H   0  0  0  0  0  0  0  0  0  0  0  0
  149.7473  143.9324  156.9224 H   0  0  0  0  0  0  0  0  0  0  0  0
  150.1342  145.6256  158.3331 H   0  0  0  0  0  0  0  0  0  0  0  0
  151.2512  146.5158  160.3779 H   0  0  0  0  0  0  0  0  0  0  0  0
  152.6793  144.9795  161.7502 H   0  0  0  0  0  0  0  0  0  0  0  0
  153.5203  142.7386  162.1501 H   0  0  0  0  0  0  0  0  0  0  0  0
  154.0370  142.0053  160.6277 H   0  0  0  0  0  0  0  0  0  0  0  0
  152.5916  141.4082  161.4538 H   0  0  0  0  0  0  0  0  0  0  0  0
  151.1075  140.8844  153.7076 H   0  0  0  0  0  0  0  0  0  0  0  0
  149.7145  138.1339  154.0919 H   0  0  0  0  0  0  0  0  0  0  0  0
  151.1859  138.4966  153.0493 H   0  0  0  0  0  0  0  0  0  0  0  0
  152.4265  139.3009  155.0903 H   0  0  0  0  0  0  0  0  0  0  0  0
  150.9514  138.9299  156.1243 H   0  0  0  0  0  0  0  0  0  0  0  0
  1  2  1  0  0  0  0
  1 19  1  0  0  0  0
  1 20  1  0  0  0  0
  1 21  1  0  0  0  0
  2  3  1  0  0  0  0
  3  4  1  0  0  0  0
  3 22  1  0  0  0  0
  3 23  1  0  0  0  0
  4  5  1  0  0  0  0
  4 16  1  0  0  0  0
  4 24  1  0  0  0  0
  5  6  1  0  0  0  0
  5 25  1  0  0  0  0
  6  7  2  0  0  0  0
  6  8  1  0  0  0  0
  8  9  1  0  0  0  0
  8 26  1  0  0  0  0
  9 15  1  0  0  0  0
  9 10  2  0  0  0  0
 10 11  1  0  0  0  0
 10 27  1  0  0  0  0
 11 12  2  0  0  0  0
 11 28  1  0  0  0  0
 12 13  1  0  0  0  0
 12 29  1  0  0  0  0
 13 14  1  0  0  0  0
 13 15  2  0  0  0  0
 14 30  1  0  0  0  0
 14 31  1  0  0  0  0
 14 32  1  0  0  0  0
 16 18  1  0  0  0  0
 16 17  1  0  0  0  0
 16 33  1  0  0  0  0
 17 18  1  0  0  0  0
 17 34  1  0  0  0  0
 17 35  1  0  0  0  0
 18 36  1  0  0  0  0
 18 37  1  0  0  0  0
M  END
> <s_m_source_file>
AV-unprocessed.smi

> <i_m_source_file_index>
2304

> <i_lp_mmshare_version>
43012

> <i_f3d_flags>
0

> <s_epik_input>
W0NIM11PW0NIMl1bQ0BASF0oW0NIXTFbQ0gyXVtDSDJdMSlbTkhdQyg9TylbTkhdYzJbY0hdW2NIXVtjSF1jKG4yKVtDSDNd

> <s_epik_cmdline>
J2VwaWtfcHl0aG9uJywgJy1waCcsICc3LjAnLCAnLXRuJywgJzgnLCAnLW1hJywgJzIwMCcsICctbWV0YWxfYmluZGluZycsICctaW1hZScsICc8aW5maWxlLm1hZT4nLCAnLW9tYWUnLCAnPG91dGZpbGUubWFlPic=

> <r_lp_tautomer_probability>
1

> <r_epik_Ionization_Penalty>
8.58396e-05

> <r_epik_Ionization_Penalty_Charging>
0

> <r_epik_Ionization_Penalty_Neutral>
8.58396e-05

> <r_epik_State_Penalty>
-0

> <r_epik_Charging_Adjusted_Penalty>
0

> <i_epik_Tot_Q>
0

> <i_epik_Tot_abs_Q>
0

> <r_epik_Metal_State_Penalty>
-0

> <b_epik_Metal_Only>
0

> <s_lp_Force_Field>
OPLS_2005

> <r_lp_Energy>
16.2574

> <b_lp_Chiralities_Consistent>
1

> <s_lp_Variant>
AV-unprocessed.smi:2304-1

> <Gold.Version>
5.8.1

> <Gold.Id.Protein>
6NUR|6NUR_protein|mol2

> <Gold.PLP.Fitness>
47.4529

> <Gold.PLP.PLP>
-42.3382

> <Gold.PLP.part.hbond>
-2.0000

> <Gold.PLP.part.metal>
0.0000

> <Gold.PLP.part.buried>
-3.9678

> <Gold.PLP.part.nonpolar>
-36.8070

> <Gold.PLP.part.repulsive>
0.3036

> <Gold.PLP.ligand.clash>
0.0000

> <Gold.PLP.ligand.torsion>
0.9779

> <Gold.PLP.Chemscore.Hbond>
2.0000

> <Gold.PLP.Chemscore.CHOScore>
0.0000

> <Gold.PLP.Chemscore.Metal>
0.0000

> <Gold.Chemscore.Hbonds>
donor molecule, donor type, donor heavy atom, donor atom, acceptor molecule, acceptor atom, score
      L1  H     5    25       P1  8028  0.99
      L1  H     8    26       P1  8028  1.00

> <Gold.PLP.Chemscore.Internal.Correction>
1.0706

> <Gold.Rescore>
     Score         DG    S(hbond)    S(metal)    S(lipo)     H(rot)  DE(clash)    DE(int)     intcor
     14.98     -19.62       1.91        0.00     101.62       1.61       0.41       4.23       ----

> <Gold.Chemscore.Fitness>
14.9832

> <Gold.Chemscore.DG>
-19.6202

> <Gold.Chemscore.ZeroCoef>
-5.4800

> <Gold.Chemscore.Hbond>
1.9112

> <Gold.Chemscore.Metal>
0.0000

> <Gold.Chemscore.Lipo>
101.6167

> <Gold.Chemscore.Internal_Hbond>
0.0000

> <Gold.Chemscore.DEClash>
0.4063

> <Gold.Chemscore.DEInternal>
4.2307

> <Gold.Chemscore.Rot>
1.6142

> <Gold.Chemscore.Internal.Correction>
   9.000000E+99

> <Gold.Chemscore.Hbonds>
donor molecule, donor type, donor heavy atom, donor atom, acceptor molecule, acceptor atom, score
      L1  H     5    25       P1  8028  0.94
      L1  H     8    26       P1  8028  0.92

> <Gold.Chemscore.Hbond.Weighted>
-6.3833

> <Gold.Chemscore.Metal.Weighted>
-0.0000

> <Gold.Chemscore.Lipo.Weighted>
-11.8891

> <Gold.Chemscore.Internal_Hbond.Weighted>
0.0000

> <Gold.Chemscore.DEClash.Weighted>
0.4063

> <Gold.Chemscore.DEInternal.Weighted>
4.2307

> <Gold.Chemscore.Rot.Weighted>
4.1323

> <Gold.Chemscore.Internal.Correction.Weighted>
   9.000000E+99

> <Gold.Protein.RotatedTorsions>
[ 6907 6896 6895 6894 ] final  -24.86 input  -60.11 | X-H torsion
[ 7974 7965 7964 7962 ] final -121.25 input  175.53 | X-H torsion
[ 8008 7997 7996 7995 ] final  116.20 input   59.86 | X-H torsion
[ 10167 10162 10161 10158 ] final  -95.69 input  -65.29 | X-H torsion
[ 10718 10713 10712 10709 ] final   33.32 input   66.30 | X-H torsion
[ 10763 10752 10751 10750 ] final -172.37 input  -60.55 | X-H torsion
[ 11005 11000 10999 10996 ] final -174.21 input  -57.11 | X-H torsion

> <Gold.Protein.ActiveResidues>
 VAL166  LYS551  ARG553  GLY616  TRP617  ASP618  TYR619  PRO620  LYS621  CYS622 
 ASP623  PHE694  ASN695  SER759  ASP760  ASP761  ALA762  ILE779  LEU786  VAL792 
 PHE793  MET794  SER795  GLU796  ALA797  LYS798  CYS799  TRP800  GLU811  SER814 

> <Gold.Protein.RotatedAtoms>
  151.1835  135.0371  159.8801 H   0  0  0  0  0  0  0  0  0  0  0  0  # atno 6907 bound_to 6896
  152.5443  134.1037  159.8339 H   0  0  0  0  0  0  0  0  0  0  0  0  # atno 6908 bound_to 6896
  151.1156  133.5094  159.2636 H   0  0  0  0  0  0  0  0  0  0  0  0  # atno 6909 bound_to 6896
  145.0424  140.8155  143.4258 H   0  0  0  0  0  0  0  0  0  0  0  0  # atno 7974 bound_to 7965
  156.2425  140.2922  156.0486 H   0  0  0  0  0  0  0  0  0  0  0  0  # atno 8008 bound_to 7997
  155.1907  140.0407  157.2917 H   0  0  0  0  0  0  0  0  0  0  0  0  # atno 8009 bound_to 7997
  154.6197  140.2472  155.7572 H   0  0  0  0  0  0  0  0  0  0  0  0  # atno 8010 bound_to 7997
  140.3015  143.3159  152.0243 H   0  0  0  0  0  0  0  0  0  0  0  0  # atno 10167 bound_to 10162
  157.2963  130.7328  149.6640 H   0  0  0  0  0  0  0  0  0  0  0  0  # atno 10718 bound_to 10713
  154.6200  135.2874  155.0337 H   0  0  0  0  0  0  0  0  0  0  0  0  # atno 10763 bound_to 10752
  154.1535  135.6499  153.4973 H   0  0  0  0  0  0  0  0  0  0  0  0  # atno 10764 bound_to 10752
  153.0232  135.5361  154.6986 H   0  0  0  0  0  0  0  0  0  0  0  0  # atno 10765 bound_to 10752
  140.4771  134.6111  157.4905 H   0  0  0  0  0  0  0  0  0  0  0  0  # atno 11005 bound_to 11000
  145.1631  139.2447  143.5381 LP  0  0  0  0  0  0  0  0  0  0  0  0  # atno 17320 bound_to 7965
  146.3510  140.1363  142.8596 LP  0  0  0  0  0  0  0  0  0  0  0  0  # atno 17321 bound_to 7965
  139.4914  144.6452  151.6793 LP  0  0  0  0  0  0  0  0  0  0  0  0  # atno 17342 bound_to 10162
  140.5647  144.0210  150.6186 LP  0  0  0  0  0  0  0  0  0  0  0  0  # atno 17343 bound_to 10162
  155.9669  130.4293  150.4828 LP  0  0  0  0  0  0  0  0  0  0  0  0  # atno 17370 bound_to 10713
  157.2800  131.0605  151.2204 LP  0  0  0  0  0  0  0  0  0  0  0  0  # atno 17371 bound_to 10713
  139.9849  134.7077  155.9791 LP  0  0  0  0  0  0  0  0  0  0  0  0  # atno 17394 bound_to 11000
  141.1549  133.6544  156.4130 LP  0  0  0  0  0  0  0  0  0  0  0  0  # atno 17395 bound_to 11000

$$$$
