AV-unprocessed.smi:3250|AV-procd|sdf|12427|dock6
  -GOLD-   2272018313D 1   1.00000     0.00000
 Structure written by MMmdl.
 39 40  0  0  0  0  0  0  0  0  2 V2000
  148.4361  136.5704  155.4211 C   0  0  0  0  0  0  0  0  0  0  0  0
  147.6436  137.7597  154.8614 C   0  0  0  0  0  0  0  0  0  0  0  0
  148.4040  138.5037  153.8227 N   0  3  1  0  0  0  0  0  0  0  0  0
  147.6180  139.5336  153.0966 C   0  0  0  0  0  0  0  0  0  0  0  0
  147.4542  140.8156  153.9353 C   0  0  0  0  0  0  0  0  0  0  0  0
  148.7317  141.2922  154.3414 O   0  0  0  0  0  0  0  0  0  0  0  0
  149.4308  140.3551  155.1533 C   0  0  2  0  0  0  0  0  0  0  0  0
  150.7379  141.0230  155.6142 C   0  0  0  0  0  0  0  0  0  0  0  0
  150.5105  142.2857  156.3056 N   0  0  0  0  0  0  0  0  0  0  0  0
  151.1500  142.6749  157.4688 C   0  0  0  0  0  0  0  0  0  0  0  0
  151.1120  143.9821  157.7346 N   0  0  0  0  0  0  0  0  0  0  0  0
  151.7216  144.3962  158.8669 C   0  0  0  0  0  0  0  0  0  0  0  0
  152.3727  143.4943  159.7320 C   0  0  0  0  0  0  0  0  0  0  0  0
  152.3545  142.1366  159.3546 C   0  0  0  0  0  0  0  0  0  0  0  0
  152.9724  141.1998  160.1564 O   0  0  0  0  0  0  0  0  0  0  0  0
  153.6747  141.6592  161.3061 C   0  0  0  0  0  0  0  0  0  0  0  0
  151.7400  141.7338  158.2143 N   0  0  0  0  0  0  0  0  0  0  0  0
  149.6779  139.0789  154.3188 C   0  0  0  0  0  0  0  0  0  0  0  0
  147.8913  136.0982  156.2387 H   0  0  0  0  0  0  0  0  0  0  0  0
  149.4026  136.8903  155.8118 H   0  0  0  0  0  0  0  0  0  0  0  0
  148.6143  135.8041  154.6672 H   0  0  0  0  0  0  0  0  0  0  0  0
  146.6788  137.4285  154.4771 H   0  0  0  0  0  0  0  0  0  0  0  0
  147.4258  138.4306  155.6933 H   0  0  0  0  0  0  0  0  0  0  0  0
  148.1501  139.7772  152.1761 H   0  0  0  0  0  0  0  0  0  0  0  0
  146.6463  139.1476  152.7911 H   0  0  0  0  0  0  0  0  0  0  0  0
  146.9662  141.5882  153.3410 H   0  0  0  0  0  0  0  0  0  0  0  0
  146.8210  140.6457  154.8070 H   0  0  0  0  0  0  0  0  0  0  0  0
  148.8189  140.1247  156.0268 H   0  0  0  0  0  0  0  0  0  0  0  0
  151.2851  140.3552  156.2797 H   0  0  0  0  0  0  0  0  0  0  0  0
  151.3885  141.2003  154.7568 H   0  0  0  0  0  0  0  0  0  0  0  0
  149.8577  142.9409  155.9001 H   0  0  0  0  0  0  0  0  0  0  0  0
  151.6903  145.4536  159.0840 H   0  0  0  0  0  0  0  0  0  0  0  0
  152.8581  143.8269  160.6378 H   0  0  0  0  0  0  0  0  0  0  0  0
  154.1151  140.8076  161.8248 H   0  0  0  0  0  0  0  0  0  0  0  0
  153.0061  142.1638  162.0052 H   0  0  0  0  0  0  0  0  0  0  0  0
  154.4857  142.3367  161.0352 H   0  0  0  0  0  0  0  0  0  0  0  0
  150.2299  138.3329  154.8920 H   0  0  0  0  0  0  0  0  0  0  0  0
  150.3012  139.3232  153.4574 H   0  0  0  0  0  0  0  0  0  0  0  0
  148.6648  137.8061  153.1401 H   0  0  0  0  0  0  0  0  0  0  0  0
  1  2  1  0  0  0  0
  1 19  1  0  0  0  0
  1 20  1  0  0  0  0
  1 21  1  0  0  0  0
  2  3  1  0  0  0  0
  2 22  1  0  0  0  0
  2 23  1  0  0  0  0
  3 18  1  0  0  0  0
  3  4  1  0  0  0  0
  3 39  1  0  0  0  0
  4  5  1  0  0  0  0
  4 24  1  0  0  0  0
  4 25  1  0  0  0  0
  5  6  1  0  0  0  0
  5 26  1  0  0  0  0
  5 27  1  0  0  0  0
  6  7  1  0  0  0  0
  7  8  1  0  0  0  0
  7 18  1  0  0  0  0
  7 28  1  0  0  0  0
  8  9  1  0  0  0  0
  8 29  1  0  0  0  0
  8 30  1  0  0  0  0
  9 10  1  0  0  0  0
  9 31  1  0  0  0  0
 10 17  1  0  0  0  0
 10 11  2  0  0  0  0
 11 12  1  0  0  0  0
 12 13  2  0  0  0  0
 12 32  1  0  0  0  0
 13 14  1  0  0  0  0
 13 33  1  0  0  0  0
 14 15  1  0  0  0  0
 14 17  2  0  0  0  0
 15 16  1  0  0  0  0
 16 34  1  0  0  0  0
 16 35  1  0  0  0  0
 16 36  1  0  0  0  0
 18 37  1  0  0  0  0
 18 38  1  0  0  0  0
M  CHG  1   3   1
M  END
> <s_m_source_file>
AV-unprocessed.smi

> <i_m_source_file_index>
3250

> <i_lp_mmshare_version>
43012

> <i_f3d_flags>
0

> <s_epik_input>
W0NIM11bQ0gyXU4xW0NIMl1bQ0gyXU9bQ0BIXShbQ0gyXTEpW0NIMl1bTkhdYzJuW2NIXVtjSF1jKG4yKU9bQ0gzXQ==

> <s_epik_cmdline>
J2VwaWtfcHl0aG9uJywgJy1waCcsICc3LjAnLCAnLXRuJywgJzgnLCAnLW1hJywgJzIwMCcsICctbWV0YWxfYmluZGluZycsICctaW1hZScsICc8aW5maWxlLm1hZT4nLCAnLW9tYWUnLCAnPG91dGZpbGUubWFlPic=

> <r_lp_tautomer_probability>
1

> <r_epik_Ionization_Penalty>
0.19684

> <r_epik_Ionization_Penalty_Charging>
0.178504

> <r_epik_Ionization_Penalty_Neutral>
0.0183356

> <r_epik_State_Penalty>
0.162939

> <r_epik_Charging_Adjusted_Penalty>
0.341443

> <i_epik_Tot_Q>
1

> <i_epik_Tot_abs_Q>
1

> <r_epik_Metal_State_Penalty>
0.1608

> <b_epik_Metal_Only>
0

> <s_lp_Force_Field>
OPLS_2005

> <r_lp_Energy>
9.61167

> <b_lp_Chiralities_Consistent>
1

> <s_lp_Variant>
AV-unprocessed.smi:3250-3

> <Gold.Version>
5.8.1

> <Gold.Id.Protein>
6NUR|6NUR_protein|mol2

> <Gold.PLP.Fitness>
40.7093

> <Gold.PLP.PLP>
-32.2589

> <Gold.PLP.part.hbond>
-2.1812

> <Gold.PLP.part.metal>
0.0000

> <Gold.PLP.part.buried>
-3.2031

> <Gold.PLP.part.nonpolar>
-28.2539

> <Gold.PLP.part.repulsive>
0.7484

> <Gold.PLP.ligand.clash>
0.1456

> <Gold.PLP.ligand.torsion>
0.2257

> <Gold.PLP.Chemscore.Hbond>
3.0000

> <Gold.PLP.Chemscore.CHOScore>
0.0000

> <Gold.PLP.Chemscore.Metal>
0.0000

> <Gold.Chemscore.Hbonds>
donor molecule, donor type, donor heavy atom, donor atom, acceptor molecule, acceptor atom, score
      L1  H     3    39       P1  7948  2.00
      L1  H     9    31       P1  8028  0.98

> <Gold.PLP.Chemscore.Internal.Correction>
0.0474

> <Gold.Rescore>
     Score         DG    S(hbond)    S(metal)    S(lipo)     H(rot)  DE(clash)    DE(int)     intcor
     15.07     -15.66       1.87        0.00      71.08       1.71       0.40       0.19       ----

> <Gold.Chemscore.Fitness>
15.0671

> <Gold.Chemscore.DG>
-15.6558

> <Gold.Chemscore.ZeroCoef>
-5.4800

> <Gold.Chemscore.Hbond>
1.8693

> <Gold.Chemscore.Metal>
0.0000

> <Gold.Chemscore.Lipo>
71.0846

> <Gold.Chemscore.Internal_Hbond>
0.0000

> <Gold.Chemscore.DEClash>
0.3967

> <Gold.Chemscore.DEInternal>
0.1919

> <Gold.Chemscore.Rot>
1.7127

> <Gold.Chemscore.Internal.Correction>
   9.000000E+99

> <Gold.Chemscore.Hbonds>
donor molecule, donor type, donor heavy atom, donor atom, acceptor molecule, acceptor atom, score
      L1  H     3    39       P1  7948  0.93
      L1  H     9    31       P1  8028  0.90

> <Gold.Chemscore.Hbond.Weighted>
-6.2435

> <Gold.Chemscore.Metal.Weighted>
-0.0000

> <Gold.Chemscore.Lipo.Weighted>
-8.3169

> <Gold.Chemscore.Internal_Hbond.Weighted>
0.0000

> <Gold.Chemscore.DEClash.Weighted>
0.3967

> <Gold.Chemscore.DEInternal.Weighted>
0.1919

> <Gold.Chemscore.Rot.Weighted>
4.3846

> <Gold.Chemscore.Internal.Correction.Weighted>
   9.000000E+99

> <Gold.Protein.RotatedTorsions>
[ 6907 6896 6895 6894 ] final   80.03 input  -60.11 | X-H torsion
[ 7974 7965 7964 7962 ] final  -53.92 input  175.53 | X-H torsion
[ 8008 7997 7996 7995 ] final  -50.27 input   59.86 | X-H torsion
[ 10167 10162 10161 10158 ] final -123.44 input  -65.29 | X-H torsion
[ 10718 10713 10712 10709 ] final  -49.57 input   66.30 | X-H torsion
[ 10763 10752 10751 10750 ] final  -52.22 input  -60.55 | X-H torsion
[ 11005 11000 10999 10996 ] final -152.38 input  -57.11 | X-H torsion

> <Gold.Protein.ActiveResidues>
 VAL166  LYS551  ARG553  GLY616  TRP617  ASP618  TYR619  PRO620  LYS621  CYS622 
 ASP623  PHE694  ASN695  SER759  ASP760  ASP761  ALA762  ILE779  LEU786  VAL792 
 PHE793  MET794  SER795  GLU796  ALA797  LYS798  CYS799  TRP800  GLU811  SER814 

> <Gold.Protein.RotatedAtoms>
  152.5220  134.3420  159.9220 H   0  0  0  0  0  0  0  0  0  0  0  0  # atno 6907 bound_to 6896
  151.3370  133.3971  159.2675 H   0  0  0  0  0  0  0  0  0  0  0  0  # atno 6908 bound_to 6896
  150.9834  134.9202  159.7915 H   0  0  0  0  0  0  0  0  0  0  0  0  # atno 6909 bound_to 6896
  145.8914  140.8067  142.9789 H   0  0  0  0  0  0  0  0  0  0  0  0  # atno 7974 bound_to 7965
  154.4059  140.1276  156.4638 H   0  0  0  0  0  0  0  0  0  0  0  0  # atno 8008 bound_to 7997
  155.7247  140.3492  155.5012 H   0  0  0  0  0  0  0  0  0  0  0  0  # atno 8009 bound_to 7997
  155.9182  140.1048  157.1217 H   0  0  0  0  0  0  0  0  0  0  0  0  # atno 8010 bound_to 7997
  140.0035  143.5516  152.2293 H   0  0  0  0  0  0  0  0  0  0  0  0  # atno 10167 bound_to 10162
  156.1881  130.4152  149.9410 H   0  0  0  0  0  0  0  0  0  0  0  0  # atno 10718 bound_to 10713
  154.1392  135.6508  153.4938 H   0  0  0  0  0  0  0  0  0  0  0  0  # atno 10763 bound_to 10752
  153.0171  135.5311  154.6922 H   0  0  0  0  0  0  0  0  0  0  0  0  # atno 10764 bound_to 10752
  154.6179  135.2961  155.0330 H   0  0  0  0  0  0  0  0  0  0  0  0  # atno 10765 bound_to 10752
  140.7195  134.3743  157.5185 H   0  0  0  0  0  0  0  0  0  0  0  0  # atno 11005 bound_to 11000
  144.6730  140.1536  143.7428 LP  0  0  0  0  0  0  0  0  0  0  0  0  # atno 17320 bound_to 7965
  145.8903  139.2372  143.1553 LP  0  0  0  0  0  0  0  0  0  0  0  0  # atno 17321 bound_to 7965
  139.6255  144.7636  151.2648 LP  0  0  0  0  0  0  0  0  0  0  0  0  # atno 17342 bound_to 10162
  140.7409  143.6572  150.8196 LP  0  0  0  0  0  0  0  0  0  0  0  0  # atno 17343 bound_to 10162
  156.7160  130.8988  151.3614 LP  0  0  0  0  0  0  0  0  0  0  0  0  # atno 17370 bound_to 10713
  157.6912  130.9235  150.0518 LP  0  0  0  0  0  0  0  0  0  0  0  0  # atno 17371 bound_to 10713
  139.8851  134.8945  156.2660 LP  0  0  0  0  0  0  0  0  0  0  0  0  # atno 17394 bound_to 11000
  141.0016  133.7148  156.0969 LP  0  0  0  0  0  0  0  0  0  0  0  0  # atno 17395 bound_to 11000

$$$$
