AV-unprocessed.smi:480|AV-procd|sdf|2677|dock8
  -GOLD-   2262023103D 1   1.00000     0.00000
 Structure written by MMmdl.
 46 48  0  0  0  0  0  0  0  0  1 V2000
  153.3283  137.1498  159.3453 C   0  0  0  0  0  0  0  0  0  0  0  0
  154.3853  138.2389  159.5599 C   0  0  0  0  0  0  0  0  0  0  0  0
  153.7940  139.6159  159.6054 C   0  0  0  0  0  0  0  0  0  0  0  0
  153.2617  140.1830  158.5222 N   0  0  0  0  0  0  0  0  0  0  0  0
  152.8273  141.4041  158.9992 C   0  0  0  0  0  0  0  0  0  0  0  0
  152.1796  142.4717  158.3373 C   0  0  0  0  0  0  0  0  0  0  0  0
  151.8216  143.6380  159.0447 C   0  0  0  0  0  0  0  0  0  0  0  0
  152.1051  143.7533  160.4211 C   0  0  0  0  0  0  0  0  0  0  0  0
  152.7502  142.7014  161.0995 C   0  0  0  0  0  0  0  0  0  0  0  0
  153.1066  141.5400  160.3882 C   0  0  0  0  0  0  0  0  0  0  0  0
  153.7351  140.3515  160.7455 N   0  0  0  0  0  0  0  0  0  0  0  0
  154.2046  140.0067  162.0813 C   0  0  0  0  0  0  0  0  0  0  0  0
  155.7249  139.7509  162.1368 C   0  0  1  0  0  0  0  0  0  0  0  0
  156.3363  140.6915  161.2783 O   0  0  0  0  0  0  0  0  0  0  0  0
  156.3367  139.9082  163.5404 C   0  0  0  0  0  0  0  0  0  0  0  0
  156.1456  141.2489  163.9714 O   0  0  0  0  0  0  0  0  0  0  0  0
  155.9521  141.4808  165.3161 C   0  0  0  0  0  0  0  0  0  0  0  0
  155.6097  142.7951  165.6952 C   0  0  0  0  0  0  0  0  0  0  0  0
  155.3891  143.1222  167.0466 C   0  0  0  0  0  0  0  0  0  0  0  0
  155.5110  142.1329  168.0413 C   0  0  0  0  0  0  0  0  0  0  0  0
  155.2673  142.4830  169.4944 C   0  0  0  0  0  0  0  0  0  0  0  0
  155.3879  141.3079  170.3706 C   0  0  0  0  0  0  0  0  0  0  0  0
  155.4827  140.3833  171.0597 N   0  0  0  0  0  0  0  0  0  0  0  0
  155.8557  140.8169  167.6755 C   0  0  0  0  0  0  0  0  0  0  0  0
  156.0756  140.4902  166.3231 C   0  0  0  0  0  0  0  0  0  0  0  0
  153.7894  136.1629  159.3067 H   0  0  0  0  0  0  0  0  0  0  0  0
  152.7909  137.3035  158.4089 H   0  0  0  0  0  0  0  0  0  0  0  0
  152.5969  137.1441  160.1537 H   0  0  0  0  0  0  0  0  0  0  0  0
  154.9537  138.0453  160.4691 H   0  0  0  0  0  0  0  0  0  0  0  0
  155.1102  138.2012  158.7459 H   0  0  0  0  0  0  0  0  0  0  0  0
  151.9568  142.3928  157.2834 H   0  0  0  0  0  0  0  0  0  0  0  0
  151.3260  144.4475  158.5290 H   0  0  0  0  0  0  0  0  0  0  0  0
  151.8264  144.6492  160.9562 H   0  0  0  0  0  0  0  0  0  0  0  0
  152.9683  142.7860  162.1536 H   0  0  0  0  0  0  0  0  0  0  0  0
  153.9453  140.8318  162.7461 H   0  0  0  0  0  0  0  0  0  0  0  0
  153.6556  139.1430  162.4549 H   0  0  0  0  0  0  0  0  0  0  0  0
  155.9311  138.7484  161.7595 H   0  0  0  0  0  0  0  0  0  0  0  0
  157.2402  140.7876  161.5374 H   0  0  0  0  0  0  0  0  0  0  0  0
  155.8945  139.1922  164.2357 H   0  0  0  0  0  0  0  0  0  0  0  0
  157.4099  139.7203  163.5040 H   0  0  0  0  0  0  0  0  0  0  0  0
  155.5120  143.5612  164.9400 H   0  0  0  0  0  0  0  0  0  0  0  0
  155.1232  144.1333  167.3179 H   0  0  0  0  0  0  0  0  0  0  0  0
  155.9811  143.2368  169.8276 H   0  0  0  0  0  0  0  0  0  0  0  0
  154.2680  142.9018  169.6135 H   0  0  0  0  0  0  0  0  0  0  0  0
  155.9502  140.0518  168.4321 H   0  0  0  0  0  0  0  0  0  0  0  0
  156.3379  139.4707  166.0848 H   0  0  0  0  0  0  0  0  0  0  0  0
  1  2  1  0  0  0  0
  1 26  1  0  0  0  0
  1 27  1  0  0  0  0
  1 28  1  0  0  0  0
  2  3  1  0  0  0  0
  2 29  1  0  0  0  0
  2 30  1  0  0  0  0
  3 11  1  0  0  0  0
  3  4  2  0  0  0  0
  4  5  1  0  0  0  0
  5 10  2  0  0  0  0
  5  6  1  0  0  0  0
  6  7  2  0  0  0  0
  6 31  1  0  0  0  0
  7  8  1  0  0  0  0
  7 32  1  0  0  0  0
  8  9  2  0  0  0  0
  8 33  1  0  0  0  0
  9 10  1  0  0  0  0
  9 34  1  0  0  0  0
 10 11  1  0  0  0  0
 11 12  1  0  0  0  0
 12 13  1  0  0  0  0
 12 35  1  0  0  0  0
 12 36  1  0  0  0  0
 13 14  1  0  0  0  0
 13 15  1  0  0  0  0
 13 37  1  0  0  0  0
 14 38  1  0  0  0  0
 15 16  1  0  0  0  0
 15 39  1  0  0  0  0
 15 40  1  0  0  0  0
 16 17  1  0  0  0  0
 17 25  1  0  0  0  0
 17 18  2  0  0  0  0
 18 19  1  0  0  0  0
 18 41  1  0  0  0  0
 19 20  2  0  0  0  0
 19 42  1  0  0  0  0
 20 21  1  0  0  0  0
 20 24  1  0  0  0  0
 21 22  1  0  0  0  0
 21 43  1  0  0  0  0
 21 44  1  0  0  0  0
 22 23  3  0  0  0  0
 24 25  2  0  0  0  0
 24 45  1  0  0  0  0
 25 46  1  0  0  0  0
M  END
> <s_m_source_file>
AV-unprocessed.smi

> <i_m_source_file_index>
480

> <i_lp_mmshare_version>
43012

> <i_f3d_flags>
0

> <s_epik_input>
W2NIXTFbY0hdW2NIXVtjSF1jKGMxMiluKGMobjIpW0NIMl1bQ0gzXSlbQ0gyXVtDQEhdKFtPSF0pW0NIMl1PYzNbY0hdW2NIXWMoW0NIMl1DI04pW2NIXVtjSF0z

> <s_epik_cmdline>
J2VwaWtfcHl0aG9uJywgJy1waCcsICc3LjAnLCAnLXRuJywgJzgnLCAnLW1hJywgJzIwMCcsICctbWV0YWxfYmluZGluZycsICctaW1hZScsICc8aW5maWxlLm1hZT4nLCAnLW9tYWUnLCAnPG91dGZpbGUubWFlPic=

> <r_lp_tautomer_probability>
1

> <r_epik_Ionization_Penalty>
0.114213

> <r_epik_Ionization_Penalty_Charging>
0

> <r_epik_Ionization_Penalty_Neutral>
0.114213

> <r_epik_State_Penalty>
0.103875

> <r_epik_Charging_Adjusted_Penalty>
0.103875

> <i_epik_Tot_Q>
0

> <i_epik_Tot_abs_Q>
0

> <r_epik_Metal_State_Penalty>
0.000113526

> <b_epik_Metal_Only>
0

> <s_lp_Force_Field>
OPLS_2005

> <r_lp_Energy>
15.7981

> <b_lp_Chiralities_Consistent>
1

> <s_lp_Variant>
AV-unprocessed.smi:480-2

> <Gold.Version>
5.8.1

> <Gold.Id.Protein>
6NUR|6NUR_protein|mol2

> <Gold.PLP.Fitness>
52.0880

> <Gold.PLP.PLP>
-50.9574

> <Gold.PLP.part.hbond>
-3.6156

> <Gold.PLP.part.metal>
0.0000

> <Gold.PLP.part.buried>
-5.2174

> <Gold.PLP.part.nonpolar>
-42.1394

> <Gold.PLP.part.repulsive>
0.0877

> <Gold.PLP.ligand.clash>
0.0000

> <Gold.PLP.ligand.torsion>
0.5741

> <Gold.PLP.Chemscore.Hbond>
0.7137

> <Gold.PLP.Chemscore.CHOScore>
0.0000

> <Gold.PLP.Chemscore.Metal>
0.0000

> <Gold.Chemscore.Hbonds>
donor molecule, donor type, donor heavy atom, donor atom, acceptor molecule, acceptor atom, score
      P1  H  7997  8009       L1     4  0.93

> <Gold.PLP.Chemscore.Internal.Correction>
0.1377

> <Gold.Rescore>
     Score         DG    S(hbond)    S(metal)    S(lipo)     H(rot)  DE(clash)    DE(int)     intcor
     14.29     -16.71       0.77        0.00     130.30       2.58       2.00       0.42       ----

> <Gold.Chemscore.Fitness>
14.2863

> <Gold.Chemscore.DG>
-16.7069

> <Gold.Chemscore.ZeroCoef>
-5.4800

> <Gold.Chemscore.Hbond>
0.7712

> <Gold.Chemscore.Metal>
0.0000

> <Gold.Chemscore.Lipo>
130.3016

> <Gold.Chemscore.Internal_Hbond>
0.0000

> <Gold.Chemscore.DEClash>
1.9987

> <Gold.Chemscore.DEInternal>
0.4219

> <Gold.Chemscore.Rot>
2.5759

> <Gold.Chemscore.Internal.Correction>
   9.000000E+99

> <Gold.Chemscore.Hbonds>
donor molecule, donor type, donor heavy atom, donor atom, acceptor molecule, acceptor atom, score
      P1  H  7997  8009       L1     4  0.33

> <Gold.Chemscore.Hbond.Weighted>
-2.5760

> <Gold.Chemscore.Metal.Weighted>
-0.0000

> <Gold.Chemscore.Lipo.Weighted>
-15.2453

> <Gold.Chemscore.Internal_Hbond.Weighted>
0.0000

> <Gold.Chemscore.DEClash.Weighted>
1.9987

> <Gold.Chemscore.DEInternal.Weighted>
0.4219

> <Gold.Chemscore.Rot.Weighted>
6.5943

> <Gold.Chemscore.Internal.Correction.Weighted>
   9.000000E+99

> <Gold.Protein.RotatedTorsions>
[ 6907 6896 6895 6894 ] final   95.06 input  -60.11 | X-H torsion
[ 7974 7965 7964 7962 ] final -136.89 input  175.53 | X-H torsion
[ 8008 7997 7996 7995 ] final  142.49 input   59.86 | X-H torsion
[ 10167 10162 10161 10158 ] final  -99.70 input  -65.29 | X-H torsion
[ 10718 10713 10712 10709 ] final -135.59 input   66.30 | X-H torsion
[ 10763 10752 10751 10750 ] final   58.70 input  -60.55 | X-H torsion
[ 11005 11000 10999 10996 ] final -155.64 input  -57.11 | X-H torsion

> <Gold.Protein.ActiveResidues>
 VAL166  LYS551  ARG553  GLY616  TRP617  ASP618  TYR619  PRO620  LYS621  CYS622 
 ASP623  PHE694  ASN695  SER759  ASP760  ASP761  ALA762  ILE779  LEU786  VAL792 
 PHE793  MET794  SER795  GLU796  ALA797  LYS798  CYS799  TRP800  GLU811  SER814 

> <Gold.Protein.RotatedAtoms>
  152.5446  134.1097  159.8353 H   0  0  0  0  0  0  0  0  0  0  0  0  # atno 6907 bound_to 6896
  151.1165  133.5127  159.2611 H   0  0  0  0  0  0  0  0  0  0  0  0  # atno 6908 bound_to 6896
  151.1826  135.0377  159.8853 H   0  0  0  0  0  0  0  0  0  0  0  0  # atno 6909 bound_to 6896
  144.8888  140.6613  143.5159 H   0  0  0  0  0  0  0  0  0  0  0  0  # atno 7974 bound_to 7965
  156.2948  140.2287  156.4737 H   0  0  0  0  0  0  0  0  0  0  0  0  # atno 8008 bound_to 7997
  154.7913  140.0454  157.1224 H   0  0  0  0  0  0  0  0  0  0  0  0  # atno 8009 bound_to 7997
  154.9642  140.3058  155.5020 H   0  0  0  0  0  0  0  0  0  0  0  0  # atno 8010 bound_to 7997
  140.2597  143.3416  152.0637 H   0  0  0  0  0  0  0  0  0  0  0  0  # atno 10167 bound_to 10162
  156.2678  130.7248  151.1204 H   0  0  0  0  0  0  0  0  0  0  0  0  # atno 10718 bound_to 10713
  152.9877  135.5597  154.5594 H   0  0  0  0  0  0  0  0  0  0  0  0  # atno 10763 bound_to 10752
  154.5016  135.2797  155.1418 H   0  0  0  0  0  0  0  0  0  0  0  0  # atno 10764 bound_to 10752
  154.2846  135.6338  153.5414 H   0  0  0  0  0  0  0  0  0  0  0  0  # atno 10765 bound_to 10752
  140.6843  134.4111  157.5224 H   0  0  0  0  0  0  0  0  0  0  0  0  # atno 11005 bound_to 11000
  145.3820  139.1635  143.4275 LP  0  0  0  0  0  0  0  0  0  0  0  0  # atno 17320 bound_to 7965
  146.3041  140.3902  142.8693 LP  0  0  0  0  0  0  0  0  0  0  0  0  # atno 17321 bound_to 7965
  139.5020  144.6727  151.6204 LP  0  0  0  0  0  0  0  0  0  0  0  0  # atno 17342 bound_to 10162
  140.5976  143.9668  150.6364 LP  0  0  0  0  0  0  0  0  0  0  0  0  # atno 17343 bound_to 10162
  157.7273  131.0640  150.5870 LP  0  0  0  0  0  0  0  0  0  0  0  0  # atno 17370 bound_to 10713
  156.5963  130.4342  149.5915 LP  0  0  0  0  0  0  0  0  0  0  0  0  # atno 17371 bound_to 10713
  139.8942  134.8712  156.2187 LP  0  0  0  0  0  0  0  0  0  0  0  0  # atno 17394 bound_to 11000
  141.0292  133.6998  156.1401 LP  0  0  0  0  0  0  0  0  0  0  0  0  # atno 17395 bound_to 11000

$$$$
