AV-unprocessed.smi:2138|AV-procd|sdf|8710|dock10
  -GOLD-   2272011473D 1   1.00000     0.00000
 Structure written by MMmdl.
 46 47  0  0  0  0  0  0  0  0  1 V2000
  148.6051  127.3622  150.2558 C   0  0  0  0  0  0  0  0  0  0  0  0
  148.1944  127.6906  151.5712 O   0  0  0  0  0  0  0  0  0  0  0  0
  149.1508  128.4800  152.2584 C   0  0  0  0  0  0  0  0  0  0  0  0
  148.6600  128.7288  153.6877 C   0  0  0  0  0  0  0  0  0  0  0  0
  149.6503  129.4708  154.3860 O   0  0  0  0  0  0  0  0  0  0  0  0
  149.6172  130.8446  154.2934 C   0  0  0  0  0  0  0  0  0  0  0  0
  148.8896  131.5681  153.3159 C   0  0  0  0  0  0  0  0  0  0  0  0
  148.9457  132.9747  153.3366 C   0  0  0  0  0  0  0  0  0  0  0  0
  149.7277  133.6199  154.3146 C   0  0  0  0  0  0  0  0  0  0  0  0
  149.7527  135.0404  154.3233 N   0  0  0  0  0  0  0  0  0  0  0  0
  150.2302  135.8608  155.2772 C   0  0  0  0  0  0  0  0  0  0  0  0
  150.7645  135.4818  156.3197 O   0  0  0  0  0  0  0  0  0  0  0  0
  150.1005  137.3662  154.9938 C   0  0  2  0  0  0  0  0  0  0  0  0
  151.2960  137.8929  154.1780 C   0  0  0  0  0  0  0  0  0  0  0  0
  151.9994  138.8496  155.1246 C   0  0  0  0  0  0  0  0  0  0  0  0
  153.0487  139.4191  154.8271 O   0  0  0  0  0  0  0  0  0  0  0  0
  151.3310  138.9786  156.2783 N   0  0  0  0  0  0  0  0  0  0  0  0
  151.7197  139.8633  157.3865 C   0  0  0  0  0  0  0  0  0  0  0  0
  151.9693  139.1029  158.7009 C   0  0  0  0  0  0  0  0  0  0  0  0
  150.6864  140.9873  157.5623 C   0  0  0  0  0  0  0  0  0  0  0  0
  150.0918  138.2093  156.2878 C   0  0  0  0  0  0  0  0  0  0  0  0
  150.4060  132.8078  155.2547 C   0  0  0  0  0  0  0  0  0  0  0  0
  150.3552  131.4592  155.2426 N   0  0  0  0  0  0  0  0  0  0  0  0
  147.8374  126.7578  149.7726 H   0  0  0  0  0  0  0  0  0  0  0  0
  149.5309  126.7857  150.2647 H   0  0  0  0  0  0  0  0  0  0  0  0
  148.7563  128.2591  149.6536 H   0  0  0  0  0  0  0  0  0  0  0  0
  150.1271  127.9929  152.2691 H   0  0  0  0  0  0  0  0  0  0  0  0
  149.2655  129.4337  151.7414 H   0  0  0  0  0  0  0  0  0  0  0  0
  147.7343  129.3054  153.6540 H   0  0  0  0  0  0  0  0  0  0  0  0
  148.4510  127.7793  154.1831 H   0  0  0  0  0  0  0  0  0  0  0  0
  148.2955  131.0784  152.5594 H   0  0  0  0  0  0  0  0  0  0  0  0
  148.3973  133.5484  152.6036 H   0  0  0  0  0  0  0  0  0  0  0  0
  149.4243  135.4859  153.4788 H   0  0  0  0  0  0  0  0  0  0  0  0
  149.1763  137.5472  154.4419 H   0  0  0  0  0  0  0  0  0  0  0  0
  151.9838  137.1117  153.8499 H   0  0  0  0  0  0  0  0  0  0  0  0
  150.9598  138.4364  153.2945 H   0  0  0  0  0  0  0  0  0  0  0  0
  152.6692  140.3306  157.1192 H   0  0  0  0  0  0  0  0  0  0  0  0
  152.3526  139.7746  159.4694 H   0  0  0  0  0  0  0  0  0  0  0  0
  152.7060  138.3106  158.5643 H   0  0  0  0  0  0  0  0  0  0  0  0
  151.0549  138.6534  159.0894 H   0  0  0  0  0  0  0  0  0  0  0  0
  150.9927  141.6814  158.3453 H   0  0  0  0  0  0  0  0  0  0  0  0
  149.7095  140.5875  157.8359 H   0  0  0  0  0  0  0  0  0  0  0  0
  150.5654  141.5627  156.6440 H   0  0  0  0  0  0  0  0  0  0  0  0
  149.2427  138.8939  156.2958 H   0  0  0  0  0  0  0  0  0  0  0  0
  150.0180  137.5881  157.1815 H   0  0  0  0  0  0  0  0  0  0  0  0
  150.9914  133.2298  156.0567 H   0  0  0  0  0  0  0  0  0  0  0  0
  1  2  1  0  0  0  0
  1 24  1  0  0  0  0
  1 25  1  0  0  0  0
  1 26  1  0  0  0  0
  2  3  1  0  0  0  0
  3  4  1  0  0  0  0
  3 27  1  0  0  0  0
  3 28  1  0  0  0  0
  4  5  1  0  0  0  0
  4 29  1  0  0  0  0
  4 30  1  0  0  0  0
  5  6  1  0  0  0  0
  6 23  1  0  0  0  0
  6  7  2  0  0  0  0
  7  8  1  0  0  0  0
  7 31  1  0  0  0  0
  8  9  2  0  0  0  0
  8 32  1  0  0  0  0
  9 10  1  0  0  0  0
  9 22  1  0  0  0  0
 10 11  1  0  0  0  0
 10 33  1  0  0  0  0
 11 12  2  0  0  0  0
 11 13  1  0  0  0  0
 13 21  1  0  0  0  0
 13 14  1  0  0  0  0
 13 34  1  0  0  0  0
 14 15  1  0  0  0  0
 14 35  1  0  0  0  0
 14 36  1  0  0  0  0
 15 16  2  0  0  0  0
 15 17  1  0  0  0  0
 17 18  1  0  0  0  0
 17 21  1  0  0  0  0
 18 19  1  0  0  0  0
 18 20  1  0  0  0  0
 18 37  1  0  0  0  0
 19 38  1  0  0  0  0
 19 39  1  0  0  0  0
 19 40  1  0  0  0  0
 20 41  1  0  0  0  0
 20 42  1  0  0  0  0
 20 43  1  0  0  0  0
 21 44  1  0  0  0  0
 21 45  1  0  0  0  0
 22 23  2  0  0  0  0
 22 46  1  0  0  0  0
M  END
> <s_m_source_file>
AV-unprocessed.smi

> <i_m_source_file_index>
2138

> <i_lp_mmshare_version>
43012

> <i_f3d_flags>
0

> <s_epik_input>
W0NIM11PW0NIMl1bQ0gyXU9jMVtjSF1bY0hdYyhbY0hdbjEpW05IXUMoPU8pW0NAQEhdMltDSDJdQyg9TylOKFtDSDJdMilbQ0hdKFtDSDNdKVtDSDNd

> <s_epik_cmdline>
J2VwaWtfcHl0aG9uJywgJy1waCcsICc3LjAnLCAnLXRuJywgJzgnLCAnLW1hJywgJzIwMCcsICctbWV0YWxfYmluZGluZycsICctaW1hZScsICc8aW5maWxlLm1hZT4nLCAnLW9tYWUnLCAnPG91dGZpbGUubWFlPic=

> <r_lp_tautomer_probability>
1

> <r_epik_Ionization_Penalty>
1.72652e-05

> <r_epik_Ionization_Penalty_Charging>
0

> <r_epik_Ionization_Penalty_Neutral>
1.72652e-05

> <r_epik_State_Penalty>
-0

> <r_epik_Charging_Adjusted_Penalty>
0

> <i_epik_Tot_Q>
0

> <i_epik_Tot_abs_Q>
0

> <r_epik_Metal_State_Penalty>
-0

> <b_epik_Metal_Only>
0

> <s_lp_Force_Field>
OPLS_2005

> <r_lp_Energy>
27.6576

> <b_lp_Chiralities_Consistent>
1

> <s_lp_Variant>
AV-unprocessed.smi:2138-1

> <Gold.Version>
5.8.1

> <Gold.Id.Protein>
6NUR|6NUR_protein|mol2

> <Gold.PLP.Fitness>
44.8904

> <Gold.PLP.PLP>
-41.0035

> <Gold.PLP.part.hbond>
-3.0000

> <Gold.PLP.part.metal>
0.0000

> <Gold.PLP.part.buried>
-6.6341

> <Gold.PLP.part.nonpolar>
-32.1197

> <Gold.PLP.part.repulsive>
0.2408

> <Gold.PLP.ligand.clash>
0.0000

> <Gold.PLP.ligand.torsion>
1.1464

> <Gold.PLP.Chemscore.Hbond>
2.0122

> <Gold.PLP.Chemscore.CHOScore>
0.0000

> <Gold.PLP.Chemscore.Metal>
0.0000

> <Gold.Chemscore.Hbonds>
donor molecule, donor type, donor heavy atom, donor atom, acceptor molecule, acceptor atom, score
      L1  H    10    33       P1  7948  0.90
      P1  H  7989  7998       L1    16  0.01
      P1  H  7997  8010       L1    16  1.00

> <Gold.PLP.Chemscore.Internal.Correction>
0.1432

> <Gold.Rescore>
     Score         DG    S(hbond)    S(metal)    S(lipo)     H(rot)  DE(clash)    DE(int)     intcor
     12.80     -15.16       1.75        0.00      76.61       2.00       0.05       2.30       ----

> <Gold.Chemscore.Fitness>
12.8046

> <Gold.Chemscore.DG>
-15.1596

> <Gold.Chemscore.ZeroCoef>
-5.4800

> <Gold.Chemscore.Hbond>
1.7499

> <Gold.Chemscore.Metal>
0.0000

> <Gold.Chemscore.Lipo>
76.6146

> <Gold.Chemscore.Internal_Hbond>
0.0000

> <Gold.Chemscore.DEClash>
0.0542

> <Gold.Chemscore.DEInternal>
2.3008

> <Gold.Chemscore.Rot>
2.0035

> <Gold.Chemscore.Internal.Correction>
   9.000000E+99

> <Gold.Chemscore.Hbonds>
donor molecule, donor type, donor heavy atom, donor atom, acceptor molecule, acceptor atom, score
      L1  H    10    33       P1  7948  0.18
      P1  H  7997  8010       L1    16  0.99

> <Gold.Chemscore.Hbond.Weighted>
-5.8448

> <Gold.Chemscore.Metal.Weighted>
-0.0000

> <Gold.Chemscore.Lipo.Weighted>
-8.9639

> <Gold.Chemscore.Internal_Hbond.Weighted>
0.0000

> <Gold.Chemscore.DEClash.Weighted>
0.0542

> <Gold.Chemscore.DEInternal.Weighted>
2.3008

> <Gold.Chemscore.Rot.Weighted>
5.1290

> <Gold.Chemscore.Internal.Correction.Weighted>
   9.000000E+99

> <Gold.Protein.RotatedTorsions>
[ 6907 6896 6895 6894 ] final  -47.09 input  -60.11 | X-H torsion
[ 7974 7965 7964 7962 ] final   -4.27 input  175.53 | X-H torsion
[ 8008 7997 7996 7995 ] final   95.75 input   59.86 | X-H torsion
[ 10167 10162 10161 10158 ] final   70.63 input  -65.29 | X-H torsion
[ 10718 10713 10712 10709 ] final  -59.72 input   66.30 | X-H torsion
[ 10763 10752 10751 10750 ] final   93.83 input  -60.55 | X-H torsion
[ 11005 11000 10999 10996 ] final   61.64 input  -57.11 | X-H torsion

> <Gold.Protein.ActiveResidues>
 VAL166  LYS551  ARG553  GLY616  TRP617  ASP618  TYR619  PRO620  LYS621  CYS622 
 ASP623  PHE694  ASN695  SER759  ASP760  ASP761  ALA762  ILE779  LEU786  VAL792 
 PHE793  MET794  SER795  GLU796  ALA797  LYS798  CYS799  TRP800  GLU811  SER814 

> <Gold.Protein.RotatedAtoms>
  150.9044  134.8458  159.7381 H   0  0  0  0  0  0  0  0  0  0  0  0  # atno 6907 bound_to 6896
  152.4910  134.4454  159.9567 H   0  0  0  0  0  0  0  0  0  0  0  0  # atno 6908 bound_to 6896
  151.4503  133.3580  159.2829 H   0  0  0  0  0  0  0  0  0  0  0  0  # atno 6909 bound_to 6896
  146.2375  140.1846  142.8332 H   0  0  0  0  0  0  0  0  0  0  0  0  # atno 7974 bound_to 7965
  156.0723  140.3282  155.7590 H   0  0  0  0  0  0  0  0  0  0  0  0  # atno 8008 bound_to 7997
  155.5286  140.0591  157.2910 H   0  0  0  0  0  0  0  0  0  0  0  0  # atno 8009 bound_to 7997
  154.4536  140.1931  156.0462 H   0  0  0  0  0  0  0  0  0  0  0  0  # atno 8010 bound_to 7997
  140.0549  144.5281  150.7336 H   0  0  0  0  0  0  0  0  0  0  0  0  # atno 10167 bound_to 10162
  156.1041  130.4182  150.0754 H   0  0  0  0  0  0  0  0  0  0  0  0  # atno 10718 bound_to 10713
  153.2347  135.4311  155.0634 H   0  0  0  0  0  0  0  0  0  0  0  0  # atno 10763 bound_to 10752
  154.8313  135.3388  154.6736 H   0  0  0  0  0  0  0  0  0  0  0  0  # atno 10764 bound_to 10752
  153.7162  135.7020  153.5081 H   0  0  0  0  0  0  0  0  0  0  0  0  # atno 10765 bound_to 10752
  140.0147  134.6243  155.9727 H   0  0  0  0  0  0  0  0  0  0  0  0  # atno 11005 bound_to 11000
  144.9907  140.8544  143.5341 LP  0  0  0  0  0  0  0  0  0  0  0  0  # atno 17320 bound_to 7965
  145.1851  139.2331  143.5272 LP  0  0  0  0  0  0  0  0  0  0  0  0  # atno 17321 bound_to 7965
  140.7199  143.2579  151.4312 LP  0  0  0  0  0  0  0  0  0  0  0  0  # atno 17342 bound_to 10162
  139.5930  144.1458  152.2110 LP  0  0  0  0  0  0  0  0  0  0  0  0  # atno 17343 bound_to 10162
  156.8734  130.9532  151.3607 LP  0  0  0  0  0  0  0  0  0  0  0  0  # atno 17370 bound_to 10713
  157.6216  130.8659  149.9118 LP  0  0  0  0  0  0  0  0  0  0  0  0  # atno 17371 bound_to 10713
  141.1735  133.6538  156.4739 LP  0  0  0  0  0  0  0  0  0  0  0  0  # atno 17394 bound_to 11000
  140.4492  134.6944  157.5031 LP  0  0  0  0  0  0  0  0  0  0  0  0  # atno 17395 bound_to 11000

$$$$
