AV-unprocessed.smi:512|AV-procd|sdf|2771|dock6
  -GOLD-   2262023243D 1   1.00000     0.00000
 Structure written by MMmdl.
 47 49  0  0  0  0  0  0  0  0  2 V2000
  151.8390  138.2840  154.4229 C   0  0  0  0  0  0  0  0  0  0  0  0
  151.9020  138.4580  155.9420 C   0  0  0  0  0  0  0  0  0  0  0  0
  153.2585  138.5800  156.3339 O   0  0  0  0  0  0  0  0  0  0  0  0
  153.5020  138.0661  157.6324 C   0  0  0  0  0  0  0  0  0  0  0  0
  152.5749  138.7837  158.6269 C   0  0  0  0  0  0  0  0  0  0  0  0
  153.2660  139.1666  159.8555 N   0  0  0  0  0  0  0  0  0  0  0  0
  153.4709  140.4122  160.3755 C   0  0  0  0  0  0  0  0  0  0  0  0
  153.0425  141.5949  159.7570 N   0  0  0  0  0  0  0  0  0  0  0  0
  153.6066  142.9136  160.0438 C   0  0  0  0  0  0  0  0  0  0  0  0
  152.4964  143.9387  160.3480 C   0  0  0  0  0  0  0  0  0  0  0  0
  151.6273  144.0769  159.1804 N   0  0  0  0  0  0  0  0  0  0  0  0
  150.5714  145.0374  159.4655 C   0  0  0  0  0  0  0  0  0  0  0  0
  151.0388  142.7716  158.8854 C   0  0  0  0  0  0  0  0  0  0  0  0
  152.1667  141.7614  158.5962 C   0  0  0  0  0  0  0  0  0  0  0  0
  154.0888  140.4142  161.5596 N   0  0  0  0  0  0  0  0  0  0  0  0
  154.3134  139.0709  161.8081 C   0  0  0  0  0  0  0  0  0  0  0  0
  153.8215  138.2987  160.8039 C   0  0  0  0  0  0  0  0  0  0  0  0
  153.8831  136.8190  160.8032 C   0  0  0  0  0  0  0  0  0  0  0  0
  153.4006  136.1621  159.8832 O   0  0  0  0  0  0  0  0  0  0  0  0
  154.5159  136.3259  161.9145 N   0  5  0  0  0  0  0  0  0  0  0  0
  155.0350  137.0730  162.9497 C   0  0  0  0  0  0  0  0  0  0  0  0
  155.5921  136.5483  163.9149 O   0  0  0  0  0  0  0  0  0  0  0  0
  154.9365  138.4390  162.9185 N   0  0  0  0  0  0  0  0  0  0  0  0
  155.4719  139.2591  164.0088 C   0  0  0  0  0  0  0  0  0  0  0  0
  150.8076  138.1828  154.0847 H   0  0  0  0  0  0  0  0  0  0  0  0
  152.3843  137.3939  154.1083 H   0  0  0  0  0  0  0  0  0  0  0  0
  152.2758  139.1431  153.9132 H   0  0  0  0  0  0  0  0  0  0  0  0
  151.3425  139.3469  156.2372 H   0  0  0  0  0  0  0  0  0  0  0  0
  151.4437  137.5991  156.4347 H   0  0  0  0  0  0  0  0  0  0  0  0
  153.3214  136.9911  157.6456 H   0  0  0  0  0  0  0  0  0  0  0  0
  154.5487  138.2116  157.8995 H   0  0  0  0  0  0  0  0  0  0  0  0
  152.1236  139.6619  158.1710 H   0  0  0  0  0  0  0  0  0  0  0  0
  151.7310  138.1440  158.8834 H   0  0  0  0  0  0  0  0  0  0  0  0
  154.2745  142.8507  160.9032 H   0  0  0  0  0  0  0  0  0  0  0  0
  154.2172  143.2445  159.2023 H   0  0  0  0  0  0  0  0  0  0  0  0
  151.9205  143.6261  161.2208 H   0  0  0  0  0  0  0  0  0  0  0  0
  152.9430  144.9051  160.5845 H   0  0  0  0  0  0  0  0  0  0  0  0
  149.9147  145.1491  158.6022 H   0  0  0  0  0  0  0  0  0  0  0  0
  150.9961  146.0166  159.6893 H   0  0  0  0  0  0  0  0  0  0  0  0
  149.9662  144.7242  160.3174 H   0  0  0  0  0  0  0  0  0  0  0  0
  150.4209  142.4323  159.7182 H   0  0  0  0  0  0  0  0  0  0  0  0
  150.3885  142.8557  158.0140 H   0  0  0  0  0  0  0  0  0  0  0  0
  152.7623  142.1031  157.7484 H   0  0  0  0  0  0  0  0  0  0  0  0
  151.7446  140.8113  158.2855 H   0  0  0  0  0  0  0  0  0  0  0  0
  155.0208  138.9743  164.9601 H   0  0  0  0  0  0  0  0  0  0  0  0
  155.2820  140.3229  163.8680 H   0  0  0  0  0  0  0  0  0  0  0  0
  156.5515  139.1270  164.0890 H   0  0  0  0  0  0  0  0  0  0  0  0
  1  2  1  0  0  0  0
  1 25  1  0  0  0  0
  1 26  1  0  0  0  0
  1 27  1  0  0  0  0
  2  3  1  0  0  0  0
  2 28  1  0  0  0  0
  2 29  1  0  0  0  0
  3  4  1  0  0  0  0
  4  5  1  0  0  0  0
  4 30  1  0  0  0  0
  4 31  1  0  0  0  0
  5  6  1  0  0  0  0
  5 32  1  0  0  0  0
  5 33  1  0  0  0  0
  6 17  1  0  0  0  0
  6  7  1  0  0  0  0
  7  8  1  0  0  0  0
  7 15  2  0  0  0  0
  8 14  1  0  0  0  0
  8  9  1  0  0  0  0
  9 10  1  0  0  0  0
  9 34  1  0  0  0  0
  9 35  1  0  0  0  0
 10 11  1  0  0  0  0
 10 36  1  0  0  0  0
 10 37  1  0  0  0  0
 11 12  1  0  0  0  0
 11 13  1  0  0  0  0
 12 38  1  0  0  0  0
 12 39  1  0  0  0  0
 12 40  1  0  0  0  0
 13 14  1  0  0  0  0
 13 41  1  0  0  0  0
 13 42  1  0  0  0  0
 14 43  1  0  0  0  0
 14 44  1  0  0  0  0
 15 16  1  0  0  0  0
 16 23  1  0  0  0  0
 16 17  2  0  0  0  0
 17 18  1  0  0  0  0
 18 19  2  0  0  0  0
 18 20  1  0  0  0  0
 20 21  1  0  0  0  0
 21 22  2  0  0  0  0
 21 23  1  0  0  0  0
 23 24  1  0  0  0  0
 24 45  1  0  0  0  0
 24 46  1  0  0  0  0
 24 47  1  0  0  0  0
M  CHG  1  20  -1
M  END
> <s_m_source_file>
AV-unprocessed.smi

> <i_m_source_file_index>
512

> <i_lp_mmshare_version>
43012

> <i_f3d_flags>
0

> <s_epik_input>
W0NIM11uMWMoPU8pW25IXWMoPU8pYyhjMTIpbihbQ0gyXVtDSDJdT1tDSDJdW0NIM10pYyhuMilOM1tDSDJdW0NIMl1OKFtDSDNdKVtDSDJdW0NIMl0z

> <s_epik_cmdline>
J2VwaWtfcHl0aG9uJywgJy1waCcsICc3LjAnLCAnLXRuJywgJzgnLCAnLW1hJywgJzIwMCcsICctbWV0YWxfYmluZGluZycsICctaW1hZScsICc8aW5maWxlLm1hZT4nLCAnLW9tYWUnLCAnPG91dGZpbGUubWFlPic=

> <r_epik_Ionization_Penalty>
7.67022

> <r_epik_Ionization_Penalty_Charging>
0.0776929

> <r_epik_Ionization_Penalty_Neutral>
7.59253

> <r_epik_State_Penalty>
7.66971

> <r_epik_Charging_Adjusted_Penalty>
7.7474

> <i_epik_Tot_Q>
-1

> <i_epik_Tot_abs_Q>
1

> <r_epik_Metal_State_Penalty>
3.61867

> <b_epik_Metal_Only>
1

> <s_lp_Force_Field>
OPLS_2005

> <r_lp_Energy>
53.7442

> <b_lp_Chiralities_Consistent>
1

> <s_lp_Variant>
AV-unprocessed.smi:512-4

> <Gold.Version>
5.8.1

> <Gold.Id.Protein>
6NUR|6NUR_protein|mol2

> <Gold.PLP.Fitness>
44.5328

> <Gold.PLP.PLP>
-39.9560

> <Gold.PLP.part.hbond>
-2.0000

> <Gold.PLP.part.metal>
0.0000

> <Gold.PLP.part.buried>
-7.2294

> <Gold.PLP.part.nonpolar>
-31.0722

> <Gold.PLP.part.repulsive>
0.0886

> <Gold.PLP.ligand.clash>
0.0000

> <Gold.PLP.ligand.torsion>
0.6486

> <Gold.PLP.Chemscore.Hbond>
1.9280

> <Gold.PLP.Chemscore.CHOScore>
0.0000

> <Gold.PLP.Chemscore.Metal>
0.0000

> <Gold.Chemscore.Hbonds>
donor molecule, donor type, donor heavy atom, donor atom, acceptor molecule, acceptor atom, score
      P1  H  6896  6908       L1    19  1.00
      P1  H  7997  8008       L1     3  0.96

> <Gold.PLP.Chemscore.Internal.Correction>
0.0900

> <Gold.Rescore>
     Score         DG    S(hbond)    S(metal)    S(lipo)     H(rot)  DE(clash)    DE(int)     intcor
     14.41     -17.32       1.77        0.00      85.89       1.61       0.06       2.85       ----

> <Gold.Chemscore.Fitness>
14.4132

> <Gold.Chemscore.DG>
-17.3232

> <Gold.Chemscore.ZeroCoef>
-5.4800

> <Gold.Chemscore.Hbond>
1.7683

> <Gold.Chemscore.Metal>
0.0000

> <Gold.Chemscore.Lipo>
85.8917

> <Gold.Chemscore.Internal_Hbond>
0.0000

> <Gold.Chemscore.DEClash>
0.0622

> <Gold.Chemscore.DEInternal>
2.8478

> <Gold.Chemscore.Rot>
1.6064

> <Gold.Chemscore.Internal.Correction>
   9.000000E+99

> <Gold.Chemscore.Hbonds>
donor molecule, donor type, donor heavy atom, donor atom, acceptor molecule, acceptor atom, score
      P1  H  6896  6908       L1    19  0.98
      P1  H  7997  8008       L1     3  0.24

> <Gold.Chemscore.Hbond.Weighted>
-5.9061

> <Gold.Chemscore.Metal.Weighted>
-0.0000

> <Gold.Chemscore.Lipo.Weighted>
-10.0493

> <Gold.Chemscore.Internal_Hbond.Weighted>
0.0000

> <Gold.Chemscore.DEClash.Weighted>
0.0622

> <Gold.Chemscore.DEInternal.Weighted>
2.8478

> <Gold.Chemscore.Rot.Weighted>
4.1123

> <Gold.Chemscore.Internal.Correction.Weighted>
   9.000000E+99

> <Gold.Protein.RotatedTorsions>
[ 6907 6896 6895 6894 ] final  -59.60 input  -60.11 | X-H torsion
[ 7974 7965 7964 7962 ] final   76.12 input  175.53 | X-H torsion
[ 8008 7997 7996 7995 ] final  -43.94 input   59.86 | X-H torsion
[ 10167 10162 10161 10158 ] final -122.90 input  -65.29 | X-H torsion
[ 10718 10713 10712 10709 ] final  154.79 input   66.30 | X-H torsion
[ 10763 10752 10751 10750 ] final   88.97 input  -60.55 | X-H torsion
[ 11005 11000 10999 10996 ] final  -55.60 input  -57.11 | X-H torsion

> <Gold.Protein.ActiveResidues>
 VAL166  LYS551  ARG553  GLY616  TRP617  ASP618  TYR619  PRO620  LYS621  CYS622 
 ASP623  PHE694  ASN695  SER759  ASP760  ASP761  ALA762  ILE779  LEU786  VAL792 
 PHE793  MET794  SER795  GLU796  ALA797  LYS798  CYS799  TRP800  GLU811  SER814 

> <Gold.Protein.RotatedAtoms>
  150.7918  134.6947  159.6516 H   0  0  0  0  0  0  0  0  0  0  0  0  # atno 6907 bound_to 6896
  152.4024  134.6260  160.0073 H   0  0  0  0  0  0  0  0  0  0  0  0  # atno 6908 bound_to 6896
  151.6527  133.3283  159.3192 H   0  0  0  0  0  0  0  0  0  0  0  0  # atno 6909 bound_to 6896
  145.7069  139.2601  143.1673 H   0  0  0  0  0  0  0  0  0  0  0  0  # atno 7974 bound_to 7965
  154.3997  140.1435  156.3602 H   0  0  0  0  0  0  0  0  0  0  0  0  # atno 8008 bound_to 7997
  155.8188  140.3470  155.5481 H   0  0  0  0  0  0  0  0  0  0  0  0  # atno 8009 bound_to 7997
  155.8310  140.0912  157.1783 H   0  0  0  0  0  0  0  0  0  0  0  0  # atno 8010 bound_to 7997
  140.0093  143.5458  152.2270 H   0  0  0  0  0  0  0  0  0  0  0  0  # atno 10167 bound_to 10162
  157.2269  131.0730  151.1877 H   0  0  0  0  0  0  0  0  0  0  0  0  # atno 10718 bound_to 10713
  153.1823  135.4487  155.0044 H   0  0  0  0  0  0  0  0  0  0  0  0  # atno 10763 bound_to 10752
  154.8038  135.3266  154.7486 H   0  0  0  0  0  0  0  0  0  0  0  0  # atno 10764 bound_to 10752
  153.7949  135.6967  153.4920 H   0  0  0  0  0  0  0  0  0  0  0  0  # atno 10765 bound_to 10752
  141.1081  133.6612  156.4494 H   0  0  0  0  0  0  0  0  0  0  0  0  # atno 11005 bound_to 11000
  146.0747  140.7830  142.9671 LP  0  0  0  0  0  0  0  0  0  0  0  0  # atno 17320 bound_to 7965
  144.6952  140.3396  143.7201 LP  0  0  0  0  0  0  0  0  0  0  0  0  # atno 17321 bound_to 7965
  139.6216  144.7630  151.2728 LP  0  0  0  0  0  0  0  0  0  0  0  0  # atno 17342 bound_to 10162
  140.7388  143.6638  150.8141 LP  0  0  0  0  0  0  0  0  0  0  0  0  # atno 17343 bound_to 10162
  157.3518  130.7086  149.6445 LP  0  0  0  0  0  0  0  0  0  0  0  0  # atno 17370 bound_to 10713
  155.9678  130.4250  150.4635 LP  0  0  0  0  0  0  0  0  0  0  0  0  # atno 17371 bound_to 10713
  140.4848  134.6631  157.5186 LP  0  0  0  0  0  0  0  0  0  0  0  0  # atno 17394 bound_to 11000
  139.9961  134.6909  155.9607 LP  0  0  0  0  0  0  0  0  0  0  0  0  # atno 17395 bound_to 11000

$$$$
