AV-unprocessed.smi:2136|AV-procd|sdf|8705|dock5
  -GOLD-   2272011463D 1   1.00000     0.00000
 Structure written by MMmdl.
 43 44  0  0  0  0  0  0  0  0  2 V2000
  155.6496  139.9768  161.7303 C   0  0  0  0  0  0  0  0  0  0  0  0
  154.8775  139.5768  160.1083 S   0  0  0  0  0  0  0  0  0  0  0  0
  155.8842  139.7937  159.0588 O   0  0  0  0  0  0  0  0  0  0  0  0
  154.2379  138.2569  160.2202 O   0  0  0  0  0  0  0  0  0  0  0  0
  153.6078  140.7803  159.9698 N   0  0  0  0  0  0  0  0  0  0  0  0
  153.7891  141.9561  160.8575 C   0  0  0  0  0  0  0  0  0  0  0  0
  152.5595  142.8698  160.9189 C   0  0  0  0  0  0  0  0  0  0  0  0
  152.1600  143.3238  159.5208 C   0  0  0  0  0  0  0  0  0  0  0  0
  151.8408  142.0819  158.6956 C   0  0  0  0  0  0  0  0  0  0  0  0
  153.0301  141.0927  158.6209 C   0  0  2  0  0  0  0  0  0  0  0  0
  152.5802  139.8946  157.7717 C   0  0  0  0  0  0  0  0  0  0  0  0
  153.1389  139.6578  156.7008 O   0  0  0  0  0  0  0  0  0  0  0  0
  151.5738  139.1488  158.2569 N   0  0  0  0  0  0  0  0  0  0  0  0
  151.0331  137.9571  157.6162 C   0  0  0  0  0  0  0  0  0  0  0  0
  152.1400  137.1078  156.9703 C   0  0  0  0  0  0  0  0  0  0  0  0
  151.5791  136.0682  156.0202 C   0  0  0  0  0  0  0  0  0  0  0  0
  151.8093  134.6917  156.2384 C   0  0  0  0  0  0  0  0  0  0  0  0
  151.2762  133.7499  155.3336 C   0  0  0  0  0  0  0  0  0  0  0  0
  150.5262  134.2062  154.2302 C   0  0  0  0  0  0  0  0  0  0  0  0
  150.3282  135.5312  154.0533 N   0  3  0  0  0  0  0  0  0  0  0  0
  150.8208  136.4643  154.8972 C   0  0  0  0  0  0  0  0  0  0  0  0
  156.4407  139.2568  161.9381 H   0  0  0  0  0  0  0  0  0  0  0  0
  154.9011  139.9249  162.5199 H   0  0  0  0  0  0  0  0  0  0  0  0
  156.0781  140.9780  161.6969 H   0  0  0  0  0  0  0  0  0  0  0  0
  154.0184  141.6224  161.8691 H   0  0  0  0  0  0  0  0  0  0  0  0
  154.6522  142.5264  160.5133 H   0  0  0  0  0  0  0  0  0  0  0  0
  151.7295  142.3457  161.3952 H   0  0  0  0  0  0  0  0  0  0  0  0
  152.7759  143.7377  161.5423 H   0  0  0  0  0  0  0  0  0  0  0  0
  151.2911  143.9805  159.5682 H   0  0  0  0  0  0  0  0  0  0  0  0
  152.9672  143.8931  159.0580 H   0  0  0  0  0  0  0  0  0  0  0  0
  150.9683  141.5898  159.1289 H   0  0  0  0  0  0  0  0  0  0  0  0
  151.5461  142.3888  157.6907 H   0  0  0  0  0  0  0  0  0  0  0  0
  153.8201  141.5922  158.0579 H   0  0  0  0  0  0  0  0  0  0  0  0
  151.1789  139.4109  159.1488 H   0  0  0  0  0  0  0  0  0  0  0  0
  150.4730  137.3694  158.3460 H   0  0  0  0  0  0  0  0  0  0  0  0
  150.3165  138.2751  156.8585 H   0  0  0  0  0  0  0  0  0  0  0  0
  152.8381  137.7497  156.4310 H   0  0  0  0  0  0  0  0  0  0  0  0
  152.7237  136.5969  157.7373 H   0  0  0  0  0  0  0  0  0  0  0  0
  152.3886  134.3595  157.0878 H   0  0  0  0  0  0  0  0  0  0  0  0
  151.4413  132.6931  155.4840 H   0  0  0  0  0  0  0  0  0  0  0  0
  150.0827  133.5570  153.4895 H   0  0  0  0  0  0  0  0  0  0  0  0
  150.5969  137.4920  154.6491 H   0  0  0  0  0  0  0  0  0  0  0  0
  149.7840  135.8407  153.2475 H   0  0  0  0  0  0  0  0  0  0  0  0
  1  2  1  0  0  0  0
  1 22  1  0  0  0  0
  1 23  1  0  0  0  0
  1 24  1  0  0  0  0
  2  3  2  0  0  0  0
  2  4  2  0  0  0  0
  2  5  1  0  0  0  0
  5 10  1  0  0  0  0
  5  6  1  0  0  0  0
  6  7  1  0  0  0  0
  6 25  1  0  0  0  0
  6 26  1  0  0  0  0
  7  8  1  0  0  0  0
  7 27  1  0  0  0  0
  7 28  1  0  0  0  0
  8  9  1  0  0  0  0
  8 29  1  0  0  0  0
  8 30  1  0  0  0  0
  9 10  1  0  0  0  0
  9 31  1  0  0  0  0
  9 32  1  0  0  0  0
 10 11  1  0  0  0  0
 10 33  1  0  0  0  0
 11 12  2  0  0  0  0
 11 13  1  0  0  0  0
 13 14  1  0  0  0  0
 13 34  1  0  0  0  0
 14 15  1  0  0  0  0
 14 35  1  0  0  0  0
 14 36  1  0  0  0  0
 15 16  1  0  0  0  0
 15 37  1  0  0  0  0
 15 38  1  0  0  0  0
 16 21  1  0  0  0  0
 16 17  2  0  0  0  0
 17 18  1  0  0  0  0
 17 39  1  0  0  0  0
 18 19  2  0  0  0  0
 18 40  1  0  0  0  0
 19 20  1  0  0  0  0
 19 41  1  0  0  0  0
 20 21  2  0  0  0  0
 20 43  1  0  0  0  0
 21 42  1  0  0  0  0
M  CHG  1  20   1
M  END
> <s_m_source_file>
AV-unprocessed.smi

> <i_m_source_file_index>
2136

> <i_lp_mmshare_version>
43012

> <i_f3d_flags>
0

> <s_epik_input>
W0NIM11TKD1PKSg9TylOMVtDSDJdW0NIMl1bQ0gyXVtDSDJdW0NASF0xQyg9TylbTkhdW0NIMl1bQ0gyXWMyW2NIXVtjSF1bY0hdbltjSF0y

> <s_epik_cmdline>
J2VwaWtfcHl0aG9uJywgJy1waCcsICc3LjAnLCAnLXRuJywgJzgnLCAnLW1hJywgJzIwMCcsICctbWV0YWxfYmluZGluZycsICctaW1hZScsICc8aW5maWxlLm1hZT4nLCAnLW9tYWUnLCAnPG91dGZpbGUubWFlPic=

> <r_epik_Ionization_Penalty>
2.2835

> <r_epik_Ionization_Penalty_Charging>
2.2835

> <r_epik_Ionization_Penalty_Neutral>
1.35461e-07

> <r_epik_State_Penalty>
2.43297

> <r_epik_Charging_Adjusted_Penalty>
4.71647

> <i_epik_Tot_Q>
1

> <i_epik_Tot_abs_Q>
1

> <r_epik_Metal_State_Penalty>
2.44557

> <b_epik_Metal_Only>
0

> <s_lp_Force_Field>
OPLS_2005

> <r_lp_Energy>
10.903

> <b_lp_Chiralities_Consistent>
1

> <s_lp_Variant>
AV-unprocessed.smi:2136-4

> <Gold.Version>
5.8.1

> <Gold.Id.Protein>
6NUR|6NUR_protein|mol2

> <Gold.PLP.Fitness>
44.3699

> <Gold.PLP.PLP>
-33.7630

> <Gold.PLP.part.hbond>
-3.2111

> <Gold.PLP.part.metal>
0.0000

> <Gold.PLP.part.buried>
-4.7651

> <Gold.PLP.part.nonpolar>
-25.1289

> <Gold.PLP.part.repulsive>
0.1536

> <Gold.PLP.ligand.clash>
0.0000

> <Gold.PLP.ligand.torsion>
1.0135

> <Gold.PLP.Chemscore.Hbond>
3.9600

> <Gold.PLP.Chemscore.CHOScore>
0.0000

> <Gold.PLP.Chemscore.Metal>
0.0000

> <Gold.Chemscore.Hbonds>
donor molecule, donor type, donor heavy atom, donor atom, acceptor molecule, acceptor atom, score
      L1  H    20    43       P1  7948  1.00
      P1  H  7997  8008       L1     3  1.00
      P1  H  7997  8009       L1    12  0.62

> <Gold.PLP.Chemscore.Internal.Correction>
0.7538

> <Gold.Rescore>
     Score         DG    S(hbond)    S(metal)    S(lipo)     H(rot)  DE(clash)    DE(int)     intcor
     17.69     -20.11       2.79        0.00      88.00       1.95       0.00       2.42       ----

> <Gold.Chemscore.Fitness>
17.6918

> <Gold.Chemscore.DG>
-20.1111

> <Gold.Chemscore.ZeroCoef>
-5.4800

> <Gold.Chemscore.Hbond>
2.7900

> <Gold.Chemscore.Metal>
0.0000

> <Gold.Chemscore.Lipo>
87.9984

> <Gold.Chemscore.Internal_Hbond>
0.0000

> <Gold.Chemscore.DEClash>
0.0024

> <Gold.Chemscore.DEInternal>
2.4169

> <Gold.Chemscore.Rot>
1.9466

> <Gold.Chemscore.Internal.Correction>
   9.000000E+99

> <Gold.Chemscore.Hbonds>
donor molecule, donor type, donor heavy atom, donor atom, acceptor molecule, acceptor atom, score
      L1  H    20    43       P1  7948  0.02
      P1  H  7997  8008       L1     3  0.99
      P1  H  7997  8009       L1    12  0.60

> <Gold.Chemscore.Hbond.Weighted>
-9.3185

> <Gold.Chemscore.Metal.Weighted>
-0.0000

> <Gold.Chemscore.Lipo.Weighted>
-10.2958

> <Gold.Chemscore.Internal_Hbond.Weighted>
0.0000

> <Gold.Chemscore.DEClash.Weighted>
0.0024

> <Gold.Chemscore.DEInternal.Weighted>
2.4169

> <Gold.Chemscore.Rot.Weighted>
4.9832

> <Gold.Chemscore.Internal.Correction.Weighted>
   9.000000E+99

> <Gold.Protein.RotatedTorsions>
[ 6907 6896 6895 6894 ] final   18.62 input  -60.11 | X-H torsion
[ 7974 7965 7964 7962 ] final  178.43 input  175.53 | X-H torsion
[ 8008 7997 7996 7995 ] final -153.91 input   59.86 | X-H torsion
[ 10167 10162 10161 10158 ] final  108.06 input  -65.29 | X-H torsion
[ 10718 10713 10712 10709 ] final -149.63 input   66.30 | X-H torsion
[ 10763 10752 10751 10750 ] final   79.87 input  -60.55 | X-H torsion
[ 11005 11000 10999 10996 ] final  114.37 input  -57.11 | X-H torsion

> <Gold.Protein.ActiveResidues>
 VAL166  LYS551  ARG553  GLY616  TRP617  ASP618  TYR619  PRO620  LYS621  CYS622 
 ASP623  PHE694  ASN695  SER759  ASP760  ASP761  ALA762  ILE779  LEU786  VAL792 
 PHE793  MET794  SER795  GLU796  ALA797  LYS798  CYS799  TRP800  GLU811  SER814 

> <Gold.Protein.RotatedAtoms>
  151.8682  135.0499  160.0476 H   0  0  0  0  0  0  0  0  0  0  0  0  # atno 6907 bound_to 6896
  152.2609  133.5292  159.5390 H   0  0  0  0  0  0  0  0  0  0  0  0  # atno 6908 bound_to 6896
  150.7116  134.0747  159.3919 H   0  0  0  0  0  0  0  0  0  0  0  0  # atno 6909 bound_to 6896
  144.7156  140.0396  143.6437 H   0  0  0  0  0  0  0  0  0  0  0  0  # atno 7974 bound_to 7965
  155.6781  140.0741  157.2495 H   0  0  0  0  0  0  0  0  0  0  0  0  # atno 8008 bound_to 7997
  154.4110  140.1687  156.2004 H   0  0  0  0  0  0  0  0  0  0  0  0  # atno 8009 bound_to 7997
  155.9558  140.3374  155.6450 H   0  0  0  0  0  0  0  0  0  0  0  0  # atno 8010 bound_to 7997
  139.6877  144.7111  151.1403 H   0  0  0  0  0  0  0  0  0  0  0  0  # atno 10167 bound_to 10162
  156.4356  130.8097  151.2325 H   0  0  0  0  0  0  0  0  0  0  0  0  # atno 10718 bound_to 10713
  153.0987  135.4824  154.8827 H   0  0  0  0  0  0  0  0  0  0  0  0  # atno 10763 bound_to 10752
  154.7354  135.3070  154.8823 H   0  0  0  0  0  0  0  0  0  0  0  0  # atno 10764 bound_to 10752
  153.9446  135.6830  153.4797 H   0  0  0  0  0  0  0  0  0  0  0  0  # atno 10765 bound_to 10752
  139.8979  134.9566  156.6882 H   0  0  0  0  0  0  0  0  0  0  0  0  # atno 11005 bound_to 11000
  146.0035  139.3110  143.0913 LP  0  0  0  0  0  0  0  0  0  0  0  0  # atno 17320 bound_to 7965
  145.8766  140.9388  143.0623 LP  0  0  0  0  0  0  0  0  0  0  0  0  # atno 17321 bound_to 7965
  140.7673  143.5605  150.9104 LP  0  0  0  0  0  0  0  0  0  0  0  0  # atno 17342 bound_to 10162
  139.9281  143.6526  152.3082 LP  0  0  0  0  0  0  0  0  0  0  0  0  # atno 17343 bound_to 10162
  157.7507  131.0184  150.3626 LP  0  0  0  0  0  0  0  0  0  0  0  0  # atno 17370 bound_to 10713
  156.3972  130.3909  149.6986 LP  0  0  0  0  0  0  0  0  0  0  0  0  # atno 17371 bound_to 10713
  140.7246  133.9112  155.8169 LP  0  0  0  0  0  0  0  0  0  0  0  0  # atno 17394 bound_to 11000
  141.0201  134.0901  157.4129 LP  0  0  0  0  0  0  0  0  0  0  0  0  # atno 17395 bound_to 11000

$$$$
