AV-unprocessed.smi:1115|AV-procd|sdf|4803|dock10
  -GOLD-   22720 3353D 1   1.00000     0.00000
 Structure written by MMmdl.
 50 51  0  0  0  0  0  0  0  0  1 V2000
  149.0339  128.7589  155.0476 C   0  0  0  0  0  0  0  0  0  0  0  0
  148.5309  129.7668  154.1197 N   0  0  0  0  0  0  0  0  0  0  0  0
  147.5018  129.4095  153.1512 C   0  0  0  0  0  0  0  0  0  0  0  0
  148.9419  131.1130  154.2538 C   0  0  0  0  0  0  0  0  0  0  0  0
  149.6305  131.5649  155.4072 C   0  0  0  0  0  0  0  0  0  0  0  0
  150.0200  132.9152  155.4949 C   0  0  0  0  0  0  0  0  0  0  0  0
  149.7066  133.7904  154.4298 C   0  0  0  0  0  0  0  0  0  0  0  0
  150.0642  135.1650  154.3890 N   0  0  0  0  0  0  0  0  0  0  0  0
  150.6754  135.8995  155.3339 C   0  0  0  0  0  0  0  0  0  0  0  0
  151.0058  135.4936  156.4480 O   0  0  0  0  0  0  0  0  0  0  0  0
  150.8595  137.1603  154.9181 N   0  0  0  0  0  0  0  0  0  0  0  0
  151.4490  138.2448  155.7035 C   0  0  0  0  0  0  0  0  0  0  0  0
  150.5981  139.5489  155.6647 C   0  0  0  0  0  0  0  0  0  0  0  0
  150.5105  139.9754  154.1771 C   0  0  0  0  0  0  0  0  0  0  0  0
  149.1652  139.1727  156.1135 C   0  0  0  0  0  0  0  0  0  0  0  0
  151.2056  140.6261  156.4964 N   0  0  0  0  0  0  0  0  0  0  0  0
  151.3178  140.3127  157.9260 C   0  0  0  0  0  0  0  0  0  0  0  0
  152.0644  141.4105  158.7025 C   0  0  0  0  0  0  0  0  0  0  0  0
  151.4093  142.6589  158.5161 O   0  0  0  0  0  0  0  0  0  0  0  0
  151.3306  143.0306  157.1456 C   0  0  0  0  0  0  0  0  0  0  0  0
  150.5794  141.9457  156.3547 C   0  0  0  0  0  0  0  0  0  0  0  0
  149.0308  133.2488  153.3193 C   0  0  0  0  0  0  0  0  0  0  0  0
  148.6546  131.9563  153.2318 N   0  0  0  0  0  0  0  0  0  0  0  0
  148.7140  128.9841  156.0655 H   0  0  0  0  0  0  0  0  0  0  0  0
  150.1236  128.7246  155.0254 H   0  0  0  0  0  0  0  0  0  0  0  0
  148.6666  127.7648  154.7929 H   0  0  0  0  0  0  0  0  0  0  0  0
  146.5886  129.9765  153.3351 H   0  0  0  0  0  0  0  0  0  0  0  0
  147.2517  128.3501  153.2103 H   0  0  0  0  0  0  0  0  0  0  0  0
  147.8428  129.6144  152.1359 H   0  0  0  0  0  0  0  0  0  0  0  0
  149.8711  130.9036  156.2257 H   0  0  0  0  0  0  0  0  0  0  0  0
  150.5618  133.2448  156.3676 H   0  0  0  0  0  0  0  0  0  0  0  0
  149.7725  135.6626  153.5603 H   0  0  0  0  0  0  0  0  0  0  0  0
  150.5415  137.4018  153.9910 H   0  0  0  0  0  0  0  0  0  0  0  0
  151.6079  137.9275  156.7358 H   0  0  0  0  0  0  0  0  0  0  0  0
  152.4535  138.4225  155.3203 H   0  0  0  0  0  0  0  0  0  0  0  0
  150.2436  139.1352  153.5350 H   0  0  0  0  0  0  0  0  0  0  0  0
  151.4592  140.3725  153.8145 H   0  0  0  0  0  0  0  0  0  0  0  0
  149.7499  140.7382  154.0102 H   0  0  0  0  0  0  0  0  0  0  0  0
  148.7476  138.3938  155.4743 H   0  0  0  0  0  0  0  0  0  0  0  0
  148.4812  140.0196  156.0621 H   0  0  0  0  0  0  0  0  0  0  0  0
  149.1401  138.7879  157.1328 H   0  0  0  0  0  0  0  0  0  0  0  0
  150.3271  140.1874  158.3631 H   0  0  0  0  0  0  0  0  0  0  0  0
  151.8523  139.3771  158.0798 H   0  0  0  0  0  0  0  0  0  0  0  0
  152.0844  141.1745  159.7665 H   0  0  0  0  0  0  0  0  0  0  0  0
  153.1013  141.4814  158.3703 H   0  0  0  0  0  0  0  0  0  0  0  0
  150.8114  143.9857  157.0652 H   0  0  0  0  0  0  0  0  0  0  0  0
  152.3340  143.1767  156.7423 H   0  0  0  0  0  0  0  0  0  0  0  0
  150.5564  142.2550  155.3114 H   0  0  0  0  0  0  0  0  0  0  0  0
  149.5456  141.9121  156.6990 H   0  0  0  0  0  0  0  0  0  0  0  0
  148.7788  133.8715  152.4730 H   0  0  0  0  0  0  0  0  0  0  0  0
  1  2  1  0  0  0  0
  1 24  1  0  0  0  0
  1 25  1  0  0  0  0
  1 26  1  0  0  0  0
  2  3  1  0  0  0  0
  2  4  1  0  0  0  0
  3 27  1  0  0  0  0
  3 28  1  0  0  0  0
  3 29  1  0  0  0  0
  4 23  1  0  0  0  0
  4  5  2  0  0  0  0
  5  6  1  0  0  0  0
  5 30  1  0  0  0  0
  6  7  2  0  0  0  0
  6 31  1  0  0  0  0
  7  8  1  0  0  0  0
  7 22  1  0  0  0  0
  8  9  1  0  0  0  0
  8 32  1  0  0  0  0
  9 10  2  0  0  0  0
  9 11  1  0  0  0  0
 11 12  1  0  0  0  0
 11 33  1  0  0  0  0
 12 13  1  0  0  0  0
 12 34  1  0  0  0  0
 12 35  1  0  0  0  0
 13 14  1  0  0  0  0
 13 15  1  0  0  0  0
 13 16  1  0  0  0  0
 14 36  1  0  0  0  0
 14 37  1  0  0  0  0
 14 38  1  0  0  0  0
 15 39  1  0  0  0  0
 15 40  1  0  0  0  0
 15 41  1  0  0  0  0
 16 21  1  0  0  0  0
 16 17  1  0  0  0  0
 17 18  1  0  0  0  0
 17 42  1  0  0  0  0
 17 43  1  0  0  0  0
 18 19  1  0  0  0  0
 18 44  1  0  0  0  0
 18 45  1  0  0  0  0
 19 20  1  0  0  0  0
 20 21  1  0  0  0  0
 20 46  1  0  0  0  0
 20 47  1  0  0  0  0
 21 48  1  0  0  0  0
 21 49  1  0  0  0  0
 22 23  2  0  0  0  0
 22 50  1  0  0  0  0
M  END
> <s_m_source_file>
AV-unprocessed.smi

> <i_m_source_file_index>
1115

> <i_lp_mmshare_version>
43012

> <i_f3d_flags>
0

> <s_epik_input>
W0NIM11OKFtDSDNdKWMxW2NIXVtjSF1jKFtjSF1uMSlbTkhdQyg9TylbTkhdW0NIMl1DKFtDSDNdKShbQ0gzXSlOMltDSDJdW0NIMl1PW0NIMl1bQ0gyXTI=

> <s_epik_cmdline>
J2VwaWtfcHl0aG9uJywgJy1waCcsICc3LjAnLCAnLXRuJywgJzgnLCAnLW1hJywgJzIwMCcsICctbWV0YWxfYmluZGluZycsICctaW1hZScsICc8aW5maWxlLm1hZT4nLCAnLW9tYWUnLCAnPG91dGZpbGUubWFlPic=

> <r_lp_tautomer_probability>
1

> <r_epik_Ionization_Penalty>
0.880664

> <r_epik_Ionization_Penalty_Charging>
0

> <r_epik_Ionization_Penalty_Neutral>
0.880664

> <r_epik_State_Penalty>
0.865003

> <r_epik_Charging_Adjusted_Penalty>
0.865003

> <i_epik_Tot_Q>
0

> <i_epik_Tot_abs_Q>
0

> <r_epik_Metal_State_Penalty>
0.539426

> <b_epik_Metal_Only>
0

> <s_lp_Force_Field>
OPLS_2005

> <r_lp_Energy>
45.7519

> <b_lp_Chiralities_Consistent>
1

> <s_lp_Variant>
AV-unprocessed.smi:1115-2

> <Gold.Version>
5.8.1

> <Gold.Id.Protein>
6NUR|6NUR_protein|mol2

> <Gold.PLP.Fitness>
43.0962

> <Gold.PLP.PLP>
-35.4989

> <Gold.PLP.part.hbond>
-2.5657

> <Gold.PLP.part.metal>
0.0000

> <Gold.PLP.part.buried>
-4.0126

> <Gold.PLP.part.nonpolar>
-28.3672

> <Gold.PLP.part.repulsive>
0.2804

> <Gold.PLP.ligand.clash>
0.0000

> <Gold.PLP.ligand.torsion>
0.2280

> <Gold.PLP.Chemscore.Hbond>
1.9513

> <Gold.PLP.Chemscore.CHOScore>
0.7107

> <Gold.PLP.Chemscore.Metal>
0.0000

> <Gold.Chemscore.Hbonds>
donor molecule, donor type, donor heavy atom, donor atom, acceptor molecule, acceptor atom, score
      L1  H     8    32       P1  7948  0.65
      L1  C    22    50       P1  7948  0.10

> <Gold.PLP.Chemscore.Internal.Correction>
0.0675

> <Gold.Rescore>
     Score         DG    S(hbond)    S(metal)    S(lipo)     H(rot)  DE(clash)    DE(int)     intcor
     11.91     -13.29       0.95        0.00      70.64       1.42       0.00       1.38       ----

> <Gold.Chemscore.Fitness>
11.9080

> <Gold.Chemscore.DG>
-13.2930

> <Gold.Chemscore.ZeroCoef>
-5.4800

> <Gold.Chemscore.Hbond>
0.9543

> <Gold.Chemscore.Metal>
0.0000

> <Gold.Chemscore.Lipo>
70.6415

> <Gold.Chemscore.Internal_Hbond>
0.0000

> <Gold.Chemscore.DEClash>
0.0038

> <Gold.Chemscore.DEInternal>
1.3812

> <Gold.Chemscore.Rot>
1.4217

> <Gold.Chemscore.Internal.Correction>
   9.000000E+99

> <Gold.Chemscore.Hbonds>
donor molecule, donor type, donor heavy atom, donor atom, acceptor molecule, acceptor atom, score
      L1  H     8    32       P1  7948  0.06

> <Gold.Chemscore.Hbond.Weighted>
-3.1875

> <Gold.Chemscore.Metal.Weighted>
-0.0000

> <Gold.Chemscore.Lipo.Weighted>
-8.2651

> <Gold.Chemscore.Internal_Hbond.Weighted>
0.0000

> <Gold.Chemscore.DEClash.Weighted>
0.0038

> <Gold.Chemscore.DEInternal.Weighted>
1.3812

> <Gold.Chemscore.Rot.Weighted>
3.6395

> <Gold.Chemscore.Internal.Correction.Weighted>
   9.000000E+99

> <Gold.Protein.RotatedTorsions>
[ 6907 6896 6895 6894 ] final  -28.71 input  -60.11 | X-H torsion
[ 7974 7965 7964 7962 ] final   85.89 input  175.53 | X-H torsion
[ 8008 7997 7996 7995 ] final   62.37 input   59.86 | X-H torsion
[ 10167 10162 10161 10158 ] final  -29.72 input  -65.29 | X-H torsion
[ 10718 10713 10712 10709 ] final  -60.47 input   66.30 | X-H torsion
[ 10763 10752 10751 10750 ] final  -20.37 input  -60.55 | X-H torsion
[ 11005 11000 10999 10996 ] final -103.31 input  -57.11 | X-H torsion

> <Gold.Protein.ActiveResidues>
 VAL166  LYS551  ARG553  GLY616  TRP617  ASP618  TYR619  PRO620  LYS621  CYS622 
 ASP623  PHE694  ASN695  SER759  ASP760  ASP761  ALA762  ILE779  LEU786  VAL792 
 PHE793  MET794  SER795  GLU796  ALA797  LYS798  CYS799  TRP800  GLU811  SER814 

> <Gold.Protein.RotatedAtoms>
  151.1291  135.0121  159.8573 H   0  0  0  0  0  0  0  0  0  0  0  0  # atno 6907 bound_to 6896
  152.5450  134.1631  159.8576 H   0  0  0  0  0  0  0  0  0  0  0  0  # atno 6908 bound_to 6896
  151.1696  133.4747  159.2627 H   0  0  0  0  0  0  0  0  0  0  0  0  # atno 6909 bound_to 6896
  145.5795  139.2323  143.2361 H   0  0  0  0  0  0  0  0  0  0  0  0  # atno 7974 bound_to 7965
  155.6133  140.3495  155.4629 H   0  0  0  0  0  0  0  0  0  0  0  0  # atno 8008 bound_to 7997
  156.0137  140.1239  157.0452 H   0  0  0  0  0  0  0  0  0  0  0  0  # atno 8009 bound_to 7997
  154.4290  140.1076  156.5852 H   0  0  0  0  0  0  0  0  0  0  0  0  # atno 8010 bound_to 7997
  140.7257  143.3906  151.1436 H   0  0  0  0  0  0  0  0  0  0  0  0  # atno 10167 bound_to 10162
  156.0989  130.4189  150.0858 H   0  0  0  0  0  0  0  0  0  0  0  0  # atno 10718 bound_to 10713
  153.6193  135.6993  153.5316 H   0  0  0  0  0  0  0  0  0  0  0  0  # atno 10763 bound_to 10752
  153.2951  135.4145  155.1201 H   0  0  0  0  0  0  0  0  0  0  0  0  # atno 10764 bound_to 10752
  154.8546  135.3635  154.5734 H   0  0  0  0  0  0  0  0  0  0  0  0  # atno 10765 bound_to 10752
  141.1151  133.8629  157.1470 H   0  0  0  0  0  0  0  0  0  0  0  0  # atno 11005 bound_to 11000
  146.1726  140.6621  142.9226 LP  0  0  0  0  0  0  0  0  0  0  0  0  # atno 17320 bound_to 7965
  144.7400  140.4917  143.6876 LP  0  0  0  0  0  0  0  0  0  0  0  0  # atno 17321 bound_to 7965
  139.7510  143.8778  152.3077 LP  0  0  0  0  0  0  0  0  0  0  0  0  # atno 17342 bound_to 10162
  139.8632  144.7106  150.9075 LP  0  0  0  0  0  0  0  0  0  0  0  0  # atno 17343 bound_to 10162
  156.8850  130.9569  151.3595 LP  0  0  0  0  0  0  0  0  0  0  0  0  # atno 17370 bound_to 10713
  157.6155  130.8615  149.9021 LP  0  0  0  0  0  0  0  0  0  0  0  0  # atno 17371 bound_to 10713
  140.0069  135.0005  157.0311 LP  0  0  0  0  0  0  0  0  0  0  0  0  # atno 17394 bound_to 11000
  140.4667  134.1428  155.7198 LP  0  0  0  0  0  0  0  0  0  0  0  0  # atno 17395 bound_to 11000

$$$$
