AV-unprocessed.smi:1554|AV-procd|sdf|6241|dock1
  -GOLD-   22720 6423D 1   1.00000     0.00000
 Structure written by MMmdl.
 47 49  0  0  0  0  0  0  0  0  1 V2000
  151.1654  144.6270  158.8610 C   0  0  0  0  0  0  0  0  0  0  0  0
  151.8403  143.3682  159.3768 C   0  0  0  0  0  0  0  0  0  0  0  0
  152.0791  142.3007  158.4821 C   0  0  0  0  0  0  0  0  0  0  0  0
  152.7073  141.1147  158.9212 C   0  0  0  0  0  0  0  0  0  0  0  0
  153.0386  139.9633  158.2273 N   0  0  0  0  0  0  0  0  0  0  0  0
  153.5999  139.2273  159.1820 C   0  0  0  0  0  0  0  0  0  0  0  0
  153.6723  139.7661  160.4142 N   0  0  0  0  0  0  0  0  0  0  0  0
  154.2379  139.1515  161.6025 C   0  0  0  0  0  0  0  0  0  0  0  0
  154.6460  137.6841  161.3713 C   0  0  1  0  0  0  0  0  0  0  0  0
  155.7819  137.6469  160.5291 O   0  0  0  0  0  0  0  0  0  0  0  0
  154.9940  136.9809  162.6994 C   0  0  0  0  0  0  0  0  0  0  0  0
  154.6982  135.5478  162.7569 N   0  0  0  0  0  0  0  0  0  0  0  0
  155.5920  134.7986  161.8806 C   0  0  0  0  0  0  0  0  0  0  0  0
  155.3031  133.2888  161.9177 C   0  0  0  0  0  0  0  0  0  0  0  0
  155.4034  132.8205  163.2582 O   0  0  0  0  0  0  0  0  0  0  0  0
  154.5105  133.4873  164.1459 C   0  0  1  0  0  0  0  0  0  0  0  0
  154.6925  132.8958  165.5478 C   0  0  0  0  0  0  0  0  0  0  0  0
  154.7968  135.0018  164.1099 C   0  0  0  0  0  0  0  0  0  0  0  0
  153.0911  141.0239  160.2913 C   0  0  0  0  0  0  0  0  0  0  0  0
  152.8592  142.0793  161.1908 C   0  0  0  0  0  0  0  0  0  0  0  0
  152.2318  143.2578  160.7353 C   0  0  0  0  0  0  0  0  0  0  0  0
  151.9887  144.3933  161.7136 C   0  0  0  0  0  0  0  0  0  0  0  0
  150.9182  144.5411  157.8025 H   0  0  0  0  0  0  0  0  0  0  0  0
  151.8218  145.4891  158.9824 H   0  0  0  0  0  0  0  0  0  0  0  0
  150.2401  144.8164  159.4056 H   0  0  0  0  0  0  0  0  0  0  0  0
  151.7822  142.3847  157.4471 H   0  0  0  0  0  0  0  0  0  0  0  0
  153.9823  138.2386  158.9742 H   0  0  0  0  0  0  0  0  0  0  0  0
  155.0946  139.7423  161.9295 H   0  0  0  0  0  0  0  0  0  0  0  0
  153.4968  139.2129  162.4005 H   0  0  0  0  0  0  0  0  0  0  0  0
  153.8250  137.1778  160.8658 H   0  0  0  0  0  0  0  0  0  0  0  0
  156.0548  138.5347  160.3544 H   0  0  0  0  0  0  0  0  0  0  0  0
  156.0561  137.1382  162.8940 H   0  0  0  0  0  0  0  0  0  0  0  0
  154.4703  137.4808  163.5157 H   0  0  0  0  0  0  0  0  0  0  0  0
  155.4912  135.1568  160.8553 H   0  0  0  0  0  0  0  0  0  0  0  0
  156.6290  134.9736  162.1720 H   0  0  0  0  0  0  0  0  0  0  0  0
  154.3091  133.0745  161.5223 H   0  0  0  0  0  0  0  0  0  0  0  0
  156.0188  132.7500  161.2967 H   0  0  0  0  0  0  0  0  0  0  0  0
  153.4858  133.3028  163.8189 H   0  0  0  0  0  0  0  0  0  0  0  0
  154.0175  133.3669  166.2627 H   0  0  0  0  0  0  0  0  0  0  0  0
  155.7125  133.0370  165.9064 H   0  0  0  0  0  0  0  0  0  0  0  0
  154.4836  131.8260  165.5491 H   0  0  0  0  0  0  0  0  0  0  0  0
  155.7929  135.1931  164.5127 H   0  0  0  0  0  0  0  0  0  0  0  0
  154.0911  135.4995  164.7731 H   0  0  0  0  0  0  0  0  0  0  0  0
  153.1649  141.9833  162.2222 H   0  0  0  0  0  0  0  0  0  0  0  0
  152.3370  144.1372  162.7146 H   0  0  0  0  0  0  0  0  0  0  0  0
  150.9245  144.6216  161.7785 H   0  0  0  0  0  0  0  0  0  0  0  0
  152.5179  145.2913  161.3943 H   0  0  0  0  0  0  0  0  0  0  0  0
  1  2  1  0  0  0  0
  1 23  1  0  0  0  0
  1 24  1  0  0  0  0
  1 25  1  0  0  0  0
  2 21  1  0  0  0  0
  2  3  2  0  0  0  0
  3  4  1  0  0  0  0
  3 26  1  0  0  0  0
  4 19  2  0  0  0  0
  4  5  1  0  0  0  0
  5  6  2  0  0  0  0
  6  7  1  0  0  0  0
  6 27  1  0  0  0  0
  7  8  1  0  0  0  0
  7 19  1  0  0  0  0
  8  9  1  0  0  0  0
  8 28  1  0  0  0  0
  8 29  1  0  0  0  0
  9 10  1  0  0  0  0
  9 11  1  0  0  0  0
  9 30  1  0  0  0  0
 10 31  1  0  0  0  0
 11 12  1  0  0  0  0
 11 32  1  0  0  0  0
 11 33  1  0  0  0  0
 12 18  1  0  0  0  0
 12 13  1  0  0  0  0
 13 14  1  0  0  0  0
 13 34  1  0  0  0  0
 13 35  1  0  0  0  0
 14 15  1  0  0  0  0
 14 36  1  0  0  0  0
 14 37  1  0  0  0  0
 15 16  1  0  0  0  0
 16 17  1  0  0  0  0
 16 18  1  0  0  0  0
 16 38  1  0  0  0  0
 17 39  1  0  0  0  0
 17 40  1  0  0  0  0
 17 41  1  0  0  0  0
 18 42  1  0  0  0  0
 18 43  1  0  0  0  0
 19 20  1  0  0  0  0
 20 21  2  0  0  0  0
 20 44  1  0  0  0  0
 21 22  1  0  0  0  0
 22 45  1  0  0  0  0
 22 46  1  0  0  0  0
 22 47  1  0  0  0  0
M  END
> <s_m_source_file>
AV-unprocessed.smi

> <i_m_source_file_index>
1554

> <i_lp_mmshare_version>
43012

> <i_f3d_flags>
0

> <s_epik_input>
W0NIM11jKFtjSF0xKWMoW0NIM10pW2NIXWMoYzEyKW4oW2NIXW4yKVtDSDJdW0NASF0oW09IXSlbQ0gyXU4zW0NIMl1bQ0gyXU9bQ0BASF0oW0NIM10pW0NIMl0z

> <s_epik_cmdline>
J2VwaWtfcHl0aG9uJywgJy1waCcsICc3LjAnLCAnLXRuJywgJzgnLCAnLW1hJywgJzIwMCcsICctbWV0YWxfYmluZGluZycsICctaW1hZScsICc8aW5maWxlLm1hZT4nLCAnLW9tYWUnLCAnPG91dGZpbGUubWFlPic=

> <r_epik_Ionization_Penalty>
0.345108

> <r_epik_Ionization_Penalty_Charging>
0

> <r_epik_Ionization_Penalty_Neutral>
0.345108

> <r_epik_State_Penalty>
0.314544

> <r_epik_Charging_Adjusted_Penalty>
0.314544

> <i_epik_Tot_Q>
0

> <i_epik_Tot_abs_Q>
0

> <r_epik_Metal_State_Penalty>
0.239719

> <b_epik_Metal_Only>
0

> <s_lp_Force_Field>
OPLS_2005

> <r_lp_Energy>
29.8053

> <b_lp_Chiralities_Consistent>
1

> <s_lp_Variant>
AV-unprocessed.smi:1554-2

> <Gold.Version>
5.8.1

> <Gold.Id.Protein>
6NUR|6NUR_protein|mol2

> <Gold.PLP.Fitness>
45.7566

> <Gold.PLP.PLP>
-43.7542

> <Gold.PLP.part.hbond>
-1.0000

> <Gold.PLP.part.metal>
0.0000

> <Gold.PLP.part.buried>
-3.2685

> <Gold.PLP.part.nonpolar>
-39.0990

> <Gold.PLP.part.repulsive>
0.0013

> <Gold.PLP.ligand.clash>
0.0000

> <Gold.PLP.ligand.torsion>
0.5561

> <Gold.PLP.Chemscore.Hbond>
1.0000

> <Gold.PLP.Chemscore.CHOScore>
0.0000

> <Gold.PLP.Chemscore.Metal>
0.0000

> <Gold.Chemscore.Hbonds>
donor molecule, donor type, donor heavy atom, donor atom, acceptor molecule, acceptor atom, score
      P1  H  7997  8010       L1     5  1.00

> <Gold.PLP.Chemscore.Internal.Correction>
0.1146

> <Gold.Rescore>
     Score         DG    S(hbond)    S(metal)    S(lipo)     H(rot)  DE(clash)    DE(int)     intcor
     17.50     -19.54       0.80        0.00     140.66       1.98       0.12       1.92       ----

> <Gold.Chemscore.Fitness>
17.5020

> <Gold.Chemscore.DG>
-19.5360

> <Gold.Chemscore.ZeroCoef>
-5.4800

> <Gold.Chemscore.Hbond>
0.8024

> <Gold.Chemscore.Metal>
0.0000

> <Gold.Chemscore.Lipo>
140.6571

> <Gold.Chemscore.Internal_Hbond>
0.0000

> <Gold.Chemscore.DEClash>
0.1151

> <Gold.Chemscore.DEInternal>
1.9189

> <Gold.Chemscore.Rot>
1.9848

> <Gold.Chemscore.Internal.Correction>
   9.000000E+99

> <Gold.Chemscore.Hbonds>
donor molecule, donor type, donor heavy atom, donor atom, acceptor molecule, acceptor atom, score
      P1  H  7997  8010       L1     5  0.32

> <Gold.Chemscore.Hbond.Weighted>
-2.6802

> <Gold.Chemscore.Metal.Weighted>
-0.0000

> <Gold.Chemscore.Lipo.Weighted>
-16.4569

> <Gold.Chemscore.Internal_Hbond.Weighted>
0.0000

> <Gold.Chemscore.DEClash.Weighted>
0.1151

> <Gold.Chemscore.DEInternal.Weighted>
1.9189

> <Gold.Chemscore.Rot.Weighted>
5.0810

> <Gold.Chemscore.Internal.Correction.Weighted>
   9.000000E+99

> <Gold.Protein.RotatedTorsions>
[ 6907 6896 6895 6894 ] final  -95.70 input  -60.11 | X-H torsion
[ 7974 7965 7964 7962 ] final  167.53 input  175.53 | X-H torsion
[ 8008 7997 7996 7995 ] final   44.69 input   59.86 | X-H torsion
[ 10167 10162 10161 10158 ] final -110.29 input  -65.29 | X-H torsion
[ 10718 10713 10712 10709 ] final  154.35 input   66.30 | X-H torsion
[ 10763 10752 10751 10750 ] final  148.00 input  -60.55 | X-H torsion
[ 11005 11000 10999 10996 ] final   60.65 input  -57.11 | X-H torsion

> <Gold.Protein.ActiveResidues>
 VAL166  LYS551  ARG553  GLY616  TRP617  ASP618  TYR619  PRO620  LYS621  CYS622 
 ASP623  PHE694  ASN695  SER759  ASP760  ASP761  ALA762  ILE779  LEU786  VAL792 
 PHE793  MET794  SER795  GLU796  ALA797  LYS798  CYS799  TRP800  GLU811  SER814 

> <Gold.Protein.RotatedAtoms>
  150.6970  134.1616  159.4178 H   0  0  0  0  0  0  0  0  0  0  0  0  # atno 6907 bound_to 6896
  151.9597  135.0127  160.0556 H   0  0  0  0  0  0  0  0  0  0  0  0  # atno 6908 bound_to 6896
  152.1938  133.4757  159.5059 H   0  0  0  0  0  0  0  0  0  0  0  0  # atno 6909 bound_to 6896
  144.7421  139.8775  143.6393 H   0  0  0  0  0  0  0  0  0  0  0  0  # atno 7974 bound_to 7965
  155.3235  140.3398  155.4240 H   0  0  0  0  0  0  0  0  0  0  0  0  # atno 8008 bound_to 7997
  156.1897  140.1693  156.8153 H   0  0  0  0  0  0  0  0  0  0  0  0  # atno 8009 bound_to 7997
  154.5428  140.0721  156.8522 H   0  0  0  0  0  0  0  0  0  0  0  0  # atno 8010 bound_to 7997
  140.1460  143.4239  152.1528 H   0  0  0  0  0  0  0  0  0  0  0  0  # atno 10167 bound_to 10162
  157.2328  131.0742  151.1842 H   0  0  0  0  0  0  0  0  0  0  0  0  # atno 10718 bound_to 10713
  154.0475  135.2884  155.3345 H   0  0  0  0  0  0  0  0  0  0  0  0  # atno 10763 bound_to 10752
  154.6890  135.5234  153.8369 H   0  0  0  0  0  0  0  0  0  0  0  0  # atno 10764 bound_to 10752
  153.0574  135.6600  154.0674 H   0  0  0  0  0  0  0  0  0  0  0  0  # atno 10765 bound_to 10752
  140.0216  134.6144  155.9631 H   0  0  0  0  0  0  0  0  0  0  0  0  # atno 11005 bound_to 11000
  146.1235  139.4257  143.0213 LP  0  0  0  0  0  0  0  0  0  0  0  0  # atno 17320 bound_to 7965
  145.7269  141.0056  143.1372 LP  0  0  0  0  0  0  0  0  0  0  0  0  # atno 17321 bound_to 7965
  139.5449  144.7289  151.4616 LP  0  0  0  0  0  0  0  0  0  0  0  0  # atno 17342 bound_to 10162
  140.6731  143.8249  150.7025 LP  0  0  0  0  0  0  0  0  0  0  0  0  # atno 17343 bound_to 10162
  157.3460  130.7058  149.6411 LP  0  0  0  0  0  0  0  0  0  0  0  0  # atno 17370 bound_to 10713
  155.9674  130.4266  150.4706 LP  0  0  0  0  0  0  0  0  0  0  0  0  # atno 17371 bound_to 10713
  141.1777  133.6542  156.4896 LP  0  0  0  0  0  0  0  0  0  0  0  0  # atno 17394 bound_to 11000
  140.4377  134.7044  157.4975 LP  0  0  0  0  0  0  0  0  0  0  0  0  # atno 17395 bound_to 11000

$$$$
