AV-unprocessed.smi:2789|AV-procd|sdf|10764|dock10
  -GOLD-   2272015203D 1   1.00000     0.00000
 Structure written by MMmdl.
 35 36  0  0  0  0  0  0  0  0  1 V2000
  151.4817  140.2858  159.1906 C   0  0  0  0  0  0  0  0  0  0  0  0
  151.2573  141.6860  159.2182 O   0  0  0  0  0  0  0  0  0  0  0  0
  152.4254  142.4596  158.9570 C   0  0  2  0  0  0  0  0  0  0  0  0
  152.7246  143.2474  160.2347 C   0  0  0  0  0  0  0  0  0  0  0  0
  151.8447  144.4887  160.1288 C   0  0  0  0  0  0  0  0  0  0  0  0
  151.8827  144.8535  158.6444 C   0  0  0  0  0  0  0  0  0  0  0  0
  152.1597  143.5427  157.8822 C   0  0  2  0  0  0  0  0  0  0  0  0
  151.0413  143.2109  157.0015 N   0  0  0  0  0  0  0  0  0  0  0  0
  150.8470  142.0224  156.4133 C   0  0  0  0  0  0  0  0  0  0  0  0
  151.6139  141.0678  156.5415 O   0  0  0  0  0  0  0  0  0  0  0  0
  149.7114  142.0206  155.6942 N   0  0  0  0  0  0  0  0  0  0  0  0
  149.1741  141.0143  154.9545 C   0  0  0  0  0  0  0  0  0  0  0  0
  149.6066  139.7225  154.8230 C   0  0  0  0  0  0  0  0  0  0  0  0
  148.6513  139.1671  153.9246 C   0  0  0  0  0  0  0  0  0  0  0  0
  147.7265  140.0394  153.5445 N   0  0  0  0  0  0  0  0  0  0  0  0
  148.0474  141.1883  154.1780 N   0  0  0  0  0  0  0  0  0  0  0  0
  147.2217  142.3639  153.9782 C   0  0  0  0  0  0  0  0  0  0  0  0
  150.5414  139.7606  159.3575 H   0  0  0  0  0  0  0  0  0  0  0  0
  152.1779  139.9865  159.9750 H   0  0  0  0  0  0  0  0  0  0  0  0
  151.8814  139.9644  158.2287 H   0  0  0  0  0  0  0  0  0  0  0  0
  153.2759  141.8287  158.6900 H   0  0  0  0  0  0  0  0  0  0  0  0
  152.5380  142.6728  161.1426 H   0  0  0  0  0  0  0  0  0  0  0  0
  153.7734  143.5470  160.2436 H   0  0  0  0  0  0  0  0  0  0  0  0
  150.8239  144.2394  160.4205 H   0  0  0  0  0  0  0  0  0  0  0  0
  152.1855  145.3021  160.7700 H   0  0  0  0  0  0  0  0  0  0  0  0
  150.9624  145.3485  158.3315 H   0  0  0  0  0  0  0  0  0  0  0  0
  152.6982  145.5550  158.4638 H   0  0  0  0  0  0  0  0  0  0  0  0
  153.0660  143.6894  157.2912 H   0  0  0  0  0  0  0  0  0  0  0  0
  150.3560  143.9360  156.8496 H   0  0  0  0  0  0  0  0  0  0  0  0
  149.1748  142.8752  155.7109 H   0  0  0  0  0  0  0  0  0  0  0  0
  150.4567  139.2383  155.2793 H   0  0  0  0  0  0  0  0  0  0  0  0
  148.6022  138.1600  153.5373 H   0  0  0  0  0  0  0  0  0  0  0  0
  147.6926  143.2446  154.4147 H   0  0  0  0  0  0  0  0  0  0  0  0
  146.2503  142.2125  154.4494 H   0  0  0  0  0  0  0  0  0  0  0  0
  147.0776  142.5376  152.9114 H   0  0  0  0  0  0  0  0  0  0  0  0
  1  2  1  0  0  0  0
  1 18  1  0  0  0  0
  1 19  1  0  0  0  0
  1 20  1  0  0  0  0
  2  3  1  0  0  0  0
  3  7  1  0  0  0  0
  3  4  1  0  0  0  0
  3 21  1  0  0  0  0
  4  5  1  0  0  0  0
  4 22  1  0  0  0  0
  4 23  1  0  0  0  0
  5  6  1  0  0  0  0
  5 24  1  0  0  0  0
  5 25  1  0  0  0  0
  6  7  1  0  0  0  0
  6 26  1  0  0  0  0
  6 27  1  0  0  0  0
  7  8  1  0  0  0  0
  7 28  1  0  0  0  0
  8  9  1  0  0  0  0
  8 29  1  0  0  0  0
  9 10  2  0  0  0  0
  9 11  1  0  0  0  0
 11 12  1  0  0  0  0
 11 30  1  0  0  0  0
 12 16  1  0  0  0  0
 12 13  2  0  0  0  0
 13 14  1  0  0  0  0
 13 31  1  0  0  0  0
 14 15  2  0  0  0  0
 14 32  1  0  0  0  0
 15 16  1  0  0  0  0
 16 17  1  0  0  0  0
 17 33  1  0  0  0  0
 17 34  1  0  0  0  0
 17 35  1  0  0  0  0
M  END
> <s_m_source_file>
AV-unprocessed.smi

> <i_m_source_file_index>
2789

> <i_lp_mmshare_version>
43012

> <i_f3d_flags>
0

> <s_epik_input>
W0NIM11PW0NAQEhdMVtDSDJdW0NIMl1bQ0gyXVtDQEhdMVtOSF1DKD1PKVtOSF1jMltjSF1bY0hdbm4yW0NIM10=

> <s_epik_cmdline>
J2VwaWtfcHl0aG9uJywgJy1waCcsICc3LjAnLCAnLXRuJywgJzgnLCAnLW1hJywgJzIwMCcsICctbWV0YWxfYmluZGluZycsICctaW1hZScsICc8aW5maWxlLm1hZT4nLCAnLW9tYWUnLCAnPG91dGZpbGUubWFlPic=

> <r_lp_tautomer_probability>
1

> <r_epik_Ionization_Penalty>
4.40608e-05

> <r_epik_Ionization_Penalty_Charging>
0

> <r_epik_Ionization_Penalty_Neutral>
4.40608e-05

> <r_epik_State_Penalty>
-0

> <r_epik_Charging_Adjusted_Penalty>
0

> <i_epik_Tot_Q>
0

> <i_epik_Tot_abs_Q>
0

> <r_epik_Metal_State_Penalty>
-0

> <b_epik_Metal_Only>
0

> <s_lp_Force_Field>
OPLS_2005

> <r_lp_Energy>
23.3685

> <b_lp_Chiralities_Consistent>
1

> <s_lp_Variant>
AV-unprocessed.smi:2789-3

> <Gold.Version>
5.8.1

> <Gold.Id.Protein>
6NUR|6NUR_protein|mol2

> <Gold.PLP.Fitness>
45.4043

> <Gold.PLP.PLP>
-38.3714

> <Gold.PLP.part.hbond>
-2.0000

> <Gold.PLP.part.metal>
0.0000

> <Gold.PLP.part.buried>
-4.2097

> <Gold.PLP.part.nonpolar>
-32.6739

> <Gold.PLP.part.repulsive>
0.7187

> <Gold.PLP.ligand.clash>
0.0000

> <Gold.PLP.ligand.torsion>
0.8812

> <Gold.PLP.Chemscore.Hbond>
1.9280

> <Gold.PLP.Chemscore.CHOScore>
1.0000

> <Gold.PLP.Chemscore.Metal>
0.0000

> <Gold.Chemscore.Hbonds>
donor molecule, donor type, donor heavy atom, donor atom, acceptor molecule, acceptor atom, score
      L1  H     8    29       P1  8028  0.99
      L1  H    11    30       P1  8028  1.00
      L1  C    14    32       P1  7948  0.92

> <Gold.PLP.Chemscore.Internal.Correction>
0.0113

> <Gold.Rescore>
     Score         DG    S(hbond)    S(metal)    S(lipo)     H(rot)  DE(clash)    DE(int)     intcor
     10.99     -18.57       1.90        0.00      85.56       1.27       0.39       7.18       ----

> <Gold.Chemscore.Fitness>
10.9925

> <Gold.Chemscore.DG>
-18.5703

> <Gold.Chemscore.ZeroCoef>
-5.4800

> <Gold.Chemscore.Hbond>
1.8965

> <Gold.Chemscore.Metal>
0.0000

> <Gold.Chemscore.Lipo>
85.5587

> <Gold.Chemscore.Internal_Hbond>
0.0000

> <Gold.Chemscore.DEClash>
0.3946

> <Gold.Chemscore.DEInternal>
7.1832

> <Gold.Chemscore.Rot>
1.2712

> <Gold.Chemscore.Internal.Correction>
   9.000000E+99

> <Gold.Chemscore.Hbonds>
donor molecule, donor type, donor heavy atom, donor atom, acceptor molecule, acceptor atom, score
      L1  H     8    29       P1  8028  0.87
      L1  H    11    30       P1  8028  0.99

> <Gold.Chemscore.Hbond.Weighted>
-6.3343

> <Gold.Chemscore.Metal.Weighted>
-0.0000

> <Gold.Chemscore.Lipo.Weighted>
-10.0104

> <Gold.Chemscore.Internal_Hbond.Weighted>
0.0000

> <Gold.Chemscore.DEClash.Weighted>
0.3946

> <Gold.Chemscore.DEInternal.Weighted>
7.1832

> <Gold.Chemscore.Rot.Weighted>
3.2544

> <Gold.Chemscore.Internal.Correction.Weighted>
   9.000000E+99

> <Gold.Protein.RotatedTorsions>
[ 6907 6896 6895 6894 ] final   51.92 input  -60.11 | X-H torsion
[ 7974 7965 7964 7962 ] final   77.88 input  175.53 | X-H torsion
[ 8008 7997 7996 7995 ] final   68.19 input   59.86 | X-H torsion
[ 10167 10162 10161 10158 ] final -109.78 input  -65.29 | X-H torsion
[ 10718 10713 10712 10709 ] final  -88.35 input   66.30 | X-H torsion
[ 10763 10752 10751 10750 ] final -157.98 input  -60.55 | X-H torsion
[ 11005 11000 10999 10996 ] final   -5.21 input  -57.11 | X-H torsion

> <Gold.Protein.ActiveResidues>
 VAL166  LYS551  ARG553  GLY616  TRP617  ASP618  TYR619  PRO620  LYS621  CYS622 
 ASP623  PHE694  ASN695  SER759  ASP760  ASP761  ALA762  ILE779  LEU786  VAL792 
 PHE793  MET794  SER795  GLU796  ALA797  LYS798  CYS799  TRP800  GLU811  SER814 

> <Gold.Protein.RotatedAtoms>
  152.3177  134.7419  160.0320 H   0  0  0  0  0  0  0  0  0  0  0  0  # atno 6907 bound_to 6896
  151.7878  133.3351  159.3498 H   0  0  0  0  0  0  0  0  0  0  0  0  # atno 6908 bound_to 6896
  150.7353  134.5802  159.5979 H   0  0  0  0  0  0  0  0  0  0  0  0  # atno 6909 bound_to 6896
  145.6843  139.2533  143.1796 H   0  0  0  0  0  0  0  0  0  0  0  0  # atno 7974 bound_to 7965
  155.7045  140.3495  155.4947 H   0  0  0  0  0  0  0  0  0  0  0  0  # atno 8008 bound_to 7997
  155.9411  140.1102  157.1077 H   0  0  0  0  0  0  0  0  0  0  0  0  # atno 8009 bound_to 7997
  154.4103  140.1212  156.4915 H   0  0  0  0  0  0  0  0  0  0  0  0  # atno 8010 bound_to 7997
  140.1516  143.4194  152.1491 H   0  0  0  0  0  0  0  0  0  0  0  0  # atno 10167 bound_to 10162
  155.9984  130.4832  150.5006 H   0  0  0  0  0  0  0  0  0  0  0  0  # atno 10718 bound_to 10713
  154.7593  135.3113  154.8410 H   0  0  0  0  0  0  0  0  0  0  0  0  # atno 10763 bound_to 10752
  153.9175  135.6799  153.4753 H   0  0  0  0  0  0  0  0  0  0  0  0  # atno 10764 bound_to 10752
  153.1192  135.4830  154.9098 H   0  0  0  0  0  0  0  0  0  0  0  0  # atno 10765 bound_to 10752
  140.6887  133.9090  155.8603 H   0  0  0  0  0  0  0  0  0  0  0  0  # atno 11005 bound_to 11000
  146.0937  140.7625  142.9583 LP  0  0  0  0  0  0  0  0  0  0  0  0  # atno 17320 bound_to 7965
  144.7016  140.3678  143.7151 LP  0  0  0  0  0  0  0  0  0  0  0  0  # atno 17321 bound_to 7965
  139.5423  144.7268  151.4693 LP  0  0  0  0  0  0  0  0  0  0  0  0  # atno 17342 bound_to 10162
  140.6699  143.8316  150.6987 LP  0  0  0  0  0  0  0  0  0  0  0  0  # atno 17343 bound_to 10162
  157.2991  131.0641  151.2081 LP  0  0  0  0  0  0  0  0  0  0  0  0  # atno 17370 bound_to 10713
  157.3067  130.6869  149.6193 LP  0  0  0  0  0  0  0  0  0  0  0  0  # atno 17371 bound_to 10713
  141.0259  134.0824  157.4069 LP  0  0  0  0  0  0  0  0  0  0  0  0  # atno 17394 bound_to 11000
  139.8930  135.0128  156.6874 LP  0  0  0  0  0  0  0  0  0  0  0  0  # atno 17395 bound_to 11000

$$$$
