AV-unprocessed.smi:2030|AV-procd|sdf|8225|dock3
  -GOLD-   2272010493D 1   1.00000     0.00000
 Structure written by MMmdl.
 36 37  0  0  0  0  0  0  0  0  2 V2000
  144.3535  144.3892  153.5051 C   0  0  0  0  0  0  0  0  0  0  0  0
  144.7671  143.5773  154.6478 N   0  0  0  0  0  0  0  0  0  0  0  0
  146.0528  143.0815  154.5718 N   0  0  0  0  0  0  0  0  0  0  0  0
  146.4886  142.1707  155.3849 C   0  0  0  0  0  0  0  0  0  0  0  0
  147.8792  141.6581  155.2526 C   0  0  0  0  0  0  0  0  0  0  0  0
  148.4292  141.5844  154.1532 O   0  0  0  0  0  0  0  0  0  0  0  0
  148.4835  141.2866  156.3962 N   0  0  0  0  0  0  0  0  0  0  0  0
  149.8408  140.7639  156.4944 C   0  0  0  0  0  0  0  0  0  0  0  0
  150.8889  141.8511  156.2048 C   0  0  0  0  0  0  0  0  0  0  0  0
  151.2964  142.6028  157.4567 C   0  0  0  0  0  0  0  0  0  0  0  0
  152.1934  142.0595  158.4020 C   0  0  0  0  0  0  0  0  0  0  0  0
  152.5247  142.8120  159.5483 C   0  0  0  0  0  0  0  0  0  0  0  0
  151.9533  144.0894  159.7246 C   0  0  0  0  0  0  0  0  0  0  0  0
  151.0629  144.5828  158.7491 C   0  0  0  0  0  0  0  0  0  0  0  0
  150.7696  143.8314  157.6652 N   0  3  0  0  0  0  0  0  0  0  0  0
  145.5810  141.5959  156.4548 C   0  0  0  0  0  0  0  0  0  0  0  0
  144.4845  142.5923  156.8808 C   0  0  0  0  0  0  0  0  0  0  0  0
  143.9258  143.3822  155.6938 C   0  0  0  0  0  0  0  0  0  0  0  0
  142.7768  143.8213  155.7391 O   0  0  0  0  0  0  0  0  0  0  0  0
  144.1176  145.4063  153.8216 H   0  0  0  0  0  0  0  0  0  0  0  0
  143.4670  143.9643  153.0323 H   0  0  0  0  0  0  0  0  0  0  0  0
  145.1330  144.4531  152.7441 H   0  0  0  0  0  0  0  0  0  0  0  0
  147.9638  141.3812  157.2575 H   0  0  0  0  0  0  0  0  0  0  0  0
  149.9991  140.3294  157.4829 H   0  0  0  0  0  0  0  0  0  0  0  0
  149.9427  139.9490  155.7772 H   0  0  0  0  0  0  0  0  0  0  0  0
  151.7745  141.4041  155.7510 H   0  0  0  0  0  0  0  0  0  0  0  0
  150.5023  142.5687  155.4801 H   0  0  0  0  0  0  0  0  0  0  0  0
  152.6218  141.0788  158.2536 H   0  0  0  0  0  0  0  0  0  0  0  0
  153.2085  142.4136  160.2835 H   0  0  0  0  0  0  0  0  0  0  0  0
  152.1939  144.6816  160.5954 H   0  0  0  0  0  0  0  0  0  0  0  0
  150.5798  145.5476  158.8030 H   0  0  0  0  0  0  0  0  0  0  0  0
  145.1248  140.6776  156.0836 H   0  0  0  0  0  0  0  0  0  0  0  0
  146.1553  141.3180  157.3394 H   0  0  0  0  0  0  0  0  0  0  0  0
  143.6783  142.0711  157.3978 H   0  0  0  0  0  0  0  0  0  0  0  0
  144.8979  143.3124  157.5879 H   0  0  0  0  0  0  0  0  0  0  0  0
  150.1214  144.2076  156.9725 H   0  0  0  0  0  0  0  0  0  0  0  0
  1  2  1  0  0  0  0
  1 20  1  0  0  0  0
  1 21  1  0  0  0  0
  1 22  1  0  0  0  0
  2 18  1  0  0  0  0
  2  3  1  0  0  0  0
  3  4  2  0  0  0  0
  4  5  1  0  0  0  0
  4 16  1  0  0  0  0
  5  6  2  0  0  0  0
  5  7  1  0  0  0  0
  7  8  1  0  0  0  0
  7 23  1  0  0  0  0
  8  9  1  0  0  0  0
  8 24  1  0  0  0  0
  8 25  1  0  0  0  0
  9 10  1  0  0  0  0
  9 26  1  0  0  0  0
  9 27  1  0  0  0  0
 10 15  1  0  0  0  0
 10 11  2  0  0  0  0
 11 12  1  0  0  0  0
 11 28  1  0  0  0  0
 12 13  2  0  0  0  0
 12 29  1  0  0  0  0
 13 14  1  0  0  0  0
 13 30  1  0  0  0  0
 14 15  2  0  0  0  0
 14 31  1  0  0  0  0
 15 36  1  0  0  0  0
 16 17  1  0  0  0  0
 16 32  1  0  0  0  0
 16 33  1  0  0  0  0
 17 18  1  0  0  0  0
 17 34  1  0  0  0  0
 17 35  1  0  0  0  0
 18 19  2  0  0  0  0
M  CHG  1  15   1
M  END
> <s_m_source_file>
AV-unprocessed.smi

> <i_m_source_file_index>
2030

> <i_lp_mmshare_version>
43012

> <i_f3d_flags>
0

> <s_epik_input>
Tz1DMVtDSDJdW0NIMl1DKD1OTjFbQ0gzXSlDKD1PKVtOSF1bQ0gyXVtDSDJdYzJbY0hdW2NIXVtjSF1bY0hdbjI=

> <s_epik_cmdline>
J2VwaWtfcHl0aG9uJywgJy1waCcsICc3LjAnLCAnLXRuJywgJzgnLCAnLW1hJywgJzIwMCcsICctbWV0YWxfYmluZGluZycsICctaW1hZScsICc8aW5maWxlLm1hZT4nLCAnLW9tYWUnLCAnPG91dGZpbGUubWFlPic=

> <r_epik_Ionization_Penalty>
2.09642

> <r_epik_Ionization_Penalty_Charging>
2.0963

> <r_epik_Ionization_Penalty_Neutral>
0.00011851

> <r_epik_State_Penalty>
2.23213

> <r_epik_Charging_Adjusted_Penalty>
4.32843

> <i_epik_Tot_Q>
1

> <i_epik_Tot_abs_Q>
1

> <r_epik_Metal_State_Penalty>
2.41268

> <b_epik_Metal_Only>
0

> <s_epik_Chemistry_Notes>
This compound has an imine and may undergo hydrolysis.

> <s_lp_Force_Field>
OPLS_2005

> <r_lp_Energy>
21.0672

> <b_lp_Chiralities_Consistent>
1

> <s_lp_Variant>
AV-unprocessed.smi:2030-2

> <Gold.Version>
5.8.1

> <Gold.Id.Protein>
6NUR|6NUR_protein|mol2

> <Gold.PLP.Fitness>
46.6269

> <Gold.PLP.PLP>
-40.2544

> <Gold.PLP.part.hbond>
-3.4605

> <Gold.PLP.part.metal>
0.0000

> <Gold.PLP.part.buried>
-3.3141

> <Gold.PLP.part.nonpolar>
-32.4841

> <Gold.PLP.part.repulsive>
0.5475

> <Gold.PLP.ligand.clash>
0.0000

> <Gold.PLP.ligand.torsion>
0.9100

> <Gold.PLP.Chemscore.Hbond>
2.7252

> <Gold.PLP.Chemscore.CHOScore>
0.0000

> <Gold.PLP.Chemscore.Metal>
0.0000

> <Gold.Chemscore.Hbonds>
donor molecule, donor type, donor heavy atom, donor atom, acceptor molecule, acceptor atom, score
      L1  H    15    36       P1  8028  2.00
      P1  H  8011  8017       L1     6  0.02

> <Gold.PLP.Chemscore.Internal.Correction>
0.0170

> <Gold.Rescore>
     Score         DG    S(hbond)    S(metal)    S(lipo)     H(rot)  DE(clash)    DE(int)     intcor
     16.25     -17.90       1.63        0.00      92.78       1.52       0.52       1.12       ----

> <Gold.Chemscore.Fitness>
16.2535

> <Gold.Chemscore.DG>
-17.8977

> <Gold.Chemscore.ZeroCoef>
-5.4800

> <Gold.Chemscore.Hbond>
1.6295

> <Gold.Chemscore.Metal>
0.0000

> <Gold.Chemscore.Lipo>
92.7805

> <Gold.Chemscore.Internal_Hbond>
0.0000

> <Gold.Chemscore.DEClash>
0.5243

> <Gold.Chemscore.DEInternal>
1.1200

> <Gold.Chemscore.Rot>
1.5157

> <Gold.Chemscore.Internal.Correction>
   9.000000E+99

> <Gold.Chemscore.Hbonds>
donor molecule, donor type, donor heavy atom, donor atom, acceptor molecule, acceptor atom, score
      L1  H    15    36       P1  8028  0.91
      P1  H  8011  8017       L1     6  0.05

> <Gold.Chemscore.Hbond.Weighted>
-5.4425

> <Gold.Chemscore.Metal.Weighted>
-0.0000

> <Gold.Chemscore.Lipo.Weighted>
-10.8553

> <Gold.Chemscore.Internal_Hbond.Weighted>
0.0000

> <Gold.Chemscore.DEClash.Weighted>
0.5243

> <Gold.Chemscore.DEInternal.Weighted>
1.1200

> <Gold.Chemscore.Rot.Weighted>
3.8801

> <Gold.Chemscore.Internal.Correction.Weighted>
   9.000000E+99

> <Gold.Protein.RotatedTorsions>
[ 6907 6896 6895 6894 ] final    9.97 input  -60.11 | X-H torsion
[ 7974 7965 7964 7962 ] final -112.24 input  175.53 | X-H torsion
[ 8008 7997 7996 7995 ] final -163.31 input   59.86 | X-H torsion
[ 10167 10162 10161 10158 ] final   59.53 input  -65.29 | X-H torsion
[ 10718 10713 10712 10709 ] final   34.81 input   66.30 | X-H torsion
[ 10763 10752 10751 10750 ] final  -43.75 input  -60.55 | X-H torsion
[ 11005 11000 10999 10996 ] final  -38.11 input  -57.11 | X-H torsion

> <Gold.Protein.ActiveResidues>
 VAL166  LYS551  ARG553  GLY616  TRP617  ASP618  TYR619  PRO620  LYS621  CYS622 
 ASP623  PHE694  ASN695  SER759  ASP760  ASP761  ALA762  ILE779  LEU786  VAL792 
 PHE793  MET794  SER795  GLU796  ALA797  LYS798  CYS799  TRP800  GLU811  SER814 

> <Gold.Protein.RotatedAtoms>
  151.7307  135.0875  160.0299 H   0  0  0  0  0  0  0  0  0  0  0  0  # atno 6907 bound_to 6896
  152.3543  133.6213  159.5976 H   0  0  0  0  0  0  0  0  0  0  0  0  # atno 6908 bound_to 6896
  150.7560  133.9441  159.3507 H   0  0  0  0  0  0  0  0  0  0  0  0  # atno 6909 bound_to 6896
  145.1464  140.8806  143.3672 H   0  0  0  0  0  0  0  0  0  0  0  0  # atno 7974 bound_to 7965
  155.8194  140.0917  157.1857 H   0  0  0  0  0  0  0  0  0  0  0  0  # atno 8008 bound_to 7997
  154.3979  140.1439  156.3542 H   0  0  0  0  0  0  0  0  0  0  0  0  # atno 8009 bound_to 7997
  155.8282  140.3443  155.5558 H   0  0  0  0  0  0  0  0  0  0  0  0  # atno 8010 bound_to 7997
  140.1754  144.4235  150.6641 H   0  0  0  0  0  0  0  0  0  0  0  0  # atno 10167 bound_to 10162
  157.3150  130.7418  149.6748 H   0  0  0  0  0  0  0  0  0  0  0  0  # atno 10718 bound_to 10713
  154.0007  135.6694  153.4759 H   0  0  0  0  0  0  0  0  0  0  0  0  # atno 10763 bound_to 10752
  153.0663  135.4999  154.8204 H   0  0  0  0  0  0  0  0  0  0  0  0  # atno 10764 bound_to 10752
  154.7054  135.3087  154.9241 H   0  0  0  0  0  0  0  0  0  0  0  0  # atno 10765 bound_to 10752
  141.0003  133.6959  156.2009 H   0  0  0  0  0  0  0  0  0  0  0  0  # atno 11005 bound_to 11000
  145.0477  139.3207  143.5944 LP  0  0  0  0  0  0  0  0  0  0  0  0  # atno 17320 bound_to 7965
  146.3499  139.9874  142.8689 LP  0  0  0  0  0  0  0  0  0  0  0  0  # atno 17321 bound_to 7965
  140.6555  143.2236  151.5979 LP  0  0  0  0  0  0  0  0  0  0  0  0  # atno 17342 bound_to 10162
  139.5319  144.2890  152.1167 LP  0  0  0  0  0  0  0  0  0  0  0  0  # atno 17343 bound_to 10162
  155.9681  130.4240  150.4588 LP  0  0  0  0  0  0  0  0  0  0  0  0  # atno 17370 bound_to 10713
  157.2594  131.0563  151.2330 LP  0  0  0  0  0  0  0  0  0  0  0  0  # atno 17371 bound_to 10713
  140.6900  134.4676  157.5588 LP  0  0  0  0  0  0  0  0  0  0  0  0  # atno 17394 bound_to 11000
  139.9035  134.8501  156.1799 LP  0  0  0  0  0  0  0  0  0  0  0  0  # atno 17395 bound_to 11000

$$$$
