AV-unprocessed.smi:1125|AV-procd|sdf|4836|dock5
  -GOLD-   22720 3403D 1   1.00000     0.00000
 Structure written by MMmdl.
 45 46  0  0  0  0  0  0  0  0  1 V2000
  152.9897  142.6935  161.3807 C   0  0  0  0  0  0  0  0  0  0  0  0
  152.1102  142.0955  160.3862 N   0  0  0  0  0  0  0  0  0  0  0  0
  152.7338  140.8831  159.8545 C   0  0  0  0  0  0  0  0  0  0  0  0
  151.7932  140.2005  158.8456 C   0  0  0  0  0  0  0  0  0  0  0  0
  151.4385  141.1508  157.6918 C   0  0  0  0  0  0  0  0  0  0  0  0
  150.4522  140.5241  156.8173 N   0  0  0  0  0  0  0  0  0  0  0  0
  150.6696  140.1535  155.5455 C   0  0  0  0  0  0  0  0  0  0  0  0
  151.7443  140.3124  154.9665 O   0  0  0  0  0  0  0  0  0  0  0  0
  149.4937  139.5089  154.8104 C   0  0  0  0  0  0  0  0  0  0  0  0
  148.2825  140.3928  154.8860 C   0  0  0  0  0  0  0  0  0  0  0  0
  147.7362  141.1316  153.8670 C   0  0  0  0  0  0  0  0  0  0  0  0
  146.3296  142.0141  154.3878 S   0  0  0  0  0  0  0  0  0  0  0  0
  146.5356  141.3464  156.0113 C   0  0  0  0  0  0  0  0  0  0  0  0
  145.6445  141.6505  157.1919 C   0  0  0  0  0  0  0  0  0  0  0  0
  144.6160  142.7316  156.8065 C   0  0  0  0  0  0  0  0  0  0  0  0
  146.4604  142.1895  158.3869 C   0  0  0  0  0  0  0  0  0  0  0  0
  144.9342  140.3636  157.6548 C   0  0  0  0  0  0  0  0  0  0  0  0
  147.5920  140.5291  156.0941 N   0  0  0  0  0  0  0  0  0  0  0  0
  150.9012  142.4712  158.2719 C   0  0  0  0  0  0  0  0  0  0  0  0
  151.8763  143.0572  159.3083 C   0  0  0  0  0  0  0  0  0  0  0  0
  153.1647  141.9998  162.2035 H   0  0  0  0  0  0  0  0  0  0  0  0
  152.5383  143.5943  161.7979 H   0  0  0  0  0  0  0  0  0  0  0  0
  153.9547  142.9635  160.9493 H   0  0  0  0  0  0  0  0  0  0  0  0
  153.6862  141.1254  159.3800 H   0  0  0  0  0  0  0  0  0  0  0  0
  152.9489  140.1947  160.6725 H   0  0  0  0  0  0  0  0  0  0  0  0
  152.2643  139.2979  158.4548 H   0  0  0  0  0  0  0  0  0  0  0  0
  150.8853  139.8785  159.3587 H   0  0  0  0  0  0  0  0  0  0  0  0
  152.3482  141.3544  157.1233 H   0  0  0  0  0  0  0  0  0  0  0  0
  149.5393  140.3486  157.2117 H   0  0  0  0  0  0  0  0  0  0  0  0
  149.7794  139.3196  153.7746 H   0  0  0  0  0  0  0  0  0  0  0  0
  149.2818  138.5349  155.2532 H   0  0  0  0  0  0  0  0  0  0  0  0
  148.0731  141.2046  152.8434 H   0  0  0  0  0  0  0  0  0  0  0  0
  143.9694  142.9834  157.6479 H   0  0  0  0  0  0  0  0  0  0  0  0
  143.9721  142.3995  155.9914 H   0  0  0  0  0  0  0  0  0  0  0  0
  145.1086  143.6495  156.4829 H   0  0  0  0  0  0  0  0  0  0  0  0
  146.9840  143.1121  158.1335 H   0  0  0  0  0  0  0  0  0  0  0  0
  147.2031  141.4668  158.7272 H   0  0  0  0  0  0  0  0  0  0  0  0
  145.8160  142.4105  159.2387 H   0  0  0  0  0  0  0  0  0  0  0  0
  144.2929  140.5503  158.5170 H   0  0  0  0  0  0  0  0  0  0  0  0
  145.6535  139.5946  157.9397 H   0  0  0  0  0  0  0  0  0  0  0  0
  144.3050  139.9481  156.8667 H   0  0  0  0  0  0  0  0  0  0  0  0
  150.7378  143.1958  157.4734 H   0  0  0  0  0  0  0  0  0  0  0  0
  149.9304  142.3050  158.7416 H   0  0  0  0  0  0  0  0  0  0  0  0
  151.4557  143.9742  159.7227 H   0  0  0  0  0  0  0  0  0  0  0  0
  152.8201  143.3252  158.8302 H   0  0  0  0  0  0  0  0  0  0  0  0
  1  2  1  0  0  0  0
  1 21  1  0  0  0  0
  1 22  1  0  0  0  0
  1 23  1  0  0  0  0
  2 20  1  0  0  0  0
  2  3  1  0  0  0  0
  3  4  1  0  0  0  0
  3 24  1  0  0  0  0
  3 25  1  0  0  0  0
  4  5  1  0  0  0  0
  4 26  1  0  0  0  0
  4 27  1  0  0  0  0
  5  6  1  0  0  0  0
  5 19  1  0  0  0  0
  5 28  1  0  0  0  0
  6  7  1  0  0  0  0
  6 29  1  0  0  0  0
  7  8  2  0  0  0  0
  7  9  1  0  0  0  0
  9 10  1  0  0  0  0
  9 30  1  0  0  0  0
  9 31  1  0  0  0  0
 10 18  1  0  0  0  0
 10 11  2  0  0  0  0
 11 12  1  0  0  0  0
 11 32  1  0  0  0  0
 12 13  1  0  0  0  0
 13 14  1  0  0  0  0
 13 18  2  0  0  0  0
 14 15  1  0  0  0  0
 14 16  1  0  0  0  0
 14 17  1  0  0  0  0
 15 33  1  0  0  0  0
 15 34  1  0  0  0  0
 15 35  1  0  0  0  0
 16 36  1  0  0  0  0
 16 37  1  0  0  0  0
 16 38  1  0  0  0  0
 17 39  1  0  0  0  0
 17 40  1  0  0  0  0
 17 41  1  0  0  0  0
 19 20  1  0  0  0  0
 19 42  1  0  0  0  0
 19 43  1  0  0  0  0
 20 44  1  0  0  0  0
 20 45  1  0  0  0  0
M  END
> <s_m_source_file>
AV-unprocessed.smi

> <i_m_source_file_index>
1125

> <i_lp_mmshare_version>
43012

> <i_f3d_flags>
0

> <s_epik_input>
W0NIM11OMVtDSDJdW0NIMl1bQ0hdKFtDSDJdW0NIMl0xKVtOSF1DKD1PKVtDSDJdYzJbY0hdc2MobjIpQyhbQ0gzXSkoW0NIM10pW0NIM10=

> <s_epik_cmdline>
J2VwaWtfcHl0aG9uJywgJy1waCcsICc3LjAnLCAnLXRuJywgJzgnLCAnLW1hJywgJzIwMCcsICctbWV0YWxfYmluZGluZycsICctaW1hZScsICc8aW5maWxlLm1hZT4nLCAnLW9tYWUnLCAnPG91dGZpbGUubWFlPic=

> <r_epik_Ionization_Penalty>
2.53567

> <r_epik_Ionization_Penalty_Charging>
0

> <r_epik_Ionization_Penalty_Neutral>
2.53567

> <r_epik_State_Penalty>
2.70312

> <r_epik_Charging_Adjusted_Penalty>
2.70312

> <i_epik_Tot_Q>
0

> <i_epik_Tot_abs_Q>
0

> <r_epik_Metal_State_Penalty>
2.70311

> <b_epik_Metal_Only>
0

> <s_lp_Force_Field>
OPLS_2005

> <r_lp_Energy>
6.33754

> <b_lp_Chiralities_Consistent>
1

> <s_lp_Variant>
AV-unprocessed.smi:1125-3

> <Gold.Version>
5.8.1

> <Gold.Id.Protein>
6NUR|6NUR_protein|mol2

> <Gold.PLP.Fitness>
40.9839

> <Gold.PLP.PLP>
-35.7940

> <Gold.PLP.part.hbond>
-1.1586

> <Gold.PLP.part.metal>
0.0000

> <Gold.PLP.part.buried>
-5.2454

> <Gold.PLP.part.nonpolar>
-29.0081

> <Gold.PLP.part.repulsive>
0.1554

> <Gold.PLP.ligand.clash>
0.0000

> <Gold.PLP.ligand.torsion>
0.2779

> <Gold.PLP.Chemscore.Hbond>
0.9120

> <Gold.PLP.Chemscore.CHOScore>
1.0000

> <Gold.PLP.Chemscore.Metal>
0.0000

> <Gold.Chemscore.Hbonds>
donor molecule, donor type, donor heavy atom, donor atom, acceptor molecule, acceptor atom, score
      P1  H  7989  7998       L1     8  0.88
      L1  C    11    32       P1  7957  0.97

> <Gold.PLP.Chemscore.Internal.Correction>
0.0097

> <Gold.Rescore>
     Score         DG    S(hbond)    S(metal)    S(lipo)     H(rot)  DE(clash)    DE(int)     intcor
     14.71     -15.39       0.99        0.00      86.04       1.35       0.03       0.65       ----

> <Gold.Chemscore.Fitness>
14.7113

> <Gold.Chemscore.DG>
-15.3933

> <Gold.Chemscore.ZeroCoef>
-5.4800

> <Gold.Chemscore.Hbond>
0.9907

> <Gold.Chemscore.Metal>
0.0000

> <Gold.Chemscore.Lipo>
86.0428

> <Gold.Chemscore.Internal_Hbond>
0.0000

> <Gold.Chemscore.DEClash>
0.0297

> <Gold.Chemscore.DEInternal>
0.6523

> <Gold.Chemscore.Rot>
1.3526

> <Gold.Chemscore.Internal.Correction>
   9.000000E+99

> <Gold.Chemscore.Hbonds>
donor molecule, donor type, donor heavy atom, donor atom, acceptor molecule, acceptor atom, score
      P1  H  7989  7998       L1     8  0.77

> <Gold.Chemscore.Hbond.Weighted>
-3.3090

> <Gold.Chemscore.Metal.Weighted>
-0.0000

> <Gold.Chemscore.Lipo.Weighted>
-10.0670

> <Gold.Chemscore.Internal_Hbond.Weighted>
0.0000

> <Gold.Chemscore.DEClash.Weighted>
0.0297

> <Gold.Chemscore.DEInternal.Weighted>
0.6523

> <Gold.Chemscore.Rot.Weighted>
3.4626

> <Gold.Chemscore.Internal.Correction.Weighted>
   9.000000E+99

> <Gold.Protein.RotatedTorsions>
[ 6907 6896 6895 6894 ] final  -58.98 input  -60.11 | X-H torsion
[ 7974 7965 7964 7962 ] final   -5.70 input  175.53 | X-H torsion
[ 8008 7997 7996 7995 ] final  -59.47 input   59.86 | X-H torsion
[ 10167 10162 10161 10158 ] final  -66.29 input  -65.29 | X-H torsion
[ 10718 10713 10712 10709 ] final  -37.99 input   66.30 | X-H torsion
[ 10763 10752 10751 10750 ] final   -1.54 input  -60.55 | X-H torsion
[ 11005 11000 10999 10996 ] final  118.55 input  -57.11 | X-H torsion

> <Gold.Protein.ActiveResidues>
 VAL166  LYS551  ARG553  GLY616  TRP617  ASP618  TYR619  PRO620  LYS621  CYS622 
 ASP623  PHE694  ASN695  SER759  ASP760  ASP761  ALA762  ILE779  LEU786  VAL792 
 PHE793  MET794  SER795  GLU796  ALA797  LYS798  CYS799  TRP800  GLU811  SER814 

> <Gold.Protein.RotatedAtoms>
  150.7965  134.7028  159.6559 H   0  0  0  0  0  0  0  0  0  0  0  0  # atno 6907 bound_to 6896
  152.4078  134.6174  160.0051 H   0  0  0  0  0  0  0  0  0  0  0  0  # atno 6908 bound_to 6896
  151.6426  133.3288  159.3169 H   0  0  0  0  0  0  0  0  0  0  0  0  # atno 6909 bound_to 6896
  146.2347  140.2060  142.8334 H   0  0  0  0  0  0  0  0  0  0  0  0  # atno 7974 bound_to 7965
  154.4354  140.1061  156.6120 H   0  0  0  0  0  0  0  0  0  0  0  0  # atno 8008 bound_to 7997
  155.5799  140.3490  155.4519 H   0  0  0  0  0  0  0  0  0  0  0  0  # atno 8009 bound_to 7997
  156.0326  140.1264  157.0231 H   0  0  0  0  0  0  0  0  0  0  0  0  # atno 8010 bound_to 7997
  140.5668  143.2315  151.6619 H   0  0  0  0  0  0  0  0  0  0  0  0  # atno 10167 bound_to 10162
  156.3089  130.4250  149.8070 H   0  0  0  0  0  0  0  0  0  0  0  0  # atno 10718 bound_to 10713
  153.3462  135.6983  153.6826 H   0  0  0  0  0  0  0  0  0  0  0  0  # atno 10763 bound_to 10752
  153.5571  135.3542  155.2784 H   0  0  0  0  0  0  0  0  0  0  0  0  # atno 10764 bound_to 10752
  154.8645  135.4240  154.2687 H   0  0  0  0  0  0  0  0  0  0  0  0  # atno 10765 bound_to 10752
  139.9114  134.9621  156.7521 H   0  0  0  0  0  0  0  0  0  0  0  0  # atno 11005 bound_to 11000
  144.9744  140.8400  143.5435 LP  0  0  0  0  0  0  0  0  0  0  0  0  # atno 17320 bound_to 7965
  145.2045  139.2235  143.5175 LP  0  0  0  0  0  0  0  0  0  0  0  0  # atno 17321 bound_to 7965
  139.5097  144.3569  152.0600 LP  0  0  0  0  0  0  0  0  0  0  0  0  # atno 17342 bound_to 10162
  140.2701  144.3973  150.6154 LP  0  0  0  0  0  0  0  0  0  0  0  0  # atno 17343 bound_to 10162
  156.5421  130.8304  151.3272 LP  0  0  0  0  0  0  0  0  0  0  0  0  # atno 17370 bound_to 10713
  157.7386  130.9816  150.2263 LP  0  0  0  0  0  0  0  0  0  0  0  0  # atno 17371 bound_to 10713
  140.6765  133.9512  155.7886 LP  0  0  0  0  0  0  0  0  0  0  0  0  # atno 17394 bound_to 11000
  141.0540  134.0443  157.3746 LP  0  0  0  0  0  0  0  0  0  0  0  0  # atno 17395 bound_to 11000

$$$$
