AV-unprocessed.smi:634|AV-procd|sdf|3136|dock7
  -GOLD-   22720 0 63D 1   1.00000     0.00000
 Structure written by MMmdl.
 32 33  0  0  0  0  0  0  0  0  2 V2000
  151.4830  145.5511  160.1430 C   0  0  0  0  0  0  0  0  0  0  0  0
  151.9459  144.1671  159.8399 C   0  0  0  0  0  0  0  0  0  0  0  0
  152.3981  143.1469  160.6276 C   0  0  0  0  0  0  0  0  0  0  0  0
  152.6616  142.1078  159.6938 C   0  0  0  0  0  0  0  0  0  0  0  0
  153.1415  140.8886  159.9848 N   0  5  0  0  0  0  0  0  0  0  0  0
  153.1420  139.9138  159.0464 C   0  0  0  0  0  0  0  0  0  0  0  0
  154.1308  139.3031  158.6358 O   0  0  0  0  0  0  0  0  0  0  0  0
  151.9180  139.6421  158.5619 N   0  0  0  0  0  0  0  0  0  0  0  0
  151.5000  138.6630  157.5486 C   0  0  2  0  0  0  0  0  0  0  0  0
  152.2192  139.0545  156.2414 C   0  0  0  0  0  0  0  0  0  0  0  0
  149.9655  138.6773  157.3107 C   0  0  0  0  0  0  0  0  0  0  0  0
  149.5496  137.4069  156.5545 C   0  0  0  0  0  0  0  0  0  0  0  0
  150.7589  136.1098  157.0184 S   0  0  0  0  0  0  0  0  0  0  0  0
  150.1342  135.1666  157.9583 O   0  0  0  0  0  0  0  0  0  0  0  0
  151.4298  135.6283  155.8011 O   0  0  0  0  0  0  0  0  0  0  0  0
  151.8902  137.2186  157.9410 C   0  0  0  0  0  0  0  0  0  0  0  0
  152.4086  142.4715  158.4478 N   0  0  0  0  0  0  0  0  0  0  0  0
  151.9434  143.7892  158.5334 O   0  0  0  0  0  0  0  0  0  0  0  0
  152.3225  146.1824  160.4337 H   0  0  0  0  0  0  0  0  0  0  0  0
  150.7633  145.5464  160.9618 H   0  0  0  0  0  0  0  0  0  0  0  0
  151.0027  146.0039  159.2752 H   0  0  0  0  0  0  0  0  0  0  0  0
  152.5180  143.1414  161.7007 H   0  0  0  0  0  0  0  0  0  0  0  0
  151.1694  140.1912  158.9584 H   0  0  0  0  0  0  0  0  0  0  0  0
  151.9825  138.3745  155.4231 H   0  0  0  0  0  0  0  0  0  0  0  0
  153.3026  139.0429  156.3675 H   0  0  0  0  0  0  0  0  0  0  0  0
  151.9394  140.0589  155.9211 H   0  0  0  0  0  0  0  0  0  0  0  0
  149.4324  138.6745  158.2601 H   0  0  0  0  0  0  0  0  0  0  0  0
  149.6412  139.5763  156.7856 H   0  0  0  0  0  0  0  0  0  0  0  0
  148.5384  137.0826  156.8006 H   0  0  0  0  0  0  0  0  0  0  0  0
  149.6128  137.5567  155.4768 H   0  0  0  0  0  0  0  0  0  0  0  0
  152.9265  136.9723  157.7091 H   0  0  0  0  0  0  0  0  0  0  0  0
  151.7326  137.0188  158.9998 H   0  0  0  0  0  0  0  0  0  0  0  0
  1  2  1  0  0  0  0
  1 19  1  0  0  0  0
  1 20  1  0  0  0  0
  1 21  1  0  0  0  0
  2 18  1  0  0  0  0
  2  3  2  0  0  0  0
  3  4  1  0  0  0  0
  3 22  1  0  0  0  0
  4  5  1  0  0  0  0
  4 17  2  0  0  0  0
  5  6  1  0  0  0  0
  6  7  2  0  0  0  0
  6  8  1  0  0  0  0
  8  9  1  0  0  0  0
  8 23  1  0  0  0  0
  9 16  1  0  0  0  0
  9 10  1  0  0  0  0
  9 11  1  0  0  0  0
 10 24  1  0  0  0  0
 10 25  1  0  0  0  0
 10 26  1  0  0  0  0
 11 12  1  0  0  0  0
 11 27  1  0  0  0  0
 11 28  1  0  0  0  0
 12 13  1  0  0  0  0
 12 29  1  0  0  0  0
 12 30  1  0  0  0  0
 13 14  2  0  0  0  0
 13 15  2  0  0  0  0
 13 16  1  0  0  0  0
 16 31  1  0  0  0  0
 16 32  1  0  0  0  0
 17 18  1  0  0  0  0
M  CHG  1   5  -1
M  END
> <s_m_source_file>
AV-unprocessed.smi

> <i_m_source_file_index>
634

> <i_lp_mmshare_version>
43012

> <i_f3d_flags>
0

> <s_epik_input>
W0NIM11jMVtjSF1jKG5vMSlbTkhdQyg9TylbTkhdW0NAQF0yKFtDSDNdKVtDSDJdW0NIMl1TKD1PKSg9TylbQ0gyXTI=

> <s_epik_cmdline>
J2VwaWtfcHl0aG9uJywgJy1waCcsICc3LjAnLCAnLXRuJywgJzgnLCAnLW1hJywgJzIwMCcsICctbWV0YWxfYmluZGluZycsICctaW1hZScsICc8aW5maWxlLm1hZT4nLCAnLW9tYWUnLCAnPG91dGZpbGUubWFlPic=

> <r_lp_tautomer_probability>
1

> <r_epik_Ionization_Penalty>
6.15572

> <r_epik_Ionization_Penalty_Charging>
6.1556

> <r_epik_Ionization_Penalty_Neutral>
0.000118136

> <r_epik_State_Penalty>
6.15558

> <r_epik_Charging_Adjusted_Penalty>
12.3112

> <i_epik_Tot_Q>
-1

> <i_epik_Tot_abs_Q>
1

> <r_epik_Metal_State_Penalty>
2.10569

> <b_epik_Metal_Only>
1

> <s_lp_Force_Field>
OPLS_2005

> <r_lp_Energy>
-1.68809

> <b_lp_Chiralities_Consistent>
1

> <s_lp_Variant>
AV-unprocessed.smi:634-4

> <Gold.Version>
5.8.1

> <Gold.Id.Protein>
6NUR|6NUR_protein|mol2

> <Gold.PLP.Fitness>
35.1765

> <Gold.PLP.PLP>
-27.8249

> <Gold.PLP.part.hbond>
-3.0000

> <Gold.PLP.part.metal>
0.0000

> <Gold.PLP.part.buried>
-4.6441

> <Gold.PLP.part.nonpolar>
-20.3130

> <Gold.PLP.part.repulsive>
0.2015

> <Gold.PLP.ligand.clash>
0.0000

> <Gold.PLP.ligand.torsion>
0.5753

> <Gold.PLP.Chemscore.Hbond>
2.8320

> <Gold.PLP.Chemscore.CHOScore>
0.0000

> <Gold.PLP.Chemscore.Metal>
0.0000

> <Gold.Chemscore.Hbonds>
donor molecule, donor type, donor heavy atom, donor atom, acceptor molecule, acceptor atom, score
      P1  H  6896  6909       L1    14  0.77
      P1  H  7997  8009       L1     7  1.00
      P1  H 10752 10765       L1    15  1.00

> <Gold.PLP.Chemscore.Internal.Correction>
0.0061

> <Gold.Rescore>
     Score         DG    S(hbond)    S(metal)    S(lipo)     H(rot)  DE(clash)    DE(int)     intcor
     15.97     -18.44       2.82        0.00      52.18       1.00       0.07       2.39       ----

> <Gold.Chemscore.Fitness>
15.9715

> <Gold.Chemscore.DG>
-18.4369

> <Gold.Chemscore.ZeroCoef>
-5.4800

> <Gold.Chemscore.Hbond>
2.8180

> <Gold.Chemscore.Metal>
0.0000

> <Gold.Chemscore.Lipo>
52.1760

> <Gold.Chemscore.Internal_Hbond>
0.0000

> <Gold.Chemscore.DEClash>
0.0727

> <Gold.Chemscore.DEInternal>
2.3926

> <Gold.Chemscore.Rot>
1.0000

> <Gold.Chemscore.Internal.Correction>
   9.000000E+99

> <Gold.Chemscore.Hbonds>
donor molecule, donor type, donor heavy atom, donor atom, acceptor molecule, acceptor atom, score
      P1  H  6896  6909       L1    14  0.78
      P1  H  7997  8009       L1     7  0.94
      P1  H 10752 10765       L1    15  0.99

> <Gold.Chemscore.Hbond.Weighted>
-9.4123

> <Gold.Chemscore.Metal.Weighted>
-0.0000

> <Gold.Chemscore.Lipo.Weighted>
-6.1046

> <Gold.Chemscore.Internal_Hbond.Weighted>
0.0000

> <Gold.Chemscore.DEClash.Weighted>
0.0727

> <Gold.Chemscore.DEInternal.Weighted>
2.3926

> <Gold.Chemscore.Rot.Weighted>
2.5600

> <Gold.Chemscore.Internal.Correction.Weighted>
   9.000000E+99

> <Gold.Protein.RotatedTorsions>
[ 6907 6896 6895 6894 ] final   32.71 input  -60.11 | X-H torsion
[ 7974 7965 7964 7962 ] final -106.06 input  175.53 | X-H torsion
[ 8008 7997 7996 7995 ] final  124.52 input   59.86 | X-H torsion
[ 10167 10162 10161 10158 ] final -121.26 input  -65.29 | X-H torsion
[ 10718 10713 10712 10709 ] final  145.29 input   66.30 | X-H torsion
[ 10763 10752 10751 10750 ] final -171.41 input  -60.55 | X-H torsion
[ 11005 11000 10999 10996 ] final -160.94 input  -57.11 | X-H torsion

> <Gold.Protein.ActiveResidues>
 VAL166  LYS551  ARG553  GLY616  TRP617  ASP618  TYR619  PRO620  LYS621  CYS622 
 ASP623  PHE694  ASN695  SER759  ASP760  ASP761  ALA762  ILE779  LEU786  VAL792 
 PHE793  MET794  SER795  GLU796  ALA797  LYS798  CYS799  TRP800  GLU811  SER814 

> <Gold.Protein.RotatedAtoms>
  152.0783  134.9488  160.0573 H   0  0  0  0  0  0  0  0  0  0  0  0  # atno 6907 bound_to 6896
  152.0787  133.4137  159.4499 H   0  0  0  0  0  0  0  0  0  0  0  0  # atno 6908 bound_to 6896
  150.6836  134.2927  159.4717 H   0  0  0  0  0  0  0  0  0  0  0  0  # atno 6909 bound_to 6896
  145.2226  140.9140  143.3251 H   0  0  0  0  0  0  0  0  0  0  0  0  # atno 7974 bound_to 7965
  156.2804  140.2738  156.1802 H   0  0  0  0  0  0  0  0  0  0  0  0  # atno 8008 bound_to 7997
  155.0565  140.0386  157.2579 H   0  0  0  0  0  0  0  0  0  0  0  0  # atno 8009 bound_to 7997
  154.7152  140.2677  155.6597 H   0  0  0  0  0  0  0  0  0  0  0  0  # atno 8010 bound_to 7997
  140.0270  143.5287  152.2194 H   0  0  0  0  0  0  0  0  0  0  0  0  # atno 10167 bound_to 10162
  157.3470  131.0945  151.1033 H   0  0  0  0  0  0  0  0  0  0  0  0  # atno 10718 bound_to 10713
  154.6308  135.2886  155.0218 H   0  0  0  0  0  0  0  0  0  0  0  0  # atno 10763 bound_to 10752
  154.1379  135.6523  153.4940 H   0  0  0  0  0  0  0  0  0  0  0  0  # atno 10764 bound_to 10752
  153.0279  135.5326  154.7135 H   0  0  0  0  0  0  0  0  0  0  0  0  # atno 10765 bound_to 10752
  140.6260  134.4701  157.5227 H   0  0  0  0  0  0  0  0  0  0  0  0  # atno 11005 bound_to 11000
  144.9751  139.3840  143.6289 LP  0  0  0  0  0  0  0  0  0  0  0  0  # atno 17320 bound_to 7965
  146.3372  139.8867  142.8815 LP  0  0  0  0  0  0  0  0  0  0  0  0  # atno 17321 bound_to 7965
  139.6101  144.7606  151.2970 LP  0  0  0  0  0  0  0  0  0  0  0  0  # atno 17342 bound_to 10162
  140.7318  143.6840  150.7977 LP  0  0  0  0  0  0  0  0  0  0  0  0  # atno 17343 bound_to 10162
  157.2223  130.6487  149.5816 LP  0  0  0  0  0  0  0  0  0  0  0  0  # atno 17370 bound_to 10713
  155.9716  130.4625  150.6149 LP  0  0  0  0  0  0  0  0  0  0  0  0  # atno 17371 bound_to 10713
  139.9135  134.8296  156.1447 LP  0  0  0  0  0  0  0  0  0  0  0  0  # atno 17394 bound_to 11000
  141.0709  133.6797  156.2139 LP  0  0  0  0  0  0  0  0  0  0  0  0  # atno 17395 bound_to 11000

$$$$
