AV-unprocessed.smi:287|AV-procd|sdf|2182|dock8
  -GOLD-   2262021553D 1   1.00000     0.00000
 Structure written by MMmdl.
 55 58  0  0  0  0  0  0  0  0  1 V2000
  154.0194  136.4435  164.4426 C   0  0  0  0  0  0  0  0  0  0  0  0
  154.3424  137.1622  163.1776 C   0  0  0  0  0  0  0  0  0  0  0  0
  153.8241  137.1343  161.9158 C   0  0  0  0  0  0  0  0  0  0  0  0
  154.5621  138.0697  161.1306 C   0  0  0  0  0  0  0  0  0  0  0  0
  154.3335  138.3776  159.6566 C   0  0  2  0  0  0  0  0  0  0  0  0
  154.6441  137.1322  158.8098 C   0  0  0  0  0  0  0  0  0  0  0  0
  155.1941  139.3876  159.1665 O   0  0  0  0  0  0  0  0  0  0  0  0
  152.8958  138.8682  159.3697 C   0  0  0  0  0  0  0  0  0  0  0  0
  152.8259  140.2968  159.0898 N   0  0  0  0  0  0  0  0  0  0  0  0
  151.7903  140.8187  158.3992 C   0  0  0  0  0  0  0  0  0  0  0  0
  151.8304  142.1599  158.2143 N   0  0  0  0  0  0  0  0  0  0  0  0
  150.8499  142.7765  157.5485 C   0  0  0  0  0  0  0  0  0  0  0  0
  149.7579  142.2482  156.9930 N   0  0  0  0  0  0  0  0  0  0  0  0
  149.7128  140.8961  157.1708 C   0  0  0  0  0  0  0  0  0  0  0  0
  150.6789  140.1063  157.8572 C   0  0  0  0  0  0  0  0  0  0  0  0
  150.2799  138.7740  157.8285 N   0  0  0  0  0  0  0  0  0  0  0  0
  149.1509  138.7842  157.1731 C   0  0  0  0  0  0  0  0  0  0  0  0
  148.7421  140.0235  156.7297 N   0  0  0  0  0  0  0  0  0  0  0  0
  147.5093  140.4062  155.9691 C   0  0  2  0  0  0  0  0  0  0  0  0
  147.1309  139.3212  155.1761 O   0  0  0  0  0  0  0  0  0  0  0  0
  147.6573  139.4866  153.8635 C   0  0  1  0  0  0  0  0  0  0  0  0
  146.9499  138.5651  152.8547 C   0  0  0  0  0  0  0  0  0  0  0  0
  147.5036  138.7417  151.5681 O   0  0  0  0  0  0  0  0  0  0  0  0
  147.4660  140.9912  153.6398 C   0  0  1  0  0  0  0  0  0  0  0  0
  146.1284  141.2702  153.2575 O   0  0  0  0  0  0  0  0  0  0  0  0
  147.8212  141.5710  155.0090 C   0  0  1  0  0  0  0  0  0  0  0  0
  147.1018  142.7529  155.3078 O   0  0  0  0  0  0  0  0  0  0  0  0
  155.4980  138.5889  161.9930 C   0  0  0  0  0  0  0  0  0  0  0  0
  156.5958  139.5912  161.8532 C   0  0  0  0  0  0  0  0  0  0  0  0
  155.3682  138.0474  163.2361 O   0  0  0  0  0  0  0  0  0  0  0  0
  146.7628  140.6234  156.7344 H   0  0  0  0  0  0  0  0  0  0  0  0
  148.7287  139.2762  153.8734 H   0  0  0  0  0  0  0  0  0  0  0  0
  148.1273  141.3712  152.8605 H   0  0  0  0  0  0  0  0  0  0  0  0
  148.8896  141.7920  155.0397 H   0  0  0  0  0  0  0  0  0  0  0  0
  153.0820  135.8948  164.3505 H   0  0  0  0  0  0  0  0  0  0  0  0
  153.9199  137.1443  165.2720 H   0  0  0  0  0  0  0  0  0  0  0  0
  154.8053  135.7310  164.6930 H   0  0  0  0  0  0  0  0  0  0  0  0
  153.0010  136.5153  161.5908 H   0  0  0  0  0  0  0  0  0  0  0  0
  154.0003  136.2961  159.0855 H   0  0  0  0  0  0  0  0  0  0  0  0
  155.6770  136.8086  158.9445 H   0  0  0  0  0  0  0  0  0  0  0  0
  154.4932  137.3231  157.7466 H   0  0  0  0  0  0  0  0  0  0  0  0
  155.7939  139.6305  159.8550 H   0  0  0  0  0  0  0  0  0  0  0  0
  152.4497  138.2975  158.5542 H   0  0  0  0  0  0  0  0  0  0  0  0
  152.2853  138.6861  160.2554 H   0  0  0  0  0  0  0  0  0  0  0  0
  153.5517  140.8597  159.5099 H   0  0  0  0  0  0  0  0  0  0  0  0
  150.9556  143.8465  157.4469 H   0  0  0  0  0  0  0  0  0  0  0  0
  148.5880  137.8787  156.9984 H   0  0  0  0  0  0  0  0  0  0  0  0
  147.0170  137.5187  153.1540 H   0  0  0  0  0  0  0  0  0  0  0  0
  145.8914  138.8194  152.7922 H   0  0  0  0  0  0  0  0  0  0  0  0
  148.1335  139.4452  151.6068 H   0  0  0  0  0  0  0  0  0  0  0  0
  145.6440  140.4583  153.2615 H   0  0  0  0  0  0  0  0  0  0  0  0
  147.7236  143.4424  155.4864 H   0  0  0  0  0  0  0  0  0  0  0  0
  157.2498  139.3345  161.0199 H   0  0  0  0  0  0  0  0  0  0  0  0
  157.2068  139.6367  162.7553 H   0  0  0  0  0  0  0  0  0  0  0  0
  156.1890  140.5862  161.6727 H   0  0  0  0  0  0  0  0  0  0  0  0
  1  2  1  0  0  0  0
  1 35  1  0  0  0  0
  1 36  1  0  0  0  0
  1 37  1  0  0  0  0
  2 30  1  0  0  0  0
  2  3  2  0  0  0  0
  3  4  1  0  0  0  0
  3 38  1  0  0  0  0
  4  5  1  0  0  0  0
  4 28  2  0  0  0  0
  5  6  1  0  0  0  0
  5  7  1  0  0  0  0
  5  8  1  0  0  0  0
  6 39  1  0  0  0  0
  6 40  1  0  0  0  0
  6 41  1  0  0  0  0
  7 42  1  0  0  0  0
  8  9  1  0  0  0  0
  8 43  1  0  0  0  0
  8 44  1  0  0  0  0
  9 10  1  0  0  0  0
  9 45  1  0  0  0  0
 10 15  1  0  0  0  0
 10 11  2  0  0  0  0
 11 12  1  0  0  0  0
 12 13  2  0  0  0  0
 12 46  1  0  0  0  0
 13 14  1  0  0  0  0
 14 18  1  0  0  0  0
 14 15  2  0  0  0  0
 15 16  1  0  0  0  0
 16 17  2  0  0  0  0
 17 18  1  0  0  0  0
 17 47  1  0  0  0  0
 18 19  1  0  0  0  0
 19 31  1  0  0  0  0
 19 26  1  0  0  0  0
 19 20  1  0  0  0  0
 20 21  1  0  0  0  0
 21 32  1  0  0  0  0
 21 22  1  0  0  0  0
 21 24  1  0  0  0  0
 22 23  1  0  0  0  0
 22 48  1  0  0  0  0
 22 49  1  0  0  0  0
 23 50  1  0  0  0  0
 24 33  1  0  0  0  0
 24 25  1  0  0  0  0
 24 26  1  0  0  0  0
 25 51  1  0  0  0  0
 26 34  1  0  0  0  0
 26 27  1  0  0  0  0
 27 52  1  0  0  0  0
 28 29  1  0  0  0  0
 28 30  1  0  0  0  0
 29 53  1  0  0  0  0
 29 54  1  0  0  0  0
 29 55  1  0  0  0  0
M  END
> <s_m_source_file>
AV-unprocessed.smi

> <i_m_source_file_index>
287

> <i_lp_mmshare_version>
43012

> <i_f3d_flags>
0

> <s_epik_input>
W0NIM11jMVtjSF1jKGMobzEpW0NIM10pW0NAQF0oW0NIM10pKFtPSF0pW0NIMl1bTkhdYyhuW2NIXW4yKWMoYzIzKW5bY0hdbjNbQ0BASF00T1tDQEhdKFtDSDJdW09IXSlbQ0BASF0oW09IXSlbQ0BIXTRbT0hd

> <s_epik_cmdline>
J2VwaWtfcHl0aG9uJywgJy1waCcsICc3LjAnLCAnLXRuJywgJzgnLCAnLW1hJywgJzIwMCcsICctbWV0YWxfYmluZGluZycsICctaW1hZScsICc8aW5maWxlLm1hZT4nLCAnLW9tYWUnLCAnPG91dGZpbGUubWFlPic=

> <r_lp_tautomer_probability>
1

> <r_epik_Ionization_Penalty>
0.000992612

> <r_epik_Ionization_Penalty_Charging>
0

> <r_epik_Ionization_Penalty_Neutral>
0.000992612

> <r_epik_State_Penalty>
-0

> <r_epik_Charging_Adjusted_Penalty>
0

> <i_epik_Tot_Q>
0

> <i_epik_Tot_abs_Q>
0

> <r_epik_Metal_State_Penalty>
-0

> <b_epik_Metal_Only>
0

> <s_epik_Chemistry_Notes>
This compound contains an acetal/aminal-like group ( X-CH(R)-Y where X, Y are N, S, or O) that may be acid/base labile, releasing an aldehyde.

> <s_lp_Force_Field>
OPLS_2005

> <r_lp_Energy>
45.3255

> <b_lp_Chiralities_Consistent>
1

> <s_lp_Variant>
AV-unprocessed.smi:287-6

> <Gold.Version>
5.8.1

> <Gold.Id.Protein>
6NUR|6NUR_protein|mol2

> <Gold.PLP.Fitness>
46.2943

> <Gold.PLP.PLP>
-37.5377

> <Gold.PLP.part.hbond>
-5.9139

> <Gold.PLP.part.metal>
0.0000

> <Gold.PLP.part.buried>
-4.2414

> <Gold.PLP.part.nonpolar>
-29.7332

> <Gold.PLP.part.repulsive>
1.6454

> <Gold.PLP.ligand.clash>
0.0000

> <Gold.PLP.ligand.torsion>
1.9089

> <Gold.PLP.Chemscore.Hbond>
4.0105

> <Gold.PLP.Chemscore.CHOScore>
0.1622

> <Gold.PLP.Chemscore.Metal>
0.0000

> <Gold.Chemscore.Hbonds>
donor molecule, donor type, donor heavy atom, donor atom, acceptor molecule, acceptor atom, score
      L1  H    23    50       P1  7957  0.94
      L1  H    25    51       P1 10175  0.27
      L1  H    27    52       P1  8028  0.90
      P1  H  7954  7966       L1    23  0.80
      P1  H  7997  8010       L1     7  1.00
      L1  C    12    46       P1  8028  0.11

> <Gold.PLP.Chemscore.Internal.Correction>
0.0564

> <Gold.Rescore>
     Score         DG    S(hbond)    S(metal)    S(lipo)     H(rot)  DE(clash)    DE(int)     intcor
      5.30     -10.84       2.70        0.00      83.93       5.27       0.74       4.80       ----

> <Gold.Chemscore.Fitness>
5.3022

> <Gold.Chemscore.DG>
-10.8391

> <Gold.Chemscore.ZeroCoef>
-5.4800

> <Gold.Chemscore.Hbond>
2.7014

> <Gold.Chemscore.Metal>
0.0000

> <Gold.Chemscore.Lipo>
83.9346

> <Gold.Chemscore.Internal_Hbond>
0.0000

> <Gold.Chemscore.DEClash>
0.7366

> <Gold.Chemscore.DEInternal>
4.8004

> <Gold.Chemscore.Rot>
5.2672

> <Gold.Chemscore.Internal.Correction>
   9.000000E+99

> <Gold.Chemscore.Hbonds>
donor molecule, donor type, donor heavy atom, donor atom, acceptor molecule, acceptor atom, score
      L1  H    23    50       P1  7957  0.90
      L1  H    25    51       P1 10175  0.25
      L1  H    27    52       P1  8028  0.18
      P1  H  7954  7966       L1    23  0.13
      P1  H  7997  8010       L1     7  0.99

> <Gold.Chemscore.Hbond.Weighted>
-9.0227

> <Gold.Chemscore.Metal.Weighted>
-0.0000

> <Gold.Chemscore.Lipo.Weighted>
-9.8203

> <Gold.Chemscore.Internal_Hbond.Weighted>
0.0000

> <Gold.Chemscore.DEClash.Weighted>
0.7366

> <Gold.Chemscore.DEInternal.Weighted>
4.8004

> <Gold.Chemscore.Rot.Weighted>
13.4839

> <Gold.Chemscore.Internal.Correction.Weighted>
   9.000000E+99

> <Gold.Protein.RotatedTorsions>
[ 6907 6896 6895 6894 ] final  107.51 input  -60.11 | X-H torsion
[ 7974 7965 7964 7962 ] final   20.84 input  175.53 | X-H torsion
[ 8008 7997 7996 7995 ] final   -8.48 input   59.86 | X-H torsion
[ 10167 10162 10161 10158 ] final   62.22 input  -65.29 | X-H torsion
[ 10718 10713 10712 10709 ] final  -27.34 input   66.30 | X-H torsion
[ 10763 10752 10751 10750 ] final  -76.72 input  -60.55 | X-H torsion
[ 11005 11000 10999 10996 ] final  -24.31 input  -57.11 | X-H torsion

> <Gold.Protein.ActiveResidues>
 VAL166  LYS551  ARG553  GLY616  TRP617  ASP618  TYR619  PRO620  LYS621  CYS622 
 ASP623  PHE694  ASN695  SER759  ASP760  ASP761  ALA762  ILE779  LEU786  VAL792 
 PHE793  MET794  SER795  GLU796  ALA797  LYS798  CYS799  TRP800  GLU811  SER814 

> <Gold.Protein.RotatedAtoms>
  152.5151  133.9224  159.7540 H   0  0  0  0  0  0  0  0  0  0  0  0  # atno 6907 bound_to 6896
  150.9593  133.6454  159.2764 H   0  0  0  0  0  0  0  0  0  0  0  0  # atno 6908 bound_to 6896
  151.3705  135.0927  159.9516 H   0  0  0  0  0  0  0  0  0  0  0  0  # atno 6909 bound_to 6896
  146.2095  139.8112  142.8700 H   0  0  0  0  0  0  0  0  0  0  0  0  # atno 7974 bound_to 7965
  154.5737  140.2380  155.8153 H   0  0  0  0  0  0  0  0  0  0  0  0  # atno 8008 bound_to 7997
  156.2127  140.3021  155.9726 H   0  0  0  0  0  0  0  0  0  0  0  0  # atno 8009 bound_to 7997
  155.2665  140.0416  157.2993 H   0  0  0  0  0  0  0  0  0  0  0  0  # atno 8010 bound_to 7997
  140.1463  144.4505  150.6783 H   0  0  0  0  0  0  0  0  0  0  0  0  # atno 10167 bound_to 10162
  156.4394  130.4461  149.7063 H   0  0  0  0  0  0  0  0  0  0  0  0  # atno 10718 bound_to 10713
  154.5035  135.5788  153.6550 H   0  0  0  0  0  0  0  0  0  0  0  0  # atno 10763 bound_to 10752
  152.9883  135.6141  154.2971 H   0  0  0  0  0  0  0  0  0  0  0  0  # atno 10764 bound_to 10752
  154.2880  135.2849  155.2647 H   0  0  0  0  0  0  0  0  0  0  0  0  # atno 10765 bound_to 10752
  140.8833  133.7639  156.0329 H   0  0  0  0  0  0  0  0  0  0  0  0  # atno 11005 bound_to 11000
  145.3194  141.0240  143.3509 LP  0  0  0  0  0  0  0  0  0  0  0  0  # atno 17320 bound_to 7965
  144.8877  139.4816  143.6692 LP  0  0  0  0  0  0  0  0  0  0  0  0  # atno 17321 bound_to 7965
  140.6730  143.2293  151.5578 LP  0  0  0  0  0  0  0  0  0  0  0  0  # atno 17342 bound_to 10162
  139.5447  144.2552  152.1420 LP  0  0  0  0  0  0  0  0  0  0  0  0  # atno 17343 bound_to 10162
  156.3934  130.7638  151.2641 LP  0  0  0  0  0  0  0  0  0  0  0  0  # atno 17370 bound_to 10713
  157.7506  131.0261  150.3948 LP  0  0  0  0  0  0  0  0  0  0  0  0  # atno 17371 bound_to 10713
  140.8435  134.3038  157.5304 LP  0  0  0  0  0  0  0  0  0  0  0  0  # atno 17394 bound_to 11000
  139.8722  134.9429  156.3838 LP  0  0  0  0  0  0  0  0  0  0  0  0  # atno 17395 bound_to 11000

$$$$
