AV-unprocessed.smi:3156|AV-procd|sdf|12034|dock10
  -GOLD-   2272017453D 1   1.00000     0.00000
 Structure written by MMmdl.
 41 42  0  0  0  0  0  0  0  0  2 V2000
  149.7325  143.6603  158.7255 C   0  0  0  0  0  0  0  0  0  0  0  0
  150.8171  142.7110  158.1829 C   0  0  1  0  0  0  0  0  0  0  0  0
  150.6977  142.5934  156.7108 N   0  3  0  0  0  0  0  0  0  0  0  0
  149.7762  141.5461  156.2215 C   0  0  0  0  0  0  0  0  0  0  0  0
  150.5204  140.4997  155.3772 C   0  0  2  0  0  0  0  0  0  0  0  0
  149.6126  139.3416  154.9096 C   0  0  0  0  0  0  0  0  0  0  0  0
  150.4258  138.3055  154.1264 C   0  0  0  0  0  0  0  0  0  0  0  0
  151.6400  137.8711  154.9544 C   0  0  0  0  0  0  0  0  0  0  0  0
  152.4480  139.0985  155.4061 C   0  0  0  0  0  0  0  0  0  0  0  0
  151.6144  139.9922  156.1386 O   0  0  0  0  0  0  0  0  0  0  0  0
  152.2540  143.1695  158.5560 C   0  0  1  0  0  0  0  0  0  0  0  0
  152.5050  144.6635  158.2798 C   0  0  0  0  0  0  0  0  0  0  0  0
  152.5734  142.8719  159.9492 N   0  0  0  0  0  0  0  0  0  0  0  0
  153.5661  142.0472  160.4378 C   0  0  0  0  0  0  0  0  0  0  0  0
  153.4910  142.0788  161.8007 C   0  0  0  0  0  0  0  0  0  0  0  0
  152.4173  142.9752  162.0596 C   0  0  0  0  0  0  0  0  0  0  0  0
  151.8733  143.4507  160.9516 N   0  0  0  0  0  0  0  0  0  0  0  0
  149.7467  143.7076  159.8138 H   0  0  0  0  0  0  0  0  0  0  0  0
  148.7331  143.3301  158.4428 H   0  0  0  0  0  0  0  0  0  0  0  0
  149.8658  144.6739  158.3458 H   0  0  0  0  0  0  0  0  0  0  0  0
  150.6559  141.7229  158.6170 H   0  0  0  0  0  0  0  0  0  0  0  0
  150.4352  143.4863  156.3183 H   0  0  0  0  0  0  0  0  0  0  0  0
  149.3005  141.0502  157.0686 H   0  0  0  0  0  0  0  0  0  0  0  0
  148.9822  142.0043  155.6317 H   0  0  0  0  0  0  0  0  0  0  0  0
  150.9215  141.0074  154.4980 H   0  0  0  0  0  0  0  0  0  0  0  0
  149.1482  138.8541  155.7677 H   0  0  0  0  0  0  0  0  0  0  0  0
  148.7994  139.7232  154.2913 H   0  0  0  0  0  0  0  0  0  0  0  0
  149.8058  137.4437  153.8772 H   0  0  0  0  0  0  0  0  0  0  0  0
  150.7598  138.7364  153.1817 H   0  0  0  0  0  0  0  0  0  0  0  0
  151.3067  137.3118  155.8293 H   0  0  0  0  0  0  0  0  0  0  0  0
  152.2704  137.1968  154.3739 H   0  0  0  0  0  0  0  0  0  0  0  0
  153.2755  138.7875  156.0441 H   0  0  0  0  0  0  0  0  0  0  0  0
  152.8845  139.6131  154.5486 H   0  0  0  0  0  0  0  0  0  0  0  0
  152.9575  142.6001  157.9463 H   0  0  0  0  0  0  0  0  0  0  0  0
  152.4363  144.8967  157.2178 H   0  0  0  0  0  0  0  0  0  0  0  0
  153.5038  144.9572  158.6045 H   0  0  0  0  0  0  0  0  0  0  0  0
  151.7880  145.2928  158.8082 H   0  0  0  0  0  0  0  0  0  0  0  0
  154.2349  141.5085  159.7822 H   0  0  0  0  0  0  0  0  0  0  0  0
  154.1129  141.5477  162.5061 H   0  0  0  0  0  0  0  0  0  0  0  0
  152.0207  143.2931  163.0128 H   0  0  0  0  0  0  0  0  0  0  0  0
  151.6158  142.3522  156.3651 H   0  0  0  0  0  0  0  0  0  0  0  0
  1  2  1  0  0  0  0
  1 18  1  0  0  0  0
  1 19  1  0  0  0  0
  1 20  1  0  0  0  0
  2  3  1  0  0  0  0
  2 11  1  0  0  0  0
  2 21  1  0  0  0  0
  3  4  1  0  0  0  0
  3 22  1  0  0  0  0
  3 41  1  0  0  0  0
  4  5  1  0  0  0  0
  4 23  1  0  0  0  0
  4 24  1  0  0  0  0
  5 10  1  0  0  0  0
  5  6  1  0  0  0  0
  5 25  1  0  0  0  0
  6  7  1  0  0  0  0
  6 26  1  0  0  0  0
  6 27  1  0  0  0  0
  7  8  1  0  0  0  0
  7 28  1  0  0  0  0
  7 29  1  0  0  0  0
  8  9  1  0  0  0  0
  8 30  1  0  0  0  0
  8 31  1  0  0  0  0
  9 10  1  0  0  0  0
  9 32  1  0  0  0  0
  9 33  1  0  0  0  0
 11 12  1  0  0  0  0
 11 13  1  0  0  0  0
 11 34  1  0  0  0  0
 12 35  1  0  0  0  0
 12 36  1  0  0  0  0
 12 37  1  0  0  0  0
 13 17  1  0  0  0  0
 13 14  1  0  0  0  0
 14 15  2  0  0  0  0
 14 38  1  0  0  0  0
 15 16  1  0  0  0  0
 15 39  1  0  0  0  0
 16 17  2  0  0  0  0
 16 40  1  0  0  0  0
M  CHG  1   3   1
M  END
> <s_m_source_file>
AV-unprocessed.smi

> <i_m_source_file_index>
3156

> <i_lp_mmshare_version>
43012

> <i_f3d_flags>
0

> <s_epik_input>
bjFbY0hdW2NIXVtjSF1uMVtDQEBIXShbQ0gzXSlbQ0BIXShbQ0gzXSlbTkhdW0NIMl1bQ0BASF0yW0NIMl1bQ0gyXVtDSDJdW0NIMl1PMg==

> <s_epik_cmdline>
J2VwaWtfcHl0aG9uJywgJy1waCcsICc3LjAnLCAnLXRuJywgJzgnLCAnLW1hJywgJzIwMCcsICctbWV0YWxfYmluZGluZycsICctaW1hZScsICc8aW5maWxlLm1hZT4nLCAnLW9tYWUnLCAnPG91dGZpbGUubWFlPic=

> <r_lp_tautomer_probability>
1

> <r_epik_Ionization_Penalty>
0.00658015

> <r_epik_Ionization_Penalty_Charging>
0.00656881

> <r_epik_Ionization_Penalty_Neutral>
1.13431e-05

> <r_epik_State_Penalty>
0.0048654

> <r_epik_Charging_Adjusted_Penalty>
0.0114342

> <i_epik_Tot_Q>
1

> <i_epik_Tot_abs_Q>
1

> <r_epik_Metal_State_Penalty>
-0

> <b_epik_Metal_Only>
0

> <s_lp_Force_Field>
OPLS_2005

> <r_lp_Energy>
18.8572

> <b_lp_Chiralities_Consistent>
1

> <s_lp_Variant>
AV-unprocessed.smi:3156-6

> <Gold.Version>
5.8.1

> <Gold.Id.Protein>
6NUR|6NUR_protein|mol2

> <Gold.PLP.Fitness>
49.9473

> <Gold.PLP.PLP>
-45.9076

> <Gold.PLP.part.hbond>
-1.0000

> <Gold.PLP.part.metal>
0.0000

> <Gold.PLP.part.buried>
-5.2084

> <Gold.PLP.part.nonpolar>
-41.1112

> <Gold.PLP.part.repulsive>
0.1534

> <Gold.PLP.ligand.clash>
0.0000

> <Gold.PLP.ligand.torsion>
1.0249

> <Gold.PLP.Chemscore.Hbond>
2.0000

> <Gold.PLP.Chemscore.CHOScore>
0.0000

> <Gold.PLP.Chemscore.Metal>
0.0000

> <Gold.Chemscore.Hbonds>
donor molecule, donor type, donor heavy atom, donor atom, acceptor molecule, acceptor atom, score
      L1  H     3    22       P1  8028  1.68

> <Gold.PLP.Chemscore.Internal.Correction>
0.0896

> <Gold.Rescore>
     Score         DG    S(hbond)    S(metal)    S(lipo)     H(rot)  DE(clash)    DE(int)     intcor
     17.53     -18.55       0.97        0.00     118.98       1.59       0.02       1.00       ----

> <Gold.Chemscore.Fitness>
17.5334

> <Gold.Chemscore.DG>
-18.5525

> <Gold.Chemscore.ZeroCoef>
-5.4800

> <Gold.Chemscore.Hbond>
0.9676

> <Gold.Chemscore.Metal>
0.0000

> <Gold.Chemscore.Lipo>
118.9825

> <Gold.Chemscore.Internal_Hbond>
0.0000

> <Gold.Chemscore.DEClash>
0.0234

> <Gold.Chemscore.DEInternal>
0.9956

> <Gold.Chemscore.Rot>
1.5938

> <Gold.Chemscore.Internal.Correction>
   9.000000E+99

> <Gold.Chemscore.Hbonds>
donor molecule, donor type, donor heavy atom, donor atom, acceptor molecule, acceptor atom, score
      L1  H     3    22       P1  8028  0.79

> <Gold.Chemscore.Hbond.Weighted>
-3.2318

> <Gold.Chemscore.Metal.Weighted>
-0.0000

> <Gold.Chemscore.Lipo.Weighted>
-13.9209

> <Gold.Chemscore.Internal_Hbond.Weighted>
0.0000

> <Gold.Chemscore.DEClash.Weighted>
0.0234

> <Gold.Chemscore.DEInternal.Weighted>
0.9956

> <Gold.Chemscore.Rot.Weighted>
4.0802

> <Gold.Chemscore.Internal.Correction.Weighted>
   9.000000E+99

> <Gold.Protein.RotatedTorsions>
[ 6907 6896 6895 6894 ] final -115.43 input  -60.11 | X-H torsion
[ 7974 7965 7964 7962 ] final  -92.67 input  175.53 | X-H torsion
[ 8008 7997 7996 7995 ] final -166.10 input   59.86 | X-H torsion
[ 10167 10162 10161 10158 ] final   17.01 input  -65.29 | X-H torsion
[ 10718 10713 10712 10709 ] final    9.26 input   66.30 | X-H torsion
[ 10763 10752 10751 10750 ] final  117.75 input  -60.55 | X-H torsion
[ 11005 11000 10999 10996 ] final  -13.85 input  -57.11 | X-H torsion

> <Gold.Protein.ActiveResidues>
 VAL166  LYS551  ARG553  GLY616  TRP617  ASP618  TYR619  PRO620  LYS621  CYS622 
 ASP623  PHE694  ASN695  SER759  ASP760  ASP761  ALA762  ILE779  LEU786  VAL792 
 PHE793  MET794  SER795  GLU796  ALA797  LYS798  CYS799  TRP800  GLU811  SER814 

> <Gold.Protein.RotatedAtoms>
  150.7977  133.8660  159.3244 H   0  0  0  0  0  0  0  0  0  0  0  0  # atno 6907 bound_to 6896
  151.6481  135.1003  160.0164 H   0  0  0  0  0  0  0  0  0  0  0  0  # atno 6908 bound_to 6896
  152.4061  133.6851  159.6392 H   0  0  0  0  0  0  0  0  0  0  0  0  # atno 6909 bound_to 6896
  145.3967  140.9533  143.2310 H   0  0  0  0  0  0  0  0  0  0  0  0  # atno 7974 bound_to 7965
  155.8591  140.0975  157.1625 H   0  0  0  0  0  0  0  0  0  0  0  0  # atno 8008 bound_to 7997
  154.3989  140.1368  156.4000 H   0  0  0  0  0  0  0  0  0  0  0  0  # atno 8009 bound_to 7997
  155.7877  140.3456  155.5334 H   0  0  0  0  0  0  0  0  0  0  0  0  # atno 8010 bound_to 7997
  140.5757  143.9077  150.6748 H   0  0  0  0  0  0  0  0  0  0  0  0  # atno 10167 bound_to 10162
  156.9637  130.5942  149.5664 H   0  0  0  0  0  0  0  0  0  0  0  0  # atno 10718 bound_to 10713
  153.5572  135.3528  155.2784 H   0  0  0  0  0  0  0  0  0  0  0  0  # atno 10763 bound_to 10752
  154.8699  135.4128  154.2871 H   0  0  0  0  0  0  0  0  0  0  0  0  # atno 10764 bound_to 10752
  153.3609  135.7060  153.6782 H   0  0  0  0  0  0  0  0  0  0  0  0  # atno 10765 bound_to 10752
  140.7803  133.8368  155.9286 H   0  0  0  0  0  0  0  0  0  0  0  0  # atno 11005 bound_to 11000
  144.8402  139.5484  143.6903 LP  0  0  0  0  0  0  0  0  0  0  0  0  # atno 17320 bound_to 7965
  146.2772  139.6782  142.9255 LP  0  0  0  0  0  0  0  0  0  0  0  0  # atno 17321 bound_to 7965
  140.2564  143.3556  152.1361 LP  0  0  0  0  0  0  0  0  0  0  0  0  # atno 17342 bound_to 10162
  139.5141  144.6943  151.5674 LP  0  0  0  0  0  0  0  0  0  0  0  0  # atno 17343 bound_to 10162
  156.0311  130.5402  150.8537 LP  0  0  0  0  0  0  0  0  0  0  0  0  # atno 17370 bound_to 10713
  157.5640  131.0946  150.9517 LP  0  0  0  0  0  0  0  0  0  0  0  0  # atno 17371 bound_to 10713
  140.9489  134.1805  157.4743 LP  0  0  0  0  0  0  0  0  0  0  0  0  # atno 17394 bound_to 11000
  139.8743  134.9901  156.5488 LP  0  0  0  0  0  0  0  0  0  0  0  0  # atno 17395 bound_to 11000

$$$$
