AV-unprocessed.smi:2157|AV-procd|sdf|8784|dock1
  -GOLD-   2272011563D 1   1.00000     0.00000
 Structure written by MMmdl.
 41 42  0  0  0  0  0  0  0  0  1 V2000
  152.1298  145.7321  159.1834 C   0  0  0  0  0  0  0  0  0  0  0  0
  152.3989  144.2305  159.0096 C   0  0  1  0  0  0  0  0  0  0  0  0
  152.6468  143.5430  160.3660 C   0  0  0  0  0  0  0  0  0  0  0  0
  152.9148  142.0397  160.1942 C   0  0  0  0  0  0  0  0  0  0  0  0
  151.7659  141.3531  159.4404 C   0  0  0  0  0  0  0  0  0  0  0  0
  151.5091  142.0242  158.0791 C   0  0  1  0  0  0  0  0  0  0  0  0
  150.3743  141.3803  157.4248 N   0  0  0  0  0  0  0  0  0  0  0  0
  150.4329  140.6648  156.2915 C   0  0  0  0  0  0  0  0  0  0  0  0
  151.4779  140.4695  155.6688 O   0  0  0  0  0  0  0  0  0  0  0  0
  149.1013  140.0727  155.8091 C   0  0  0  0  0  0  0  0  0  0  0  0
  148.2223  141.0564  155.1630 N   0  0  0  0  0  0  0  0  0  0  0  0
  148.2350  141.1806  153.7855 C   0  0  0  0  0  0  0  0  0  0  0  0
  147.4658  142.0613  153.1092 C   0  0  0  0  0  0  0  0  0  0  0  0
  146.5540  142.9515  153.8161 C   0  0  0  0  0  0  0  0  0  0  0  0
  145.8327  143.7735  153.2487 O   0  0  0  0  0  0  0  0  0  0  0  0
  146.5573  142.8038  155.2218 N   0  0  0  0  0  0  0  0  0  0  0  0
  145.6648  143.6725  155.9609 C   0  0  0  0  0  0  0  0  0  0  0  0
  147.3706  141.8850  155.9264 C   0  0  0  0  0  0  0  0  0  0  0  0
  147.3547  141.7947  157.1562 O   0  0  0  0  0  0  0  0  0  0  0  0
  151.2499  143.5353  158.2529 C   0  0  0  0  0  0  0  0  0  0  0  0
  151.2315  145.9080  159.7761 H   0  0  0  0  0  0  0  0  0  0  0  0
  151.9929  146.2209  158.2182 H   0  0  0  0  0  0  0  0  0  0  0  0
  152.9627  146.2244  159.6861 H   0  0  0  0  0  0  0  0  0  0  0  0
  153.3051  144.1273  158.4108 H   0  0  0  0  0  0  0  0  0  0  0  0
  153.4935  144.0088  160.8716 H   0  0  0  0  0  0  0  0  0  0  0  0
  151.7828  143.6860  161.0165 H   0  0  0  0  0  0  0  0  0  0  0  0
  153.8485  141.8939  159.6497 H   0  0  0  0  0  0  0  0  0  0  0  0
  153.0498  141.5727  161.1702 H   0  0  0  0  0  0  0  0  0  0  0  0
  151.9994  140.2970  159.2992 H   0  0  0  0  0  0  0  0  0  0  0  0
  150.8615  141.3915  160.0496 H   0  0  0  0  0  0  0  0  0  0  0  0
  152.4002  141.8880  157.4629 H   0  0  0  0  0  0  0  0  0  0  0  0
  149.4741  141.4869  157.8696 H   0  0  0  0  0  0  0  0  0  0  0  0
  149.3217  139.2622  155.1131 H   0  0  0  0  0  0  0  0  0  0  0  0
  148.5875  139.6041  156.6505 H   0  0  0  0  0  0  0  0  0  0  0  0
  148.8968  140.5434  153.2171 H   0  0  0  0  0  0  0  0  0  0  0  0
  147.5265  142.1079  152.0318 H   0  0  0  0  0  0  0  0  0  0  0  0
  145.6741  143.4405  157.0253 H   0  0  0  0  0  0  0  0  0  0  0  0
  144.6589  143.5188  155.5661 H   0  0  0  0  0  0  0  0  0  0  0  0
  146.0049  144.6963  155.7960 H   0  0  0  0  0  0  0  0  0  0  0  0
  150.3139  143.6870  158.7928 H   0  0  0  0  0  0  0  0  0  0  0  0
  151.1199  144.0026  157.2757 H   0  0  0  0  0  0  0  0  0  0  0  0
  1  2  1  0  0  0  0
  1 21  1  0  0  0  0
  1 22  1  0  0  0  0
  1 23  1  0  0  0  0
  2 20  1  0  0  0  0
  2  3  1  0  0  0  0
  2 24  1  0  0  0  0
  3  4  1  0  0  0  0
  3 25  1  0  0  0  0
  3 26  1  0  0  0  0
  4  5  1  0  0  0  0
  4 27  1  0  0  0  0
  4 28  1  0  0  0  0
  5  6  1  0  0  0  0
  5 29  1  0  0  0  0
  5 30  1  0  0  0  0
  6  7  1  0  0  0  0
  6 20  1  0  0  0  0
  6 31  1  0  0  0  0
  7  8  1  0  0  0  0
  7 32  1  0  0  0  0
  8  9  2  0  0  0  0
  8 10  1  0  0  0  0
 10 11  1  0  0  0  0
 10 33  1  0  0  0  0
 10 34  1  0  0  0  0
 11 18  1  0  0  0  0
 11 12  1  0  0  0  0
 12 13  2  0  0  0  0
 12 35  1  0  0  0  0
 13 14  1  0  0  0  0
 13 36  1  0  0  0  0
 14 15  2  0  0  0  0
 14 16  1  0  0  0  0
 16 17  1  0  0  0  0
 16 18  1  0  0  0  0
 17 37  1  0  0  0  0
 17 38  1  0  0  0  0
 17 39  1  0  0  0  0
 18 19  2  0  0  0  0
 20 40  1  0  0  0  0
 20 41  1  0  0  0  0
M  END
> <s_m_source_file>
AV-unprocessed.smi

> <i_m_source_file_index>
2157

> <i_lp_mmshare_version>
43012

> <i_f3d_flags>
0

> <s_epik_input>
W0NIM11bQ0BASF0xW0NIMl1bQ0gyXVtDSDJdW0NASF0oW0NIMl0xKVtOSF1DKD1PKVtDSDJdbjJbY0hdW2NIXWMoPU8pbihbQ0gzXSljMj1P

> <s_epik_cmdline>
J2VwaWtfcHl0aG9uJywgJy1waCcsICc3LjAnLCAnLXRuJywgJzgnLCAnLW1hJywgJzIwMCcsICctbWV0YWxfYmluZGluZycsICctaW1hZScsICc8aW5maWxlLm1hZT4nLCAnLW9tYWUnLCAnPG91dGZpbGUubWFlPic=

> <r_lp_tautomer_probability>
1

> <r_epik_Ionization_Penalty>
3.1838e-08

> <r_epik_Ionization_Penalty_Charging>
1.27911e-08

> <r_epik_Ionization_Penalty_Neutral>
1.90469e-08

> <r_epik_State_Penalty>
-0

> <r_epik_Charging_Adjusted_Penalty>
1.27911e-08

> <i_epik_Tot_Q>
0

> <i_epik_Tot_abs_Q>
0

> <r_epik_Metal_State_Penalty>
-0

> <b_epik_Metal_Only>
0

> <s_lp_Force_Field>
OPLS_2005

> <r_lp_Energy>
16.3739

> <b_lp_Chiralities_Consistent>
1

> <s_lp_Variant>
AV-unprocessed.smi:2157-2

> <Gold.Version>
5.8.1

> <Gold.Id.Protein>
6NUR|6NUR_protein|mol2

> <Gold.PLP.Fitness>
44.7838

> <Gold.PLP.PLP>
-40.6904

> <Gold.PLP.part.hbond>
-1.0000

> <Gold.PLP.part.metal>
0.0000

> <Gold.PLP.part.buried>
-6.6651

> <Gold.PLP.part.nonpolar>
-33.6966

> <Gold.PLP.part.repulsive>
0.3451

> <Gold.PLP.ligand.clash>
0.0000

> <Gold.PLP.ligand.torsion>
0.5881

> <Gold.PLP.Chemscore.Hbond>
0.7520

> <Gold.PLP.Chemscore.CHOScore>
1.0000

> <Gold.PLP.Chemscore.Metal>
0.0000

> <Gold.Chemscore.Hbonds>
donor molecule, donor type, donor heavy atom, donor atom, acceptor molecule, acceptor atom, score
      P1  H  7989  7998       L1     9  0.46
      L1  C    12    35       P1  7957  1.00

> <Gold.PLP.Chemscore.Internal.Correction>
0.0136

> <Gold.Rescore>
     Score         DG    S(hbond)    S(metal)    S(lipo)     H(rot)  DE(clash)    DE(int)     intcor
     14.09     -16.28       0.92        0.00      99.30       1.52       1.46       0.73       ----

> <Gold.Chemscore.Fitness>
14.0885

> <Gold.Chemscore.DG>
-16.2760

> <Gold.Chemscore.ZeroCoef>
-5.4800

> <Gold.Chemscore.Hbond>
0.9221

> <Gold.Chemscore.Metal>
0.0000

> <Gold.Chemscore.Lipo>
99.3009

> <Gold.Chemscore.Internal_Hbond>
0.0000

> <Gold.Chemscore.DEClash>
1.4590

> <Gold.Chemscore.DEInternal>
0.7285

> <Gold.Chemscore.Rot>
1.5242

> <Gold.Chemscore.Internal.Correction>
   9.000000E+99

> <Gold.Chemscore.Hbonds>
donor molecule, donor type, donor heavy atom, donor atom, acceptor molecule, acceptor atom, score
      P1  H  7989  7998       L1     9  0.45

> <Gold.Chemscore.Hbond.Weighted>
-3.0797

> <Gold.Chemscore.Metal.Weighted>
-0.0000

> <Gold.Chemscore.Lipo.Weighted>
-11.6182

> <Gold.Chemscore.Internal_Hbond.Weighted>
0.0000

> <Gold.Chemscore.DEClash.Weighted>
1.4590

> <Gold.Chemscore.DEInternal.Weighted>
0.7285

> <Gold.Chemscore.Rot.Weighted>
3.9019

> <Gold.Chemscore.Internal.Correction.Weighted>
   9.000000E+99

> <Gold.Protein.RotatedTorsions>
[ 6907 6896 6895 6894 ] final   45.14 input  -60.11 | X-H torsion
[ 7974 7965 7964 7962 ] final  -98.92 input  175.53 | X-H torsion
[ 8008 7997 7996 7995 ] final  -82.52 input   59.86 | X-H torsion
[ 10167 10162 10161 10158 ] final  -95.49 input  -65.29 | X-H torsion
[ 10718 10713 10712 10709 ] final  -36.81 input   66.30 | X-H torsion
[ 10763 10752 10751 10750 ] final  125.32 input  -60.55 | X-H torsion
[ 11005 11000 10999 10996 ] final  -68.45 input  -57.11 | X-H torsion

> <Gold.Protein.ActiveResidues>
 VAL166  LYS551  ARG553  GLY616  TRP617  ASP618  TYR619  PRO620  LYS621  CYS622 
 ASP623  PHE694  ASN695  SER759  ASP760  ASP761  ALA762  ILE779  LEU786  VAL792 
 PHE793  MET794  SER795  GLU796  ALA797  LYS798  CYS799  TRP800  GLU811  SER814 

> <Gold.Protein.RotatedAtoms>
  152.2410  134.8228  160.0460 H   0  0  0  0  0  0  0  0  0  0  0  0  # atno 6907 bound_to 6896
  151.8943  133.3518  159.3817 H   0  0  0  0  0  0  0  0  0  0  0  0  # atno 6908 bound_to 6896
  150.7054  134.4819  159.5518 H   0  0  0  0  0  0  0  0  0  0  0  0  # atno 6909 bound_to 6896
  145.3143  140.9407  143.2751 H   0  0  0  0  0  0  0  0  0  0  0  0  # atno 7974 bound_to 7965
  154.6095  140.0632  156.9474 H   0  0  0  0  0  0  0  0  0  0  0  0  # atno 8008 bound_to 7997
  155.1998  140.3314  155.4327 H   0  0  0  0  0  0  0  0  0  0  0  0  # atno 8009 bound_to 7997
  156.2368  140.1866  156.7082 H   0  0  0  0  0  0  0  0  0  0  0  0  # atno 8010 bound_to 7997
  140.3037  143.3147  152.0222 H   0  0  0  0  0  0  0  0  0  0  0  0  # atno 10167 bound_to 10162
  156.3225  130.4267  149.7947 H   0  0  0  0  0  0  0  0  0  0  0  0  # atno 10718 bound_to 10713
  153.6755  135.3323  155.3164 H   0  0  0  0  0  0  0  0  0  0  0  0  # atno 10763 bound_to 10752
  154.8480  135.4396  154.1661 H   0  0  0  0  0  0  0  0  0  0  0  0  # atno 10764 bound_to 10752
  153.2663  135.6996  153.7602 H   0  0  0  0  0  0  0  0  0  0  0  0  # atno 10765 bound_to 10752
  141.1532  133.6741  156.6448 H   0  0  0  0  0  0  0  0  0  0  0  0  # atno 11005 bound_to 11000
  144.8990  139.4674  143.6641 LP  0  0  0  0  0  0  0  0  0  0  0  0  # atno 17320 bound_to 7965
  146.3106  139.7733  142.9022 LP  0  0  0  0  0  0  0  0  0  0  0  0  # atno 17321 bound_to 7965
  139.4909  144.6437  151.6823 LP  0  0  0  0  0  0  0  0  0  0  0  0  # atno 17342 bound_to 10162
  140.5629  144.0238  150.6178 LP  0  0  0  0  0  0  0  0  0  0  0  0  # atno 17343 bound_to 10162
  156.5249  130.8232  151.3217 LP  0  0  0  0  0  0  0  0  0  0  0  0  # atno 17370 bound_to 10713
  157.7414  130.9870  150.2447 LP  0  0  0  0  0  0  0  0  0  0  0  0  # atno 17371 bound_to 10713
  140.3365  134.7885  157.4366 LP  0  0  0  0  0  0  0  0  0  0  0  0  # atno 17394 bound_to 11000
  140.0973  134.5520  155.8386 LP  0  0  0  0  0  0  0  0  0  0  0  0  # atno 17395 bound_to 11000

$$$$
