AV-unprocessed.smi:3169|AV-procd|sdf|12106|dock1
  -GOLD-   2272017543D 1   1.00000     0.00000
 Structure written by MMmdl.
 35 36  0  0  0  0  0  0  0  0  1 V2000
  148.5874  132.9976  154.9393 O   0  0  0  0  0  0  0  0  0  0  0  0
  148.7000  133.8988  154.1083 C   0  0  0  0  0  0  0  0  0  0  0  0
  148.0649  133.9171  152.9290 N   0  0  0  0  0  0  0  0  0  0  0  0
  147.1042  132.9155  152.4769 C   0  0  0  0  0  0  0  0  0  0  0  0
  146.9680  132.8789  150.9420 C   0  0  0  0  0  0  0  0  0  0  0  0
  145.6204  132.5531  150.5144 N   0  0  0  0  0  0  0  0  0  0  0  0
  144.7754  133.3338  149.7373 C   0  0  0  0  0  0  0  0  0  0  0  0
  143.6056  132.6222  149.5932 C   0  0  0  0  0  0  0  0  0  0  0  0
  143.7080  131.4088  150.2695 N   0  0  0  0  0  0  0  0  0  0  0  0
  144.9286  131.4381  150.7884 C   0  0  0  0  0  0  0  0  0  0  0  0
  149.4503  134.9943  154.2847 N   0  0  0  0  0  0  0  0  0  0  0  0
  150.1903  135.3118  155.5001 C   0  0  0  0  0  0  0  0  0  0  0  0
  150.6905  136.7662  155.4883 C   0  0  1  0  0  0  0  0  0  0  0  0
  151.5808  137.1283  156.6751 C   0  0  0  0  0  0  0  0  0  0  0  0
  152.4415  138.2651  156.1428 C   0  0  0  0  0  0  0  0  0  0  0  0
  152.2207  138.2261  154.6276 C   0  0  0  0  0  0  0  0  0  0  0  0
  151.5514  136.9975  154.3846 O   0  0  0  0  0  0  0  0  0  0  0  0
  148.2239  134.7033  152.3159 H   0  0  0  0  0  0  0  0  0  0  0  0
  147.4281  131.9417  152.8448 H   0  0  0  0  0  0  0  0  0  0  0  0
  146.1326  133.1095  152.9337 H   0  0  0  0  0  0  0  0  0  0  0  0
  147.2325  133.8508  150.5238 H   0  0  0  0  0  0  0  0  0  0  0  0
  147.6597  132.1568  150.5059 H   0  0  0  0  0  0  0  0  0  0  0  0
  145.0679  134.3036  149.3628 H   0  0  0  0  0  0  0  0  0  0  0  0
  142.7053  132.8885  149.0595 H   0  0  0  0  0  0  0  0  0  0  0  0
  145.3272  130.6324  151.3878 H   0  0  0  0  0  0  0  0  0  0  0  0
  149.4752  135.6810  153.5450 H   0  0  0  0  0  0  0  0  0  0  0  0
  149.5597  135.1356  156.3730 H   0  0  0  0  0  0  0  0  0  0  0  0
  151.0327  134.6242  155.5799 H   0  0  0  0  0  0  0  0  0  0  0  0
  149.8519  137.4636  155.4362 H   0  0  0  0  0  0  0  0  0  0  0  0
  151.0057  137.4077  157.5584 H   0  0  0  0  0  0  0  0  0  0  0  0
  152.2181  136.2842  156.9423 H   0  0  0  0  0  0  0  0  0  0  0  0
  152.1353  139.2284  156.5524 H   0  0  0  0  0  0  0  0  0  0  0  0
  153.4898  138.1090  156.3999 H   0  0  0  0  0  0  0  0  0  0  0  0
  151.5793  139.0504  154.3124 H   0  0  0  0  0  0  0  0  0  0  0  0
  153.1528  138.2859  154.0654 H   0  0  0  0  0  0  0  0  0  0  0  0
  1  2  2  0  0  0  0
  2  3  1  0  0  0  0
  2 11  1  0  0  0  0
  3  4  1  0  0  0  0
  3 18  1  0  0  0  0
  4  5  1  0  0  0  0
  4 19  1  0  0  0  0
  4 20  1  0  0  0  0
  5  6  1  0  0  0  0
  5 21  1  0  0  0  0
  5 22  1  0  0  0  0
  6 10  1  0  0  0  0
  6  7  1  0  0  0  0
  7  8  2  0  0  0  0
  7 23  1  0  0  0  0
  8  9  1  0  0  0  0
  8 24  1  0  0  0  0
  9 10  2  0  0  0  0
 10 25  1  0  0  0  0
 11 12  1  0  0  0  0
 11 26  1  0  0  0  0
 12 13  1  0  0  0  0
 12 27  1  0  0  0  0
 12 28  1  0  0  0  0
 13 17  1  0  0  0  0
 13 14  1  0  0  0  0
 13 29  1  0  0  0  0
 14 15  1  0  0  0  0
 14 30  1  0  0  0  0
 14 31  1  0  0  0  0
 15 16  1  0  0  0  0
 15 32  1  0  0  0  0
 15 33  1  0  0  0  0
 16 17  1  0  0  0  0
 16 34  1  0  0  0  0
 16 35  1  0  0  0  0
M  END
> <s_m_source_file>
AV-unprocessed.smi

> <i_m_source_file_index>
3169

> <i_lp_mmshare_version>
43012

> <i_f3d_flags>
0

> <s_epik_input>
TzFbQ0gyXVtDSDJdW0NIMl1bQ0BIXTFbQ0gyXVtOSF1DKD1PKVtOSF1bQ0gyXVtDSDJdbjJbY0hdW2NIXW5bY0hdMg==

> <s_epik_cmdline>
J2VwaWtfcHl0aG9uJywgJy1waCcsICc3LjAnLCAnLXRuJywgJzgnLCAnLW1hJywgJzIwMCcsICctbWV0YWxfYmluZGluZycsICctaW1hZScsICc8aW5maWxlLm1hZT4nLCAnLW9tYWUnLCAnPG91dGZpbGUubWFlPic=

> <r_lp_tautomer_probability>
1

> <r_epik_Ionization_Penalty>
0.620462

> <r_epik_Ionization_Penalty_Charging>
0.620414

> <r_epik_Ionization_Penalty_Neutral>
4.72016e-05

> <r_epik_State_Penalty>
0.636391

> <r_epik_Charging_Adjusted_Penalty>
1.25681

> <i_epik_Tot_Q>
0

> <i_epik_Tot_abs_Q>
0

> <r_epik_Metal_State_Penalty>
0.306539

> <b_epik_Metal_Only>
0

> <s_lp_Force_Field>
OPLS_2005

> <r_lp_Energy>
15.8228

> <b_lp_Chiralities_Consistent>
1

> <s_lp_Variant>
AV-unprocessed.smi:3169-4

> <Gold.Version>
5.8.1

> <Gold.Id.Protein>
6NUR|6NUR_protein|mol2

> <Gold.PLP.Fitness>
44.6199

> <Gold.PLP.PLP>
-28.0965

> <Gold.PLP.part.hbond>
-4.0000

> <Gold.PLP.part.metal>
0.0000

> <Gold.PLP.part.buried>
1.2111

> <Gold.PLP.part.nonpolar>
-25.3314

> <Gold.PLP.part.repulsive>
0.5877

> <Gold.PLP.ligand.clash>
0.0000

> <Gold.PLP.ligand.torsion>
0.4564

> <Gold.PLP.Chemscore.Hbond>
3.7920

> <Gold.PLP.Chemscore.CHOScore>
2.0000

> <Gold.PLP.Chemscore.Metal>
0.0000

> <Gold.Chemscore.Hbonds>
donor molecule, donor type, donor heavy atom, donor atom, acceptor molecule, acceptor atom, score
      L1  H     3    18       P1  7948  1.00
      L1  H    11    26       P1  7948  0.99
      P1  H 10752 10765       L1    17  1.00
      P1  H 10785 10796       L1     9  0.78
      L1  C     7    23       P1  7921  1.00
      L1  C     8    24       P1 10186  1.00

> <Gold.PLP.Chemscore.Internal.Correction>
0.0603

> <Gold.Rescore>
     Score         DG    S(hbond)    S(metal)    S(lipo)     H(rot)  DE(clash)    DE(int)     intcor
     12.26     -12.82       1.87        0.00      58.61       2.25       0.09       0.47       ----

> <Gold.Chemscore.Fitness>
12.2586

> <Gold.Chemscore.DG>
-12.8202

> <Gold.Chemscore.ZeroCoef>
-5.4800

> <Gold.Chemscore.Hbond>
1.8672

> <Gold.Chemscore.Metal>
0.0000

> <Gold.Chemscore.Lipo>
58.6055

> <Gold.Chemscore.Internal_Hbond>
0.0000

> <Gold.Chemscore.DEClash>
0.0942

> <Gold.Chemscore.DEInternal>
0.4674

> <Gold.Chemscore.Rot>
2.2474

> <Gold.Chemscore.Internal.Correction>
   9.000000E+99

> <Gold.Chemscore.Hbonds>
donor molecule, donor type, donor heavy atom, donor atom, acceptor molecule, acceptor atom, score
      L1  H     3    18       P1  7948  0.25
      L1  H    11    26       P1  7948  0.24
      P1  H 10752 10765       L1    17  0.45
      P1  H 10785 10796       L1     9  0.18

> <Gold.Chemscore.Hbond.Weighted>
-6.2366

> <Gold.Chemscore.Metal.Weighted>
-0.0000

> <Gold.Chemscore.Lipo.Weighted>
-6.8568

> <Gold.Chemscore.Internal_Hbond.Weighted>
0.0000

> <Gold.Chemscore.DEClash.Weighted>
0.0942

> <Gold.Chemscore.DEInternal.Weighted>
0.4674

> <Gold.Chemscore.Rot.Weighted>
5.7532

> <Gold.Chemscore.Internal.Correction.Weighted>
   9.000000E+99

> <Gold.Protein.RotatedTorsions>
[ 6907 6896 6895 6894 ] final   -9.18 input  -60.11 | X-H torsion
[ 7974 7965 7964 7962 ] final  139.16 input  175.53 | X-H torsion
[ 8008 7997 7996 7995 ] final   80.20 input   59.86 | X-H torsion
[ 10167 10162 10161 10158 ] final  -86.41 input  -65.29 | X-H torsion
[ 10718 10713 10712 10709 ] final   16.93 input   66.30 | X-H torsion
[ 10763 10752 10751 10750 ] final  154.01 input  -60.55 | X-H torsion
[ 11005 11000 10999 10996 ] final   29.20 input  -57.11 | X-H torsion

> <Gold.Protein.ActiveResidues>
 VAL166  LYS551  ARG553  GLY616  TRP617  ASP618  TYR619  PRO620  LYS621  CYS622 
 ASP623  PHE694  ASN695  SER759  ASP760  ASP761  ALA762  ILE779  LEU786  VAL792 
 PHE793  MET794  SER795  GLU796  ALA797  LYS798  CYS799  TRP800  GLU811  SER814 

> <Gold.Protein.RotatedAtoms>
  151.4218  135.0999  159.9615 H   0  0  0  0  0  0  0  0  0  0  0  0  # atno 6907 bound_to 6896
  152.4986  133.8700  159.7304 H   0  0  0  0  0  0  0  0  0  0  0  0  # atno 6908 bound_to 6896
  150.9218  133.6814  159.2858 H   0  0  0  0  0  0  0  0  0  0  0  0  # atno 6909 bound_to 6896
  144.9304  139.5054  143.5620 H   0  0  0  0  0  0  0  0  0  0  0  0  # atno 7974 bound_to 7965
  155.8802  140.3444  155.5882 H   0  0  0  0  0  0  0  0  0  0  0  0  # atno 8008 bound_to 7997
  155.7728  140.0848  157.2118 H   0  0  0  0  0  0  0  0  0  0  0  0  # atno 8009 bound_to 7997
  154.4024  140.1515  156.2949 H   0  0  0  0  0  0  0  0  0  0  0  0  # atno 8010 bound_to 7997
  140.3944  143.2690  151.9223 H   0  0  0  0  0  0  0  0  0  0  0  0  # atno 10167 bound_to 10162
  157.0749  130.6363  149.5813 H   0  0  0  0  0  0  0  0  0  0  0  0  # atno 10718 bound_to 10713
  154.1454  135.2818  155.3150 H   0  0  0  0  0  0  0  0  0  0  0  0  # atno 10763 bound_to 10752
  154.6257  135.5452  153.7627 H   0  0  0  0  0  0  0  0  0  0  0  0  # atno 10764 bound_to 10752
  153.0237  135.6450  154.1599 H   0  0  0  0  0  0  0  0  0  0  0  0  # atno 10765 bound_to 10752
  140.3075  134.2687  155.7741 H   0  0  0  0  0  0  0  0  0  0  0  0  # atno 11005 bound_to 11000
  146.3244  139.8251  142.8919 LP  0  0  0  0  0  0  0  0  0  0  0  0  # atno 17320 bound_to 7965
  145.3150  141.0229  143.3532 LP  0  0  0  0  0  0  0  0  0  0  0  0  # atno 17321 bound_to 7965
  139.4787  144.5695  151.8110 LP  0  0  0  0  0  0  0  0  0  0  0  0  # atno 17342 bound_to 10162
  140.4806  144.1456  150.5932 LP  0  0  0  0  0  0  0  0  0  0  0  0  # atno 17343 bound_to 10162
  155.9940  130.5002  150.7402 LP  0  0  0  0  0  0  0  0  0  0  0  0  # atno 17370 bound_to 10713
  157.4848  131.0905  151.0495 LP  0  0  0  0  0  0  0  0  0  0  0  0  # atno 17371 bound_to 10713
  141.2115  133.7686  156.9858 LP  0  0  0  0  0  0  0  0  0  0  0  0  # atno 17394 bound_to 11000
  140.1054  134.9510  157.1986 LP  0  0  0  0  0  0  0  0  0  0  0  0  # atno 17395 bound_to 11000

$$$$
