AV-unprocessed.smi:1801|AV-procd|sdf|7270|dock1
  -GOLD-   22720 8523D 1   1.00000     0.00000
 Structure written by MMmdl.
 37 38  0  0  0  0  0  0  0  0  3 V2000
  149.1343  136.3588  155.4190 C   0  0  0  0  0  0  0  0  0  0  0  0
  148.8201  134.9073  155.0200 C   0  0  1  0  0  0  0  0  0  0  0  0
  149.1301  133.9523  156.1948 C   0  0  0  0  0  0  0  0  0  0  0  0
  148.2205  134.1302  157.3238 N   0  0  0  0  0  0  0  0  0  0  0  0
  148.5375  134.6456  158.5200 C   0  0  0  0  0  0  0  0  0  0  0  0
  149.6790  135.0622  158.7283 O   0  0  0  0  0  0  0  0  0  0  0  0
  147.5150  134.6326  159.4038 N   0  5  0  0  0  0  0  0  0  0  0  0
  147.6482  135.2421  160.5935 C   0  0  0  0  0  0  0  0  0  0  0  0
  148.4507  136.3038  160.7704 N   0  0  0  0  0  0  0  0  0  0  0  0
  148.4396  136.7858  162.0723 N   0  0  0  0  0  0  0  0  0  0  0  0
  147.6187  136.0760  162.8460 C   0  0  0  0  0  0  0  0  0  0  0  0
  146.7834  134.7559  162.0545 S   0  0  0  0  0  0  0  0  0  0  0  0
  147.3632  134.7645  154.5195 C   0  0  0  0  0  0  0  0  0  0  0  0
  147.2915  134.4679  153.0694 N   0  3  0  0  0  0  0  0  0  0  0  0
  147.5250  133.0479  152.7063 C   0  0  0  0  0  0  0  0  0  0  0  0
  146.4486  132.6663  151.6822 C   0  0  0  0  0  0  0  0  0  0  0  0
  145.8943  134.0015  151.1968 C   0  0  0  0  0  0  0  0  0  0  0  0
  146.0282  134.8883  152.4300 C   0  0  0  0  0  0  0  0  0  0  0  0
  148.4964  136.6925  156.2380 H   0  0  0  0  0  0  0  0  0  0  0  0
  148.9894  137.0435  154.5832 H   0  0  0  0  0  0  0  0  0  0  0  0
  150.1702  136.4593  155.7444 H   0  0  0  0  0  0  0  0  0  0  0  0
  149.4958  134.6467  154.2052 H   0  0  0  0  0  0  0  0  0  0  0  0
  149.0899  132.9134  155.8632 H   0  0  0  0  0  0  0  0  0  0  0  0
  150.1457  134.1211  156.5539 H   0  0  0  0  0  0  0  0  0  0  0  0
  147.2690  133.8180  157.1957 H   0  0  0  0  0  0  0  0  0  0  0  0
  147.5027  136.3324  163.8883 H   0  0  0  0  0  0  0  0  0  0  0  0
  146.8322  133.9741  155.0517 H   0  0  0  0  0  0  0  0  0  0  0  0
  146.8204  135.6880  154.7265 H   0  0  0  0  0  0  0  0  0  0  0  0
  148.5227  132.9604  152.2751 H   0  0  0  0  0  0  0  0  0  0  0  0
  147.4812  132.3846  153.5718 H   0  0  0  0  0  0  0  0  0  0  0  0
  146.8377  132.0507  150.8706 H   0  0  0  0  0  0  0  0  0  0  0  0
  145.6573  132.1017  152.1773 H   0  0  0  0  0  0  0  0  0  0  0  0
  146.5139  134.3912  150.3878 H   0  0  0  0  0  0  0  0  0  0  0  0
  144.8684  133.9296  150.8339 H   0  0  0  0  0  0  0  0  0  0  0  0
  145.1919  134.7015  153.1061 H   0  0  0  0  0  0  0  0  0  0  0  0
  146.0349  135.9509  152.1860 H   0  0  0  0  0  0  0  0  0  0  0  0
  148.0225  134.9999  152.6190 H   0  0  0  0  0  0  0  0  0  0  0  0
  1  2  1  0  0  0  0
  1 19  1  0  0  0  0
  1 20  1  0  0  0  0
  1 21  1  0  0  0  0
  2  3  1  0  0  0  0
  2 13  1  0  0  0  0
  2 22  1  0  0  0  0
  3  4  1  0  0  0  0
  3 23  1  0  0  0  0
  3 24  1  0  0  0  0
  4  5  1  0  0  0  0
  4 25  1  0  0  0  0
  5  6  2  0  0  0  0
  5  7  1  0  0  0  0
  7  8  1  0  0  0  0
  8 12  1  0  0  0  0
  8  9  2  0  0  0  0
  9 10  1  0  0  0  0
 10 11  2  0  0  0  0
 11 12  1  0  0  0  0
 11 26  1  0  0  0  0
 13 14  1  0  0  0  0
 13 27  1  0  0  0  0
 13 28  1  0  0  0  0
 14 18  1  0  0  0  0
 14 15  1  0  0  0  0
 14 37  1  0  0  0  0
 15 16  1  0  0  0  0
 15 29  1  0  0  0  0
 15 30  1  0  0  0  0
 16 17  1  0  0  0  0
 16 31  1  0  0  0  0
 16 32  1  0  0  0  0
 17 18  1  0  0  0  0
 17 33  1  0  0  0  0
 17 34  1  0  0  0  0
 18 35  1  0  0  0  0
 18 36  1  0  0  0  0
M  CHG  1   7  -1
M  CHG  1  14   1
M  END
> <s_m_source_file>
AV-unprocessed.smi

> <i_m_source_file_index>
1801

> <i_lp_mmshare_version>
43012

> <i_f3d_flags>
0

> <s_epik_input>
W0NIMl0xW0NIMl1bQ0gyXVtDSDJdTjFbQ0gyXVtDQEhdKFtDSDNdKVtDSDJdW05IXUMoPU8pW05IXWMybm5bY0hdczI=

> <s_epik_cmdline>
J2VwaWtfcHl0aG9uJywgJy1waCcsICc3LjAnLCAnLXRuJywgJzgnLCAnLW1hJywgJzIwMCcsICctbWV0YWxfYmluZGluZycsICctaW1hZScsICc8aW5maWxlLm1hZT4nLCAnLW9tYWUnLCAnPG91dGZpbGUubWFlPic=

> <r_lp_tautomer_probability>
1

> <r_epik_Ionization_Penalty>
3.29721

> <r_epik_Ionization_Penalty_Charging>
3.25987

> <r_epik_Ionization_Penalty_Neutral>
0.0373399

> <r_epik_State_Penalty>
3.2571

> <r_epik_Charging_Adjusted_Penalty>
6.51697

> <i_epik_Tot_Q>
0

> <i_epik_Tot_abs_Q>
2

> <r_epik_Metal_State_Penalty>
0.477553

> <b_epik_Metal_Only>
1

> <s_lp_Force_Field>
OPLS_2005

> <r_lp_Energy>
22.4804

> <b_lp_Chiralities_Consistent>
1

> <s_lp_Variant>
AV-unprocessed.smi:1801-4

> <Gold.Version>
5.8.1

> <Gold.Id.Protein>
6NUR|6NUR_protein|mol2

> <Gold.PLP.Fitness>
37.0766

> <Gold.PLP.PLP>
-27.0739

> <Gold.PLP.part.hbond>
-3.6106

> <Gold.PLP.part.metal>
0.0000

> <Gold.PLP.part.buried>
-3.2585

> <Gold.PLP.part.nonpolar>
-20.5358

> <Gold.PLP.part.repulsive>
0.0440

> <Gold.PLP.ligand.clash>
0.0000

> <Gold.PLP.ligand.torsion>
1.2055

> <Gold.PLP.Chemscore.Hbond>
4.0000

> <Gold.PLP.Chemscore.CHOScore>
0.0000

> <Gold.PLP.Chemscore.Metal>
0.0000

> <Gold.Chemscore.Hbonds>
donor molecule, donor type, donor heavy atom, donor atom, acceptor molecule, acceptor atom, score
      L1  H    14    37       P1  7948  2.00
      P1  H  6896  6908       L1     6  0.62
      P1  H  6931  6943       L1    10  1.00

> <Gold.PLP.Chemscore.Internal.Correction>
0.4138

> <Gold.Rescore>
     Score         DG    S(hbond)    S(metal)    S(lipo)     H(rot)  DE(clash)    DE(int)     intcor
     13.59     -16.32       2.90        0.00      52.14       1.93       0.00       2.73       ----

> <Gold.Chemscore.Fitness>
13.5935

> <Gold.Chemscore.DG>
-16.3248

> <Gold.Chemscore.ZeroCoef>
-5.4800

> <Gold.Chemscore.Hbond>
2.8972

> <Gold.Chemscore.Metal>
0.0000

> <Gold.Chemscore.Lipo>
52.1390

> <Gold.Chemscore.Internal_Hbond>
0.0000

> <Gold.Chemscore.DEClash>
0.0000

> <Gold.Chemscore.DEInternal>
2.7314

> <Gold.Chemscore.Rot>
1.9266

> <Gold.Chemscore.Internal.Correction>
   9.000000E+99

> <Gold.Chemscore.Hbonds>
donor molecule, donor type, donor heavy atom, donor atom, acceptor molecule, acceptor atom, score
      L1  H    14    37       P1  7948  0.91
      P1  H  6896  6908       L1     6  0.60
      P1  H  6931  6943       L1    10  0.44

> <Gold.Chemscore.Hbond.Weighted>
-9.6767

> <Gold.Chemscore.Metal.Weighted>
-0.0000

> <Gold.Chemscore.Lipo.Weighted>
-6.1003

> <Gold.Chemscore.Internal_Hbond.Weighted>
0.0000

> <Gold.Chemscore.DEClash.Weighted>
0.0000

> <Gold.Chemscore.DEInternal.Weighted>
2.7314

> <Gold.Chemscore.Rot.Weighted>
4.9321

> <Gold.Chemscore.Internal.Correction.Weighted>
   9.000000E+99

> <Gold.Protein.RotatedTorsions>
[ 6907 6896 6895 6894 ] final  158.40 input  -60.11 | X-H torsion
[ 7974 7965 7964 7962 ] final    5.30 input  175.53 | X-H torsion
[ 8008 7997 7996 7995 ] final  170.16 input   59.86 | X-H torsion
[ 10167 10162 10161 10158 ] final   56.77 input  -65.29 | X-H torsion
[ 10718 10713 10712 10709 ] final  -96.83 input   66.30 | X-H torsion
[ 10763 10752 10751 10750 ] final  116.93 input  -60.55 | X-H torsion
[ 11005 11000 10999 10996 ] final  -25.58 input  -57.11 | X-H torsion

> <Gold.Protein.ActiveResidues>
 VAL166  LYS551  ARG553  GLY616  TRP617  ASP618  TYR619  PRO620  LYS621  CYS622 
 ASP623  PHE694  ASN695  SER759  ASP760  ASP761  ALA762  ILE779  LEU786  VAL792 
 PHE793  MET794  SER795  GLU796  ALA797  LYS798  CYS799  TRP800  GLU811  SER814 

> <Gold.Protein.RotatedAtoms>
  152.0009  133.3825  159.4181 H   0  0  0  0  0  0  0  0  0  0  0  0  # atno 6907 bound_to 6896
  150.6910  134.3835  159.5054 H   0  0  0  0  0  0  0  0  0  0  0  0  # atno 6908 bound_to 6896
  152.1582  134.8933  160.0594 H   0  0  0  0  0  0  0  0  0  0  0  0  # atno 6909 bound_to 6896
  146.2441  140.0404  142.8382 H   0  0  0  0  0  0  0  0  0  0  0  0  # atno 7974 bound_to 7965
  156.1391  140.1545  156.8949 H   0  0  0  0  0  0  0  0  0  0  0  0  # atno 8008 bound_to 7997
  154.4972  140.0835  156.7760 H   0  0  0  0  0  0  0  0  0  0  0  0  # atno 8009 bound_to 7997
  155.4113  140.3419  155.4266 H   0  0  0  0  0  0  0  0  0  0  0  0  # atno 8010 bound_to 7997
  140.2052  144.3946  150.6512 H   0  0  0  0  0  0  0  0  0  0  0  0  # atno 10167 bound_to 10162
  156.0070  130.5168  150.6284 H   0  0  0  0  0  0  0  0  0  0  0  0  # atno 10718 bound_to 10713
  153.5446  135.3552  155.2733 H   0  0  0  0  0  0  0  0  0  0  0  0  # atno 10763 bound_to 10752
  154.8713  135.4099  154.3005 H   0  0  0  0  0  0  0  0  0  0  0  0  # atno 10764 bound_to 10752
  153.3719  135.7064  153.6700 H   0  0  0  0  0  0  0  0  0  0  0  0  # atno 10765 bound_to 10752
  140.8951  133.7562  156.0471 H   0  0  0  0  0  0  0  0  0  0  0  0  # atno 11005 bound_to 11000
  145.1074  140.9384  143.4676 LP  0  0  0  0  0  0  0  0  0  0  0  0  # atno 17320 bound_to 7965
  145.0610  139.3105  143.5880 LP  0  0  0  0  0  0  0  0  0  0  0  0  # atno 17321 bound_to 7965
  140.6362  143.2195  151.6389 LP  0  0  0  0  0  0  0  0  0  0  0  0  # atno 17342 bound_to 10162
  139.5201  144.3232  152.0892 LP  0  0  0  0  0  0  0  0  0  0  0  0  # atno 17343 bound_to 10162
  157.4087  131.0820  151.1241 LP  0  0  0  0  0  0  0  0  0  0  0  0  # atno 17370 bound_to 10713
  157.1880  130.6339  149.5694 LP  0  0  0  0  0  0  0  0  0  0  0  0  # atno 17371 bound_to 10713
  140.8299  134.3191  157.5352 LP  0  0  0  0  0  0  0  0  0  0  0  0  # atno 17394 bound_to 11000
  139.8734  134.9357  156.3641 LP  0  0  0  0  0  0  0  0  0  0  0  0  # atno 17395 bound_to 11000

$$$$
