AV-unprocessed.smi:3287|AV-procd|sdf|12604|dock8
  -GOLD-   2272018533D 1   1.00000     0.00000
 Structure written by MMmdl.
 43 44  0  0  0  0  0  0  0  0  2 V2000
  152.2452  144.0903  161.1808 C   0  0  0  0  0  0  0  0  0  0  0  0
  152.9548  143.7993  159.8431 C   0  0  2  0  0  0  0  0  0  0  0  0
  152.4583  144.7361  158.7227 C   0  0  0  0  0  0  0  0  0  0  0  0
  151.0451  144.3739  158.2337 C   0  0  0  0  0  0  0  0  0  0  0  0
  150.9691  142.9034  157.7739 C   0  0  2  0  0  0  0  0  0  0  0  0
  149.6021  142.5259  157.3505 N   0  3  0  0  0  0  0  0  0  0  0  0
  149.4573  141.1510  156.8247 C   0  0  0  0  0  0  0  0  0  0  0  0
  149.7973  141.0814  155.3260 C   0  0  1  0  0  0  0  0  0  0  0  0
  151.0701  140.4839  155.1722 O   0  0  0  0  0  0  0  0  0  0  0  0
  148.7218  140.3279  154.5592 C   0  0  0  0  0  0  0  0  0  0  0  0
  147.7454  141.0135  153.8039 C   0  0  0  0  0  0  0  0  0  0  0  0
  146.7834  140.2592  153.1029 C   0  0  0  0  0  0  0  0  0  0  0  0
  146.7483  138.9096  153.1138 N   0  0  0  0  0  0  0  0  0  0  0  0
  147.6848  138.2588  153.8365 C   0  0  0  0  0  0  0  0  0  0  0  0
  148.6898  138.9177  154.5728 C   0  0  0  0  0  0  0  0  0  0  0  0
  151.4440  141.9633  158.8976 C   0  0  0  0  0  0  0  0  0  0  0  0
  152.8635  142.3220  159.3816 C   0  0  2  0  0  0  0  0  0  0  0  0
  153.3777  141.3223  160.4306 C   0  0  0  0  0  0  0  0  0  0  0  0
  151.1846  143.8434  161.1477 H   0  0  0  0  0  0  0  0  0  0  0  0
  152.3275  145.1460  161.4408 H   0  0  0  0  0  0  0  0  0  0  0  0
  152.6915  143.5283  162.0010 H   0  0  0  0  0  0  0  0  0  0  0  0
  154.0101  144.0266  160.0017 H   0  0  0  0  0  0  0  0  0  0  0  0
  152.4811  145.7732  159.0600 H   0  0  0  0  0  0  0  0  0  0  0  0
  153.1482  144.6809  157.8793 H   0  0  0  0  0  0  0  0  0  0  0  0
  150.3197  144.5548  159.0276 H   0  0  0  0  0  0  0  0  0  0  0  0
  150.7780  145.0452  157.4179 H   0  0  0  0  0  0  0  0  0  0  0  0
  151.6347  142.7662  156.9202 H   0  0  0  0  0  0  0  0  0  0  0  0
  149.0016  142.6023  158.1589 H   0  0  0  0  0  0  0  0  0  0  0  0
  150.0949  140.4660  157.3842 H   0  0  0  0  0  0  0  0  0  0  0  0
  148.4268  140.8265  156.9763 H   0  0  0  0  0  0  0  0  0  0  0  0
  149.8624  142.0937  154.9241 H   0  0  0  0  0  0  0  0  0  0  0  0
  151.5095  140.4957  156.0095 H   0  0  0  0  0  0  0  0  0  0  0  0
  147.7310  142.0927  153.7570 H   0  0  0  0  0  0  0  0  0  0  0  0
  146.0242  140.7538  152.5153 H   0  0  0  0  0  0  0  0  0  0  0  0
  147.6341  137.1800  153.8261 H   0  0  0  0  0  0  0  0  0  0  0  0
  149.4176  138.3477  155.1319 H   0  0  0  0  0  0  0  0  0  0  0  0
  150.7453  141.9980  159.7345 H   0  0  0  0  0  0  0  0  0  0  0  0
  151.4335  140.9339  158.5369 H   0  0  0  0  0  0  0  0  0  0  0  0
  153.5255  142.2223  158.5196 H   0  0  0  0  0  0  0  0  0  0  0  0
  152.7283  141.2824  161.3052 H   0  0  0  0  0  0  0  0  0  0  0  0
  154.3805  141.5860  160.7677 H   0  0  0  0  0  0  0  0  0  0  0  0
  153.4260  140.3149  160.0164 H   0  0  0  0  0  0  0  0  0  0  0  0
  149.2792  143.1797  156.6514 H   0  0  0  0  0  0  0  0  0  0  0  0
  1  2  1  0  0  0  0
  1 19  1  0  0  0  0
  1 20  1  0  0  0  0
  1 21  1  0  0  0  0
  2 17  1  0  0  0  0
  2  3  1  0  0  0  0
  2 22  1  0  0  0  0
  3  4  1  0  0  0  0
  3 23  1  0  0  0  0
  3 24  1  0  0  0  0
  4  5  1  0  0  0  0
  4 25  1  0  0  0  0
  4 26  1  0  0  0  0
  5  6  1  0  0  0  0
  5 16  1  0  0  0  0
  5 27  1  0  0  0  0
  6  7  1  0  0  0  0
  6 28  1  0  0  0  0
  6 43  1  0  0  0  0
  7  8  1  0  0  0  0
  7 29  1  0  0  0  0
  7 30  1  0  0  0  0
  8  9  1  0  0  0  0
  8 10  1  0  0  0  0
  8 31  1  0  0  0  0
  9 32  1  0  0  0  0
 10 15  1  0  0  0  0
 10 11  2  0  0  0  0
 11 12  1  0  0  0  0
 11 33  1  0  0  0  0
 12 13  2  0  0  0  0
 12 34  1  0  0  0  0
 13 14  1  0  0  0  0
 14 15  2  0  0  0  0
 14 35  1  0  0  0  0
 15 36  1  0  0  0  0
 16 17  1  0  0  0  0
 16 37  1  0  0  0  0
 16 38  1  0  0  0  0
 17 18  1  0  0  0  0
 17 39  1  0  0  0  0
 18 40  1  0  0  0  0
 18 41  1  0  0  0  0
 18 42  1  0  0  0  0
M  CHG  1   6   1
M  END
> <s_m_source_file>
AV-unprocessed.smi

> <i_m_source_file_index>
3287

> <i_lp_mmshare_version>
43012

> <i_f3d_flags>
0

> <s_epik_input>
W0NIM11bQ0BASF0xW0NIMl1bQ0gyXVtDQEhdKFtDSDJdW0NASF0xW0NIM10pW05IXVtDSDJdW0NASF0oW09IXSljMltjSF1bY0hdbltjSF1bY0hdMg==

> <s_epik_cmdline>
J2VwaWtfcHl0aG9uJywgJy1waCcsICc3LjAnLCAnLXRuJywgJzgnLCAnLW1hJywgJzIwMCcsICctbWV0YWxfYmluZGluZycsICctaW1hZScsICc8aW5maWxlLm1hZT4nLCAnLW9tYWUnLCAnPG91dGZpbGUubWFlPic=

> <r_lp_tautomer_probability>
1

> <r_epik_Ionization_Penalty>
0.00537262

> <r_epik_Ionization_Penalty_Charging>
0.00321624

> <r_epik_Ionization_Penalty_Neutral>
0.00215638

> <r_epik_State_Penalty>
-0

> <r_epik_Charging_Adjusted_Penalty>
0.00321624

> <i_epik_Tot_Q>
1

> <i_epik_Tot_abs_Q>
1

> <r_epik_Metal_State_Penalty>
-0

> <b_epik_Metal_Only>
0

> <s_lp_Force_Field>
OPLS_2005

> <r_lp_Energy>
17.5476

> <b_lp_Chiralities_Consistent>
1

> <s_lp_Variant>
AV-unprocessed.smi:3287-15

> <Gold.Version>
5.8.1

> <Gold.Id.Protein>
6NUR|6NUR_protein|mol2

> <Gold.PLP.Fitness>
52.2590

> <Gold.PLP.PLP>
-41.3379

> <Gold.PLP.part.hbond>
-2.0000

> <Gold.PLP.part.metal>
0.0000

> <Gold.PLP.part.buried>
-2.8626

> <Gold.PLP.part.nonpolar>
-38.2180

> <Gold.PLP.part.repulsive>
0.2914

> <Gold.PLP.ligand.clash>
0.0000

> <Gold.PLP.ligand.torsion>
1.2894

> <Gold.PLP.Chemscore.Hbond>
2.9120

> <Gold.PLP.Chemscore.CHOScore>
1.5821

> <Gold.PLP.Chemscore.Metal>
0.0000

> <Gold.Chemscore.Hbonds>
donor molecule, donor type, donor heavy atom, donor atom, acceptor molecule, acceptor atom, score
      L1  H     6    43       P1  8028  2.00
      P1  H  7989  7998       L1     9  0.99
      L1  C    12    34       P1 10175  1.00
      L1  C    14    35       P1  7948  0.58

> <Gold.PLP.Chemscore.Internal.Correction>
0.0176

> <Gold.Rescore>
     Score         DG    S(hbond)    S(metal)    S(lipo)     H(rot)  DE(clash)    DE(int)     intcor
     20.86     -21.69       1.83        0.00     127.91       1.90       0.02       0.80       ----

> <Gold.Chemscore.Fitness>
20.8630

> <Gold.Chemscore.DG>
-21.6868

> <Gold.Chemscore.ZeroCoef>
-5.4800

> <Gold.Chemscore.Hbond>
1.8307

> <Gold.Chemscore.Metal>
0.0000

> <Gold.Chemscore.Lipo>
127.9086

> <Gold.Chemscore.Internal_Hbond>
0.0000

> <Gold.Chemscore.DEClash>
0.0199

> <Gold.Chemscore.DEInternal>
0.8039

> <Gold.Chemscore.Rot>
1.9035

> <Gold.Chemscore.Internal.Correction>
   9.000000E+99

> <Gold.Chemscore.Hbonds>
donor molecule, donor type, donor heavy atom, donor atom, acceptor molecule, acceptor atom, score
      L1  H     6    43       P1  8028  0.99
      P1  H  7989  7998       L1     9  0.56

> <Gold.Chemscore.Hbond.Weighted>
-6.1144

> <Gold.Chemscore.Metal.Weighted>
-0.0000

> <Gold.Chemscore.Lipo.Weighted>
-14.9653

> <Gold.Chemscore.Internal_Hbond.Weighted>
0.0000

> <Gold.Chemscore.DEClash.Weighted>
0.0199

> <Gold.Chemscore.DEInternal.Weighted>
0.8039

> <Gold.Chemscore.Rot.Weighted>
4.8729

> <Gold.Chemscore.Internal.Correction.Weighted>
   9.000000E+99

> <Gold.Protein.RotatedTorsions>
[ 6907 6896 6895 6894 ] final  -28.99 input  -60.11 | X-H torsion
[ 7974 7965 7964 7962 ] final   15.36 input  175.53 | X-H torsion
[ 8008 7997 7996 7995 ] final  -43.85 input   59.86 | X-H torsion
[ 10167 10162 10161 10158 ] final  157.37 input  -65.29 | X-H torsion
[ 10718 10713 10712 10709 ] final  -46.41 input   66.30 | X-H torsion
[ 10763 10752 10751 10750 ] final  -90.61 input  -60.55 | X-H torsion
[ 11005 11000 10999 10996 ] final  176.89 input  -57.11 | X-H torsion

> <Gold.Protein.ActiveResidues>
 VAL166  LYS551  ARG553  GLY616  TRP617  ASP618  TYR619  PRO620  LYS621  CYS622 
 ASP623  PHE694  ASN695  SER759  ASP760  ASP761  ALA762  ILE779  LEU786  VAL792 
 PHE793  MET794  SER795  GLU796  ALA797  LYS798  CYS799  TRP800  GLU811  SER814 

> <Gold.Protein.RotatedAtoms>
  151.1254  135.0102  159.8557 H   0  0  0  0  0  0  0  0  0  0  0  0  # atno 6907 bound_to 6896
  152.5449  134.1673  159.8592 H   0  0  0  0  0  0  0  0  0  0  0  0  # atno 6908 bound_to 6896
  151.1735  133.4724  159.2627 H   0  0  0  0  0  0  0  0  0  0  0  0  # atno 6909 bound_to 6896
  146.2280  139.8905  142.8555 H   0  0  0  0  0  0  0  0  0  0  0  0  # atno 7974 bound_to 7965
  154.3997  140.1437  156.3586 H   0  0  0  0  0  0  0  0  0  0  0  0  # atno 8008 bound_to 7997
  155.8202  140.3469  155.5489 H   0  0  0  0  0  0  0  0  0  0  0  0  # atno 8009 bound_to 7997
  155.8296  140.0910  157.1791 H   0  0  0  0  0  0  0  0  0  0  0  0  # atno 8010 bound_to 7997
  139.4823  144.4923  151.8290 H   0  0  0  0  0  0  0  0  0  0  0  0  # atno 10167 bound_to 10162
  156.2186  130.4165  149.9022 H   0  0  0  0  0  0  0  0  0  0  0  0  # atno 10718 bound_to 10713
  154.6675  135.5298  153.8096 H   0  0  0  0  0  0  0  0  0  0  0  0  # atno 10763 bound_to 10752
  153.0480  135.6521  154.0776 H   0  0  0  0  0  0  0  0  0  0  0  0  # atno 10764 bound_to 10752
  154.0678  135.2956  155.3293 H   0  0  0  0  0  0  0  0  0  0  0  0  # atno 10765 bound_to 10752
  140.3781  134.6971  157.4434 H   0  0  0  0  0  0  0  0  0  0  0  0  # atno 11005 bound_to 11000
  145.2422  141.0013  143.3929 LP  0  0  0  0  0  0  0  0  0  0  0  0  # atno 17320 bound_to 7965
  144.9442  139.4154  143.6434 LP  0  0  0  0  0  0  0  0  0  0  0  0  # atno 17321 bound_to 7965
  140.4408  144.1988  150.5891 LP  0  0  0  0  0  0  0  0  0  0  0  0  # atno 17342 bound_to 10162
  140.4684  143.2422  151.9123 LP  0  0  0  0  0  0  0  0  0  0  0  0  # atno 17343 bound_to 10162
  156.6676  130.8807  151.3557 LP  0  0  0  0  0  0  0  0  0  0  0  0  # atno 17370 bound_to 10713
  157.7076  130.9402  150.0981 LP  0  0  0  0  0  0  0  0  0  0  0  0  # atno 17371 bound_to 10713
  140.0500  134.6144  155.8874 LP  0  0  0  0  0  0  0  0  0  0  0  0  # atno 17394 bound_to 11000
  141.1933  133.6578  156.5540 LP  0  0  0  0  0  0  0  0  0  0  0  0  # atno 17395 bound_to 11000

$$$$
