AV-unprocessed.smi:1467|AV-procd|sdf|5955|dock1
  -GOLD-   22720 6 43D 1   1.00000     0.00000
 Structure written by MMmdl.
 40 41  0  0  0  0  0  0  0  0  1 V2000
  151.9407  141.2585  157.9744 C   0  0  0  0  0  0  0  0  0  0  0  0
  151.9083  140.2859  156.7936 C   0  0  0  0  0  0  0  0  0  0  0  0
  152.6287  139.2889  156.8452 O   0  0  0  0  0  0  0  0  0  0  0  0
  151.0989  140.5503  155.7407 N   0  0  0  0  0  0  0  0  0  0  0  0
  150.1719  141.6808  155.6294 C   0  0  0  0  0  0  0  0  0  0  0  0
  148.7294  141.1415  155.5712 C   0  0  0  0  0  0  0  0  0  0  0  0
  148.5687  140.2384  154.4243 N   0  0  0  0  0  0  0  0  0  0  0  0
  147.2123  139.6962  154.3630 C   0  0  0  0  0  0  0  0  0  0  0  0
  146.8748  139.1214  152.9732 C   0  0  0  0  0  0  0  0  0  0  0  0
  145.4878  138.6773  152.9088 N   0  0  0  0  0  0  0  0  0  0  0  0
  145.0356  137.5061  153.3789 C   0  0  0  0  0  0  0  0  0  0  0  0
  145.7548  136.6691  153.9246 O   0  0  0  0  0  0  0  0  0  0  0  0
  143.7149  137.3742  153.1739 N   0  0  0  0  0  0  0  0  0  0  0  0
  142.8981  136.2717  153.5294 C   0  0  0  0  0  0  0  0  0  0  0  0
  141.5131  136.2465  153.8674 C   0  0  0  0  0  0  0  0  0  0  0  0
  141.1089  135.0141  154.1416 N   0  0  0  0  0  0  0  0  0  0  0  0
  142.2172  134.2560  153.9834 N   0  0  0  0  0  0  0  0  0  0  0  0
  143.3276  134.9808  153.6107 C   0  0  0  0  0  0  0  0  0  0  0  0
  149.5194  139.1270  154.5321 C   0  0  0  0  0  0  0  0  0  0  0  0
  150.9644  139.6594  154.5852 C   0  0  0  0  0  0  0  0  0  0  0  0
  142.1992  133.2568  154.1312 H   0  0  0  0  0  0  0  0  0  0  0  0
  150.9567  141.3376  158.4370 H   0  0  0  0  0  0  0  0  0  0  0  0
  152.2621  142.2488  157.6508 H   0  0  0  0  0  0  0  0  0  0  0  0
  152.6400  140.9144  158.7370 H   0  0  0  0  0  0  0  0  0  0  0  0
  150.2556  142.3950  156.4468 H   0  0  0  0  0  0  0  0  0  0  0  0
  150.3999  142.2438  154.7230 H   0  0  0  0  0  0  0  0  0  0  0  0
  148.4858  140.6194  156.4980 H   0  0  0  0  0  0  0  0  0  0  0  0
  148.0449  141.9847  155.4895 H   0  0  0  0  0  0  0  0  0  0  0  0
  147.1247  138.8871  155.0899 H   0  0  0  0  0  0  0  0  0  0  0  0
  146.4899  140.4592  154.6578 H   0  0  0  0  0  0  0  0  0  0  0  0
  147.0515  139.8478  152.1797 H   0  0  0  0  0  0  0  0  0  0  0  0
  147.5140  138.2642  152.7596 H   0  0  0  0  0  0  0  0  0  0  0  0
  144.8274  139.3061  152.4756 H   0  0  0  0  0  0  0  0  0  0  0  0
  143.2457  138.1410  152.7148 H   0  0  0  0  0  0  0  0  0  0  0  0
  140.7978  137.0535  153.9239 H   0  0  0  0  0  0  0  0  0  0  0  0
  144.2935  134.5277  153.4422 H   0  0  0  0  0  0  0  0  0  0  0  0
  149.3044  138.5335  155.4224 H   0  0  0  0  0  0  0  0  0  0  0  0
  149.4092  138.4664  153.6714 H   0  0  0  0  0  0  0  0  0  0  0  0
  151.2007  140.2091  153.6728 H   0  0  0  0  0  0  0  0  0  0  0  0
  151.6597  138.8198  154.6174 H   0  0  0  0  0  0  0  0  0  0  0  0
  1  2  1  0  0  0  0
  1 22  1  0  0  0  0
  1 23  1  0  0  0  0
  1 24  1  0  0  0  0
  2  3  2  0  0  0  0
  2  4  1  0  0  0  0
  4 20  1  0  0  0  0
  4  5  1  0  0  0  0
  5  6  1  0  0  0  0
  5 25  1  0  0  0  0
  5 26  1  0  0  0  0
  6  7  1  0  0  0  0
  6 27  1  0  0  0  0
  6 28  1  0  0  0  0
  7  8  1  0  0  0  0
  7 19  1  0  0  0  0
  8  9  1  0  0  0  0
  8 29  1  0  0  0  0
  8 30  1  0  0  0  0
  9 10  1  0  0  0  0
  9 31  1  0  0  0  0
  9 32  1  0  0  0  0
 10 11  1  0  0  0  0
 10 33  1  0  0  0  0
 11 12  2  0  0  0  0
 11 13  1  0  0  0  0
 13 14  1  0  0  0  0
 13 34  1  0  0  0  0
 14 18  2  0  0  0  0
 14 15  1  0  0  0  0
 15 16  2  0  0  0  0
 15 35  1  0  0  0  0
 16 17  1  0  0  0  0
 17 21  1  0  0  0  0
 17 18  1  0  0  0  0
 18 36  1  0  0  0  0
 19 20  1  0  0  0  0
 19 37  1  0  0  0  0
 19 38  1  0  0  0  0
 20 39  1  0  0  0  0
 20 40  1  0  0  0  0
M  END
> <s_m_source_file>
AV-unprocessed.smi

> <i_m_source_file_index>
1467

> <i_lp_mmshare_version>
43012

> <i_f3d_flags>
0

> <s_epik_input>
W0NIM11DKD1PKU4xW0NIMl1bQ0gyXU4oW0NIMl1bQ0gyXTEpW0NIMl1bQ0gyXVtOSF1DKD1PKVtOSF1jMltjSF1uW25IXVtjSF0y

> <s_epik_cmdline>
J2VwaWtfcHl0aG9uJywgJy1waCcsICc3LjAnLCAnLXRuJywgJzgnLCAnLW1hJywgJzIwMCcsICctbWV0YWxfYmluZGluZycsICctaW1hZScsICc8aW5maWxlLm1hZT4nLCAnLW9tYWUnLCAnPG91dGZpbGUubWFlPic=

> <r_lp_tautomer_probability>
0.5

> <r_epik_Ionization_Penalty>
0.251012

> <r_epik_Ionization_Penalty_Charging>
0

> <r_epik_Ionization_Penalty_Neutral>
0.251012

> <r_epik_State_Penalty>
0.242297

> <r_epik_Charging_Adjusted_Penalty>
0.242297

> <i_epik_Tot_Q>
0

> <i_epik_Tot_abs_Q>
0

> <r_epik_Metal_State_Penalty>
0.242296

> <b_epik_Metal_Only>
0

> <s_lp_Force_Field>
OPLS_2005

> <r_lp_Energy>
35.2163

> <b_lp_Chiralities_Consistent>
1

> <s_lp_Variant>
AV-unprocessed.smi:1467-1

> <Gold.Version>
5.8.1

> <Gold.Id.Protein>
6NUR|6NUR_protein|mol2

> <Gold.PLP.Fitness>
43.6652

> <Gold.PLP.PLP>
-31.3759

> <Gold.PLP.part.hbond>
-5.0859

> <Gold.PLP.part.metal>
0.0000

> <Gold.PLP.part.buried>
-3.1325

> <Gold.PLP.part.nonpolar>
-23.0405

> <Gold.PLP.part.repulsive>
0.4190

> <Gold.PLP.ligand.clash>
0.0000

> <Gold.PLP.ligand.torsion>
0.4812

> <Gold.PLP.Chemscore.Hbond>
4.3978

> <Gold.PLP.Chemscore.CHOScore>
0.0000

> <Gold.PLP.Chemscore.Metal>
0.0000

> <Gold.Chemscore.Hbonds>
donor molecule, donor type, donor heavy atom, donor atom, acceptor molecule, acceptor atom, score
      L1  H    10    33       P1 10175  1.00
      L1  H    13    34       P1 10175  0.16
      L1  H    17    21       P1 10957  1.00
      P1  H  7997  8010       L1     3  1.00
      P1  H 11000 11005       L1    16  0.96

> <Gold.PLP.Chemscore.Internal.Correction>
0.0583

> <Gold.Rescore>
     Score         DG    S(hbond)    S(metal)    S(lipo)     H(rot)  DE(clash)    DE(int)     intcor
     17.58     -21.20       3.99        0.00      57.92       1.72       2.01       1.61       ----

> <Gold.Chemscore.Fitness>
17.5819

> <Gold.Chemscore.DG>
-21.2041

> <Gold.Chemscore.ZeroCoef>
-5.4800

> <Gold.Chemscore.Hbond>
3.9947

> <Gold.Chemscore.Metal>
0.0000

> <Gold.Chemscore.Lipo>
57.9193

> <Gold.Chemscore.Internal_Hbond>
0.0000

> <Gold.Chemscore.DEClash>
2.0092

> <Gold.Chemscore.DEInternal>
1.6130

> <Gold.Chemscore.Rot>
1.7167

> <Gold.Chemscore.Internal.Correction>
   9.000000E+99

> <Gold.Chemscore.Hbonds>
donor molecule, donor type, donor heavy atom, donor atom, acceptor molecule, acceptor atom, score
      L1  H    10    33       P1 10175  0.98
      L1  H    13    34       P1 10175  0.18
      L1  H    17    21       P1 10957  0.99
      P1  H  7997  8010       L1     3  0.39
      P1  H 11000 11005       L1    16  0.51

> <Gold.Chemscore.Hbond.Weighted>
-13.3422

> <Gold.Chemscore.Metal.Weighted>
-0.0000

> <Gold.Chemscore.Lipo.Weighted>
-6.7766

> <Gold.Chemscore.Internal_Hbond.Weighted>
0.0000

> <Gold.Chemscore.DEClash.Weighted>
2.0092

> <Gold.Chemscore.DEInternal.Weighted>
1.6130

> <Gold.Chemscore.Rot.Weighted>
4.3947

> <Gold.Chemscore.Internal.Correction.Weighted>
   9.000000E+99

> <Gold.Protein.RotatedTorsions>
[ 6907 6896 6895 6894 ] final -112.65 input  -60.11 | X-H torsion
[ 7974 7965 7964 7962 ] final  -12.58 input  175.53 | X-H torsion
[ 8008 7997 7996 7995 ] final   50.08 input   59.86 | X-H torsion
[ 10167 10162 10161 10158 ] final    1.34 input  -65.29 | X-H torsion
[ 10718 10713 10712 10709 ] final -128.09 input   66.30 | X-H torsion
[ 10763 10752 10751 10750 ] final -101.42 input  -60.55 | X-H torsion
[ 11005 11000 10999 10996 ] final   36.91 input  -57.11 | X-H torsion

> <Gold.Protein.ActiveResidues>
 VAL166  LYS551  ARG553  GLY616  TRP617  ASP618  TYR619  PRO620  LYS621  CYS622 
 ASP623  PHE694  ASN695  SER759  ASP760  ASP761  ALA762  ILE779  LEU786  VAL792 
 PHE793  MET794  SER795  GLU796  ALA797  LYS798  CYS799  TRP800  GLU811  SER814 

> <Gold.Protein.RotatedAtoms>
  150.7773  133.9059  159.3354 H   0  0  0  0  0  0  0  0  0  0  0  0  # atno 6907 bound_to 6896
  151.6931  135.0941  160.0246 H   0  0  0  0  0  0  0  0  0  0  0  0  # atno 6908 bound_to 6896
  152.3813  133.6512  159.6199 H   0  0  0  0  0  0  0  0  0  0  0  0  # atno 6909 bound_to 6896
  146.2146  140.3078  142.8380 H   0  0  0  0  0  0  0  0  0  0  0  0  # atno 7974 bound_to 7965
  155.4128  140.3443  155.4265 H   0  0  0  0  0  0  0  0  0  0  0  0  # atno 8008 bound_to 7997
  156.1439  140.1550  156.8910 H   0  0  0  0  0  0  0  0  0  0  0  0  # atno 8009 bound_to 7997
  154.4994  140.0819  156.7746 H   0  0  0  0  0  0  0  0  0  0  0  0  # atno 8010 bound_to 7997
  140.6687  143.7108  150.7879 H   0  0  0  0  0  0  0  0  0  0  0  0  # atno 10167 bound_to 10162
  156.1918  130.6800  151.0434 H   0  0  0  0  0  0  0  0  0  0  0  0  # atno 10718 bound_to 10713
  154.7656  135.4898  153.9548 H   0  0  0  0  0  0  0  0  0  0  0  0  # atno 10763 bound_to 10752
  153.1304  135.6751  153.9196 H   0  0  0  0  0  0  0  0  0  0  0  0  # atno 10764 bound_to 10752
  153.8901  135.3122  155.3426 H   0  0  0  0  0  0  0  0  0  0  0  0  # atno 10765 bound_to 10752
  140.2278  134.3563  155.7977 H   0  0  0  0  0  0  0  0  0  0  0  0  # atno 11005 bound_to 11000
  144.9010  140.7642  143.5867 LP  0  0  0  0  0  0  0  0  0  0  0  0  # atno 17320 bound_to 7965
  145.3005  139.1852  143.4692 LP  0  0  0  0  0  0  0  0  0  0  0  0  # atno 17321 bound_to 7965
  140.0790  143.4987  152.2540 LP  0  0  0  0  0  0  0  0  0  0  0  0  # atno 17342 bound_to 10162
  139.5946  144.7562  151.3317 LP  0  0  0  0  0  0  0  0  0  0  0  0  # atno 17343 bound_to 10162
  157.6934  131.0802  150.7042 LP  0  0  0  0  0  0  0  0  0  0  0  0  # atno 17370 bound_to 10713
  156.7098  130.4648  149.5550 LP  0  0  0  0  0  0  0  0  0  0  0  0  # atno 17371 bound_to 10713
  141.2219  133.7229  156.8682 LP  0  0  0  0  0  0  0  0  0  0  0  0  # atno 17394 bound_to 11000
  140.1782  134.9052  157.2916 LP  0  0  0  0  0  0  0  0  0  0  0  0  # atno 17395 bound_to 11000

$$$$
