AV-unprocessed.smi:2920|AV-procd|sdf|11196|dock3
  -GOLD-   2272016 83D 1   1.00000     0.00000
 Structure written by MMmdl.
 30 32  0  0  0  0  0  0  0  0  1 V2000
  146.9510  141.6960  158.8065 O   0  0  0  0  0  0  0  0  0  0  0  0
  147.4940  142.6812  158.3072 C   0  0  0  0  0  0  0  0  0  0  0  0
  148.3479  142.6542  157.2697 N   0  0  0  0  0  0  0  0  0  0  0  0
  148.8498  141.5257  156.5671 C   0  0  0  0  0  0  0  0  0  0  0  0
  149.6577  141.7338  155.4293 C   0  0  0  0  0  0  0  0  0  0  0  0
  150.1821  140.7082  154.7249 N   0  0  0  0  0  0  0  0  0  0  0  0
  149.8983  139.4753  155.1540 C   0  0  0  0  0  0  0  0  0  0  0  0
  150.5122  138.3399  154.3952 C   0  0  0  0  0  0  0  0  0  0  0  0
  151.0693  137.1320  155.1204 C   0  0  0  0  0  0  0  0  0  0  0  0
  152.0065  138.0935  154.4444 C   0  0  0  0  0  0  0  0  0  0  0  0
  149.1696  139.1541  156.2262 N   0  0  0  0  0  0  0  0  0  0  0  0
  148.6394  140.1737  156.9359 C   0  0  0  0  0  0  0  0  0  0  0  0
  147.2869  143.9359  158.7294 N   0  0  0  0  0  0  0  0  0  0  0  0
  146.4312  144.3167  159.8067 C   0  0  0  0  0  0  0  0  0  0  0  0
  147.0201  145.1812  160.9003 C   0  0  0  0  0  0  0  0  0  0  0  0
  146.7197  143.7332  161.1731 C   0  0  0  0  0  0  0  0  0  0  0  0
  148.6518  143.5513  156.9204 H   0  0  0  0  0  0  0  0  0  0  0  0
  149.8864  142.7302  155.0798 H   0  0  0  0  0  0  0  0  0  0  0  0
  150.0008  138.1736  153.4492 H   0  0  0  0  0  0  0  0  0  0  0  0
  151.0469  137.1369  156.2085 H   0  0  0  0  0  0  0  0  0  0  0  0
  150.9255  136.1588  154.6557 H   0  0  0  0  0  0  0  0  0  0  0  0
  152.4900  137.7647  153.5269 H   0  0  0  0  0  0  0  0  0  0  0  0
  152.6076  138.7381  155.0829 H   0  0  0  0  0  0  0  0  0  0  0  0
  148.0702  139.8849  157.8053 H   0  0  0  0  0  0  0  0  0  0  0  0
  147.7742  144.6816  158.2544 H   0  0  0  0  0  0  0  0  0  0  0  0
  145.3811  144.4899  159.5746 H   0  0  0  0  0  0  0  0  0  0  0  0
  148.0663  145.4694  160.8150 H   0  0  0  0  0  0  0  0  0  0  0  0
  146.3690  145.9237  161.3576 H   0  0  0  0  0  0  0  0  0  0  0  0
  145.8681  143.5090  161.8124 H   0  0  0  0  0  0  0  0  0  0  0  0
  147.5655  143.0545  161.2698 H   0  0  0  0  0  0  0  0  0  0  0  0
  1  2  2  0  0  0  0
  2  3  1  0  0  0  0
  2 13  1  0  0  0  0
  3  4  1  0  0  0  0
  3 17  1  0  0  0  0
  4 12  1  0  0  0  0
  4  5  2  0  0  0  0
  5  6  1  0  0  0  0
  5 18  1  0  0  0  0
  6  7  2  0  0  0  0
  7  8  1  0  0  0  0
  7 11  1  0  0  0  0
  8 10  1  0  0  0  0
  8  9  1  0  0  0  0
  8 19  1  0  0  0  0
  9 10  1  0  0  0  0
  9 20  1  0  0  0  0
  9 21  1  0  0  0  0
 10 22  1  0  0  0  0
 10 23  1  0  0  0  0
 11 12  2  0  0  0  0
 12 24  1  0  0  0  0
 13 14  1  0  0  0  0
 13 25  1  0  0  0  0
 14 16  1  0  0  0  0
 14 15  1  0  0  0  0
 14 26  1  0  0  0  0
 15 16  1  0  0  0  0
 15 27  1  0  0  0  0
 15 28  1  0  0  0  0
 16 29  1  0  0  0  0
 16 30  1  0  0  0  0
M  END
> <s_m_source_file>
AV-unprocessed.smi

> <i_m_source_file_index>
2920

> <i_lp_mmshare_version>
43012

> <i_f3d_flags>
0

> <s_epik_input>
W0NIMl0xW0NIMl1bQ0hdMVtOSF1DKD1PKVtOSF1jMltjSF1uYyhuW2NIXTIpW0NIXTNbQ0gyXVtDSDJdMw==

> <s_epik_cmdline>
J2VwaWtfcHl0aG9uJywgJy1waCcsICc3LjAnLCAnLXRuJywgJzgnLCAnLW1hJywgJzIwMCcsICctbWV0YWxfYmluZGluZycsICctaW1hZScsICc8aW5maWxlLm1hZT4nLCAnLW9tYWUnLCAnPG91dGZpbGUubWFlPic=

> <r_lp_tautomer_probability>
1

> <r_epik_Ionization_Penalty>
2.90508e-05

> <r_epik_Ionization_Penalty_Charging>
0

> <r_epik_Ionization_Penalty_Neutral>
2.90508e-05

> <r_epik_State_Penalty>
-0

> <r_epik_Charging_Adjusted_Penalty>
0

> <i_epik_Tot_Q>
0

> <i_epik_Tot_abs_Q>
0

> <r_epik_Metal_State_Penalty>
-0

> <b_epik_Metal_Only>
0

> <s_lp_Force_Field>
OPLS_2005

> <r_lp_Energy>
15.3097

> <b_lp_Chiralities_Consistent>
1

> <s_lp_Variant>
AV-unprocessed.smi:2920-1

> <Gold.Version>
5.8.1

> <Gold.Id.Protein>
6NUR|6NUR_protein|mol2

> <Gold.PLP.Fitness>
38.1957

> <Gold.PLP.PLP>
-25.7515

> <Gold.PLP.part.hbond>
-4.1193

> <Gold.PLP.part.metal>
0.0000

> <Gold.PLP.part.buried>
-2.2997

> <Gold.PLP.part.nonpolar>
-19.1630

> <Gold.PLP.part.repulsive>
0.2312

> <Gold.PLP.ligand.clash>
0.0000

> <Gold.PLP.ligand.torsion>
0.4188

> <Gold.PLP.Chemscore.Hbond>
3.3760

> <Gold.PLP.Chemscore.CHOScore>
1.0000

> <Gold.PLP.Chemscore.Metal>
0.0000

> <Gold.Chemscore.Hbonds>
donor molecule, donor type, donor heavy atom, donor atom, acceptor molecule, acceptor atom, score
      L1  H     3    17       P1  8028  1.00
      L1  H    13    25       P1  8029  1.00
      P1  H  6934  6946       L1     1  0.50
      P1  H  7989  7998       L1     6  0.83
      L1  C     5    18       P1  8028  0.99

> <Gold.PLP.Chemscore.Internal.Correction>
0.1536

> <Gold.Rescore>
     Score         DG    S(hbond)    S(metal)    S(lipo)     H(rot)  DE(clash)    DE(int)     intcor
     15.21     -16.80       2.60        0.00      48.84       1.20       0.01       1.59       ----

> <Gold.Chemscore.Fitness>
15.2060

> <Gold.Chemscore.DG>
-16.8035

> <Gold.Chemscore.ZeroCoef>
-5.4800

> <Gold.Chemscore.Hbond>
2.6025

> <Gold.Chemscore.Metal>
0.0000

> <Gold.Chemscore.Lipo>
48.8438

> <Gold.Chemscore.Internal_Hbond>
0.0000

> <Gold.Chemscore.DEClash>
0.0054

> <Gold.Chemscore.DEInternal>
1.5921

> <Gold.Chemscore.Rot>
1.2045

> <Gold.Chemscore.Internal.Correction>
   9.000000E+99

> <Gold.Chemscore.Hbonds>
donor molecule, donor type, donor heavy atom, donor atom, acceptor molecule, acceptor atom, score
      L1  H     3    17       P1  8028  0.29
      L1  H    13    25       P1  8029  0.82
      P1  H  6934  6946       L1     1  0.48
      P1  H  7989  7998       L1     6  0.78

> <Gold.Chemscore.Hbond.Weighted>
-8.6924

> <Gold.Chemscore.Metal.Weighted>
-0.0000

> <Gold.Chemscore.Lipo.Weighted>
-5.7147

> <Gold.Chemscore.Internal_Hbond.Weighted>
0.0000

> <Gold.Chemscore.DEClash.Weighted>
0.0054

> <Gold.Chemscore.DEInternal.Weighted>
1.5921

> <Gold.Chemscore.Rot.Weighted>
3.0836

> <Gold.Chemscore.Internal.Correction.Weighted>
   9.000000E+99

> <Gold.Protein.RotatedTorsions>
[ 6907 6896 6895 6894 ] final    3.69 input  -60.11 | X-H torsion
[ 7974 7965 7964 7962 ] final  -15.49 input  175.53 | X-H torsion
[ 8008 7997 7996 7995 ] final  150.57 input   59.86 | X-H torsion
[ 10167 10162 10161 10158 ] final   97.52 input  -65.29 | X-H torsion
[ 10718 10713 10712 10709 ] final   17.94 input   66.30 | X-H torsion
[ 10763 10752 10751 10750 ] final   66.71 input  -60.55 | X-H torsion
[ 11005 11000 10999 10996 ] final -122.70 input  -57.11 | X-H torsion

> <Gold.Protein.ActiveResidues>
 VAL166  LYS551  ARG553  GLY616  TRP617  ASP618  TYR619  PRO620  LYS621  CYS622 
 ASP623  PHE694  ASN695  SER759  ASP760  ASP761  ALA762  ILE779  LEU786  VAL792 
 PHE793  MET794  SER795  GLU796  ALA797  LYS798  CYS799  TRP800  GLU811  SER814 

> <Gold.Protein.RotatedAtoms>
  151.6292  135.1024  160.0117 H   0  0  0  0  0  0  0  0  0  0  0  0  # atno 6907 bound_to 6896
  152.4116  133.6968  159.6411 H   0  0  0  0  0  0  0  0  0  0  0  0  # atno 6908 bound_to 6896
  150.8006  133.8531  159.3252 H   0  0  0  0  0  0  0  0  0  0  0  0  # atno 6909 bound_to 6896
  146.2030  140.3500  142.8417 H   0  0  0  0  0  0  0  0  0  0  0  0  # atno 7974 bound_to 7965
  156.2710  140.2071  156.6038 H   0  0  0  0  0  0  0  0  0  0  0  0  # atno 8008 bound_to 7997
  154.6885  140.0532  157.0363 H   0  0  0  0  0  0  0  0  0  0  0  0  # atno 8009 bound_to 7997
  155.0900  140.3195  155.4579 H   0  0  0  0  0  0  0  0  0  0  0  0  # atno 8010 bound_to 7997
  139.7793  144.6894  151.0044 H   0  0  0  0  0  0  0  0  0  0  0  0  # atno 10167 bound_to 10162
  157.0893  130.6421  149.5845 H   0  0  0  0  0  0  0  0  0  0  0  0  # atno 10718 bound_to 10713
  153.0152  135.5310  154.6867 H   0  0  0  0  0  0  0  0  0  0  0  0  # atno 10763 bound_to 10752
  154.6012  135.2868  155.0535 H   0  0  0  0  0  0  0  0  0  0  0  0  # atno 10764 bound_to 10752
  154.1591  135.6550  153.5034 H   0  0  0  0  0  0  0  0  0  0  0  0  # atno 10765 bound_to 10752
  140.9975  134.0450  157.3579 H   0  0  0  0  0  0  0  0  0  0  0  0  # atno 11005 bound_to 11000
  144.8726  140.7293  143.6037 LP  0  0  0  0  0  0  0  0  0  0  0  0  # atno 17320 bound_to 7965
  145.3419  139.1730  143.4481 LP  0  0  0  0  0  0  0  0  0  0  0  0  # atno 17321 bound_to 7965
  140.7818  143.4500  151.0426 LP  0  0  0  0  0  0  0  0  0  0  0  0  # atno 17342 bound_to 10162
  139.8181  143.7857  152.3175 LP  0  0  0  0  0  0  0  0  0  0  0  0  # atno 17343 bound_to 10162
  155.9902  130.4953  150.7248 LP  0  0  0  0  0  0  0  0  0  0  0  0  # atno 17370 bound_to 10713
  157.4735  131.0895  151.0616 LP  0  0  0  0  0  0  0  0  0  0  0  0  # atno 17371 bound_to 10713
  139.9022  135.0168  156.7322 LP  0  0  0  0  0  0  0  0  0  0  0  0  # atno 17394 bound_to 11000
  140.6942  133.9363  155.7984 LP  0  0  0  0  0  0  0  0  0  0  0  0  # atno 17395 bound_to 11000

$$$$
