AV-unprocessed.smi:1883|AV-procd|sdf|7644|dock3
  -GOLD-   22720 9373D 1   1.00000     0.00000
 Structure written by MMmdl.
 36 38  0  0  0  0  0  0  0  0  2 V2000
  151.7512  137.7308  154.7372 C   0  0  0  0  0  0  0  0  0  0  0  0
  150.6283  138.6794  154.4806 C   0  0  0  0  0  0  0  0  0  0  0  0
  149.5418  138.4386  153.6939 N   0  3  0  0  0  0  0  0  0  0  0  0
  148.7003  139.5522  153.6961 C   0  0  0  0  0  0  0  0  0  0  0  0
  147.4871  139.7802  153.0541 C   0  0  0  0  0  0  0  0  0  0  0  0
  146.8834  141.0366  153.2700 C   0  0  0  0  0  0  0  0  0  0  0  0
  147.4851  142.0089  154.0954 C   0  0  0  0  0  0  0  0  0  0  0  0
  148.7156  141.7663  154.7407 C   0  0  0  0  0  0  0  0  0  0  0  0
  149.3042  140.5208  154.5232 C   0  0  0  0  0  0  0  0  0  0  0  0
  150.4868  139.9372  154.9898 N   0  0  0  0  0  0  0  0  0  0  0  0
  151.3495  140.7001  155.9047 C   0  0  0  0  0  0  0  0  0  0  0  0
  151.0465  140.4119  157.3895 C   0  0  2  0  0  0  0  0  0  0  0  0
  149.6461  140.4711  157.5673 O   0  0  0  0  0  0  0  0  0  0  0  0
  151.7929  141.3560  158.3254 C   0  0  0  0  0  0  0  0  0  0  0  0
  151.6603  142.7555  158.1823 C   0  0  0  0  0  0  0  0  0  0  0  0
  152.3640  143.6287  159.0338 C   0  0  0  0  0  0  0  0  0  0  0  0
  152.2318  144.9682  158.8880 F   0  0  0  0  0  0  0  0  0  0  0  0
  153.2076  143.1092  160.0334 C   0  0  0  0  0  0  0  0  0  0  0  0
  153.3494  141.7163  160.1790 C   0  0  0  0  0  0  0  0  0  0  0  0
  152.6463  140.8409  159.3285 C   0  0  0  0  0  0  0  0  0  0  0  0
  152.8059  139.5033  159.4741 F   0  0  0  0  0  0  0  0  0  0  0  0
  151.6394  136.8322  154.1302 H   0  0  0  0  0  0  0  0  0  0  0  0
  151.7654  137.4381  155.7867 H   0  0  0  0  0  0  0  0  0  0  0  0
  152.7050  138.1980  154.4912 H   0  0  0  0  0  0  0  0  0  0  0  0
  147.0237  139.0377  152.4210 H   0  0  0  0  0  0  0  0  0  0  0  0
  145.9400  141.2595  152.7930 H   0  0  0  0  0  0  0  0  0  0  0  0
  146.9931  142.9603  154.2372 H   0  0  0  0  0  0  0  0  0  0  0  0
  149.1682  142.5168  155.3718 H   0  0  0  0  0  0  0  0  0  0  0  0
  152.3875  140.4603  155.6711 H   0  0  0  0  0  0  0  0  0  0  0  0
  151.2216  141.7598  155.6798 H   0  0  0  0  0  0  0  0  0  0  0  0
  151.3313  139.3862  157.6239 H   0  0  0  0  0  0  0  0  0  0  0  0
  149.3642  139.6802  158.0012 H   0  0  0  0  0  0  0  0  0  0  0  0
  151.0227  143.1665  157.4133 H   0  0  0  0  0  0  0  0  0  0  0  0
  153.7478  143.7788  160.6864 H   0  0  0  0  0  0  0  0  0  0  0  0
  154.0008  141.3187  160.9432 H   0  0  0  0  0  0  0  0  0  0  0  0
  149.3888  137.5727  153.1930 H   0  0  0  0  0  0  0  0  0  0  0  0
  1  2  1  0  0  0  0
  1 22  1  0  0  0  0
  1 23  1  0  0  0  0
  1 24  1  0  0  0  0
  2 10  1  0  0  0  0
  2  3  2  0  0  0  0
  3  4  1  0  0  0  0
  3 36  1  0  0  0  0
  4  9  2  0  0  0  0
  4  5  1  0  0  0  0
  5  6  2  0  0  0  0
  5 25  1  0  0  0  0
  6  7  1  0  0  0  0
  6 26  1  0  0  0  0
  7  8  2  0  0  0  0
  7 27  1  0  0  0  0
  8  9  1  0  0  0  0
  8 28  1  0  0  0  0
  9 10  1  0  0  0  0
 10 11  1  0  0  0  0
 11 12  1  0  0  0  0
 11 29  1  0  0  0  0
 11 30  1  0  0  0  0
 12 13  1  0  0  0  0
 12 14  1  0  0  0  0
 12 31  1  0  0  0  0
 13 32  1  0  0  0  0
 14 20  1  0  0  0  0
 14 15  2  0  0  0  0
 15 16  1  0  0  0  0
 15 33  1  0  0  0  0
 16 17  1  0  0  0  0
 16 18  2  0  0  0  0
 18 19  1  0  0  0  0
 18 34  1  0  0  0  0
 19 20  2  0  0  0  0
 19 35  1  0  0  0  0
 20 21  1  0  0  0  0
M  CHG  1   3   1
M  END
> <s_m_source_file>
AV-unprocessed.smi

> <i_m_source_file_index>
1883

> <i_lp_mmshare_version>
43012

> <i_f3d_flags>
0

> <s_epik_input>
W2NIXTFbY0hdW2NIXVtjSF1jKGMxMiluKGMobjIpW0NIM10pW0NIMl1bQ0BIXShbT0hdKWMzW2NIXWMoRilbY0hdW2NIXWMzRg==

> <s_epik_cmdline>
J2VwaWtfcHl0aG9uJywgJy1waCcsICc3LjAnLCAnLXRuJywgJzgnLCAnLW1hJywgJzIwMCcsICctbWV0YWxfYmluZGluZycsICctaW1hZScsICc8aW5maWxlLm1hZT4nLCAnLW9tYWUnLCAnPG91dGZpbGUubWFlPic=

> <r_epik_Ionization_Penalty>
0.963871

> <r_epik_Ionization_Penalty_Charging>
0.963868

> <r_epik_Ionization_Penalty_Neutral>
3.53208e-06

> <r_epik_State_Penalty>
1.00924

> <r_epik_Charging_Adjusted_Penalty>
1.9731

> <i_epik_Tot_Q>
1

> <i_epik_Tot_abs_Q>
1

> <r_epik_Metal_State_Penalty>
4.98304

> <b_epik_Metal_Only>
0

> <s_lp_Force_Field>
OPLS_2005

> <r_lp_Energy>
15.3962

> <b_lp_Chiralities_Consistent>
1

> <s_lp_Variant>
AV-unprocessed.smi:1883-3

> <Gold.Version>
5.8.1

> <Gold.Id.Protein>
6NUR|6NUR_protein|mol2

> <Gold.PLP.Fitness>
57.2962

> <Gold.PLP.PLP>
-52.2346

> <Gold.PLP.part.hbond>
-2.0000

> <Gold.PLP.part.metal>
0.0000

> <Gold.PLP.part.buried>
1.7667

> <Gold.PLP.part.nonpolar>
-52.0045

> <Gold.PLP.part.repulsive>
0.0641

> <Gold.PLP.ligand.clash>
0.0000

> <Gold.PLP.ligand.torsion>
0.4797

> <Gold.PLP.Chemscore.Hbond>
2.0000

> <Gold.PLP.Chemscore.CHOScore>
0.0000

> <Gold.PLP.Chemscore.Metal>
0.0000

> <Gold.Chemscore.Hbonds>
donor molecule, donor type, donor heavy atom, donor atom, acceptor molecule, acceptor atom, score
      L1  H     3    36       P1  7948  2.00

> <Gold.PLP.Chemscore.Internal.Correction>
0.0210

> <Gold.Rescore>
     Score         DG    S(hbond)    S(metal)    S(lipo)     H(rot)  DE(clash)    DE(int)     intcor
     17.49     -18.05       0.93        0.00     123.14       1.94       0.16       0.40       ----

> <Gold.Chemscore.Fitness>
17.4918

> <Gold.Chemscore.DG>
-18.0490

> <Gold.Chemscore.ZeroCoef>
-5.4800

> <Gold.Chemscore.Hbond>
0.9347

> <Gold.Chemscore.Metal>
0.0000

> <Gold.Chemscore.Lipo>
123.1377

> <Gold.Chemscore.Internal_Hbond>
0.0000

> <Gold.Chemscore.DEClash>
0.1595

> <Gold.Chemscore.DEInternal>
0.3977

> <Gold.Chemscore.Rot>
1.9375

> <Gold.Chemscore.Internal.Correction>
   9.000000E+99

> <Gold.Chemscore.Hbonds>
donor molecule, donor type, donor heavy atom, donor atom, acceptor molecule, acceptor atom, score
      L1  H     3    36       P1  7948  0.94

> <Gold.Chemscore.Hbond.Weighted>
-3.1217

> <Gold.Chemscore.Metal.Weighted>
-0.0000

> <Gold.Chemscore.Lipo.Weighted>
-14.4071

> <Gold.Chemscore.Internal_Hbond.Weighted>
0.0000

> <Gold.Chemscore.DEClash.Weighted>
0.1595

> <Gold.Chemscore.DEInternal.Weighted>
0.3977

> <Gold.Chemscore.Rot.Weighted>
4.9599

> <Gold.Chemscore.Internal.Correction.Weighted>
   9.000000E+99

> <Gold.Protein.RotatedTorsions>
[ 6907 6896 6895 6894 ] final  116.23 input  -60.11 | X-H torsion
[ 7974 7965 7964 7962 ] final   76.75 input  175.53 | X-H torsion
[ 8008 7997 7996 7995 ] final  -14.21 input   59.86 | X-H torsion
[ 10167 10162 10161 10158 ] final   94.15 input  -65.29 | X-H torsion
[ 10718 10713 10712 10709 ] final   99.46 input   66.30 | X-H torsion
[ 10763 10752 10751 10750 ] final -178.35 input  -60.55 | X-H torsion
[ 11005 11000 10999 10996 ] final  116.71 input  -57.11 | X-H torsion

> <Gold.Protein.ActiveResidues>
 VAL166  LYS551  ARG553  GLY616  TRP617  ASP618  TYR619  PRO620  LYS621  CYS622 
 ASP623  PHE694  ASN695  SER759  ASP760  ASP761  ALA762  ILE779  LEU786  VAL792 
 PHE793  MET794  SER795  GLU796  ALA797  LYS798  CYS799  TRP800  GLU811  SER814 

> <Gold.Protein.RotatedAtoms>
  152.4691  133.7989  159.6941 H   0  0  0  0  0  0  0  0  0  0  0  0  # atno 6907 bound_to 6896
  150.8670  133.7550  159.2980 H   0  0  0  0  0  0  0  0  0  0  0  0  # atno 6908 bound_to 6896
  151.5097  135.1068  159.9902 H   0  0  0  0  0  0  0  0  0  0  0  0  # atno 6909 bound_to 6896
  145.6989  139.2576  143.1717 H   0  0  0  0  0  0  0  0  0  0  0  0  # atno 7974 bound_to 7965
  154.5229  140.2229  155.8943 H   0  0  0  0  0  0  0  0  0  0  0  0  # atno 8008 bound_to 7997
  156.1681  140.3127  155.8890 H   0  0  0  0  0  0  0  0  0  0  0  0  # atno 8009 bound_to 7997
  155.3614  140.0461  157.3037 H   0  0  0  0  0  0  0  0  0  0  0  0  # atno 8010 bound_to 7997
  139.8111  144.6773  150.9639 H   0  0  0  0  0  0  0  0  0  0  0  0  # atno 10167 bound_to 10162
  157.6875  131.0670  150.4952 H   0  0  0  0  0  0  0  0  0  0  0  0  # atno 10718 bound_to 10713
  154.5488  135.2811  155.1028 H   0  0  0  0  0  0  0  0  0  0  0  0  # atno 10763 bound_to 10752
  154.2482  135.6344  153.5234 H   0  0  0  0  0  0  0  0  0  0  0  0  # atno 10764 bound_to 10752
  152.9997  135.5576  154.6048 H   0  0  0  0  0  0  0  0  0  0  0  0  # atno 10765 bound_to 10752
  139.9050  134.9601  156.7239 H   0  0  0  0  0  0  0  0  0  0  0  0  # atno 11005 bound_to 11000
  146.0816  140.7758  142.9639 LP  0  0  0  0  0  0  0  0  0  0  0  0  # atno 17320 bound_to 7965
  144.6974  140.3497  143.7184 LP  0  0  0  0  0  0  0  0  0  0  0  0  # atno 17321 bound_to 7965
  140.7817  143.4184  151.0880 LP  0  0  0  0  0  0  0  0  0  0  0  0  # atno 17342 bound_to 10162
  139.7851  143.8299  152.3143 LP  0  0  0  0  0  0  0  0  0  0  0  0  # atno 17343 bound_to 10162
  156.5276  130.4177  149.6218 LP  0  0  0  0  0  0  0  0  0  0  0  0  # atno 17370 bound_to 10713
  156.3098  130.7222  151.2112 LP  0  0  0  0  0  0  0  0  0  0  0  0  # atno 17371 bound_to 10713
  140.6978  133.9333  155.8006 LP  0  0  0  0  0  0  0  0  0  0  0  0  # atno 17394 bound_to 11000
  141.0394  134.0643  157.3920 LP  0  0  0  0  0  0  0  0  0  0  0  0  # atno 17395 bound_to 11000

$$$$
