AV-unprocessed.smi:956|AV-procd|sdf|4264|dock9
  -GOLD-   22720 2173D 1   1.00000     0.00000
 Structure written by MMmdl.
 42 43  0  0  0  0  0  0  0  0  1 V2000
  148.8133  136.3545  155.9462 C   0  0  0  0  0  0  0  0  0  0  0  0
  150.6669  136.3009  155.9259 S   0  0  1  0  0  0  0  0  0  0  0  0
  151.0870  135.6571  154.6033 O   0  0  0  0  0  0  0  0  0  0  0  0
  150.8677  138.0943  155.6399 C   0  0  0  0  0  0  0  0  0  0  0  0
  150.7963  138.6686  154.4352 N   0  0  0  0  0  0  0  0  0  0  0  0
  151.0027  140.0149  154.6699 N   0  0  0  0  0  0  0  0  0  0  0  0
  151.1777  140.1064  155.9899 C   0  0  0  0  0  0  0  0  0  0  0  0
  151.1028  138.9437  156.6573 N   0  0  0  0  0  0  0  0  0  0  0  0
  151.2542  138.7021  158.0812 C   0  0  0  0  0  0  0  0  0  0  0  0
  152.5896  139.2489  158.5845 C   0  0  0  0  0  0  0  0  0  0  0  0
  153.6241  139.0147  157.9606 O   0  0  0  0  0  0  0  0  0  0  0  0
  152.5554  139.9665  159.7166 N   0  0  0  0  0  0  0  0  0  0  0  0
  153.7265  140.5438  160.3599 C   0  0  0  0  0  0  0  0  0  0  0  0
  154.0510  141.9188  159.7540 C   0  0  0  0  0  0  0  0  0  0  0  0
  152.8319  142.8568  159.6345 C   0  0  0  0  0  0  0  0  0  0  0  0
  153.0842  143.9467  158.5713 C   0  0  0  0  0  0  0  0  0  0  0  0
  151.8821  144.8936  158.4233 C   0  0  0  0  0  0  0  0  0  0  0  0
  151.5116  145.5354  159.7683 C   0  0  0  0  0  0  0  0  0  0  0  0
  151.2500  144.4620  160.8349 C   0  0  0  0  0  0  0  0  0  0  0  0
  152.4513  143.5131  160.9807 C   0  0  0  0  0  0  0  0  0  0  0  0
  148.4544  137.2828  156.3913 H   0  0  0  0  0  0  0  0  0  0  0  0
  148.4222  135.5212  156.5292 H   0  0  0  0  0  0  0  0  0  0  0  0
  148.4220  136.2813  154.9315 H   0  0  0  0  0  0  0  0  0  0  0  0
  151.3683  141.0483  156.4831 H   0  0  0  0  0  0  0  0  0  0  0  0
  150.4344  139.1902  158.6100 H   0  0  0  0  0  0  0  0  0  0  0  0
  151.1715  137.6336  158.2833 H   0  0  0  0  0  0  0  0  0  0  0  0
  151.6644  140.1092  160.1697 H   0  0  0  0  0  0  0  0  0  0  0  0
  153.5372  140.6399  161.4300 H   0  0  0  0  0  0  0  0  0  0  0  0
  154.5672  139.8605  160.2379 H   0  0  0  0  0  0  0  0  0  0  0  0
  154.8321  142.4050  160.3401 H   0  0  0  0  0  0  0  0  0  0  0  0
  154.4731  141.7635  158.7597 H   0  0  0  0  0  0  0  0  0  0  0  0
  151.9832  142.2596  159.2970 H   0  0  0  0  0  0  0  0  0  0  0  0
  153.9692  144.5251  158.8400 H   0  0  0  0  0  0  0  0  0  0  0  0
  153.3002  143.4856  157.6069 H   0  0  0  0  0  0  0  0  0  0  0  0
  152.1083  145.6695  157.6916 H   0  0  0  0  0  0  0  0  0  0  0  0
  151.0264  144.3409  158.0331 H   0  0  0  0  0  0  0  0  0  0  0  0
  152.3200  146.1895  160.0974 H   0  0  0  0  0  0  0  0  0  0  0  0
  150.6304  146.1666  159.6499 H   0  0  0  0  0  0  0  0  0  0  0  0
  151.0328  144.9356  161.7926 H   0  0  0  0  0  0  0  0  0  0  0  0
  150.3621  143.8884  160.5661 H   0  0  0  0  0  0  0  0  0  0  0  0
  152.2065  142.7531  161.7222 H   0  0  0  0  0  0  0  0  0  0  0  0
  153.3046  144.0658  161.3756 H   0  0  0  0  0  0  0  0  0  0  0  0
  1  2  1  0  0  0  0
  1 21  1  0  0  0  0
  1 22  1  0  0  0  0
  1 23  1  0  0  0  0
  2  3  2  0  0  0  0
  2  4  1  0  0  0  0
  4  8  1  0  0  0  0
  4  5  2  0  0  0  0
  5  6  1  0  0  0  0
  6  7  2  0  0  0  0
  7  8  1  0  0  0  0
  7 24  1  0  0  0  0
  8  9  1  0  0  0  0
  9 10  1  0  0  0  0
  9 25  1  0  0  0  0
  9 26  1  0  0  0  0
 10 11  2  0  0  0  0
 10 12  1  0  0  0  0
 12 13  1  0  0  0  0
 12 27  1  0  0  0  0
 13 14  1  0  0  0  0
 13 28  1  0  0  0  0
 13 29  1  0  0  0  0
 14 15  1  0  0  0  0
 14 30  1  0  0  0  0
 14 31  1  0  0  0  0
 15 20  1  0  0  0  0
 15 16  1  0  0  0  0
 15 32  1  0  0  0  0
 16 17  1  0  0  0  0
 16 33  1  0  0  0  0
 16 34  1  0  0  0  0
 17 18  1  0  0  0  0
 17 35  1  0  0  0  0
 17 36  1  0  0  0  0
 18 19  1  0  0  0  0
 18 37  1  0  0  0  0
 18 38  1  0  0  0  0
 19 20  1  0  0  0  0
 19 39  1  0  0  0  0
 19 40  1  0  0  0  0
 20 41  1  0  0  0  0
 20 42  1  0  0  0  0
M  END
> <s_m_source_file>
AV-unprocessed.smi

> <i_m_source_file_index>
956

> <i_lp_mmshare_version>
43012

> <i_f3d_flags>
0

> <s_epik_input>
W0NIM11bU0BdKD1PKWMxbm5bY0hdbjFbQ0gyXUMoPU8pW05IXVtDSDJdW0NIMl1bQ0hdMltDSDJdW0NIMl1bQ0gyXVtDSDJdW0NIMl0y

> <s_epik_cmdline>
J2VwaWtfcHl0aG9uJywgJy1waCcsICc3LjAnLCAnLXRuJywgJzgnLCAnLW1hJywgJzIwMCcsICctbWV0YWxfYmluZGluZycsICctaW1hZScsICc8aW5maWxlLm1hZT4nLCAnLW9tYWUnLCAnPG91dGZpbGUubWFlPic=

> <r_lp_tautomer_probability>
1

> <r_epik_Ionization_Penalty>
7.32521e-08

> <r_epik_Ionization_Penalty_Charging>
0

> <r_epik_Ionization_Penalty_Neutral>
7.32521e-08

> <r_epik_State_Penalty>
-0

> <r_epik_Charging_Adjusted_Penalty>
0

> <i_epik_Tot_Q>
0

> <i_epik_Tot_abs_Q>
0

> <r_epik_Metal_State_Penalty>
-0

> <b_epik_Metal_Only>
0

> <s_lp_Force_Field>
OPLS_2005

> <r_lp_Energy>
10.1233

> <b_lp_Chiralities_Consistent>
1

> <s_lp_Variant>
AV-unprocessed.smi:956-2

> <Gold.Version>
5.8.1

> <Gold.Id.Protein>
6NUR|6NUR_protein|mol2

> <Gold.PLP.Fitness>
48.2795

> <Gold.PLP.PLP>
-41.1349

> <Gold.PLP.part.hbond>
-2.9669

> <Gold.PLP.part.metal>
0.0000

> <Gold.PLP.part.buried>
-5.8812

> <Gold.PLP.part.nonpolar>
-33.8720

> <Gold.PLP.part.repulsive>
1.6074

> <Gold.PLP.ligand.clash>
0.0000

> <Gold.PLP.ligand.torsion>
1.4642

> <Gold.PLP.Chemscore.Hbond>
3.0000

> <Gold.PLP.Chemscore.CHOScore>
0.0000

> <Gold.PLP.Chemscore.Metal>
0.0000

> <Gold.Chemscore.Hbonds>
donor molecule, donor type, donor heavy atom, donor atom, acceptor molecule, acceptor atom, score
      P1  H  7989  7998       L1     6  1.00
      P1  H  7997  8008       L1    11  1.00
      P1  H 10752 10764       L1     3  1.00

> <Gold.PLP.Chemscore.Internal.Correction>
1.0730

> <Gold.Rescore>
     Score         DG    S(hbond)    S(metal)    S(lipo)     H(rot)  DE(clash)    DE(int)     intcor
     19.54     -21.04       2.90        0.00      99.58       2.26       0.01       1.49       ----

> <Gold.Chemscore.Fitness>
19.5414

> <Gold.Chemscore.DG>
-21.0390

> <Gold.Chemscore.ZeroCoef>
-5.4800

> <Gold.Chemscore.Hbond>
2.8989

> <Gold.Chemscore.Metal>
0.0000

> <Gold.Chemscore.Lipo>
99.5762

> <Gold.Chemscore.Internal_Hbond>
0.0000

> <Gold.Chemscore.DEClash>
0.0056

> <Gold.Chemscore.DEInternal>
1.4921

> <Gold.Chemscore.Rot>
2.2554

> <Gold.Chemscore.Internal.Correction>
   9.000000E+99

> <Gold.Chemscore.Hbonds>
donor molecule, donor type, donor heavy atom, donor atom, acceptor molecule, acceptor atom, score
      P1  H  7989  7998       L1     6  0.92
      P1  H  7997  8008       L1    11  1.00
      P1  H 10752 10764       L1     3  0.86

> <Gold.Chemscore.Hbond.Weighted>
-9.6825

> <Gold.Chemscore.Metal.Weighted>
-0.0000

> <Gold.Chemscore.Lipo.Weighted>
-11.6504

> <Gold.Chemscore.Internal_Hbond.Weighted>
0.0000

> <Gold.Chemscore.DEClash.Weighted>
0.0056

> <Gold.Chemscore.DEInternal.Weighted>
1.4921

> <Gold.Chemscore.Rot.Weighted>
5.7738

> <Gold.Chemscore.Internal.Correction.Weighted>
   9.000000E+99

> <Gold.Protein.RotatedTorsions>
[ 6907 6896 6895 6894 ] final   46.98 input  -60.11 | X-H torsion
[ 7974 7965 7964 7962 ] final   22.99 input  175.53 | X-H torsion
[ 8008 7997 7996 7995 ] final  -84.00 input   59.86 | X-H torsion
[ 10167 10162 10161 10158 ] final   34.28 input  -65.29 | X-H torsion
[ 10718 10713 10712 10709 ] final  110.65 input   66.30 | X-H torsion
[ 10763 10752 10751 10750 ] final  -74.40 input  -60.55 | X-H torsion
[ 11005 11000 10999 10996 ] final -147.71 input  -57.11 | X-H torsion

> <Gold.Protein.ActiveResidues>
 VAL166  LYS551  ARG553  GLY616  TRP617  ASP618  TYR619  PRO620  LYS621  CYS622 
 ASP623  PHE694  ASN695  SER759  ASP760  ASP761  ALA762  ILE779  LEU786  VAL792 
 PHE793  MET794  SER795  GLU796  ALA797  LYS798  CYS799  TRP800  GLU811  SER814 

> <Gold.Protein.RotatedAtoms>
  152.2627  134.8017  160.0427 H   0  0  0  0  0  0  0  0  0  0  0  0  # atno 6907 bound_to 6896
  151.8658  133.3461  159.3727 H   0  0  0  0  0  0  0  0  0  0  0  0  # atno 6908 bound_to 6896
  150.7122  134.5089  159.5642 H   0  0  0  0  0  0  0  0  0  0  0  0  # atno 6909 bound_to 6896
  146.2004  139.7807  142.8766 H   0  0  0  0  0  0  0  0  0  0  0  0  # atno 7974 bound_to 7965
  154.6251  140.0611  156.9664 H   0  0  0  0  0  0  0  0  0  0  0  0  # atno 8008 bound_to 7997
  155.1754  140.3294  155.4366 H   0  0  0  0  0  0  0  0  0  0  0  0  # atno 8009 bound_to 7997
  156.2453  140.1907  156.6854 H   0  0  0  0  0  0  0  0  0  0  0  0  # atno 8010 bound_to 7997
  140.4329  144.1298  150.6162 H   0  0  0  0  0  0  0  0  0  0  0  0  # atno 10167 bound_to 10162
  157.6484  131.0936  150.6633 H   0  0  0  0  0  0  0  0  0  0  0  0  # atno 10718 bound_to 10713
  154.4725  135.5866  153.6332 H   0  0  0  0  0  0  0  0  0  0  0  0  # atno 10763 bound_to 10752
  152.9836  135.6070  154.3348 H   0  0  0  0  0  0  0  0  0  0  0  0  # atno 10764 bound_to 10752
  154.3232  135.2843  155.2488 H   0  0  0  0  0  0  0  0  0  0  0  0  # atno 10765 bound_to 10752
  140.7689  134.3212  157.5081 H   0  0  0  0  0  0  0  0  0  0  0  0  # atno 11005 bound_to 11000
  145.3503  141.0306  143.3342 LP  0  0  0  0  0  0  0  0  0  0  0  0  # atno 17320 bound_to 7965
  144.8671  139.5092  143.6785 LP  0  0  0  0  0  0  0  0  0  0  0  0  # atno 17321 bound_to 7965
  140.4406  143.2528  151.9478 LP  0  0  0  0  0  0  0  0  0  0  0  0  # atno 17342 bound_to 10162
  139.4785  144.5658  151.8167 LP  0  0  0  0  0  0  0  0  0  0  0  0  # atno 17343 bound_to 10162
  156.6947  130.4605  149.5590 LP  0  0  0  0  0  0  0  0  0  0  0  0  # atno 17370 bound_to 10713
  156.1837  130.6515  151.0981 LP  0  0  0  0  0  0  0  0  0  0  0  0  # atno 17371 bound_to 10713
  139.8759  134.9248  156.3359 LP  0  0  0  0  0  0  0  0  0  0  0  0  # atno 17394 bound_to 11000
  140.9593  133.7399  156.0379 LP  0  0  0  0  0  0  0  0  0  0  0  0  # atno 17395 bound_to 11000

$$$$
