AV-unprocessed.smi:100|AV-procd|sdf|909|dock3
  -GOLD-   2262017403D 1   1.00000     0.00000
 Structure written by MMmdl.
 31 33  0  0  0  0  0  0  0  0  1 V2000
  150.1676  136.2713  155.6575 N   0  0  0  0  0  0  0  0  0  0  0  0
  150.9789  137.3376  155.6831 C   0  0  0  0  0  0  0  0  0  0  0  0
  151.9920  137.3960  154.7875 N   0  0  0  0  0  0  0  0  0  0  0  0
  152.8148  138.4493  154.7938 C   0  0  0  0  0  0  0  0  0  0  0  0
  152.7943  139.5200  155.5917 N   0  0  0  0  0  0  0  0  0  0  0  0
  151.7725  139.4615  156.4953 C   0  0  0  0  0  0  0  0  0  0  0  0
  150.8260  138.4044  156.6043 C   0  0  0  0  0  0  0  0  0  0  0  0
  149.9331  138.6713  157.6324 N   0  0  0  0  0  0  0  0  0  0  0  0
  150.3322  139.8222  158.1022 C   0  0  0  0  0  0  0  0  0  0  0  0
  151.4316  140.3717  157.4783 N   0  0  0  0  0  0  0  0  0  0  0  0
  152.0982  141.6745  157.8117 C   0  0  2  0  0  0  0  0  0  0  0  0
  152.3044  141.7638  159.1920 O   0  0  0  0  0  0  0  0  0  0  0  0
  151.5763  142.8681  159.7231 C   0  0  1  0  0  0  0  0  0  0  0  0
  152.2569  143.4155  160.9871 C   0  0  0  0  0  0  0  0  0  0  0  0
  151.8978  142.6421  162.1124 O   0  0  0  0  0  0  0  0  0  0  0  0
  151.4722  143.8436  158.5484 C   0  0  1  0  0  0  0  0  0  0  0  0
  152.6114  144.5214  158.3884 F   0  0  0  0  0  0  0  0  0  0  0  0
  151.2791  142.9059  157.3711 C   0  0  2  0  0  0  0  0  0  0  0  0
  149.9040  142.6486  157.1459 O   0  0  0  0  0  0  0  0  0  0  0  0
  149.4052  136.2041  156.3163 H   0  0  0  0  0  0  0  0  0  0  0  0
  150.3194  135.5385  154.9798 H   0  0  0  0  0  0  0  0  0  0  0  0
  153.6024  138.4328  154.0551 H   0  0  0  0  0  0  0  0  0  0  0  0
  149.8308  140.3072  158.9271 H   0  0  0  0  0  0  0  0  0  0  0  0
  153.0710  141.6189  157.3209 H   0  0  0  0  0  0  0  0  0  0  0  0
  150.5751  142.5199  159.9784 H   0  0  0  0  0  0  0  0  0  0  0  0
  153.3403  143.3725  160.8734 H   0  0  0  0  0  0  0  0  0  0  0  0
  151.9946  144.4597  161.1595 H   0  0  0  0  0  0  0  0  0  0  0  0
  152.6773  142.2350  162.4584 H   0  0  0  0  0  0  0  0  0  0  0  0
  150.6728  144.5767  158.6639 H   0  0  0  0  0  0  0  0  0  0  0  0
  151.6993  143.3146  156.4514 H   0  0  0  0  0  0  0  0  0  0  0  0
  149.5809  143.2767  156.5178 H   0  0  0  0  0  0  0  0  0  0  0  0
  1  2  1  0  0  0  0
  1 20  1  0  0  0  0
  1 21  1  0  0  0  0
  2  7  1  0  0  0  0
  2  3  2  0  0  0  0
  3  4  1  0  0  0  0
  4  5  2  0  0  0  0
  4 22  1  0  0  0  0
  5  6  1  0  0  0  0
  6 10  1  0  0  0  0
  6  7  2  0  0  0  0
  7  8  1  0  0  0  0
  8  9  2  0  0  0  0
  9 10  1  0  0  0  0
  9 23  1  0  0  0  0
 10 11  1  0  0  0  0
 11 18  1  0  0  0  0
 11 12  1  0  0  0  0
 11 24  1  0  0  0  0
 12 13  1  0  0  0  0
 13 14  1  0  0  0  0
 13 16  1  0  0  0  0
 13 25  1  0  0  0  0
 14 15  1  0  0  0  0
 14 26  1  0  0  0  0
 14 27  1  0  0  0  0
 15 28  1  0  0  0  0
 16 17  1  0  0  0  0
 16 18  1  0  0  0  0
 16 29  1  0  0  0  0
 18 19  1  0  0  0  0
 18 30  1  0  0  0  0
 19 31  1  0  0  0  0
M  END
> <s_m_source_file>
AV-unprocessed.smi

> <i_m_source_file_index>
100

> <i_lp_mmshare_version>
43012

> <i_f3d_flags>
0

> <s_epik_input>
bjFbY0hdbmMoW05IMl0pYyhjMTIpbltjSF1uMltDQEBIXTNPW0NAQEhdKFtDSDJdW09IXSlbQ0BIXShGKVtDQEhdM1tPSF0=

> <s_epik_cmdline>
J2VwaWtfcHl0aG9uJywgJy1waCcsICc3LjAnLCAnLXRuJywgJzgnLCAnLW1hJywgJzIwMCcsICctbWV0YWxfYmluZGluZycsICctaW1hZScsICc8aW5maWxlLm1hZT4nLCAnLW9tYWUnLCAnPG91dGZpbGUubWFlPic=

> <r_lp_tautomer_probability>
1

> <r_epik_Ionization_Penalty>
0.000750324

> <r_epik_Ionization_Penalty_Charging>
0

> <r_epik_Ionization_Penalty_Neutral>
0.000750324

> <r_epik_State_Penalty>
-0

> <r_epik_Charging_Adjusted_Penalty>
0

> <i_epik_Tot_Q>
0

> <i_epik_Tot_abs_Q>
0

> <r_epik_Metal_State_Penalty>
-0

> <b_epik_Metal_Only>
0

> <s_epik_Chemistry_Notes>
This compound contains an acetal/aminal-like group ( X-CH(R)-Y where X, Y are N, S, or O) that may be acid/base labile, releasing an aldehyde.

> <s_lp_Force_Field>
OPLS_2005

> <r_lp_Energy>
35.7638

> <b_lp_Chiralities_Consistent>
1

> <s_lp_Variant>
AV-unprocessed.smi:100-13

> <Gold.Version>
5.8.1

> <Gold.Id.Protein>
6NUR|6NUR_protein|mol2

> <Gold.PLP.Fitness>
44.7095

> <Gold.PLP.PLP>
-34.2721

> <Gold.PLP.part.hbond>
-5.0000

> <Gold.PLP.part.metal>
0.0000

> <Gold.PLP.part.buried>
-7.3406

> <Gold.PLP.part.nonpolar>
-23.3707

> <Gold.PLP.part.repulsive>
0.1618

> <Gold.PLP.ligand.clash>
0.0000

> <Gold.PLP.ligand.torsion>
0.4941

> <Gold.PLP.Chemscore.Hbond>
3.8080

> <Gold.PLP.Chemscore.CHOScore>
0.0000

> <Gold.PLP.Chemscore.Metal>
0.0000

> <Gold.Chemscore.Hbonds>
donor molecule, donor type, donor heavy atom, donor atom, acceptor molecule, acceptor atom, score
      L1  H    19    31       P1  8028  1.00
      P1  H  6933  6945       L1    15  0.89
      P1  H  7997  8010       L1     5  1.00
      P1  H 10752 10765       L1     3  0.88

> <Gold.PLP.Chemscore.Internal.Correction>
0.0016

> <Gold.Rescore>
     Score         DG    S(hbond)    S(metal)    S(lipo)     H(rot)  DE(clash)    DE(int)     intcor
     12.57     -14.19       3.46        0.00      45.50       3.19       0.19       1.43       ----

> <Gold.Chemscore.Fitness>
12.5679

> <Gold.Chemscore.DG>
-14.1887

> <Gold.Chemscore.ZeroCoef>
-5.4800

> <Gold.Chemscore.Hbond>
3.4586

> <Gold.Chemscore.Metal>
0.0000

> <Gold.Chemscore.Lipo>
45.5008

> <Gold.Chemscore.Internal_Hbond>
0.0000

> <Gold.Chemscore.DEClash>
0.1941

> <Gold.Chemscore.DEInternal>
1.4267

> <Gold.Chemscore.Rot>
3.1901

> <Gold.Chemscore.Internal.Correction>
   9.000000E+99

> <Gold.Chemscore.Hbonds>
donor molecule, donor type, donor heavy atom, donor atom, acceptor molecule, acceptor atom, score
      L1  H    19    31       P1  8028  1.00
      P1  H  6933  6945       L1    15  0.80
      P1  H  7997  8010       L1     5  0.85
      P1  H 10752 10765       L1     3  0.63

> <Gold.Chemscore.Hbond.Weighted>
-11.5518

> <Gold.Chemscore.Metal.Weighted>
-0.0000

> <Gold.Chemscore.Lipo.Weighted>
-5.3236

> <Gold.Chemscore.Internal_Hbond.Weighted>
0.0000

> <Gold.Chemscore.DEClash.Weighted>
0.1941

> <Gold.Chemscore.DEInternal.Weighted>
1.4267

> <Gold.Chemscore.Rot.Weighted>
8.1667

> <Gold.Chemscore.Internal.Correction.Weighted>
   9.000000E+99

> <Gold.Protein.RotatedTorsions>
[ 6907 6896 6895 6894 ] final   23.72 input  -60.11 | X-H torsion
[ 7974 7965 7964 7962 ] final  102.84 input  175.53 | X-H torsion
[ 8008 7997 7996 7995 ] final   79.78 input   59.86 | X-H torsion
[ 10167 10162 10161 10158 ] final -108.75 input  -65.29 | X-H torsion
[ 10718 10713 10712 10709 ] final   41.88 input   66.30 | X-H torsion
[ 10763 10752 10751 10750 ] final  173.10 input  -60.55 | X-H torsion
[ 11005 11000 10999 10996 ] final  134.11 input  -57.11 | X-H torsion

> <Gold.Protein.ActiveResidues>
 VAL166  LYS551  ARG553  GLY616  TRP617  ASP618  TYR619  PRO620  LYS621  CYS622 
 ASP623  PHE694  ASN695  SER759  ASP760  ASP761  ALA762  ILE779  LEU786  VAL792 
 PHE793  MET794  SER795  GLU796  ALA797  LYS798  CYS799  TRP800  GLU811  SER814 

> <Gold.Protein.RotatedAtoms>
  151.9466  135.0189  160.0539 H   0  0  0  0  0  0  0  0  0  0  0  0  # atno 6907 bound_to 6896
  152.1990  133.4822  159.5056 H   0  0  0  0  0  0  0  0  0  0  0  0  # atno 6908 bound_to 6896
  150.6950  134.1532  159.4191 H   0  0  0  0  0  0  0  0  0  0  0  0  # atno 6909 bound_to 6896
  145.3537  139.2433  143.3544 H   0  0  0  0  0  0  0  0  0  0  0  0  # atno 7974 bound_to 7965
  155.8744  140.3447  155.5843 H   0  0  0  0  0  0  0  0  0  0  0  0  # atno 8008 bound_to 7997
  155.7791  140.0856  157.2087 H   0  0  0  0  0  0  0  0  0  0  0  0  # atno 8009 bound_to 7997
  154.4019  140.1504  156.3019 H   0  0  0  0  0  0  0  0  0  0  0  0  # atno 8010 bound_to 7997
  140.1628  143.4106  152.1413 H   0  0  0  0  0  0  0  0  0  0  0  0  # atno 10167 bound_to 10162
  157.3986  130.7847  149.7329 H   0  0  0  0  0  0  0  0  0  0  0  0  # atno 10718 bound_to 10713
  154.4353  135.2761  155.1884 H   0  0  0  0  0  0  0  0  0  0  0  0  # atno 10763 bound_to 10752
  154.3773  135.6095  153.5775 H   0  0  0  0  0  0  0  0  0  0  0  0  # atno 10764 bound_to 10752
  152.9838  135.5872  154.4672 H   0  0  0  0  0  0  0  0  0  0  0  0  # atno 10765 bound_to 10752
  139.9894  134.9520  156.9820 H   0  0  0  0  0  0  0  0  0  0  0  0  # atno 11005 bound_to 11000
  146.2957  140.4158  142.8723 LP  0  0  0  0  0  0  0  0  0  0  0  0  # atno 17320 bound_to 7965
  144.8698  140.7256  143.6054 LP  0  0  0  0  0  0  0  0  0  0  0  0  # atno 17321 bound_to 7965
  139.5373  144.7222  151.4849 LP  0  0  0  0  0  0  0  0  0  0  0  0  # atno 17342 bound_to 10162
  140.6632  143.8454  150.6912 LP  0  0  0  0  0  0  0  0  0  0  0  0  # atno 17343 bound_to 10162
  155.9817  130.4017  150.3457 LP  0  0  0  0  0  0  0  0  0  0  0  0  # atno 17370 bound_to 10713
  157.1582  131.0338  151.2853 LP  0  0  0  0  0  0  0  0  0  0  0  0  # atno 17371 bound_to 10713
  140.4938  134.1166  155.7237 LP  0  0  0  0  0  0  0  0  0  0  0  0  # atno 17394 bound_to 11000
  141.1553  133.8895  157.1994 LP  0  0  0  0  0  0  0  0  0  0  0  0  # atno 17395 bound_to 11000

$$$$
