AV-unprocessed.smi:960|AV-procd|sdf|4271|dock1
  -GOLD-   22720 2173D 1   1.00000     0.00000
 Structure written by MMmdl.
 46 47  0  0  0  0  0  0  0  0  2 V2000
  146.0990  132.8503  150.5838 C   0  0  0  0  0  0  0  0  0  0  0  0
  145.2344  132.0454  151.2237 C   0  0  0  0  0  0  0  0  0  0  0  0
  143.7944  131.8918  150.7683 C   0  0  0  0  0  0  0  0  0  0  0  0
  145.6559  131.2141  152.4256 C   0  0  0  0  0  0  0  0  0  0  0  0
  146.7766  130.2857  152.1218 N   0  3  2  0  0  0  0  0  0  0  0  0
  146.3034  129.0813  151.3915 C   0  0  0  0  0  0  0  0  0  0  0  0
  147.4782  128.1986  150.9417 C   0  0  0  0  0  0  0  0  0  0  0  0
  148.3515  127.7852  152.1399 C   0  0  1  0  0  0  0  0  0  0  0  0
  149.5195  127.0272  151.7005 N   0  0  0  0  0  0  0  0  0  0  0  0
  149.4798  125.9074  150.9644 C   0  0  0  0  0  0  0  0  0  0  0  0
  148.4357  125.3849  150.5758 O   0  0  0  0  0  0  0  0  0  0  0  0
  150.7116  125.4305  150.7301 N   0  0  0  0  0  0  0  0  0  0  0  0
  151.0472  124.2742  149.9819 C   0  0  0  0  0  0  0  0  0  0  0  0
  150.3289  123.6332  148.9298 C   0  0  0  0  0  0  0  0  0  0  0  0
  149.0136  123.9692  148.2841 C   0  0  0  0  0  0  0  0  0  0  0  0
  151.0217  122.5986  148.4770 N   0  0  0  0  0  0  0  0  0  0  0  0
  152.2213  122.5666  149.2042 O   0  0  0  0  0  0  0  0  0  0  0  0
  152.2246  123.5951  150.0916 C   0  0  0  0  0  0  0  0  0  0  0  0
  153.4343  123.7455  150.9506 C   0  0  0  0  0  0  0  0  0  0  0  0
  148.8022  129.0431  152.8980 C   0  0  0  0  0  0  0  0  0  0  0  0
  147.6041  129.9194  153.3024 C   0  0  0  0  0  0  0  0  0  0  0  0
  145.7959  133.4293  149.7234 H   0  0  0  0  0  0  0  0  0  0  0  0
  147.1245  132.9425  150.9109 H   0  0  0  0  0  0  0  0  0  0  0  0
  143.6218  130.8731  150.4205 H   0  0  0  0  0  0  0  0  0  0  0  0
  143.5640  132.5705  149.9465 H   0  0  0  0  0  0  0  0  0  0  0  0
  143.0943  132.0930  151.5775 H   0  0  0  0  0  0  0  0  0  0  0  0
  145.9132  131.8624  153.2649 H   0  0  0  0  0  0  0  0  0  0  0  0
  144.7883  130.6319  152.7400 H   0  0  0  0  0  0  0  0  0  0  0  0
  145.6282  128.5097  152.0303 H   0  0  0  0  0  0  0  0  0  0  0  0
  145.7288  129.3838  150.5151 H   0  0  0  0  0  0  0  0  0  0  0  0
  147.0936  127.3150  150.4308 H   0  0  0  0  0  0  0  0  0  0  0  0
  148.0807  128.7401  150.2108 H   0  0  0  0  0  0  0  0  0  0  0  0
  147.7610  127.1665  152.8187 H   0  0  0  0  0  0  0  0  0  0  0  0
  150.4238  127.3781  151.9807 H   0  0  0  0  0  0  0  0  0  0  0  0
  151.4756  125.8847  151.2086 H   0  0  0  0  0  0  0  0  0  0  0  0
  148.8560  125.0472  148.2491 H   0  0  0  0  0  0  0  0  0  0  0  0
  148.1831  123.5239  148.8318 H   0  0  0  0  0  0  0  0  0  0  0  0
  148.9662  123.6017  147.2585 H   0  0  0  0  0  0  0  0  0  0  0  0
  153.4180  124.6929  151.4893 H   0  0  0  0  0  0  0  0  0  0  0  0
  154.3423  123.7161  150.3484 H   0  0  0  0  0  0  0  0  0  0  0  0
  153.4878  122.9410  151.6838 H   0  0  0  0  0  0  0  0  0  0  0  0
  149.3672  128.7615  153.7873 H   0  0  0  0  0  0  0  0  0  0  0  0
  149.4800  129.6284  152.2744 H   0  0  0  0  0  0  0  0  0  0  0  0
  147.9929  130.8159  153.7820 H   0  0  0  0  0  0  0  0  0  0  0  0
  146.9861  129.4016  154.0378 H   0  0  0  0  0  0  0  0  0  0  0  0
  147.3860  130.7803  151.4861 H   0  0  0  0  0  0  0  0  0  0  0  0
  1  2  2  0  0  0  0
  1 22  1  0  0  0  0
  1 23  1  0  0  0  0
  2  3  1  0  0  0  0
  2  4  1  0  0  0  0
  3 24  1  0  0  0  0
  3 25  1  0  0  0  0
  3 26  1  0  0  0  0
  4  5  1  0  0  0  0
  4 27  1  0  0  0  0
  4 28  1  0  0  0  0
  5 21  1  0  0  0  0
  5  6  1  0  0  0  0
  5 46  1  0  0  0  0
  6  7  1  0  0  0  0
  6 29  1  0  0  0  0
  6 30  1  0  0  0  0
  7  8  1  0  0  0  0
  7 31  1  0  0  0  0
  7 32  1  0  0  0  0
  8  9  1  0  0  0  0
  8 20  1  0  0  0  0
  8 33  1  0  0  0  0
  9 10  1  0  0  0  0
  9 34  1  0  0  0  0
 10 11  2  0  0  0  0
 10 12  1  0  0  0  0
 12 13  1  0  0  0  0
 12 35  1  0  0  0  0
 13 18  2  0  0  0  0
 13 14  1  0  0  0  0
 14 15  1  0  0  0  0
 14 16  2  0  0  0  0
 15 36  1  0  0  0  0
 15 37  1  0  0  0  0
 15 38  1  0  0  0  0
 16 17  1  0  0  0  0
 17 18  1  0  0  0  0
 18 19  1  0  0  0  0
 19 39  1  0  0  0  0
 19 40  1  0  0  0  0
 19 41  1  0  0  0  0
 20 21  1  0  0  0  0
 20 42  1  0  0  0  0
 20 43  1  0  0  0  0
 21 44  1  0  0  0  0
 21 45  1  0  0  0  0
M  CHG  1   5   1
M  END
> <s_m_source_file>
AV-unprocessed.smi

> <i_m_source_file_index>
960

> <i_lp_mmshare_version>
43012

> <i_f3d_flags>
0

> <s_epik_input>
W0NIMl09QyhbQ0gzXSlbQ0gyXU4xW0NIMl1bQ0gyXVtDSF0oW0NIMl1bQ0gyXTEpW05IXUMoPU8pW05IXWMyYyhbQ0gzXSlub2MyW0NIM10=

> <s_epik_cmdline>
J2VwaWtfcHl0aG9uJywgJy1waCcsICc3LjAnLCAnLXRuJywgJzgnLCAnLW1hJywgJzIwMCcsICctbWV0YWxfYmluZGluZycsICctaW1hZScsICc8aW5maWxlLm1hZT4nLCAnLW9tYWUnLCAnPG91dGZpbGUubWFlPic=

> <r_epik_Ionization_Penalty>
0.01938

> <r_epik_Ionization_Penalty_Charging>
0.0193505

> <r_epik_Ionization_Penalty_Neutral>
2.94909e-05

> <r_epik_State_Penalty>
0.0154499

> <r_epik_Charging_Adjusted_Penalty>
0.0348004

> <i_epik_Tot_Q>
1

> <i_epik_Tot_abs_Q>
1

> <r_epik_Metal_State_Penalty>
0.0154499

> <b_epik_Metal_Only>
0

> <s_lp_Force_Field>
OPLS_2005

> <r_lp_Energy>
20.2595

> <b_lp_Chiralities_Consistent>
1

> <s_lp_Variant>
AV-unprocessed.smi:960-1

> <Gold.Version>
5.8.1

> <Gold.Id.Protein>
6NUR|6NUR_protein|mol2

> <Gold.PLP.Fitness>
42.7750

> <Gold.PLP.PLP>
-34.7049

> <Gold.PLP.part.hbond>
-3.0000

> <Gold.PLP.part.metal>
0.0000

> <Gold.PLP.part.buried>
-4.6265

> <Gold.PLP.part.nonpolar>
-26.6439

> <Gold.PLP.part.repulsive>
0.2054

> <Gold.PLP.ligand.clash>
0.0000

> <Gold.PLP.ligand.torsion>
0.3571

> <Gold.PLP.Chemscore.Hbond>
2.7840

> <Gold.PLP.Chemscore.CHOScore>
0.0000

> <Gold.PLP.Chemscore.Metal>
0.0000

> <Gold.Chemscore.Hbonds>
donor molecule, donor type, donor heavy atom, donor atom, acceptor molecule, acceptor atom, score
      L1  H     5    46       P1 10747  1.00
      L1  H     9    34       P1 10737  1.00
      L1  H    12    35       P1 10737  0.78

> <Gold.PLP.Chemscore.Internal.Correction>
0.4323

> <Gold.Rescore>
     Score         DG    S(hbond)    S(metal)    S(lipo)     H(rot)  DE(clash)    DE(int)     intcor
     19.95     -21.91       2.78        0.00      90.58       1.35       0.26       1.70       ----

> <Gold.Chemscore.Fitness>
19.9497

> <Gold.Chemscore.DG>
-21.9113

> <Gold.Chemscore.ZeroCoef>
-5.4800

> <Gold.Chemscore.Hbond>
2.7799

> <Gold.Chemscore.Metal>
0.0000

> <Gold.Chemscore.Lipo>
90.5763

> <Gold.Chemscore.Internal_Hbond>
0.0000

> <Gold.Chemscore.DEClash>
0.2608

> <Gold.Chemscore.DEInternal>
1.7008

> <Gold.Chemscore.Rot>
1.3480

> <Gold.Chemscore.Internal.Correction>
   9.000000E+99

> <Gold.Chemscore.Hbonds>
donor molecule, donor type, donor heavy atom, donor atom, acceptor molecule, acceptor atom, score
      L1  H     5    46       P1 10747  0.92
      L1  H     9    34       P1 10737  0.96
      L1  H    12    35       P1 10737  0.77

> <Gold.Chemscore.Hbond.Weighted>
-9.2848

> <Gold.Chemscore.Metal.Weighted>
-0.0000

> <Gold.Chemscore.Lipo.Weighted>
-10.5974

> <Gold.Chemscore.Internal_Hbond.Weighted>
0.0000

> <Gold.Chemscore.DEClash.Weighted>
0.2608

> <Gold.Chemscore.DEInternal.Weighted>
1.7008

> <Gold.Chemscore.Rot.Weighted>
3.4509

> <Gold.Chemscore.Internal.Correction.Weighted>
   9.000000E+99

> <Gold.Protein.RotatedTorsions>
[ 6907 6896 6895 6894 ] final  -38.60 input  -60.11 | X-H torsion
[ 7974 7965 7964 7962 ] final  151.92 input  175.53 | X-H torsion
[ 8008 7997 7996 7995 ] final  -49.56 input   59.86 | X-H torsion
[ 10167 10162 10161 10158 ] final   -7.13 input  -65.29 | X-H torsion
[ 10718 10713 10712 10709 ] final  -36.72 input   66.30 | X-H torsion
[ 10763 10752 10751 10750 ] final -120.29 input  -60.55 | X-H torsion
[ 11005 11000 10999 10996 ] final -138.99 input  -57.11 | X-H torsion

> <Gold.Protein.ActiveResidues>
 VAL166  LYS551  ARG553  GLY616  TRP617  ASP618  TYR619  PRO620  LYS621  CYS622 
 ASP623  PHE694  ASN695  SER759  ASP760  ASP761  ALA762  ILE779  LEU786  VAL792 
 PHE793  MET794  SER795  GLU796  ALA797  LYS798  CYS799  TRP800  GLU811  SER814 

> <Gold.Protein.RotatedAtoms>
  151.0004  134.9317  159.7950 H   0  0  0  0  0  0  0  0  0  0  0  0  # atno 6907 bound_to 6896
  152.5276  134.3162  159.9141 H   0  0  0  0  0  0  0  0  0  0  0  0  # atno 6908 bound_to 6896
  151.3167  133.4016  159.2685 H   0  0  0  0  0  0  0  0  0  0  0  0  # atno 6909 bound_to 6896
  144.8259  139.6600  143.6080 H   0  0  0  0  0  0  0  0  0  0  0  0  # atno 7974 bound_to 7965
  154.4046  140.1294  156.4522 H   0  0  0  0  0  0  0  0  0  0  0  0  # atno 8008 bound_to 7997
  155.7355  140.3490  155.5059 H   0  0  0  0  0  0  0  0  0  0  0  0  # atno 8009 bound_to 7997
  155.9088  140.1032  157.1285 H   0  0  0  0  0  0  0  0  0  0  0  0  # atno 8010 bound_to 7997
  140.7019  143.6116  150.8699 H   0  0  0  0  0  0  0  0  0  0  0  0  # atno 10167 bound_to 10162
  156.3235  130.4269  149.7938 H   0  0  0  0  0  0  0  0  0  0  0  0  # atno 10718 bound_to 10713
  154.8640  135.4208  154.2436 H   0  0  0  0  0  0  0  0  0  0  0  0  # atno 10763 bound_to 10752
  153.3397  135.6993  153.6883 H   0  0  0  0  0  0  0  0  0  0  0  0  # atno 10764 bound_to 10752
  153.5867  135.3562  155.2868 H   0  0  0  0  0  0  0  0  0  0  0  0  # atno 10765 bound_to 10752
  140.8563  134.2224  157.4733 H   0  0  0  0  0  0  0  0  0  0  0  0  # atno 11005 bound_to 11000
  146.2564  139.6311  142.9392 LP  0  0  0  0  0  0  0  0  0  0  0  0  # atno 17320 bound_to 7965
  145.5002  141.0437  143.2544 LP  0  0  0  0  0  0  0  0  0  0  0  0  # atno 17321 bound_to 7965
  139.9838  143.5921  152.2934 LP  0  0  0  0  0  0  0  0  0  0  0  0  # atno 17342 bound_to 10162
  139.6552  144.7662  151.2070 LP  0  0  0  0  0  0  0  0  0  0  0  0  # atno 17343 bound_to 10162
  156.5237  130.8226  151.3212 LP  0  0  0  0  0  0  0  0  0  0  0  0  # atno 17370 bound_to 10713
  157.7416  130.9874  150.2461 LP  0  0  0  0  0  0  0  0  0  0  0  0  # atno 17371 bound_to 10713
  139.8705  134.9708  156.4713 LP  0  0  0  0  0  0  0  0  0  0  0  0  # atno 17394 bound_to 11000
  140.8734  133.7971  155.9388 LP  0  0  0  0  0  0  0  0  0  0  0  0  # atno 17395 bound_to 11000

$$$$
