AV-unprocessed.smi:2785|AV-procd|sdf|10746|dock5
  -GOLD-   2272015183D 1   1.00000     0.00000
 Structure written by MMmdl.
 37 38  0  0  0  0  0  0  0  0  1 V2000
  149.6579  141.7741  156.8616 C   0  0  0  0  0  0  0  0  0  0  0  0
  149.7791  140.3713  156.2457 C   0  0  0  0  0  0  0  0  0  0  0  0
  151.2051  140.0913  155.7376 C   0  0  0  0  0  0  0  0  0  0  0  0
  148.7579  140.1829  155.2056 N   0  0  0  0  0  0  0  0  0  0  0  0
  148.7922  140.8971  153.9396 C   0  0  0  0  0  0  0  0  0  0  0  0
  147.4408  140.6011  153.2819 C   0  0  0  0  0  0  0  0  0  0  0  0
  146.8287  139.4123  154.0408 C   0  0  1  0  0  0  0  0  0  0  0  0
  146.9720  138.1905  153.2521 N   0  0  0  0  0  0  0  0  0  0  0  0
  145.9784  137.3386  152.9588 C   0  0  0  0  0  0  0  0  0  0  0  0
  144.8110  137.5102  153.3105 O   0  0  0  0  0  0  0  0  0  0  0  0
  146.4301  136.2936  152.2430 N   0  0  0  0  0  0  0  0  0  0  0  0
  145.6962  135.1776  151.7598 C   0  0  0  0  0  0  0  0  0  0  0  0
  146.4821  134.1258  151.2364 C   0  0  0  0  0  0  0  0  0  0  0  0
  145.8499  132.9722  150.7329 C   0  0  0  0  0  0  0  0  0  0  0  0
  144.4460  132.9018  150.7668 C   0  0  0  0  0  0  0  0  0  0  0  0
  143.7938  131.8131  150.2945 F   0  0  0  0  0  0  0  0  0  0  0  0
  143.7369  133.9919  151.3040 C   0  0  0  0  0  0  0  0  0  0  0  0
  144.3418  135.0983  151.7866 N   0  0  0  0  0  0  0  0  0  0  0  0
  147.7171  139.3420  155.2817 C   0  0  0  0  0  0  0  0  0  0  0  0
  147.4626  138.6021  156.2317 O   0  0  0  0  0  0  0  0  0  0  0  0
  150.3787  141.9109  157.6679 H   0  0  0  0  0  0  0  0  0  0  0  0
  148.6642  141.9395  157.2792 H   0  0  0  0  0  0  0  0  0  0  0  0
  149.8397  142.5503  156.1173 H   0  0  0  0  0  0  0  0  0  0  0  0
  149.5862  139.6460  157.0381 H   0  0  0  0  0  0  0  0  0  0  0  0
  151.9245  140.1512  156.5546 H   0  0  0  0  0  0  0  0  0  0  0  0
  151.5154  140.8101  154.9788 H   0  0  0  0  0  0  0  0  0  0  0  0
  151.2826  139.0917  155.3093 H   0  0  0  0  0  0  0  0  0  0  0  0
  148.9418  141.9678  154.0851 H   0  0  0  0  0  0  0  0  0  0  0  0
  149.6080  140.5141  153.3250 H   0  0  0  0  0  0  0  0  0  0  0  0
  146.7898  141.4691  153.3965 H   0  0  0  0  0  0  0  0  0  0  0  0
  147.5399  140.4228  152.2100 H   0  0  0  0  0  0  0  0  0  0  0  0
  145.7881  139.6048  154.3084 H   0  0  0  0  0  0  0  0  0  0  0  0
  147.9005  137.9701  152.9237 H   0  0  0  0  0  0  0  0  0  0  0  0
  147.4153  136.2919  152.0250 H   0  0  0  0  0  0  0  0  0  0  0  0
  147.5601  134.1973  151.2193 H   0  0  0  0  0  0  0  0  0  0  0  0
  146.4323  132.1573  150.3286 H   0  0  0  0  0  0  0  0  0  0  0  0
  142.6580  133.9767  151.3479 H   0  0  0  0  0  0  0  0  0  0  0  0
  1  2  1  0  0  0  0
  1 21  1  0  0  0  0
  1 22  1  0  0  0  0
  1 23  1  0  0  0  0
  2  3  1  0  0  0  0
  2  4  1  0  0  0  0
  2 24  1  0  0  0  0
  3 25  1  0  0  0  0
  3 26  1  0  0  0  0
  3 27  1  0  0  0  0
  4 19  1  0  0  0  0
  4  5  1  0  0  0  0
  5  6  1  0  0  0  0
  5 28  1  0  0  0  0
  5 29  1  0  0  0  0
  6  7  1  0  0  0  0
  6 30  1  0  0  0  0
  6 31  1  0  0  0  0
  7  8  1  0  0  0  0
  7 19  1  0  0  0  0
  7 32  1  0  0  0  0
  8  9  1  0  0  0  0
  8 33  1  0  0  0  0
  9 10  2  0  0  0  0
  9 11  1  0  0  0  0
 11 12  1  0  0  0  0
 11 34  1  0  0  0  0
 12 18  1  0  0  0  0
 12 13  2  0  0  0  0
 13 14  1  0  0  0  0
 13 35  1  0  0  0  0
 14 15  2  0  0  0  0
 14 36  1  0  0  0  0
 15 16  1  0  0  0  0
 15 17  1  0  0  0  0
 17 18  2  0  0  0  0
 17 37  1  0  0  0  0
 19 20  2  0  0  0  0
M  END
> <s_m_source_file>
AV-unprocessed.smi

> <i_m_source_file_index>
2785

> <i_lp_mmshare_version>
43012

> <i_f3d_flags>
0

> <s_epik_input>
W0NIM11bQ0hdKFtDSDNdKU4xW0NIMl1bQ0gyXVtDQEhdKEMxPU8pW05IXUMoPU8pW05IXWMyW2NIXVtjSF1jKEYpW2NIXW4y

> <s_epik_cmdline>
J2VwaWtfcHl0aG9uJywgJy1waCcsICc3LjAnLCAnLXRuJywgJzgnLCAnLW1hJywgJzIwMCcsICctbWV0YWxfYmluZGluZycsICctaW1hZScsICc8aW5maWxlLm1hZT4nLCAnLW9tYWUnLCAnPG91dGZpbGUubWFlPic=

> <r_lp_tautomer_probability>
1

> <r_epik_Ionization_Penalty>
3.20266e-05

> <r_epik_Ionization_Penalty_Charging>
0

> <r_epik_Ionization_Penalty_Neutral>
3.20266e-05

> <r_epik_State_Penalty>
-0

> <r_epik_Charging_Adjusted_Penalty>
0

> <i_epik_Tot_Q>
0

> <i_epik_Tot_abs_Q>
0

> <r_epik_Metal_State_Penalty>
-0

> <b_epik_Metal_Only>
0

> <s_lp_Force_Field>
OPLS_2005

> <r_lp_Energy>
23.6271

> <b_lp_Chiralities_Consistent>
1

> <s_lp_Variant>
AV-unprocessed.smi:2785-1

> <Gold.Version>
5.8.1

> <Gold.Id.Protein>
6NUR|6NUR_protein|mol2

> <Gold.PLP.Fitness>
35.1541

> <Gold.PLP.PLP>
-28.5281

> <Gold.PLP.part.hbond>
-1.7600

> <Gold.PLP.part.metal>
0.0000

> <Gold.PLP.part.buried>
-1.3907

> <Gold.PLP.part.nonpolar>
-26.2935

> <Gold.PLP.part.repulsive>
0.3745

> <Gold.PLP.ligand.clash>
0.0000

> <Gold.PLP.ligand.torsion>
0.1388

> <Gold.PLP.Chemscore.Hbond>
1.2908

> <Gold.PLP.Chemscore.CHOScore>
0.9862

> <Gold.PLP.Chemscore.Metal>
0.0000

> <Gold.Chemscore.Hbonds>
donor molecule, donor type, donor heavy atom, donor atom, acceptor molecule, acceptor atom, score
      L1  H     8    33       P1  7948  0.29
      L1  H    11    34       P1  7948  0.99
      L1  C    17    37       P1 10186  1.00

> <Gold.PLP.Chemscore.Internal.Correction>
0.0726

> <Gold.Rescore>
     Score         DG    S(hbond)    S(metal)    S(lipo)     H(rot)  DE(clash)    DE(int)     intcor
     13.85     -15.30       1.81        0.00      60.41       1.29       0.13       1.33       ----

> <Gold.Chemscore.Fitness>
13.8492

> <Gold.Chemscore.DG>
-15.3027

> <Gold.Chemscore.ZeroCoef>
-5.4800

> <Gold.Chemscore.Hbond>
1.8115

> <Gold.Chemscore.Metal>
0.0000

> <Gold.Chemscore.Lipo>
60.4108

> <Gold.Chemscore.Internal_Hbond>
0.0000

> <Gold.Chemscore.DEClash>
0.1262

> <Gold.Chemscore.DEInternal>
1.3274

> <Gold.Chemscore.Rot>
1.2875

> <Gold.Chemscore.Internal.Correction>
   9.000000E+99

> <Gold.Chemscore.Hbonds>
donor molecule, donor type, donor heavy atom, donor atom, acceptor molecule, acceptor atom, score
      L1  H     8    33       P1  7948  0.28
      L1  H    11    34       P1  7948  0.92

> <Gold.Chemscore.Hbond.Weighted>
-6.0506

> <Gold.Chemscore.Metal.Weighted>
-0.0000

> <Gold.Chemscore.Lipo.Weighted>
-7.0681

> <Gold.Chemscore.Internal_Hbond.Weighted>
0.0000

> <Gold.Chemscore.DEClash.Weighted>
0.1262

> <Gold.Chemscore.DEInternal.Weighted>
1.3274

> <Gold.Chemscore.Rot.Weighted>
3.2959

> <Gold.Chemscore.Internal.Correction.Weighted>
   9.000000E+99

> <Gold.Protein.RotatedTorsions>
[ 6907 6896 6895 6894 ] final   74.16 input  -60.11 | X-H torsion
[ 7974 7965 7964 7962 ] final -109.17 input  175.53 | X-H torsion
[ 8008 7997 7996 7995 ] final   19.73 input   59.86 | X-H torsion
[ 10167 10162 10161 10158 ] final  129.58 input  -65.29 | X-H torsion
[ 10718 10713 10712 10709 ] final -119.78 input   66.30 | X-H torsion
[ 10763 10752 10751 10750 ] final -127.61 input  -60.55 | X-H torsion
[ 11005 11000 10999 10996 ] final  130.93 input  -57.11 | X-H torsion

> <Gold.Protein.ActiveResidues>
 VAL166  LYS551  ARG553  GLY616  TRP617  ASP618  TYR619  PRO620  LYS621  CYS622 
 ASP623  PHE694  ASN695  SER759  ASP760  ASP761  ALA762  ILE779  LEU786  VAL792 
 PHE793  MET794  SER795  GLU796  ALA797  LYS798  CYS799  TRP800  GLU811  SER814 

> <Gold.Protein.RotatedAtoms>
  152.4961  134.4313  159.9512 H   0  0  0  0  0  0  0  0  0  0  0  0  # atno 6907 bound_to 6896
  151.4292  133.3669  159.2774 H   0  0  0  0  0  0  0  0  0  0  0  0  # atno 6908 bound_to 6896
  150.9167  134.8607  159.7521 H   0  0  0  0  0  0  0  0  0  0  0  0  # atno 6909 bound_to 6896
  145.1838  140.8983  143.3464 H   0  0  0  0  0  0  0  0  0  0  0  0  # atno 7974 bound_to 7965
  154.9250  140.3032  155.5197 H   0  0  0  0  0  0  0  0  0  0  0  0  # atno 8008 bound_to 7997
  156.3007  140.2364  156.4240 H   0  0  0  0  0  0  0  0  0  0  0  0  # atno 8009 bound_to 7997
  154.8293  140.0419  157.1454 H   0  0  0  0  0  0  0  0  0  0  0  0  # atno 8010 bound_to 7997
  139.5471  144.6782  151.4440 H   0  0  0  0  0  0  0  0  0  0  0  0  # atno 10167 bound_to 10162
  156.1207  130.6321  150.9459 H   0  0  0  0  0  0  0  0  0  0  0  0  # atno 10718 bound_to 10713
  154.8753  135.3956  154.3622 H   0  0  0  0  0  0  0  0  0  0  0  0  # atno 10763 bound_to 10752
  153.4393  135.7026  153.6185 H   0  0  0  0  0  0  0  0  0  0  0  0  # atno 10764 bound_to 10752
  153.4773  135.3777  155.2392 H   0  0  0  0  0  0  0  0  0  0  0  0  # atno 10765 bound_to 10752
  139.9701  134.9580  156.9365 H   0  0  0  0  0  0  0  0  0  0  0  0  # atno 11005 bound_to 11000
  145.0110  139.3510  143.6120 LP  0  0  0  0  0  0  0  0  0  0  0  0  # atno 17320 bound_to 7965
  146.3448  139.9372  142.8746 LP  0  0  0  0  0  0  0  0  0  0  0  0  # atno 17321 bound_to 7965
  140.6722  143.8269  150.7013 LP  0  0  0  0  0  0  0  0  0  0  0  0  # atno 17342 bound_to 10162
  140.1696  143.4205  152.2010 LP  0  0  0  0  0  0  0  0  0  0  0  0  # atno 17343 bound_to 10162
  157.6391  131.0912  150.8288 LP  0  0  0  0  0  0  0  0  0  0  0  0  # atno 17370 bound_to 10713
  156.8385  130.5040  149.5323 LP  0  0  0  0  0  0  0  0  0  0  0  0  # atno 17371 bound_to 10713
  140.5312  134.0811  155.7316 LP  0  0  0  0  0  0  0  0  0  0  0  0  # atno 17394 bound_to 11000
  141.1380  133.9187  157.2390 LP  0  0  0  0  0  0  0  0  0  0  0  0  # atno 17395 bound_to 11000

$$$$
