AV-unprocessed.smi:263|AV-procd|sdf|2003|dock2
  -GOLD-   2262021193D 1   1.00000     0.00000
 Structure written by MMmdl.
 57 61  0  0  0  0  0  0  0  0  1 V2000
  149.5571  133.8803  158.0077 O   0  0  0  0  0  0  0  0  0  0  0  0
  149.8308  133.9732  156.6200 C   0  0  0  0  0  0  0  0  0  0  0  0
  149.0132  135.1644  156.0612 C   0  0  0  0  0  0  0  0  0  0  0  0
  149.4797  136.4642  156.5198 N   0  0  0  0  0  0  0  0  0  0  0  0
  149.4818  136.9330  157.8140 C   0  0  0  0  0  0  0  0  0  0  0  0
  149.9592  138.1379  157.9683 N   0  0  0  0  0  0  0  0  0  0  0  0
  150.3144  138.5310  156.6830 C   0  0  0  0  0  0  0  0  0  0  0  0
  150.8869  139.7111  156.1287 C   0  0  0  0  0  0  0  0  0  0  0  0
  151.2466  140.7791  156.8861 N   0  0  0  0  0  0  0  0  0  0  0  0
  150.5899  142.0319  156.5124 C   0  0  0  0  0  0  0  0  0  0  0  0
  151.2926  143.2460  157.1498 C   0  0  0  0  0  0  0  0  0  0  0  0
  151.4493  143.0888  158.6770 C   0  0  2  0  0  0  0  0  0  0  0  0
  150.1489  143.1086  159.2439 O   0  0  0  0  0  0  0  0  0  0  0  0
  152.2467  144.2594  159.2945 C   0  0  0  0  0  0  0  0  0  0  0  0
  152.5063  144.0599  160.8001 C   0  0  0  0  0  0  0  0  0  0  0  0
  153.1864  142.7109  161.0835 C   0  0  0  0  0  0  0  0  0  0  0  0
  152.3859  141.5406  160.4887 C   0  0  0  0  0  0  0  0  0  0  0  0
  152.1541  141.7407  158.9783 C   0  0  1  0  0  0  0  0  0  0  0  0
  151.4107  140.5601  158.3250 C   0  0  0  0  0  0  0  0  0  0  0  0
  151.0755  139.7398  154.7816 N   0  0  0  0  0  0  0  0  0  0  0  0
  150.7382  138.6885  154.0288 C   0  0  0  0  0  0  0  0  0  0  0  0
  150.2049  137.5267  154.4100 N   0  0  0  0  0  0  0  0  0  0  0  0
  150.0068  137.4929  155.7587 C   0  0  0  0  0  0  0  0  0  0  0  0
  151.3539  134.1551  156.4359 C   0  0  0  0  0  0  0  0  0  0  0  0
  152.1388  132.8843  156.8066 C   0  0  0  0  0  0  0  0  0  0  0  0
  151.6546  131.7754  156.0591 O   0  0  0  0  0  0  0  0  0  0  0  0
  150.2951  131.4727  156.3474 C   0  0  0  0  0  0  0  0  0  0  0  0
  149.3945  132.6555  155.9475 C   0  0  0  0  0  0  0  0  0  0  0  0
  148.6369  134.0459  158.1440 H   0  0  0  0  0  0  0  0  0  0  0  0
  149.0500  135.1607  154.9709 H   0  0  0  0  0  0  0  0  0  0  0  0
  147.9598  135.0643  156.3267 H   0  0  0  0  0  0  0  0  0  0  0  0
  149.1199  136.3473  158.6466 H   0  0  0  0  0  0  0  0  0  0  0  0
  150.5701  142.1618  155.4311 H   0  0  0  0  0  0  0  0  0  0  0  0
  149.5491  141.9890  156.8354 H   0  0  0  0  0  0  0  0  0  0  0  0
  152.2773  143.3592  156.6942 H   0  0  0  0  0  0  0  0  0  0  0  0
  150.7425  144.1579  156.9141 H   0  0  0  0  0  0  0  0  0  0  0  0
  150.0873  143.8525  159.8233 H   0  0  0  0  0  0  0  0  0  0  0  0
  153.2062  144.3523  158.7839 H   0  0  0  0  0  0  0  0  0  0  0  0
  151.7248  145.2034  159.1312 H   0  0  0  0  0  0  0  0  0  0  0  0
  153.1258  144.8731  161.1794 H   0  0  0  0  0  0  0  0  0  0  0  0
  151.5645  144.1144  161.3474 H   0  0  0  0  0  0  0  0  0  0  0  0
  154.1922  142.7156  160.6615 H   0  0  0  0  0  0  0  0  0  0  0  0
  153.3038  142.5726  162.1587 H   0  0  0  0  0  0  0  0  0  0  0  0
  152.9228  140.6075  160.6622 H   0  0  0  0  0  0  0  0  0  0  0  0
  151.4309  141.4459  161.0068 H   0  0  0  0  0  0  0  0  0  0  0  0
  153.1417  141.7801  158.5147 H   0  0  0  0  0  0  0  0  0  0  0  0
  150.4323  140.4240  158.7882 H   0  0  0  0  0  0  0  0  0  0  0  0
  151.9757  139.6420  158.4931 H   0  0  0  0  0  0  0  0  0  0  0  0
  150.9243  138.7925  152.9700 H   0  0  0  0  0  0  0  0  0  0  0  0
  151.5627  134.3985  155.3935 H   0  0  0  0  0  0  0  0  0  0  0  0
  151.7213  134.9950  157.0270 H   0  0  0  0  0  0  0  0  0  0  0  0
  153.1965  133.0228  156.5826 H   0  0  0  0  0  0  0  0  0  0  0  0
  152.0684  132.6765  157.8754 H   0  0  0  0  0  0  0  0  0  0  0  0
  150.0094  130.5822  155.7875 H   0  0  0  0  0  0  0  0  0  0  0  0
  150.1805  131.2296  157.4048 H   0  0  0  0  0  0  0  0  0  0  0  0
  148.3536  132.4301  156.1833 H   0  0  0  0  0  0  0  0  0  0  0  0
  149.4424  132.7709  154.8639 H   0  0  0  0  0  0  0  0  0  0  0  0
  1  2  1  0  0  0  0
  1 29  1  0  0  0  0
  2 28  1  0  0  0  0
  2  3  1  0  0  0  0
  2 24  1  0  0  0  0
  3  4  1  0  0  0  0
  3 30  1  0  0  0  0
  3 31  1  0  0  0  0
  4 23  1  0  0  0  0
  4  5  1  0  0  0  0
  5  6  2  0  0  0  0
  5 32  1  0  0  0  0
  6  7  1  0  0  0  0
  7 23  2  0  0  0  0
  7  8  1  0  0  0  0
  8  9  1  0  0  0  0
  8 20  2  0  0  0  0
  9 19  1  0  0  0  0
  9 10  1  0  0  0  0
 10 11  1  0  0  0  0
 10 33  1  0  0  0  0
 10 34  1  0  0  0  0
 11 12  1  0  0  0  0
 11 35  1  0  0  0  0
 11 36  1  0  0  0  0
 12 18  1  0  0  0  0
 12 13  1  0  0  0  0
 12 14  1  0  0  0  0
 13 37  1  0  0  0  0
 14 15  1  0  0  0  0
 14 38  1  0  0  0  0
 14 39  1  0  0  0  0
 15 16  1  0  0  0  0
 15 40  1  0  0  0  0
 15 41  1  0  0  0  0
 16 17  1  0  0  0  0
 16 42  1  0  0  0  0
 16 43  1  0  0  0  0
 17 18  1  0  0  0  0
 17 44  1  0  0  0  0
 17 45  1  0  0  0  0
 18 19  1  0  0  0  0
 18 46  1  0  0  0  0
 19 47  1  0  0  0  0
 19 48  1  0  0  0  0
 20 21  1  0  0  0  0
 21 22  2  0  0  0  0
 21 49  1  0  0  0  0
 22 23  1  0  0  0  0
 24 25  1  0  0  0  0
 24 50  1  0  0  0  0
 24 51  1  0  0  0  0
 25 26  1  0  0  0  0
 25 52  1  0  0  0  0
 25 53  1  0  0  0  0
 26 27  1  0  0  0  0
 27 28  1  0  0  0  0
 27 54  1  0  0  0  0
 27 55  1  0  0  0  0
 28 56  1  0  0  0  0
 28 57  1  0  0  0  0
M  END
> <s_m_source_file>
AV-unprocessed.smi

> <i_m_source_file_index>
263

> <i_lp_mmshare_version>
43012

> <i_f3d_flags>
0

> <s_epik_input>
W0NIMl0xW0NIMl1PW0NIMl1bQ0gyXUMxKFtPSF0pW0NIMl1uKFtjSF1uMiljKGMyMyluW2NIXW5jM04oW0NIMl1bQ0gyXTQpW0NIMl1bQ0BASF0oW0NAXTQ1W09IXSlbQ0gyXVtDSDJdW0NIMl1bQ0gyXTU=

> <s_epik_cmdline>
J2VwaWtfcHl0aG9uJywgJy1waCcsICc3LjAnLCAnLXRuJywgJzgnLCAnLW1hJywgJzIwMCcsICctbWV0YWxfYmluZGluZycsICctaW1hZScsICc8aW5maWxlLm1hZT4nLCAnLW9tYWUnLCAnPG91dGZpbGUubWFlPic=

> <r_lp_tautomer_probability>
1

> <r_epik_Ionization_Penalty>
0.00747493

> <r_epik_Ionization_Penalty_Charging>
0

> <r_epik_Ionization_Penalty_Neutral>
0.00747493

> <r_epik_State_Penalty>
0.00549307

> <r_epik_Charging_Adjusted_Penalty>
0.00549307

> <i_epik_Tot_Q>
0

> <i_epik_Tot_abs_Q>
0

> <r_epik_Metal_State_Penalty>
-0

> <b_epik_Metal_Only>
0

> <s_lp_Force_Field>
OPLS_2005

> <r_lp_Energy>
38.6154

> <b_lp_Chiralities_Consistent>
1

> <s_lp_Variant>
AV-unprocessed.smi:263-1

> <Gold.Version>
5.8.1

> <Gold.Id.Protein>
6NUR|6NUR_protein|mol2

> <Gold.PLP.Fitness>
47.2319

> <Gold.PLP.PLP>
-38.9360

> <Gold.PLP.part.hbond>
-2.8214

> <Gold.PLP.part.metal>
0.0000

> <Gold.PLP.part.buried>
-7.0709

> <Gold.PLP.part.nonpolar>
-29.3245

> <Gold.PLP.part.repulsive>
0.5709

> <Gold.PLP.ligand.clash>
0.0000

> <Gold.PLP.ligand.torsion>
0.3239

> <Gold.PLP.Chemscore.Hbond>
2.0000

> <Gold.PLP.Chemscore.CHOScore>
0.8561

> <Gold.PLP.Chemscore.Metal>
0.0000

> <Gold.Chemscore.Hbonds>
donor molecule, donor type, donor heavy atom, donor atom, acceptor molecule, acceptor atom, score
      P1  H  6896  6908       L1     1  1.00
      P1  H  7989  7998       L1    20  1.00
      L1  C    21    49       P1  7957  0.84

> <Gold.PLP.Chemscore.Internal.Correction>
0.3754

> <Gold.Rescore>
     Score         DG    S(hbond)    S(metal)    S(lipo)     H(rot)  DE(clash)    DE(int)     intcor
     15.27     -17.50       1.57        0.00     115.24       2.62       0.55       1.69       ----

> <Gold.Chemscore.Fitness>
15.2669

> <Gold.Chemscore.DG>
-17.4995

> <Gold.Chemscore.ZeroCoef>
-5.4800

> <Gold.Chemscore.Hbond>
1.5725

> <Gold.Chemscore.Metal>
0.0000

> <Gold.Chemscore.Lipo>
115.2395

> <Gold.Chemscore.Internal_Hbond>
0.0000

> <Gold.Chemscore.DEClash>
0.5464

> <Gold.Chemscore.DEInternal>
1.6862

> <Gold.Chemscore.Rot>
2.6232

> <Gold.Chemscore.Internal.Correction>
   9.000000E+99

> <Gold.Chemscore.Hbonds>
donor molecule, donor type, donor heavy atom, donor atom, acceptor molecule, acceptor atom, score
      P1  H  6896  6908       L1     1  0.99
      P1  H  7989  7998       L1    20  0.26

> <Gold.Chemscore.Hbond.Weighted>
-5.2520

> <Gold.Chemscore.Metal.Weighted>
-0.0000

> <Gold.Chemscore.Lipo.Weighted>
-13.4830

> <Gold.Chemscore.Internal_Hbond.Weighted>
0.0000

> <Gold.Chemscore.DEClash.Weighted>
0.5464

> <Gold.Chemscore.DEInternal.Weighted>
1.6862

> <Gold.Chemscore.Rot.Weighted>
6.7155

> <Gold.Chemscore.Internal.Correction.Weighted>
   9.000000E+99

> <Gold.Protein.RotatedTorsions>
[ 6907 6896 6895 6894 ] final  130.94 input  -60.11 | X-H torsion
[ 7974 7965 7964 7962 ] final  173.18 input  175.53 | X-H torsion
[ 8008 7997 7996 7995 ] final  118.45 input   59.86 | X-H torsion
[ 10167 10162 10161 10158 ] final -157.41 input  -65.29 | X-H torsion
[ 10718 10713 10712 10709 ] final -136.80 input   66.30 | X-H torsion
[ 10763 10752 10751 10750 ] final  -25.50 input  -60.55 | X-H torsion
[ 11005 11000 10999 10996 ] final   45.23 input  -57.11 | X-H torsion

> <Gold.Protein.ActiveResidues>
 VAL166  LYS551  ARG553  GLY616  TRP617  ASP618  TYR619  PRO620  LYS621  CYS622 
 ASP623  PHE694  ASN695  SER759  ASP760  ASP761  ALA762  ILE779  LEU786  VAL792 
 PHE793  MET794  SER795  GLU796  ALA797  LYS798  CYS799  TRP800  GLU811  SER814 

> <Gold.Protein.RotatedAtoms>
  152.3476  133.6140  159.5920 H   0  0  0  0  0  0  0  0  0  0  0  0  # atno 6907 bound_to 6896
  150.7517  133.9625  159.3529 H   0  0  0  0  0  0  0  0  0  0  0  0  # atno 6908 bound_to 6896
  151.7481  135.0840  160.0377 H   0  0  0  0  0  0  0  0  0  0  0  0  # atno 6909 bound_to 6896
  144.7250  139.9609  143.6434 H   0  0  0  0  0  0  0  0  0  0  0  0  # atno 7974 bound_to 7965
  156.2547  140.2874  156.0837 H   0  0  0  0  0  0  0  0  0  0  0  0  # atno 8008 bound_to 7997
  155.1538  140.0398  157.2844 H   0  0  0  0  0  0  0  0  0  0  0  0  # atno 8009 bound_to 7997
  154.6441  140.2529  155.7294 H   0  0  0  0  0  0  0  0  0  0  0  0  # atno 8010 bound_to 7997
  139.6773  143.9642  152.2317 H   0  0  0  0  0  0  0  0  0  0  0  0  # atno 10167 bound_to 10162
  156.2811  130.7321  151.1318 H   0  0  0  0  0  0  0  0  0  0  0  0  # atno 10718 bound_to 10713
  153.7009  135.6956  153.5063 H   0  0  0  0  0  0  0  0  0  0  0  0  # atno 10763 bound_to 10752
  153.2343  135.4327  155.0629 H   0  0  0  0  0  0  0  0  0  0  0  0  # atno 10764 bound_to 10752
  154.8344  135.3492  154.6548 H   0  0  0  0  0  0  0  0  0  0  0  0  # atno 10765 bound_to 10752
  140.1479  134.4499  155.8402 H   0  0  0  0  0  0  0  0  0  0  0  0  # atno 11005 bound_to 11000
  146.0638  139.3630  143.0565 LP  0  0  0  0  0  0  0  0  0  0  0  0  # atno 17320 bound_to 7965
  145.8057  140.9750  143.0975 LP  0  0  0  0  0  0  0  0  0  0  0  0  # atno 17321 bound_to 7965
  139.9423  144.6674  150.8254 LP  0  0  0  0  0  0  0  0  0  0  0  0  # atno 17342 bound_to 10162
  140.7640  143.3237  151.2565 LP  0  0  0  0  0  0  0  0  0  0  0  0  # atno 17343 bound_to 10162
  157.7314  131.0608  150.5677 LP  0  0  0  0  0  0  0  0  0  0  0  0  # atno 17370 bound_to 10713
  156.5783  130.4298  149.5988 LP  0  0  0  0  0  0  0  0  0  0  0  0  # atno 17371 bound_to 10713
  141.2195  133.6860  156.7368 LP  0  0  0  0  0  0  0  0  0  0  0  0  # atno 17394 bound_to 11000
  140.2641  134.8444  157.3786 LP  0  0  0  0  0  0  0  0  0  0  0  0  # atno 17395 bound_to 11000

$$$$
