AV-unprocessed.smi:3068|AV-procd|sdf|11698|dock4
  -GOLD-   2272017103D 1   1.00000     0.00000
 Structure written by MMmdl.
 40 42  0  0  0  0  0  0  0  0  2 V2000
  150.3747  137.1828  154.3421 N   0  0  0  0  0  0  0  0  0  0  0  0
  149.7304  138.1252  154.1521 C   0  0  0  0  0  0  0  0  0  0  0  0
  148.9204  139.3127  153.9120 C   0  0  0  0  0  0  0  0  0  0  0  0
  149.4504  140.4975  154.2950 N   0  0  0  0  0  0  0  0  0  0  0  0
  148.7116  141.6055  154.0751 C   0  0  0  0  0  0  0  0  0  0  0  0
  147.4415  141.5369  153.4704 C   0  0  0  0  0  0  0  0  0  0  0  0
  146.9054  140.3597  153.0841 N   0  0  0  0  0  0  0  0  0  0  0  0
  147.6369  139.2376  153.3004 C   0  0  0  0  0  0  0  0  0  0  0  0
  147.0907  138.0017  152.9064 N   0  0  0  0  0  0  0  0  0  0  0  0
  145.6707  137.8404  152.6175 C   0  0  0  0  0  0  0  0  0  0  0  0
  145.2407  136.3638  152.5910 C   0  0  2  0  0  0  0  0  0  0  0  0
  145.9760  135.5792  151.4896 C   0  0  0  0  0  0  0  0  0  0  0  0
  145.4932  134.1802  151.4360 N   0  3  2  0  0  0  0  0  0  0  0  0
  146.2076  133.3737  150.4143 C   0  0  0  0  0  0  0  0  0  0  0  0
  145.7507  131.9068  150.4495 C   0  0  0  0  0  0  0  0  0  0  0  0
  144.2304  131.8046  150.2701 C   0  0  0  0  0  0  0  0  0  0  0  0
  143.5178  132.6679  151.3200 C   0  0  0  0  0  0  0  0  0  0  0  0
  144.0146  134.1266  151.2757 C   0  0  1  0  0  0  0  0  0  0  0  0
  143.3371  134.9827  152.3639 C   0  0  0  0  0  0  0  0  0  0  0  0
  143.8440  136.3102  152.3200 O   0  0  0  0  0  0  0  0  0  0  0  0
  149.1356  142.5503  154.3816 H   0  0  0  0  0  0  0  0  0  0  0  0
  146.8553  142.4271  153.2965 H   0  0  0  0  0  0  0  0  0  0  0  0
  147.7090  137.2247  152.7193 H   0  0  0  0  0  0  0  0  0  0  0  0
  145.1017  138.3780  153.3764 H   0  0  0  0  0  0  0  0  0  0  0  0
  145.4371  138.3220  151.6673 H   0  0  0  0  0  0  0  0  0  0  0  0
  145.4462  135.9026  153.5587 H   0  0  0  0  0  0  0  0  0  0  0  0
  145.8226  136.0562  150.5202 H   0  0  0  0  0  0  0  0  0  0  0  0
  147.0493  135.5855  151.6842 H   0  0  0  0  0  0  0  0  0  0  0  0
  146.0315  133.7976  149.4243 H   0  0  0  0  0  0  0  0  0  0  0  0
  147.2820  133.4248  150.5954 H   0  0  0  0  0  0  0  0  0  0  0  0
  146.2578  131.3389  149.6689 H   0  0  0  0  0  0  0  0  0  0  0  0
  146.0403  131.4552  151.3993 H   0  0  0  0  0  0  0  0  0  0  0  0
  143.9532  132.1364  149.2687 H   0  0  0  0  0  0  0  0  0  0  0  0
  143.9099  130.7659  150.3555 H   0  0  0  0  0  0  0  0  0  0  0  0
  142.4404  132.6334  151.1541 H   0  0  0  0  0  0  0  0  0  0  0  0
  143.6905  132.2480  152.3122 H   0  0  0  0  0  0  0  0  0  0  0  0
  143.7647  134.5509  150.3013 H   0  0  0  0  0  0  0  0  0  0  0  0
  142.2598  135.0168  152.1998 H   0  0  0  0  0  0  0  0  0  0  0  0
  143.4932  134.5564  153.3564 H   0  0  0  0  0  0  0  0  0  0  0  0
  145.7031  133.7657  152.3328 H   0  0  0  0  0  0  0  0  0  0  0  0
  1  2  3  0  0  0  0
  2  3  1  0  0  0  0
  3  8  1  0  0  0  0
  3  4  2  0  0  0  0
  4  5  1  0  0  0  0
  5  6  2  0  0  0  0
  5 21  1  0  0  0  0
  6  7  1  0  0  0  0
  6 22  1  0  0  0  0
  7  8  2  0  0  0  0
  8  9  1  0  0  0  0
  9 10  1  0  0  0  0
  9 23  1  0  0  0  0
 10 11  1  0  0  0  0
 10 24  1  0  0  0  0
 10 25  1  0  0  0  0
 11 20  1  0  0  0  0
 11 12  1  0  0  0  0
 11 26  1  0  0  0  0
 12 13  1  0  0  0  0
 12 27  1  0  0  0  0
 12 28  1  0  0  0  0
 13 18  1  0  0  0  0
 13 14  1  0  0  0  0
 13 40  1  0  0  0  0
 14 15  1  0  0  0  0
 14 29  1  0  0  0  0
 14 30  1  0  0  0  0
 15 16  1  0  0  0  0
 15 31  1  0  0  0  0
 15 32  1  0  0  0  0
 16 17  1  0  0  0  0
 16 33  1  0  0  0  0
 16 34  1  0  0  0  0
 17 18  1  0  0  0  0
 17 35  1  0  0  0  0
 17 36  1  0  0  0  0
 18 19  1  0  0  0  0
 18 37  1  0  0  0  0
 19 20  1  0  0  0  0
 19 38  1  0  0  0  0
 19 39  1  0  0  0  0
M  CHG  1  13   1
M  END
> <s_m_source_file>
AV-unprocessed.smi

> <i_m_source_file_index>
3068

> <i_lp_mmshare_version>
43012

> <i_f3d_flags>
0

> <s_epik_input>
TiNDYzFuW2NIXVtjSF1uYzFbTkhdW0NIMl1bQ0BIXShbQ0gyXTIpT1tDSDJdW0NAQEhdKE4yMylbQ0gyXVtDSDJdW0NIMl1bQ0gyXTM=

> <s_epik_cmdline>
J2VwaWtfcHl0aG9uJywgJy1waCcsICc3LjAnLCAnLXRuJywgJzgnLCAnLW1hJywgJzIwMCcsICctbWV0YWxfYmluZGluZycsICctaW1hZScsICc8aW5maWxlLm1hZT4nLCAnLW9tYWUnLCAnPG91dGZpbGUubWFlPic=

> <r_epik_Ionization_Penalty>
0.0804321

> <r_epik_Ionization_Penalty_Charging>
0.0803403

> <r_epik_Ionization_Penalty_Neutral>
9.17277e-05

> <r_epik_State_Penalty>
0.0711481

> <r_epik_Charging_Adjusted_Penalty>
0.151488

> <i_epik_Tot_Q>
1

> <i_epik_Tot_abs_Q>
1

> <r_epik_Metal_State_Penalty>
0.0711481

> <b_epik_Metal_Only>
0

> <s_lp_Force_Field>
OPLS_2005

> <r_lp_Energy>
36.4506

> <b_lp_Chiralities_Consistent>
1

> <s_lp_Variant>
AV-unprocessed.smi:3068-1

> <Gold.Version>
5.8.1

> <Gold.Id.Protein>
6NUR|6NUR_protein|mol2

> <Gold.PLP.Fitness>
38.5763

> <Gold.PLP.PLP>
-32.9051

> <Gold.PLP.part.hbond>
-1.0000

> <Gold.PLP.part.metal>
0.0000

> <Gold.PLP.part.buried>
-3.1780

> <Gold.PLP.part.nonpolar>
-29.0644

> <Gold.PLP.part.repulsive>
0.7005

> <Gold.PLP.ligand.clash>
0.0000

> <Gold.PLP.ligand.torsion>
0.1657

> <Gold.PLP.Chemscore.Hbond>
1.0000

> <Gold.PLP.Chemscore.CHOScore>
1.0000

> <Gold.PLP.Chemscore.Metal>
0.0000

> <Gold.Chemscore.Hbonds>
donor molecule, donor type, donor heavy atom, donor atom, acceptor molecule, acceptor atom, score
      L1  H     9    23       P1  7948  1.00
      P1  H  7989  7998       L1     4  0.17
      L1  C     5    21       P1  8028  1.00

> <Gold.PLP.Chemscore.Internal.Correction>
0.0028

> <Gold.Rescore>
     Score         DG    S(hbond)    S(metal)    S(lipo)     H(rot)  DE(clash)    DE(int)     intcor
     14.76     -15.10       0.99        0.00      82.83       1.32       0.09       0.24       ----

> <Gold.Chemscore.Fitness>
14.7623

> <Gold.Chemscore.DG>
-15.0958

> <Gold.Chemscore.ZeroCoef>
-5.4800

> <Gold.Chemscore.Hbond>
0.9886

> <Gold.Chemscore.Metal>
0.0000

> <Gold.Chemscore.Lipo>
82.8321

> <Gold.Chemscore.Internal_Hbond>
0.0000

> <Gold.Chemscore.DEClash>
0.0935

> <Gold.Chemscore.DEInternal>
0.2401

> <Gold.Chemscore.Rot>
1.3193

> <Gold.Chemscore.Internal.Correction>
   9.000000E+99

> <Gold.Chemscore.Hbonds>
donor molecule, donor type, donor heavy atom, donor atom, acceptor molecule, acceptor atom, score
      L1  H     9    23       P1  7948  0.99
      P1  H  7989  7998       L1     4  0.10

> <Gold.Chemscore.Hbond.Weighted>
-3.3018

> <Gold.Chemscore.Metal.Weighted>
-0.0000

> <Gold.Chemscore.Lipo.Weighted>
-9.6914

> <Gold.Chemscore.Internal_Hbond.Weighted>
0.0000

> <Gold.Chemscore.DEClash.Weighted>
0.0935

> <Gold.Chemscore.DEInternal.Weighted>
0.2401

> <Gold.Chemscore.Rot.Weighted>
3.3774

> <Gold.Chemscore.Internal.Correction.Weighted>
   9.000000E+99

> <Gold.Protein.RotatedTorsions>
[ 6907 6896 6895 6894 ] final  -70.24 input  -60.11 | X-H torsion
[ 7974 7965 7964 7962 ] final -178.90 input  175.53 | X-H torsion
[ 8008 7997 7996 7995 ] final  -14.98 input   59.86 | X-H torsion
[ 10167 10162 10161 10158 ] final  146.08 input  -65.29 | X-H torsion
[ 10718 10713 10712 10709 ] final -143.79 input   66.30 | X-H torsion
[ 10763 10752 10751 10750 ] final  -78.31 input  -60.55 | X-H torsion
[ 11005 11000 10999 10996 ] final  -95.06 input  -57.11 | X-H torsion

> <Gold.Protein.ActiveResidues>
 VAL166  LYS551  ARG553  GLY616  TRP617  ASP618  TYR619  PRO620  LYS621  CYS622 
 ASP623  PHE694  ASN695  SER759  ASP760  ASP761  ALA762  ILE779  LEU786  VAL792 
 PHE793  MET794  SER795  GLU796  ALA797  LYS798  CYS799  TRP800  GLU811  SER814 

> <Gold.Protein.RotatedAtoms>
  150.7267  134.5482  159.5781 H   0  0  0  0  0  0  0  0  0  0  0  0  # atno 6907 bound_to 6896
  152.2976  134.7646  160.0374 H   0  0  0  0  0  0  0  0  0  0  0  0  # atno 6908 bound_to 6896
  151.8238  133.3363  159.3629 H   0  0  0  0  0  0  0  0  0  0  0  0  # atno 6909 bound_to 6896
  144.7133  140.0799  143.6426 H   0  0  0  0  0  0  0  0  0  0  0  0  # atno 7974 bound_to 7965
  154.5167  140.2208  155.9053 H   0  0  0  0  0  0  0  0  0  0  0  0  # atno 8008 bound_to 7997
  156.1615  140.3141  155.8781 H   0  0  0  0  0  0  0  0  0  0  0  0  # atno 8009 bound_to 7997
  155.3741  140.0468  157.3035 H   0  0  0  0  0  0  0  0  0  0  0  0  # atno 8010 bound_to 7997
  139.4914  144.5855  151.6786 H   0  0  0  0  0  0  0  0  0  0  0  0  # atno 10167 bound_to 10162
  156.3623  130.7744  151.1914 H   0  0  0  0  0  0  0  0  0  0  0  0  # atno 10718 bound_to 10713
  154.5242  135.5734  153.6706 H   0  0  0  0  0  0  0  0  0  0  0  0  # atno 10763 bound_to 10752
  152.9924  135.6189  154.2714 H   0  0  0  0  0  0  0  0  0  0  0  0  # atno 10764 bound_to 10752
  154.2636  135.2855  155.2747 H   0  0  0  0  0  0  0  0  0  0  0  0  # atno 10765 bound_to 10752
  141.1453  133.8000  157.0384 H   0  0  0  0  0  0  0  0  0  0  0  0  # atno 11005 bound_to 11000
  145.9711  139.2870  143.1098 LP  0  0  0  0  0  0  0  0  0  0  0  0  # atno 17320 bound_to 7965
  145.9115  140.9176  143.0451 LP  0  0  0  0  0  0  0  0  0  0  0  0  # atno 17321 bound_to 7965
  140.5471  144.0486  150.6111 LP  0  0  0  0  0  0  0  0  0  0  0  0  # atno 17342 bound_to 10162
  140.3528  143.2953  152.0469 LP  0  0  0  0  0  0  0  0  0  0  0  0  # atno 17343 bound_to 10162
  157.7475  131.0396  150.4560 LP  0  0  0  0  0  0  0  0  0  0  0  0  # atno 17370 bound_to 10713
  156.4773  130.4066  149.6482 LP  0  0  0  0  0  0  0  0  0  0  0  0  # atno 17371 bound_to 10713
  140.0709  134.9703  157.1465 LP  0  0  0  0  0  0  0  0  0  0  0  0  # atno 17394 bound_to 11000
  140.3713  134.2388  155.7178 LP  0  0  0  0  0  0  0  0  0  0  0  0  # atno 17395 bound_to 11000

$$$$
