AV-unprocessed.smi:1868|AV-procd|sdf|7585|dock9
  -GOLD-   22720 9293D 1   1.00000     0.00000
 Structure written by MMmdl.
 47 49  0  0  0  0  0  0  0  0  2 V2000
  152.1699  138.3071  154.6885 C   0  0  0  0  0  0  0  0  0  0  0  0
  151.9206  139.3117  155.7683 C   0  0  0  0  0  0  0  0  0  0  0  0
  152.6855  139.3900  156.8569 N   0  0  0  0  0  0  0  0  0  0  0  0
  152.1116  140.4341  157.5565 C   0  0  0  0  0  0  0  0  0  0  0  0
  152.4608  141.0092  158.7992 C   0  0  0  0  0  0  0  0  0  0  0  0
  151.7136  142.0845  159.3230 C   0  0  0  0  0  0  0  0  0  0  0  0
  150.6095  142.5997  158.6134 C   0  0  0  0  0  0  0  0  0  0  0  0
  150.2443  142.0412  157.3735 C   0  0  0  0  0  0  0  0  0  0  0  0
  150.9924  140.9670  156.8555 C   0  0  0  0  0  0  0  0  0  0  0  0
  150.9001  140.2015  155.6968 N   0  0  0  0  0  0  0  0  0  0  0  0
  149.9075  140.3424  154.6399 C   0  0  0  0  0  0  0  0  0  0  0  0
  148.9824  139.1143  154.5292 C   0  0  1  0  0  0  0  0  0  0  0  0
  148.6193  138.6797  155.8256 O   0  0  0  0  0  0  0  0  0  0  0  0
  147.6968  139.4367  153.7425 C   0  0  0  0  0  0  0  0  0  0  0  0
  147.1558  138.2526  153.0269 N   0  3  2  0  0  0  0  0  0  0  0  0
  146.3871  138.6029  151.8030 C   0  0  0  0  0  0  0  0  0  0  0  0
  145.9715  137.3403  151.0296 C   0  0  0  0  0  0  0  0  0  0  0  0
  145.1588  136.3825  151.9167 C   0  0  1  0  0  0  0  0  0  0  0  0
  144.7685  135.1033  151.1629 C   0  0  0  0  0  0  0  0  0  0  0  0
  145.9606  136.0700  153.1911 C   0  0  0  0  0  0  0  0  0  0  0  0
  146.3763  137.3583  153.9209 C   0  0  0  0  0  0  0  0  0  0  0  0
  153.0061  137.6596  154.9548 H   0  0  0  0  0  0  0  0  0  0  0  0
  152.4134  138.8117  153.7534 H   0  0  0  0  0  0  0  0  0  0  0  0
  151.2892  137.6836  154.5362 H   0  0  0  0  0  0  0  0  0  0  0  0
  153.3048  140.6221  159.3507 H   0  0  0  0  0  0  0  0  0  0  0  0
  151.9890  142.5160  160.2744 H   0  0  0  0  0  0  0  0  0  0  0  0
  150.0427  143.4235  159.0220 H   0  0  0  0  0  0  0  0  0  0  0  0
  149.3979  142.4333  156.8295 H   0  0  0  0  0  0  0  0  0  0  0  0
  149.3221  141.2430  154.8305 H   0  0  0  0  0  0  0  0  0  0  0  0
  150.4229  140.5148  153.6950 H   0  0  0  0  0  0  0  0  0  0  0  0
  149.5320  138.3080  154.0456 H   0  0  0  0  0  0  0  0  0  0  0  0
  147.9655  139.2708  156.1690 H   0  0  0  0  0  0  0  0  0  0  0  0
  146.9527  139.8182  154.4437 H   0  0  0  0  0  0  0  0  0  0  0  0
  147.8752  140.2394  153.0252 H   0  0  0  0  0  0  0  0  0  0  0  0
  145.5031  139.1802  152.0792 H   0  0  0  0  0  0  0  0  0  0  0  0
  146.9824  139.2363  151.1467 H   0  0  0  0  0  0  0  0  0  0  0  0
  145.3879  137.6235  150.1529 H   0  0  0  0  0  0  0  0  0  0  0  0
  146.8627  136.8335  150.6559 H   0  0  0  0  0  0  0  0  0  0  0  0
  144.2377  136.8888  152.2097 H   0  0  0  0  0  0  0  0  0  0  0  0
  145.6494  134.5513  150.8337 H   0  0  0  0  0  0  0  0  0  0  0  0
  144.1714  135.3343  150.2801 H   0  0  0  0  0  0  0  0  0  0  0  0
  144.1773  134.4402  151.7952 H   0  0  0  0  0  0  0  0  0  0  0  0
  145.3693  135.4445  153.8608 H   0  0  0  0  0  0  0  0  0  0  0  0
  146.8510  135.4931  152.9364 H   0  0  0  0  0  0  0  0  0  0  0  0
  146.9761  137.0944  154.7929 H   0  0  0  0  0  0  0  0  0  0  0  0
  145.4952  137.8863  154.2892 H   0  0  0  0  0  0  0  0  0  0  0  0
  147.9596  137.7174  152.7294 H   0  0  0  0  0  0  0  0  0  0  0  0
  1  2  1  0  0  0  0
  1 22  1  0  0  0  0
  1 23  1  0  0  0  0
  1 24  1  0  0  0  0
  2 10  1  0  0  0  0
  2  3  2  0  0  0  0
  3  4  1  0  0  0  0
  4  9  2  0  0  0  0
  4  5  1  0  0  0  0
  5  6  2  0  0  0  0
  5 25  1  0  0  0  0
  6  7  1  0  0  0  0
  6 26  1  0  0  0  0
  7  8  2  0  0  0  0
  7 27  1  0  0  0  0
  8  9  1  0  0  0  0
  8 28  1  0  0  0  0
  9 10  1  0  0  0  0
 10 11  1  0  0  0  0
 11 12  1  0  0  0  0
 11 29  1  0  0  0  0
 11 30  1  0  0  0  0
 12 13  1  0  0  0  0
 12 14  1  0  0  0  0
 12 31  1  0  0  0  0
 13 32  1  0  0  0  0
 14 15  1  0  0  0  0
 14 33  1  0  0  0  0
 14 34  1  0  0  0  0
 15 21  1  0  0  0  0
 15 16  1  0  0  0  0
 15 47  1  0  0  0  0
 16 17  1  0  0  0  0
 16 35  1  0  0  0  0
 16 36  1  0  0  0  0
 17 18  1  0  0  0  0
 17 37  1  0  0  0  0
 17 38  1  0  0  0  0
 18 19  1  0  0  0  0
 18 20  1  0  0  0  0
 18 39  1  0  0  0  0
 19 40  1  0  0  0  0
 19 41  1  0  0  0  0
 19 42  1  0  0  0  0
 20 21  1  0  0  0  0
 20 43  1  0  0  0  0
 20 44  1  0  0  0  0
 21 45  1  0  0  0  0
 21 46  1  0  0  0  0
M  CHG  1  15   1
M  END
> <s_m_source_file>
AV-unprocessed.smi

> <i_m_source_file_index>
1868

> <i_lp_mmshare_version>
43012

> <i_f3d_flags>
0

> <s_epik_input>
W2NIXTFbY0hdW2NIXVtjSF1jKGMxMiluKGMobjIpW0NIM10pW0NIMl1bQ0BIXShbT0hdKVtDSDJdTjNbQ0gyXVtDSDJdW0NIXShbQ0gzXSlbQ0gyXVtDSDJdMw==

> <s_epik_cmdline>
J2VwaWtfcHl0aG9uJywgJy1waCcsICc3LjAnLCAnLXRuJywgJzgnLCAnLW1hJywgJzIwMCcsICctbWV0YWxfYmluZGluZycsICctaW1hZScsICc8aW5maWxlLm1hZT4nLCAnLW9tYWUnLCAnPG91dGZpbGUubWFlPic=

> <r_epik_Ionization_Penalty>
0.101157

> <r_epik_Ionization_Penalty_Charging>
0.00181365

> <r_epik_Ionization_Penalty_Neutral>
0.0993436

> <r_epik_State_Penalty>
0.0871902

> <r_epik_Charging_Adjusted_Penalty>
0.0890039

> <i_epik_Tot_Q>
1

> <i_epik_Tot_abs_Q>
1

> <r_epik_Metal_State_Penalty>
9.24346e-05

> <b_epik_Metal_Only>
0

> <s_lp_Force_Field>
OPLS_2005

> <r_lp_Energy>
21.7142

> <b_lp_Chiralities_Consistent>
1

> <s_lp_Variant>
AV-unprocessed.smi:1868-2

> <Gold.Version>
5.8.1

> <Gold.Id.Protein>
6NUR|6NUR_protein|mol2

> <Gold.PLP.Fitness>
45.9464

> <Gold.PLP.PLP>
-38.5067

> <Gold.PLP.part.hbond>
-2.0000

> <Gold.PLP.part.metal>
0.0000

> <Gold.PLP.part.buried>
4.6991

> <Gold.PLP.part.nonpolar>
-41.1626

> <Gold.PLP.part.repulsive>
0.0437

> <Gold.PLP.ligand.clash>
0.0000

> <Gold.PLP.ligand.torsion>
0.8050

> <Gold.PLP.Chemscore.Hbond>
3.0000

> <Gold.PLP.Chemscore.CHOScore>
0.0000

> <Gold.PLP.Chemscore.Metal>
0.0000

> <Gold.Chemscore.Hbonds>
donor molecule, donor type, donor heavy atom, donor atom, acceptor molecule, acceptor atom, score
      L1  H    15    47       P1  7948  2.00
      P1  H  7997  8008       L1     3  1.00

> <Gold.PLP.Chemscore.Internal.Correction>
0.0496

> <Gold.Rescore>
     Score         DG    S(hbond)    S(metal)    S(lipo)     H(rot)  DE(clash)    DE(int)     intcor
     15.58     -18.26       1.82        0.00      99.40       1.92       1.80       0.89       ----

> <Gold.Chemscore.Fitness>
15.5772

> <Gold.Chemscore.DG>
-18.2628

> <Gold.Chemscore.ZeroCoef>
-5.4800

> <Gold.Chemscore.Hbond>
1.8167

> <Gold.Chemscore.Metal>
0.0000

> <Gold.Chemscore.Lipo>
99.3996

> <Gold.Chemscore.Internal_Hbond>
0.0000

> <Gold.Chemscore.DEClash>
1.8005

> <Gold.Chemscore.DEInternal>
0.8851

> <Gold.Chemscore.Rot>
1.9198

> <Gold.Chemscore.Internal.Correction>
   9.000000E+99

> <Gold.Chemscore.Hbonds>
donor molecule, donor type, donor heavy atom, donor atom, acceptor molecule, acceptor atom, score
      L1  H    15    47       P1  7948  0.97
      P1  H  7997  8008       L1     3  0.25

> <Gold.Chemscore.Hbond.Weighted>
-6.0677

> <Gold.Chemscore.Metal.Weighted>
-0.0000

> <Gold.Chemscore.Lipo.Weighted>
-11.6298

> <Gold.Chemscore.Internal_Hbond.Weighted>
0.0000

> <Gold.Chemscore.DEClash.Weighted>
1.8005

> <Gold.Chemscore.DEInternal.Weighted>
0.8851

> <Gold.Chemscore.Rot.Weighted>
4.9147

> <Gold.Chemscore.Internal.Correction.Weighted>
   9.000000E+99

> <Gold.Protein.RotatedTorsions>
[ 6907 6896 6895 6894 ] final  151.44 input  -60.11 | X-H torsion
[ 7974 7965 7964 7962 ] final    9.50 input  175.53 | X-H torsion
[ 8008 7997 7996 7995 ] final  -51.20 input   59.86 | X-H torsion
[ 10167 10162 10161 10158 ] final -115.59 input  -65.29 | X-H torsion
[ 10718 10713 10712 10709 ] final -173.84 input   66.30 | X-H torsion
[ 10763 10752 10751 10750 ] final  -78.68 input  -60.55 | X-H torsion
[ 11005 11000 10999 10996 ] final   70.06 input  -57.11 | X-H torsion

> <Gold.Protein.ActiveResidues>
 VAL166  LYS551  ARG553  GLY616  TRP617  ASP618  TYR619  PRO620  LYS621  CYS622 
 ASP623  PHE694  ASN695  SER759  ASP760  ASP761  ALA762  ILE779  LEU786  VAL792 
 PHE793  MET794  SER795  GLU796  ALA797  LYS798  CYS799  TRP800  GLU811  SER814 

> <Gold.Protein.RotatedAtoms>
  152.1006  133.4248  159.4585 H   0  0  0  0  0  0  0  0  0  0  0  0  # atno 6907 bound_to 6896
  150.6864  134.2765  159.4618 H   0  0  0  0  0  0  0  0  0  0  0  0  # atno 6908 bound_to 6896
  152.0625  134.9585  160.0625 H   0  0  0  0  0  0  0  0  0  0  0  0  # atno 6909 bound_to 6896
  146.2402  139.9774  142.8440 H   0  0  0  0  0  0  0  0  0  0  0  0  # atno 7974 bound_to 7965
  154.4078  140.1253  156.4791 H   0  0  0  0  0  0  0  0  0  0  0  0  # atno 8008 bound_to 7997
  155.7103  140.3494  155.4951 H   0  0  0  0  0  0  0  0  0  0  0  0  # atno 8009 bound_to 7997
  155.9306  140.1069  157.1125 H   0  0  0  0  0  0  0  0  0  0  0  0  # atno 8010 bound_to 7997
  140.0884  143.4722  152.1884 H   0  0  0  0  0  0  0  0  0  0  0  0  # atno 10167 bound_to 10162
  156.7763  130.9467  151.3120 H   0  0  0  0  0  0  0  0  0  0  0  0  # atno 10718 bound_to 10713
  154.5289  135.5721  153.6743 H   0  0  0  0  0  0  0  0  0  0  0  0  # atno 10763 bound_to 10752
  152.9934  135.6200  154.2655 H   0  0  0  0  0  0  0  0  0  0  0  0  # atno 10764 bound_to 10752
  154.2580  135.2857  155.2769 H   0  0  0  0  0  0  0  0  0  0  0  0  # atno 10765 bound_to 10752
  139.9619  134.7047  156.0628 H   0  0  0  0  0  0  0  0  0  0  0  0  # atno 11005 bound_to 11000
  145.1624  140.9679  143.4369 LP  0  0  0  0  0  0  0  0  0  0  0  0  # atno 17320 bound_to 7965
  145.0104  139.3515  143.6123 LP  0  0  0  0  0  0  0  0  0  0  0  0  # atno 17321 bound_to 7965
  139.5738  144.7477  151.3818 LP  0  0  0  0  0  0  0  0  0  0  0  0  # atno 17342 bound_to 10162
  140.7041  143.7558  150.7452 LP  0  0  0  0  0  0  0  0  0  0  0  0  # atno 17343 bound_to 10162
  157.6667  130.9014  149.9949 LP  0  0  0  0  0  0  0  0  0  0  0  0  # atno 17370 bound_to 10713
  156.1246  130.3645  149.9831 LP  0  0  0  0  0  0  0  0  0  0  0  0  # atno 17371 bound_to 10713
  141.1296  133.6590  156.3429 LP  0  0  0  0  0  0  0  0  0  0  0  0  # atno 17394 bound_to 11000
  140.5482  134.6053  157.5400 LP  0  0  0  0  0  0  0  0  0  0  0  0  # atno 17395 bound_to 11000

$$$$
