AV-unprocessed.smi:1532|AV-procd|sdf|6161|dock3
  -GOLD-   22720 6313D 1   1.00000     0.00000
 Structure written by MMmdl.
 38 40  0  0  0  0  0  0  0  0  1 V2000
  151.2227  139.1384  157.1873 O   0  0  0  0  0  0  0  0  0  0  0  0
  151.5952  140.0323  157.9479 C   0  0  0  0  0  0  0  0  0  0  0  0
  150.8988  141.3205  158.0874 C   0  0  0  0  0  0  0  0  0  0  0  0
  149.6689  141.5674  157.2177 C   0  0  0  0  0  0  0  0  0  0  0  0
  148.9066  140.4772  157.1206 F   0  0  0  0  0  0  0  0  0  0  0  0
  148.9179  142.5441  157.7281 F   0  0  0  0  0  0  0  0  0  0  0  0
  150.0335  141.9222  155.9853 F   0  0  0  0  0  0  0  0  0  0  0  0
  151.3597  142.2520  158.9577 C   0  0  0  0  0  0  0  0  0  0  0  0
  152.5363  141.9846  159.7598 C   0  0  0  0  0  0  0  0  0  0  0  0
  153.0887  142.9611  160.7582 C   0  0  0  0  0  0  0  0  0  0  0  0
  153.1289  142.6464  162.2356 C   0  0  0  0  0  0  0  0  0  0  0  0
  152.2011  143.7207  161.7173 C   0  0  0  0  0  0  0  0  0  0  0  0
  153.1526  140.8590  159.6270 N   0  0  0  0  0  0  0  0  0  0  0  0
  152.6998  139.9015  158.7402 N   0  0  0  0  0  0  0  0  0  0  0  0
  153.5067  138.6747  158.7299 C   0  0  0  0  0  0  0  0  0  0  0  0
  153.0039  137.6410  159.7612 C   0  0  1  0  0  0  0  0  0  0  0  0
  153.2281  136.3390  159.2573 O   0  0  0  0  0  0  0  0  0  0  0  0
  153.6899  137.8370  161.1047 C   0  0  0  0  0  0  0  0  0  0  0  0
  154.6025  138.8974  161.3004 C   0  0  0  0  0  0  0  0  0  0  0  0
  155.2248  139.0768  162.5511 C   0  0  0  0  0  0  0  0  0  0  0  0
  154.9358  138.2003  163.6143 C   0  0  0  0  0  0  0  0  0  0  0  0
  154.0231  137.1449  163.4266 C   0  0  0  0  0  0  0  0  0  0  0  0
  153.7413  136.3039  164.4497 F   0  0  0  0  0  0  0  0  0  0  0  0
  153.4018  136.9640  162.1756 C   0  0  0  0  0  0  0  0  0  0  0  0
  150.8654  143.2053  159.0700 H   0  0  0  0  0  0  0  0  0  0  0  0
  153.9379  143.4996  160.3417 H   0  0  0  0  0  0  0  0  0  0  0  0
  152.6771  141.7148  162.5716 H   0  0  0  0  0  0  0  0  0  0  0  0
  154.0078  142.9652  162.7921 H   0  0  0  0  0  0  0  0  0  0  0  0
  152.4624  144.7554  161.9295 H   0  0  0  0  0  0  0  0  0  0  0  0
  151.1352  143.4998  161.7204 H   0  0  0  0  0  0  0  0  0  0  0  0
  153.5893  138.2321  157.7353 H   0  0  0  0  0  0  0  0  0  0  0  0
  154.5277  138.9629  158.9890 H   0  0  0  0  0  0  0  0  0  0  0  0
  151.9288  137.7557  159.9074 H   0  0  0  0  0  0  0  0  0  0  0  0
  154.0661  136.0361  159.5720 H   0  0  0  0  0  0  0  0  0  0  0  0
  154.8261  139.5780  160.4918 H   0  0  0  0  0  0  0  0  0  0  0  0
  155.9227  139.8883  162.6952 H   0  0  0  0  0  0  0  0  0  0  0  0
  155.4122  138.3387  164.5736 H   0  0  0  0  0  0  0  0  0  0  0  0
  152.7008  136.1532  162.0427 H   0  0  0  0  0  0  0  0  0  0  0  0
  1  2  2  0  0  0  0
  2 14  1  0  0  0  0
  2  3  1  0  0  0  0
  3  4  1  0  0  0  0
  3  8  2  0  0  0  0
  4  5  1  0  0  0  0
  4  6  1  0  0  0  0
  4  7  1  0  0  0  0
  8  9  1  0  0  0  0
  8 25  1  0  0  0  0
  9 10  1  0  0  0  0
  9 13  2  0  0  0  0
 10 12  1  0  0  0  0
 10 11  1  0  0  0  0
 10 26  1  0  0  0  0
 11 12  1  0  0  0  0
 11 27  1  0  0  0  0
 11 28  1  0  0  0  0
 12 29  1  0  0  0  0
 12 30  1  0  0  0  0
 13 14  1  0  0  0  0
 14 15  1  0  0  0  0
 15 16  1  0  0  0  0
 15 31  1  0  0  0  0
 15 32  1  0  0  0  0
 16 17  1  0  0  0  0
 16 18  1  0  0  0  0
 16 33  1  0  0  0  0
 17 34  1  0  0  0  0
 18 24  1  0  0  0  0
 18 19  2  0  0  0  0
 19 20  1  0  0  0  0
 19 35  1  0  0  0  0
 20 21  2  0  0  0  0
 20 36  1  0  0  0  0
 21 22  1  0  0  0  0
 21 37  1  0  0  0  0
 22 23  1  0  0  0  0
 22 24  2  0  0  0  0
 24 38  1  0  0  0  0
M  END
> <s_m_source_file>
AV-unprocessed.smi

> <i_m_source_file_index>
1532

> <i_lp_mmshare_version>
43012

> <i_f3d_flags>
0

> <s_epik_input>
Tz1jMWMoQyhGKShGKUYpW2NIXWMoW0NIXTJbQ0gyXVtDSDJdMilubjFbQ0gyXVtDQEhdKFtPSF0pYzNbY0hdW2NIXVtjSF1jKEYpW2NIXTM=

> <s_epik_cmdline>
J2VwaWtfcHl0aG9uJywgJy1waCcsICc3LjAnLCAnLXRuJywgJzgnLCAnLW1hJywgJzIwMCcsICctbWV0YWxfYmluZGluZycsICctaW1hZScsICc8aW5maWxlLm1hZT4nLCAnLW9tYWUnLCAnPG91dGZpbGUubWFlPic=

> <r_lp_tautomer_probability>
1

> <r_epik_Ionization_Penalty>
1.69012e-07

> <r_epik_Ionization_Penalty_Charging>
9.677e-10

> <r_epik_Ionization_Penalty_Neutral>
1.68044e-07

> <r_epik_State_Penalty>
-0

> <r_epik_Charging_Adjusted_Penalty>
9.677e-10

> <i_epik_Tot_Q>
0

> <i_epik_Tot_abs_Q>
0

> <r_epik_Metal_State_Penalty>
-0

> <b_epik_Metal_Only>
0

> <s_lp_Force_Field>
OPLS_2005

> <r_lp_Energy>
33.2113

> <b_lp_Chiralities_Consistent>
1

> <s_lp_Variant>
AV-unprocessed.smi:1532-2

> <Gold.Version>
5.8.1

> <Gold.Id.Protein>
6NUR|6NUR_protein|mol2

> <Gold.PLP.Fitness>
48.9733

> <Gold.PLP.PLP>
-49.0271

> <Gold.PLP.part.hbond>
-1.0000

> <Gold.PLP.part.metal>
0.0000

> <Gold.PLP.part.buried>
-5.1440

> <Gold.PLP.part.nonpolar>
-42.3762

> <Gold.PLP.part.repulsive>
0.0000

> <Gold.PLP.ligand.clash>
0.0184

> <Gold.PLP.ligand.torsion>
1.8655

> <Gold.PLP.Chemscore.Hbond>
1.0000

> <Gold.PLP.Chemscore.CHOScore>
0.0000

> <Gold.PLP.Chemscore.Metal>
0.0000

> <Gold.Chemscore.Hbonds>
donor molecule, donor type, donor heavy atom, donor atom, acceptor molecule, acceptor atom, score
      P1  H  6896  6909       L1    17  0.69

> <Gold.PLP.Chemscore.Internal.Correction>
0.6957

> <Gold.Rescore>
     Score         DG    S(hbond)    S(metal)    S(lipo)     H(rot)  DE(clash)    DE(int)     intcor
     13.40     -16.00       0.89        0.00     112.72       2.20       0.06       2.54       ----

> <Gold.Chemscore.Fitness>
13.3999

> <Gold.Chemscore.DG>
-15.9958

> <Gold.Chemscore.ZeroCoef>
-5.4800

> <Gold.Chemscore.Hbond>
0.8862

> <Gold.Chemscore.Metal>
0.0000

> <Gold.Chemscore.Lipo>
112.7231

> <Gold.Chemscore.Internal_Hbond>
0.0000

> <Gold.Chemscore.DEClash>
0.0583

> <Gold.Chemscore.DEInternal>
2.5376

> <Gold.Chemscore.Rot>
2.2003

> <Gold.Chemscore.Internal.Correction>
   9.000000E+99

> <Gold.Chemscore.Hbonds>
donor molecule, donor type, donor heavy atom, donor atom, acceptor molecule, acceptor atom, score
      P1  H  6896  6909       L1    17  0.07

> <Gold.Chemscore.Hbond.Weighted>
-2.9601

> <Gold.Chemscore.Metal.Weighted>
-0.0000

> <Gold.Chemscore.Lipo.Weighted>
-13.1886

> <Gold.Chemscore.Internal_Hbond.Weighted>
0.0000

> <Gold.Chemscore.DEClash.Weighted>
0.0583

> <Gold.Chemscore.DEInternal.Weighted>
2.5376

> <Gold.Chemscore.Rot.Weighted>
5.6328

> <Gold.Chemscore.Internal.Correction.Weighted>
   9.000000E+99

> <Gold.Protein.RotatedTorsions>
[ 6907 6896 6895 6894 ] final  164.97 input  -60.11 | X-H torsion
[ 7974 7965 7964 7962 ] final    7.97 input  175.53 | X-H torsion
[ 8008 7997 7996 7995 ] final -134.80 input   59.86 | X-H torsion
[ 10167 10162 10161 10158 ] final  107.68 input  -65.29 | X-H torsion
[ 10718 10713 10712 10709 ] final   76.31 input   66.30 | X-H torsion
[ 10763 10752 10751 10750 ] final  127.62 input  -60.55 | X-H torsion
[ 11005 11000 10999 10996 ] final  -26.28 input  -57.11 | X-H torsion

> <Gold.Protein.ActiveResidues>
 VAL166  LYS551  ARG553  GLY616  TRP617  ASP618  TYR619  PRO620  LYS621  CYS622 
 ASP623  PHE694  ASN695  SER759  ASP760  ASP761  ALA762  ILE779  LEU786  VAL792 
 PHE793  MET794  SER795  GLU796  ALA797  LYS798  CYS799  TRP800  GLU811  SER814 

> <Gold.Protein.RotatedAtoms>
  151.9016  133.3539  159.3832 H   0  0  0  0  0  0  0  0  0  0  0  0  # atno 6907 bound_to 6896
  150.7078  134.4822  159.5485 H   0  0  0  0  0  0  0  0  0  0  0  0  # atno 6908 bound_to 6896
  152.2411  134.8227  160.0511 H   0  0  0  0  0  0  0  0  0  0  0  0  # atno 6909 bound_to 6896
  146.2421  140.0004  142.8416 H   0  0  0  0  0  0  0  0  0  0  0  0  # atno 7974 bound_to 7965
  155.3681  140.0486  157.3046 H   0  0  0  0  0  0  0  0  0  0  0  0  # atno 8008 bound_to 7997
  154.5143  140.2203  155.9058 H   0  0  0  0  0  0  0  0  0  0  0  0  # atno 8009 bound_to 7997
  156.1619  140.3114  155.8828 H   0  0  0  0  0  0  0  0  0  0  0  0  # atno 8010 bound_to 7997
  139.6907  144.7108  151.1353 H   0  0  0  0  0  0  0  0  0  0  0  0  # atno 10167 bound_to 10162
  157.6668  130.9768  150.1478 H   0  0  0  0  0  0  0  0  0  0  0  0  # atno 10718 bound_to 10713
  153.7124  135.3266  155.3249 H   0  0  0  0  0  0  0  0  0  0  0  0  # atno 10763 bound_to 10752
  154.8381  135.4480  154.1300 H   0  0  0  0  0  0  0  0  0  0  0  0  # atno 10764 bound_to 10752
  153.2398  135.6969  153.7875 H   0  0  0  0  0  0  0  0  0  0  0  0  # atno 10765 bound_to 10752
  140.9015  133.7521  156.0550 H   0  0  0  0  0  0  0  0  0  0  0  0  # atno 11005 bound_to 11000
  145.1421  140.9577  143.4483 LP  0  0  0  0  0  0  0  0  0  0  0  0  # atno 17320 bound_to 7965
  145.0286  139.3361  143.6036 LP  0  0  0  0  0  0  0  0  0  0  0  0  # atno 17321 bound_to 7965
  140.7681  143.5563  150.9148 LP  0  0  0  0  0  0  0  0  0  0  0  0  # atno 17342 bound_to 10162
  139.9241  143.6571  152.3090 LP  0  0  0  0  0  0  0  0  0  0  0  0  # atno 17343 bound_to 10162
  156.2285  130.3680  149.8473 LP  0  0  0  0  0  0  0  0  0  0  0  0  # atno 17370 bound_to 10713
  156.6306  130.8664  151.3494 LP  0  0  0  0  0  0  0  0  0  0  0  0  # atno 17371 bound_to 10713
  140.8224  134.3273  157.5377 LP  0  0  0  0  0  0  0  0  0  0  0  0  # atno 17394 bound_to 11000
  139.8743  134.9317  156.3535 LP  0  0  0  0  0  0  0  0  0  0  0  0  # atno 17395 bound_to 11000

$$$$
