AV-unprocessed.smi:613|AV-procd|sdf|3064|dock1
  -GOLD-   2262023583D 1   1.00000     0.00000
 Structure written by MMmdl.
 38 39  0  0  0  0  0  0  0  0  1 V2000
  151.6454  139.8160  156.0982 C   0  0  0  0  0  0  0  0  0  0  0  0
  151.3786  140.8572  157.0840 N   0  0  0  0  0  0  0  0  0  0  0  0
  150.4968  141.9640  156.7087 C   0  0  0  0  0  0  0  0  0  0  0  0
  149.0065  141.5751  156.7306 C   0  0  2  0  0  0  0  0  0  0  0  0
  148.4559  141.3506  155.3082 C   0  0  0  0  0  0  0  0  0  0  0  0
  147.0258  141.0518  155.3105 N   0  0  0  0  0  0  0  0  0  0  0  0
  146.5284  140.7888  153.9537 C   0  0  0  0  0  0  0  0  0  0  0  0
  146.6759  139.3331  153.4933 C   0  0  0  0  0  0  0  0  0  0  0  0
  147.4565  139.1034  152.4345 N   0  0  0  0  0  0  0  0  0  0  0  0
  146.0887  138.4290  154.0838 O   0  0  0  0  0  0  0  0  0  0  0  0
  146.3018  142.1112  156.0179 C   0  0  0  0  0  0  0  0  0  0  0  0
  146.8721  142.3507  157.4259 C   0  0  0  0  0  0  0  0  0  0  0  0
  148.2643  142.6314  157.3358 O   0  0  0  0  0  0  0  0  0  0  0  0
  152.2384  140.9790  158.2024 C   0  0  0  0  0  0  0  0  0  0  0  0
  152.1565  142.0844  159.0846 C   0  0  0  0  0  0  0  0  0  0  0  0
  153.0460  142.1330  160.1717 C   0  0  0  0  0  0  0  0  0  0  0  0
  153.9604  141.0750  160.3067 C   0  0  0  0  0  0  0  0  0  0  0  0
  154.0058  140.0411  159.4396 N   0  0  0  0  0  0  0  0  0  0  0  0
  153.1584  139.9994  158.4061 N   0  0  0  0  0  0  0  0  0  0  0  0
  151.5065  138.8268  156.5352 H   0  0  0  0  0  0  0  0  0  0  0  0
  152.6647  139.8942  155.7184 H   0  0  0  0  0  0  0  0  0  0  0  0
  150.9667  139.8985  155.2488 H   0  0  0  0  0  0  0  0  0  0  0  0
  150.6664  142.8009  157.3870 H   0  0  0  0  0  0  0  0  0  0  0  0
  150.7746  142.3363  155.7221 H   0  0  0  0  0  0  0  0  0  0  0  0
  148.8742  140.6604  157.3115 H   0  0  0  0  0  0  0  0  0  0  0  0
  148.6492  142.2360  154.6996 H   0  0  0  0  0  0  0  0  0  0  0  0
  149.0023  140.5295  154.8418 H   0  0  0  0  0  0  0  0  0  0  0  0
  145.4823  141.0916  153.8770 H   0  0  0  0  0  0  0  0  0  0  0  0
  147.0753  141.4051  153.2388 H   0  0  0  0  0  0  0  0  0  0  0  0
  147.5840  138.1606  152.0968 H   0  0  0  0  0  0  0  0  0  0  0  0
  147.9179  139.8758  151.9761 H   0  0  0  0  0  0  0  0  0  0  0  0
  146.3513  143.0396  155.4465 H   0  0  0  0  0  0  0  0  0  0  0  0
  145.2452  141.8621  156.1166 H   0  0  0  0  0  0  0  0  0  0  0  0
  146.3684  143.1925  157.9011 H   0  0  0  0  0  0  0  0  0  0  0  0
  146.7098  141.4796  158.0627 H   0  0  0  0  0  0  0  0  0  0  0  0
  151.4432  142.8831  158.9501 H   0  0  0  0  0  0  0  0  0  0  0  0
  153.0278  142.9517  160.8755 H   0  0  0  0  0  0  0  0  0  0  0  0
  154.6687  141.0569  161.1218 H   0  0  0  0  0  0  0  0  0  0  0  0
  1  2  1  0  0  0  0
  1 20  1  0  0  0  0
  1 21  1  0  0  0  0
  1 22  1  0  0  0  0
  2  3  1  0  0  0  0
  2 14  1  0  0  0  0
  3  4  1  0  0  0  0
  3 23  1  0  0  0  0
  3 24  1  0  0  0  0
  4 13  1  0  0  0  0
  4  5  1  0  0  0  0
  4 25  1  0  0  0  0
  5  6  1  0  0  0  0
  5 26  1  0  0  0  0
  5 27  1  0  0  0  0
  6  7  1  0  0  0  0
  6 11  1  0  0  0  0
  7  8  1  0  0  0  0
  7 28  1  0  0  0  0
  7 29  1  0  0  0  0
  8  9  1  0  0  0  0
  8 10  2  0  0  0  0
  9 30  1  0  0  0  0
  9 31  1  0  0  0  0
 11 12  1  0  0  0  0
 11 32  1  0  0  0  0
 11 33  1  0  0  0  0
 12 13  1  0  0  0  0
 12 34  1  0  0  0  0
 12 35  1  0  0  0  0
 14 19  1  0  0  0  0
 14 15  2  0  0  0  0
 15 16  1  0  0  0  0
 15 36  1  0  0  0  0
 16 17  2  0  0  0  0
 16 37  1  0  0  0  0
 17 18  1  0  0  0  0
 17 38  1  0  0  0  0
 18 19  2  0  0  0  0
M  END
> <s_m_source_file>
AV-unprocessed.smi

> <i_m_source_file_index>
613

> <i_lp_mmshare_version>
43012

> <i_f3d_flags>
0

> <s_epik_input>
bjFuW2NIXVtjSF1bY0hdYzFOKFtDSDNdKVtDSDJdW0NAQEhdMltDSDJdTihbQ0gyXVtDSDJdTzIpW0NIMl1DKD1PKVtOSDJd

> <s_epik_cmdline>
J2VwaWtfcHl0aG9uJywgJy1waCcsICc3LjAnLCAnLXRuJywgJzgnLCAnLW1hJywgJzIwMCcsICctbWV0YWxfYmluZGluZycsICctaW1hZScsICc8aW5maWxlLm1hZT4nLCAnLW9tYWUnLCAnPG91dGZpbGUubWFlPic=

> <r_lp_tautomer_probability>
1

> <r_epik_Ionization_Penalty>
0.0398875

> <r_epik_Ionization_Penalty_Charging>
0

> <r_epik_Ionization_Penalty_Neutral>
0.0398875

> <r_epik_State_Penalty>
0.0543012

> <r_epik_Charging_Adjusted_Penalty>
0.0543012

> <i_epik_Tot_Q>
0

> <i_epik_Tot_abs_Q>
0

> <r_epik_Metal_State_Penalty>
0.0489294

> <b_epik_Metal_Only>
0

> <s_lp_Force_Field>
OPLS_2005

> <r_lp_Energy>
27.5025

> <b_lp_Chiralities_Consistent>
1

> <s_lp_Variant>
AV-unprocessed.smi:613-1

> <Gold.Version>
5.8.1

> <Gold.Id.Protein>
6NUR|6NUR_protein|mol2

> <Gold.PLP.Fitness>
37.3786

> <Gold.PLP.PLP>
-30.3576

> <Gold.PLP.part.hbond>
-2.7006

> <Gold.PLP.part.metal>
0.0000

> <Gold.PLP.part.buried>
-4.9459

> <Gold.PLP.part.nonpolar>
-24.0366

> <Gold.PLP.part.repulsive>
2.1724

> <Gold.PLP.ligand.clash>
0.0000

> <Gold.PLP.ligand.torsion>
1.1231

> <Gold.PLP.Chemscore.Hbond>
2.9675

> <Gold.PLP.Chemscore.CHOScore>
0.0000

> <Gold.PLP.Chemscore.Metal>
0.0000

> <Gold.Chemscore.Hbonds>
donor molecule, donor type, donor heavy atom, donor atom, acceptor molecule, acceptor atom, score
      L1  H     9    30       P1  7948  0.19
      L1  H     9    31       P1  7957  0.66
      P1  H  7997  8008       L1    19  0.60

> <Gold.PLP.Chemscore.Internal.Correction>
0.3649

> <Gold.Rescore>
     Score         DG    S(hbond)    S(metal)    S(lipo)     H(rot)  DE(clash)    DE(int)     intcor
     14.08     -15.42       2.57        0.00      59.24       2.18       0.06       1.27       ----

> <Gold.Chemscore.Fitness>
14.0833

> <Gold.Chemscore.DG>
-15.4182

> <Gold.Chemscore.ZeroCoef>
-5.4800

> <Gold.Chemscore.Hbond>
2.5729

> <Gold.Chemscore.Metal>
0.0000

> <Gold.Chemscore.Lipo>
59.2439

> <Gold.Chemscore.Internal_Hbond>
0.0000

> <Gold.Chemscore.DEClash>
0.0643

> <Gold.Chemscore.DEInternal>
1.2706

> <Gold.Chemscore.Rot>
2.1823

> <Gold.Chemscore.Internal.Correction>
   9.000000E+99

> <Gold.Chemscore.Hbonds>
donor molecule, donor type, donor heavy atom, donor atom, acceptor molecule, acceptor atom, score
      L1  H     9    30       P1  7948  0.20
      L1  H     9    31       P1  7957  0.66
      P1  H  7997  8008       L1    19  0.03

> <Gold.Chemscore.Hbond.Weighted>
-8.5934

> <Gold.Chemscore.Metal.Weighted>
-0.0000

> <Gold.Chemscore.Lipo.Weighted>
-6.9315

> <Gold.Chemscore.Internal_Hbond.Weighted>
0.0000

> <Gold.Chemscore.DEClash.Weighted>
0.0643

> <Gold.Chemscore.DEInternal.Weighted>
1.2706

> <Gold.Chemscore.Rot.Weighted>
5.5867

> <Gold.Chemscore.Internal.Correction.Weighted>
   9.000000E+99

> <Gold.Protein.RotatedTorsions>
[ 6907 6896 6895 6894 ] final  -53.69 input  -60.11 | X-H torsion
[ 7974 7965 7964 7962 ] final  148.73 input  175.53 | X-H torsion
[ 8008 7997 7996 7995 ] final  -90.72 input   59.86 | X-H torsion
[ 10167 10162 10161 10158 ] final  -80.30 input  -65.29 | X-H torsion
[ 10718 10713 10712 10709 ] final  -82.07 input   66.30 | X-H torsion
[ 10763 10752 10751 10750 ] final  133.51 input  -60.55 | X-H torsion
[ 11005 11000 10999 10996 ] final  145.96 input  -57.11 | X-H torsion

> <Gold.Protein.ActiveResidues>
 VAL166  LYS551  ARG553  GLY616  TRP617  ASP618  TYR619  PRO620  LYS621  CYS622 
 ASP623  PHE694  ASN695  SER759  ASP760  ASP761  ALA762  ILE779  LEU786  VAL792 
 PHE793  MET794  SER795  GLU796  ALA797  LYS798  CYS799  TRP800  GLU811  SER814 

> <Gold.Protein.RotatedAtoms>
  150.8404  134.7694  159.6927 H   0  0  0  0  0  0  0  0  0  0  0  0  # atno 6907 bound_to 6896
  152.4493  134.5425  159.9853 H   0  0  0  0  0  0  0  0  0  0  0  0  # atno 6908 bound_to 6896
  151.5566  133.3371  159.2999 H   0  0  0  0  0  0  0  0  0  0  0  0  # atno 6909 bound_to 6896
  144.8492  139.6190  143.5981 H   0  0  0  0  0  0  0  0  0  0  0  0  # atno 7974 bound_to 7965
  154.7020  140.0527  157.0467 H   0  0  0  0  0  0  0  0  0  0  0  0  # atno 8008 bound_to 7997
  155.0672  140.3196  155.4623 H   0  0  0  0  0  0  0  0  0  0  0  0  # atno 8009 bound_to 7997
  156.2763  140.2088  156.5799 H   0  0  0  0  0  0  0  0  0  0  0  0  # atno 8010 bound_to 7997
  140.4516  143.2481  151.8481 H   0  0  0  0  0  0  0  0  0  0  0  0  # atno 10167 bound_to 10162
  156.0039  130.4623  150.4048 H   0  0  0  0  0  0  0  0  0  0  0  0  # atno 10718 bound_to 10713
  153.8083  135.3132  155.3398 H   0  0  0  0  0  0  0  0  0  0  0  0  # atno 10763 bound_to 10752
  154.8062  135.4696  154.0400 H   0  0  0  0  0  0  0  0  0  0  0  0  # atno 10764 bound_to 10752
  153.1770  135.6887  153.8617 H   0  0  0  0  0  0  0  0  0  0  0  0  # atno 10765 bound_to 10752
  140.0755  134.9127  157.1415 H   0  0  0  0  0  0  0  0  0  0  0  0  # atno 11005 bound_to 11000
  146.2770  139.6778  142.9256 LP  0  0  0  0  0  0  0  0  0  0  0  0  # atno 17320 bound_to 7965
  145.4535  141.0429  143.2791 LP  0  0  0  0  0  0  0  0  0  0  0  0  # atno 17321 bound_to 7965
  139.4797  144.5114  151.8928 LP  0  0  0  0  0  0  0  0  0  0  0  0  # atno 17342 bound_to 10162
  140.4201  144.2255  150.5887 LP  0  0  0  0  0  0  0  0  0  0  0  0  # atno 17343 bound_to 10162
  157.2115  131.0461  151.2596 LP  0  0  0  0  0  0  0  0  0  0  0  0  # atno 17370 bound_to 10713
  157.3884  130.7269  149.6680 LP  0  0  0  0  0  0  0  0  0  0  0  0  # atno 17371 bound_to 10713
  140.3564  134.2542  155.7192 LP  0  0  0  0  0  0  0  0  0  0  0  0  # atno 17394 bound_to 11000
  141.2028  133.7929  157.0374 LP  0  0  0  0  0  0  0  0  0  0  0  0  # atno 17395 bound_to 11000

$$$$
