AV-unprocessed.smi:188|AV-procd|sdf|1473|dock3
  -GOLD-   2262019293D 1   1.00000     0.00000
 Structure written by MMmdl.
 48 52  0  0  0  0  0  0  0  0  2 V2000
  153.4942  138.9762  158.6960 O   0  0  0  0  0  0  0  0  0  0  0  0
  152.6286  138.9030  157.8267 C   0  0  0  0  0  0  0  0  0  0  0  0
  152.5685  139.5650  156.6555 N   0  5  0  0  0  0  0  0  0  0  0  0
  151.4617  139.2189  155.9630 C   0  0  0  0  0  0  0  0  0  0  0  0
  151.0709  139.6055  154.8623 O   0  0  0  0  0  0  0  0  0  0  0  0
  150.6933  138.1888  156.8087 C   0  0  0  0  0  0  0  0  0  0  0  0
  149.2960  138.6868  157.2472 C   0  0  0  0  0  0  0  0  0  0  0  0
  148.2668  138.6331  156.1034 C   0  0  0  0  0  0  0  0  0  0  0  0
  148.2234  137.3006  155.4976 N   0  0  0  0  0  0  0  0  0  0  0  0
  147.1655  137.0116  154.6976 C   0  0  0  0  0  0  0  0  0  0  0  0
  146.4564  138.0175  154.1181 N   0  0  0  0  0  0  0  0  0  0  0  0
  145.4240  137.7423  153.3163 C   0  0  0  0  0  0  0  0  0  0  0  0
  144.9333  136.5519  152.9676 N   0  0  0  0  0  0  0  0  0  0  0  0
  145.6294  135.5377  153.5554 C   0  0  0  0  0  0  0  0  0  0  0  0
  146.7495  135.6777  154.4237 C   0  0  0  0  0  0  0  0  0  0  0  0
  147.1913  134.4237  154.8293 N   0  0  0  0  0  0  0  0  0  0  0  0
  146.3875  133.5914  154.2263 C   0  0  0  0  0  0  0  0  0  0  0  0
  145.4119  134.1748  153.4490 N   0  0  0  0  0  0  0  0  0  0  0  0
  144.3904  133.4827  152.6772 C   0  0  0  0  0  0  0  0  0  0  0  0
  144.8827  132.9289  151.3233 C   0  0  0  0  0  0  0  0  0  0  0  0
  146.3647  133.2743  151.0933 C   0  0  0  0  0  0  0  0  0  0  0  0
  146.8327  132.7530  149.8656 O   0  0  0  0  0  0  0  0  0  0  0  0
  144.5219  131.4667  151.0222 C   0  0  0  0  0  0  0  0  0  0  0  0
  143.9810  131.8091  149.7292 O   0  0  0  0  0  0  0  0  0  0  0  0
  143.9662  133.1978  150.1216 C   0  0  0  0  0  0  0  0  0  0  0  0
  149.5065  136.7989  155.0055 C   0  0  0  0  0  0  0  0  0  0  0  0
  150.5695  136.8090  156.1200 C   0  0  0  0  0  0  0  0  0  0  0  0
  151.5740  138.1003  157.9547 N   0  0  0  0  0  0  0  0  0  0  0  0
  148.9365  138.0699  158.0721 H   0  0  0  0  0  0  0  0  0  0  0  0
  149.3553  139.7047  157.6356 H   0  0  0  0  0  0  0  0  0  0  0  0
  147.2833  138.8950  156.4959 H   0  0  0  0  0  0  0  0  0  0  0  0
  148.5096  139.3714  155.3387 H   0  0  0  0  0  0  0  0  0  0  0  0
  144.9198  138.5991  152.8941 H   0  0  0  0  0  0  0  0  0  0  0  0
  146.4786  132.5209  154.3404 H   0  0  0  0  0  0  0  0  0  0  0  0
  143.9922  132.6792  153.2980 H   0  0  0  0  0  0  0  0  0  0  0  0
  143.5571  134.1697  152.5244 H   0  0  0  0  0  0  0  0  0  0  0  0
  146.5366  134.3505  151.1160 H   0  0  0  0  0  0  0  0  0  0  0  0
  146.9822  132.8560  151.8889 H   0  0  0  0  0  0  0  0  0  0  0  0
  147.6428  132.2928  150.0247 H   0  0  0  0  0  0  0  0  0  0  0  0
  145.3820  130.7992  150.9581 H   0  0  0  0  0  0  0  0  0  0  0  0
  143.7541  131.0500  151.6750 H   0  0  0  0  0  0  0  0  0  0  0  0
  142.9635  133.5306  150.3953 H   0  0  0  0  0  0  0  0  0  0  0  0
  144.4008  133.8531  149.3659 H   0  0  0  0  0  0  0  0  0  0  0  0
  149.4128  135.7861  154.6152 H   0  0  0  0  0  0  0  0  0  0  0  0
  149.8273  137.4188  154.1679 H   0  0  0  0  0  0  0  0  0  0  0  0
  151.5312  136.4983  155.7087 H   0  0  0  0  0  0  0  0  0  0  0  0
  150.3041  136.0570  156.8646 H   0  0  0  0  0  0  0  0  0  0  0  0
  151.3976  137.5014  158.7475 H   0  0  0  0  0  0  0  0  0  0  0  0
  1  2  2  0  0  0  0
  2 28  1  0  0  0  0
  2  3  1  0  0  0  0
  3  4  1  0  0  0  0
  4  5  2  0  0  0  0
  4  6  1  0  0  0  0
  6 27  1  0  0  0  0
  6  7  1  0  0  0  0
  6 28  1  0  0  0  0
  7  8  1  0  0  0  0
  7 29  1  0  0  0  0
  7 30  1  0  0  0  0
  8  9  1  0  0  0  0
  8 31  1  0  0  0  0
  8 32  1  0  0  0  0
  9 10  1  0  0  0  0
  9 26  1  0  0  0  0
 10 15  1  0  0  0  0
 10 11  2  0  0  0  0
 11 12  1  0  0  0  0
 12 13  2  0  0  0  0
 12 33  1  0  0  0  0
 13 14  1  0  0  0  0
 14 18  1  0  0  0  0
 14 15  2  0  0  0  0
 15 16  1  0  0  0  0
 16 17  2  0  0  0  0
 17 18  1  0  0  0  0
 17 34  1  0  0  0  0
 18 19  1  0  0  0  0
 19 20  1  0  0  0  0
 19 35  1  0  0  0  0
 19 36  1  0  0  0  0
 20 25  1  0  0  0  0
 20 21  1  0  0  0  0
 20 23  1  0  0  0  0
 21 22  1  0  0  0  0
 21 37  1  0  0  0  0
 21 38  1  0  0  0  0
 22 39  1  0  0  0  0
 23 24  1  0  0  0  0
 23 40  1  0  0  0  0
 23 41  1  0  0  0  0
 24 25  1  0  0  0  0
 25 42  1  0  0  0  0
 25 43  1  0  0  0  0
 26 27  1  0  0  0  0
 26 44  1  0  0  0  0
 26 45  1  0  0  0  0
 27 46  1  0  0  0  0
 27 47  1  0  0  0  0
 28 48  1  0  0  0  0
M  CHG  1   3  -1
M  END
> <s_m_source_file>
AV-unprocessed.smi

> <i_m_source_file_index>
188

> <i_lp_mmshare_version>
43012

> <i_f3d_flags>
0

> <s_epik_input>
Tz1DKFtOSF0xKVtOSF1DKD1PKUMxMltDSDJdW0NIMl1OKFtDSDJdW0NIMl0yKWMobltjSF1uMyljKGMzNCluW2NIXW40W0NIMl1DNShbQ0gyXVtPSF0pW0NIMl1PW0NIMl01

> <s_epik_cmdline>
J2VwaWtfcHl0aG9uJywgJy1waCcsICc3LjAnLCAnLXRuJywgJzgnLCAnLW1hJywgJzIwMCcsICctbWV0YWxfYmluZGluZycsICctaW1hZScsICc8aW5maWxlLm1hZT4nLCAnLW9tYWUnLCAnPG91dGZpbGUubWFlPic=

> <r_lp_tautomer_probability>
1

> <r_epik_Ionization_Penalty>
2.63631

> <r_epik_Ionization_Penalty_Charging>
2.63472

> <r_epik_Ionization_Penalty_Neutral>
0.0015918

> <r_epik_State_Penalty>
2.63293

> <r_epik_Charging_Adjusted_Penalty>
5.26764

> <i_epik_Tot_Q>
-1

> <i_epik_Tot_abs_Q>
1

> <r_epik_Metal_State_Penalty>
0.446503

> <b_epik_Metal_Only>
1

> <s_lp_Force_Field>
OPLS_2005

> <r_lp_Energy>
37.7824

> <b_lp_Chiralities_Consistent>
1

> <s_lp_Variant>
AV-unprocessed.smi:188-2

> <Gold.Version>
5.8.1

> <Gold.Id.Protein>
6NUR|6NUR_protein|mol2

> <Gold.PLP.Fitness>
42.8499

> <Gold.PLP.PLP>
-26.3498

> <Gold.PLP.part.hbond>
-4.2857

> <Gold.PLP.part.metal>
0.0000

> <Gold.PLP.part.buried>
-5.1569

> <Gold.PLP.part.nonpolar>
-18.8144

> <Gold.PLP.part.repulsive>
0.8553

> <Gold.PLP.ligand.clash>
0.0000

> <Gold.PLP.ligand.torsion>
1.7431

> <Gold.PLP.Chemscore.Hbond>
4.6978

> <Gold.PLP.Chemscore.CHOScore>
1.7289

> <Gold.PLP.Chemscore.Metal>
0.0000

> <Gold.Chemscore.Hbonds>
donor molecule, donor type, donor heavy atom, donor atom, acceptor molecule, acceptor atom, score
      L1  H    22    39       P1 10747  1.00
      P1  H  7989  7998       L1     5  1.00
      P1  H  7997  8009       L1     3  2.00
      P1  H 10785 10796       L1    24  0.66
      L1  C    12    33       P1 10175  1.00

> <Gold.PLP.Chemscore.Internal.Correction>
0.7061

> <Gold.Rescore>
     Score         DG    S(hbond)    S(metal)    S(lipo)     H(rot)  DE(clash)    DE(int)     intcor
     13.76     -16.48       3.66        0.00      51.79       2.84       0.22       2.50       ----

> <Gold.Chemscore.Fitness>
13.7616

> <Gold.Chemscore.DG>
-16.4801

> <Gold.Chemscore.ZeroCoef>
-5.4800

> <Gold.Chemscore.Hbond>
3.6598

> <Gold.Chemscore.Metal>
0.0000

> <Gold.Chemscore.Lipo>
51.7903

> <Gold.Chemscore.Internal_Hbond>
0.0000

> <Gold.Chemscore.DEClash>
0.2177

> <Gold.Chemscore.DEInternal>
2.5009

> <Gold.Chemscore.Rot>
2.8450

> <Gold.Chemscore.Internal.Correction>
   9.000000E+99

> <Gold.Chemscore.Hbonds>
donor molecule, donor type, donor heavy atom, donor atom, acceptor molecule, acceptor atom, score
      L1  H    22    39       P1 10747  0.98
      P1  H  7989  7998       L1     5  0.99
      P1  H  7997  8009       L1     3  0.26
      P1  H 10785 10796       L1    24  0.52

> <Gold.Chemscore.Hbond.Weighted>
-12.2238

> <Gold.Chemscore.Metal.Weighted>
-0.0000

> <Gold.Chemscore.Lipo.Weighted>
-6.0595

> <Gold.Chemscore.Internal_Hbond.Weighted>
0.0000

> <Gold.Chemscore.DEClash.Weighted>
0.2177

> <Gold.Chemscore.DEInternal.Weighted>
2.5009

> <Gold.Chemscore.Rot.Weighted>
7.2831

> <Gold.Chemscore.Internal.Correction.Weighted>
   9.000000E+99

> <Gold.Protein.RotatedTorsions>
[ 6907 6896 6895 6894 ] final  122.21 input  -60.11 | X-H torsion
[ 7974 7965 7964 7962 ] final  160.72 input  175.53 | X-H torsion
[ 8008 7997 7996 7995 ] final -172.37 input   59.86 | X-H torsion
[ 10167 10162 10161 10158 ] final  125.39 input  -65.29 | X-H torsion
[ 10718 10713 10712 10709 ] final  161.02 input   66.30 | X-H torsion
[ 10763 10752 10751 10750 ] final   28.35 input  -60.55 | X-H torsion
[ 11005 11000 10999 10996 ] final -122.18 input  -57.11 | X-H torsion

> <Gold.Protein.ActiveResidues>
 VAL166  LYS551  ARG553  GLY616  TRP617  ASP618  TYR619  PRO620  LYS621  CYS622 
 ASP623  PHE694  ASN695  SER759  ASP760  ASP761  ALA762  ILE779  LEU786  VAL792 
 PHE793  MET794  SER795  GLU796  ALA797  LYS798  CYS799  TRP800  GLU811  SER814 

> <Gold.Protein.RotatedAtoms>
  152.4261  133.7198  159.6526 H   0  0  0  0  0  0  0  0  0  0  0  0  # atno 6907 bound_to 6896
  150.8138  133.8363  159.3176 H   0  0  0  0  0  0  0  0  0  0  0  0  # atno 6908 bound_to 6896
  151.6066  135.1045  160.0123 H   0  0  0  0  0  0  0  0  0  0  0  0  # atno 6909 bound_to 6896
  144.7722  139.7797  143.6292 H   0  0  0  0  0  0  0  0  0  0  0  0  # atno 7974 bound_to 7965
  155.9437  140.1113  157.1034 H   0  0  0  0  0  0  0  0  0  0  0  0  # atno 8008 bound_to 7997
  154.4094  140.1214  156.5027 H   0  0  0  0  0  0  0  0  0  0  0  0  # atno 8009 bound_to 7997
  155.6930  140.3472  155.4903 H   0  0  0  0  0  0  0  0  0  0  0  0  # atno 8010 bound_to 7997
  139.5688  144.6927  151.3835 H   0  0  0  0  0  0  0  0  0  0  0  0  # atno 10167 bound_to 10162
  157.1424  131.0543  151.2320 H   0  0  0  0  0  0  0  0  0  0  0  0  # atno 10718 bound_to 10713
  153.0497  135.6515  154.0724 H   0  0  0  0  0  0  0  0  0  0  0  0  # atno 10763 bound_to 10752
  154.0414  135.2903  155.3356 H   0  0  0  0  0  0  0  0  0  0  0  0  # atno 10764 bound_to 10752
  154.6779  135.5331  153.8290 H   0  0  0  0  0  0  0  0  0  0  0  0  # atno 10765 bound_to 10752
  141.0015  134.0396  157.3532 H   0  0  0  0  0  0  0  0  0  0  0  0  # atno 11005 bound_to 11000
  146.1877  139.5100  142.9825 LP  0  0  0  0  0  0  0  0  0  0  0  0  # atno 17320 bound_to 7965
  145.6290  141.0308  143.1873 LP  0  0  0  0  0  0  0  0  0  0  0  0  # atno 17321 bound_to 7965
  140.6972  143.7719  150.7346 LP  0  0  0  0  0  0  0  0  0  0  0  0  # atno 17342 bound_to 10162
  140.1219  143.4604  152.2308 LP  0  0  0  0  0  0  0  0  0  0  0  0  # atno 17343 bound_to 10162
  157.4295  130.7482  149.6978 LP  0  0  0  0  0  0  0  0  0  0  0  0  # atno 17370 bound_to 10713
  155.9786  130.4049  150.3638 LP  0  0  0  0  0  0  0  0  0  0  0  0  # atno 17371 bound_to 10713
  139.9041  135.0174  156.7405 LP  0  0  0  0  0  0  0  0  0  0  0  0  # atno 17394 bound_to 11000
  140.6882  133.9414  155.7950 LP  0  0  0  0  0  0  0  0  0  0  0  0  # atno 17395 bound_to 11000

$$$$
