AV-unprocessed.smi:1762|AV-procd|sdf|7112|dock7
  -GOLD-   22720 8333D 1   1.00000     0.00000
 Structure written by MMmdl.
 53 54  0  0  0  0  0  0  0  0  2 V2000
  149.0622  141.5894  154.5868 C   0  0  0  0  0  0  0  0  0  0  0  0
  149.4960  140.1456  154.8625 C   0  0  1  0  0  0  0  0  0  0  0  0
  148.9029  139.1568  153.8382 C   0  0  0  0  0  0  0  0  0  0  0  0
  149.3743  137.7676  154.0929 N   0  3  2  0  0  0  0  0  0  0  0  0
  148.7658  137.0563  155.2730 C   0  0  2  0  0  0  0  0  0  0  0  0
  149.1841  135.5709  155.3032 C   0  0  0  0  0  0  0  0  0  0  0  0
  149.6397  135.0760  156.3347 O   0  0  0  0  0  0  0  0  0  0  0  0
  149.0242  134.8768  154.1653 N   0  0  0  0  0  0  0  0  0  0  0  0
  149.3613  133.4695  153.9893 C   0  0  0  0  0  0  0  0  0  0  0  0
  148.1784  132.6698  153.4190 C   0  0  0  0  0  0  0  0  0  0  0  0
  148.4400  131.1759  153.4378 C   0  0  0  0  0  0  0  0  0  0  0  0
  149.6182  130.6580  154.0167 C   0  0  0  0  0  0  0  0  0  0  0  0
  149.8193  129.2641  153.9956 C   0  0  0  0  0  0  0  0  0  0  0  0
  148.8405  128.4467  153.3983 C   0  0  0  0  0  0  0  0  0  0  0  0
  147.6996  129.0620  152.8455 C   0  0  0  0  0  0  0  0  0  0  0  0
  147.4978  130.3976  152.8594 N   0  0  0  0  0  0  0  0  0  0  0  0
  147.2085  137.1923  155.3672 C   0  0  0  0  0  0  0  0  0  0  0  0
  146.6231  136.6143  156.6713 C   0  0  0  0  0  0  0  0  0  0  0  0
  146.4520  136.6210  154.1501 C   0  0  0  0  0  0  0  0  0  0  0  0
  150.8658  137.7752  154.0683 C   0  0  0  0  0  0  0  0  0  0  0  0
  151.4459  138.8004  155.0675 C   0  0  1  0  0  0  0  0  0  0  0  0
  152.9736  138.8844  154.9800 C   0  0  0  0  0  0  0  0  0  0  0  0
  150.9165  140.0903  154.7788 O   0  0  0  0  0  0  0  0  0  0  0  0
  147.9786  141.6921  154.6478 H   0  0  0  0  0  0  0  0  0  0  0  0
  149.3740  141.9133  153.5933 H   0  0  0  0  0  0  0  0  0  0  0  0
  149.5015  142.2739  155.3127 H   0  0  0  0  0  0  0  0  0  0  0  0
  149.1804  139.8799  155.8723 H   0  0  0  0  0  0  0  0  0  0  0  0
  147.8188  139.2323  153.7948 H   0  0  0  0  0  0  0  0  0  0  0  0
  149.2365  139.4421  152.8393 H   0  0  0  0  0  0  0  0  0  0  0  0
  149.1696  137.5209  156.1726 H   0  0  0  0  0  0  0  0  0  0  0  0
  148.6480  135.3583  153.3612 H   0  0  0  0  0  0  0  0  0  0  0  0
  150.2378  133.3718  153.3463 H   0  0  0  0  0  0  0  0  0  0  0  0
  149.6441  133.0666  154.9623 H   0  0  0  0  0  0  0  0  0  0  0  0
  147.2730  132.8830  153.9890 H   0  0  0  0  0  0  0  0  0  0  0  0
  147.9722  132.9782  152.3927 H   0  0  0  0  0  0  0  0  0  0  0  0
  150.3530  131.3115  154.4638 H   0  0  0  0  0  0  0  0  0  0  0  0
  150.7087  128.8303  154.4282 H   0  0  0  0  0  0  0  0  0  0  0  0
  148.9611  127.3739  153.3636 H   0  0  0  0  0  0  0  0  0  0  0  0
  146.9295  128.4660  152.3788 H   0  0  0  0  0  0  0  0  0  0  0  0
  146.9732  138.2539  155.4278 H   0  0  0  0  0  0  0  0  0  0  0  0
  146.6837  135.5258  156.7016 H   0  0  0  0  0  0  0  0  0  0  0  0
  145.5708  136.8801  156.7752 H   0  0  0  0  0  0  0  0  0  0  0  0
  147.1447  137.0042  157.5457 H   0  0  0  0  0  0  0  0  0  0  0  0
  146.5454  135.5366  154.0891 H   0  0  0  0  0  0  0  0  0  0  0  0
  146.8139  137.0362  153.2101 H   0  0  0  0  0  0  0  0  0  0  0  0
  145.3879  136.8500  154.2146 H   0  0  0  0  0  0  0  0  0  0  0  0
  151.2882  136.7874  154.2487 H   0  0  0  0  0  0  0  0  0  0  0  0
  151.1823  138.0414  153.0586 H   0  0  0  0  0  0  0  0  0  0  0  0
  151.1817  138.5266  156.0895 H   0  0  0  0  0  0  0  0  0  0  0  0
  153.4322  137.9224  155.2106 H   0  0  0  0  0  0  0  0  0  0  0  0
  153.3657  139.6163  155.6866 H   0  0  0  0  0  0  0  0  0  0  0  0
  153.2978  139.1791  153.9816 H   0  0  0  0  0  0  0  0  0  0  0  0
  149.0832  137.2247  153.2920 H   0  0  0  0  0  0  0  0  0  0  0  0
  1  2  1  0  0  0  0
  1 24  1  0  0  0  0
  1 25  1  0  0  0  0
  1 26  1  0  0  0  0
  2 23  1  0  0  0  0
  2  3  1  0  0  0  0
  2 27  1  0  0  0  0
  3  4  1  0  0  0  0
  3 28  1  0  0  0  0
  3 29  1  0  0  0  0
  4  5  1  0  0  0  0
  4 20  1  0  0  0  0
  4 53  1  0  0  0  0
  5  6  1  0  0  0  0
  5 17  1  0  0  0  0
  5 30  1  0  0  0  0
  6  7  2  0  0  0  0
  6  8  1  0  0  0  0
  8  9  1  0  0  0  0
  8 31  1  0  0  0  0
  9 10  1  0  0  0  0
  9 32  1  0  0  0  0
  9 33  1  0  0  0  0
 10 11  1  0  0  0  0
 10 34  1  0  0  0  0
 10 35  1  0  0  0  0
 11 16  1  0  0  0  0
 11 12  2  0  0  0  0
 12 13  1  0  0  0  0
 12 36  1  0  0  0  0
 13 14  2  0  0  0  0
 13 37  1  0  0  0  0
 14 15  1  0  0  0  0
 14 38  1  0  0  0  0
 15 16  2  0  0  0  0
 15 39  1  0  0  0  0
 17 18  1  0  0  0  0
 17 19  1  0  0  0  0
 17 40  1  0  0  0  0
 18 41  1  0  0  0  0
 18 42  1  0  0  0  0
 18 43  1  0  0  0  0
 19 44  1  0  0  0  0
 19 45  1  0  0  0  0
 19 46  1  0  0  0  0
 20 21  1  0  0  0  0
 20 47  1  0  0  0  0
 20 48  1  0  0  0  0
 21 22  1  0  0  0  0
 21 23  1  0  0  0  0
 21 49  1  0  0  0  0
 22 50  1  0  0  0  0
 22 51  1  0  0  0  0
 22 52  1  0  0  0  0
M  CHG  1   4   1
M  END
> <s_m_source_file>
AV-unprocessed.smi

> <i_m_source_file_index>
1762

> <i_lp_mmshare_version>
43012

> <i_f3d_flags>
0

> <s_epik_input>
W0NIM11bQ0BASF0xW0NIMl1OKFtDSDJdW0NASF0oTzEpW0NIM10pW0NAQEhdKFtDSF0oW0NIM10pW0NIM10pQyg9TylbTkhdW0NIMl1bQ0gyXWMyW2NIXVtjSF1bY0hdW2NIXW4y

> <s_epik_cmdline>
J2VwaWtfcHl0aG9uJywgJy1waCcsICc3LjAnLCAnLXRuJywgJzgnLCAnLW1hJywgJzIwMCcsICctbWV0YWxfYmluZGluZycsICctaW1hZScsICc8aW5maWxlLm1hZT4nLCAnLW9tYWUnLCAnPG91dGZpbGUubWFlPic=

> <r_epik_Ionization_Penalty>
2.27005

> <r_epik_Ionization_Penalty_Charging>
2.24983

> <r_epik_Ionization_Penalty_Neutral>
0.0202209

> <r_epik_State_Penalty>
2.40228

> <r_epik_Charging_Adjusted_Penalty>
4.65211

> <i_epik_Tot_Q>
1

> <i_epik_Tot_abs_Q>
1

> <r_epik_Metal_State_Penalty>
2.40762

> <b_epik_Metal_Only>
0

> <s_lp_Force_Field>
OPLS_2005

> <r_lp_Energy>
22.1735

> <b_lp_Chiralities_Consistent>
1

> <s_lp_Variant>
AV-unprocessed.smi:1762-14

> <Gold.Version>
5.8.1

> <Gold.Id.Protein>
6NUR|6NUR_protein|mol2

> <Gold.PLP.Fitness>
47.6050

> <Gold.PLP.PLP>
-36.4258

> <Gold.PLP.part.hbond>
-3.0000

> <Gold.PLP.part.metal>
0.0000

> <Gold.PLP.part.buried>
-0.3332

> <Gold.PLP.part.nonpolar>
-32.6077

> <Gold.PLP.part.repulsive>
1.1548

> <Gold.PLP.ligand.clash>
0.0000

> <Gold.PLP.ligand.torsion>
0.4906

> <Gold.PLP.Chemscore.Hbond>
3.9920

> <Gold.PLP.Chemscore.CHOScore>
0.0000

> <Gold.PLP.Chemscore.Metal>
0.0000

> <Gold.Chemscore.Hbonds>
donor molecule, donor type, donor heavy atom, donor atom, acceptor molecule, acceptor atom, score
      L1  H     4    53       P1  7948  2.00
      L1  H     8    31       P1  7948  0.94
      P1  H  7989  7998       L1    23  1.00

> <Gold.PLP.Chemscore.Internal.Correction>
0.1844

> <Gold.Rescore>
     Score         DG    S(hbond)    S(metal)    S(lipo)     H(rot)  DE(clash)    DE(int)     intcor
     19.07     -19.91       2.59        0.00      85.79       1.66       0.44       0.40       ----

> <Gold.Chemscore.Fitness>
19.0703

> <Gold.Chemscore.DG>
-19.9115

> <Gold.Chemscore.ZeroCoef>
-5.4800

> <Gold.Chemscore.Hbond>
2.5908

> <Gold.Chemscore.Metal>
0.0000

> <Gold.Chemscore.Lipo>
85.7855

> <Gold.Chemscore.Internal_Hbond>
0.0000

> <Gold.Chemscore.DEClash>
0.4411

> <Gold.Chemscore.DEInternal>
0.4001

> <Gold.Chemscore.Rot>
1.6635

> <Gold.Chemscore.Internal.Correction>
   9.000000E+99

> <Gold.Chemscore.Hbonds>
donor molecule, donor type, donor heavy atom, donor atom, acceptor molecule, acceptor atom, score
      L1  H     4    53       P1  7948  1.00
      L1  H     8    31       P1  7948  0.82
      P1  H  7989  7998       L1    23  0.85

> <Gold.Chemscore.Hbond.Weighted>
-8.6533

> <Gold.Chemscore.Metal.Weighted>
-0.0000

> <Gold.Chemscore.Lipo.Weighted>
-10.0369

> <Gold.Chemscore.Internal_Hbond.Weighted>
0.0000

> <Gold.Chemscore.DEClash.Weighted>
0.4411

> <Gold.Chemscore.DEInternal.Weighted>
0.4001

> <Gold.Chemscore.Rot.Weighted>
4.2586

> <Gold.Chemscore.Internal.Correction.Weighted>
   9.000000E+99

> <Gold.Protein.RotatedTorsions>
[ 6907 6896 6895 6894 ] final   88.21 input  -60.11 | X-H torsion
[ 7974 7965 7964 7962 ] final -177.32 input  175.53 | X-H torsion
[ 8008 7997 7996 7995 ] final   35.30 input   59.86 | X-H torsion
[ 10167 10162 10161 10158 ] final  -83.56 input  -65.29 | X-H torsion
[ 10718 10713 10712 10709 ] final -150.61 input   66.30 | X-H torsion
[ 10763 10752 10751 10750 ] final   31.50 input  -60.55 | X-H torsion
[ 11005 11000 10999 10996 ] final  -49.56 input  -57.11 | X-H torsion

> <Gold.Protein.ActiveResidues>
 VAL166  LYS551  ARG553  GLY616  TRP617  ASP618  TYR619  PRO620  LYS621  CYS622 
 ASP623  PHE694  ASN695  SER759  ASP760  ASP761  ALA762  ILE779  LEU786  VAL792 
 PHE793  MET794  SER795  GLU796  ALA797  LYS798  CYS799  TRP800  GLU811  SER814 

> <Gold.Protein.RotatedAtoms>
  152.5422  134.2157  159.8767 H   0  0  0  0  0  0  0  0  0  0  0  0  # atno 6907 bound_to 6896
  151.2137  133.4535  159.2606 H   0  0  0  0  0  0  0  0  0  0  0  0  # atno 6908 bound_to 6896
  151.0872  134.9907  159.8441 H   0  0  0  0  0  0  0  0  0  0  0  0  # atno 6909 bound_to 6896
  144.7127  140.1037  143.6415 H   0  0  0  0  0  0  0  0  0  0  0  0  # atno 7974 bound_to 7965
  155.1688  140.3290  155.4397 H   0  0  0  0  0  0  0  0  0  0  0  0  # atno 8008 bound_to 7997
  156.2517  140.1947  156.6742 H   0  0  0  0  0  0  0  0  0  0  0  0  # atno 8009 bound_to 7997
  154.6352  140.0577  156.9767 H   0  0  0  0  0  0  0  0  0  0  0  0  # atno 8010 bound_to 7997
  140.4215  143.2583  151.8884 H   0  0  0  0  0  0  0  0  0  0  0  0  # atno 10167 bound_to 10162
  156.4484  130.8156  151.2386 H   0  0  0  0  0  0  0  0  0  0  0  0  # atno 10718 bound_to 10713
  153.0312  135.6437  154.1208 H   0  0  0  0  0  0  0  0  0  0  0  0  # atno 10763 bound_to 10752
  154.0930  135.2865  155.3269 H   0  0  0  0  0  0  0  0  0  0  0  0  # atno 10764 bound_to 10752
  154.6451  135.5446  153.7899 H   0  0  0  0  0  0  0  0  0  0  0  0  # atno 10765 bound_to 10752
  141.0766  133.6664  156.3603 H   0  0  0  0  0  0  0  0  0  0  0  0  # atno 11005 bound_to 11000
  145.9516  139.2737  143.1209 LP  0  0  0  0  0  0  0  0  0  0  0  0  # atno 17320 bound_to 7965
  145.9317  140.9043  143.0353 LP  0  0  0  0  0  0  0  0  0  0  0  0  # atno 17321 bound_to 7965
  139.4783  144.5432  151.8497 LP  0  0  0  0  0  0  0  0  0  0  0  0  # atno 17342 bound_to 10162
  140.4529  144.1830  150.5899 LP  0  0  0  0  0  0  0  0  0  0  0  0  # atno 17343 bound_to 10162
  157.7504  131.0146  150.3469 LP  0  0  0  0  0  0  0  0  0  0  0  0  # atno 17370 bound_to 10713
  156.3842  130.3886  149.7078 LP  0  0  0  0  0  0  0  0  0  0  0  0  # atno 17371 bound_to 10713
  140.5560  134.5981  157.5421 LP  0  0  0  0  0  0  0  0  0  0  0  0  # atno 17394 bound_to 11000
  139.9578  134.7504  156.0303 LP  0  0  0  0  0  0  0  0  0  0  0  0  # atno 17395 bound_to 11000

$$$$
