AV-unprocessed.smi:1830|AV-procd|sdf|7435|dock10
  -GOLD-   22720 9123D 1   1.00000     0.00000
 Structure written by MMmdl.
 53 56  0  0  0  0  0  0  0  0  2 V2000
  150.2481  134.8862  155.7908 O   0  0  0  0  0  0  0  0  0  0  0  0
  149.6473  135.3401  154.8168 C   0  0  0  0  0  0  0  0  0  0  0  0
  148.7295  134.6469  154.1292 N   0  0  0  0  0  0  0  0  0  0  0  0
  148.3093  133.2846  154.4399 C   0  0  0  0  0  0  0  0  0  0  0  0
  146.9820  132.9183  153.7517 C   0  0  1  0  0  0  0  0  0  0  0  0
  145.9058  133.9919  153.9759 C   0  0  0  0  0  0  0  0  0  0  0  0
  144.6422  133.6458  153.2771 N   0  3  1  0  0  0  0  0  0  0  0  0
  143.6947  134.7818  153.2366 C   0  0  0  0  0  0  0  0  0  0  0  0
  143.8595  135.4451  151.8567 C   0  0  0  0  0  0  0  0  0  0  0  0
  144.8636  134.5733  151.0942 C   0  0  0  0  0  0  0  0  0  0  0  0
  144.8498  133.2538  151.8659 C   0  0  1  0  0  0  0  0  0  0  0  0
  146.0718  132.3349  151.6603 C   0  0  0  0  0  0  0  0  0  0  0  0
  147.2108  132.8281  152.3511 O   0  0  0  0  0  0  0  0  0  0  0  0
  149.8028  136.5763  154.3144 N   0  0  0  0  0  0  0  0  0  0  0  0
  150.6607  137.6155  154.7752 C   0  0  0  0  0  0  0  0  0  0  0  0
  151.8902  137.3348  155.4204 C   0  0  0  0  0  0  0  0  0  0  0  0
  152.6913  138.3967  155.8732 C   0  0  0  0  0  0  0  0  0  0  0  0
  152.2359  139.7084  155.6627 C   0  0  0  0  0  0  0  0  0  0  0  0
  151.0791  139.9937  155.0329 N   0  0  0  0  0  0  0  0  0  0  0  0
  150.3027  138.9803  154.5757 C   0  0  0  0  0  0  0  0  0  0  0  0
  149.1134  139.3427  153.9025 N   0  0  0  0  0  0  0  0  0  0  0  0
  148.9631  140.7296  153.4718 C   0  0  0  0  0  0  0  0  0  0  0  0
  147.4846  141.0856  153.6614 C   0  0  0  0  0  0  0  0  0  0  0  0
  146.7864  139.7295  153.6791 C   0  0  0  0  0  0  0  0  0  0  0  0
  147.8220  138.8383  154.3585 C   0  0  0  0  0  0  0  0  0  0  0  0
  148.2808  135.0953  153.3437 H   0  0  0  0  0  0  0  0  0  0  0  0
  149.0954  132.5888  154.1418 H   0  0  0  0  0  0  0  0  0  0  0  0
  148.2099  133.1920  155.5219 H   0  0  0  0  0  0  0  0  0  0  0  0
  146.6243  131.9613  154.1363 H   0  0  0  0  0  0  0  0  0  0  0  0
  145.7009  134.1058  155.0412 H   0  0  0  0  0  0  0  0  0  0  0  0
  146.2748  134.9554  153.6199 H   0  0  0  0  0  0  0  0  0  0  0  0
  142.6827  134.3867  153.3335 H   0  0  0  0  0  0  0  0  0  0  0  0
  143.8468  135.4832  154.0585 H   0  0  0  0  0  0  0  0  0  0  0  0
  142.9007  135.4751  151.3378 H   0  0  0  0  0  0  0  0  0  0  0  0
  144.2188  136.4710  151.9418 H   0  0  0  0  0  0  0  0  0  0  0  0
  144.6001  134.4489  150.0434 H   0  0  0  0  0  0  0  0  0  0  0  0
  145.8548  135.0268  151.1376 H   0  0  0  0  0  0  0  0  0  0  0  0
  143.9596  132.7051  151.5531 H   0  0  0  0  0  0  0  0  0  0  0  0
  145.8486  131.3262  152.0117 H   0  0  0  0  0  0  0  0  0  0  0  0
  146.3054  132.2480  150.5991 H   0  0  0  0  0  0  0  0  0  0  0  0
  149.1657  136.8397  153.5771 H   0  0  0  0  0  0  0  0  0  0  0  0
  152.2367  136.3237  155.5693 H   0  0  0  0  0  0  0  0  0  0  0  0
  153.6306  138.2095  156.3720 H   0  0  0  0  0  0  0  0  0  0  0  0
  152.8190  140.5519  156.0011 H   0  0  0  0  0  0  0  0  0  0  0  0
  149.6104  141.4073  154.0304 H   0  0  0  0  0  0  0  0  0  0  0  0
  149.2278  140.7990  152.4166 H   0  0  0  0  0  0  0  0  0  0  0  0
  147.3471  141.5801  154.6238 H   0  0  0  0  0  0  0  0  0  0  0  0
  147.1058  141.7504  152.8849 H   0  0  0  0  0  0  0  0  0  0  0  0
  145.8308  139.7461  154.2038 H   0  0  0  0  0  0  0  0  0  0  0  0
  146.6098  139.3876  152.6585 H   0  0  0  0  0  0  0  0  0  0  0  0
  147.6893  137.7890  154.0943 H   0  0  0  0  0  0  0  0  0  0  0  0
  147.7265  138.9337  155.4409 H   0  0  0  0  0  0  0  0  0  0  0  0
  144.2234  132.8721  153.7739 H   0  0  0  0  0  0  0  0  0  0  0  0
  1  2  2  0  0  0  0
  2  3  1  0  0  0  0
  2 14  1  0  0  0  0
  3  4  1  0  0  0  0
  3 26  1  0  0  0  0
  4  5  1  0  0  0  0
  4 27  1  0  0  0  0
  4 28  1  0  0  0  0
  5 13  1  0  0  0  0
  5  6  1  0  0  0  0
  5 29  1  0  0  0  0
  6  7  1  0  0  0  0
  6 30  1  0  0  0  0
  6 31  1  0  0  0  0
  7 11  1  0  0  0  0
  7  8  1  0  0  0  0
  7 53  1  0  0  0  0
  8  9  1  0  0  0  0
  8 32  1  0  0  0  0
  8 33  1  0  0  0  0
  9 10  1  0  0  0  0
  9 34  1  0  0  0  0
  9 35  1  0  0  0  0
 10 11  1  0  0  0  0
 10 36  1  0  0  0  0
 10 37  1  0  0  0  0
 11 12  1  0  0  0  0
 11 38  1  0  0  0  0
 12 13  1  0  0  0  0
 12 39  1  0  0  0  0
 12 40  1  0  0  0  0
 14 15  1  0  0  0  0
 14 41  1  0  0  0  0
 15 20  1  0  0  0  0
 15 16  2  0  0  0  0
 16 17  1  0  0  0  0
 16 42  1  0  0  0  0
 17 18  2  0  0  0  0
 17 43  1  0  0  0  0
 18 19  1  0  0  0  0
 18 44  1  0  0  0  0
 19 20  2  0  0  0  0
 20 21  1  0  0  0  0
 21 25  1  0  0  0  0
 21 22  1  0  0  0  0
 22 23  1  0  0  0  0
 22 45  1  0  0  0  0
 22 46  1  0  0  0  0
 23 24  1  0  0  0  0
 23 47  1  0  0  0  0
 23 48  1  0  0  0  0
 24 25  1  0  0  0  0
 24 49  1  0  0  0  0
 24 50  1  0  0  0  0
 25 51  1  0  0  0  0
 25 52  1  0  0  0  0
M  CHG  1   7   1
M  END
> <s_m_source_file>
AV-unprocessed.smi

> <i_m_source_file_index>
1830

> <i_lp_mmshare_version>
43012

> <i_f3d_flags>
0

> <s_epik_input>
W0NIMl0xW0NIMl1bQ0gyXVtDQEhdKE4xMilbQ0gyXU9bQ0BASF0oW0NIMl0yKVtDSDJdW05IXUMoPU8pW05IXWMzW2NIXVtjSF1bY0hdbmMzTjRbQ0gyXVtDSDJdW0NIMl1bQ0gyXTQ=

> <s_epik_cmdline>
J2VwaWtfcHl0aG9uJywgJy1waCcsICc3LjAnLCAnLXRuJywgJzgnLCAnLW1hJywgJzIwMCcsICctbWV0YWxfYmluZGluZycsICctaW1hZScsICc8aW5maWxlLm1hZT4nLCAnLW9tYWUnLCAnPG91dGZpbGUubWFlPic=

> <r_lp_tautomer_probability>
1

> <r_epik_Ionization_Penalty>
0.193547

> <r_epik_Ionization_Penalty_Charging>
0.10673

> <r_epik_Ionization_Penalty_Neutral>
0.0868166

> <r_epik_State_Penalty>
0.173595

> <r_epik_Charging_Adjusted_Penalty>
0.280326

> <i_epik_Tot_Q>
1

> <i_epik_Tot_abs_Q>
1

> <r_epik_Metal_State_Penalty>
0.164683

> <b_epik_Metal_Only>
0

> <s_lp_Force_Field>
OPLS_2005

> <r_lp_Energy>
64.3317

> <b_lp_Chiralities_Consistent>
1

> <s_lp_Variant>
AV-unprocessed.smi:1830-4

> <Gold.Version>
5.8.1

> <Gold.Id.Protein>
6NUR|6NUR_protein|mol2

> <Gold.PLP.Fitness>
44.9925

> <Gold.PLP.PLP>
-33.5090

> <Gold.PLP.part.hbond>
-4.1794

> <Gold.PLP.part.metal>
0.0000

> <Gold.PLP.part.buried>
-2.4340

> <Gold.PLP.part.nonpolar>
-29.5031

> <Gold.PLP.part.repulsive>
0.7968

> <Gold.PLP.ligand.clash>
0.0000

> <Gold.PLP.ligand.torsion>
0.5254

> <Gold.PLP.Chemscore.Hbond>
4.0705

> <Gold.PLP.Chemscore.CHOScore>
0.0000

> <Gold.PLP.Chemscore.Metal>
0.0000

> <Gold.Chemscore.Hbonds>
donor molecule, donor type, donor heavy atom, donor atom, acceptor molecule, acceptor atom, score
      L1  H     3    26       P1  7948  0.66
      L1  H     7    53       P1 10957  1.40
      L1  H    14    41       P1  7948  0.62
      P1  H  7989  7998       L1    19  1.00

> <Gold.PLP.Chemscore.Internal.Correction>
0.3227

> <Gold.Rescore>
     Score         DG    S(hbond)    S(metal)    S(lipo)     H(rot)  DE(clash)    DE(int)     intcor
     14.19     -19.36       2.31        0.00      83.49       1.41       2.55       2.62       ----

> <Gold.Chemscore.Fitness>
14.1936

> <Gold.Chemscore.DG>
-19.3642

> <Gold.Chemscore.ZeroCoef>
-5.4800

> <Gold.Chemscore.Hbond>
2.3104

> <Gold.Chemscore.Metal>
0.0000

> <Gold.Chemscore.Lipo>
83.4908

> <Gold.Chemscore.Internal_Hbond>
0.0000

> <Gold.Chemscore.DEClash>
2.5482

> <Gold.Chemscore.DEInternal>
2.6225

> <Gold.Chemscore.Rot>
1.4067

> <Gold.Chemscore.Internal.Correction>
   9.000000E+99

> <Gold.Chemscore.Hbonds>
donor molecule, donor type, donor heavy atom, donor atom, acceptor molecule, acceptor atom, score
      L1  H     3    26       P1  7948  0.62
      L1  H     7    53       P1 10957  0.56
      L1  H    14    41       P1  7948  0.62
      P1  H  7989  7998       L1    19  0.18

> <Gold.Chemscore.Hbond.Weighted>
-7.7169

> <Gold.Chemscore.Metal.Weighted>
-0.0000

> <Gold.Chemscore.Lipo.Weighted>
-9.7684

> <Gold.Chemscore.Internal_Hbond.Weighted>
0.0000

> <Gold.Chemscore.DEClash.Weighted>
2.5482

> <Gold.Chemscore.DEInternal.Weighted>
2.6225

> <Gold.Chemscore.Rot.Weighted>
3.6011

> <Gold.Chemscore.Internal.Correction.Weighted>
   9.000000E+99

> <Gold.Protein.RotatedTorsions>
[ 6907 6896 6895 6894 ] final   58.00 input  -60.11 | X-H torsion
[ 7974 7965 7964 7962 ] final -176.91 input  175.53 | X-H torsion
[ 8008 7997 7996 7995 ] final   35.07 input   59.86 | X-H torsion
[ 10167 10162 10161 10158 ] final  -25.11 input  -65.29 | X-H torsion
[ 10718 10713 10712 10709 ] final   37.11 input   66.30 | X-H torsion
[ 10763 10752 10751 10750 ] final  -38.97 input  -60.55 | X-H torsion
[ 11005 11000 10999 10996 ] final -168.67 input  -57.11 | X-H torsion

> <Gold.Protein.ActiveResidues>
 VAL166  LYS551  ARG553  GLY616  TRP617  ASP618  TYR619  PRO620  LYS621  CYS622 
 ASP623  PHE694  ASN695  SER759  ASP760  ASP761  ALA762  ILE779  LEU786  VAL792 
 PHE793  MET794  SER795  GLU796  ALA797  LYS798  CYS799  TRP800  GLU811  SER814 

> <Gold.Protein.RotatedAtoms>
  152.3784  134.6628  160.0151 H   0  0  0  0  0  0  0  0  0  0  0  0  # atno 6907 bound_to 6896
  151.6899  133.3305  159.3248 H   0  0  0  0  0  0  0  0  0  0  0  0  # atno 6908 bound_to 6896
  150.7728  134.6643  159.6401 H   0  0  0  0  0  0  0  0  0  0  0  0  # atno 6909 bound_to 6896
  144.7127  140.1099  143.6411 H   0  0  0  0  0  0  0  0  0  0  0  0  # atno 7974 bound_to 7965
  155.1651  140.3287  155.4403 H   0  0  0  0  0  0  0  0  0  0  0  0  # atno 8008 bound_to 7997
  156.2529  140.1953  156.6707 H   0  0  0  0  0  0  0  0  0  0  0  0  # atno 8009 bound_to 7997
  154.6377  140.0574  156.9794 H   0  0  0  0  0  0  0  0  0  0  0  0  # atno 8010 bound_to 7997
  140.7287  143.4293  151.0826 H   0  0  0  0  0  0  0  0  0  0  0  0  # atno 10167 bound_to 10162
  157.3430  130.7558  149.6925 H   0  0  0  0  0  0  0  0  0  0  0  0  # atno 10718 bound_to 10713
  153.9217  135.6781  153.4747 H   0  0  0  0  0  0  0  0  0  0  0  0  # atno 10763 bound_to 10752
  153.1025  135.4821  154.8890 H   0  0  0  0  0  0  0  0  0  0  0  0  # atno 10764 bound_to 10752
  154.7475  135.3176  154.8575 H   0  0  0  0  0  0  0  0  0  0  0  0  # atno 10765 bound_to 10752
  140.5394  134.5537  157.5096 H   0  0  0  0  0  0  0  0  0  0  0  0  # atno 11005 bound_to 11000
  145.9463  139.2703  143.1238 LP  0  0  0  0  0  0  0  0  0  0  0  0  # atno 17320 bound_to 7965
  145.9370  140.9007  143.0327 LP  0  0  0  0  0  0  0  0  0  0  0  0  # atno 17321 bound_to 7965
  139.7948  143.8167  152.3156 LP  0  0  0  0  0  0  0  0  0  0  0  0  # atno 17342 bound_to 10162
  139.8163  144.7315  150.9631 LP  0  0  0  0  0  0  0  0  0  0  0  0  # atno 17343 bound_to 10162
  155.9710  130.4162  150.4220 LP  0  0  0  0  0  0  0  0  0  0  0  0  # atno 17370 bound_to 10713
  157.2271  131.0495  151.2513 LP  0  0  0  0  0  0  0  0  0  0  0  0  # atno 17371 bound_to 10713
  139.9512  134.7614  156.0445 LP  0  0  0  0  0  0  0  0  0  0  0  0  # atno 17394 bound_to 11000
  141.1236  133.6605  156.3278 LP  0  0  0  0  0  0  0  0  0  0  0  0  # atno 17395 bound_to 11000

$$$$
