AV-unprocessed.smi:149|AV-procd|sdf|1240|dock8
  -GOLD-   2262018453D 1   1.00000     0.00000
 Structure written by MMmdl.
 59 63  0  0  0  0  0  0  0  0  1 V2000
  152.2229  128.5260  157.6039 C   0  0  0  0  0  0  0  0  0  0  0  0
  151.8477  130.0160  157.5237 C   0  0  2  0  0  0  0  0  0  0  0  0
  150.7147  130.3640  156.5634 C   0  0  0  0  0  0  0  0  0  0  0  0
  150.8165  131.8065  156.3949 N   0  0  0  0  0  0  0  0  0  0  0  0
  150.0120  132.4544  155.5109 C   0  0  0  0  0  0  0  0  0  0  0  0
  150.2251  133.7778  155.2811 N   0  0  0  0  0  0  0  0  0  0  0  0
  149.4598  134.4512  154.4183 C   0  0  0  0  0  0  0  0  0  0  0  0
  148.4406  134.0045  153.6842 N   0  0  0  0  0  0  0  0  0  0  0  0
  148.2213  132.6766  153.9003 C   0  0  0  0  0  0  0  0  0  0  0  0
  148.9561  131.8307  154.7810 C   0  0  0  0  0  0  0  0  0  0  0  0
  148.4551  130.5350  154.7053 N   0  0  0  0  0  0  0  0  0  0  0  0
  147.4837  130.6125  153.8381 C   0  0  0  0  0  0  0  0  0  0  0  0
  147.2546  131.8691  153.3272 N   0  0  0  0  0  0  0  0  0  0  0  0
  146.2844  132.2293  152.3355 C   0  0  0  0  0  0  0  0  0  0  0  0
  146.6844  133.0256  151.0914 C   0  0  0  0  0  0  0  0  0  0  0  0
  145.2957  133.7012  151.0858 C   0  0  0  0  0  0  0  0  0  0  0  0
  145.3008  135.2046  150.7622 C   0  0  0  0  0  0  0  0  0  0  0  0
  146.0769  135.9278  151.6958 O   0  0  0  0  0  0  0  0  0  0  0  0
  144.2299  132.9993  150.2201 C   0  0  0  0  0  0  0  0  0  0  0  0
  142.9311  133.1929  150.7424 O   0  0  0  0  0  0  0  0  0  0  0  0
  145.2647  133.3422  152.5888 C   0  0  0  0  0  0  0  0  0  0  0  0
  152.2059  132.2204  156.5508 C   0  0  0  0  0  0  0  0  0  0  0  0
  152.9624  131.0222  157.1678 C   0  0  2  0  0  0  0  0  0  0  0  0
  154.1035  130.5167  156.3858 N   0  0  0  0  0  0  0  0  0  0  0  0
  153.7640  129.9812  155.0650 C   0  0  0  0  0  0  0  0  0  0  0  0
  154.9999  129.3972  154.3614 C   0  0  0  0  0  0  0  0  0  0  0  0
  156.0058  130.4004  154.2583 O   0  0  0  0  0  0  0  0  0  0  0  0
  156.3949  130.9234  155.5247 C   0  0  0  0  0  0  0  0  0  0  0  0
  155.1672  131.5064  156.2463 C   0  0  0  0  0  0  0  0  0  0  0  0
  152.5056  128.1102  156.6386 H   0  0  0  0  0  0  0  0  0  0  0  0
  151.3823  127.9383  157.9734 H   0  0  0  0  0  0  0  0  0  0  0  0
  153.0564  128.3729  158.2897 H   0  0  0  0  0  0  0  0  0  0  0  0
  151.4964  130.2962  158.5184 H   0  0  0  0  0  0  0  0  0  0  0  0
  150.8456  129.8669  155.6017 H   0  0  0  0  0  0  0  0  0  0  0  0
  149.7451  130.0757  156.9712 H   0  0  0  0  0  0  0  0  0  0  0  0
  149.6978  135.4979  154.3001 H   0  0  0  0  0  0  0  0  0  0  0  0
  146.9017  129.7490  153.5506 H   0  0  0  0  0  0  0  0  0  0  0  0
  145.7822  131.3018  152.0560 H   0  0  0  0  0  0  0  0  0  0  0  0
  147.4985  133.7258  151.2894 H   0  0  0  0  0  0  0  0  0  0  0  0
  146.9009  132.4152  150.2141 H   0  0  0  0  0  0  0  0  0  0  0  0
  145.6799  135.3992  149.7587 H   0  0  0  0  0  0  0  0  0  0  0  0
  144.2884  135.6092  150.7893 H   0  0  0  0  0  0  0  0  0  0  0  0
  146.9744  135.9329  151.3999 H   0  0  0  0  0  0  0  0  0  0  0  0
  144.2516  133.3575  149.1906 H   0  0  0  0  0  0  0  0  0  0  0  0
  144.4093  131.9254  150.1683 H   0  0  0  0  0  0  0  0  0  0  0  0
  142.3631  133.4680  150.0390 H   0  0  0  0  0  0  0  0  0  0  0  0
  144.3021  132.9918  152.9627 H   0  0  0  0  0  0  0  0  0  0  0  0
  145.6625  134.1362  153.2239 H   0  0  0  0  0  0  0  0  0  0  0  0
  152.6278  132.5478  155.6012 H   0  0  0  0  0  0  0  0  0  0  0  0
  152.2454  133.0704  157.2325 H   0  0  0  0  0  0  0  0  0  0  0  0
  153.3692  131.3540  158.1245 H   0  0  0  0  0  0  0  0  0  0  0  0
  153.0009  129.2099  155.1408 H   0  0  0  0  0  0  0  0  0  0  0  0
  153.3455  130.7627  154.4317 H   0  0  0  0  0  0  0  0  0  0  0  0
  155.3867  128.5372  154.9104 H   0  0  0  0  0  0  0  0  0  0  0  0
  154.7384  129.0500  153.3618 H   0  0  0  0  0  0  0  0  0  0  0  0
  156.8557  130.1358  156.1230 H   0  0  0  0  0  0  0  0  0  0  0  0
  157.1500  131.6952  155.3758 H   0  0  0  0  0  0  0  0  0  0  0  0
  154.8025  132.3720  155.6918 H   0  0  0  0  0  0  0  0  0  0  0  0
  155.4692  131.8693  157.2291 H   0  0  0  0  0  0  0  0  0  0  0  0
  1  2  1  0  0  0  0
  1 30  1  0  0  0  0
  1 31  1  0  0  0  0
  1 32  1  0  0  0  0
  2 23  1  0  0  0  0
  2  3  1  0  0  0  0
  2 33  1  0  0  0  0
  3  4  1  0  0  0  0
  3 34  1  0  0  0  0
  3 35  1  0  0  0  0
  4  5  1  0  0  0  0
  4 22  1  0  0  0  0
  5 10  1  0  0  0  0
  5  6  2  0  0  0  0
  6  7  1  0  0  0  0
  7  8  2  0  0  0  0
  7 36  1  0  0  0  0
  8  9  1  0  0  0  0
  9 13  1  0  0  0  0
  9 10  2  0  0  0  0
 10 11  1  0  0  0  0
 11 12  2  0  0  0  0
 12 13  1  0  0  0  0
 12 37  1  0  0  0  0
 13 14  1  0  0  0  0
 14 21  1  0  0  0  0
 14 15  1  0  0  0  0
 14 38  1  0  0  0  0
 15 16  1  0  0  0  0
 15 39  1  0  0  0  0
 15 40  1  0  0  0  0
 16 17  1  0  0  0  0
 16 19  1  0  0  0  0
 16 21  1  0  0  0  0
 17 18  1  0  0  0  0
 17 41  1  0  0  0  0
 17 42  1  0  0  0  0
 18 43  1  0  0  0  0
 19 20  1  0  0  0  0
 19 44  1  0  0  0  0
 19 45  1  0  0  0  0
 20 46  1  0  0  0  0
 21 47  1  0  0  0  0
 21 48  1  0  0  0  0
 22 23  1  0  0  0  0
 22 49  1  0  0  0  0
 22 50  1  0  0  0  0
 23 24  1  0  0  0  0
 23 51  1  0  0  0  0
 24 29  1  0  0  0  0
 24 25  1  0  0  0  0
 25 26  1  0  0  0  0
 25 52  1  0  0  0  0
 25 53  1  0  0  0  0
 26 27  1  0  0  0  0
 26 54  1  0  0  0  0
 26 55  1  0  0  0  0
 27 28  1  0  0  0  0
 28 29  1  0  0  0  0
 28 56  1  0  0  0  0
 28 57  1  0  0  0  0
 29 58  1  0  0  0  0
 29 59  1  0  0  0  0
M  END
> <s_m_source_file>
AV-unprocessed.smi

> <i_m_source_file_index>
149

> <i_lp_mmshare_version>
43012

> <i_f3d_flags>
0

> <s_epik_input>
W0NIMl0xW0NIMl1PW0NIMl1bQ0gyXU4xW0NAQEhdMltDSDJdTihbQ0gyXVtDQEhdMltDSDNdKWMobltjSF1uMyljKGMzNCluW2NIXW40W0NIXShbQ0gyXTUpW0NIMl1DNShbQ0gyXVtPSF0pW0NIMl1bT0hd

> <s_epik_cmdline>
J2VwaWtfcHl0aG9uJywgJy1waCcsICc3LjAnLCAnLXRuJywgJzgnLCAnLW1hJywgJzIwMCcsICctbWV0YWxfYmluZGluZycsICctaW1hZScsICc8aW5maWxlLm1hZT4nLCAnLW9tYWUnLCAnPG91dGZpbGUubWFlPic=

> <r_lp_tautomer_probability>
1

> <r_epik_Ionization_Penalty>
0.41918

> <r_epik_Ionization_Penalty_Charging>
0

> <r_epik_Ionization_Penalty_Neutral>
0.41918

> <r_epik_State_Penalty>
0.654916

> <r_epik_Charging_Adjusted_Penalty>
0.654916

> <i_epik_Tot_Q>
0

> <i_epik_Tot_abs_Q>
0

> <r_epik_Metal_State_Penalty>
0.653217

> <b_epik_Metal_Only>
0

> <s_lp_Force_Field>
OPLS_2005

> <r_lp_Energy>
80.6686

> <b_lp_Chiralities_Consistent>
1

> <s_lp_Variant>
AV-unprocessed.smi:149-7

> <Gold.Version>
5.8.1

> <Gold.Id.Protein>
6NUR|6NUR_protein|mol2

> <Gold.PLP.Fitness>
43.6733

> <Gold.PLP.PLP>
-37.4415

> <Gold.PLP.part.hbond>
-2.0000

> <Gold.PLP.part.metal>
0.0000

> <Gold.PLP.part.buried>
-7.0594

> <Gold.PLP.part.nonpolar>
-29.8582

> <Gold.PLP.part.repulsive>
1.7188

> <Gold.PLP.ligand.clash>
0.0000

> <Gold.PLP.ligand.torsion>
0.9870

> <Gold.PLP.Chemscore.Hbond>
2.0000

> <Gold.PLP.Chemscore.CHOScore>
0.4031

> <Gold.PLP.Chemscore.Metal>
0.0000

> <Gold.Chemscore.Hbonds>
donor molecule, donor type, donor heavy atom, donor atom, acceptor molecule, acceptor atom, score
      L1  H    18    43       P1  7948  0.99
      L1  H    20    46       P1 10186  0.94
      L1  C     7    36       P1  7948  0.43

> <Gold.PLP.Chemscore.Internal.Correction>
0.9965

> <Gold.Rescore>
     Score         DG    S(hbond)    S(metal)    S(lipo)     H(rot)  DE(clash)    DE(int)     intcor
      9.90     -12.13       1.96        0.00      74.09       3.34       0.16       2.08       ----

> <Gold.Chemscore.Fitness>
9.8963

> <Gold.Chemscore.DG>
-12.1324

> <Gold.Chemscore.ZeroCoef>
-5.4800

> <Gold.Chemscore.Hbond>
1.9577

> <Gold.Chemscore.Metal>
0.0000

> <Gold.Chemscore.Lipo>
74.0863

> <Gold.Chemscore.Internal_Hbond>
0.0000

> <Gold.Chemscore.DEClash>
0.1605

> <Gold.Chemscore.DEInternal>
2.0755

> <Gold.Chemscore.Rot>
3.3416

> <Gold.Chemscore.Internal.Correction>
   9.000000E+99

> <Gold.Chemscore.Hbonds>
donor molecule, donor type, donor heavy atom, donor atom, acceptor molecule, acceptor atom, score
      L1  H    18    43       P1  7948  0.89
      L1  H    20    46       P1 10186  0.91

> <Gold.Chemscore.Hbond.Weighted>
-6.5387

> <Gold.Chemscore.Metal.Weighted>
-0.0000

> <Gold.Chemscore.Lipo.Weighted>
-8.6681

> <Gold.Chemscore.Internal_Hbond.Weighted>
0.0000

> <Gold.Chemscore.DEClash.Weighted>
0.1605

> <Gold.Chemscore.DEInternal.Weighted>
2.0755

> <Gold.Chemscore.Rot.Weighted>
8.5545

> <Gold.Chemscore.Internal.Correction.Weighted>
   9.000000E+99

> <Gold.Protein.RotatedTorsions>
[ 6907 6896 6895 6894 ] final  -56.69 input  -60.11 | X-H torsion
[ 7974 7965 7964 7962 ] final -162.85 input  175.53 | X-H torsion
[ 8008 7997 7996 7995 ] final -104.28 input   59.86 | X-H torsion
[ 10167 10162 10161 10158 ] final  -38.34 input  -65.29 | X-H torsion
[ 10718 10713 10712 10709 ] final  103.57 input   66.30 | X-H torsion
[ 10763 10752 10751 10750 ] final  150.36 input  -60.55 | X-H torsion
[ 11005 11000 10999 10996 ] final    9.76 input  -57.11 | X-H torsion

> <Gold.Protein.ActiveResidues>
 VAL166  LYS551  ARG553  GLY616  TRP617  ASP618  TYR619  PRO620  LYS621  CYS622 
 ASP623  PHE694  ASN695  SER759  ASP760  ASP761  ALA762  ILE779  LEU786  VAL792 
 PHE793  MET794  SER795  GLU796  ALA797  LYS798  CYS799  TRP800  GLU811  SER814 

> <Gold.Protein.RotatedAtoms>
  150.8147  134.7322  159.6718 H   0  0  0  0  0  0  0  0  0  0  0  0  # atno 6907 bound_to 6896
  152.4266  134.5854  159.9969 H   0  0  0  0  0  0  0  0  0  0  0  0  # atno 6908 bound_to 6896
  151.6054  133.3315  159.3092 H   0  0  0  0  0  0  0  0  0  0  0  0  # atno 6909 bound_to 6896
  144.7344  140.3192  143.6174 H   0  0  0  0  0  0  0  0  0  0  0  0  # atno 7974 bound_to 7965
  154.8830  140.0418  157.1794 H   0  0  0  0  0  0  0  0  0  0  0  0  # atno 8008 bound_to 7997
  154.8619  140.2945  155.5513 H   0  0  0  0  0  0  0  0  0  0  0  0  # atno 8009 bound_to 7997
  156.2998  140.2445  156.3594 H   0  0  0  0  0  0  0  0  0  0  0  0  # atno 8010 bound_to 7997
  140.7094  143.3283  151.2628 H   0  0  0  0  0  0  0  0  0  0  0  0  # atno 10167 bound_to 10162
  157.6768  131.0782  150.5575 H   0  0  0  0  0  0  0  0  0  0  0  0  # atno 10718 bound_to 10713
  154.0862  135.2856  155.3280 H   0  0  0  0  0  0  0  0  0  0  0  0  # atno 10763 bound_to 10752
  154.6650  135.5320  153.8069 H   0  0  0  0  0  0  0  0  0  0  0  0  # atno 10764 bound_to 10752
  153.0430  135.6543  154.1034 H   0  0  0  0  0  0  0  0  0  0  0  0  # atno 10765 bound_to 10752
  140.5221  134.0549  155.7848 H   0  0  0  0  0  0  0  0  0  0  0  0  # atno 11005 bound_to 11000
  145.7585  139.1817  143.2280 LP  0  0  0  0  0  0  0  0  0  0  0  0  # atno 17320 bound_to 7965
  146.1005  140.7550  142.9551 LP  0  0  0  0  0  0  0  0  0  0  0  0  # atno 17321 bound_to 7965
  139.6758  143.9940  152.2780 LP  0  0  0  0  0  0  0  0  0  0  0  0  # atno 17342 bound_to 10162
  139.9554  144.6593  150.8131 LP  0  0  0  0  0  0  0  0  0  0  0  0  # atno 17343 bound_to 10162
  156.5879  130.4321  149.5949 LP  0  0  0  0  0  0  0  0  0  0  0  0  # atno 17370 bound_to 10713
  156.2608  130.6961  151.1729 LP  0  0  0  0  0  0  0  0  0  0  0  0  # atno 17371 bound_to 10713
  141.1328  133.9272  157.2498 LP  0  0  0  0  0  0  0  0  0  0  0  0  # atno 17394 bound_to 11000
  139.9600  135.0156  156.9235 LP  0  0  0  0  0  0  0  0  0  0  0  0  # atno 17395 bound_to 11000

$$$$
