AV-unprocessed.smi:2599|AV-procd|sdf|10180|dock5
  -GOLD-   2272014193D 1   1.00000     0.00000
 Structure written by MMmdl.
 40 41  0  0  0  0  0  0  0  0  1 V2000
  150.6226  142.4431  157.4190 C   0  0  0  0  0  0  0  0  0  0  0  0
  151.2550  141.4930  156.5685 O   0  0  0  0  0  0  0  0  0  0  0  0
  150.4556  140.6399  155.8359 C   0  0  0  0  0  0  0  0  0  0  0  0
  149.0910  140.5402  156.1564 C   0  0  0  0  0  0  0  0  0  0  0  0
  148.3050  139.6584  155.3959 C   0  0  0  0  0  0  0  0  0  0  0  0
  148.9297  138.9351  154.3504 C   0  0  0  0  0  0  0  0  0  0  0  0
  148.1991  138.0007  153.5698 N   0  0  0  0  0  0  0  0  0  0  0  0
  146.8823  137.7323  153.6021 C   0  0  0  0  0  0  0  0  0  0  0  0
  146.0595  138.3044  154.3174 O   0  0  0  0  0  0  0  0  0  0  0  0
  146.5672  136.7577  152.7357 N   0  0  0  0  0  0  0  0  0  0  0  0
  145.2336  136.1952  152.5210 C   0  0  1  0  0  0  0  0  0  0  0  0
  144.2543  137.3574  152.2817 C   0  0  0  0  0  0  0  0  0  0  0  0
  145.2652  135.1652  151.3607 C   0  0  0  0  0  0  0  0  0  0  0  0
  143.9612  134.3482  151.2565 C   0  0  0  0  0  0  0  0  0  0  0  0
  144.0552  133.2811  150.1537 C   0  0  0  0  0  0  0  0  0  0  0  0
  145.1648  132.4254  150.3955 O   0  0  0  0  0  0  0  0  0  0  0  0
  146.4062  133.1183  150.3682 C   0  0  0  0  0  0  0  0  0  0  0  0
  146.4431  134.1742  151.4841 C   0  0  0  0  0  0  0  0  0  0  0  0
  150.2559  139.0749  154.1127 N   0  0  0  0  0  0  0  0  0  0  0  0
  151.0082  139.9138  154.8319 N   0  0  0  0  0  0  0  0  0  0  0  0
  151.3823  143.0471  157.9147 H   0  0  0  0  0  0  0  0  0  0  0  0
  150.0322  141.9526  158.1943 H   0  0  0  0  0  0  0  0  0  0  0  0
  149.9802  143.1197  156.8534 H   0  0  0  0  0  0  0  0  0  0  0  0
  148.6629  141.1148  156.9641 H   0  0  0  0  0  0  0  0  0  0  0  0
  147.2590  139.5421  155.6346 H   0  0  0  0  0  0  0  0  0  0  0  0
  148.7309  137.5312  152.8517 H   0  0  0  0  0  0  0  0  0  0  0  0
  147.3148  136.3576  152.1880 H   0  0  0  0  0  0  0  0  0  0  0  0
  144.9058  135.6713  153.4206 H   0  0  0  0  0  0  0  0  0  0  0  0
  143.2207  137.0146  152.2466 H   0  0  0  0  0  0  0  0  0  0  0  0
  144.4693  137.8739  151.3458 H   0  0  0  0  0  0  0  0  0  0  0  0
  144.3151  138.0906  153.0867 H   0  0  0  0  0  0  0  0  0  0  0  0
  145.3904  135.7130  150.4251 H   0  0  0  0  0  0  0  0  0  0  0  0
  143.7507  133.8638  152.2111 H   0  0  0  0  0  0  0  0  0  0  0  0
  143.1135  134.9982  151.0419 H   0  0  0  0  0  0  0  0  0  0  0  0
  143.1462  132.6794  150.1376 H   0  0  0  0  0  0  0  0  0  0  0  0
  144.1465  133.7447  149.1702 H   0  0  0  0  0  0  0  0  0  0  0  0
  147.2128  132.3986  150.5080 H   0  0  0  0  0  0  0  0  0  0  0  0
  146.5578  133.5785  149.3906 H   0  0  0  0  0  0  0  0  0  0  0  0
  147.3985  134.6973  151.4421 H   0  0  0  0  0  0  0  0  0  0  0  0
  146.4047  133.6762  152.4539 H   0  0  0  0  0  0  0  0  0  0  0  0
  1  2  1  0  0  0  0
  1 21  1  0  0  0  0
  1 22  1  0  0  0  0
  1 23  1  0  0  0  0
  2  3  1  0  0  0  0
  3 20  1  0  0  0  0
  3  4  2  0  0  0  0
  4  5  1  0  0  0  0
  4 24  1  0  0  0  0
  5  6  2  0  0  0  0
  5 25  1  0  0  0  0
  6  7  1  0  0  0  0
  6 19  1  0  0  0  0
  7  8  1  0  0  0  0
  7 26  1  0  0  0  0
  8  9  2  0  0  0  0
  8 10  1  0  0  0  0
 10 11  1  0  0  0  0
 10 27  1  0  0  0  0
 11 12  1  0  0  0  0
 11 13  1  0  0  0  0
 11 28  1  0  0  0  0
 12 29  1  0  0  0  0
 12 30  1  0  0  0  0
 12 31  1  0  0  0  0
 13 18  1  0  0  0  0
 13 14  1  0  0  0  0
 13 32  1  0  0  0  0
 14 15  1  0  0  0  0
 14 33  1  0  0  0  0
 14 34  1  0  0  0  0
 15 16  1  0  0  0  0
 15 35  1  0  0  0  0
 15 36  1  0  0  0  0
 16 17  1  0  0  0  0
 17 18  1  0  0  0  0
 17 37  1  0  0  0  0
 17 38  1  0  0  0  0
 18 39  1  0  0  0  0
 18 40  1  0  0  0  0
 19 20  2  0  0  0  0
M  END
> <s_m_source_file>
AV-unprocessed.smi

> <i_m_source_file_index>
2599

> <i_lp_mmshare_version>
43012

> <i_f3d_flags>
0

> <s_epik_input>
W0NIM11PYzFbY0hdW2NIXWMobm4xKVtOSF1DKD1PKVtOSF1bQ0BIXShbQ0gzXSlbQ0hdMltDSDJdW0NIMl1PW0NIMl1bQ0gyXTI=

> <s_epik_cmdline>
J2VwaWtfcHl0aG9uJywgJy1waCcsICc3LjAnLCAnLXRuJywgJzgnLCAnLW1hJywgJzIwMCcsICctbWV0YWxfYmluZGluZycsICctaW1hZScsICc8aW5maWxlLm1hZT4nLCAnLW9tYWUnLCAnPG91dGZpbGUubWFlPic=

> <r_lp_tautomer_probability>
1

> <r_epik_Ionization_Penalty>
0.00150063

> <r_epik_Ionization_Penalty_Charging>
0

> <r_epik_Ionization_Penalty_Neutral>
0.00150063

> <r_epik_State_Penalty>
-0

> <r_epik_Charging_Adjusted_Penalty>
0

> <i_epik_Tot_Q>
0

> <i_epik_Tot_abs_Q>
0

> <r_epik_Metal_State_Penalty>
-0

> <b_epik_Metal_Only>
0

> <s_lp_Force_Field>
OPLS_2005

> <r_lp_Energy>
19.9533

> <b_lp_Chiralities_Consistent>
1

> <s_lp_Variant>
AV-unprocessed.smi:2599-2

> <Gold.Version>
5.8.1

> <Gold.Id.Protein>
6NUR|6NUR_protein|mol2

> <Gold.PLP.Fitness>
35.3407

> <Gold.PLP.PLP>
-26.9838

> <Gold.PLP.part.hbond>
-3.2285

> <Gold.PLP.part.metal>
0.0000

> <Gold.PLP.part.buried>
-3.9405

> <Gold.PLP.part.nonpolar>
-20.3197

> <Gold.PLP.part.repulsive>
0.5550

> <Gold.PLP.ligand.clash>
0.0103

> <Gold.PLP.ligand.torsion>
0.3300

> <Gold.PLP.Chemscore.Hbond>
3.0000

> <Gold.PLP.Chemscore.CHOScore>
0.0000

> <Gold.PLP.Chemscore.Metal>
0.0000

> <Gold.Chemscore.Hbonds>
donor molecule, donor type, donor heavy atom, donor atom, acceptor molecule, acceptor atom, score
      L1  H     7    26       P1  7948  1.00
      L1  H    10    27       P1  7948  1.00
      P1  H  7989  7998       L1    20  0.90

> <Gold.PLP.Chemscore.Internal.Correction>
0.0272

> <Gold.Rescore>
     Score         DG    S(hbond)    S(metal)    S(lipo)     H(rot)  DE(clash)    DE(int)     intcor
     12.62     -15.89       2.48        0.00      51.95       1.55       0.34       2.93       ----

> <Gold.Chemscore.Fitness>
12.6228

> <Gold.Chemscore.DG>
-15.8914

> <Gold.Chemscore.ZeroCoef>
-5.4800

> <Gold.Chemscore.Hbond>
2.4847

> <Gold.Chemscore.Metal>
0.0000

> <Gold.Chemscore.Lipo>
51.9509

> <Gold.Chemscore.Internal_Hbond>
0.0000

> <Gold.Chemscore.DEClash>
0.3350

> <Gold.Chemscore.DEInternal>
2.9336

> <Gold.Chemscore.Rot>
1.5492

> <Gold.Chemscore.Internal.Correction>
   9.000000E+99

> <Gold.Chemscore.Hbonds>
donor molecule, donor type, donor heavy atom, donor atom, acceptor molecule, acceptor atom, score
      L1  H     7    26       P1  7948  0.95
      L1  H    10    27       P1  7948  0.95
      P1  H  7989  7998       L1    20  0.16

> <Gold.Chemscore.Hbond.Weighted>
-8.2990

> <Gold.Chemscore.Metal.Weighted>
-0.0000

> <Gold.Chemscore.Lipo.Weighted>
-6.0783

> <Gold.Chemscore.Internal_Hbond.Weighted>
0.0000

> <Gold.Chemscore.DEClash.Weighted>
0.3350

> <Gold.Chemscore.DEInternal.Weighted>
2.9336

> <Gold.Chemscore.Rot.Weighted>
3.9659

> <Gold.Chemscore.Internal.Correction.Weighted>
   9.000000E+99

> <Gold.Protein.RotatedTorsions>
[ 6907 6896 6895 6894 ] final -167.67 input  -60.11 | X-H torsion
[ 7974 7965 7964 7962 ] final -110.98 input  175.53 | X-H torsion
[ 8008 7997 7996 7995 ] final  103.83 input   59.86 | X-H torsion
[ 10167 10162 10161 10158 ] final  -85.09 input  -65.29 | X-H torsion
[ 10718 10713 10712 10709 ] final  -33.97 input   66.30 | X-H torsion
[ 10763 10752 10751 10750 ] final -158.94 input  -60.55 | X-H torsion
[ 11005 11000 10999 10996 ] final   35.87 input  -57.11 | X-H torsion

> <Gold.Protein.ActiveResidues>
 VAL166  LYS551  ARG553  GLY616  TRP617  ASP618  TYR619  PRO620  LYS621  CYS622 
 ASP623  PHE694  ASN695  SER759  ASP760  ASP761  ALA762  ILE779  LEU786  VAL792 
 PHE793  MET794  SER795  GLU796  ALA797  LYS798  CYS799  TRP800  GLU811  SER814 

> <Gold.Protein.RotatedAtoms>
  151.4633  133.3587  159.2812 H   0  0  0  0  0  0  0  0  0  0  0  0  # atno 6907 bound_to 6896
  150.9010  134.8424  159.7371 H   0  0  0  0  0  0  0  0  0  0  0  0  # atno 6908 bound_to 6896
  152.4879  134.4553  159.9639 H   0  0  0  0  0  0  0  0  0  0  0  0  # atno 6909 bound_to 6896
  145.1616  140.8881  143.3587 H   0  0  0  0  0  0  0  0  0  0  0  0  # atno 7974 bound_to 7965
  156.1519  140.3158  155.8661 H   0  0  0  0  0  0  0  0  0  0  0  0  # atno 8008 bound_to 7997
  155.3955  140.0496  157.3056 H   0  0  0  0  0  0  0  0  0  0  0  0  # atno 8009 bound_to 7997
  154.5066  140.2149  155.9251 H   0  0  0  0  0  0  0  0  0  0  0  0  # atno 8010 bound_to 7997
  140.4070  143.2638  151.9067 H   0  0  0  0  0  0  0  0  0  0  0  0  # atno 10167 bound_to 10162
  156.3562  130.4316  149.7662 H   0  0  0  0  0  0  0  0  0  0  0  0  # atno 10718 bound_to 10713
  154.7516  135.3094  154.8547 H   0  0  0  0  0  0  0  0  0  0  0  0  # atno 10763 bound_to 10752
  153.9333  135.6783  153.4749 H   0  0  0  0  0  0  0  0  0  0  0  0  # atno 10764 bound_to 10752
  153.1112  135.4865  154.8966 H   0  0  0  0  0  0  0  0  0  0  0  0  # atno 10765 bound_to 10752
  140.2383  134.3446  155.7936 H   0  0  0  0  0  0  0  0  0  0  0  0  # atno 11005 bound_to 11000
  145.0325  139.3329  143.6017 LP  0  0  0  0  0  0  0  0  0  0  0  0  # atno 17320 bound_to 7965
  146.3481  139.9668  142.8711 LP  0  0  0  0  0  0  0  0  0  0  0  0  # atno 17321 bound_to 7965
  139.4783  144.5575  151.8290 LP  0  0  0  0  0  0  0  0  0  0  0  0  # atno 17342 bound_to 10162
  140.4678  144.1630  150.5914 LP  0  0  0  0  0  0  0  0  0  0  0  0  # atno 17343 bound_to 10162
  156.4843  130.8056  151.3068 LP  0  0  0  0  0  0  0  0  0  0  0  0  # atno 17370 bound_to 10713
  157.7468  130.9995  150.2894 LP  0  0  0  0  0  0  0  0  0  0  0  0  # atno 17371 bound_to 10713
  141.2212  133.7284  156.8843 LP  0  0  0  0  0  0  0  0  0  0  0  0  # atno 17394 bound_to 11000
  140.1680  134.9120  157.2798 LP  0  0  0  0  0  0  0  0  0  0  0  0  # atno 17395 bound_to 11000

$$$$
