AV-unprocessed.smi:689|AV-procd|sdf|3359|dock5
  -GOLD-   22720 0333D 1   1.00000     0.00000
 Structure written by MMmdl.
 34 35  0  0  0  0  0  0  0  0  1 V2000
  149.9940  138.5678  153.8283 C   0  0  0  0  0  0  0  0  0  0  0  0
  151.1449  138.5543  154.7930 C   0  0  0  0  0  0  0  0  0  0  0  0
  151.8892  139.6374  154.9387 N   0  0  0  0  0  0  0  0  0  0  0  0
  152.8529  139.3138  155.8984 O   0  0  0  0  0  0  0  0  0  0  0  0
  152.6479  138.0336  156.2989 C   0  0  0  0  0  0  0  0  0  0  0  0
  153.5790  137.5078  157.3384 C   0  0  0  0  0  0  0  0  0  0  0  0
  151.5811  137.4913  155.6350 C   0  0  0  0  0  0  0  0  0  0  0  0
  150.9871  136.1124  155.7639 C   0  0  0  0  0  0  0  0  0  0  0  0
  150.3543  135.9718  157.1463 C   0  0  0  0  0  0  0  0  0  0  0  0
  151.0231  136.0807  158.1729 O   0  0  0  0  0  0  0  0  0  0  0  0
  148.9914  135.6618  157.1484 N   0  0  0  0  0  0  0  0  0  0  0  0
  148.1062  135.0410  158.4969 S   0  0  0  0  0  0  0  0  0  0  0  0
  146.6951  134.9097  158.1014 O   0  0  0  0  0  0  0  0  0  0  0  0
  148.8506  133.8668  158.9767 O   0  0  0  0  0  0  0  0  0  0  0  0
  148.2914  136.3812  159.7600 C   0  0  0  0  0  0  0  0  0  0  0  0
  147.5239  136.1087  161.0405 C   0  0  0  0  0  0  0  0  0  0  0  0
  147.2442  134.6922  161.4892 C   0  0  0  0  0  0  0  0  0  0  0  0
  146.1137  135.5632  161.0038 C   0  0  0  0  0  0  0  0  0  0  0  0
  149.0421  138.5501  154.3595 H   0  0  0  0  0  0  0  0  0  0  0  0
  150.0242  137.6974  153.1731 H   0  0  0  0  0  0  0  0  0  0  0  0
  150.0064  139.4560  153.1955 H   0  0  0  0  0  0  0  0  0  0  0  0
  153.3048  136.4969  157.6391 H   0  0  0  0  0  0  0  0  0  0  0  0
  153.5600  138.1392  158.2269 H   0  0  0  0  0  0  0  0  0  0  0  0
  154.6017  137.4821  156.9625 H   0  0  0  0  0  0  0  0  0  0  0  0
  150.2202  135.9335  155.0098 H   0  0  0  0  0  0  0  0  0  0  0  0
  151.7410  135.3374  155.6186 H   0  0  0  0  0  0  0  0  0  0  0  0
  148.4740  135.5819  156.2737 H   0  0  0  0  0  0  0  0  0  0  0  0
  149.3538  136.4568  159.9931 H   0  0  0  0  0  0  0  0  0  0  0  0
  147.9823  137.3313  159.3250 H   0  0  0  0  0  0  0  0  0  0  0  0
  147.7320  136.8224  161.8346 H   0  0  0  0  0  0  0  0  0  0  0  0
  147.5633  133.8786  160.8409 H   0  0  0  0  0  0  0  0  0  0  0  0
  147.2962  134.4849  162.5561 H   0  0  0  0  0  0  0  0  0  0  0  0
  145.4125  135.9419  161.7448 H   0  0  0  0  0  0  0  0  0  0  0  0
  145.6836  135.3292  160.0318 H   0  0  0  0  0  0  0  0  0  0  0  0
  1  2  1  0  0  0  0
  1 19  1  0  0  0  0
  1 20  1  0  0  0  0
  1 21  1  0  0  0  0
  2  7  1  0  0  0  0
  2  3  2  0  0  0  0
  3  4  1  0  0  0  0
  4  5  1  0  0  0  0
  5  6  1  0  0  0  0
  5  7  2  0  0  0  0
  6 22  1  0  0  0  0
  6 23  1  0  0  0  0
  6 24  1  0  0  0  0
  7  8  1  0  0  0  0
  8  9  1  0  0  0  0
  8 25  1  0  0  0  0
  8 26  1  0  0  0  0
  9 10  2  0  0  0  0
  9 11  1  0  0  0  0
 11 12  1  0  0  0  0
 11 27  1  0  0  0  0
 12 13  2  0  0  0  0
 12 14  2  0  0  0  0
 12 15  1  0  0  0  0
 15 16  1  0  0  0  0
 15 28  1  0  0  0  0
 15 29  1  0  0  0  0
 16 18  1  0  0  0  0
 16 17  1  0  0  0  0
 16 30  1  0  0  0  0
 17 18  1  0  0  0  0
 17 31  1  0  0  0  0
 17 32  1  0  0  0  0
 18 33  1  0  0  0  0
 18 34  1  0  0  0  0
M  END
> <s_m_source_file>
AV-unprocessed.smi

> <i_m_source_file_index>
689

> <i_lp_mmshare_version>
43012

> <i_f3d_flags>
0

> <s_epik_input>
W0NIM11jMW5vYyhbQ0gzXSljMVtDSDJdQyg9TylbTkhdUyg9TykoPU8pW0NIMl1bQ0hdMltDSDJdW0NIMl0y

> <s_epik_cmdline>
J2VwaWtfcHl0aG9uJywgJy1waCcsICc3LjAnLCAnLXRuJywgJzgnLCAnLW1hJywgJzIwMCcsICctbWV0YWxfYmluZGluZycsICctaW1hZScsICc8aW5maWxlLm1hZT4nLCAnLW9tYWUnLCAnPG91dGZpbGUubWFlPic=

> <r_epik_Ionization_Penalty>
2.32728

> <r_epik_Ionization_Penalty_Charging>
0

> <r_epik_Ionization_Penalty_Neutral>
2.32728

> <r_epik_State_Penalty>
2.47991

> <r_epik_Charging_Adjusted_Penalty>
2.47991

> <i_epik_Tot_Q>
0

> <i_epik_Tot_abs_Q>
0

> <r_epik_Metal_State_Penalty>
2.4915

> <b_epik_Metal_Only>
0

> <s_lp_Force_Field>
OPLS_2005

> <r_lp_Energy>
-0.069028

> <b_lp_Chiralities_Consistent>
1

> <s_lp_Variant>
AV-unprocessed.smi:689-2

> <Gold.Version>
5.8.1

> <Gold.Id.Protein>
6NUR|6NUR_protein|mol2

> <Gold.PLP.Fitness>
35.1684

> <Gold.PLP.PLP>
-26.1019

> <Gold.PLP.part.hbond>
-4.0000

> <Gold.PLP.part.metal>
0.0000

> <Gold.PLP.part.buried>
-4.2753

> <Gold.PLP.part.nonpolar>
-18.3854

> <Gold.PLP.part.repulsive>
0.0836

> <Gold.PLP.ligand.clash>
0.0000

> <Gold.PLP.ligand.torsion>
0.9213

> <Gold.PLP.Chemscore.Hbond>
3.0887

> <Gold.PLP.Chemscore.CHOScore>
0.0000

> <Gold.PLP.Chemscore.Metal>
0.0000

> <Gold.Chemscore.Hbonds>
donor molecule, donor type, donor heavy atom, donor atom, acceptor molecule, acceptor atom, score
      P1  H  6896  6907       L1    10  0.19
      P1  H  6896  6909       L1    14  0.96
      P1  H  7989  7998       L1     3  0.98
      P1  H  7997  8010       L1     4  1.00

> <Gold.PLP.Chemscore.Internal.Correction>
1.6429

> <Gold.Rescore>
     Score         DG    S(hbond)    S(metal)    S(lipo)     H(rot)  DE(clash)    DE(int)     intcor
     17.43     -18.48       2.90        0.00      64.51       1.65       0.03       1.02       ----

> <Gold.Chemscore.Fitness>
17.4303

> <Gold.Chemscore.DG>
-18.4761

> <Gold.Chemscore.ZeroCoef>
-5.4800

> <Gold.Chemscore.Hbond>
2.8974

> <Gold.Chemscore.Metal>
0.0000

> <Gold.Chemscore.Lipo>
64.5123

> <Gold.Chemscore.Internal_Hbond>
0.0000

> <Gold.Chemscore.DEClash>
0.0270

> <Gold.Chemscore.DEInternal>
1.0188

> <Gold.Chemscore.Rot>
1.6519

> <Gold.Chemscore.Internal.Correction>
   9.000000E+99

> <Gold.Chemscore.Hbonds>
donor molecule, donor type, donor heavy atom, donor atom, acceptor molecule, acceptor atom, score
      P1  H  6896  6907       L1    10  0.19
      P1  H  6896  6909       L1    14  0.92
      P1  H  7989  7998       L1     3  0.77
      P1  H  7997  8010       L1     4  0.98

> <Gold.Chemscore.Hbond.Weighted>
-9.6772

> <Gold.Chemscore.Metal.Weighted>
-0.0000

> <Gold.Chemscore.Lipo.Weighted>
-7.5479

> <Gold.Chemscore.Internal_Hbond.Weighted>
0.0000

> <Gold.Chemscore.DEClash.Weighted>
0.0270

> <Gold.Chemscore.DEInternal.Weighted>
1.0188

> <Gold.Chemscore.Rot.Weighted>
4.2290

> <Gold.Chemscore.Internal.Correction.Weighted>
   9.000000E+99

> <Gold.Protein.RotatedTorsions>
[ 6907 6896 6895 6894 ] final    5.45 input  -60.11 | X-H torsion
[ 7974 7965 7964 7962 ] final -159.48 input  175.53 | X-H torsion
[ 8008 7997 7996 7995 ] final   79.32 input   59.86 | X-H torsion
[ 10167 10162 10161 10158 ] final -138.06 input  -65.29 | X-H torsion
[ 10718 10713 10712 10709 ] final  122.14 input   66.30 | X-H torsion
[ 10763 10752 10751 10750 ] final   70.88 input  -60.55 | X-H torsion
[ 11005 11000 10999 10996 ] final  -78.20 input  -57.11 | X-H torsion

> <Gold.Protein.ActiveResidues>
 VAL166  LYS551  ARG553  GLY616  TRP617  ASP618  TYR619  PRO620  LYS621  CYS622 
 ASP623  PHE694  ASN695  SER759  ASP760  ASP761  ALA762  ILE779  LEU786  VAL792 
 PHE793  MET794  SER795  GLU796  ALA797  LYS798  CYS799  TRP800  GLU811  SER814 

> <Gold.Protein.RotatedAtoms>
  151.6577  135.0993  160.0173 H   0  0  0  0  0  0  0  0  0  0  0  0  # atno 6907 bound_to 6896
  152.3964  133.6749  159.6288 H   0  0  0  0  0  0  0  0  0  0  0  0  # atno 6908 bound_to 6896
  150.7871  133.8783  159.3319 H   0  0  0  0  0  0  0  0  0  0  0  0  # atno 6909 bound_to 6896
  144.7464  140.3679  143.6082 H   0  0  0  0  0  0  0  0  0  0  0  0  # atno 7974 bound_to 7965
  155.8680  140.3450  155.5801 H   0  0  0  0  0  0  0  0  0  0  0  0  # atno 8008 bound_to 7997
  155.7859  140.0865  157.2054 H   0  0  0  0  0  0  0  0  0  0  0  0  # atno 8009 bound_to 7997
  154.4015  140.1492  156.3094 H   0  0  0  0  0  0  0  0  0  0  0  0  # atno 8010 bound_to 7997
  139.8515  143.7192  152.2657 H   0  0  0  0  0  0  0  0  0  0  0  0  # atno 10167 bound_to 10162
  157.5765  131.1079  150.8270 H   0  0  0  0  0  0  0  0  0  0  0  0  # atno 10718 bound_to 10713
  153.0366  135.5157  154.7508 H   0  0  0  0  0  0  0  0  0  0  0  0  # atno 10763 bound_to 10752
  154.6479  135.2921  155.0025 H   0  0  0  0  0  0  0  0  0  0  0  0  # atno 10764 bound_to 10752
  154.0920  135.6649  153.4906 H   0  0  0  0  0  0  0  0  0  0  0  0  # atno 10765 bound_to 10752
  141.1664  133.7053  156.7936 H   0  0  0  0  0  0  0  0  0  0  0  0  # atno 11005 bound_to 11000
  145.7108  139.1684  143.2540 LP  0  0  0  0  0  0  0  0  0  0  0  0  # atno 17320 bound_to 7965
  146.1348  140.7137  142.9395 LP  0  0  0  0  0  0  0  0  0  0  0  0  # atno 17321 bound_to 7965
  139.7460  144.7547  151.0579 LP  0  0  0  0  0  0  0  0  0  0  0  0  # atno 17342 bound_to 10162
  140.7787  143.4915  150.9887 LP  0  0  0  0  0  0  0  0  0  0  0  0  # atno 17343 bound_to 10162
  156.8727  130.5152  149.5295 LP  0  0  0  0  0  0  0  0  0  0  0  0  # atno 17370 bound_to 10713
  156.0809  130.5820  150.9562 LP  0  0  0  0  0  0  0  0  0  0  0  0  # atno 17371 bound_to 10713
  140.2307  134.8687  157.3474 LP  0  0  0  0  0  0  0  0  0  0  0  0  # atno 17394 bound_to 11000
  140.1893  134.4391  155.7725 LP  0  0  0  0  0  0  0  0  0  0  0  0  # atno 17395 bound_to 11000

$$$$
