AV-unprocessed.smi:671|AV-procd|sdf|3275|dock10
  -GOLD-   22720 0233D 1   1.00000     0.00000
 Structure written by MMmdl.
 49 50  0  0  0  0  0  0  0  0  1 V2000
  152.9308  138.3233  155.3455 C   0  0  0  0  0  0  0  0  0  0  0  0
  151.9778  139.4060  155.7651 C   0  0  0  0  0  0  0  0  0  0  0  0
  152.3648  140.2783  156.6804 N   0  0  0  0  0  0  0  0  0  0  0  0
  151.3108  141.1034  156.8375 N   0  0  0  0  0  0  0  0  0  0  0  0
  151.3990  142.1975  157.7851 C   0  0  0  0  0  0  0  0  0  0  0  0
  150.2540  140.7509  156.0212 C   0  0  0  0  0  0  0  0  0  0  0  0
  148.9711  141.5182  156.0114 C   0  0  0  0  0  0  0  0  0  0  0  0
  150.6493  139.6510  155.3064 C   0  0  0  0  0  0  0  0  0  0  0  0
  149.8805  138.8673  154.2722 C   0  0  0  0  0  0  0  0  0  0  0  0
  148.5354  138.3408  154.8091 C   0  0  2  0  0  0  0  0  0  0  0  0
  148.6629  137.6765  156.1924 C   0  0  0  0  0  0  0  0  0  0  0  0
  147.9795  137.3872  153.8456 N   0  0  0  0  0  0  0  0  0  0  0  0
  146.7708  136.7960  153.8578 C   0  0  0  0  0  0  0  0  0  0  0  0
  145.9513  137.0176  154.7470 O   0  0  0  0  0  0  0  0  0  0  0  0
  146.5477  135.9615  152.8288 N   0  0  0  0  0  0  0  0  0  0  0  0
  145.3540  135.1426  152.6205 C   0  0  1  0  0  0  0  0  0  0  0  0
  144.5737  135.6429  151.3871 C   0  0  0  0  0  0  0  0  0  0  0  0
  144.4975  134.4650  150.4094 C   0  0  0  0  0  0  0  0  0  0  0  0
  145.6553  133.5518  150.8014 C   0  0  0  0  0  0  0  0  0  0  0  0
  145.7099  133.6665  152.3254 C   0  0  1  0  0  0  0  0  0  0  0  0
  147.0160  133.1327  152.9412 C   0  0  0  0  0  0  0  0  0  0  0  0
  152.5743  137.7937  154.4623 H   0  0  0  0  0  0  0  0  0  0  0  0
  153.0606  137.5887  156.1403 H   0  0  0  0  0  0  0  0  0  0  0  0
  153.9122  138.7338  155.1070 H   0  0  0  0  0  0  0  0  0  0  0  0
  151.2014  143.1409  157.2761 H   0  0  0  0  0  0  0  0  0  0  0  0
  152.3925  142.2415  158.2335 H   0  0  0  0  0  0  0  0  0  0  0  0
  150.6616  142.0570  158.5757 H   0  0  0  0  0  0  0  0  0  0  0  0
  148.2496  141.0809  155.3222 H   0  0  0  0  0  0  0  0  0  0  0  0
  149.1409  142.5498  155.7032 H   0  0  0  0  0  0  0  0  0  0  0  0
  148.5200  141.5309  157.0038 H   0  0  0  0  0  0  0  0  0  0  0  0
  149.6913  139.4963  153.4014 H   0  0  0  0  0  0  0  0  0  0  0  0
  150.4722  138.0332  153.8942 H   0  0  0  0  0  0  0  0  0  0  0  0
  147.8653  139.1977  154.8957 H   0  0  0  0  0  0  0  0  0  0  0  0
  149.0183  138.3826  156.9427 H   0  0  0  0  0  0  0  0  0  0  0  0
  149.3612  136.8394  156.1659 H   0  0  0  0  0  0  0  0  0  0  0  0
  147.7023  137.2960  156.5405 H   0  0  0  0  0  0  0  0  0  0  0  0
  148.5681  137.1783  153.0520 H   0  0  0  0  0  0  0  0  0  0  0  0
  147.2836  135.8595  152.1455 H   0  0  0  0  0  0  0  0  0  0  0  0
  144.7092  135.1807  153.5001 H   0  0  0  0  0  0  0  0  0  0  0  0
  143.5772  135.9949  151.6562 H   0  0  0  0  0  0  0  0  0  0  0  0
  145.0873  136.4802  150.9111 H   0  0  0  0  0  0  0  0  0  0  0  0
  143.5541  133.9353  150.5481 H   0  0  0  0  0  0  0  0  0  0  0  0
  144.5483  134.7814  149.3674 H   0  0  0  0  0  0  0  0  0  0  0  0
  145.5112  132.5254  150.4627 H   0  0  0  0  0  0  0  0  0  0  0  0
  146.5823  133.9231  150.3620 H   0  0  0  0  0  0  0  0  0  0  0  0
  144.8934  133.0589  152.7195 H   0  0  0  0  0  0  0  0  0  0  0  0
  147.8932  133.6425  152.5418 H   0  0  0  0  0  0  0  0  0  0  0  0
  147.1346  132.0693  152.7332 H   0  0  0  0  0  0  0  0  0  0  0  0
  147.0171  133.2594  154.0241 H   0  0  0  0  0  0  0  0  0  0  0  0
  1  2  1  0  0  0  0
  1 22  1  0  0  0  0
  1 23  1  0  0  0  0
  1 24  1  0  0  0  0
  2  8  1  0  0  0  0
  2  3  2  0  0  0  0
  3  4  1  0  0  0  0
  4  5  1  0  0  0  0
  4  6  1  0  0  0  0
  5 25  1  0  0  0  0
  5 26  1  0  0  0  0
  5 27  1  0  0  0  0
  6  7  1  0  0  0  0
  6  8  2  0  0  0  0
  7 28  1  0  0  0  0
  7 29  1  0  0  0  0
  7 30  1  0  0  0  0
  8  9  1  0  0  0  0
  9 10  1  0  0  0  0
  9 31  1  0  0  0  0
  9 32  1  0  0  0  0
 10 11  1  0  0  0  0
 10 12  1  0  0  0  0
 10 33  1  0  0  0  0
 11 34  1  0  0  0  0
 11 35  1  0  0  0  0
 11 36  1  0  0  0  0
 12 13  1  0  0  0  0
 12 37  1  0  0  0  0
 13 14  2  0  0  0  0
 13 15  1  0  0  0  0
 15 16  1  0  0  0  0
 15 38  1  0  0  0  0
 16 20  1  0  0  0  0
 16 17  1  0  0  0  0
 16 39  1  0  0  0  0
 17 18  1  0  0  0  0
 17 40  1  0  0  0  0
 17 41  1  0  0  0  0
 18 19  1  0  0  0  0
 18 42  1  0  0  0  0
 18 43  1  0  0  0  0
 19 20  1  0  0  0  0
 19 44  1  0  0  0  0
 19 45  1  0  0  0  0
 20 21  1  0  0  0  0
 20 46  1  0  0  0  0
 21 47  1  0  0  0  0
 21 48  1  0  0  0  0
 21 49  1  0  0  0  0
M  END
> <s_m_source_file>
AV-unprocessed.smi

> <i_m_source_file_index>
671

> <i_lp_mmshare_version>
43012

> <i_f3d_flags>
0

> <s_epik_input>
W0NIM11jMW5uKFtDSDNdKWMoW0NIM10pYzFbQ0gyXVtDQEhdKFtDSDNdKVtOSF1DKD1PKVtOSF1bQ0BASF0yW0NIMl1bQ0gyXVtDSDJdW0NASF0yW0NIM10=

> <s_epik_cmdline>
J2VwaWtfcHl0aG9uJywgJy1waCcsICc3LjAnLCAnLXRuJywgJzgnLCAnLW1hJywgJzIwMCcsICctbWV0YWxfYmluZGluZycsICctaW1hZScsICc8aW5maWxlLm1hZT4nLCAnLW9tYWUnLCAnPG91dGZpbGUubWFlPic=

> <r_lp_tautomer_probability>
1

> <r_epik_Ionization_Penalty>
0.0126855

> <r_epik_Ionization_Penalty_Charging>
0

> <r_epik_Ionization_Penalty_Neutral>
0.0126855

> <r_epik_State_Penalty>
0.00977547

> <r_epik_Charging_Adjusted_Penalty>
0.00977547

> <i_epik_Tot_Q>
0

> <i_epik_Tot_abs_Q>
0

> <r_epik_Metal_State_Penalty>
0.00957132

> <b_epik_Metal_Only>
0

> <s_lp_Force_Field>
OPLS_2005

> <r_lp_Energy>
23.5654

> <b_lp_Chiralities_Consistent>
1

> <s_lp_Variant>
AV-unprocessed.smi:671-3

> <Gold.Version>
5.8.1

> <Gold.Id.Protein>
6NUR|6NUR_protein|mol2

> <Gold.PLP.Fitness>
39.8519

> <Gold.PLP.PLP>
-31.6416

> <Gold.PLP.part.hbond>
-2.8297

> <Gold.PLP.part.metal>
0.0000

> <Gold.PLP.part.buried>
-1.7754

> <Gold.PLP.part.nonpolar>
-27.8726

> <Gold.PLP.part.repulsive>
0.0482

> <Gold.PLP.ligand.clash>
0.0000

> <Gold.PLP.ligand.torsion>
0.1902

> <Gold.PLP.Chemscore.Hbond>
2.8560

> <Gold.PLP.Chemscore.CHOScore>
0.0000

> <Gold.PLP.Chemscore.Metal>
0.0000

> <Gold.Chemscore.Hbonds>
donor molecule, donor type, donor heavy atom, donor atom, acceptor molecule, acceptor atom, score
      L1  H    12    37       P1  7948  1.00
      L1  H    15    38       P1  7948  0.88
      P1  H  7997  8008       L1     3  1.00

> <Gold.PLP.Chemscore.Internal.Correction>
0.0227

> <Gold.Rescore>
     Score         DG    S(hbond)    S(metal)    S(lipo)     H(rot)  DE(clash)    DE(int)     intcor
     19.58     -20.56       2.73        0.00      82.64       1.45       0.75       0.23       ----

> <Gold.Chemscore.Fitness>
19.5785

> <Gold.Chemscore.DG>
-20.5645

> <Gold.Chemscore.ZeroCoef>
-5.4800

> <Gold.Chemscore.Hbond>
2.7329

> <Gold.Chemscore.Metal>
0.0000

> <Gold.Chemscore.Lipo>
82.6352

> <Gold.Chemscore.Internal_Hbond>
0.0000

> <Gold.Chemscore.DEClash>
0.7541

> <Gold.Chemscore.DEInternal>
0.2319

> <Gold.Chemscore.Rot>
1.4499

> <Gold.Chemscore.Internal.Correction>
   9.000000E+99

> <Gold.Chemscore.Hbonds>
donor molecule, donor type, donor heavy atom, donor atom, acceptor molecule, acceptor atom, score
      L1  H    12    37       P1  7948  0.92
      L1  H    15    38       P1  7948  0.86
      P1  H  7997  8008       L1     3  0.28

> <Gold.Chemscore.Hbond.Weighted>
-9.1281

> <Gold.Chemscore.Metal.Weighted>
-0.0000

> <Gold.Chemscore.Lipo.Weighted>
-9.6683

> <Gold.Chemscore.Internal_Hbond.Weighted>
0.0000

> <Gold.Chemscore.DEClash.Weighted>
0.7541

> <Gold.Chemscore.DEInternal.Weighted>
0.2319

> <Gold.Chemscore.Rot.Weighted>
3.7118

> <Gold.Chemscore.Internal.Correction.Weighted>
   9.000000E+99

> <Gold.Protein.RotatedTorsions>
[ 6907 6896 6895 6894 ] final  -55.62 input  -60.11 | X-H torsion
[ 7974 7965 7964 7962 ] final   71.12 input  175.53 | X-H torsion
[ 8008 7997 7996 7995 ] final  -54.92 input   59.86 | X-H torsion
[ 10167 10162 10161 10158 ] final   66.71 input  -65.29 | X-H torsion
[ 10718 10713 10712 10709 ] final   22.99 input   66.30 | X-H torsion
[ 10763 10752 10751 10750 ] final   59.21 input  -60.55 | X-H torsion
[ 11005 11000 10999 10996 ] final   91.22 input  -57.11 | X-H torsion

> <Gold.Protein.ActiveResidues>
 VAL166  LYS551  ARG553  GLY616  TRP617  ASP618  TYR619  PRO620  LYS621  CYS622 
 ASP623  PHE694  ASN695  SER759  ASP760  ASP761  ALA762  ILE779  LEU786  VAL792 
 PHE793  MET794  SER795  GLU796  ALA797  LYS798  CYS799  TRP800  GLU811  SER814 

> <Gold.Protein.RotatedAtoms>
  150.8236  134.7456  159.6793 H   0  0  0  0  0  0  0  0  0  0  0  0  # atno 6907 bound_to 6896
  152.4349  134.5703  159.9929 H   0  0  0  0  0  0  0  0  0  0  0  0  # atno 6908 bound_to 6896
  151.5881  133.3332  159.3058 H   0  0  0  0  0  0  0  0  0  0  0  0  # atno 6909 bound_to 6896
  145.7697  139.2837  143.1328 H   0  0  0  0  0  0  0  0  0  0  0  0  # atno 7974 bound_to 7965
  154.4178  140.1165  156.5394 H   0  0  0  0  0  0  0  0  0  0  0  0  # atno 8008 bound_to 7997
  155.6524  140.3496  155.4734 H   0  0  0  0  0  0  0  0  0  0  0  0  # atno 8009 bound_to 7997
  155.9782  140.1155  157.0741 H   0  0  0  0  0  0  0  0  0  0  0  0  # atno 8010 bound_to 7997
  140.0974  144.4934  150.7059 H   0  0  0  0  0  0  0  0  0  0  0  0  # atno 10167 bound_to 10162
  157.1599  130.6712  149.6040 H   0  0  0  0  0  0  0  0  0  0  0  0  # atno 10718 bound_to 10713
  152.9889  135.5579  154.5677 H   0  0  0  0  0  0  0  0  0  0  0  0  # atno 10763 bound_to 10752
  154.5083  135.2801  155.1366 H   0  0  0  0  0  0  0  0  0  0  0  0  # atno 10764 bound_to 10752
  154.2768  135.6352  153.5384 H   0  0  0  0  0  0  0  0  0  0  0  0  # atno 10765 bound_to 10752
  139.8842  134.8661  156.3397 H   0  0  0  0  0  0  0  0  0  0  0  0  # atno 11005 bound_to 11000
  146.0182  140.8373  142.9937 LP  0  0  0  0  0  0  0  0  0  0  0  0  # atno 17320 bound_to 7965
  144.6815  140.2589  143.7321 LP  0  0  0  0  0  0  0  0  0  0  0  0  # atno 17321 bound_to 7965
  140.6996  143.2426  151.4902 LP  0  0  0  0  0  0  0  0  0  0  0  0  # atno 17342 bound_to 10162
  139.5690  144.1973  152.1808 LP  0  0  0  0  0  0  0  0  0  0  0  0  # atno 17343 bound_to 10162
  155.9755  130.4715  150.6467 LP  0  0  0  0  0  0  0  0  0  0  0  0  # atno 17370 bound_to 10713
  157.4142  131.0828  151.1192 LP  0  0  0  0  0  0  0  0  0  0  0  0  # atno 17371 bound_to 10713
  140.9667  133.7354  156.0476 LP  0  0  0  0  0  0  0  0  0  0  0  0  # atno 17394 bound_to 11000
  140.7922  134.3604  157.5461 LP  0  0  0  0  0  0  0  0  0  0  0  0  # atno 17395 bound_to 11000

$$$$
