AV-unprocessed.smi:1220|AV-procd|sdf|5115|dock3
  -GOLD-   22720 4173D 1   1.00000     0.00000
 Structure written by MMmdl.
 35 36  0  0  0  0  0  0  0  0  1 V2000
  145.7272  134.5555  153.1231 C   0  0  0  0  0  0  0  0  0  0  0  0
  146.8723  133.6209  152.6995 C   0  0  1  0  0  0  0  0  0  0  0  0
  147.0967  133.5927  151.1707 C   0  0  0  0  0  0  0  0  0  0  0  0
  145.9289  133.1452  150.4338 N   0  0  0  0  0  0  0  0  0  0  0  0
  145.8013  132.0431  149.6148 C   0  0  0  0  0  0  0  0  0  0  0  0
  144.5174  132.0291  149.1503 C   0  0  0  0  0  0  0  0  0  0  0  0
  143.9273  133.1750  149.7533 C   0  0  0  0  0  0  0  0  0  0  0  0
  144.7740  133.8393  150.5232 N   0  0  0  0  0  0  0  0  0  0  0  0
  148.0983  134.0277  153.3804 N   0  0  0  0  0  0  0  0  0  0  0  0
  148.7308  133.3207  154.3302 C   0  0  0  0  0  0  0  0  0  0  0  0
  148.3300  132.2312  154.7407 O   0  0  0  0  0  0  0  0  0  0  0  0
  150.0155  133.9369  154.8976 C   0  0  2  0  0  0  0  0  0  0  0  0
  150.6619  133.0365  155.9722 C   0  0  0  0  0  0  0  0  0  0  0  0
  151.7323  133.8499  156.7057 C   0  0  0  0  0  0  0  0  0  0  0  0
  151.0841  135.5604  156.7771 S   0  0  0  0  0  0  0  0  0  0  0  0
  150.4583  135.7903  158.0879 O   0  0  0  0  0  0  0  0  0  0  0  0
  152.1027  136.4821  156.2519 O   0  0  0  0  0  0  0  0  0  0  0  0
  149.7661  135.3210  155.5255 C   0  0  0  0  0  0  0  0  0  0  0  0
  144.7732  134.2352  152.7036 H   0  0  0  0  0  0  0  0  0  0  0  0
  145.9085  135.5792  152.7940 H   0  0  0  0  0  0  0  0  0  0  0  0
  145.6136  134.5691  154.2076 H   0  0  0  0  0  0  0  0  0  0  0  0
  146.6105  132.6151  153.0335 H   0  0  0  0  0  0  0  0  0  0  0  0
  147.3677  134.5868  150.8122 H   0  0  0  0  0  0  0  0  0  0  0  0
  147.9289  132.9344  150.9170 H   0  0  0  0  0  0  0  0  0  0  0  0
  146.6255  131.3696  149.4310 H   0  0  0  0  0  0  0  0  0  0  0  0
  144.0674  131.3090  148.4831 H   0  0  0  0  0  0  0  0  0  0  0  0
  142.9155  133.5405  149.6563 H   0  0  0  0  0  0  0  0  0  0  0  0
  148.4974  134.9136  153.1056 H   0  0  0  0  0  0  0  0  0  0  0  0
  150.7417  134.0622  154.0923 H   0  0  0  0  0  0  0  0  0  0  0  0
  149.9091  132.7178  156.6952 H   0  0  0  0  0  0  0  0  0  0  0  0
  151.0873  132.1317  155.5365 H   0  0  0  0  0  0  0  0  0  0  0  0
  151.9398  133.4809  157.7102 H   0  0  0  0  0  0  0  0  0  0  0  0
  152.6632  133.8645  156.1383 H   0  0  0  0  0  0  0  0  0  0  0  0
  149.8106  136.1256  154.7913 H   0  0  0  0  0  0  0  0  0  0  0  0
  148.8046  135.3768  156.0381 H   0  0  0  0  0  0  0  0  0  0  0  0
  1  2  1  0  0  0  0
  1 19  1  0  0  0  0
  1 20  1  0  0  0  0
  1 21  1  0  0  0  0
  2  3  1  0  0  0  0
  2  9  1  0  0  0  0
  2 22  1  0  0  0  0
  3  4  1  0  0  0  0
  3 23  1  0  0  0  0
  3 24  1  0  0  0  0
  4  8  1  0  0  0  0
  4  5  1  0  0  0  0
  5  6  2  0  0  0  0
  5 25  1  0  0  0  0
  6  7  1  0  0  0  0
  6 26  1  0  0  0  0
  7  8  2  0  0  0  0
  7 27  1  0  0  0  0
  9 10  1  0  0  0  0
  9 28  1  0  0  0  0
 10 11  2  0  0  0  0
 10 12  1  0  0  0  0
 12 18  1  0  0  0  0
 12 13  1  0  0  0  0
 12 29  1  0  0  0  0
 13 14  1  0  0  0  0
 13 30  1  0  0  0  0
 13 31  1  0  0  0  0
 14 15  1  0  0  0  0
 14 32  1  0  0  0  0
 14 33  1  0  0  0  0
 15 16  2  0  0  0  0
 15 17  2  0  0  0  0
 15 18  1  0  0  0  0
 18 34  1  0  0  0  0
 18 35  1  0  0  0  0
M  END
> <s_m_source_file>
AV-unprocessed.smi

> <i_m_source_file_index>
1220

> <i_lp_mmshare_version>
43012

> <i_f3d_flags>
0

> <s_epik_input>
bjFbY0hdW2NIXVtjSF1uMVtDSDJdW0NAQEhdKFtDSDNdKVtOSF1DKD1PKVtDQEBIXShbQ0gyXTIpW0NIMl1bQ0gyXVMyKD1PKT1P

> <s_epik_cmdline>
J2VwaWtfcHl0aG9uJywgJy1waCcsICc3LjAnLCAnLXRuJywgJzgnLCAnLW1hJywgJzIwMCcsICctbWV0YWxfYmluZGluZycsICctaW1hZScsICc8aW5maWxlLm1hZT4nLCAnLW9tYWUnLCAnPG91dGZpbGUubWFlPic=

> <r_lp_tautomer_probability>
1

> <r_epik_Ionization_Penalty>
0.000293905

> <r_epik_Ionization_Penalty_Charging>
0

> <r_epik_Ionization_Penalty_Neutral>
0.000293905

> <r_epik_State_Penalty>
-0

> <r_epik_Charging_Adjusted_Penalty>
0

> <i_epik_Tot_Q>
0

> <i_epik_Tot_abs_Q>
0

> <r_epik_Metal_State_Penalty>
-0

> <b_epik_Metal_Only>
0

> <s_lp_Force_Field>
OPLS_2005

> <r_lp_Energy>
2.06683

> <b_lp_Chiralities_Consistent>
1

> <s_lp_Variant>
AV-unprocessed.smi:1220-2

> <Gold.Version>
5.8.1

> <Gold.Id.Protein>
6NUR|6NUR_protein|mol2

> <Gold.PLP.Fitness>
40.9167

> <Gold.PLP.PLP>
-26.9343

> <Gold.PLP.part.hbond>
-3.0000

> <Gold.PLP.part.metal>
0.0000

> <Gold.PLP.part.buried>
-1.3799

> <Gold.PLP.part.nonpolar>
-21.7628

> <Gold.PLP.part.repulsive>
0.1683

> <Gold.PLP.ligand.clash>
0.0000

> <Gold.PLP.ligand.torsion>
0.0423

> <Gold.PLP.Chemscore.Hbond>
2.6880

> <Gold.PLP.Chemscore.CHOScore>
1.9940

> <Gold.PLP.Chemscore.Metal>
0.0000

> <Gold.Chemscore.Hbonds>
donor molecule, donor type, donor heavy atom, donor atom, acceptor molecule, acceptor atom, score
      L1  H     9    28       P1  7948  1.00
      P1  H  6896  6907       L1    16  0.70
      P1  H 10752 10764       L1    17  1.00
      L1  C     5    25       P1 10747  1.00
      L1  C     7    27       P1 10186  1.00

> <Gold.PLP.Chemscore.Internal.Correction>
0.0209

> <Gold.Rescore>
     Score         DG    S(hbond)    S(metal)    S(lipo)     H(rot)  DE(clash)    DE(int)     intcor
     15.20     -16.77       2.31        0.00      68.81       1.75       0.18       1.38       ----

> <Gold.Chemscore.Fitness>
15.2011

> <Gold.Chemscore.DG>
-16.7665

> <Gold.Chemscore.ZeroCoef>
-5.4800

> <Gold.Chemscore.Hbond>
2.3071

> <Gold.Chemscore.Metal>
0.0000

> <Gold.Chemscore.Lipo>
68.8088

> <Gold.Chemscore.Internal_Hbond>
0.0000

> <Gold.Chemscore.DEClash>
0.1836

> <Gold.Chemscore.DEInternal>
1.3819

> <Gold.Chemscore.Rot>
1.7460

> <Gold.Chemscore.Internal.Correction>
   9.000000E+99

> <Gold.Chemscore.Hbonds>
donor molecule, donor type, donor heavy atom, donor atom, acceptor molecule, acceptor atom, score
      L1  H     9    28       P1  7948  0.63
      P1  H  6896  6907       L1    16  0.70
      P1  H 10752 10764       L1    17  0.55

> <Gold.Chemscore.Hbond.Weighted>
-7.7056

> <Gold.Chemscore.Metal.Weighted>
-0.0000

> <Gold.Chemscore.Lipo.Weighted>
-8.0506

> <Gold.Chemscore.Internal_Hbond.Weighted>
0.0000

> <Gold.Chemscore.DEClash.Weighted>
0.1836

> <Gold.Chemscore.DEInternal.Weighted>
1.3819

> <Gold.Chemscore.Rot.Weighted>
4.4697

> <Gold.Chemscore.Internal.Correction.Weighted>
   9.000000E+99

> <Gold.Protein.RotatedTorsions>
[ 6907 6896 6895 6894 ] final  -52.27 input  -60.11 | X-H torsion
[ 7974 7965 7964 7962 ] final  150.89 input  175.53 | X-H torsion
[ 8008 7997 7996 7995 ] final   34.72 input   59.86 | X-H torsion
[ 10167 10162 10161 10158 ] final   39.68 input  -65.29 | X-H torsion
[ 10718 10713 10712 10709 ] final -106.91 input   66.30 | X-H torsion
[ 10763 10752 10751 10750 ] final  -31.16 input  -60.55 | X-H torsion
[ 11005 11000 10999 10996 ] final   27.84 input  -57.11 | X-H torsion

> <Gold.Protein.ActiveResidues>
 VAL166  LYS551  ARG553  GLY616  TRP617  ASP618  TYR619  PRO620  LYS621  CYS622 
 ASP623  PHE694  ASN695  SER759  ASP760  ASP761  ALA762  ILE779  LEU786  VAL792 
 PHE793  MET794  SER795  GLU796  ALA797  LYS798  CYS799  TRP800  GLU811  SER814 

> <Gold.Protein.RotatedAtoms>
  150.8533  134.7865  159.7025 H   0  0  0  0  0  0  0  0  0  0  0  0  # atno 6907 bound_to 6896
  152.4592  134.5219  159.9795 H   0  0  0  0  0  0  0  0  0  0  0  0  # atno 6908 bound_to 6896
  151.5336  133.3406  159.2958 H   0  0  0  0  0  0  0  0  0  0  0  0  # atno 6909 bound_to 6896
  144.8331  139.6467  143.6050 H   0  0  0  0  0  0  0  0  0  0  0  0  # atno 7974 bound_to 7965
  155.1594  140.3282  155.4414 H   0  0  0  0  0  0  0  0  0  0  0  0  # atno 8008 bound_to 7997
  156.2548  140.1963  156.6653 H   0  0  0  0  0  0  0  0  0  0  0  0  # atno 8009 bound_to 7997
  154.6415  140.0569  156.9838 H   0  0  0  0  0  0  0  0  0  0  0  0  # atno 8010 bound_to 7997
  140.3816  144.1972  150.6130 H   0  0  0  0  0  0  0  0  0  0  0  0  # atno 10167 bound_to 10162
  156.0412  130.5636  150.7748 H   0  0  0  0  0  0  0  0  0  0  0  0  # atno 10718 bound_to 10713
  153.7928  135.6896  153.4868 H   0  0  0  0  0  0  0  0  0  0  0  0  # atno 10763 bound_to 10752
  153.1739  135.4532  154.9937 H   0  0  0  0  0  0  0  0  0  0  0  0  # atno 10764 bound_to 10752
  154.8038  135.3348  154.7422 H   0  0  0  0  0  0  0  0  0  0  0  0  # atno 10765 bound_to 10752
  140.3220  134.2533  155.7715 H   0  0  0  0  0  0  0  0  0  0  0  0  # atno 11005 bound_to 11000
  146.2633  139.6460  142.9347 LP  0  0  0  0  0  0  0  0  0  0  0  0  # atno 17320 bound_to 7965
  145.4852  141.0438  143.2624 LP  0  0  0  0  0  0  0  0  0  0  0  0  # atno 17321 bound_to 7965
  140.4932  143.2341  151.8788 LP  0  0  0  0  0  0  0  0  0  0  0  0  # atno 17342 bound_to 10162
  139.4795  144.5143  151.8890 LP  0  0  0  0  0  0  0  0  0  0  0  0  # atno 17343 bound_to 10162
  157.5232  131.0932  151.0052 LP  0  0  0  0  0  0  0  0  0  0  0  0  # atno 17370 bound_to 10713
  157.0377  130.5737  149.5352 LP  0  0  0  0  0  0  0  0  0  0  0  0  # atno 17371 bound_to 10713
  141.2084  133.7778  157.0059 LP  0  0  0  0  0  0  0  0  0  0  0  0  # atno 17394 bound_to 11000
  140.0934  134.9579  157.1811 LP  0  0  0  0  0  0  0  0  0  0  0  0  # atno 17395 bound_to 11000

$$$$
