AV-unprocessed.smi:2752|AV-procd|sdf|10608|dock3
  -GOLD-   2272015 63D 1   1.00000     0.00000
 Structure written by MMmdl.
 34 35  0  0  0  0  0  0  0  0  1 V2000
  148.5623  145.0161  161.0252 C   0  0  0  0  0  0  0  0  0  0  0  0
  149.3491  143.9708  160.4767 O   0  0  0  0  0  0  0  0  0  0  0  0
  150.1615  144.3786  159.3842 C   0  0  1  0  0  0  0  0  0  0  0  0
  151.4084  145.1445  159.8477 C   0  0  0  0  0  0  0  0  0  0  0  0
  152.4680  144.8154  158.8027 C   0  0  0  0  0  0  0  0  0  0  0  0
  152.2088  143.3475  158.4693 C   0  0  0  0  0  0  0  0  0  0  0  0
  150.6882  143.1427  158.6227 C   0  0  2  0  0  0  0  0  0  0  0  0
  150.0365  143.0254  157.3205 N   0  0  0  0  0  0  0  0  0  0  0  0
  149.5909  141.8819  156.7809 C   0  0  0  0  0  0  0  0  0  0  0  0
  149.6934  140.7860  157.3329 O   0  0  0  0  0  0  0  0  0  0  0  0
  149.0303  142.0991  155.5782 N   0  0  0  0  0  0  0  0  0  0  0  0
  148.4634  141.1480  154.6886 C   0  0  0  0  0  0  0  0  0  0  0  0
  147.4432  141.6491  153.8481 C   0  0  0  0  0  0  0  0  0  0  0  0
  146.8176  140.7861  152.9272 C   0  0  0  0  0  0  0  0  0  0  0  0
  147.2310  139.4435  152.8712 C   0  0  0  0  0  0  0  0  0  0  0  0
  146.6590  138.5766  152.0021 F   0  0  0  0  0  0  0  0  0  0  0  0
  148.2537  139.0241  153.7417 C   0  0  0  0  0  0  0  0  0  0  0  0
  148.8535  139.8501  154.6253 N   0  0  0  0  0  0  0  0  0  0  0  0
  147.9594  144.6255  161.8448 H   0  0  0  0  0  0  0  0  0  0  0  0
  147.8837  145.4311  160.2792 H   0  0  0  0  0  0  0  0  0  0  0  0
  149.1816  145.8212  161.4219 H   0  0  0  0  0  0  0  0  0  0  0  0
  149.5864  145.0114  158.7045 H   0  0  0  0  0  0  0  0  0  0  0  0
  151.2330  146.2164  159.9439 H   0  0  0  0  0  0  0  0  0  0  0  0
  151.7344  144.7716  160.8199 H   0  0  0  0  0  0  0  0  0  0  0  0
  152.3136  145.4290  157.9143 H   0  0  0  0  0  0  0  0  0  0  0  0
  153.4824  144.9921  159.1608 H   0  0  0  0  0  0  0  0  0  0  0  0
  152.5905  143.0775  157.4838 H   0  0  0  0  0  0  0  0  0  0  0  0
  152.7279  142.7195  159.1946 H   0  0  0  0  0  0  0  0  0  0  0  0
  150.5034  142.2373  159.2046 H   0  0  0  0  0  0  0  0  0  0  0  0
  149.9110  143.8799  156.7984 H   0  0  0  0  0  0  0  0  0  0  0  0
  149.0115  143.0564  155.2597 H   0  0  0  0  0  0  0  0  0  0  0  0
  147.1391  142.6842  153.9052 H   0  0  0  0  0  0  0  0  0  0  0  0
  146.0359  141.1490  152.2764 H   0  0  0  0  0  0  0  0  0  0  0  0
  148.6001  138.0013  153.7293 H   0  0  0  0  0  0  0  0  0  0  0  0
  1  2  1  0  0  0  0
  1 19  1  0  0  0  0
  1 20  1  0  0  0  0
  1 21  1  0  0  0  0
  2  3  1  0  0  0  0
  3  7  1  0  0  0  0
  3  4  1  0  0  0  0
  3 22  1  0  0  0  0
  4  5  1  0  0  0  0
  4 23  1  0  0  0  0
  4 24  1  0  0  0  0
  5  6  1  0  0  0  0
  5 25  1  0  0  0  0
  5 26  1  0  0  0  0
  6  7  1  0  0  0  0
  6 27  1  0  0  0  0
  6 28  1  0  0  0  0
  7  8  1  0  0  0  0
  7 29  1  0  0  0  0
  8  9  1  0  0  0  0
  8 30  1  0  0  0  0
  9 10  2  0  0  0  0
  9 11  1  0  0  0  0
 11 12  1  0  0  0  0
 11 31  1  0  0  0  0
 12 18  1  0  0  0  0
 12 13  2  0  0  0  0
 13 14  1  0  0  0  0
 13 32  1  0  0  0  0
 14 15  2  0  0  0  0
 14 33  1  0  0  0  0
 15 16  1  0  0  0  0
 15 17  1  0  0  0  0
 17 18  2  0  0  0  0
 17 34  1  0  0  0  0
M  END
> <s_m_source_file>
AV-unprocessed.smi

> <i_m_source_file_index>
2752

> <i_lp_mmshare_version>
43012

> <i_f3d_flags>
0

> <s_epik_input>
W0NIM11PW0NAQEhdMVtDSDJdW0NIMl1bQ0gyXVtDQEhdMVtOSF1DKD1PKVtOSF1jMltjSF1bY0hdYyhGKVtjSF1uMg==

> <s_epik_cmdline>
J2VwaWtfcHl0aG9uJywgJy1waCcsICc3LjAnLCAnLXRuJywgJzgnLCAnLW1hJywgJzIwMCcsICctbWV0YWxfYmluZGluZycsICctaW1hZScsICc8aW5maWxlLm1hZT4nLCAnLW9tYWUnLCAnPG91dGZpbGUubWFlPic=

> <r_lp_tautomer_probability>
1

> <r_epik_Ionization_Penalty>
3.49853e-05

> <r_epik_Ionization_Penalty_Charging>
0

> <r_epik_Ionization_Penalty_Neutral>
3.49853e-05

> <r_epik_State_Penalty>
-0

> <r_epik_Charging_Adjusted_Penalty>
0

> <i_epik_Tot_Q>
0

> <i_epik_Tot_abs_Q>
0

> <r_epik_Metal_State_Penalty>
-0

> <b_epik_Metal_Only>
0

> <s_lp_Force_Field>
OPLS_2005

> <r_lp_Energy>
21.736

> <b_lp_Chiralities_Consistent>
1

> <s_lp_Variant>
AV-unprocessed.smi:2752-4

> <Gold.Version>
5.8.1

> <Gold.Id.Protein>
6NUR|6NUR_protein|mol2

> <Gold.PLP.Fitness>
47.7544

> <Gold.PLP.PLP>
-38.9372

> <Gold.PLP.part.hbond>
-3.0000

> <Gold.PLP.part.metal>
0.0000

> <Gold.PLP.part.buried>
-2.0878

> <Gold.PLP.part.nonpolar>
-34.7017

> <Gold.PLP.part.repulsive>
0.4428

> <Gold.PLP.ligand.clash>
0.0000

> <Gold.PLP.ligand.torsion>
0.5112

> <Gold.PLP.Chemscore.Hbond>
2.3680

> <Gold.PLP.Chemscore.CHOScore>
0.9095

> <Gold.PLP.Chemscore.Metal>
0.0000

> <Gold.Chemscore.Hbonds>
donor molecule, donor type, donor heavy atom, donor atom, acceptor molecule, acceptor atom, score
      L1  H     8    30       P1  8028  0.91
      L1  H    11    31       P1  8028  0.98
      P1  H  6933  6944       L1     2  0.45
      L1  C    17    34       P1  7948  0.87

> <Gold.PLP.Chemscore.Internal.Correction>
0.0072

> <Gold.Rescore>
     Score         DG    S(hbond)    S(metal)    S(lipo)     H(rot)  DE(clash)    DE(int)     intcor
     17.86     -19.52       2.28        0.00      83.05       1.28       0.09       1.57       ----

> <Gold.Chemscore.Fitness>
17.8620

> <Gold.Chemscore.DG>
-19.5233

> <Gold.Chemscore.ZeroCoef>
-5.4800

> <Gold.Chemscore.Hbond>
2.2779

> <Gold.Chemscore.Metal>
0.0000

> <Gold.Chemscore.Lipo>
83.0531

> <Gold.Chemscore.Internal_Hbond>
0.0000

> <Gold.Chemscore.DEClash>
0.0871

> <Gold.Chemscore.DEInternal>
1.5742

> <Gold.Chemscore.Rot>
1.2821

> <Gold.Chemscore.Internal.Correction>
   9.000000E+99

> <Gold.Chemscore.Hbonds>
donor molecule, donor type, donor heavy atom, donor atom, acceptor molecule, acceptor atom, score
      L1  H     8    30       P1  8028  0.89
      L1  H    11    31       P1  8028  0.93
      P1  H  6933  6944       L1     2  0.12

> <Gold.Chemscore.Hbond.Weighted>
-7.6083

> <Gold.Chemscore.Metal.Weighted>
-0.0000

> <Gold.Chemscore.Lipo.Weighted>
-9.7172

> <Gold.Chemscore.Internal_Hbond.Weighted>
0.0000

> <Gold.Chemscore.DEClash.Weighted>
0.0871

> <Gold.Chemscore.DEInternal.Weighted>
1.5742

> <Gold.Chemscore.Rot.Weighted>
3.2822

> <Gold.Chemscore.Internal.Correction.Weighted>
   9.000000E+99

> <Gold.Protein.RotatedTorsions>
[ 6907 6896 6895 6894 ] final  -94.90 input  -60.11 | X-H torsion
[ 7974 7965 7964 7962 ] final  126.23 input  175.53 | X-H torsion
[ 8008 7997 7996 7995 ] final    6.80 input   59.86 | X-H torsion
[ 10167 10162 10161 10158 ] final -101.86 input  -65.29 | X-H torsion
[ 10718 10713 10712 10709 ] final   77.91 input   66.30 | X-H torsion
[ 10763 10752 10751 10750 ] final -151.87 input  -60.55 | X-H torsion
[ 11005 11000 10999 10996 ] final -106.44 input  -57.11 | X-H torsion

> <Gold.Protein.ActiveResidues>
 VAL166  LYS551  ARG553  GLY616  TRP617  ASP618  TYR619  PRO620  LYS621  CYS622 
 ASP623  PHE694  ASN695  SER759  ASP760  ASP761  ALA762  ILE779  LEU786  VAL792 
 PHE793  MET794  SER795  GLU796  ALA797  LYS798  CYS799  TRP800  GLU811  SER814 

> <Gold.Protein.RotatedAtoms>
  150.6952  134.1740  159.4222 H   0  0  0  0  0  0  0  0  0  0  0  0  # atno 6907 bound_to 6896
  151.9717  135.0071  160.0562 H   0  0  0  0  0  0  0  0  0  0  0  0  # atno 6908 bound_to 6896
  152.1835  133.4689  159.5007 H   0  0  0  0  0  0  0  0  0  0  0  0  # atno 6909 bound_to 6896
  145.0641  139.3782  143.4991 H   0  0  0  0  0  0  0  0  0  0  0  0  # atno 7974 bound_to 7965
  154.7456  140.2757  155.6336 H   0  0  0  0  0  0  0  0  0  0  0  0  # atno 8008 bound_to 7997
  156.2884  140.2688  156.2122 H   0  0  0  0  0  0  0  0  0  0  0  0  # atno 8009 bound_to 7997
  155.0202  140.0371  157.2424 H   0  0  0  0  0  0  0  0  0  0  0  0  # atno 8010 bound_to 7997
  140.2368  143.3567  152.0838 H   0  0  0  0  0  0  0  0  0  0  0  0  # atno 10167 bound_to 10162
  157.6727  130.9844  150.1710 H   0  0  0  0  0  0  0  0  0  0  0  0  # atno 10718 bound_to 10713
  154.8030  135.3249  154.7501 H   0  0  0  0  0  0  0  0  0  0  0  0  # atno 10763 bound_to 10752
  153.8165  135.6891  153.4837 H   0  0  0  0  0  0  0  0  0  0  0  0  # atno 10764 bound_to 10752
  153.1759  135.4605  154.9908 H   0  0  0  0  0  0  0  0  0  0  0  0  # atno 10765 bound_to 10752
  141.1004  133.8894  157.1857 H   0  0  0  0  0  0  0  0  0  0  0  0  # atno 11005 bound_to 11000
  146.3526  140.0353  142.8647 LP  0  0  0  0  0  0  0  0  0  0  0  0  # atno 17320 bound_to 7965
  145.1373  140.9551  143.4509 LP  0  0  0  0  0  0  0  0  0  0  0  0  # atno 17321 bound_to 7965
  139.5091  144.6861  151.5883 LP  0  0  0  0  0  0  0  0  0  0  0  0  # atno 17342 bound_to 10162
  140.6144  143.9376  150.6477 LP  0  0  0  0  0  0  0  0  0  0  0  0  # atno 17343 bound_to 10162
  156.2464  130.3696  149.8280 LP  0  0  0  0  0  0  0  0  0  0  0  0  # atno 17370 bound_to 10713
  156.6065  130.8568  151.3444 LP  0  0  0  0  0  0  0  0  0  0  0  0  # atno 17371 bound_to 10713
  139.9854  135.0084  156.9849 LP  0  0  0  0  0  0  0  0  0  0  0  0  # atno 17394 bound_to 11000
  140.5036  134.1073  155.7255 LP  0  0  0  0  0  0  0  0  0  0  0  0  # atno 17395 bound_to 11000

$$$$
