AV-unprocessed.smi:22|AV-procd|sdf|169|dock4
  -GOLD-   2262015423D 1   1.00000     0.00000
 Structure written by MMmdl.
 56 59  0  0  0  0  0  0  0  0  2 V2000
  143.2696  132.2799  150.9772 C   0  0  0  0  0  0  0  0  0  0  0  0
  143.5521  133.7219  150.7743 N   0  3  2  0  0  0  0  0  0  0  0  0
  144.3295  133.9874  149.5328 C   0  0  0  0  0  0  0  0  0  0  0  0
  143.8278  133.1518  148.3434 C   0  0  0  0  0  0  0  0  0  0  0  0
  143.7596  133.9561  147.1850 O   0  0  0  0  0  0  0  0  0  0  0  0
  144.0794  134.3783  152.0062 C   0  0  0  0  0  0  0  0  0  0  0  0
  143.6917  135.8701  152.0751 C   0  0  0  0  0  0  0  0  0  0  0  0
  144.1995  136.5082  153.3783 C   0  0  0  0  0  0  0  0  0  0  0  0
  145.6380  136.2946  153.5362 N   0  0  0  0  0  0  0  0  0  0  0  0
  146.2413  137.1184  154.4308 C   0  0  0  0  0  0  0  0  0  0  0  0
  146.2258  136.8100  155.7554 N   0  0  0  0  0  0  0  0  0  0  0  0
  146.8106  137.6190  156.6438 C   0  0  0  0  0  0  0  0  0  0  0  0
  147.4576  138.7659  156.4284 N   0  0  0  0  0  0  0  0  0  0  0  0
  147.4822  139.0787  155.1014 C   0  0  0  0  0  0  0  0  0  0  0  0
  146.9057  138.3172  154.0456 C   0  0  0  0  0  0  0  0  0  0  0  0
  147.1463  138.9410  152.8271 N   0  0  0  0  0  0  0  0  0  0  0  0
  147.8166  140.0147  153.1455 C   0  0  0  0  0  0  0  0  0  0  0  0
  148.0575  140.1794  154.4909 N   0  0  0  0  0  0  0  0  0  0  0  0
  148.7767  141.2778  155.1175 C   0  0  0  0  0  0  0  0  0  0  0  0
  150.1043  140.8427  155.7800 C   0  0  1  0  0  0  0  0  0  0  0  0
  150.9012  140.1736  154.8172 O   0  0  0  0  0  0  0  0  0  0  0  0
  150.9171  141.9934  156.3668 C   0  0  0  0  0  0  0  0  0  0  0  0
  151.6178  141.3432  157.5514 C   0  0  0  0  0  0  0  0  0  0  0  0
  150.6124  140.4920  158.0746 O   0  0  0  0  0  0  0  0  0  0  0  0
  149.9069  139.9031  156.9867 C   0  0  0  0  0  0  0  0  0  0  0  0
  146.0661  134.8951  153.4996 C   0  0  0  0  0  0  0  0  0  0  0  0
  145.6049  134.2149  152.2000 C   0  0  0  0  0  0  0  0  0  0  0  0
  144.1884  131.7165  151.1423 H   0  0  0  0  0  0  0  0  0  0  0  0
  142.7621  131.8496  150.1147 H   0  0  0  0  0  0  0  0  0  0  0  0
  142.6184  132.1284  151.8386 H   0  0  0  0  0  0  0  0  0  0  0  0
  144.2734  135.0382  149.2511 H   0  0  0  0  0  0  0  0  0  0  0  0
  145.3854  133.7832  149.7159 H   0  0  0  0  0  0  0  0  0  0  0  0
  144.5220  132.3339  148.1494 H   0  0  0  0  0  0  0  0  0  0  0  0
  142.8551  132.7010  148.5368 H   0  0  0  0  0  0  0  0  0  0  0  0
  144.6164  134.3209  147.0194 H   0  0  0  0  0  0  0  0  0  0  0  0
  143.5876  133.9021  152.8561 H   0  0  0  0  0  0  0  0  0  0  0  0
  144.1086  136.4221  151.2331 H   0  0  0  0  0  0  0  0  0  0  0  0
  142.6087  135.9812  152.0109 H   0  0  0  0  0  0  0  0  0  0  0  0
  143.9483  137.5684  153.3815 H   0  0  0  0  0  0  0  0  0  0  0  0
  143.6861  136.0659  154.2330 H   0  0  0  0  0  0  0  0  0  0  0  0
  146.7506  137.3028  157.6747 H   0  0  0  0  0  0  0  0  0  0  0  0
  148.1538  140.7234  152.4030 H   0  0  0  0  0  0  0  0  0  0  0  0
  148.9689  142.0368  154.3579 H   0  0  0  0  0  0  0  0  0  0  0  0
  148.1199  141.7434  155.8539 H   0  0  0  0  0  0  0  0  0  0  0  0
  150.8462  139.2439  154.9778 H   0  0  0  0  0  0  0  0  0  0  0  0
  151.6048  142.4564  155.6578 H   0  0  0  0  0  0  0  0  0  0  0  0
  150.2525  142.7725  156.7417 H   0  0  0  0  0  0  0  0  0  0  0  0
  152.4729  140.7486  157.2257 H   0  0  0  0  0  0  0  0  0  0  0  0
  151.9595  142.0675  158.2912 H   0  0  0  0  0  0  0  0  0  0  0  0
  148.8572  139.7953  157.2617 H   0  0  0  0  0  0  0  0  0  0  0  0
  150.2971  138.9018  156.7971 H   0  0  0  0  0  0  0  0  0  0  0  0
  147.1527  134.8325  153.5733 H   0  0  0  0  0  0  0  0  0  0  0  0
  145.6536  134.3702  154.3627 H   0  0  0  0  0  0  0  0  0  0  0  0
  145.8797  133.1605  152.2271 H   0  0  0  0  0  0  0  0  0  0  0  0
  146.1502  134.6568  151.3658 H   0  0  0  0  0  0  0  0  0  0  0  0
  142.6514  134.1538  150.6218 H   0  0  0  0  0  0  0  0  0  0  0  0
  1  2  1  0  0  0  0
  1 28  1  0  0  0  0
  1 29  1  0  0  0  0
  1 30  1  0  0  0  0
  2  3  1  0  0  0  0
  2  6  1  0  0  0  0
  2 56  1  0  0  0  0
  3  4  1  0  0  0  0
  3 31  1  0  0  0  0
  3 32  1  0  0  0  0
  4  5  1  0  0  0  0
  4 33  1  0  0  0  0
  4 34  1  0  0  0  0
  5 35  1  0  0  0  0
  6 27  1  0  0  0  0
  6  7  1  0  0  0  0
  6 36  1  0  0  0  0
  7  8  1  0  0  0  0
  7 37  1  0  0  0  0
  7 38  1  0  0  0  0
  8  9  1  0  0  0  0
  8 39  1  0  0  0  0
  8 40  1  0  0  0  0
  9 10  1  0  0  0  0
  9 26  1  0  0  0  0
 10 15  1  0  0  0  0
 10 11  2  0  0  0  0
 11 12  1  0  0  0  0
 12 13  2  0  0  0  0
 12 41  1  0  0  0  0
 13 14  1  0  0  0  0
 14 18  1  0  0  0  0
 14 15  2  0  0  0  0
 15 16  1  0  0  0  0
 16 17  2  0  0  0  0
 17 18  1  0  0  0  0
 17 42  1  0  0  0  0
 18 19  1  0  0  0  0
 19 20  1  0  0  0  0
 19 43  1  0  0  0  0
 19 44  1  0  0  0  0
 20 25  1  0  0  0  0
 20 21  1  0  0  0  0
 20 22  1  0  0  0  0
 21 45  1  0  0  0  0
 22 23  1  0  0  0  0
 22 46  1  0  0  0  0
 22 47  1  0  0  0  0
 23 24  1  0  0  0  0
 23 48  1  0  0  0  0
 23 49  1  0  0  0  0
 24 25  1  0  0  0  0
 25 50  1  0  0  0  0
 25 51  1  0  0  0  0
 26 27  1  0  0  0  0
 26 52  1  0  0  0  0
 26 53  1  0  0  0  0
 27 54  1  0  0  0  0
 27 55  1  0  0  0  0
M  CHG  1   2   1
M  END
> <s_m_source_file>
AV-unprocessed.smi

> <i_m_source_file_index>
22

> <i_lp_mmshare_version>
43012

> <i_f3d_flags>
0

> <s_epik_input>
W09IXVtDSDJdW0NIMl1OKFtDSDNdKVtDSF0xW0NIMl1bQ0gyXU4oW0NIMl1bQ0gyXTEpYyhuW2NIXW4yKWMoYzIzKW5bY0hdbjNbQ0gyXVtDQEBdNChbT0hdKVtDSDJdW0NIMl1PW0NIMl00

> <s_epik_cmdline>
J2VwaWtfcHl0aG9uJywgJy1waCcsICc3LjAnLCAnLXRuJywgJzgnLCAnLW1hJywgJzIwMCcsICctbWV0YWxfYmluZGluZycsICctaW1hZScsICc8aW5maWxlLm1hZT4nLCAnLW9tYWUnLCAnPG91dGZpbGUubWFlPic=

> <r_lp_tautomer_probability>
1

> <r_epik_Ionization_Penalty>
0.00317524

> <r_epik_Ionization_Penalty_Charging>
0.00191487

> <r_epik_Ionization_Penalty_Neutral>
0.00126037

> <r_epik_State_Penalty>
-0

> <r_epik_Charging_Adjusted_Penalty>
0.00191487

> <i_epik_Tot_Q>
1

> <i_epik_Tot_abs_Q>
1

> <r_epik_Metal_State_Penalty>
-0

> <b_epik_Metal_Only>
0

> <s_lp_Force_Field>
OPLS_2005

> <r_lp_Energy>
45.1339

> <b_lp_Chiralities_Consistent>
1

> <s_lp_Variant>
AV-unprocessed.smi:22-1

> <Gold.Version>
5.8.1

> <Gold.Id.Protein>
6NUR|6NUR_protein|mol2

> <Gold.PLP.Fitness>
47.9818

> <Gold.PLP.PLP>
-32.8825

> <Gold.PLP.part.hbond>
-6.0000

> <Gold.PLP.part.metal>
0.0000

> <Gold.PLP.part.buried>
-0.3858

> <Gold.PLP.part.nonpolar>
-28.4906

> <Gold.PLP.part.repulsive>
0.3760

> <Gold.PLP.ligand.clash>
0.0000

> <Gold.PLP.ligand.torsion>
1.2440

> <Gold.PLP.Chemscore.Hbond>
4.9920

> <Gold.PLP.Chemscore.CHOScore>
0.6783

> <Gold.PLP.Chemscore.Metal>
0.0000

> <Gold.Chemscore.Hbonds>
donor molecule, donor type, donor heavy atom, donor atom, acceptor molecule, acceptor atom, score
      L1  H     2    56       P1 10186  2.00
      L1  H     5    35       P1  7921  1.00
      P1  H  7989  7998       L1    21  1.00
      P1  H 10192 10197       L1     5  0.80
      L1  C    17    42       P1  7957  0.69

> <Gold.PLP.Chemscore.Internal.Correction>
0.5762

> <Gold.Rescore>
     Score         DG    S(hbond)    S(metal)    S(lipo)     H(rot)  DE(clash)    DE(int)     intcor
     12.69     -16.39       3.37        0.00      79.27       3.76       1.07       2.63       ----

> <Gold.Chemscore.Fitness>
12.6868

> <Gold.Chemscore.DG>
-16.3858

> <Gold.Chemscore.ZeroCoef>
-5.4800

> <Gold.Chemscore.Hbond>
3.3691

> <Gold.Chemscore.Metal>
0.0000

> <Gold.Chemscore.Lipo>
79.2684

> <Gold.Chemscore.Internal_Hbond>
0.0000

> <Gold.Chemscore.DEClash>
1.0728

> <Gold.Chemscore.DEInternal>
2.6262

> <Gold.Chemscore.Rot>
3.7583

> <Gold.Chemscore.Internal.Correction>
   9.000000E+99

> <Gold.Chemscore.Hbonds>
donor molecule, donor type, donor heavy atom, donor atom, acceptor molecule, acceptor atom, score
      L1  H     2    56       P1 10186  0.61
      L1  H     5    35       P1  7921  0.95
      P1  H  7989  7998       L1    21  0.99
      P1  H 10192 10197       L1     5  0.65

> <Gold.Chemscore.Hbond.Weighted>
-11.2526

> <Gold.Chemscore.Metal.Weighted>
-0.0000

> <Gold.Chemscore.Lipo.Weighted>
-9.2744

> <Gold.Chemscore.Internal_Hbond.Weighted>
0.0000

> <Gold.Chemscore.DEClash.Weighted>
1.0728

> <Gold.Chemscore.DEInternal.Weighted>
2.6262

> <Gold.Chemscore.Rot.Weighted>
9.6213

> <Gold.Chemscore.Internal.Correction.Weighted>
   9.000000E+99

> <Gold.Protein.RotatedTorsions>
[ 6907 6896 6895 6894 ] final  -74.49 input  -60.11 | X-H torsion
[ 7974 7965 7964 7962 ] final -109.73 input  175.53 | X-H torsion
[ 8008 7997 7996 7995 ] final  -29.13 input   59.86 | X-H torsion
[ 10167 10162 10161 10158 ] final   68.83 input  -65.29 | X-H torsion
[ 10718 10713 10712 10709 ] final -129.38 input   66.30 | X-H torsion
[ 10763 10752 10751 10750 ] final   26.17 input  -60.55 | X-H torsion
[ 11005 11000 10999 10996 ] final  -66.15 input  -57.11 | X-H torsion

> <Gold.Protein.ActiveResidues>
 VAL166  LYS551  ARG553  GLY616  TRP617  ASP618  TYR619  PRO620  LYS621  CYS622 
 ASP623  PHE694  ASN695  SER759  ASP760  ASP761  ALA762  ILE779  LEU786  VAL792 
 PHE793  MET794  SER795  GLU796  ALA797  LYS798  CYS799  TRP800  GLU811  SER814 

> <Gold.Protein.RotatedAtoms>
  150.7091  134.4861  159.5493 H   0  0  0  0  0  0  0  0  0  0  0  0  # atno 6907 bound_to 6896
  152.2488  134.8151  160.0458 H   0  0  0  0  0  0  0  0  0  0  0  0  # atno 6908 bound_to 6896
  151.8906  133.3480  159.3834 H   0  0  0  0  0  0  0  0  0  0  0  0  # atno 6909 bound_to 6896
  145.1769  140.8952  143.3502 H   0  0  0  0  0  0  0  0  0  0  0  0  # atno 7974 bound_to 7965
  154.4302  140.1826  156.1200 H   0  0  0  0  0  0  0  0  0  0  0  0  # atno 8008 bound_to 7997
  156.0151  140.3346  155.6955 H   0  0  0  0  0  0  0  0  0  0  0  0  # atno 8009 bound_to 7997
  155.6056  140.0645  157.2711 H   0  0  0  0  0  0  0  0  0  0  0  0  # atno 8010 bound_to 7997
  140.0744  144.5125  150.7205 H   0  0  0  0  0  0  0  0  0  0  0  0  # atno 10167 bound_to 10162
  156.2041  130.6876  151.0574 H   0  0  0  0  0  0  0  0  0  0  0  0  # atno 10718 bound_to 10713
  153.0641  135.6566  154.0395 H   0  0  0  0  0  0  0  0  0  0  0  0  # atno 10763 bound_to 10752
  154.0056  135.2933  155.3399 H   0  0  0  0  0  0  0  0  0  0  0  0  # atno 10764 bound_to 10752
  154.6991  135.5252  153.8570 H   0  0  0  0  0  0  0  0  0  0  0  0  # atno 10765 bound_to 10752
  141.1474  133.6694  156.6095 H   0  0  0  0  0  0  0  0  0  0  0  0  # atno 11005 bound_to 11000
  145.0176  139.3453  143.6089 LP  0  0  0  0  0  0  0  0  0  0  0  0  # atno 17320 bound_to 7965
  146.3459  139.9463  142.8734 LP  0  0  0  0  0  0  0  0  0  0  0  0  # atno 17321 bound_to 7965
  140.7109  143.2505  151.4583 LP  0  0  0  0  0  0  0  0  0  0  0  0  # atno 17342 bound_to 10162
  139.5817  144.1695  152.1976 LP  0  0  0  0  0  0  0  0  0  0  0  0  # atno 17343 bound_to 10162
  157.7002  131.0779  150.6843 LP  0  0  0  0  0  0  0  0  0  0  0  0  # atno 17370 bound_to 10713
  156.6901  130.4592  149.5602 LP  0  0  0  0  0  0  0  0  0  0  0  0  # atno 17371 bound_to 10713
  140.3625  134.7675  157.4544 LP  0  0  0  0  0  0  0  0  0  0  0  0  # atno 17394 bound_to 11000
  140.0773  134.5779  155.8577 LP  0  0  0  0  0  0  0  0  0  0  0  0  # atno 17395 bound_to 11000

$$$$
