AV-unprocessed.smi:241|AV-procd|sdf|1842|dock6
  -GOLD-   2262020453D 1   1.00000     0.00000
 Structure written by MMmdl.
 54 57  0  0  0  0  0  0  0  0  1 V2000
  153.7623  137.3615  161.7095 C   0  0  0  0  0  0  0  0  0  0  0  0
  153.0287  137.8608  160.6032 O   0  0  0  0  0  0  0  0  0  0  0  0
  153.8415  138.3538  159.5476 C   0  0  0  0  0  0  0  0  0  0  0  0
  153.5883  139.8558  159.3141 C   0  0  2  0  0  0  0  0  0  0  0  0
  153.8209  140.7480  160.5328 C   0  0  0  0  0  0  0  0  0  0  0  0
  153.0718  142.0181  160.1415 C   0  0  2  0  0  0  0  0  0  0  0  0
  152.7098  142.7681  161.2916 O   0  0  0  0  0  0  0  0  0  0  0  0
  152.1555  144.0370  160.9849 C   0  0  0  0  0  0  0  0  0  0  0  0
  151.8637  141.4842  159.3569 C   0  0  0  0  0  0  0  0  0  0  0  0
  152.2071  140.1312  158.9291 N   0  0  0  0  0  0  0  0  0  0  0  0
  151.8770  139.8431  157.6510 C   0  0  0  0  0  0  0  0  0  0  0  0
  152.8294  139.4260  156.7755 N   0  0  0  0  0  0  0  0  0  0  0  0
  152.4944  139.1418  155.5131 C   0  0  0  0  0  0  0  0  0  0  0  0
  151.2944  139.2109  154.9315 N   0  0  0  0  0  0  0  0  0  0  0  0
  150.3404  139.6351  155.8098 C   0  0  0  0  0  0  0  0  0  0  0  0
  150.5450  139.9647  157.1783 C   0  0  0  0  0  0  0  0  0  0  0  0
  149.3437  140.3382  157.7659 N   0  0  0  0  0  0  0  0  0  0  0  0
  148.4738  140.2301  156.7985 C   0  0  0  0  0  0  0  0  0  0  0  0
  148.9912  139.8416  155.5822 N   0  0  0  0  0  0  0  0  0  0  0  0
  148.2630  139.6105  154.3694 C   0  0  0  0  0  0  0  0  0  0  0  0
  146.7362  139.6958  154.3391 C   0  0  0  0  0  0  0  0  0  0  0  0
  146.7061  138.6094  153.2390 C   0  0  0  0  0  0  0  0  0  0  0  0
  145.6201  137.5282  153.3765 C   0  0  0  0  0  0  0  0  0  0  0  0
  146.0301  136.2898  152.8337 O   0  0  0  0  0  0  0  0  0  0  0  0
  146.7464  139.1055  151.7781 C   0  0  0  0  0  0  0  0  0  0  0  0
  146.6744  138.0394  150.8543 O   0  0  0  0  0  0  0  0  0  0  0  0
  148.0869  138.2004  153.7997 C   0  0  0  0  0  0  0  0  0  0  0  0
  154.2507  140.1952  158.5161 H   0  0  0  0  0  0  0  0  0  0  0  0
  153.7111  142.6076  159.4811 H   0  0  0  0  0  0  0  0  0  0  0  0
  153.0723  136.9884  162.4662 H   0  0  0  0  0  0  0  0  0  0  0  0
  154.3637  138.1488  162.1658 H   0  0  0  0  0  0  0  0  0  0  0  0
  154.4211  136.5422  161.4237 H   0  0  0  0  0  0  0  0  0  0  0  0
  154.8759  138.2100  159.8610 H   0  0  0  0  0  0  0  0  0  0  0  0
  153.7220  137.7805  158.6263 H   0  0  0  0  0  0  0  0  0  0  0  0
  153.3692  140.3029  161.4209 H   0  0  0  0  0  0  0  0  0  0  0  0
  154.8768  140.9274  160.7365 H   0  0  0  0  0  0  0  0  0  0  0  0
  151.9143  144.5624  161.9086 H   0  0  0  0  0  0  0  0  0  0  0  0
  151.2367  143.9443  160.4049 H   0  0  0  0  0  0  0  0  0  0  0  0
  152.8619  144.6508  160.4249 H   0  0  0  0  0  0  0  0  0  0  0  0
  150.9919  141.4111  160.0077 H   0  0  0  0  0  0  0  0  0  0  0  0
  151.6014  142.1472  158.5309 H   0  0  0  0  0  0  0  0  0  0  0  0
  153.3036  138.8140  154.8772 H   0  0  0  0  0  0  0  0  0  0  0  0
  147.4244  140.4388  156.9475 H   0  0  0  0  0  0  0  0  0  0  0  0
  148.6997  140.2782  153.6249 H   0  0  0  0  0  0  0  0  0  0  0  0
  146.2816  139.3649  155.2750 H   0  0  0  0  0  0  0  0  0  0  0  0
  146.3466  140.6701  154.0431 H   0  0  0  0  0  0  0  0  0  0  0  0
  145.3398  137.3811  154.4201 H   0  0  0  0  0  0  0  0  0  0  0  0
  144.7102  137.8265  152.8549 H   0  0  0  0  0  0  0  0  0  0  0  0
  146.8950  136.3937  152.4671 H   0  0  0  0  0  0  0  0  0  0  0  0
  145.9160  139.7792  151.5655 H   0  0  0  0  0  0  0  0  0  0  0  0
  147.6547  139.6760  151.5822 H   0  0  0  0  0  0  0  0  0  0  0  0
  145.7912  137.9961  150.5189 H   0  0  0  0  0  0  0  0  0  0  0  0
  148.8261  137.9226  153.0475 H   0  0  0  0  0  0  0  0  0  0  0  0
  148.0237  137.4407  154.5810 H   0  0  0  0  0  0  0  0  0  0  0  0
  1  2  1  0  0  0  0
  1 30  1  0  0  0  0
  1 31  1  0  0  0  0
  1 32  1  0  0  0  0
  2  3  1  0  0  0  0
  3  4  1  0  0  0  0
  3 33  1  0  0  0  0
  3 34  1  0  0  0  0
  4 28  1  0  0  0  0
  4 10  1  0  0  0  0
  4  5  1  0  0  0  0
  5  6  1  0  0  0  0
  5 35  1  0  0  0  0
  5 36  1  0  0  0  0
  6 29  1  0  0  0  0
  6  7  1  0  0  0  0
  6  9  1  0  0  0  0
  7  8  1  0  0  0  0
  8 37  1  0  0  0  0
  8 38  1  0  0  0  0
  8 39  1  0  0  0  0
  9 10  1  0  0  0  0
  9 40  1  0  0  0  0
  9 41  1  0  0  0  0
 10 11  1  0  0  0  0
 11 16  1  0  0  0  0
 11 12  2  0  0  0  0
 12 13  1  0  0  0  0
 13 14  2  0  0  0  0
 13 42  1  0  0  0  0
 14 15  1  0  0  0  0
 15 19  1  0  0  0  0
 15 16  2  0  0  0  0
 16 17  1  0  0  0  0
 17 18  2  0  0  0  0
 18 19  1  0  0  0  0
 18 43  1  0  0  0  0
 19 20  1  0  0  0  0
 20 27  1  0  0  0  0
 20 21  1  0  0  0  0
 20 44  1  0  0  0  0
 21 22  1  0  0  0  0
 21 45  1  0  0  0  0
 21 46  1  0  0  0  0
 22 23  1  0  0  0  0
 22 25  1  0  0  0  0
 22 27  1  0  0  0  0
 23 24  1  0  0  0  0
 23 47  1  0  0  0  0
 23 48  1  0  0  0  0
 24 49  1  0  0  0  0
 25 26  1  0  0  0  0
 25 50  1  0  0  0  0
 25 51  1  0  0  0  0
 26 52  1  0  0  0  0
 27 53  1  0  0  0  0
 27 54  1  0  0  0  0
M  END
> <s_m_source_file>
AV-unprocessed.smi

> <i_m_source_file_index>
241

> <i_lp_mmshare_version>
43012

> <i_f3d_flags>
0

> <s_epik_input>
W0NIM11PW0NIMl1bQ0BASF0xW0NIMl1bQ0BASF0oT1tDSDNdKVtDSDJdTjFjKG5bY0hdbjIpYyhjMjMpbltjSF1uM1tDSF0oW0NIMl00KVtDSDJdQzQoW0NIMl1bT0hdKVtDSDJdW09IXQ==

> <s_epik_cmdline>
J2VwaWtfcHl0aG9uJywgJy1waCcsICc3LjAnLCAnLXRuJywgJzgnLCAnLW1hJywgJzIwMCcsICctbWV0YWxfYmluZGluZycsICctaW1hZScsICc8aW5maWxlLm1hZT4nLCAnLW9tYWUnLCAnPG91dGZpbGUubWFlPic=

> <r_lp_tautomer_probability>
1

> <r_epik_Ionization_Penalty>
0.00568677

> <r_epik_Ionization_Penalty_Charging>
0

> <r_epik_Ionization_Penalty_Neutral>
0.00568677

> <r_epik_State_Penalty>
0.00400877

> <r_epik_Charging_Adjusted_Penalty>
0.00400877

> <i_epik_Tot_Q>
0

> <i_epik_Tot_abs_Q>
0

> <r_epik_Metal_State_Penalty>
-0

> <b_epik_Metal_Only>
0

> <s_lp_Force_Field>
OPLS_2005

> <r_lp_Energy>
58.6567

> <b_lp_Chiralities_Consistent>
1

> <s_lp_Variant>
AV-unprocessed.smi:241-3

> <Gold.Version>
5.8.1

> <Gold.Id.Protein>
6NUR|6NUR_protein|mol2

> <Gold.PLP.Fitness>
56.1182

> <Gold.PLP.PLP>
-42.7326

> <Gold.PLP.part.hbond>
-5.2528

> <Gold.PLP.part.metal>
0.0000

> <Gold.PLP.part.buried>
-0.7814

> <Gold.PLP.part.nonpolar>
-36.1489

> <Gold.PLP.part.repulsive>
0.1370

> <Gold.PLP.ligand.clash>
0.0000

> <Gold.PLP.ligand.torsion>
1.0371

> <Gold.PLP.Chemscore.Hbond>
4.9120

> <Gold.PLP.Chemscore.CHOScore>
0.0000

> <Gold.PLP.Chemscore.Metal>
0.0000

> <Gold.Chemscore.Hbonds>
donor molecule, donor type, donor heavy atom, donor atom, acceptor molecule, acceptor atom, score
      L1  H    24    49       P1  7948  0.73
      L1  H    26    52       P1 10171  0.78
      P1  H  7954  7966       L1    26  1.00
      P1  H  7989  7998       L1    14  0.55
      P1  H  7997  8009       L1    12  0.80

> <Gold.PLP.Chemscore.Internal.Correction>
0.7238

> <Gold.Rescore>
     Score         DG    S(hbond)    S(metal)    S(lipo)     H(rot)  DE(clash)    DE(int)     intcor
     16.28     -18.96       3.72        0.00      96.11       3.97       1.64       1.05       ----

> <Gold.Chemscore.Fitness>
16.2778

> <Gold.Chemscore.DG>
-18.9641

> <Gold.Chemscore.ZeroCoef>
-5.4800

> <Gold.Chemscore.Hbond>
3.7155

> <Gold.Chemscore.Metal>
0.0000

> <Gold.Chemscore.Lipo>
96.1073

> <Gold.Chemscore.Internal_Hbond>
0.0000

> <Gold.Chemscore.DEClash>
1.6357

> <Gold.Chemscore.DEInternal>
1.0507

> <Gold.Chemscore.Rot>
3.9727

> <Gold.Chemscore.Internal.Correction>
   9.000000E+99

> <Gold.Chemscore.Hbonds>
donor molecule, donor type, donor heavy atom, donor atom, acceptor molecule, acceptor atom, score
      L1  H    24    49       P1  7948  0.73
      L1  H    26    52       P1 10171  0.76
      P1  H  7954  7966       L1    26  0.84
      P1  H  7989  7998       L1    14  0.09
      P1  H  7997  8009       L1    12  0.12

> <Gold.Chemscore.Hbond.Weighted>
-12.4098

> <Gold.Chemscore.Metal.Weighted>
-0.0000

> <Gold.Chemscore.Lipo.Weighted>
-11.2446

> <Gold.Chemscore.Internal_Hbond.Weighted>
0.0000

> <Gold.Chemscore.DEClash.Weighted>
1.6357

> <Gold.Chemscore.DEInternal.Weighted>
1.0507

> <Gold.Chemscore.Rot.Weighted>
10.1702

> <Gold.Chemscore.Internal.Correction.Weighted>
   9.000000E+99

> <Gold.Protein.RotatedTorsions>
[ 6907 6896 6895 6894 ] final  131.45 input  -60.11 | X-H torsion
[ 7974 7965 7964 7962 ] final   96.94 input  175.53 | X-H torsion
[ 8008 7997 7996 7995 ] final -165.42 input   59.86 | X-H torsion
[ 10167 10162 10161 10158 ] final  -53.78 input  -65.29 | X-H torsion
[ 10718 10713 10712 10709 ] final -154.20 input   66.30 | X-H torsion
[ 10763 10752 10751 10750 ] final   17.73 input  -60.55 | X-H torsion
[ 11005 11000 10999 10996 ] final   35.56 input  -57.11 | X-H torsion

> <Gold.Protein.ActiveResidues>
 VAL166  LYS551  ARG553  GLY616  TRP617  ASP618  TYR619  PRO620  LYS621  CYS622 
 ASP623  PHE694  ASN695  SER759  ASP760  ASP761  ALA762  ILE779  LEU786  VAL792 
 PHE793  MET794  SER795  GLU796  ALA797  LYS798  CYS799  TRP800  GLU811  SER814 

> <Gold.Protein.RotatedAtoms>
  152.3424  133.6083  159.5885 H   0  0  0  0  0  0  0  0  0  0  0  0  # atno 6907 bound_to 6896
  150.7487  133.9701  159.3552 H   0  0  0  0  0  0  0  0  0  0  0  0  # atno 6908 bound_to 6896
  151.7563  135.0821  160.0390 H   0  0  0  0  0  0  0  0  0  0  0  0  # atno 6909 bound_to 6896
  145.4321  139.2309  143.3138 H   0  0  0  0  0  0  0  0  0  0  0  0  # atno 7974 bound_to 7965
  155.8496  140.0961  157.1683 H   0  0  0  0  0  0  0  0  0  0  0  0  # atno 8008 bound_to 7997
  154.3985  140.1385  156.3890 H   0  0  0  0  0  0  0  0  0  0  0  0  # atno 8009 bound_to 7997
  155.7976  140.3454  155.5386 H   0  0  0  0  0  0  0  0  0  0  0  0  # atno 8010 bound_to 7997
  140.6466  143.2539  151.4841 H   0  0  0  0  0  0  0  0  0  0  0  0  # atno 10167 bound_to 10162
  156.4961  130.8370  151.2590 H   0  0  0  0  0  0  0  0  0  0  0  0  # atno 10718 bound_to 10713
  153.1312  135.6740  153.9175 H   0  0  0  0  0  0  0  0  0  0  0  0  # atno 10763 bound_to 10752
  153.8661  135.3075  155.3441 H   0  0  0  0  0  0  0  0  0  0  0  0  # atno 10764 bound_to 10752
  154.7709  135.4940  153.9728 H   0  0  0  0  0  0  0  0  0  0  0  0  # atno 10765 bound_to 10752
  140.2414  134.3410  155.7924 H   0  0  0  0  0  0  0  0  0  0  0  0  # atno 11005 bound_to 11000
  146.2601  140.5059  142.8857 LP  0  0  0  0  0  0  0  0  0  0  0  0  # atno 17320 bound_to 7965
  144.8176  140.6494  143.6374 LP  0  0  0  0  0  0  0  0  0  0  0  0  # atno 17321 bound_to 7965
  139.5678  144.2001  152.1791 LP  0  0  0  0  0  0  0  0  0  0  0  0  # atno 17342 bound_to 10162
  140.1288  144.5307  150.6815 LP  0  0  0  0  0  0  0  0  0  0  0  0  # atno 17343 bound_to 10162
  157.7468  130.9997  150.2899 LP  0  0  0  0  0  0  0  0  0  0  0  0  # atno 17370 bound_to 10713
  156.3378  130.3810  149.7435 LP  0  0  0  0  0  0  0  0  0  0  0  0  # atno 17371 bound_to 10713
  141.2210  133.7301  156.8892 LP  0  0  0  0  0  0  0  0  0  0  0  0  # atno 17394 bound_to 11000
  140.1649  134.9140  157.2761 LP  0  0  0  0  0  0  0  0  0  0  0  0  # atno 17395 bound_to 11000

$$$$
