AV-unprocessed.smi:1933|AV-procd|sdf|7821|dock5
  -GOLD-   22720 9563D 1   1.00000     0.00000
 Structure written by MMmdl.
 48 50  0  0  0  0  0  0  0  0  2 V2000
  144.7614  137.0506  153.7108 O   0  0  0  0  0  0  0  0  0  0  0  0
  145.8759  136.8159  153.2431 C   0  0  0  0  0  0  0  0  0  0  0  0
  146.9753  137.5043  153.5789 N   0  0  0  0  0  0  0  0  0  0  0  0
  147.0084  138.6017  154.5375 C   0  0  0  0  0  0  0  0  0  0  0  0
  147.2534  139.9764  153.8604 C   0  0  2  0  0  0  0  0  0  0  0  0
  148.6700  140.5656  154.1182 C   0  0  1  0  0  0  0  0  0  0  0  0
  148.9135  141.1586  155.4971 C   0  0  0  0  0  0  0  0  0  0  0  0
  150.4360  141.1673  155.5934 C   0  0  0  0  0  0  0  0  0  0  0  0
  150.8838  140.0761  154.7983 O   0  0  0  0  0  0  0  0  0  0  0  0
  149.7888  139.5176  154.0833 C   0  0  0  0  0  0  0  0  0  0  0  0
  146.2164  140.9788  154.2515 N   0  3  0  0  0  0  0  0  0  0  0  0
  145.6441  140.7622  155.6025 C   0  0  0  0  0  0  0  0  0  0  0  0
  144.4563  141.7126  155.8296 C   0  0  0  0  0  0  0  0  0  0  0  0
  144.8774  143.0595  155.6480 O   0  0  0  0  0  0  0  0  0  0  0  0
  145.3565  143.2985  154.3297 C   0  0  0  0  0  0  0  0  0  0  0  0
  146.5786  142.4062  154.0573 C   0  0  0  0  0  0  0  0  0  0  0  0
  146.1589  135.8570  152.3441 N   0  0  0  0  0  0  0  0  0  0  0  0
  145.2730  134.9126  151.7600 C   0  0  0  0  0  0  0  0  0  0  0  0
  145.8695  134.0221  150.8388 C   0  0  0  0  0  0  0  0  0  0  0  0
  145.0754  133.0464  150.2055 C   0  0  0  0  0  0  0  0  0  0  0  0
  143.7041  132.9860  150.5106 C   0  0  0  0  0  0  0  0  0  0  0  0
  143.1901  133.9088  151.4397 C   0  0  0  0  0  0  0  0  0  0  0  0
  143.9492  134.8448  152.0478 N   0  0  0  0  0  0  0  0  0  0  0  0
  147.8496  137.2494  153.1431 H   0  0  0  0  0  0  0  0  0  0  0  0
  146.0562  138.5956  155.0681 H   0  0  0  0  0  0  0  0  0  0  0  0
  147.7854  138.4111  155.2797 H   0  0  0  0  0  0  0  0  0  0  0  0
  147.1635  139.8362  152.7820 H   0  0  0  0  0  0  0  0  0  0  0  0
  148.8927  141.3361  153.3789 H   0  0  0  0  0  0  0  0  0  0  0  0
  148.4978  142.1587  155.6204 H   0  0  0  0  0  0  0  0  0  0  0  0
  148.4943  140.5140  156.2709 H   0  0  0  0  0  0  0  0  0  0  0  0
  150.8391  142.0894  155.1731 H   0  0  0  0  0  0  0  0  0  0  0  0
  150.7874  141.0822  156.6220 H   0  0  0  0  0  0  0  0  0  0  0  0
  149.4783  138.6046  154.5933 H   0  0  0  0  0  0  0  0  0  0  0  0
  150.0824  139.2517  153.0674 H   0  0  0  0  0  0  0  0  0  0  0  0
  145.3082  139.7300  155.7064 H   0  0  0  0  0  0  0  0  0  0  0  0
  146.4038  140.9316  156.3660 H   0  0  0  0  0  0  0  0  0  0  0  0
  143.6368  141.4807  155.1472 H   0  0  0  0  0  0  0  0  0  0  0  0
  144.0700  141.5962  156.8423 H   0  0  0  0  0  0  0  0  0  0  0  0
  144.5660  143.1106  153.6011 H   0  0  0  0  0  0  0  0  0  0  0  0
  145.6309  144.3495  154.2386 H   0  0  0  0  0  0  0  0  0  0  0  0
  147.3855  142.6893  154.7343 H   0  0  0  0  0  0  0  0  0  0  0  0
  146.9340  142.5768  153.0416 H   0  0  0  0  0  0  0  0  0  0  0  0
  147.1199  135.7918  152.0433 H   0  0  0  0  0  0  0  0  0  0  0  0
  146.9247  134.0825  150.6154 H   0  0  0  0  0  0  0  0  0  0  0  0
  145.5118  132.3569  149.4981 H   0  0  0  0  0  0  0  0  0  0  0  0
  143.0630  132.2518  150.0453 H   0  0  0  0  0  0  0  0  0  0  0  0
  142.1427  133.8956  151.7024 H   0  0  0  0  0  0  0  0  0  0  0  0
  145.4473  140.8082  153.6193 H   0  0  0  0  0  0  0  0  0  0  0  0
  1  2  2  0  0  0  0
  2  3  1  0  0  0  0
  2 17  1  0  0  0  0
  3  4  1  0  0  0  0
  3 24  1  0  0  0  0
  4  5  1  0  0  0  0
  4 25  1  0  0  0  0
  4 26  1  0  0  0  0
  5  6  1  0  0  0  0
  5 11  1  0  0  0  0
  5 27  1  0  0  0  0
  6 10  1  0  0  0  0
  6  7  1  0  0  0  0
  6 28  1  0  0  0  0
  7  8  1  0  0  0  0
  7 29  1  0  0  0  0
  7 30  1  0  0  0  0
  8  9  1  0  0  0  0
  8 31  1  0  0  0  0
  8 32  1  0  0  0  0
  9 10  1  0  0  0  0
 10 33  1  0  0  0  0
 10 34  1  0  0  0  0
 11 16  1  0  0  0  0
 11 12  1  0  0  0  0
 11 48  1  0  0  0  0
 12 13  1  0  0  0  0
 12 35  1  0  0  0  0
 12 36  1  0  0  0  0
 13 14  1  0  0  0  0
 13 37  1  0  0  0  0
 13 38  1  0  0  0  0
 14 15  1  0  0  0  0
 15 16  1  0  0  0  0
 15 39  1  0  0  0  0
 15 40  1  0  0  0  0
 16 41  1  0  0  0  0
 16 42  1  0  0  0  0
 17 18  1  0  0  0  0
 17 43  1  0  0  0  0
 18 23  1  0  0  0  0
 18 19  2  0  0  0  0
 19 20  1  0  0  0  0
 19 44  1  0  0  0  0
 20 21  2  0  0  0  0
 20 45  1  0  0  0  0
 21 22  1  0  0  0  0
 21 46  1  0  0  0  0
 22 23  2  0  0  0  0
 22 47  1  0  0  0  0
M  CHG  1  11   1
M  END
> <s_m_source_file>
AV-unprocessed.smi

> <i_m_source_file_index>
1933

> <i_lp_mmshare_version>
43012

> <i_f3d_flags>
0

> <s_epik_input>
bjFbY0hdW2NIXVtjSF1bY0hdYzFbTkhdQyg9TylbTkhdW0NIMl1bQ0BIXShbQ0BASF0yW0NIMl1bQ0gyXU9bQ0gyXTIpTjNbQ0gyXVtDSDJdT1tDSDJdW0NIMl0z

> <s_epik_cmdline>
J2VwaWtfcHl0aG9uJywgJy1waCcsICc3LjAnLCAnLXRuJywgJzgnLCAnLW1hJywgJzIwMCcsICctbWV0YWxfYmluZGluZycsICctaW1hZScsICc8aW5maWxlLm1hZT4nLCAnLW9tYWUnLCAnPG91dGZpbGUubWFlPic=

> <r_epik_Ionization_Penalty>
0.983294

> <r_epik_Ionization_Penalty_Charging>
0.98326

> <r_epik_Ionization_Penalty_Neutral>
3.39688e-05

> <r_epik_State_Penalty>
1.0303

> <r_epik_Charging_Adjusted_Penalty>
2.01356

> <i_epik_Tot_Q>
1

> <i_epik_Tot_abs_Q>
1

> <r_epik_Metal_State_Penalty>
1.0303

> <b_epik_Metal_Only>
0

> <s_lp_Force_Field>
OPLS_2005

> <r_lp_Energy>
40.8927

> <b_lp_Chiralities_Consistent>
1

> <s_lp_Variant>
AV-unprocessed.smi:1933-7

> <Gold.Version>
5.8.1

> <Gold.Id.Protein>
6NUR|6NUR_protein|mol2

> <Gold.PLP.Fitness>
49.0420

> <Gold.PLP.PLP>
-36.4976

> <Gold.PLP.part.hbond>
-3.9904

> <Gold.PLP.part.metal>
0.0000

> <Gold.PLP.part.buried>
-2.3433

> <Gold.PLP.part.nonpolar>
-29.3408

> <Gold.PLP.part.repulsive>
0.4930

> <Gold.PLP.ligand.clash>
0.0000

> <Gold.PLP.ligand.torsion>
1.6885

> <Gold.PLP.Chemscore.Hbond>
4.5940

> <Gold.PLP.Chemscore.CHOScore>
0.6379

> <Gold.PLP.Chemscore.Metal>
0.0000

> <Gold.Chemscore.Hbonds>
donor molecule, donor type, donor heavy atom, donor atom, acceptor molecule, acceptor atom, score
      L1  H     3    24       P1  7948  1.00
      L1  H    11    48       P1 10175  1.56
      L1  H    17    43       P1  7948  1.00
      P1  H  7989  7998       L1     9  0.90
      L1  C    22    47       P1 10186  0.30

> <Gold.PLP.Chemscore.Internal.Correction>
0.2259

> <Gold.Rescore>
     Score         DG    S(hbond)    S(metal)    S(lipo)     H(rot)  DE(clash)    DE(int)     intcor
     17.44     -20.33       2.91        0.00      82.63       1.77       0.26       2.63       ----

> <Gold.Chemscore.Fitness>
17.4411

> <Gold.Chemscore.DG>
-20.3277

> <Gold.Chemscore.ZeroCoef>
-5.4800

> <Gold.Chemscore.Hbond>
2.9053

> <Gold.Chemscore.Metal>
0.0000

> <Gold.Chemscore.Lipo>
82.6299

> <Gold.Chemscore.Internal_Hbond>
0.0000

> <Gold.Chemscore.DEClash>
0.2595

> <Gold.Chemscore.DEInternal>
2.6271

> <Gold.Chemscore.Rot>
1.7671

> <Gold.Chemscore.Internal.Correction>
   9.000000E+99

> <Gold.Chemscore.Hbonds>
donor molecule, donor type, donor heavy atom, donor atom, acceptor molecule, acceptor atom, score
      L1  H     3    24       P1  7948  0.96
      L1  H    11    48       P1 10175  0.68
      L1  H    17    43       P1  7948  1.00
      P1  H  7989  7998       L1     9  0.06

> <Gold.Chemscore.Hbond.Weighted>
-9.7038

> <Gold.Chemscore.Metal.Weighted>
-0.0000

> <Gold.Chemscore.Lipo.Weighted>
-9.6677

> <Gold.Chemscore.Internal_Hbond.Weighted>
0.0000

> <Gold.Chemscore.DEClash.Weighted>
0.2595

> <Gold.Chemscore.DEInternal.Weighted>
2.6271

> <Gold.Chemscore.Rot.Weighted>
4.5238

> <Gold.Chemscore.Internal.Correction.Weighted>
   9.000000E+99

> <Gold.Protein.RotatedTorsions>
[ 6907 6896 6895 6894 ] final  -13.25 input  -60.11 | X-H torsion
[ 7974 7965 7964 7962 ] final  117.21 input  175.53 | X-H torsion
[ 8008 7997 7996 7995 ] final   29.65 input   59.86 | X-H torsion
[ 10167 10162 10161 10158 ] final  -25.51 input  -65.29 | X-H torsion
[ 10718 10713 10712 10709 ] final  -54.24 input   66.30 | X-H torsion
[ 10763 10752 10751 10750 ] final  -71.34 input  -60.55 | X-H torsion
[ 11005 11000 10999 10996 ] final  -34.26 input  -57.11 | X-H torsion

> <Gold.Protein.ActiveResidues>
 VAL166  LYS551  ARG553  GLY616  TRP617  ASP618  TYR619  PRO620  LYS621  CYS622 
 ASP623  PHE694  ASN695  SER759  ASP760  ASP761  ALA762  ILE779  LEU786  VAL792 
 PHE793  MET794  SER795  GLU796  ALA797  LYS798  CYS799  TRP800  GLU811  SER814 

> <Gold.Protein.RotatedAtoms>
  151.3579  135.0898  159.9424 H   0  0  0  0  0  0  0  0  0  0  0  0  # atno 6907 bound_to 6896
  152.5170  133.9287  159.7580 H   0  0  0  0  0  0  0  0  0  0  0  0  # atno 6908 bound_to 6896
  150.9676  133.6324  159.2773 H   0  0  0  0  0  0  0  0  0  0  0  0  # atno 6909 bound_to 6896
  145.1701  139.3106  143.4472 H   0  0  0  0  0  0  0  0  0  0  0  0  # atno 7974 bound_to 7965
  155.0779  140.3207  155.4610 H   0  0  0  0  0  0  0  0  0  0  0  0  # atno 8008 bound_to 7997
  156.2774  140.2100  156.5852 H   0  0  0  0  0  0  0  0  0  0  0  0  # atno 8009 bound_to 7997
  154.7002  140.0508  157.0438 H   0  0  0  0  0  0  0  0  0  0  0  0  # atno 8010 bound_to 7997
  140.7286  143.4259  151.0878 H   0  0  0  0  0  0  0  0  0  0  0  0  # atno 10167 bound_to 10162
  156.1467  130.4152  150.0012 H   0  0  0  0  0  0  0  0  0  0  0  0  # atno 10718 bound_to 10713
  154.4303  135.5965  153.6064 H   0  0  0  0  0  0  0  0  0  0  0  0  # atno 10763 bound_to 10752
  152.9798  135.5973  154.3847 H   0  0  0  0  0  0  0  0  0  0  0  0  # atno 10764 bound_to 10752
  154.3684  135.2841  155.2259 H   0  0  0  0  0  0  0  0  0  0  0  0  # atno 10765 bound_to 10752
  140.9702  133.7114  156.1511 H   0  0  0  0  0  0  0  0  0  0  0  0  # atno 11005 bound_to 11000
  146.3470  140.1844  142.8589 LP  0  0  0  0  0  0  0  0  0  0  0  0  # atno 17320 bound_to 7965
  145.0241  140.8818  143.5149 LP  0  0  0  0  0  0  0  0  0  0  0  0  # atno 17321 bound_to 7965
  139.7910  143.8218  152.3151 LP  0  0  0  0  0  0  0  0  0  0  0  0  # atno 17342 bound_to 10162
  139.8202  144.7299  150.9582 LP  0  0  0  0  0  0  0  0  0  0  0  0  # atno 17343 bound_to 10162
  156.7881  130.9246  151.3646 LP  0  0  0  0  0  0  0  0  0  0  0  0  # atno 17370 bound_to 10713
  157.6623  130.8977  149.9856 LP  0  0  0  0  0  0  0  0  0  0  0  0  # atno 17371 bound_to 10713
  140.7340  134.4223  157.5562 LP  0  0  0  0  0  0  0  0  0  0  0  0  # atno 17394 bound_to 11000
  139.8909  134.8792  156.2345 LP  0  0  0  0  0  0  0  0  0  0  0  0  # atno 17395 bound_to 11000

$$$$
