AV-unprocessed.smi:1857|AV-procd|sdf|7541|dock2
  -GOLD-   22720 9253D 1   1.00000     0.00000
 Structure written by MMmdl.
 45 46  0  0  0  0  0  0  0  0  1 V2000
  146.8354  140.4582  157.2044 C   0  0  0  0  0  0  0  0  0  0  0  0
  147.5045  141.7211  156.6108 C   0  0  0  0  0  0  0  0  0  0  0  0
  146.3800  142.6348  156.0847 C   0  0  0  0  0  0  0  0  0  0  0  0
  148.2490  142.3935  157.7846 C   0  0  0  0  0  0  0  0  0  0  0  0
  148.4445  141.3384  155.4777 C   0  0  0  0  0  0  0  0  0  0  0  0
  148.3934  141.8769  154.2605 N   0  0  0  0  0  0  0  0  0  0  0  0
  149.4454  141.3087  153.5788 N   0  0  0  0  0  0  0  0  0  0  0  0
  150.1128  140.5002  154.3420 N   0  0  0  0  0  0  0  0  0  0  0  0
  149.5065  140.5062  155.5571 N   0  0  0  0  0  0  0  0  0  0  0  0
  150.0864  139.7007  156.6242 C   0  0  0  0  0  0  0  0  0  0  0  0
  151.3196  140.3721  157.2392 C   0  0  0  0  0  0  0  0  0  0  0  0
  152.3969  139.7773  157.2816 O   0  0  0  0  0  0  0  0  0  0  0  0
  151.1461  141.6170  157.7106 N   0  0  0  0  0  0  0  0  0  0  0  0
  152.1823  142.4480  158.3212 C   0  0  0  0  0  0  0  0  0  0  0  0
  152.1713  142.2497  159.8535 C   0  0  0  0  0  0  0  0  0  0  0  0
  152.9394  143.3091  160.6607 C   0  0  0  0  0  0  0  0  0  0  0  0
  152.0688  144.5264  161.0197 C   0  0  0  0  0  0  0  0  0  0  0  0
  151.7515  145.4643  159.8447 C   0  0  0  0  0  0  0  0  0  0  0  0
  151.0701  144.7881  158.6417 C   0  0  0  0  0  0  0  0  0  0  0  0
  152.0353  143.9050  157.8323 C   0  0  0  0  0  0  0  0  0  0  0  0
  146.1637  140.7099  158.0261 H   0  0  0  0  0  0  0  0  0  0  0  0
  147.5761  139.7587  157.5944 H   0  0  0  0  0  0  0  0  0  0  0  0
  146.2398  139.9275  156.4602 H   0  0  0  0  0  0  0  0  0  0  0  0
  145.8119  142.1434  155.2938 H   0  0  0  0  0  0  0  0  0  0  0  0
  146.7623  143.5684  155.6756 H   0  0  0  0  0  0  0  0  0  0  0  0
  145.6781  142.8953  156.8776 H   0  0  0  0  0  0  0  0  0  0  0  0
  147.5814  142.5571  158.6314 H   0  0  0  0  0  0  0  0  0  0  0  0
  148.6563  143.3686  157.5328 H   0  0  0  0  0  0  0  0  0  0  0  0
  149.0727  141.7713  158.1366 H   0  0  0  0  0  0  0  0  0  0  0  0
  149.3229  139.5489  157.3892 H   0  0  0  0  0  0  0  0  0  0  0  0
  150.3436  138.7093  156.2618 H   0  0  0  0  0  0  0  0  0  0  0  0
  150.2266  142.0265  157.6327 H   0  0  0  0  0  0  0  0  0  0  0  0
  153.1490  142.1057  157.9470 H   0  0  0  0  0  0  0  0  0  0  0  0
  151.1453  142.1940  160.2203 H   0  0  0  0  0  0  0  0  0  0  0  0
  152.6033  141.2712  160.0677 H   0  0  0  0  0  0  0  0  0  0  0  0
  153.2642  142.8495  161.5949 H   0  0  0  0  0  0  0  0  0  0  0  0
  153.8514  143.6126  160.1454 H   0  0  0  0  0  0  0  0  0  0  0  0
  151.1388  144.1895  161.4791 H   0  0  0  0  0  0  0  0  0  0  0  0
  152.5807  145.1062  161.7883 H   0  0  0  0  0  0  0  0  0  0  0  0
  151.1004  146.2588  160.2112 H   0  0  0  0  0  0  0  0  0  0  0  0
  152.6647  145.9629  159.5176 H   0  0  0  0  0  0  0  0  0  0  0  0
  150.1862  144.2285  158.9503 H   0  0  0  0  0  0  0  0  0  0  0  0
  150.7069  145.5778  157.9832 H   0  0  0  0  0  0  0  0  0  0  0  0
  153.0178  144.3780  157.8160 H   0  0  0  0  0  0  0  0  0  0  0  0
  151.7180  143.8959  156.7884 H   0  0  0  0  0  0  0  0  0  0  0  0
  1  2  1  0  0  0  0
  1 21  1  0  0  0  0
  1 22  1  0  0  0  0
  1 23  1  0  0  0  0
  2  3  1  0  0  0  0
  2  4  1  0  0  0  0
  2  5  1  0  0  0  0
  3 24  1  0  0  0  0
  3 25  1  0  0  0  0
  3 26  1  0  0  0  0
  4 27  1  0  0  0  0
  4 28  1  0  0  0  0
  4 29  1  0  0  0  0
  5  9  1  0  0  0  0
  5  6  2  0  0  0  0
  6  7  1  0  0  0  0
  7  8  2  0  0  0  0
  8  9  1  0  0  0  0
  9 10  1  0  0  0  0
 10 11  1  0  0  0  0
 10 30  1  0  0  0  0
 10 31  1  0  0  0  0
 11 12  2  0  0  0  0
 11 13  1  0  0  0  0
 13 14  1  0  0  0  0
 13 32  1  0  0  0  0
 14 20  1  0  0  0  0
 14 15  1  0  0  0  0
 14 33  1  0  0  0  0
 15 16  1  0  0  0  0
 15 34  1  0  0  0  0
 15 35  1  0  0  0  0
 16 17  1  0  0  0  0
 16 36  1  0  0  0  0
 16 37  1  0  0  0  0
 17 18  1  0  0  0  0
 17 38  1  0  0  0  0
 17 39  1  0  0  0  0
 18 19  1  0  0  0  0
 18 40  1  0  0  0  0
 18 41  1  0  0  0  0
 19 20  1  0  0  0  0
 19 42  1  0  0  0  0
 19 43  1  0  0  0  0
 20 44  1  0  0  0  0
 20 45  1  0  0  0  0
M  END
> <s_m_source_file>
AV-unprocessed.smi

> <i_m_source_file_index>
1857

> <i_lp_mmshare_version>
43012

> <i_f3d_flags>
0

> <s_epik_input>
W0NIM11DKFtDSDNdKShbQ0gzXSljMW5ubm4xW0NIMl1DKD1PKVtOSF1bQ0hdMltDSDJdW0NIMl1bQ0gyXVtDSDJdW0NIMl1bQ0gyXTI=

> <s_epik_cmdline>
J2VwaWtfcHl0aG9uJywgJy1waCcsICc3LjAnLCAnLXRuJywgJzgnLCAnLW1hJywgJzIwMCcsICctbWV0YWxfYmluZGluZycsICctaW1hZScsICc8aW5maWxlLm1hZT4nLCAnLW9tYWUnLCAnPG91dGZpbGUubWFlPic=

> <r_lp_tautomer_probability>
1

> <r_epik_Ionization_Penalty>
4.53904e-07

> <r_epik_Ionization_Penalty_Charging>
0

> <r_epik_Ionization_Penalty_Neutral>
4.53904e-07

> <r_epik_State_Penalty>
-0

> <r_epik_Charging_Adjusted_Penalty>
0

> <i_epik_Tot_Q>
0

> <i_epik_Tot_abs_Q>
0

> <r_epik_Metal_State_Penalty>
-0

> <b_epik_Metal_Only>
0

> <s_lp_Force_Field>
OPLS_2005

> <r_lp_Energy>
25.0233

> <b_lp_Chiralities_Consistent>
1

> <s_lp_Variant>
AV-unprocessed.smi:1857-1

> <Gold.Version>
5.8.1

> <Gold.Id.Protein>
6NUR|6NUR_protein|mol2

> <Gold.PLP.Fitness>
43.3991

> <Gold.PLP.PLP>
-36.7800

> <Gold.PLP.part.hbond>
-4.0000

> <Gold.PLP.part.metal>
0.0000

> <Gold.PLP.part.buried>
-8.1243

> <Gold.PLP.part.nonpolar>
-26.7086

> <Gold.PLP.part.repulsive>
1.6537

> <Gold.PLP.ligand.clash>
0.0000

> <Gold.PLP.ligand.torsion>
0.6701

> <Gold.PLP.Chemscore.Hbond>
2.6160

> <Gold.PLP.Chemscore.CHOScore>
0.0000

> <Gold.PLP.Chemscore.Metal>
0.0000

> <Gold.Chemscore.Hbonds>
donor molecule, donor type, donor heavy atom, donor atom, acceptor molecule, acceptor atom, score
      P1  H  7989  7998       L1     8  0.48
      P1  H  7997  8010       L1    12  0.81
      P1  H  8011  8017       L1     7  0.93

> <Gold.PLP.Chemscore.Internal.Correction>
0.1113

> <Gold.Rescore>
     Score         DG    S(hbond)    S(metal)    S(lipo)     H(rot)  DE(clash)    DE(int)     intcor
     18.36     -19.11       2.16        0.00      88.73       1.55       0.31       0.44       ----

> <Gold.Chemscore.Fitness>
18.3556

> <Gold.Chemscore.DG>
-19.1117

> <Gold.Chemscore.ZeroCoef>
-5.4800

> <Gold.Chemscore.Hbond>
2.1628

> <Gold.Chemscore.Metal>
0.0000

> <Gold.Chemscore.Lipo>
88.7278

> <Gold.Chemscore.Internal_Hbond>
0.0000

> <Gold.Chemscore.DEClash>
0.3114

> <Gold.Chemscore.DEInternal>
0.4446

> <Gold.Chemscore.Rot>
1.5520

> <Gold.Chemscore.Internal.Correction>
   9.000000E+99

> <Gold.Chemscore.Hbonds>
donor molecule, donor type, donor heavy atom, donor atom, acceptor molecule, acceptor atom, score
      P1  H  7989  7998       L1     8  0.03
      P1  H  7997  8010       L1    12  0.80
      P1  H  8011  8017       L1     7  0.45

> <Gold.Chemscore.Hbond.Weighted>
-7.2236

> <Gold.Chemscore.Metal.Weighted>
-0.0000

> <Gold.Chemscore.Lipo.Weighted>
-10.3812

> <Gold.Chemscore.Internal_Hbond.Weighted>
0.0000

> <Gold.Chemscore.DEClash.Weighted>
0.3114

> <Gold.Chemscore.DEInternal.Weighted>
0.4446

> <Gold.Chemscore.Rot.Weighted>
3.9731

> <Gold.Chemscore.Internal.Correction.Weighted>
   9.000000E+99

> <Gold.Protein.RotatedTorsions>
[ 6907 6896 6895 6894 ] final  163.77 input  -60.11 | X-H torsion
[ 7974 7965 7964 7962 ] final   96.17 input  175.53 | X-H torsion
[ 8008 7997 7996 7995 ] final   54.85 input   59.86 | X-H torsion
[ 10167 10162 10161 10158 ] final  -93.64 input  -65.29 | X-H torsion
[ 10718 10713 10712 10709 ] final   30.42 input   66.30 | X-H torsion
[ 10763 10752 10751 10750 ] final  116.19 input  -60.55 | X-H torsion
[ 11005 11000 10999 10996 ] final -109.94 input  -57.11 | X-H torsion

> <Gold.Protein.ActiveResidues>
 VAL166  LYS551  ARG553  GLY616  TRP617  ASP618  TYR619  PRO620  LYS621  CYS622 
 ASP623  PHE694  ASN695  SER759  ASP760  ASP761  ALA762  ILE779  LEU786  VAL792 
 PHE793  MET794  SER795  GLU796  ALA797  LYS798  CYS799  TRP800  GLU811  SER814 

> <Gold.Protein.RotatedAtoms>
  151.9201  133.3583  159.3893 H   0  0  0  0  0  0  0  0  0  0  0  0  # atno 6907 bound_to 6896
  150.7039  134.4643  159.5405 H   0  0  0  0  0  0  0  0  0  0  0  0  # atno 6908 bound_to 6896
  152.2265  134.8363  160.0530 H   0  0  0  0  0  0  0  0  0  0  0  0  # atno 6909 bound_to 6896
  145.4424  139.2300  143.3084 H   0  0  0  0  0  0  0  0  0  0  0  0  # atno 7974 bound_to 7965
  155.4914  140.3471  155.4355 H   0  0  0  0  0  0  0  0  0  0  0  0  # atno 8008 bound_to 7997
  156.0974  140.1426  156.9541 H   0  0  0  0  0  0  0  0  0  0  0  0  # atno 8009 bound_to 7997
  154.4672  140.0913  156.7029 H   0  0  0  0  0  0  0  0  0  0  0  0  # atno 8010 bound_to 7997
  140.3226  143.3040  152.0029 H   0  0  0  0  0  0  0  0  0  0  0  0  # atno 10167 bound_to 10162
  157.2594  130.7153  149.6446 H   0  0  0  0  0  0  0  0  0  0  0  0  # atno 10718 bound_to 10713
  153.5335  135.3573  155.2686 H   0  0  0  0  0  0  0  0  0  0  0  0  # atno 10763 bound_to 10752
  154.8724  135.4074  154.3124 H   0  0  0  0  0  0  0  0  0  0  0  0  # atno 10764 bound_to 10752
  153.3817  135.7068  153.6628 H   0  0  0  0  0  0  0  0  0  0  0  0  # atno 10765 bound_to 10752
  141.0820  133.9204  157.2269 H   0  0  0  0  0  0  0  0  0  0  0  0  # atno 11005 bound_to 11000
  146.2549  140.5174  142.8878 LP  0  0  0  0  0  0  0  0  0  0  0  0  # atno 17320 bound_to 7965
  144.8113  140.6390  143.6413 LP  0  0  0  0  0  0  0  0  0  0  0  0  # atno 17321 bound_to 7965
  139.4871  144.6299  151.7091 LP  0  0  0  0  0  0  0  0  0  0  0  0  # atno 17342 bound_to 10162
  140.5469  144.0488  150.6111 LP  0  0  0  0  0  0  0  0  0  0  0  0  # atno 17343 bound_to 10162
  155.9664  130.4402  150.5291 LP  0  0  0  0  0  0  0  0  0  0  0  0  # atno 17370 bound_to 10713
  157.3192  131.0678  151.1944 LP  0  0  0  0  0  0  0  0  0  0  0  0  # atno 17371 bound_to 10713
  139.9634  135.0148  156.9322 LP  0  0  0  0  0  0  0  0  0  0  0  0  # atno 17394 bound_to 11000
  140.5448  134.0684  155.7352 LP  0  0  0  0  0  0  0  0  0  0  0  0  # atno 17395 bound_to 11000

$$$$
