AV-unprocessed.smi:162|AV-procd|sdf|1379|dock5
  -GOLD-   2262019103D 1   1.00000     0.00000
 Structure written by MMmdl.
 54 57  0  0  0  0  0  0  0  0  1 V2000
  152.1666  138.9872  155.9931 C   0  0  0  0  0  0  0  0  0  0  0  0
  152.7054  139.5044  157.1968 O   0  0  0  0  0  0  0  0  0  0  0  0
  151.7333  139.6193  158.2222 C   0  0  0  0  0  0  0  0  0  0  0  0
  151.4145  141.1077  158.4444 C   0  0  1  0  0  0  0  0  0  0  0  0
  152.5074  141.8659  159.1957 C   0  0  0  0  0  0  0  0  0  0  0  0
  152.2651  143.3313  158.8167 C   0  0  2  0  0  0  0  0  0  0  0  0
  151.5702  143.9792  159.8736 O   0  0  0  0  0  0  0  0  0  0  0  0
  152.3161  144.0591  161.0777 C   0  0  0  0  0  0  0  0  0  0  0  0
  151.3935  143.2634  157.5473 C   0  0  0  0  0  0  0  0  0  0  0  0
  151.2753  141.8538  157.2019 N   0  0  0  0  0  0  0  0  0  0  0  0
  150.2063  141.5507  156.4334 C   0  0  0  0  0  0  0  0  0  0  0  0
  150.4643  141.0361  155.2065 N   0  0  0  0  0  0  0  0  0  0  0  0
  149.4556  140.7031  154.3955 C   0  0  0  0  0  0  0  0  0  0  0  0
  148.1423  140.8009  154.6126 N   0  0  0  0  0  0  0  0  0  0  0  0
  147.8805  141.3215  155.8460 C   0  0  0  0  0  0  0  0  0  0  0  0
  148.8444  141.7233  156.8129 C   0  0  0  0  0  0  0  0  0  0  0  0
  148.2029  142.2099  157.9459 N   0  0  0  0  0  0  0  0  0  0  0  0
  146.9331  142.0947  157.6677 C   0  0  0  0  0  0  0  0  0  0  0  0
  146.6495  141.5632  156.4300 N   0  0  0  0  0  0  0  0  0  0  0  0
  145.3301  141.3187  155.8678 C   0  0  0  0  0  0  0  0  0  0  0  0
  144.6378  142.5917  155.3212 C   0  0  0  0  0  0  0  0  0  0  0  0
  143.4132  142.1931  154.7289 O   0  0  0  0  0  0  0  0  0  0  0  0
  144.3256  143.5712  156.4704 C   0  0  0  0  0  0  0  0  0  0  0  0
  143.7890  144.9186  155.9549 C   0  0  0  0  0  0  0  0  0  0  0  0
  144.7069  145.4856  155.0281 O   0  0  0  0  0  0  0  0  0  0  0  0
  144.8842  144.6827  153.8673 C   0  0  0  0  0  0  0  0  0  0  0  0
  145.4839  143.3186  154.2524 C   0  0  0  0  0  0  0  0  0  0  0  0
  150.4883  141.1891  159.0139 H   0  0  0  0  0  0  0  0  0  0  0  0
  153.2207  143.8233  158.6269 H   0  0  0  0  0  0  0  0  0  0  0  0
  152.9542  138.9104  155.2438 H   0  0  0  0  0  0  0  0  0  0  0  0
  151.3884  139.6410  155.5973 H   0  0  0  0  0  0  0  0  0  0  0  0
  151.7460  137.9920  156.1432 H   0  0  0  0  0  0  0  0  0  0  0  0
  150.8282  139.0725  157.9524 H   0  0  0  0  0  0  0  0  0  0  0  0
  152.1241  139.1737  159.1384 H   0  0  0  0  0  0  0  0  0  0  0  0
  152.4834  141.6890  160.2716 H   0  0  0  0  0  0  0  0  0  0  0  0
  153.4887  141.5573  158.8322 H   0  0  0  0  0  0  0  0  0  0  0  0
  151.7210  144.5597  161.8414 H   0  0  0  0  0  0  0  0  0  0  0  0
  153.2368  144.6284  160.9459 H   0  0  0  0  0  0  0  0  0  0  0  0
  152.5701  143.0658  161.4495 H   0  0  0  0  0  0  0  0  0  0  0  0
  150.4133  143.7095  157.7204 H   0  0  0  0  0  0  0  0  0  0  0  0
  151.8622  143.8063  156.7259 H   0  0  0  0  0  0  0  0  0  0  0  0
  149.7417  140.2979  153.4361 H   0  0  0  0  0  0  0  0  0  0  0  0
  146.1624  142.3901  158.3648 H   0  0  0  0  0  0  0  0  0  0  0  0
  145.4278  140.5706  155.0797 H   0  0  0  0  0  0  0  0  0  0  0  0
  144.7126  140.8617  156.6425 H   0  0  0  0  0  0  0  0  0  0  0  0
  143.5969  141.5419  154.0690 H   0  0  0  0  0  0  0  0  0  0  0  0
  143.6154  143.1278  157.1697 H   0  0  0  0  0  0  0  0  0  0  0  0
  145.2363  143.7602  157.0405 H   0  0  0  0  0  0  0  0  0  0  0  0
  142.8092  144.8011  155.4897 H   0  0  0  0  0  0  0  0  0  0  0  0
  143.6607  145.6103  156.7876 H   0  0  0  0  0  0  0  0  0  0  0  0
  143.9332  144.5614  153.3465 H   0  0  0  0  0  0  0  0  0  0  0  0
  145.5538  145.2020  153.1814 H   0  0  0  0  0  0  0  0  0  0  0  0
  146.4901  143.4809  154.6412 H   0  0  0  0  0  0  0  0  0  0  0  0
  145.5960  142.7036  153.3587 H   0  0  0  0  0  0  0  0  0  0  0  0
  1  2  1  0  0  0  0
  1 30  1  0  0  0  0
  1 31  1  0  0  0  0
  1 32  1  0  0  0  0
  2  3  1  0  0  0  0
  3  4  1  0  0  0  0
  3 33  1  0  0  0  0
  3 34  1  0  0  0  0
  4 28  1  0  0  0  0
  4 10  1  0  0  0  0
  4  5  1  0  0  0  0
  5  6  1  0  0  0  0
  5 35  1  0  0  0  0
  5 36  1  0  0  0  0
  6 29  1  0  0  0  0
  6  7  1  0  0  0  0
  6  9  1  0  0  0  0
  7  8  1  0  0  0  0
  8 37  1  0  0  0  0
  8 38  1  0  0  0  0
  8 39  1  0  0  0  0
  9 10  1  0  0  0  0
  9 40  1  0  0  0  0
  9 41  1  0  0  0  0
 10 11  1  0  0  0  0
 11 16  1  0  0  0  0
 11 12  2  0  0  0  0
 12 13  1  0  0  0  0
 13 14  2  0  0  0  0
 13 42  1  0  0  0  0
 14 15  1  0  0  0  0
 15 19  1  0  0  0  0
 15 16  2  0  0  0  0
 16 17  1  0  0  0  0
 17 18  2  0  0  0  0
 18 19  1  0  0  0  0
 18 43  1  0  0  0  0
 19 20  1  0  0  0  0
 20 21  1  0  0  0  0
 20 44  1  0  0  0  0
 20 45  1  0  0  0  0
 21 27  1  0  0  0  0
 21 22  1  0  0  0  0
 21 23  1  0  0  0  0
 22 46  1  0  0  0  0
 23 24  1  0  0  0  0
 23 47  1  0  0  0  0
 23 48  1  0  0  0  0
 24 25  1  0  0  0  0
 24 49  1  0  0  0  0
 24 50  1  0  0  0  0
 25 26  1  0  0  0  0
 26 27  1  0  0  0  0
 26 51  1  0  0  0  0
 26 52  1  0  0  0  0
 27 53  1  0  0  0  0
 27 54  1  0  0  0  0
M  END
> <s_m_source_file>
AV-unprocessed.smi

> <i_m_source_file_index>
162

> <i_lp_mmshare_version>
43012

> <i_f3d_flags>
0

> <s_epik_input>
W0NIM11PW0NIMl1bQ0BASF0xW0NIMl1bQ0BASF0oT1tDSDNdKVtDSDJdTjFjKG5bY0hdbjIpYyhjMjMpbltjSF1uM1tDSDJdQzQoW09IXSlbQ0gyXVtDSDJdT1tDSDJdW0NIMl00

> <s_epik_cmdline>
J2VwaWtfcHl0aG9uJywgJy1waCcsICc3LjAnLCAnLXRuJywgJzgnLCAnLW1hJywgJzIwMCcsICctbWV0YWxfYmluZGluZycsICctaW1hZScsICc8aW5maWxlLm1hZT4nLCAnLW9tYWUnLCAnPG91dGZpbGUubWFlPic=

> <r_lp_tautomer_probability>
1

> <r_epik_Ionization_Penalty>
0.00660334

> <r_epik_Ionization_Penalty_Charging>
0

> <r_epik_Ionization_Penalty_Neutral>
0.00660334

> <r_epik_State_Penalty>
0.00469459

> <r_epik_Charging_Adjusted_Penalty>
0.00469459

> <i_epik_Tot_Q>
0

> <i_epik_Tot_abs_Q>
0

> <r_epik_Metal_State_Penalty>
-0

> <b_epik_Metal_Only>
0

> <s_lp_Force_Field>
OPLS_2005

> <r_lp_Energy>
43.1058

> <b_lp_Chiralities_Consistent>
1

> <s_lp_Variant>
AV-unprocessed.smi:162-4

> <Gold.Version>
5.8.1

> <Gold.Id.Protein>
6NUR|6NUR_protein|mol2

> <Gold.PLP.Fitness>
48.0508

> <Gold.PLP.PLP>
-39.6630

> <Gold.PLP.part.hbond>
-4.0000

> <Gold.PLP.part.metal>
0.0000

> <Gold.PLP.part.buried>
-4.0385

> <Gold.PLP.part.nonpolar>
-32.0658

> <Gold.PLP.part.repulsive>
0.5064

> <Gold.PLP.ligand.clash>
0.0000

> <Gold.PLP.ligand.torsion>
0.7512

> <Gold.PLP.Chemscore.Hbond>
2.2191

> <Gold.PLP.Chemscore.CHOScore>
1.0000

> <Gold.PLP.Chemscore.Metal>
0.0000

> <Gold.Chemscore.Hbonds>
donor molecule, donor type, donor heavy atom, donor atom, acceptor molecule, acceptor atom, score
      L1  H    22    46       P1 10175  0.70
      P1  H  7989  7998       L1    12  0.16
      P1  H  7997  8009       L1     2  0.90
      L1  C    13    42       P1  7957  1.00

> <Gold.PLP.Chemscore.Internal.Correction>
0.2327

> <Gold.Rescore>
     Score         DG    S(hbond)    S(metal)    S(lipo)     H(rot)  DE(clash)    DE(int)     intcor
     12.45     -14.92       2.09        0.00      83.56       2.86       0.34       2.13       ----

> <Gold.Chemscore.Fitness>
12.4477

> <Gold.Chemscore.DG>
-14.9183

> <Gold.Chemscore.ZeroCoef>
-5.4800

> <Gold.Chemscore.Hbond>
2.0939

> <Gold.Chemscore.Metal>
0.0000

> <Gold.Chemscore.Lipo>
83.5638

> <Gold.Chemscore.Internal_Hbond>
0.0000

> <Gold.Chemscore.DEClash>
0.3420

> <Gold.Chemscore.DEInternal>
2.1285

> <Gold.Chemscore.Rot>
2.8642

> <Gold.Chemscore.Internal.Correction>
   9.000000E+99

> <Gold.Chemscore.Hbonds>
donor molecule, donor type, donor heavy atom, donor atom, acceptor molecule, acceptor atom, score
      L1  H    22    46       P1 10175  0.07
      P1  H  7997  8009       L1     2  0.18

> <Gold.Chemscore.Hbond.Weighted>
-6.9937

> <Gold.Chemscore.Metal.Weighted>
-0.0000

> <Gold.Chemscore.Lipo.Weighted>
-9.7770

> <Gold.Chemscore.Internal_Hbond.Weighted>
0.0000

> <Gold.Chemscore.DEClash.Weighted>
0.3420

> <Gold.Chemscore.DEInternal.Weighted>
2.1285

> <Gold.Chemscore.Rot.Weighted>
7.3324

> <Gold.Chemscore.Internal.Correction.Weighted>
   9.000000E+99

> <Gold.Protein.RotatedTorsions>
[ 6907 6896 6895 6894 ] final   41.09 input  -60.11 | X-H torsion
[ 7974 7965 7964 7962 ] final -134.59 input  175.53 | X-H torsion
[ 8008 7997 7996 7995 ] final -171.15 input   59.86 | X-H torsion
[ 10167 10162 10161 10158 ] final   55.23 input  -65.29 | X-H torsion
[ 10718 10713 10712 10709 ] final  -55.06 input   66.30 | X-H torsion
[ 10763 10752 10751 10750 ] final  -95.51 input  -60.55 | X-H torsion
[ 11005 11000 10999 10996 ] final   44.04 input  -57.11 | X-H torsion

> <Gold.Protein.ActiveResidues>
 VAL166  LYS551  ARG553  GLY616  TRP617  ASP618  TYR619  PRO620  LYS621  CYS622 
 ASP623  PHE694  ASN695  SER759  ASP760  ASP761  ALA762  ILE779  LEU786  VAL792 
 PHE793  MET794  SER795  GLU796  ALA797  LYS798  CYS799  TRP800  GLU811  SER814 

> <Gold.Protein.RotatedAtoms>
  152.1908  134.8674  160.0517 H   0  0  0  0  0  0  0  0  0  0  0  0  # atno 6907 bound_to 6896
  151.9563  133.3676  159.4027 H   0  0  0  0  0  0  0  0  0  0  0  0  # atno 6908 bound_to 6896
  150.6935  134.4211  159.5249 H   0  0  0  0  0  0  0  0  0  0  0  0  # atno 6909 bound_to 6896
  144.9089  140.6869  143.5038 H   0  0  0  0  0  0  0  0  0  0  0  0  # atno 7974 bound_to 7965
  155.9278  140.1085  157.1157 H   0  0  0  0  0  0  0  0  0  0  0  0  # atno 8008 bound_to 7997
  154.4065  140.1243  156.4828 H   0  0  0  0  0  0  0  0  0  0  0  0  # atno 8009 bound_to 7997
  155.7118  140.3471  155.4979 H   0  0  0  0  0  0  0  0  0  0  0  0  # atno 8010 bound_to 7997
  140.2217  144.3782  150.6448 H   0  0  0  0  0  0  0  0  0  0  0  0  # atno 10167 bound_to 10162
  156.1399  130.4155  150.0120 H   0  0  0  0  0  0  0  0  0  0  0  0  # atno 10718 bound_to 10713
  154.7155  135.5118  153.8731 H   0  0  0  0  0  0  0  0  0  0  0  0  # atno 10763 bound_to 10752
  153.0816  135.6633  154.0041 H   0  0  0  0  0  0  0  0  0  0  0  0  # atno 10764 bound_to 10752
  153.9875  135.3023  155.3394 H   0  0  0  0  0  0  0  0  0  0  0  0  # atno 10765 bound_to 10752
  140.1589  134.4367  155.8331 H   0  0  0  0  0  0  0  0  0  0  0  0  # atno 11005 bound_to 11000
  145.3489  139.1712  143.4445 LP  0  0  0  0  0  0  0  0  0  0  0  0  # atno 17320 bound_to 7965
  146.3148  140.3538  142.8658 LP  0  0  0  0  0  0  0  0  0  0  0  0  # atno 17321 bound_to 7965
  140.6250  143.2180  151.6615 LP  0  0  0  0  0  0  0  0  0  0  0  0  # atno 17342 bound_to 10162
  139.5142  144.3419  152.0733 LP  0  0  0  0  0  0  0  0  0  0  0  0  # atno 17343 bound_to 10162
  156.8009  130.9290  151.3646 LP  0  0  0  0  0  0  0  0  0  0  0  0  # atno 17370 bound_to 10713
  157.6566  130.8930  149.9743 LP  0  0  0  0  0  0  0  0  0  0  0  0  # atno 17371 bound_to 10713
  141.2207  133.6904  156.7558 LP  0  0  0  0  0  0  0  0  0  0  0  0  # atno 17394 bound_to 11000
  140.2514  134.8538  157.3671 LP  0  0  0  0  0  0  0  0  0  0  0  0  # atno 17395 bound_to 11000

$$$$
