AV-unprocessed.smi:2209|AV-procd|sdf|8948|dock3
  -GOLD-   2272012163D 1   1.00000     0.00000
 Structure written by MMmdl.
 26 27  0  0  0  0  0  0  0  0  2 V2000
  152.9087  138.3614  154.9705 C   0  0  0  0  0  0  0  0  0  0  0  0
  152.0913  139.4856  155.5097 C   0  0  0  0  0  0  0  0  0  0  0  0
  151.0608  139.9782  154.8334 N   0  0  0  0  0  0  0  0  0  0  0  0
  150.5789  140.9940  155.6715 O   0  0  0  0  0  0  0  0  0  0  0  0
  151.3848  140.9891  156.7604 C   0  0  0  0  0  0  0  0  0  0  0  0
  151.1282  141.9764  157.8557 C   0  0  1  0  0  0  0  0  0  0  0  0
  152.4297  142.6152  158.3762 C   0  0  0  0  0  0  0  0  0  0  0  0
  152.1242  143.6312  159.4876 C   0  0  0  0  0  0  0  0  0  0  0  0
  151.0988  144.6742  159.0132 C   0  0  0  0  0  0  0  0  0  0  0  0
  149.8645  144.0137  158.5354 N   0  3  0  0  0  0  0  0  0  0  0  0
  150.1090  143.0548  157.4348 C   0  0  0  0  0  0  0  0  0  0  0  0
  152.3478  140.0708  156.7119 N   0  0  0  0  0  0  0  0  0  0  0  0
  152.5350  138.0365  153.9988 H   0  0  0  0  0  0  0  0  0  0  0  0
  152.8766  137.5119  155.6530 H   0  0  0  0  0  0  0  0  0  0  0  0
  153.9468  138.6732  154.8533 H   0  0  0  0  0  0  0  0  0  0  0  0
  150.6872  141.4196  158.6844 H   0  0  0  0  0  0  0  0  0  0  0  0
  153.1059  141.8456  158.7503 H   0  0  0  0  0  0  0  0  0  0  0  0
  152.9504  143.1172  157.5595 H   0  0  0  0  0  0  0  0  0  0  0  0
  151.7375  143.1103  160.3646 H   0  0  0  0  0  0  0  0  0  0  0  0
  153.0430  144.1269  159.8025 H   0  0  0  0  0  0  0  0  0  0  0  0
  150.8462  145.3538  159.8275 H   0  0  0  0  0  0  0  0  0  0  0  0
  151.5176  145.2811  158.2092 H   0  0  0  0  0  0  0  0  0  0  0  0
  149.4474  143.5164  159.3095 H   0  0  0  0  0  0  0  0  0  0  0  0
  150.4685  143.6020  156.5619 H   0  0  0  0  0  0  0  0  0  0  0  0
  149.1617  142.5939  157.1534 H   0  0  0  0  0  0  0  0  0  0  0  0
  149.2171  144.7205  158.2165 H   0  0  0  0  0  0  0  0  0  0  0  0
  1  2  1  0  0  0  0
  1 13  1  0  0  0  0
  1 14  1  0  0  0  0
  1 15  1  0  0  0  0
  2 12  1  0  0  0  0
  2  3  2  0  0  0  0
  3  4  1  0  0  0  0
  4  5  1  0  0  0  0
  5  6  1  0  0  0  0
  5 12  2  0  0  0  0
  6 11  1  0  0  0  0
  6  7  1  0  0  0  0
  6 16  1  0  0  0  0
  7  8  1  0  0  0  0
  7 17  1  0  0  0  0
  7 18  1  0  0  0  0
  8  9  1  0  0  0  0
  8 19  1  0  0  0  0
  8 20  1  0  0  0  0
  9 10  1  0  0  0  0
  9 21  1  0  0  0  0
  9 22  1  0  0  0  0
 10 11  1  0  0  0  0
 10 23  1  0  0  0  0
 10 26  1  0  0  0  0
 11 24  1  0  0  0  0
 11 25  1  0  0  0  0
M  CHG  1  10   1
M  END
> <s_m_source_file>
AV-unprocessed.smi

> <i_m_source_file_index>
2209

> <i_lp_mmshare_version>
43012

> <i_f3d_flags>
0

> <s_epik_input>
W0NIM11jMW5vYyhuMSlbQ0BASF0yW0NIMl1bQ0gyXVtDSDJdW05IXVtDSDJdMg==

> <s_epik_cmdline>
J2VwaWtfcHl0aG9uJywgJy1waCcsICc3LjAnLCAnLXRuJywgJzgnLCAnLW1hJywgJzIwMCcsICctbWV0YWxfYmluZGluZycsICctaW1hZScsICc8aW5maWxlLm1hZT4nLCAnLW9tYWUnLCAnPG91dGZpbGUubWFlPic=

> <r_lp_tautomer_probability>
1

> <r_epik_Ionization_Penalty>
0.000532935

> <r_epik_Ionization_Penalty_Charging>
0.000532935

> <r_epik_Ionization_Penalty_Neutral>
4.97553e-13

> <r_epik_State_Penalty>
0.000332992

> <r_epik_Charging_Adjusted_Penalty>
0.000865928

> <i_epik_Tot_Q>
1

> <i_epik_Tot_abs_Q>
1

> <r_epik_Metal_State_Penalty>
-0

> <b_epik_Metal_Only>
0

> <s_lp_Force_Field>
OPLS_2005

> <r_lp_Energy>
10.4199

> <b_lp_Chiralities_Consistent>
1

> <s_lp_Variant>
AV-unprocessed.smi:2209-2

> <Gold.Version>
5.8.1

> <Gold.Id.Protein>
6NUR|6NUR_protein|mol2

> <Gold.PLP.Fitness>
33.8406

> <Gold.PLP.PLP>
-22.4846

> <Gold.PLP.part.hbond>
-4.3713

> <Gold.PLP.part.metal>
0.0000

> <Gold.PLP.part.buried>
-0.0664

> <Gold.PLP.part.nonpolar>
-19.0382

> <Gold.PLP.part.repulsive>
0.2093

> <Gold.PLP.ligand.clash>
0.0000

> <Gold.PLP.ligand.torsion>
0.3387

> <Gold.PLP.Chemscore.Hbond>
4.0000

> <Gold.PLP.Chemscore.CHOScore>
0.0000

> <Gold.PLP.Chemscore.Metal>
0.0000

> <Gold.Chemscore.Hbonds>
donor molecule, donor type, donor heavy atom, donor atom, acceptor molecule, acceptor atom, score
      L1  H    10    26       P1  8029  2.00
      P1  H  7989  7998       L1     3  1.00
      P1  H  7997  8010       L1    12  0.95

> <Gold.PLP.Chemscore.Internal.Correction>
0.0335

> <Gold.Rescore>
     Score         DG    S(hbond)    S(metal)    S(lipo)     H(rot)  DE(clash)    DE(int)     intcor
     12.64     -14.18       1.38        0.00      57.00       1.00       1.09       0.45       ----

> <Gold.Chemscore.Fitness>
12.6410

> <Gold.Chemscore.DG>
-14.1840

> <Gold.Chemscore.ZeroCoef>
-5.4800

> <Gold.Chemscore.Hbond>
1.3758

> <Gold.Chemscore.Metal>
0.0000

> <Gold.Chemscore.Lipo>
56.9979

> <Gold.Chemscore.Internal_Hbond>
0.0000

> <Gold.Chemscore.DEClash>
1.0924

> <Gold.Chemscore.DEInternal>
0.4507

> <Gold.Chemscore.Rot>
1.0000

> <Gold.Chemscore.Internal.Correction>
   9.000000E+99

> <Gold.Chemscore.Hbonds>
donor molecule, donor type, donor heavy atom, donor atom, acceptor molecule, acceptor atom, score
      L1  H    10    26       P1  8029  0.32
      P1  H  7989  7998       L1     3  0.24
      P1  H  7997  8010       L1    12  0.20

> <Gold.Chemscore.Hbond.Weighted>
-4.5953

> <Gold.Chemscore.Metal.Weighted>
-0.0000

> <Gold.Chemscore.Lipo.Weighted>
-6.6688

> <Gold.Chemscore.Internal_Hbond.Weighted>
0.0000

> <Gold.Chemscore.DEClash.Weighted>
1.0924

> <Gold.Chemscore.DEInternal.Weighted>
0.4507

> <Gold.Chemscore.Rot.Weighted>
2.5600

> <Gold.Chemscore.Internal.Correction.Weighted>
   9.000000E+99

> <Gold.Protein.RotatedTorsions>
[ 6907 6896 6895 6894 ] final   60.15 input  -60.11 | X-H torsion
[ 7974 7965 7964 7962 ] final   64.63 input  175.53 | X-H torsion
[ 8008 7997 7996 7995 ] final   58.77 input   59.86 | X-H torsion
[ 10167 10162 10161 10158 ] final  -39.04 input  -65.29 | X-H torsion
[ 10718 10713 10712 10709 ] final   30.76 input   66.30 | X-H torsion
[ 10763 10752 10751 10750 ] final  -37.90 input  -60.55 | X-H torsion
[ 11005 11000 10999 10996 ] final  -86.30 input  -57.11 | X-H torsion

> <Gold.Protein.ActiveResidues>
 VAL166  LYS551  ARG553  GLY616  TRP617  ASP618  TYR619  PRO620  LYS621  CYS622 
 ASP623  PHE694  ASN695  SER759  ASP760  ASP761  ALA762  ILE779  LEU786  VAL792 
 PHE793  MET794  SER795  GLU796  ALA797  LYS798  CYS799  TRP800  GLU811  SER814 

> <Gold.Protein.RotatedAtoms>
  152.3977  134.6337  160.0081 H   0  0  0  0  0  0  0  0  0  0  0  0  # atno 6907 bound_to 6896
  151.6552  133.3313  159.3169 H   0  0  0  0  0  0  0  0  0  0  0  0  # atno 6908 bound_to 6896
  150.7882  134.6928  159.6551 H   0  0  0  0  0  0  0  0  0  0  0  0  # atno 6909 bound_to 6896
  145.8479  139.3236  143.0892 H   0  0  0  0  0  0  0  0  0  0  0  0  # atno 7974 bound_to 7965
  155.5554  140.3487  155.4478 H   0  0  0  0  0  0  0  0  0  0  0  0  # atno 8008 bound_to 7997
  156.0553  140.1327  157.0030 H   0  0  0  0  0  0  0  0  0  0  0  0  # atno 8009 bound_to 7997
  154.4453  140.0996  156.6421 H   0  0  0  0  0  0  0  0  0  0  0  0  # atno 8010 bound_to 7997
  140.7075  143.3239  151.2727 H   0  0  0  0  0  0  0  0  0  0  0  0  # atno 10167 bound_to 10162
  157.2638  130.7174  149.6468 H   0  0  0  0  0  0  0  0  0  0  0  0  # atno 10718 bound_to 10713
  153.9040  135.6799  153.4754 H   0  0  0  0  0  0  0  0  0  0  0  0  # atno 10763 bound_to 10752
  153.1114  135.4781  154.9039 H   0  0  0  0  0  0  0  0  0  0  0  0  # atno 10764 bound_to 10752
  154.7561  135.3197  154.8422 H   0  0  0  0  0  0  0  0  0  0  0  0  # atno 10765 bound_to 10752
  141.1631  133.7447  156.9141 H   0  0  0  0  0  0  0  0  0  0  0  0  # atno 11005 bound_to 11000
  145.9391  140.8993  143.0317 LP  0  0  0  0  0  0  0  0  0  0  0  0  # atno 17320 bound_to 7965
  144.6730  140.1523  143.7429 LP  0  0  0  0  0  0  0  0  0  0  0  0  # atno 17321 bound_to 7965
  139.6701  144.0035  152.2747 LP  0  0  0  0  0  0  0  0  0  0  0  0  # atno 17342 bound_to 10162
  139.9631  144.6544  150.8060 LP  0  0  0  0  0  0  0  0  0  0  0  0  # atno 17343 bound_to 10162
  155.9663  130.4389  150.5237 LP  0  0  0  0  0  0  0  0  0  0  0  0  # atno 17370 bound_to 10713
  157.3147  131.0670  151.1976 LP  0  0  0  0  0  0  0  0  0  0  0  0  # atno 17371 bound_to 10713
  140.1497  134.9238  157.2576 LP  0  0  0  0  0  0  0  0  0  0  0  0  # atno 17394 bound_to 11000
  140.2738  134.3429  155.7365 LP  0  0  0  0  0  0  0  0  0  0  0  0  # atno 17395 bound_to 11000

$$$$
