AV-unprocessed.smi:2104|AV-procd|sdf|8586|dock8
  -GOLD-   2272011313D 1   1.00000     0.00000
 Structure written by MMmdl.
 43 44  0  0  0  0  0  0  0  0  1 V2000
  145.0442  133.4814  162.6412 C   0  0  0  0  0  0  0  0  0  0  0  0
  146.0944  134.1458  161.8189 C   0  0  0  0  0  0  0  0  0  0  0  0
  146.5531  135.4317  161.7575 C   0  0  0  0  0  0  0  0  0  0  0  0
  147.5578  135.3652  160.7555 C   0  0  0  0  0  0  0  0  0  0  0  0
  148.2918  136.5200  160.3832 N   0  0  0  0  0  0  0  0  0  0  0  0
  149.1828  136.6368  159.3840 C   0  0  0  0  0  0  0  0  0  0  0  0
  149.5085  135.7328  158.6137 O   0  0  0  0  0  0  0  0  0  0  0  0
  149.6894  137.8765  159.3262 N   0  0  0  0  0  0  0  0  0  0  0  0
  150.7063  138.3239  158.3801 C   0  0  0  0  0  0  0  0  0  0  0  0
  150.5883  139.8273  158.0914 C   0  0  0  0  0  0  0  0  0  0  0  0
  151.3274  140.5386  159.0737 O   0  0  0  0  0  0  0  0  0  0  0  0
  152.0073  141.6884  158.5859 C   0  0  1  0  0  0  0  0  0  0  0  0
  151.0480  142.5312  157.7195 C   0  0  0  0  0  0  0  0  0  0  0  0
  151.6939  143.8556  157.2878 C   0  0  0  0  0  0  0  0  0  0  0  0
  152.1765  144.6554  158.5056 C   0  0  0  0  0  0  0  0  0  0  0  0
  153.1411  143.8236  159.3639 C   0  0  0  0  0  0  0  0  0  0  0  0
  152.5074  142.4901  159.8088 C   0  0  2  0  0  0  0  0  0  0  0  0
  153.4981  141.6737  160.6560 C   0  0  0  0  0  0  0  0  0  0  0  0
  147.7004  134.1487  160.2523 N   0  0  0  0  0  0  0  0  0  0  0  0
  146.7628  133.3611  160.9307 O   0  0  0  0  0  0  0  0  0  0  0  0
  144.6591  134.1594  163.4029 H   0  0  0  0  0  0  0  0  0  0  0  0
  145.4452  132.6012  163.1441 H   0  0  0  0  0  0  0  0  0  0  0  0
  144.2086  133.1643  162.0168 H   0  0  0  0  0  0  0  0  0  0  0  0
  146.2204  136.2808  162.3361 H   0  0  0  0  0  0  0  0  0  0  0  0
  148.1221  137.3455  160.9381 H   0  0  0  0  0  0  0  0  0  0  0  0
  149.3676  138.5561  159.9999 H   0  0  0  0  0  0  0  0  0  0  0  0
  151.7003  138.0901  158.7647 H   0  0  0  0  0  0  0  0  0  0  0  0
  150.5898  137.7580  157.4556 H   0  0  0  0  0  0  0  0  0  0  0  0
  150.9643  140.0498  157.0917 H   0  0  0  0  0  0  0  0  0  0  0  0
  149.5400  140.1244  158.1173 H   0  0  0  0  0  0  0  0  0  0  0  0
  152.8744  141.3931  157.9916 H   0  0  0  0  0  0  0  0  0  0  0  0
  150.7437  141.9754  156.8328 H   0  0  0  0  0  0  0  0  0  0  0  0
  150.1363  142.7387  158.2811 H   0  0  0  0  0  0  0  0  0  0  0  0
  152.5357  143.6532  156.6243 H   0  0  0  0  0  0  0  0  0  0  0  0
  150.9810  144.4475  156.7127 H   0  0  0  0  0  0  0  0  0  0  0  0
  152.6667  145.5725  158.1776 H   0  0  0  0  0  0  0  0  0  0  0  0
  151.3197  144.9601  159.1079 H   0  0  0  0  0  0  0  0  0  0  0  0
  154.0520  143.6271  158.7966 H   0  0  0  0  0  0  0  0  0  0  0  0
  153.4417  144.4033  160.2375 H   0  0  0  0  0  0  0  0  0  0  0  0
  151.6464  142.7228  160.4374 H   0  0  0  0  0  0  0  0  0  0  0  0
  154.3765  141.3908  160.0753 H   0  0  0  0  0  0  0  0  0  0  0  0
  153.0406  140.7581  161.0321 H   0  0  0  0  0  0  0  0  0  0  0  0
  153.8400  142.2452  161.5192 H   0  0  0  0  0  0  0  0  0  0  0  0
  1  2  1  0  0  0  0
  1 21  1  0  0  0  0
  1 22  1  0  0  0  0
  1 23  1  0  0  0  0
  2 20  1  0  0  0  0
  2  3  2  0  0  0  0
  3  4  1  0  0  0  0
  3 24  1  0  0  0  0
  4  5  1  0  0  0  0
  4 19  2  0  0  0  0
  5  6  1  0  0  0  0
  5 25  1  0  0  0  0
  6  7  2  0  0  0  0
  6  8  1  0  0  0  0
  8  9  1  0  0  0  0
  8 26  1  0  0  0  0
  9 10  1  0  0  0  0
  9 27  1  0  0  0  0
  9 28  1  0  0  0  0
 10 11  1  0  0  0  0
 10 29  1  0  0  0  0
 10 30  1  0  0  0  0
 11 12  1  0  0  0  0
 12 17  1  0  0  0  0
 12 13  1  0  0  0  0
 12 31  1  0  0  0  0
 13 14  1  0  0  0  0
 13 32  1  0  0  0  0
 13 33  1  0  0  0  0
 14 15  1  0  0  0  0
 14 34  1  0  0  0  0
 14 35  1  0  0  0  0
 15 16  1  0  0  0  0
 15 36  1  0  0  0  0
 15 37  1  0  0  0  0
 16 17  1  0  0  0  0
 16 38  1  0  0  0  0
 16 39  1  0  0  0  0
 17 18  1  0  0  0  0
 17 40  1  0  0  0  0
 18 41  1  0  0  0  0
 18 42  1  0  0  0  0
 18 43  1  0  0  0  0
 19 20  1  0  0  0  0
M  END
> <s_m_source_file>
AV-unprocessed.smi

> <i_m_source_file_index>
2104

> <i_lp_mmshare_version>
43012

> <i_f3d_flags>
0

> <s_epik_input>
W0NIM11jMVtjSF1jKG5vMSlbTkhdQyg9TylbTkhdW0NIMl1bQ0gyXU9bQ0BASF0yW0NIMl1bQ0gyXVtDSDJdW0NIMl1bQ0BIXTJbQ0gzXQ==

> <s_epik_cmdline>
J2VwaWtfcHl0aG9uJywgJy1waCcsICc3LjAnLCAnLXRuJywgJzgnLCAnLW1hJywgJzIwMCcsICctbWV0YWxfYmluZGluZycsICctaW1hZScsICc8aW5maWxlLm1hZT4nLCAnLW9tYWUnLCAnPG91dGZpbGUubWFlPic=

> <r_lp_tautomer_probability>
1

> <r_epik_Ionization_Penalty>
2.94418e-05

> <r_epik_Ionization_Penalty_Charging>
0

> <r_epik_Ionization_Penalty_Neutral>
2.94418e-05

> <r_epik_State_Penalty>
-0

> <r_epik_Charging_Adjusted_Penalty>
0

> <i_epik_Tot_Q>
0

> <i_epik_Tot_abs_Q>
0

> <r_epik_Metal_State_Penalty>
0.0104148

> <b_epik_Metal_Only>
0

> <s_lp_Force_Field>
OPLS_2005

> <r_lp_Energy>
8.17473

> <b_lp_Chiralities_Consistent>
1

> <s_lp_Variant>
AV-unprocessed.smi:2104-4

> <Gold.Version>
5.8.1

> <Gold.Id.Protein>
6NUR|6NUR_protein|mol2

> <Gold.PLP.Fitness>
40.3286

> <Gold.PLP.PLP>
-38.6515

> <Gold.PLP.part.hbond>
-1.0000

> <Gold.PLP.part.metal>
0.0000

> <Gold.PLP.part.buried>
-5.7699

> <Gold.PLP.part.nonpolar>
-34.0097

> <Gold.PLP.part.repulsive>
1.3243

> <Gold.PLP.ligand.clash>
0.0000

> <Gold.PLP.ligand.torsion>
0.6770

> <Gold.PLP.Chemscore.Hbond>
1.0000

> <Gold.PLP.Chemscore.CHOScore>
0.0000

> <Gold.PLP.Chemscore.Metal>
0.0000

> <Gold.Chemscore.Hbonds>
donor molecule, donor type, donor heavy atom, donor atom, acceptor molecule, acceptor atom, score
      P1  H  6896  6908       L1     7  1.00

> <Gold.PLP.Chemscore.Internal.Correction>
0.0311

> <Gold.Rescore>
     Score         DG    S(hbond)    S(metal)    S(lipo)     H(rot)  DE(clash)    DE(int)     intcor
     14.12     -17.01       0.94        0.00     110.18       1.75       1.03       1.87       ----

> <Gold.Chemscore.Fitness>
14.1151

> <Gold.Chemscore.DG>
-17.0146

> <Gold.Chemscore.ZeroCoef>
-5.4800

> <Gold.Chemscore.Hbond>
0.9370

> <Gold.Chemscore.Metal>
0.0000

> <Gold.Chemscore.Lipo>
110.1817

> <Gold.Chemscore.Internal_Hbond>
0.0000

> <Gold.Chemscore.DEClash>
1.0298

> <Gold.Chemscore.DEInternal>
1.8698

> <Gold.Chemscore.Rot>
1.7524

> <Gold.Chemscore.Internal.Correction>
   9.000000E+99

> <Gold.Chemscore.Hbonds>
donor molecule, donor type, donor heavy atom, donor atom, acceptor molecule, acceptor atom, score
      P1  H  6896  6908       L1     7  0.73

> <Gold.Chemscore.Hbond.Weighted>
-3.1295

> <Gold.Chemscore.Metal.Weighted>
-0.0000

> <Gold.Chemscore.Lipo.Weighted>
-12.8913

> <Gold.Chemscore.Internal_Hbond.Weighted>
0.0000

> <Gold.Chemscore.DEClash.Weighted>
1.0298

> <Gold.Chemscore.DEInternal.Weighted>
1.8698

> <Gold.Chemscore.Rot.Weighted>
4.4861

> <Gold.Chemscore.Internal.Correction.Weighted>
   9.000000E+99

> <Gold.Protein.RotatedTorsions>
[ 6907 6896 6895 6894 ] final  162.24 input  -60.11 | X-H torsion
[ 7974 7965 7964 7962 ] final    8.57 input  175.53 | X-H torsion
[ 8008 7997 7996 7995 ] final   34.01 input   59.86 | X-H torsion
[ 10167 10162 10161 10158 ] final -126.35 input  -65.29 | X-H torsion
[ 10718 10713 10712 10709 ] final  -80.49 input   66.30 | X-H torsion
[ 10763 10752 10751 10750 ] final  -17.03 input  -60.55 | X-H torsion
[ 11005 11000 10999 10996 ] final  -97.19 input  -57.11 | X-H torsion

> <Gold.Protein.ActiveResidues>
 VAL166  LYS551  ARG553  GLY616  TRP617  ASP618  TYR619  PRO620  LYS621  CYS622 
 ASP623  PHE694  ASN695  SER759  ASP760  ASP761  ALA762  ILE779  LEU786  VAL792 
 PHE793  MET794  SER795  GLU796  ALA797  LYS798  CYS799  TRP800  GLU811  SER814 

> <Gold.Protein.RotatedAtoms>
  151.9435  133.3644  159.3973 H   0  0  0  0  0  0  0  0  0  0  0  0  # atno 6907 bound_to 6896
  150.6994  134.4415  159.5303 H   0  0  0  0  0  0  0  0  0  0  0  0  # atno 6908 bound_to 6896
  152.2076  134.8531  160.0552 H   0  0  0  0  0  0  0  0  0  0  0  0  # atno 6909 bound_to 6896
  146.2414  139.9914  142.8425 H   0  0  0  0  0  0  0  0  0  0  0  0  # atno 7974 bound_to 7965
  155.1479  140.3272  155.4437 H   0  0  0  0  0  0  0  0  0  0  0  0  # atno 8008 bound_to 7997
  156.2584  140.1982  156.6542 H   0  0  0  0  0  0  0  0  0  0  0  0  # atno 8009 bound_to 7997
  154.6494  140.0560  156.9925 H   0  0  0  0  0  0  0  0  0  0  0  0  # atno 8010 bound_to 7997
  139.9724  143.5831  152.2408 H   0  0  0  0  0  0  0  0  0  0  0  0  # atno 10167 bound_to 10162
  156.0069  130.4576  150.3808 H   0  0  0  0  0  0  0  0  0  0  0  0  # atno 10718 bound_to 10713
  153.5676  135.7008  153.5519 H   0  0  0  0  0  0  0  0  0  0  0  0  # atno 10763 bound_to 10752
  153.3373  135.4031  155.1543 H   0  0  0  0  0  0  0  0  0  0  0  0  # atno 10764 bound_to 10752
  154.8638  135.3733  154.5197 H   0  0  0  0  0  0  0  0  0  0  0  0  # atno 10765 bound_to 10752
  141.1387  133.8152  157.0673 H   0  0  0  0  0  0  0  0  0  0  0  0  # atno 11005 bound_to 11000
  145.1500  140.9618  143.4438 LP  0  0  0  0  0  0  0  0  0  0  0  0  # atno 17320 bound_to 7965
  145.0214  139.3421  143.6070 LP  0  0  0  0  0  0  0  0  0  0  0  0  # atno 17321 bound_to 7965
  139.6471  144.7659  151.2222 LP  0  0  0  0  0  0  0  0  0  0  0  0  # atno 17342 bound_to 10162
  140.7517  143.6221  150.8503 LP  0  0  0  0  0  0  0  0  0  0  0  0  # atno 17343 bound_to 10162
  157.1888  131.0410  151.2711 LP  0  0  0  0  0  0  0  0  0  0  0  0  # atno 17370 bound_to 10713
  157.4080  130.7369  149.6817 LP  0  0  0  0  0  0  0  0  0  0  0  0  # atno 17371 bound_to 10713
  140.0534  134.9793  157.1176 LP  0  0  0  0  0  0  0  0  0  0  0  0  # atno 17394 bound_to 11000
  140.3956  134.2137  155.7165 LP  0  0  0  0  0  0  0  0  0  0  0  0  # atno 17395 bound_to 11000

$$$$
