AV-unprocessed.smi:1560|AV-procd|sdf|6275|dock2
  -GOLD-   22720 6463D 1   1.00000     0.00000
 Structure written by MMmdl.
 47 48  0  0  0  0  0  0  0  0  1 V2000
  151.0078  142.2968  158.4157 C   0  0  0  0  0  0  0  0  0  0  0  0
  151.2881  141.5558  157.0972 C   0  0  0  0  0  0  0  0  0  0  0  0
  150.4113  140.2843  156.8456 C   0  0  1  0  0  0  0  0  0  0  0  0
  151.1564  139.4382  155.7793 C   0  0  0  0  0  0  0  0  0  0  0  0
  150.3602  139.4429  158.1625 C   0  0  0  0  0  0  0  0  0  0  0  0
  149.5247  138.2536  158.0506 N   0  0  0  0  0  0  0  0  0  0  0  0
  149.6316  137.1386  158.7884 C   0  0  0  0  0  0  0  0  0  0  0  0
  150.4848  136.9963  159.6635 O   0  0  0  0  0  0  0  0  0  0  0  0
  148.6358  135.9988  158.5092 C   0  0  0  0  0  0  0  0  0  0  0  0
  147.9820  135.4535  159.7118 N   0  0  0  0  0  0  0  0  0  0  0  0
  147.8755  134.0806  159.8842 C   0  0  0  0  0  0  0  0  0  0  0  0
  147.2578  133.5074  160.9441 C   0  0  0  0  0  0  0  0  0  0  0  0
  146.6574  134.3346  161.9850 C   0  0  0  0  0  0  0  0  0  0  0  0
  146.0746  133.9104  162.9802 O   0  0  0  0  0  0  0  0  0  0  0  0
  146.7859  135.7104  161.7769 N   0  0  0  0  0  0  0  0  0  0  0  0
  147.4209  136.3074  160.6871 C   0  0  0  0  0  0  0  0  0  0  0  0
  147.4655  137.5332  160.5934 O   0  0  0  0  0  0  0  0  0  0  0  0
  149.0312  140.6555  156.4103 N   0  0  0  0  0  0  0  0  0  0  0  0
  148.2667  141.4631  157.3711 C   0  0  0  0  0  0  0  0  0  0  0  0
  146.8181  141.7004  156.9123 C   0  0  0  0  0  0  0  0  0  0  0  0
  146.8168  142.3221  155.6340 O   0  0  0  0  0  0  0  0  0  0  0  0
  147.4880  141.5399  154.6550 C   0  0  0  0  0  0  0  0  0  0  0  0
  148.9432  141.2962  155.0906 C   0  0  0  0  0  0  0  0  0  0  0  0
  146.3838  136.3232  162.4714 H   0  0  0  0  0  0  0  0  0  0  0  0
  151.6364  143.1837  158.4958 H   0  0  0  0  0  0  0  0  0  0  0  0
  151.2186  141.6718  159.2831 H   0  0  0  0  0  0  0  0  0  0  0  0
  149.9700  142.6239  158.4803 H   0  0  0  0  0  0  0  0  0  0  0  0
  151.1877  142.2597  156.2720 H   0  0  0  0  0  0  0  0  0  0  0  0
  152.3482  141.3014  157.0725 H   0  0  0  0  0  0  0  0  0  0  0  0
  152.1696  139.1920  156.0994 H   0  0  0  0  0  0  0  0  0  0  0  0
  151.2562  139.9653  154.8308 H   0  0  0  0  0  0  0  0  0  0  0  0
  150.6542  138.4918  155.5809 H   0  0  0  0  0  0  0  0  0  0  0  0
  151.3625  139.1342  158.4625 H   0  0  0  0  0  0  0  0  0  0  0  0
  149.9607  140.0408  158.9821 H   0  0  0  0  0  0  0  0  0  0  0  0
  148.7954  138.2821  157.3530 H   0  0  0  0  0  0  0  0  0  0  0  0
  147.8816  136.3708  157.8141 H   0  0  0  0  0  0  0  0  0  0  0  0
  149.1558  135.2080  157.9657 H   0  0  0  0  0  0  0  0  0  0  0  0
  148.3002  133.4289  159.1339 H   0  0  0  0  0  0  0  0  0  0  0  0
  147.2052  132.4309  161.0210 H   0  0  0  0  0  0  0  0  0  0  0  0
  148.2201  140.9775  158.3433 H   0  0  0  0  0  0  0  0  0  0  0  0
  148.7479  142.4296  157.5198 H   0  0  0  0  0  0  0  0  0  0  0  0
  146.2666  140.7598  156.8702 H   0  0  0  0  0  0  0  0  0  0  0  0
  146.2978  142.3447  157.6213 H   0  0  0  0  0  0  0  0  0  0  0  0
  146.9643  140.5932  154.5129 H   0  0  0  0  0  0  0  0  0  0  0  0
  147.4617  142.0658  153.7007 H   0  0  0  0  0  0  0  0  0  0  0  0
  149.4725  142.2490  155.0974 H   0  0  0  0  0  0  0  0  0  0  0  0
  149.4069  140.6798  154.3234 H   0  0  0  0  0  0  0  0  0  0  0  0
  1  2  1  0  0  0  0
  1 25  1  0  0  0  0
  1 26  1  0  0  0  0
  1 27  1  0  0  0  0
  2  3  1  0  0  0  0
  2 28  1  0  0  0  0
  2 29  1  0  0  0  0
  3  4  1  0  0  0  0
  3  5  1  0  0  0  0
  3 18  1  0  0  0  0
  4 30  1  0  0  0  0
  4 31  1  0  0  0  0
  4 32  1  0  0  0  0
  5  6  1  0  0  0  0
  5 33  1  0  0  0  0
  5 34  1  0  0  0  0
  6  7  1  0  0  0  0
  6 35  1  0  0  0  0
  7  8  2  0  0  0  0
  7  9  1  0  0  0  0
  9 10  1  0  0  0  0
  9 36  1  0  0  0  0
  9 37  1  0  0  0  0
 10 16  1  0  0  0  0
 10 11  1  0  0  0  0
 11 12  2  0  0  0  0
 11 38  1  0  0  0  0
 12 13  1  0  0  0  0
 12 39  1  0  0  0  0
 13 14  2  0  0  0  0
 13 15  1  0  0  0  0
 15 24  1  0  0  0  0
 15 16  1  0  0  0  0
 16 17  2  0  0  0  0
 18 23  1  0  0  0  0
 18 19  1  0  0  0  0
 19 20  1  0  0  0  0
 19 40  1  0  0  0  0
 19 41  1  0  0  0  0
 20 21  1  0  0  0  0
 20 42  1  0  0  0  0
 20 43  1  0  0  0  0
 21 22  1  0  0  0  0
 22 23  1  0  0  0  0
 22 44  1  0  0  0  0
 22 45  1  0  0  0  0
 23 46  1  0  0  0  0
 23 47  1  0  0  0  0
M  END
> <s_m_source_file>
AV-unprocessed.smi

> <i_m_source_file_index>
1560

> <i_lp_mmshare_version>
43012

> <i_f3d_flags>
0

> <s_epik_input>
W0NIMl0xW0NIMl1PW0NIMl1bQ0gyXU4xW0NAQF0oW0NIM10pKFtDSDJdW0NIM10pW0NIMl1bTkhdQyg9TylbQ0gyXW4yW2NIXVtjSF1jKD1PKVtuSF1jMj1P

> <s_epik_cmdline>
J2VwaWtfcHl0aG9uJywgJy1waCcsICc3LjAnLCAnLXRuJywgJzgnLCAnLW1hJywgJzIwMCcsICctbWV0YWxfYmluZGluZycsICctaW1hZScsICc8aW5maWxlLm1hZT4nLCAnLW9tYWUnLCAnPG91dGZpbGUubWFlPic=

> <r_lp_tautomer_probability>
0.999537

> <r_epik_Ionization_Penalty>
0.321965

> <r_epik_Ionization_Penalty_Charging>
0.00329831

> <r_epik_Ionization_Penalty_Neutral>
0.318667

> <r_epik_State_Penalty>
0.288097

> <r_epik_Charging_Adjusted_Penalty>
0.291396

> <i_epik_Tot_Q>
0

> <i_epik_Tot_abs_Q>
0

> <r_epik_Metal_State_Penalty>
0.654595

> <b_epik_Metal_Only>
0

> <s_lp_Force_Field>
OPLS_2005

> <r_lp_Energy>
42.3402

> <b_lp_Chiralities_Consistent>
1

> <s_lp_Variant>
AV-unprocessed.smi:1560-1

> <Gold.Version>
5.8.1

> <Gold.Id.Protein>
6NUR|6NUR_protein|mol2

> <Gold.PLP.Fitness>
38.8396

> <Gold.PLP.PLP>
-32.5724

> <Gold.PLP.part.hbond>
-3.7993

> <Gold.PLP.part.metal>
0.0000

> <Gold.PLP.part.buried>
-5.8582

> <Gold.PLP.part.nonpolar>
-24.3940

> <Gold.PLP.part.repulsive>
0.4134

> <Gold.PLP.ligand.clash>
0.0000

> <Gold.PLP.ligand.torsion>
0.7180

> <Gold.PLP.Chemscore.Hbond>
2.5380

> <Gold.PLP.Chemscore.CHOScore>
0.0000

> <Gold.PLP.Chemscore.Metal>
0.0000

> <Gold.Chemscore.Hbonds>
donor molecule, donor type, donor heavy atom, donor atom, acceptor molecule, acceptor atom, score
      P1  H  6896  6907       L1     8  1.00
      P1  H  6931  6943       L1    17  0.41
      P1  H  6934  6947       L1    17  1.00

> <Gold.PLP.Chemscore.Internal.Correction>
0.0893

> <Gold.Rescore>
     Score         DG    S(hbond)    S(metal)    S(lipo)     H(rot)  DE(clash)    DE(int)     intcor
      9.88     -13.78       2.34        0.00      58.43       2.49       1.28       2.62       ----

> <Gold.Chemscore.Fitness>
9.8789

> <Gold.Chemscore.DG>
-13.7790

> <Gold.Chemscore.ZeroCoef>
-5.4800

> <Gold.Chemscore.Hbond>
2.3435

> <Gold.Chemscore.Metal>
0.0000

> <Gold.Chemscore.Lipo>
58.4299

> <Gold.Chemscore.Internal_Hbond>
0.0000

> <Gold.Chemscore.DEClash>
1.2827

> <Gold.Chemscore.DEInternal>
2.6175

> <Gold.Chemscore.Rot>
2.4862

> <Gold.Chemscore.Internal.Correction>
   9.000000E+99

> <Gold.Chemscore.Hbonds>
donor molecule, donor type, donor heavy atom, donor atom, acceptor molecule, acceptor atom, score
      P1  H  6896  6907       L1     8  0.83
      P1  H  6931  6943       L1    17  0.29
      P1  H  6934  6947       L1    17  0.91

> <Gold.Chemscore.Hbond.Weighted>
-7.8274

> <Gold.Chemscore.Metal.Weighted>
-0.0000

> <Gold.Chemscore.Lipo.Weighted>
-6.8363

> <Gold.Chemscore.Internal_Hbond.Weighted>
0.0000

> <Gold.Chemscore.DEClash.Weighted>
1.2827

> <Gold.Chemscore.DEInternal.Weighted>
2.6175

> <Gold.Chemscore.Rot.Weighted>
6.3646

> <Gold.Chemscore.Internal.Correction.Weighted>
   9.000000E+99

> <Gold.Protein.RotatedTorsions>
[ 6907 6896 6895 6894 ] final  -25.78 input  -60.11 | X-H torsion
[ 7974 7965 7964 7962 ] final -132.68 input  175.53 | X-H torsion
[ 8008 7997 7996 7995 ] final -154.25 input   59.86 | X-H torsion
[ 10167 10162 10161 10158 ] final -135.28 input  -65.29 | X-H torsion
[ 10718 10713 10712 10709 ] final -163.93 input   66.30 | X-H torsion
[ 10763 10752 10751 10750 ] final -142.41 input  -60.55 | X-H torsion
[ 11005 11000 10999 10996 ] final  -47.90 input  -57.11 | X-H torsion

> <Gold.Protein.ActiveResidues>
 VAL166  LYS551  ARG553  GLY616  TRP617  ASP618  TYR619  PRO620  LYS621  CYS622 
 ASP623  PHE694  ASN695  SER759  ASP760  ASP761  ALA762  ILE779  LEU786  VAL792 
 PHE793  MET794  SER795  GLU796  ALA797  LYS798  CYS799  TRP800  GLU811  SER814 

> <Gold.Protein.RotatedAtoms>
  151.1703  135.0315  159.8748 H   0  0  0  0  0  0  0  0  0  0  0  0  # atno 6907 bound_to 6896
  152.5449  134.1178  159.8396 H   0  0  0  0  0  0  0  0  0  0  0  0  # atno 6908 bound_to 6896
  151.1283  133.5008  159.2632 H   0  0  0  0  0  0  0  0  0  0  0  0  # atno 6909 bound_to 6896
  144.9263  140.7075  143.4934 H   0  0  0  0  0  0  0  0  0  0  0  0  # atno 7974 bound_to 7965
  155.6834  140.0747  157.2476 H   0  0  0  0  0  0  0  0  0  0  0  0  # atno 8008 bound_to 7997
  154.4101  140.1678  156.2059 H   0  0  0  0  0  0  0  0  0  0  0  0  # atno 8009 bound_to 7997
  155.9515  140.3377  155.6415 H   0  0  0  0  0  0  0  0  0  0  0  0  # atno 8010 bound_to 7997
  139.8795  143.6856  152.2629 H   0  0  0  0  0  0  0  0  0  0  0  0  # atno 10167 bound_to 10162
  156.6317  130.8932  151.2979 H   0  0  0  0  0  0  0  0  0  0  0  0  # atno 10718 bound_to 10713
  154.8510  135.3497  154.6023 H   0  0  0  0  0  0  0  0  0  0  0  0  # atno 10763 bound_to 10752
  153.6632  135.6988  153.5175 H   0  0  0  0  0  0  0  0  0  0  0  0  # atno 10764 bound_to 10752
  153.2801  135.4266  155.1028 H   0  0  0  0  0  0  0  0  0  0  0  0  # atno 10765 bound_to 10752
  141.0668  133.6691  156.3364 H   0  0  0  0  0  0  0  0  0  0  0  0  # atno 11005 bound_to 11000
  145.3214  139.1787  143.4586 LP  0  0  0  0  0  0  0  0  0  0  0  0  # atno 17320 bound_to 7965
  146.3227  140.3232  142.8635 LP  0  0  0  0  0  0  0  0  0  0  0  0  # atno 17321 bound_to 7965
  139.7209  144.7603  151.0957 LP  0  0  0  0  0  0  0  0  0  0  0  0  # atno 17342 bound_to 10162
  140.7747  143.5209  150.9537 LP  0  0  0  0  0  0  0  0  0  0  0  0  # atno 17343 bound_to 10162
  157.7198  130.9543  150.1394 LP  0  0  0  0  0  0  0  0  0  0  0  0  # atno 17370 bound_to 10713
  156.2229  130.3675  149.8534 LP  0  0  0  0  0  0  0  0  0  0  0  0  # atno 17371 bound_to 10713
  140.5756  134.5797  157.5468 LP  0  0  0  0  0  0  0  0  0  0  0  0  # atno 17394 bound_to 11000
  139.9484  134.7660  156.0505 LP  0  0  0  0  0  0  0  0  0  0  0  0  # atno 17395 bound_to 11000

$$$$
