AV-unprocessed.smi:2065|AV-procd|sdf|8418|dock6
  -GOLD-   2272011113D 1   1.00000     0.00000
 Structure written by MMmdl.
 38 39  0  0  0  0  0  0  0  0  1 V2000
  153.9452  141.4033  161.4630 C   0  0  0  0  0  0  0  0  0  0  0  0
  153.1401  142.0769  160.3911 C   0  0  0  0  0  0  0  0  0  0  0  0
  152.3522  141.4674  159.3717 C   0  0  0  0  0  0  0  0  0  0  0  0
  151.8527  142.5451  158.6928 C   0  0  0  0  0  0  0  0  0  0  0  0
  151.0298  142.5685  157.6108 N   0  0  0  0  0  0  0  0  0  0  0  0
  150.3695  141.5490  157.0347 C   0  0  0  0  0  0  0  0  0  0  0  0
  150.4013  140.3755  157.4062 O   0  0  0  0  0  0  0  0  0  0  0  0
  149.6524  141.9723  155.9836 N   0  0  0  0  0  0  0  0  0  0  0  0
  148.8323  141.1296  155.1114 C   0  0  1  0  0  0  0  0  0  0  0  0
  148.0521  142.0059  154.1058 C   0  0  0  0  0  0  0  0  0  0  0  0
  146.7951  141.3315  153.5328 C   0  0  0  0  0  0  0  0  0  0  0  0
  147.0621  140.0656  152.7048 C   0  0  0  0  0  0  0  0  0  0  0  0
  147.6482  138.9033  153.5250 C   0  0  0  0  0  0  0  0  0  0  0  0
  149.0780  139.0525  153.7658 N   0  0  0  0  0  0  0  0  0  0  0  0
  149.6870  140.0266  154.4588 C   0  0  0  0  0  0  0  0  0  0  0  0
  150.9133  140.0433  154.5662 O   0  0  0  0  0  0  0  0  0  0  0  0
  152.3223  143.6983  159.2809 N   0  0  0  0  0  0  0  0  0  0  0  0
  152.0747  145.0812  158.9222 C   0  0  0  0  0  0  0  0  0  0  0  0
  153.1177  143.4038  160.3320 N   0  0  0  0  0  0  0  0  0  0  0  0
  153.9336  140.3199  161.3420 H   0  0  0  0  0  0  0  0  0  0  0  0
  153.5482  141.6305  162.4525 H   0  0  0  0  0  0  0  0  0  0  0  0
  154.9854  141.7284  161.4368 H   0  0  0  0  0  0  0  0  0  0  0  0
  152.1949  140.4153  159.1882 H   0  0  0  0  0  0  0  0  0  0  0  0
  150.8981  143.4768  157.1906 H   0  0  0  0  0  0  0  0  0  0  0  0
  149.6902  142.9532  155.7472 H   0  0  0  0  0  0  0  0  0  0  0  0
  148.1131  140.6169  155.7531 H   0  0  0  0  0  0  0  0  0  0  0  0
  147.7290  142.9251  154.5964 H   0  0  0  0  0  0  0  0  0  0  0  0
  148.7099  142.3221  153.2948 H   0  0  0  0  0  0  0  0  0  0  0  0
  146.1067  141.0965  154.3456 H   0  0  0  0  0  0  0  0  0  0  0  0
  146.2734  142.0529  152.9031 H   0  0  0  0  0  0  0  0  0  0  0  0
  146.1136  139.7381  152.2777 H   0  0  0  0  0  0  0  0  0  0  0  0
  147.7077  140.2951  151.8560 H   0  0  0  0  0  0  0  0  0  0  0  0
  147.1142  138.7763  154.4676 H   0  0  0  0  0  0  0  0  0  0  0  0
  147.5147  137.9739  152.9709 H   0  0  0  0  0  0  0  0  0  0  0  0
  149.6716  138.3466  153.3545 H   0  0  0  0  0  0  0  0  0  0  0  0
  151.0042  145.2846  158.9663 H   0  0  0  0  0  0  0  0  0  0  0  0
  152.4311  145.2650  157.9084 H   0  0  0  0  0  0  0  0  0  0  0  0
  152.5911  145.7553  159.6071 H   0  0  0  0  0  0  0  0  0  0  0  0
  1  2  1  0  0  0  0
  1 20  1  0  0  0  0
  1 21  1  0  0  0  0
  1 22  1  0  0  0  0
  2 19  2  0  0  0  0
  2  3  1  0  0  0  0
  3  4  2  0  0  0  0
  3 23  1  0  0  0  0
  4  5  1  0  0  0  0
  4 17  1  0  0  0  0
  5  6  1  0  0  0  0
  5 24  1  0  0  0  0
  6  7  2  0  0  0  0
  6  8  1  0  0  0  0
  8  9  1  0  0  0  0
  8 25  1  0  0  0  0
  9 15  1  0  0  0  0
  9 10  1  0  0  0  0
  9 26  1  0  0  0  0
 10 11  1  0  0  0  0
 10 27  1  0  0  0  0
 10 28  1  0  0  0  0
 11 12  1  0  0  0  0
 11 29  1  0  0  0  0
 11 30  1  0  0  0  0
 12 13  1  0  0  0  0
 12 31  1  0  0  0  0
 12 32  1  0  0  0  0
 13 14  1  0  0  0  0
 13 33  1  0  0  0  0
 13 34  1  0  0  0  0
 14 15  1  0  0  0  0
 14 35  1  0  0  0  0
 15 16  2  0  0  0  0
 17 18  1  0  0  0  0
 17 19  1  0  0  0  0
 18 36  1  0  0  0  0
 18 37  1  0  0  0  0
 18 38  1  0  0  0  0
M  END
> <s_m_source_file>
AV-unprocessed.smi

> <i_m_source_file_index>
2065

> <i_lp_mmshare_version>
43012

> <i_f3d_flags>
0

> <s_epik_input>
W0NIM11jMVtjSF1jKG4objEpW0NIM10pW05IXUMoPU8pW05IXVtDQEBIXTJbQ0gyXVtDSDJdW0NIMl1bQ0gyXVtOSF1DMj1P

> <s_epik_cmdline>
J2VwaWtfcHl0aG9uJywgJy1waCcsICc3LjAnLCAnLXRuJywgJzgnLCAnLW1hJywgJzIwMCcsICctbWV0YWxfYmluZGluZycsICctaW1hZScsICc8aW5maWxlLm1hZT4nLCAnLW9tYWUnLCAnPG91dGZpbGUubWFlPic=

> <r_lp_tautomer_probability>
1

> <r_epik_Ionization_Penalty>
8.1752e-05

> <r_epik_Ionization_Penalty_Charging>
0

> <r_epik_Ionization_Penalty_Neutral>
8.1752e-05

> <r_epik_State_Penalty>
-0

> <r_epik_Charging_Adjusted_Penalty>
0

> <i_epik_Tot_Q>
0

> <i_epik_Tot_abs_Q>
0

> <r_epik_Metal_State_Penalty>
-0

> <b_epik_Metal_Only>
0

> <s_lp_Force_Field>
OPLS_2005

> <r_lp_Energy>
11.1948

> <b_lp_Chiralities_Consistent>
1

> <s_lp_Variant>
AV-unprocessed.smi:2065-2

> <Gold.Version>
5.8.1

> <Gold.Id.Protein>
6NUR|6NUR_protein|mol2

> <Gold.PLP.Fitness>
47.7738

> <Gold.PLP.PLP>
-41.8179

> <Gold.PLP.part.hbond>
-3.0000

> <Gold.PLP.part.metal>
0.0000

> <Gold.PLP.part.buried>
-2.0964

> <Gold.PLP.part.nonpolar>
-35.8832

> <Gold.PLP.part.repulsive>
0.2868

> <Gold.PLP.ligand.clash>
0.0000

> <Gold.PLP.ligand.torsion>
0.0357

> <Gold.PLP.Chemscore.Hbond>
2.0000

> <Gold.PLP.Chemscore.CHOScore>
0.0000

> <Gold.PLP.Chemscore.Metal>
0.0000

> <Gold.Chemscore.Hbonds>
donor molecule, donor type, donor heavy atom, donor atom, acceptor molecule, acceptor atom, score
      L1  H     8    25       P1  8028  1.00
      P1  H  7989  7998       L1    16  0.99

> <Gold.PLP.Chemscore.Internal.Correction>
0.0271

> <Gold.Rescore>
     Score         DG    S(hbond)    S(metal)    S(lipo)     H(rot)  DE(clash)    DE(int)     intcor
     15.19     -18.53       1.87        0.00      80.05       1.00       0.08       3.26       ----

> <Gold.Chemscore.Fitness>
15.1858

> <Gold.Chemscore.DG>
-18.5318

> <Gold.Chemscore.ZeroCoef>
-5.4800

> <Gold.Chemscore.Hbond>
1.8702

> <Gold.Chemscore.Metal>
0.0000

> <Gold.Chemscore.Lipo>
80.0468

> <Gold.Chemscore.Internal_Hbond>
0.0000

> <Gold.Chemscore.DEClash>
0.0835

> <Gold.Chemscore.DEInternal>
3.2625

> <Gold.Chemscore.Rot>
1.0000

> <Gold.Chemscore.Internal.Correction>
   9.000000E+99

> <Gold.Chemscore.Hbonds>
donor molecule, donor type, donor heavy atom, donor atom, acceptor molecule, acceptor atom, score
      L1  H     8    25       P1  8028  0.95
      P1  H  7989  7998       L1    16  0.81

> <Gold.Chemscore.Hbond.Weighted>
-6.2463

> <Gold.Chemscore.Metal.Weighted>
-0.0000

> <Gold.Chemscore.Lipo.Weighted>
-9.3655

> <Gold.Chemscore.Internal_Hbond.Weighted>
0.0000

> <Gold.Chemscore.DEClash.Weighted>
0.0835

> <Gold.Chemscore.DEInternal.Weighted>
3.2625

> <Gold.Chemscore.Rot.Weighted>
2.5600

> <Gold.Chemscore.Internal.Correction.Weighted>
   9.000000E+99

> <Gold.Protein.RotatedTorsions>
[ 6907 6896 6895 6894 ] final -108.22 input  -60.11 | X-H torsion
[ 7974 7965 7964 7962 ] final  111.79 input  175.53 | X-H torsion
[ 8008 7997 7996 7995 ] final   37.99 input   59.86 | X-H torsion
[ 10167 10162 10161 10158 ] final  -22.40 input  -65.29 | X-H torsion
[ 10718 10713 10712 10709 ] final  112.07 input   66.30 | X-H torsion
[ 10763 10752 10751 10750 ] final   25.24 input  -60.55 | X-H torsion
[ 11005 11000 10999 10996 ] final -172.36 input  -57.11 | X-H torsion

> <Gold.Protein.ActiveResidues>
 VAL166  LYS551  ARG553  GLY616  TRP617  ASP618  TYR619  PRO620  LYS621  CYS622 
 ASP623  PHE694  ASN695  SER759  ASP760  ASP761  ALA762  ILE779  LEU786  VAL792 
 PHE793  MET794  SER795  GLU796  ALA797  LYS798  CYS799  TRP800  GLU811  SER814 

> <Gold.Protein.RotatedAtoms>
  150.7489  133.9709  159.3545 H   0  0  0  0  0  0  0  0  0  0  0  0  # atno 6907 bound_to 6896
  151.7643  135.0800  160.0359 H   0  0  0  0  0  0  0  0  0  0  0  0  # atno 6908 bound_to 6896
  152.3382  133.5999  159.5894 H   0  0  0  0  0  0  0  0  0  0  0  0  # atno 6909 bound_to 6896
  145.2377  139.2792  143.4134 H   0  0  0  0  0  0  0  0  0  0  0  0  # atno 7974 bound_to 7965
  155.2128  140.3325  155.4326 H   0  0  0  0  0  0  0  0  0  0  0  0  # atno 8008 bound_to 7997
  156.2364  140.1874  156.7156 H   0  0  0  0  0  0  0  0  0  0  0  0  # atno 8009 bound_to 7997
  154.6067  140.0615  156.9425 H   0  0  0  0  0  0  0  0  0  0  0  0  # atno 8010 bound_to 7997
  140.7286  143.4538  151.0478 H   0  0  0  0  0  0  0  0  0  0  0  0  # atno 10167 bound_to 10162
  157.6412  131.0961  150.6841 H   0  0  0  0  0  0  0  0  0  0  0  0  # atno 10718 bound_to 10713
  153.0706  135.6587  154.0257 H   0  0  0  0  0  0  0  0  0  0  0  0  # atno 10763 bound_to 10752
  153.9903  135.2946  155.3414 H   0  0  0  0  0  0  0  0  0  0  0  0  # atno 10764 bound_to 10752
  154.7079  135.5217  153.8691 H   0  0  0  0  0  0  0  0  0  0  0  0  # atno 10765 bound_to 10752
  140.4978  134.5923  157.4977 H   0  0  0  0  0  0  0  0  0  0  0  0  # atno 11005 bound_to 11000
  146.3336  140.2731  142.8607 LP  0  0  0  0  0  0  0  0  0  0  0  0  # atno 17320 bound_to 7965
  144.9617  140.8282  143.5509 LP  0  0  0  0  0  0  0  0  0  0  0  0  # atno 17321 bound_to 7965
  139.8216  143.7812  152.3177 LP  0  0  0  0  0  0  0  0  0  0  0  0  # atno 17342 bound_to 10162
  139.7897  144.7415  150.9973 LP  0  0  0  0  0  0  0  0  0  0  0  0  # atno 17343 bound_to 10162
  156.7164  130.4667  149.5534 LP  0  0  0  0  0  0  0  0  0  0  0  0  # atno 17370 bound_to 10713
  156.1695  130.6427  151.0819 LP  0  0  0  0  0  0  0  0  0  0  0  0  # atno 17371 bound_to 10713
  139.9731  134.7260  156.0002 LP  0  0  0  0  0  0  0  0  0  0  0  0  # atno 17394 bound_to 11000
  141.1451  133.6557  156.3844 LP  0  0  0  0  0  0  0  0  0  0  0  0  # atno 17395 bound_to 11000

$$$$
