AV-unprocessed.smi:1|AV-procd|sdf|3|dock5
  -GOLD-   2262015 83D 1   1.00000     0.00000
 Structure written by MMmdl.
 57 62  0  0  0  0  0  0  0  0  1 V2000
  151.3749  139.9057  158.6356 O   0  0  0  0  0  0  0  0  0  0  0  0
  151.3400  140.9019  157.9125 C   0  0  0  0  0  0  0  0  0  0  0  0
  150.8296  140.8540  156.5540 N   0  0  0  0  0  0  0  0  0  0  0  0
  150.4155  139.7718  155.8545 C   0  0  0  0  0  0  0  0  0  0  0  0
  151.0878  139.3039  154.7702 N   0  0  0  0  0  0  0  0  0  0  0  0
  150.6361  138.2345  154.1094 C   0  0  0  0  0  0  0  0  0  0  0  0
  149.5506  137.4999  154.3573 N   0  0  0  0  0  0  0  0  0  0  0  0
  148.8643  137.9653  155.4421 C   0  0  0  0  0  0  0  0  0  0  0  0
  149.2317  139.0880  156.2356 C   0  0  0  0  0  0  0  0  0  0  0  0
  148.3034  139.2709  157.2519 N   0  0  0  0  0  0  0  0  0  0  0  0
  147.4344  138.3151  157.0617 C   0  0  0  0  0  0  0  0  0  0  0  0
  147.6887  137.4876  155.9907 N   0  0  0  0  0  0  0  0  0  0  0  0
  146.8584  136.3321  155.5233 C   0  0  2  0  0  0  0  0  0  0  0  0
  145.7051  136.2749  156.3055 O   0  0  0  0  0  0  0  0  0  0  0  0
  145.4058  134.9282  156.6444 C   0  0  2  0  0  0  0  0  0  0  0  0
  144.5857  134.8606  157.9382 C   0  0  0  0  0  0  0  0  0  0  0  0
  144.0167  133.5677  158.0604 O   0  0  0  0  0  0  0  0  0  0  0  0
  143.2019  133.2845  159.0951 C   0  0  0  0  0  0  0  0  0  0  0  0
  142.9829  134.0638  160.0249 O   0  0  0  0  0  0  0  0  0  0  0  0
  142.5926  131.9266  158.9983 C   0  0  0  0  0  0  0  0  0  0  0  0
  143.0105  131.0508  157.9692 C   0  0  0  0  0  0  0  0  0  0  0  0
  142.4526  129.7630  157.8522 C   0  0  0  0  0  0  0  0  0  0  0  0
  141.4693  129.3351  158.7628 C   0  0  0  0  0  0  0  0  0  0  0  0
  141.0455  130.1963  159.7916 C   0  0  0  0  0  0  0  0  0  0  0  0
  141.6025  131.4845  159.9106 C   0  0  0  0  0  0  0  0  0  0  0  0
  146.7729  134.2527  156.7280 C   0  0  2  0  0  0  0  0  0  0  0  0
  147.3954  134.4531  157.9851 O   0  0  0  0  0  0  0  0  0  0  0  0
  149.0296  134.6547  157.7141 S   0  0  0  0  0  0  0  0  0  0  0  0
  149.5079  135.7904  158.5163 O   0  0  0  0  0  0  0  0  0  0  0  0
  149.6666  133.3298  157.7651 O   0  0  0  0  0  0  0  0  0  0  0  0
  148.9439  135.1242  156.1123 O   0  0  0  0  0  0  0  0  0  0  0  0
  147.6003  134.9860  155.6647 C   0  0  2  0  0  0  0  0  0  0  0  0
  151.7370  142.2582  158.4176 C   0  0  0  0  0  0  0  0  0  0  0  0
  151.6133  143.3889  157.5792 C   0  0  0  0  0  0  0  0  0  0  0  0
  151.9705  144.6677  158.0494 C   0  0  0  0  0  0  0  0  0  0  0  0
  152.4462  144.8277  159.3644 C   0  0  0  0  0  0  0  0  0  0  0  0
  152.5606  143.7087  160.2106 C   0  0  0  0  0  0  0  0  0  0  0  0
  152.2046  142.4292  159.7413 C   0  0  0  0  0  0  0  0  0  0  0  0
  150.7853  141.7375  156.0677 H   0  0  0  0  0  0  0  0  0  0  0  0
  151.2270  137.9244  153.2604 H   0  0  0  0  0  0  0  0  0  0  0  0
  146.5691  138.1921  157.6965 H   0  0  0  0  0  0  0  0  0  0  0  0
  146.6096  136.5737  154.4892 H   0  0  0  0  0  0  0  0  0  0  0  0
  144.8480  134.4842  155.8181 H   0  0  0  0  0  0  0  0  0  0  0  0
  145.2300  135.0450  158.7986 H   0  0  0  0  0  0  0  0  0  0  0  0
  143.8089  135.6267  157.9368 H   0  0  0  0  0  0  0  0  0  0  0  0
  143.7635  131.3577  157.2573 H   0  0  0  0  0  0  0  0  0  0  0  0
  142.7799  129.1034  157.0621 H   0  0  0  0  0  0  0  0  0  0  0  0
  141.0407  128.3478  158.6727 H   0  0  0  0  0  0  0  0  0  0  0  0
  140.2913  129.8691  160.4917 H   0  0  0  0  0  0  0  0  0  0  0  0
  141.2548  132.1198  160.7120 H   0  0  0  0  0  0  0  0  0  0  0  0
  146.7121  133.1808  156.5369 H   0  0  0  0  0  0  0  0  0  0  0  0
  147.5608  134.4631  154.7089 H   0  0  0  0  0  0  0  0  0  0  0  0
  151.2491  143.2826  156.5672 H   0  0  0  0  0  0  0  0  0  0  0  0
  151.8786  145.5258  157.4000 H   0  0  0  0  0  0  0  0  0  0  0  0
  152.7195  145.8084  159.7249 H   0  0  0  0  0  0  0  0  0  0  0  0
  152.9192  143.8313  161.2220 H   0  0  0  0  0  0  0  0  0  0  0  0
  152.2917  141.5851  160.4102 H   0  0  0  0  0  0  0  0  0  0  0  0
  1  2  2  0  0  0  0
  2  3  1  0  0  0  0
  2 33  1  0  0  0  0
  3  4  1  0  0  0  0
  3 39  1  0  0  0  0
  4  9  1  0  0  0  0
  4  5  2  0  0  0  0
  5  6  1  0  0  0  0
  6  7  2  0  0  0  0
  6 40  1  0  0  0  0
  7  8  1  0  0  0  0
  8 12  1  0  0  0  0
  8  9  2  0  0  0  0
  9 10  1  0  0  0  0
 10 11  2  0  0  0  0
 11 12  1  0  0  0  0
 11 41  1  0  0  0  0
 12 13  1  0  0  0  0
 13 32  1  0  0  0  0
 13 14  1  0  0  0  0
 13 42  1  0  0  0  0
 14 15  1  0  0  0  0
 15 16  1  0  0  0  0
 15 26  1  0  0  0  0
 15 43  1  0  0  0  0
 16 17  1  0  0  0  0
 16 44  1  0  0  0  0
 16 45  1  0  0  0  0
 17 18  1  0  0  0  0
 18 19  2  0  0  0  0
 18 20  1  0  0  0  0
 20 25  1  0  0  0  0
 20 21  2  0  0  0  0
 21 22  1  0  0  0  0
 21 46  1  0  0  0  0
 22 23  2  0  0  0  0
 22 47  1  0  0  0  0
 23 24  1  0  0  0  0
 23 48  1  0  0  0  0
 24 25  2  0  0  0  0
 24 49  1  0  0  0  0
 25 50  1  0  0  0  0
 26 32  1  0  0  0  0
 26 27  1  0  0  0  0
 26 51  1  0  0  0  0
 27 28  1  0  0  0  0
 28 29  2  0  0  0  0
 28 30  2  0  0  0  0
 28 31  1  0  0  0  0
 31 32  1  0  0  0  0
 32 52  1  0  0  0  0
 33 38  1  0  0  0  0
 33 34  2  0  0  0  0
 34 35  1  0  0  0  0
 34 53  1  0  0  0  0
 35 36  2  0  0  0  0
 35 54  1  0  0  0  0
 36 37  1  0  0  0  0
 36 55  1  0  0  0  0
 37 38  2  0  0  0  0
 37 56  1  0  0  0  0
 38 57  1  0  0  0  0
M  END
> <s_m_source_file>
AV-unprocessed.smi

> <i_m_source_file_index>
1

> <i_lp_mmshare_version>
43012

> <i_f3d_flags>
0

> <s_epik_input>
W2NIXTFbY0hdW2NIXVtjSF1bY0hdYzFDKD1PKVtOSF1jKG5bY0hdbjIpYyhjMjMpbltjSF1uM1tDQEBIXShbQ0BIXShbQ0BIXTQ1KU9TKE81KSg9Tyk9TylPW0NASF00W0NIMl1PQyg9TyljNltjSF1bY0hdW2NIXVtjSF1bY0hdNg==

> <s_epik_cmdline>
J2VwaWtfcHl0aG9uJywgJy1waCcsICc3LjAnLCAnLXRuJywgJzgnLCAnLW1hJywgJzIwMCcsICctbWV0YWxfYmluZGluZycsICctaW1hZScsICc8aW5maWxlLm1hZT4nLCAnLW9tYWUnLCAnPG91dGZpbGUubWFlPic=

> <r_lp_tautomer_probability>
1

> <r_epik_Ionization_Penalty>
0.00195722

> <r_epik_Ionization_Penalty_Charging>
0

> <r_epik_Ionization_Penalty_Neutral>
0.00195722

> <r_epik_State_Penalty>
0.00633741

> <r_epik_Charging_Adjusted_Penalty>
0.00633741

> <i_epik_Tot_Q>
0

> <i_epik_Tot_abs_Q>
0

> <r_epik_Metal_State_Penalty>
0.341185

> <b_epik_Metal_Only>
0

> <s_epik_Chemistry_Notes>
This compound has an ester and may undergo hydrolysis at high or low pH. This compound contains an acetal/aminal-like group ( X-CH(R)-Y where X, Y are N, S, or O) that may be acid/base labile, releasing an aldehyde.

> <s_lp_Force_Field>
OPLS_2005

> <r_lp_Energy>
44.5828

> <b_lp_Chiralities_Consistent>
1

> <s_lp_Variant>
AV-unprocessed.smi:1-3

> <Gold.Version>
5.8.1

> <Gold.Id.Protein>
6NUR|6NUR_protein|mol2

> <Gold.PLP.Fitness>
52.9154

> <Gold.PLP.PLP>
-45.8988

> <Gold.PLP.part.hbond>
-2.8982

> <Gold.PLP.part.metal>
0.0000

> <Gold.PLP.part.buried>
-8.4278

> <Gold.PLP.part.nonpolar>
-36.6096

> <Gold.PLP.part.repulsive>
2.1737

> <Gold.PLP.ligand.clash>
0.0000

> <Gold.PLP.ligand.torsion>
0.8758

> <Gold.PLP.Chemscore.Hbond>
2.1838

> <Gold.PLP.Chemscore.CHOScore>
0.6720

> <Gold.PLP.Chemscore.Metal>
0.0000

> <Gold.Chemscore.Hbonds>
donor molecule, donor type, donor heavy atom, donor atom, acceptor molecule, acceptor atom, score
      P1  H  6896  6907       L1    30  1.00
      P1  H  6896  6908       L1    29  0.22
      P1  H  7989  7998       L1     5  0.86
      L1  C     6    40       P1  7949  0.78

> <Gold.PLP.Chemscore.Internal.Correction>
0.2007

> <Gold.Rescore>
     Score         DG    S(hbond)    S(metal)    S(lipo)     H(rot)  DE(clash)    DE(int)     intcor
     15.31     -18.21       1.60        0.00     109.89       2.13       0.75       2.15       ----

> <Gold.Chemscore.Fitness>
15.3069

> <Gold.Chemscore.DG>
-18.2051

> <Gold.Chemscore.ZeroCoef>
-5.4800

> <Gold.Chemscore.Hbond>
1.5957

> <Gold.Chemscore.Metal>
0.0000

> <Gold.Chemscore.Lipo>
109.8883

> <Gold.Chemscore.Internal_Hbond>
0.0000

> <Gold.Chemscore.DEClash>
0.7514

> <Gold.Chemscore.DEInternal>
2.1468

> <Gold.Chemscore.Rot>
2.1333

> <Gold.Chemscore.Internal.Correction>
   9.000000E+99

> <Gold.Chemscore.Hbonds>
donor molecule, donor type, donor heavy atom, donor atom, acceptor molecule, acceptor atom, score
      P1  H  6896  6907       L1    30  0.36
      P1  H  6896  6908       L1    29  0.15
      P1  H  7989  7998       L1     5  0.57

> <Gold.Chemscore.Hbond.Weighted>
-5.3295

> <Gold.Chemscore.Metal.Weighted>
-0.0000

> <Gold.Chemscore.Lipo.Weighted>
-12.8569

> <Gold.Chemscore.Internal_Hbond.Weighted>
0.0000

> <Gold.Chemscore.DEClash.Weighted>
0.7514

> <Gold.Chemscore.DEInternal.Weighted>
2.1468

> <Gold.Chemscore.Rot.Weighted>
5.4614

> <Gold.Chemscore.Internal.Correction.Weighted>
   9.000000E+99

> <Gold.Protein.RotatedTorsions>
[ 6907 6896 6895 6894 ] final -142.37 input  -60.11 | X-H torsion
[ 7974 7965 7964 7962 ] final  -36.00 input  175.53 | X-H torsion
[ 8008 7997 7996 7995 ] final -157.95 input   59.86 | X-H torsion
[ 10167 10162 10161 10158 ] final   68.85 input  -65.29 | X-H torsion
[ 10718 10713 10712 10709 ] final  160.75 input   66.30 | X-H torsion
[ 10763 10752 10751 10750 ] final -162.12 input  -60.55 | X-H torsion
[ 11005 11000 10999 10996 ] final  -18.17 input  -57.11 | X-H torsion

> <Gold.Protein.ActiveResidues>
 VAL166  LYS551  ARG553  GLY616  TRP617  ASP618  TYR619  PRO620  LYS621  CYS622 
 ASP623  PHE694  ASN695  SER759  ASP760  ASP761  ALA762  ILE779  LEU786  VAL792 
 PHE793  MET794  SER795  GLU796  ALA797  LYS798  CYS799  TRP800  GLU811  SER814 

> <Gold.Protein.RotatedAtoms>
  151.0861  133.5352  159.2617 H   0  0  0  0  0  0  0  0  0  0  0  0  # atno 6907 bound_to 6896
  151.2237  135.0527  159.8970 H   0  0  0  0  0  0  0  0  0  0  0  0  # atno 6908 bound_to 6896
  152.5429  134.0660  159.8226 H   0  0  0  0  0  0  0  0  0  0  0  0  # atno 6909 bound_to 6896
  146.0699  140.6226  142.8957 H   0  0  0  0  0  0  0  0  0  0  0  0  # atno 7974 bound_to 7965
  155.7402  140.0813  157.2249 H   0  0  0  0  0  0  0  0  0  0  0  0  # atno 8008 bound_to 7997
  154.4023  140.1579  156.2662 H   0  0  0  0  0  0  0  0  0  0  0  0  # atno 8009 bound_to 7997
  155.9028  140.3409  155.6042 H   0  0  0  0  0  0  0  0  0  0  0  0  # atno 8010 bound_to 7997
  140.0741  144.5127  150.7206 H   0  0  0  0  0  0  0  0  0  0  0  0  # atno 10167 bound_to 10162
  157.1460  131.0552  151.2303 H   0  0  0  0  0  0  0  0  0  0  0  0  # atno 10718 bound_to 10713
  154.7242  135.3032  154.8998 H   0  0  0  0  0  0  0  0  0  0  0  0  # atno 10763 bound_to 10752
  153.9860  135.6724  153.4756 H   0  0  0  0  0  0  0  0  0  0  0  0  # atno 10764 bound_to 10752
  153.0860  135.4984  154.8517 H   0  0  0  0  0  0  0  0  0  0  0  0  # atno 10765 bound_to 10752
  140.8241  133.8046  155.9690 H   0  0  0  0  0  0  0  0  0  0  0  0  # atno 11005 bound_to 11000
  144.7225  140.4419  143.6997 LP  0  0  0  0  0  0  0  0  0  0  0  0  # atno 17320 bound_to 7965
  145.6410  139.1550  143.2915 LP  0  0  0  0  0  0  0  0  0  0  0  0  # atno 17321 bound_to 7965
  140.7111  143.2505  151.4579 LP  0  0  0  0  0  0  0  0  0  0  0  0  # atno 17342 bound_to 10162
  139.5818  144.1692  152.1978 LP  0  0  0  0  0  0  0  0  0  0  0  0  # atno 17343 bound_to 10162
  157.4264  130.7466  149.6954 LP  0  0  0  0  0  0  0  0  0  0  0  0  # atno 17370 bound_to 10713
  155.9779  130.4057  150.3681 LP  0  0  0  0  0  0  0  0  0  0  0  0  # atno 17371 bound_to 10713
  140.9068  134.2310  157.5010 LP  0  0  0  0  0  0  0  0  0  0  0  0  # atno 17394 bound_to 11000
  139.8707  134.9732  156.4800 LP  0  0  0  0  0  0  0  0  0  0  0  0  # atno 17395 bound_to 11000

$$$$
