AV-unprocessed.smi:2346|AV-procd|sdf|9367|dock9
  -GOLD-   2272012593D 1   1.00000     0.00000
 Structure written by MMmdl.
 45 47  0  0  0  0  0  0  0  0  2 V2000
  149.1838  132.8797  157.6006 C   0  0  0  0  0  0  0  0  0  0  0  0
  149.3340  134.2781  157.7958 O   0  0  0  0  0  0  0  0  0  0  0  0
  148.7510  134.8515  158.9073 C   0  0  0  0  0  0  0  0  0  0  0  0
  148.0257  134.1175  159.8803 C   0  0  0  0  0  0  0  0  0  0  0  0
  147.4570  134.7692  160.9918 C   0  0  0  0  0  0  0  0  0  0  0  0
  146.7139  134.0080  161.9820 C   0  0  0  0  0  0  0  0  0  0  0  0
  146.1226  133.4021  162.7707 N   0  0  0  0  0  0  0  0  0  0  0  0
  147.6084  136.1600  161.1405 C   0  0  0  0  0  0  0  0  0  0  0  0
  148.3269  136.8961  160.1815 C   0  0  0  0  0  0  0  0  0  0  0  0
  148.9036  136.2490  159.0597 C   0  0  0  0  0  0  0  0  0  0  0  0
  149.6208  136.9076  158.0822 O   0  0  0  0  0  0  0  0  0  0  0  0
  149.9565  138.2713  158.2904 C   0  0  0  0  0  0  0  0  0  0  0  0
  150.7259  138.7717  157.0626 C   0  0  0  0  0  0  0  0  0  0  0  0
  150.7666  140.2391  157.0058 N   0  0  0  0  0  0  0  0  0  0  0  0
  150.2270  141.1038  156.0976 C   0  0  0  0  0  0  0  0  0  0  0  0
  149.4050  140.7486  154.8961 C   0  0  2  0  0  0  0  0  0  0  0  0
  148.1209  140.0001  155.2836 C   0  0  0  0  0  0  0  0  0  0  0  0
  150.1333  139.9542  153.9855 O   0  0  0  0  0  0  0  0  0  0  0  0
  150.5341  142.3652  156.5160 N   0  3  0  0  0  0  0  0  0  0  0  0
  151.3017  142.3066  157.6792 C   0  0  0  0  0  0  0  0  0  0  0  0
  151.8550  143.3185  158.4575 C   0  0  0  0  0  0  0  0  0  0  0  0
  152.5943  142.9141  159.5884 C   0  0  0  0  0  0  0  0  0  0  0  0
  152.7597  141.5507  159.9082 C   0  0  0  0  0  0  0  0  0  0  0  0
  152.1906  140.5337  159.1129 C   0  0  0  0  0  0  0  0  0  0  0  0
  151.4599  140.9424  157.9973 C   0  0  0  0  0  0  0  0  0  0  0  0
  149.6997  132.5879  156.6859 H   0  0  0  0  0  0  0  0  0  0  0  0
  148.1346  132.6027  157.4894 H   0  0  0  0  0  0  0  0  0  0  0  0
  149.6233  132.3122  158.4220 H   0  0  0  0  0  0  0  0  0  0  0  0
  147.8945  133.0494  159.7904 H   0  0  0  0  0  0  0  0  0  0  0  0
  147.1750  136.6704  161.9888 H   0  0  0  0  0  0  0  0  0  0  0  0
  148.4199  137.9610  160.3307 H   0  0  0  0  0  0  0  0  0  0  0  0
  149.0537  138.8673  158.4327 H   0  0  0  0  0  0  0  0  0  0  0  0
  150.5795  138.3741  159.1806 H   0  0  0  0  0  0  0  0  0  0  0  0
  151.7541  138.4097  157.0881 H   0  0  0  0  0  0  0  0  0  0  0  0
  150.2905  138.3871  156.1400 H   0  0  0  0  0  0  0  0  0  0  0  0
  149.1214  141.6658  154.3799 H   0  0  0  0  0  0  0  0  0  0  0  0
  147.5129  140.5943  155.9667 H   0  0  0  0  0  0  0  0  0  0  0  0
  148.3389  139.0493  155.7710 H   0  0  0  0  0  0  0  0  0  0  0  0
  147.5119  139.7871  154.4044 H   0  0  0  0  0  0  0  0  0  0  0  0
  149.6532  139.9129  153.1722 H   0  0  0  0  0  0  0  0  0  0  0  0
  151.7303  144.3634  158.2136 H   0  0  0  0  0  0  0  0  0  0  0  0
  153.0438  143.6647  160.2226 H   0  0  0  0  0  0  0  0  0  0  0  0
  153.3339  141.2788  160.7821 H   0  0  0  0  0  0  0  0  0  0  0  0
  152.3243  139.4927  159.3674 H   0  0  0  0  0  0  0  0  0  0  0  0
  150.2395  143.2041  156.0328 H   0  0  0  0  0  0  0  0  0  0  0  0
  1  2  1  0  0  0  0
  1 26  1  0  0  0  0
  1 27  1  0  0  0  0
  1 28  1  0  0  0  0
  2  3  1  0  0  0  0
  3 10  1  0  0  0  0
  3  4  2  0  0  0  0
  4  5  1  0  0  0  0
  4 29  1  0  0  0  0
  5  6  1  0  0  0  0
  5  8  2  0  0  0  0
  6  7  3  0  0  0  0
  8  9  1  0  0  0  0
  8 30  1  0  0  0  0
  9 10  2  0  0  0  0
  9 31  1  0  0  0  0
 10 11  1  0  0  0  0
 11 12  1  0  0  0  0
 12 13  1  0  0  0  0
 12 32  1  0  0  0  0
 12 33  1  0  0  0  0
 13 14  1  0  0  0  0
 13 34  1  0  0  0  0
 13 35  1  0  0  0  0
 14 25  1  0  0  0  0
 14 15  1  0  0  0  0
 15 16  1  0  0  0  0
 15 19  2  0  0  0  0
 16 17  1  0  0  0  0
 16 18  1  0  0  0  0
 16 36  1  0  0  0  0
 17 37  1  0  0  0  0
 17 38  1  0  0  0  0
 17 39  1  0  0  0  0
 18 40  1  0  0  0  0
 19 20  1  0  0  0  0
 19 45  1  0  0  0  0
 20 25  2  0  0  0  0
 20 21  1  0  0  0  0
 21 22  2  0  0  0  0
 21 41  1  0  0  0  0
 22 23  1  0  0  0  0
 22 42  1  0  0  0  0
 23 24  2  0  0  0  0
 23 43  1  0  0  0  0
 24 25  1  0  0  0  0
 24 44  1  0  0  0  0
M  CHG  1  19   1
M  END
> <s_m_source_file>
AV-unprocessed.smi

> <i_m_source_file_index>
2346

> <i_lp_mmshare_version>
43012

> <i_f3d_flags>
0

> <s_epik_input>
W0NIM11PYzFbY0hdYyhDI04pW2NIXVtjSF1jMU9bQ0gyXVtDSDJdbihjKG4yKVtDQEhdKFtDSDNdKVtPSF0pYyhjMjMpW2NIXVtjSF1bY0hdW2NIXTM=

> <s_epik_cmdline>
J2VwaWtfcHl0aG9uJywgJy1waCcsICc3LjAnLCAnLXRuJywgJzgnLCAnLW1hJywgJzIwMCcsICctbWV0YWxfYmluZGluZycsICctaW1hZScsICc8aW5maWxlLm1hZT4nLCAnLW9tYWUnLCAnPG91dGZpbGUubWFlPic=

> <r_epik_Ionization_Penalty>
1.58928

> <r_epik_Ionization_Penalty_Charging>
1.58925

> <r_epik_Ionization_Penalty_Neutral>
2.92192e-05

> <r_epik_State_Penalty>
1.68649

> <r_epik_Charging_Adjusted_Penalty>
3.27574

> <i_epik_Tot_Q>
1

> <i_epik_Tot_abs_Q>
1

> <r_epik_Metal_State_Penalty>
5.74385

> <b_epik_Metal_Only>
0

> <s_lp_Force_Field>
OPLS_2005

> <r_lp_Energy>
24.6554

> <b_lp_Chiralities_Consistent>
1

> <s_lp_Variant>
AV-unprocessed.smi:2346-3

> <Gold.Version>
5.8.1

> <Gold.Id.Protein>
6NUR|6NUR_protein|mol2

> <Gold.PLP.Fitness>
53.1566

> <Gold.PLP.PLP>
-41.5636

> <Gold.PLP.part.hbond>
-4.4785

> <Gold.PLP.part.metal>
0.0000

> <Gold.PLP.part.buried>
-3.9916

> <Gold.PLP.part.nonpolar>
-34.4608

> <Gold.PLP.part.repulsive>
0.1187

> <Gold.PLP.ligand.clash>
0.0000

> <Gold.PLP.ligand.torsion>
0.1738

> <Gold.PLP.Chemscore.Hbond>
3.9440

> <Gold.PLP.Chemscore.CHOScore>
0.0000

> <Gold.PLP.Chemscore.Metal>
0.0000

> <Gold.Chemscore.Hbonds>
donor molecule, donor type, donor heavy atom, donor atom, acceptor molecule, acceptor atom, score
      L1  H    18    40       P1  7957  0.99
      L1  H    19    45       P1  8028  1.85
      P1  H  7989  7998       L1    18  0.96

> <Gold.PLP.Chemscore.Internal.Correction>
0.1086

> <Gold.Rescore>
     Score         DG    S(hbond)    S(metal)    S(lipo)     H(rot)  DE(clash)    DE(int)     intcor
     18.31     -18.65       2.37        0.00     102.71       2.65       0.01       0.33       ----

> <Gold.Chemscore.Fitness>
18.3090

> <Gold.Chemscore.DG>
-18.6527

> <Gold.Chemscore.ZeroCoef>
-5.4800

> <Gold.Chemscore.Hbond>
2.3746

> <Gold.Chemscore.Metal>
0.0000

> <Gold.Chemscore.Lipo>
102.7107

> <Gold.Chemscore.Internal_Hbond>
0.0000

> <Gold.Chemscore.DEClash>
0.0124

> <Gold.Chemscore.DEInternal>
0.3313

> <Gold.Chemscore.Rot>
2.6467

> <Gold.Chemscore.Internal.Correction>
   9.000000E+99

> <Gold.Chemscore.Hbonds>
donor molecule, donor type, donor heavy atom, donor atom, acceptor molecule, acceptor atom, score
      L1  H    18    40       P1  7957  0.89
      L1  H    19    45       P1  8028  0.86
      P1  H  7989  7998       L1    18  0.19

> <Gold.Chemscore.Hbond.Weighted>
-7.9312

> <Gold.Chemscore.Metal.Weighted>
-0.0000

> <Gold.Chemscore.Lipo.Weighted>
-12.0171

> <Gold.Chemscore.Internal_Hbond.Weighted>
0.0000

> <Gold.Chemscore.DEClash.Weighted>
0.0124

> <Gold.Chemscore.DEInternal.Weighted>
0.3313

> <Gold.Chemscore.Rot.Weighted>
6.7756

> <Gold.Chemscore.Internal.Correction.Weighted>
   9.000000E+99

> <Gold.Protein.RotatedTorsions>
[ 6907 6896 6895 6894 ] final  -89.96 input  -60.11 | X-H torsion
[ 7974 7965 7964 7962 ] final -175.64 input  175.53 | X-H torsion
[ 8008 7997 7996 7995 ] final  158.28 input   59.86 | X-H torsion
[ 10167 10162 10161 10158 ] final   42.65 input  -65.29 | X-H torsion
[ 10718 10713 10712 10709 ] final  -91.41 input   66.30 | X-H torsion
[ 10763 10752 10751 10750 ] final    6.94 input  -60.55 | X-H torsion
[ 11005 11000 10999 10996 ] final -103.44 input  -57.11 | X-H torsion

> <Gold.Protein.ActiveResidues>
 VAL166  LYS551  ARG553  GLY616  TRP617  ASP618  TYR619  PRO620  LYS621  CYS622 
 ASP623  PHE694  ASN695  SER759  ASP760  ASP761  ALA762  ILE779  LEU786  VAL792 
 PHE793  MET794  SER795  GLU796  ALA797  LYS798  CYS799  TRP800  GLU811  SER814 

> <Gold.Protein.RotatedAtoms>
  150.6878  134.2505  159.4508 H   0  0  0  0  0  0  0  0  0  0  0  0  # atno 6907 bound_to 6896
  152.0443  134.9690  160.0583 H   0  0  0  0  0  0  0  0  0  0  0  0  # atno 6908 bound_to 6896
  152.1179  133.4302  159.4698 H   0  0  0  0  0  0  0  0  0  0  0  0  # atno 6909 bound_to 6896
  144.7128  140.1291  143.6400 H   0  0  0  0  0  0  0  0  0  0  0  0  # atno 7974 bound_to 7965
  156.2313  140.1862  156.7236 H   0  0  0  0  0  0  0  0  0  0  0  0  # atno 8008 bound_to 7997
  154.6027  140.0633  156.9417 H   0  0  0  0  0  0  0  0  0  0  0  0  # atno 8009 bound_to 7997
  155.2148  140.3303  155.4326 H   0  0  0  0  0  0  0  0  0  0  0  0  # atno 8010 bound_to 7997
  140.3523  144.2335  150.6144 H   0  0  0  0  0  0  0  0  0  0  0  0  # atno 10167 bound_to 10162
  155.9993  130.4947  150.5470 H   0  0  0  0  0  0  0  0  0  0  0  0  # atno 10718 bound_to 10713
  153.2419  135.6904  153.7773 H   0  0  0  0  0  0  0  0  0  0  0  0  # atno 10763 bound_to 10752
  153.6900  135.3314  155.3200 H   0  0  0  0  0  0  0  0  0  0  0  0  # atno 10764 bound_to 10752
  154.8359  135.4543  154.1344 H   0  0  0  0  0  0  0  0  0  0  0  0  # atno 10765 bound_to 10752
  141.1145  133.8641  157.1487 H   0  0  0  0  0  0  0  0  0  0  0  0  # atno 11005 bound_to 11000
  145.9303  139.2602  143.1329 LP  0  0  0  0  0  0  0  0  0  0  0  0  # atno 17320 bound_to 7965
  145.9530  140.8894  143.0249 LP  0  0  0  0  0  0  0  0  0  0  0  0  # atno 17321 bound_to 7965
  140.5207  143.2266  151.8393 LP  0  0  0  0  0  0  0  0  0  0  0  0  # atno 17342 bound_to 10162
  139.4825  144.4840  151.9271 LP  0  0  0  0  0  0  0  0  0  0  0  0  # atno 17343 bound_to 10162
  157.3399  131.0715  151.1796 LP  0  0  0  0  0  0  0  0  0  0  0  0  # atno 17370 bound_to 10713
  157.2648  130.6676  149.5991 LP  0  0  0  0  0  0  0  0  0  0  0  0  # atno 17371 bound_to 10713
  140.0059  135.0008  157.0291 LP  0  0  0  0  0  0  0  0  0  0  0  0  # atno 17394 bound_to 11000
  140.4683  134.1412  155.7200 LP  0  0  0  0  0  0  0  0  0  0  0  0  # atno 17395 bound_to 11000

$$$$
