AV-unprocessed.smi:470|AV-procd|sdf|2654|dock9
  -GOLD-   2262023 63D 1   1.00000     0.00000
 Structure written by MMmdl.
 33 34  0  0  0  0  0  0  0  0  1 V2000
  149.8773  135.9605  154.7049 N   0  0  0  0  0  0  0  0  0  0  0  0
  150.8169  136.8425  155.0565 C   0  0  0  0  0  0  0  0  0  0  0  0
  151.5097  136.6996  156.0618 O   0  0  0  0  0  0  0  0  0  0  0  0
  151.0093  138.0587  154.1487 C   0  0  0  0  0  0  0  0  0  0  0  0
  150.4753  139.2937  154.8142 C   0  0  0  0  0  0  0  0  0  0  0  0
  149.1585  139.6712  154.9195 C   0  0  0  0  0  0  0  0  0  0  0  0
  148.9779  141.1890  155.7576 S   0  0  0  0  0  0  0  0  0  0  0  0
  150.7210  141.2348  155.9712 C   0  0  0  0  0  0  0  0  0  0  0  0
  151.3704  142.3278  156.6018 N   0  0  0  0  0  0  0  0  0  0  0  0
  150.9350  143.1744  157.5574 C   0  0  0  0  0  0  0  0  0  0  0  0
  149.8099  143.0186  158.0298 O   0  0  0  0  0  0  0  0  0  0  0  0
  151.8333  144.3121  158.1031 C   0  0  2  0  0  0  0  0  0  0  0  0
  153.0675  143.7756  158.8753 C   0  0  0  0  0  0  0  0  0  0  0  0
  152.7730  143.4190  160.3237 C   0  0  0  0  0  0  0  0  0  0  0  0
  151.6682  143.8187  160.9757 C   0  0  0  0  0  0  0  0  0  0  0  0
  150.5840  144.6676  160.3380 C   0  0  0  0  0  0  0  0  0  0  0  0
  151.0368  145.2892  159.0004 C   0  0  0  0  0  0  0  0  0  0  0  0
  151.3567  140.2008  155.4116 N   0  0  0  0  0  0  0  0  0  0  0  0
  149.7129  135.1473  155.2803 H   0  0  0  0  0  0  0  0  0  0  0  0
  149.3301  136.1129  153.8699 H   0  0  0  0  0  0  0  0  0  0  0  0
  152.0707  138.1741  153.9251 H   0  0  0  0  0  0  0  0  0  0  0  0
  150.5122  137.8820  153.1936 H   0  0  0  0  0  0  0  0  0  0  0  0
  148.2876  139.1540  154.5449 H   0  0  0  0  0  0  0  0  0  0  0  0
  152.3092  142.5043  156.2749 H   0  0  0  0  0  0  0  0  0  0  0  0
  152.2443  144.8579  157.2558 H   0  0  0  0  0  0  0  0  0  0  0  0
  153.4777  142.8971  158.3752 H   0  0  0  0  0  0  0  0  0  0  0  0
  153.8607  144.5237  158.8725 H   0  0  0  0  0  0  0  0  0  0  0  0
  153.5142  142.8254  160.8384 H   0  0  0  0  0  0  0  0  0  0  0  0
  151.5137  143.5217  162.0026 H   0  0  0  0  0  0  0  0  0  0  0  0
  149.7058  144.0388  160.1882 H   0  0  0  0  0  0  0  0  0  0  0  0
  150.2913  145.4562  161.0314 H   0  0  0  0  0  0  0  0  0  0  0  0
  151.6694  146.1522  159.2117 H   0  0  0  0  0  0  0  0  0  0  0  0
  150.1683  145.6843  158.4732 H   0  0  0  0  0  0  0  0  0  0  0  0
  1  2  1  0  0  0  0
  1 19  1  0  0  0  0
  1 20  1  0  0  0  0
  2  3  2  0  0  0  0
  2  4  1  0  0  0  0
  4  5  1  0  0  0  0
  4 21  1  0  0  0  0
  4 22  1  0  0  0  0
  5 18  1  0  0  0  0
  5  6  2  0  0  0  0
  6  7  1  0  0  0  0
  6 23  1  0  0  0  0
  7  8  1  0  0  0  0
  8  9  1  0  0  0  0
  8 18  2  0  0  0  0
  9 10  1  0  0  0  0
  9 24  1  0  0  0  0
 10 11  2  0  0  0  0
 10 12  1  0  0  0  0
 12 17  1  0  0  0  0
 12 13  1  0  0  0  0
 12 25  1  0  0  0  0
 13 14  1  0  0  0  0
 13 26  1  0  0  0  0
 13 27  1  0  0  0  0
 14 15  2  0  0  0  0
 14 28  1  0  0  0  0
 15 16  1  0  0  0  0
 15 29  1  0  0  0  0
 16 17  1  0  0  0  0
 16 30  1  0  0  0  0
 16 31  1  0  0  0  0
 17 32  1  0  0  0  0
 17 33  1  0  0  0  0
M  END
> <s_m_source_file>
AV-unprocessed.smi

> <i_m_source_file_index>
470

> <i_lp_mmshare_version>
43012

> <i_f3d_flags>
0

> <s_epik_input>
W05IMl1DKD1PKVtDSDJdYzFbY0hdc2MobjEpW05IXUMoPU8pW0NAQEhdMltDSDJdW0NIXT1bQ0hdW0NIMl1bQ0gyXTI=

> <s_epik_cmdline>
J2VwaWtfcHl0aG9uJywgJy1waCcsICc3LjAnLCAnLXRuJywgJzgnLCAnLW1hJywgJzIwMCcsICctbWV0YWxfYmluZGluZycsICctaW1hZScsICc8aW5maWxlLm1hZT4nLCAnLW9tYWUnLCAnPG91dGZpbGUubWFlPic=

> <r_lp_tautomer_probability>
1

> <r_epik_Ionization_Penalty>
0.00025496

> <r_epik_Ionization_Penalty_Charging>
0

> <r_epik_Ionization_Penalty_Neutral>
0.00025496

> <r_epik_State_Penalty>
-0

> <r_epik_Charging_Adjusted_Penalty>
0

> <i_epik_Tot_Q>
0

> <i_epik_Tot_abs_Q>
0

> <r_epik_Metal_State_Penalty>
0.149391

> <b_epik_Metal_Only>
0

> <s_lp_Force_Field>
OPLS_2005

> <r_lp_Energy>
11.789

> <b_lp_Chiralities_Consistent>
1

> <s_lp_Variant>
AV-unprocessed.smi:470-1

> <Gold.Version>
5.8.1

> <Gold.Id.Protein>
6NUR|6NUR_protein|mol2

> <Gold.PLP.Fitness>
44.5576

> <Gold.PLP.PLP>
-38.8768

> <Gold.PLP.part.hbond>
-3.4044

> <Gold.PLP.part.metal>
0.0000

> <Gold.PLP.part.buried>
-3.3503

> <Gold.PLP.part.nonpolar>
-33.5868

> <Gold.PLP.part.repulsive>
0.3918

> <Gold.PLP.ligand.clash>
0.0000

> <Gold.PLP.ligand.torsion>
0.6995

> <Gold.PLP.Chemscore.Hbond>
2.3500

> <Gold.PLP.Chemscore.CHOScore>
0.0000

> <Gold.PLP.Chemscore.Metal>
0.0000

> <Gold.Chemscore.Hbonds>
donor molecule, donor type, donor heavy atom, donor atom, acceptor molecule, acceptor atom, score
      L1  H     1    20       P1  7948  1.00
      P1  H  7989  7998       L1    18  0.24
      P1  H 10752 10765       L1     3  0.26

> <Gold.PLP.Chemscore.Internal.Correction>
0.0298

> <Gold.Rescore>
     Score         DG    S(hbond)    S(metal)    S(lipo)     H(rot)  DE(clash)    DE(int)     intcor
     12.91     -15.61       0.97        0.00     100.30       1.90       1.18       1.52       ----

> <Gold.Chemscore.Fitness>
12.9079

> <Gold.Chemscore.DG>
-15.6074

> <Gold.Chemscore.ZeroCoef>
-5.4800

> <Gold.Chemscore.Hbond>
0.9726

> <Gold.Chemscore.Metal>
0.0000

> <Gold.Chemscore.Lipo>
100.2964

> <Gold.Chemscore.Internal_Hbond>
0.0000

> <Gold.Chemscore.DEClash>
1.1779

> <Gold.Chemscore.DEInternal>
1.5217

> <Gold.Chemscore.Rot>
1.8968

> <Gold.Chemscore.Internal.Correction>
   9.000000E+99

> <Gold.Chemscore.Hbonds>
donor molecule, donor type, donor heavy atom, donor atom, acceptor molecule, acceptor atom, score
      L1  H     1    20       P1  7948  0.76
      P1  H 10752 10765       L1     3  0.02

> <Gold.Chemscore.Hbond.Weighted>
-3.2486

> <Gold.Chemscore.Metal.Weighted>
-0.0000

> <Gold.Chemscore.Lipo.Weighted>
-11.7347

> <Gold.Chemscore.Internal_Hbond.Weighted>
0.0000

> <Gold.Chemscore.DEClash.Weighted>
1.1779

> <Gold.Chemscore.DEInternal.Weighted>
1.5217

> <Gold.Chemscore.Rot.Weighted>
4.8558

> <Gold.Chemscore.Internal.Correction.Weighted>
   9.000000E+99

> <Gold.Protein.RotatedTorsions>
[ 6907 6896 6895 6894 ] final   71.13 input  -60.11 | X-H torsion
[ 7974 7965 7964 7962 ] final   39.44 input  175.53 | X-H torsion
[ 8008 7997 7996 7995 ] final  -13.56 input   59.86 | X-H torsion
[ 10167 10162 10161 10158 ] final  104.93 input  -65.29 | X-H torsion
[ 10718 10713 10712 10709 ] final  103.57 input   66.30 | X-H torsion
[ 10763 10752 10751 10750 ] final -160.32 input  -60.55 | X-H torsion
[ 11005 11000 10999 10996 ] final -165.12 input  -57.11 | X-H torsion

> <Gold.Protein.ActiveResidues>
 VAL166  LYS551  ARG553  GLY616  TRP617  ASP618  TYR619  PRO620  LYS621  CYS622 
 ASP623  PHE694  ASN695  SER759  ASP760  ASP761  ALA762  ILE779  LEU786  VAL792 
 PHE793  MET794  SER795  GLU796  ALA797  LYS798  CYS799  TRP800  GLU811  SER814 

> <Gold.Protein.RotatedAtoms>
  152.4791  134.4766  159.9652 H   0  0  0  0  0  0  0  0  0  0  0  0  # atno 6907 bound_to 6896
  151.4775  133.3548  159.2841 H   0  0  0  0  0  0  0  0  0  0  0  0  # atno 6908 bound_to 6896
  150.8851  134.8274  159.7314 H   0  0  0  0  0  0  0  0  0  0  0  0  # atno 6909 bound_to 6896
  146.0984  139.5651  142.9430 H   0  0  0  0  0  0  0  0  0  0  0  0  # atno 7974 bound_to 7965
  154.5282  140.2246  155.8852 H   0  0  0  0  0  0  0  0  0  0  0  0  # atno 8008 bound_to 7997
  156.1736  140.3116  155.8982 H   0  0  0  0  0  0  0  0  0  0  0  0  # atno 8009 bound_to 7997
  155.3507  140.0455  157.3036 H   0  0  0  0  0  0  0  0  0  0  0  0  # atno 8010 bound_to 7997
  139.7136  144.7073  151.0987 H   0  0  0  0  0  0  0  0  0  0  0  0  # atno 10167 bound_to 10162
  157.6768  131.0782  150.5575 H   0  0  0  0  0  0  0  0  0  0  0  0  # atno 10718 bound_to 10713
  154.7400  135.3066  154.8745 H   0  0  0  0  0  0  0  0  0  0  0  0  # atno 10763 bound_to 10752
  153.9562  135.6758  153.4749 H   0  0  0  0  0  0  0  0  0  0  0  0  # atno 10764 bound_to 10752
  153.1000  135.4917  154.8773 H   0  0  0  0  0  0  0  0  0  0  0  0  # atno 10765 bound_to 10752
  140.5793  134.5158  157.5175 H   0  0  0  0  0  0  0  0  0  0  0  0  # atno 11005 bound_to 11000
  145.5903  141.0370  143.2073 LP  0  0  0  0  0  0  0  0  0  0  0  0  # atno 17320 bound_to 7965
  144.7413  139.7441  143.7309 LP  0  0  0  0  0  0  0  0  0  0  0  0  # atno 17321 bound_to 7965
  140.7738  143.5260  150.9479 LP  0  0  0  0  0  0  0  0  0  0  0  0  # atno 17342 bound_to 10162
  139.8946  143.6911  152.3140 LP  0  0  0  0  0  0  0  0  0  0  0  0  # atno 17343 bound_to 10162
  156.5879  130.4321  149.5949 LP  0  0  0  0  0  0  0  0  0  0  0  0  # atno 17370 bound_to 10713
  156.2608  130.6961  151.1729 LP  0  0  0  0  0  0  0  0  0  0  0  0  # atno 17371 bound_to 10713
  139.9325  134.7937  156.0892 LP  0  0  0  0  0  0  0  0  0  0  0  0  # atno 17394 bound_to 11000
  141.1007  133.6678  156.2747 LP  0  0  0  0  0  0  0  0  0  0  0  0  # atno 17395 bound_to 11000

$$$$
