AV-unprocessed.smi:560|AV-procd|sdf|2934|dock5
  -GOLD-   2262023433D 1   1.00000     0.00000
 Structure written by MMmdl.
 41 42  0  0  0  0  0  0  0  0  3 V2000
  151.5634  139.4030  155.4328 C   0  0  0  0  0  0  0  0  0  0  0  0
  150.4543  140.2192  156.1272 C   0  0  2  0  0  0  0  0  0  0  0  0
  149.4372  140.8100  155.1371 C   0  0  0  0  0  0  0  0  0  0  0  0
  149.8114  141.3827  154.1132 O   0  0  0  0  0  0  0  0  0  0  0  0
  148.1423  140.6554  155.4566 N   0  0  0  0  0  0  0  0  0  0  0  0
  147.0106  141.1444  154.6711 C   0  0  2  0  0  0  0  0  0  0  0  0
  145.6846  140.6674  155.2877 C   0  0  0  0  0  0  0  0  0  0  0  0
  145.4674  139.1554  155.0933 C   0  0  0  0  0  0  0  0  0  0  0  0
  145.5488  138.7769  153.6597 N   0  3  2  0  0  0  0  0  0  0  0  0
  145.2121  137.3489  153.4364 C   0  0  0  0  0  0  0  0  0  0  0  0
  143.6967  137.1793  153.2850 C   0  0  0  0  0  0  0  0  0  0  0  0
  143.1946  137.9110  152.2718 N   0  5  0  0  0  0  0  0  0  0  0  0
  143.0878  136.4465  154.0621 O   0  0  0  0  0  0  0  0  0  0  0  0
  146.8516  139.1722  153.0594 C   0  0  0  0  0  0  0  0  0  0  0  0
  147.0923  140.6850  153.2023 C   0  0  0  0  0  0  0  0  0  0  0  0
  150.9998  141.2650  156.9854 N   0  0  0  0  0  0  0  0  0  0  0  0
  150.8519  142.6314  156.8571 C   0  0  0  0  0  0  0  0  0  0  0  0
  151.5600  143.2181  157.8663 C   0  0  0  0  0  0  0  0  0  0  0  0
  152.1248  142.1167  158.5674 C   0  0  0  0  0  0  0  0  0  0  0  0
  151.7952  140.9517  158.0348 N   0  0  0  0  0  0  0  0  0  0  0  0
  151.1418  138.5901  154.8407 H   0  0  0  0  0  0  0  0  0  0  0  0
  152.2340  138.9567  156.1676 H   0  0  0  0  0  0  0  0  0  0  0  0
  152.1686  140.0178  154.7654 H   0  0  0  0  0  0  0  0  0  0  0  0
  149.9063  139.5297  156.7715 H   0  0  0  0  0  0  0  0  0  0  0  0
  147.9264  140.1747  156.3177 H   0  0  0  0  0  0  0  0  0  0  0  0
  147.0250  142.2354  154.7023 H   0  0  0  0  0  0  0  0  0  0  0  0
  145.6480  140.9187  156.3486 H   0  0  0  0  0  0  0  0  0  0  0  0
  144.8593  141.2069  154.8207 H   0  0  0  0  0  0  0  0  0  0  0  0
  146.2057  138.5880  155.6621 H   0  0  0  0  0  0  0  0  0  0  0  0
  144.4880  138.8840  155.4889 H   0  0  0  0  0  0  0  0  0  0  0  0
  145.7708  136.9545  152.5846 H   0  0  0  0  0  0  0  0  0  0  0  0
  145.5090  136.7560  154.3026 H   0  0  0  0  0  0  0  0  0  0  0  0
  143.2379  138.9355  152.3279 H   0  0  0  0  0  0  0  0  0  0  0  0
  147.6593  138.6137  153.5351 H   0  0  0  0  0  0  0  0  0  0  0  0
  146.8744  138.9113  152.0011 H   0  0  0  0  0  0  0  0  0  0  0  0
  146.3420  141.2201  152.6188 H   0  0  0  0  0  0  0  0  0  0  0  0
  148.0559  140.9529  152.7674 H   0  0  0  0  0  0  0  0  0  0  0  0
  150.2602  143.0687  156.0665 H   0  0  0  0  0  0  0  0  0  0  0  0
  151.6615  144.2734  158.0718 H   0  0  0  0  0  0  0  0  0  0  0  0
  152.7627  142.1292  159.4389 H   0  0  0  0  0  0  0  0  0  0  0  0
  144.8321  139.3057  153.1827 H   0  0  0  0  0  0  0  0  0  0  0  0
  1  2  1  0  0  0  0
  1 21  1  0  0  0  0
  1 22  1  0  0  0  0
  1 23  1  0  0  0  0
  2  3  1  0  0  0  0
  2 16  1  0  0  0  0
  2 24  1  0  0  0  0
  3  4  2  0  0  0  0
  3  5  1  0  0  0  0
  5  6  1  0  0  0  0
  5 25  1  0  0  0  0
  6 15  1  0  0  0  0
  6  7  1  0  0  0  0
  6 26  1  0  0  0  0
  7  8  1  0  0  0  0
  7 27  1  0  0  0  0
  7 28  1  0  0  0  0
  8  9  1  0  0  0  0
  8 29  1  0  0  0  0
  8 30  1  0  0  0  0
  9 10  1  0  0  0  0
  9 14  1  0  0  0  0
  9 41  1  0  0  0  0
 10 11  1  0  0  0  0
 10 31  1  0  0  0  0
 10 32  1  0  0  0  0
 11 12  1  0  0  0  0
 11 13  2  0  0  0  0
 12 33  1  0  0  0  0
 14 15  1  0  0  0  0
 14 34  1  0  0  0  0
 14 35  1  0  0  0  0
 15 36  1  0  0  0  0
 15 37  1  0  0  0  0
 16 20  1  0  0  0  0
 16 17  1  0  0  0  0
 17 18  2  0  0  0  0
 17 38  1  0  0  0  0
 18 19  1  0  0  0  0
 18 39  1  0  0  0  0
 19 20  2  0  0  0  0
 19 40  1  0  0  0  0
M  CHG  1   9   1
M  CHG  1  12  -1
M  END
> <s_m_source_file>
AV-unprocessed.smi

> <i_m_source_file_index>
560

> <i_lp_mmshare_version>
43012

> <i_f3d_flags>
0

> <s_epik_input>
bjFbY0hdW2NIXVtjSF1uMVtDQEhdKFtDSDNdKUMoPU8pW05IXVtDSF0yW0NIMl1bQ0gyXU4oW0NIMl1bQ0gyXTIpW0NIMl1DKD1PKVtOSDJd

> <s_epik_cmdline>
J2VwaWtfcHl0aG9uJywgJy1waCcsICc3LjAnLCAnLXRuJywgJzgnLCAnLW1hJywgJzIwMCcsICctbWV0YWxfYmluZGluZycsICctaW1hZScsICc8aW5maWxlLm1hZT4nLCAnLW9tYWUnLCAnPG91dGZpbGUubWFlPic=

> <r_lp_tautomer_probability>
1

> <r_epik_Ionization_Penalty>
5.71084

> <r_epik_Ionization_Penalty_Charging>
5.71081

> <r_epik_Ionization_Penalty_Neutral>
3.04611e-05

> <r_epik_State_Penalty>
6.71277

> <r_epik_Charging_Adjusted_Penalty>
12.4236

> <i_epik_Tot_Q>
0

> <i_epik_Tot_abs_Q>
2

> <r_epik_Metal_State_Penalty>
2.67562

> <b_epik_Metal_Only>
1

> <s_lp_Force_Field>
OPLS_2005

> <r_lp_Energy>
9.92131

> <b_lp_Chiralities_Consistent>
1

> <s_lp_Variant>
AV-unprocessed.smi:560-9

> <Gold.Version>
5.8.1

> <Gold.Id.Protein>
6NUR|6NUR_protein|mol2

> <Gold.PLP.Fitness>
43.3690

> <Gold.PLP.PLP>
-30.2808

> <Gold.PLP.part.hbond>
-4.9982

> <Gold.PLP.part.metal>
0.0000

> <Gold.PLP.part.buried>
-1.2396

> <Gold.PLP.part.nonpolar>
-24.4758

> <Gold.PLP.part.repulsive>
0.2818

> <Gold.PLP.ligand.clash>
0.0000

> <Gold.PLP.ligand.torsion>
0.9357

> <Gold.PLP.Chemscore.Hbond>
3.9383

> <Gold.PLP.Chemscore.CHOScore>
1.0000

> <Gold.PLP.Chemscore.Metal>
0.0000

> <Gold.Chemscore.Hbonds>
donor molecule, donor type, donor heavy atom, donor atom, acceptor molecule, acceptor atom, score
      L1  H     9    41       P1 10175  2.00
      L1  H    12    33       P1 10175  1.00
      P1  H  7989  7998       L1     4  0.30
      P1  H  8011  8017       L1     4  0.62
      L1  C    17    38       P1  8028  1.00

> <Gold.PLP.Chemscore.Internal.Correction>
0.1448

> <Gold.Rescore>
     Score         DG    S(hbond)    S(metal)    S(lipo)     H(rot)  DE(clash)    DE(int)     intcor
     13.95     -17.45       3.06        0.00      69.06       2.47       1.35       2.15       ----

> <Gold.Chemscore.Fitness>
13.9472

> <Gold.Chemscore.DG>
-17.4451

> <Gold.Chemscore.ZeroCoef>
-5.4800

> <Gold.Chemscore.Hbond>
3.0591

> <Gold.Chemscore.Metal>
0.0000

> <Gold.Chemscore.Lipo>
69.0568

> <Gold.Chemscore.Internal_Hbond>
0.0000

> <Gold.Chemscore.DEClash>
1.3499

> <Gold.Chemscore.DEInternal>
2.1480

> <Gold.Chemscore.Rot>
2.4734

> <Gold.Chemscore.Internal.Correction>
   9.000000E+99

> <Gold.Chemscore.Hbonds>
donor molecule, donor type, donor heavy atom, donor atom, acceptor molecule, acceptor atom, score
      L1  H     9    41       P1 10175  1.00
      L1  H    12    33       P1 10175  0.95
      P1  H  7989  7998       L1     4  0.27
      P1  H  8011  8017       L1     4  0.59

> <Gold.Chemscore.Hbond.Weighted>
-10.2173

> <Gold.Chemscore.Metal.Weighted>
-0.0000

> <Gold.Chemscore.Lipo.Weighted>
-8.0796

> <Gold.Chemscore.Internal_Hbond.Weighted>
0.0000

> <Gold.Chemscore.DEClash.Weighted>
1.3499

> <Gold.Chemscore.DEInternal.Weighted>
2.1480

> <Gold.Chemscore.Rot.Weighted>
6.3318

> <Gold.Chemscore.Internal.Correction.Weighted>
   9.000000E+99

> <Gold.Protein.RotatedTorsions>
[ 6907 6896 6895 6894 ] final  153.31 input  -60.11 | X-H torsion
[ 7974 7965 7964 7962 ] final  179.15 input  175.53 | X-H torsion
[ 8008 7997 7996 7995 ] final -115.08 input   59.86 | X-H torsion
[ 10167 10162 10161 10158 ] final -109.98 input  -65.29 | X-H torsion
[ 10718 10713 10712 10709 ] final -152.74 input   66.30 | X-H torsion
[ 10763 10752 10751 10750 ] final  147.01 input  -60.55 | X-H torsion
[ 11005 11000 10999 10996 ] final  -66.94 input  -57.11 | X-H torsion

> <Gold.Protein.ActiveResidues>
 VAL166  LYS551  ARG553  GLY616  TRP617  ASP618  TYR619  PRO620  LYS621  CYS622 
 ASP623  PHE694  ASN695  SER759  ASP760  ASP761  ALA762  ILE779  LEU786  VAL792 
 PHE793  MET794  SER795  GLU796  ALA797  LYS798  CYS799  TRP800  GLU811  SER814 

> <Gold.Protein.RotatedAtoms>
  152.0745  133.4122  159.4473 H   0  0  0  0  0  0  0  0  0  0  0  0  # atno 6907 bound_to 6896
  150.6863  134.3054  159.4733 H   0  0  0  0  0  0  0  0  0  0  0  0  # atno 6908 bound_to 6896
  152.0889  134.9420  160.0623 H   0  0  0  0  0  0  0  0  0  0  0  0  # atno 6909 bound_to 6896
  144.7148  140.0505  143.6435 H   0  0  0  0  0  0  0  0  0  0  0  0  # atno 7974 bound_to 7965
  155.0464  140.0392  157.2528 H   0  0  0  0  0  0  0  0  0  0  0  0  # atno 8008 bound_to 7997
  154.7174  140.2705  155.6549 H   0  0  0  0  0  0  0  0  0  0  0  0  # atno 8009 bound_to 7997
  156.2807  140.2709  156.1834 H   0  0  0  0  0  0  0  0  0  0  0  0  # atno 8010 bound_to 7997
  140.1494  143.4212  152.1506 H   0  0  0  0  0  0  0  0  0  0  0  0  # atno 10167 bound_to 10162
  156.4765  130.8283  151.2511 H   0  0  0  0  0  0  0  0  0  0  0  0  # atno 10718 bound_to 10713
  154.0312  135.2897  155.3368 H   0  0  0  0  0  0  0  0  0  0  0  0  # atno 10763 bound_to 10752
  154.6987  135.5197  153.8498 H   0  0  0  0  0  0  0  0  0  0  0  0  # atno 10764 bound_to 10752
  153.0639  135.6624  154.0525 H   0  0  0  0  0  0  0  0  0  0  0  0  # atno 10765 bound_to 10752
  141.1495  133.6709  156.6216 H   0  0  0  0  0  0  0  0  0  0  0  0  # atno 11005 bound_to 11000
  145.9948  139.3044  143.0963 LP  0  0  0  0  0  0  0  0  0  0  0  0  # atno 17320 bound_to 7965
  145.8861  140.9333  143.0576 LP  0  0  0  0  0  0  0  0  0  0  0  0  # atno 17321 bound_to 7965
  139.5433  144.7276  151.4663 LP  0  0  0  0  0  0  0  0  0  0  0  0  # atno 17342 bound_to 10162
  140.6712  143.8290  150.7001 LP  0  0  0  0  0  0  0  0  0  0  0  0  # atno 17343 bound_to 10162
  157.7487  131.0059  150.3131 LP  0  0  0  0  0  0  0  0  0  0  0  0  # atno 17370 bound_to 10713
  156.3565  130.3840  149.7286 LP  0  0  0  0  0  0  0  0  0  0  0  0  # atno 17371 bound_to 10713
  140.3536  134.7747  157.4484 LP  0  0  0  0  0  0  0  0  0  0  0  0  # atno 17394 bound_to 11000
  140.0841  134.5691  155.8510 LP  0  0  0  0  0  0  0  0  0  0  0  0  # atno 17395 bound_to 11000

$$$$
