AV-unprocessed.smi:948|AV-procd|sdf|4241|dock7
  -GOLD-   22720 2153D 1   1.00000     0.00000
 Structure written by MMmdl.
 19 19  0  0  0  0  0  0  0  0  3 V2000
  146.5553  137.7320  151.0861 N   0  3  0  0  0  0  0  0  0  0  0  0
  146.7072  139.1122  151.5788 C   0  0  0  0  0  0  0  0  0  0  0  0
  147.1118  139.1392  153.0605 C   0  0  0  0  0  0  0  0  0  0  0  0
  147.2505  140.5360  153.5724 C   0  0  0  0  0  0  0  0  0  0  0  0
  148.3207  141.2026  154.1175 C   0  0  0  0  0  0  0  0  0  0  0  0
  147.8929  142.4684  154.4163 N   0  0  0  0  0  0  0  0  0  0  0  0
  146.6084  142.6091  154.0793 C   0  0  0  0  0  0  0  0  0  0  0  0
  146.2161  141.4385  153.5664 N   0  3  0  0  0  0  0  0  0  0  0  0
  148.4630  143.1940  154.8339 H   0  0  0  0  0  0  0  0  0  0  0  0
  147.2992  137.1577  151.4575 H   0  0  0  0  0  0  0  0  0  0  0  0
  146.5989  137.7227  150.0770 H   0  0  0  0  0  0  0  0  0  0  0  0
  147.4591  139.6175  150.9715 H   0  0  0  0  0  0  0  0  0  0  0  0
  145.7648  139.6408  151.4307 H   0  0  0  0  0  0  0  0  0  0  0  0
  146.3720  138.6134  153.6659 H   0  0  0  0  0  0  0  0  0  0  0  0
  148.0604  138.6194  153.2016 H   0  0  0  0  0  0  0  0  0  0  0  0
  149.3326  140.8769  154.3124 H   0  0  0  0  0  0  0  0  0  0  0  0
  146.0064  143.4922  154.1994 H   0  0  0  0  0  0  0  0  0  0  0  0
  145.6657  137.3596  151.3869 H   0  0  0  0  0  0  0  0  0  0  0  0
  145.2811  141.2489  153.2276 H   0  0  0  0  0  0  0  0  0  0  0  0
  1  2  1  0  0  0  0
  1 10  1  0  0  0  0
  1 11  1  0  0  0  0
  1 18  1  0  0  0  0
  2  3  1  0  0  0  0
  2 12  1  0  0  0  0
  2 13  1  0  0  0  0
  3  4  1  0  0  0  0
  3 14  1  0  0  0  0
  3 15  1  0  0  0  0
  4  8  1  0  0  0  0
  4  5  2  0  0  0  0
  5  6  1  0  0  0  0
  5 16  1  0  0  0  0
  6  9  1  0  0  0  0
  6  7  1  0  0  0  0
  7  8  2  0  0  0  0
  7 17  1  0  0  0  0
  8 19  1  0  0  0  0
M  CHG  1   1   1
M  CHG  1   8   1
M  END
> <s_m_source_file>
AV-unprocessed.smi

> <i_m_source_file_index>
948

> <i_lp_mmshare_version>
43012

> <i_f3d_flags>
0

> <s_epik_input>
W05IMl1bQ0gyXVtDSDJdYzFbY0hdW25IXVtjSF1uMQ==

> <s_epik_cmdline>
J2VwaWtfcHl0aG9uJywgJy1waCcsICc3LjAnLCAnLXRuJywgJzgnLCAnLW1hJywgJzIwMCcsICctbWV0YWxfYmluZGluZycsICctaW1hZScsICc8aW5maWxlLm1hZT4nLCAnLW9tYWUnLCAnPG91dGZpbGUubWFlPic=

> <r_lp_tautomer_probability>
1

> <r_epik_Ionization_Penalty>
2.37896

> <r_epik_Ionization_Penalty_Charging>
0.0086666

> <r_epik_Ionization_Penalty_Neutral>
2.3703

> <r_epik_State_Penalty>
1.3316

> <r_epik_Charging_Adjusted_Penalty>
1.34027

> <i_epik_Tot_Q>
2

> <i_epik_Tot_abs_Q>
2

> <r_epik_Metal_State_Penalty>
5.35027

> <b_epik_Metal_Only>
0

> <s_lp_Force_Field>
OPLS_2005

> <r_lp_Energy>
12.2927

> <b_lp_Chiralities_Consistent>
1

> <s_lp_Variant>
AV-unprocessed.smi:948-3

> <Gold.Version>
5.8.1

> <Gold.Id.Protein>
6NUR|6NUR_protein|mol2

> <Gold.PLP.Fitness>
38.8638

> <Gold.PLP.PLP>
-20.8644

> <Gold.PLP.part.hbond>
-3.9641

> <Gold.PLP.part.metal>
0.0000

> <Gold.PLP.part.buried>
-2.5693

> <Gold.PLP.part.nonpolar>
-15.7761

> <Gold.PLP.part.repulsive>
0.9060

> <Gold.PLP.ligand.clash>
0.0000

> <Gold.PLP.ligand.torsion>
0.0003

> <Gold.PLP.Chemscore.Hbond>
6.0000

> <Gold.PLP.Chemscore.CHOScore>
0.0000

> <Gold.PLP.Chemscore.Metal>
0.0000

> <Gold.Chemscore.Hbonds>
donor molecule, donor type, donor heavy atom, donor atom, acceptor molecule, acceptor atom, score
      L1  H     1    10       P1  7948  2.00
      L1  H     6     9       P1  8028  2.00
      L1  H     8    19       P1 10175  1.80

> <Gold.PLP.Chemscore.Internal.Correction>
0.0000

> <Gold.Rescore>
     Score         DG    S(hbond)    S(metal)    S(lipo)     H(rot)  DE(clash)    DE(int)     intcor
     14.74     -14.75       2.85        0.00      31.49       1.53       0.00       0.00       ----

> <Gold.Chemscore.Fitness>
14.7394

> <Gold.Chemscore.DG>
-14.7462

> <Gold.Chemscore.ZeroCoef>
-5.4800

> <Gold.Chemscore.Hbond>
2.8472

> <Gold.Chemscore.Metal>
0.0000

> <Gold.Chemscore.Lipo>
31.4949

> <Gold.Chemscore.Internal_Hbond>
0.0000

> <Gold.Chemscore.DEClash>
0.0025

> <Gold.Chemscore.DEInternal>
0.0043

> <Gold.Chemscore.Rot>
1.5345

> <Gold.Chemscore.Internal.Correction>
   9.000000E+99

> <Gold.Chemscore.Hbonds>
donor molecule, donor type, donor heavy atom, donor atom, acceptor molecule, acceptor atom, score
      L1  H     1    10       P1  7948  1.00
      L1  H     6     9       P1  8028  0.99
      L1  H     8    19       P1 10175  0.18

> <Gold.Chemscore.Hbond.Weighted>
-9.5097

> <Gold.Chemscore.Metal.Weighted>
-0.0000

> <Gold.Chemscore.Lipo.Weighted>
-3.6849

> <Gold.Chemscore.Internal_Hbond.Weighted>
0.0000

> <Gold.Chemscore.DEClash.Weighted>
0.0025

> <Gold.Chemscore.DEInternal.Weighted>
0.0043

> <Gold.Chemscore.Rot.Weighted>
3.9284

> <Gold.Chemscore.Internal.Correction.Weighted>
   9.000000E+99

> <Gold.Protein.RotatedTorsions>
[ 6907 6896 6895 6894 ] final  -51.28 input  -60.11 | X-H torsion
[ 7974 7965 7964 7962 ] final  142.96 input  175.53 | X-H torsion
[ 8008 7997 7996 7995 ] final   28.65 input   59.86 | X-H torsion
[ 10167 10162 10161 10158 ] final  -74.41 input  -65.29 | X-H torsion
[ 10718 10713 10712 10709 ] final   75.25 input   66.30 | X-H torsion
[ 10763 10752 10751 10750 ] final   69.75 input  -60.55 | X-H torsion
[ 11005 11000 10999 10996 ] final  -80.20 input  -57.11 | X-H torsion

> <Gold.Protein.ActiveResidues>
 VAL166  LYS551  ARG553  GLY616  TRP617  ASP618  TYR619  PRO620  LYS621  CYS622 
 ASP623  PHE694  ASN695  SER759  ASP760  ASP761  ALA762  ILE779  LEU786  VAL792 
 PHE793  MET794  SER795  GLU796  ALA797  LYS798  CYS799  TRP800  GLU811  SER814 

> <Gold.Protein.RotatedAtoms>
  150.8627  134.7982  159.7094 H   0  0  0  0  0  0  0  0  0  0  0  0  # atno 6907 bound_to 6896
  152.4658  134.5074  159.9753 H   0  0  0  0  0  0  0  0  0  0  0  0  # atno 6908 bound_to 6896
  151.5176  133.3434  159.2931 H   0  0  0  0  0  0  0  0  0  0  0  0  # atno 6909 bound_to 6896
  144.8962  139.5487  143.5775 H   0  0  0  0  0  0  0  0  0  0  0  0  # atno 7974 bound_to 7965
  155.0621  140.3191  155.4657 H   0  0  0  0  0  0  0  0  0  0  0  0  # atno 8008 bound_to 7997
  156.2810  140.2127  156.5692 H   0  0  0  0  0  0  0  0  0  0  0  0  # atno 8009 bound_to 7997
  154.7124  140.0497  157.0550 H   0  0  0  0  0  0  0  0  0  0  0  0  # atno 8010 bound_to 7997
  140.5029  143.2358  151.7722 H   0  0  0  0  0  0  0  0  0  0  0  0  # atno 10167 bound_to 10162
  157.6626  130.9717  150.1326 H   0  0  0  0  0  0  0  0  0  0  0  0  # atno 10718 bound_to 10713
  153.0304  135.5199  154.7335 H   0  0  0  0  0  0  0  0  0  0  0  0  # atno 10763 bound_to 10752
  154.6356  135.2906  155.0167 H   0  0  0  0  0  0  0  0  0  0  0  0  # atno 10764 bound_to 10752
  154.1103  135.6623  153.4936 H   0  0  0  0  0  0  0  0  0  0  0  0  # atno 10765 bound_to 10752
  141.1668  133.7140  156.8237 H   0  0  0  0  0  0  0  0  0  0  0  0  # atno 11005 bound_to 11000
  146.3082  139.7654  142.9040 LP  0  0  0  0  0  0  0  0  0  0  0  0  # atno 17320 bound_to 7965
  145.3696  141.0340  143.3238 LP  0  0  0  0  0  0  0  0  0  0  0  0  # atno 17321 bound_to 7965
  139.4876  144.4497  151.9668 LP  0  0  0  0  0  0  0  0  0  0  0  0  # atno 17342 bound_to 10162
  140.3587  144.3000  150.5937 LP  0  0  0  0  0  0  0  0  0  0  0  0  # atno 17343 bound_to 10162
  156.2169  130.3671  149.8602 LP  0  0  0  0  0  0  0  0  0  0  0  0  # atno 17370 bound_to 10713
  156.6466  130.8726  151.3523 LP  0  0  0  0  0  0  0  0  0  0  0  0  # atno 17371 bound_to 10713
  140.2100  134.8834  157.3264 LP  0  0  0  0  0  0  0  0  0  0  0  0  # atno 17394 bound_to 11000
  140.2096  134.4154  155.7619 LP  0  0  0  0  0  0  0  0  0  0  0  0  # atno 17395 bound_to 11000

$$$$
