AV-unprocessed.smi:1666|AV-procd|sdf|6672|dock7
  -GOLD-   22720 7383D 1   1.00000     0.00000
 Structure written by MMmdl.
 40 41  0  0  0  0  0  0  0  0  2 V2000
  152.8170  140.6245  159.9521 C   0  0  0  0  0  0  0  0  0  0  0  0
  152.3095  141.8390  159.1916 C   0  0  0  0  0  0  0  0  0  0  0  0
  152.4484  143.1204  159.7659 C   0  0  0  0  0  0  0  0  0  0  0  0
  151.9794  144.2423  159.0614 C   0  0  0  0  0  0  0  0  0  0  0  0
  151.3869  144.0340  157.8043 C   0  0  0  0  0  0  0  0  0  0  0  0
  151.2502  142.8133  157.2477 N   0  0  0  0  0  0  0  0  0  0  0  0
  151.6987  141.7199  157.9143 C   0  0  0  0  0  0  0  0  0  0  0  0
  151.5874  140.4019  157.3885 N   0  0  0  0  0  0  0  0  0  0  0  0
  151.0769  140.0137  156.2066 C   0  0  0  0  0  0  0  0  0  0  0  0
  150.6097  140.7629  155.3479 O   0  0  0  0  0  0  0  0  0  0  0  0
  151.1330  138.6814  156.0665 N   0  0  0  0  0  0  0  0  0  0  0  0
  150.6586  137.9494  154.8981 C   0  0  0  0  0  0  0  0  0  0  0  0
  149.1244  137.8076  154.9070 C   0  0  0  0  0  0  0  0  0  0  0  0
  148.6812  136.4311  154.5746 N   0  3  0  0  0  0  0  0  0  0  0  0
  149.5201  135.3963  155.2254 C   0  0  0  0  0  0  0  0  0  0  0  0
  149.0546  133.9883  154.8174 C   0  0  0  0  0  0  0  0  0  0  0  0
  147.6830  133.8237  155.1541 O   0  0  0  0  0  0  0  0  0  0  0  0
  146.8528  134.7526  154.4686 C   0  0  0  0  0  0  0  0  0  0  0  0
  147.2455  136.1868  154.8620 C   0  0  0  0  0  0  0  0  0  0  0  0
  153.2368  140.9077  160.9179 H   0  0  0  0  0  0  0  0  0  0  0  0
  153.5968  140.1169  159.3839 H   0  0  0  0  0  0  0  0  0  0  0  0
  152.0050  139.9198  160.1340 H   0  0  0  0  0  0  0  0  0  0  0  0
  152.9089  143.2455  160.7350 H   0  0  0  0  0  0  0  0  0  0  0  0
  152.0714  145.2362  159.4737 H   0  0  0  0  0  0  0  0  0  0  0  0
  151.0127  144.8682  157.2296 H   0  0  0  0  0  0  0  0  0  0  0  0
  151.9382  139.6691  157.9870 H   0  0  0  0  0  0  0  0  0  0  0  0
  151.5328  138.1378  156.8178 H   0  0  0  0  0  0  0  0  0  0  0  0
  151.0099  138.4520  153.9966 H   0  0  0  0  0  0  0  0  0  0  0  0
  151.1229  136.9629  154.9042 H   0  0  0  0  0  0  0  0  0  0  0  0
  148.7679  138.0669  155.9052 H   0  0  0  0  0  0  0  0  0  0  0  0
  148.6576  138.5160  154.2209 H   0  0  0  0  0  0  0  0  0  0  0  0
  150.5645  135.5324  154.9420 H   0  0  0  0  0  0  0  0  0  0  0  0
  149.4642  135.5088  156.3094 H   0  0  0  0  0  0  0  0  0  0  0  0
  149.2024  133.8224  153.7490 H   0  0  0  0  0  0  0  0  0  0  0  0
  149.6400  133.2322  155.3410 H   0  0  0  0  0  0  0  0  0  0  0  0
  146.9360  134.6074  153.3902 H   0  0  0  0  0  0  0  0  0  0  0  0
  145.8136  134.5609  154.7364 H   0  0  0  0  0  0  0  0  0  0  0  0
  147.0525  136.3452  155.9244 H   0  0  0  0  0  0  0  0  0  0  0  0
  146.6198  136.8923  154.3166 H   0  0  0  0  0  0  0  0  0  0  0  0
  148.8098  136.3166  153.5792 H   0  0  0  0  0  0  0  0  0  0  0  0
  1  2  1  0  0  0  0
  1 20  1  0  0  0  0
  1 21  1  0  0  0  0
  1 22  1  0  0  0  0
  2  7  1  0  0  0  0
  2  3  2  0  0  0  0
  3  4  1  0  0  0  0
  3 23  1  0  0  0  0
  4  5  2  0  0  0  0
  4 24  1  0  0  0  0
  5  6  1  0  0  0  0
  5 25  1  0  0  0  0
  6  7  2  0  0  0  0
  7  8  1  0  0  0  0
  8  9  1  0  0  0  0
  8 26  1  0  0  0  0
  9 10  2  0  0  0  0
  9 11  1  0  0  0  0
 11 12  1  0  0  0  0
 11 27  1  0  0  0  0
 12 13  1  0  0  0  0
 12 28  1  0  0  0  0
 12 29  1  0  0  0  0
 13 14  1  0  0  0  0
 13 30  1  0  0  0  0
 13 31  1  0  0  0  0
 14 19  1  0  0  0  0
 14 15  1  0  0  0  0
 14 40  1  0  0  0  0
 15 16  1  0  0  0  0
 15 32  1  0  0  0  0
 15 33  1  0  0  0  0
 16 17  1  0  0  0  0
 16 34  1  0  0  0  0
 16 35  1  0  0  0  0
 17 18  1  0  0  0  0
 18 19  1  0  0  0  0
 18 36  1  0  0  0  0
 18 37  1  0  0  0  0
 19 38  1  0  0  0  0
 19 39  1  0  0  0  0
M  CHG  1  14   1
M  END
> <s_m_source_file>
AV-unprocessed.smi

> <i_m_source_file_index>
1666

> <i_lp_mmshare_version>
43012

> <i_f3d_flags>
0

> <s_epik_input>
W0NIM11jMVtjSF1bY0hdW2NIXW5jMVtOSF1DKD1PKVtOSF1bQ0gyXVtDSDJdTjJbQ0gyXVtDSDJdT1tDSDJdW0NIMl0y

> <s_epik_cmdline>
J2VwaWtfcHl0aG9uJywgJy1waCcsICc3LjAnLCAnLXRuJywgJzgnLCAnLW1hJywgJzIwMCcsICctbWV0YWxfYmluZGluZycsICctaW1hZScsICc8aW5maWxlLm1hZT4nLCAnLW9tYWUnLCAnPG91dGZpbGUubWFlPic=

> <r_epik_Ionization_Penalty>
0.602573

> <r_epik_Ionization_Penalty_Charging>
0.602531

> <r_epik_Ionization_Penalty_Neutral>
4.20806e-05

> <r_epik_State_Penalty>
0.617039

> <r_epik_Charging_Adjusted_Penalty>
1.21957

> <i_epik_Tot_Q>
1

> <i_epik_Tot_abs_Q>
1

> <r_epik_Metal_State_Penalty>
0.617042

> <b_epik_Metal_Only>
0

> <s_lp_Force_Field>
OPLS_2005

> <r_lp_Energy>
16.3818

> <b_lp_Chiralities_Consistent>
1

> <s_lp_Variant>
AV-unprocessed.smi:1666-2

> <Gold.Version>
5.8.1

> <Gold.Id.Protein>
6NUR|6NUR_protein|mol2

> <Gold.PLP.Fitness>
43.5131

> <Gold.PLP.PLP>
-33.1684

> <Gold.PLP.part.hbond>
-2.0000

> <Gold.PLP.part.metal>
0.0000

> <Gold.PLP.part.buried>
-4.0153

> <Gold.PLP.part.nonpolar>
-27.5218

> <Gold.PLP.part.repulsive>
0.4339

> <Gold.PLP.ligand.clash>
0.0000

> <Gold.PLP.ligand.torsion>
0.5690

> <Gold.PLP.Chemscore.Hbond>
2.8320

> <Gold.PLP.Chemscore.CHOScore>
0.9887

> <Gold.PLP.Chemscore.Metal>
0.0000

> <Gold.Chemscore.Hbonds>
donor molecule, donor type, donor heavy atom, donor atom, acceptor molecule, acceptor atom, score
      L1  H    14    40       P1  7948  2.00
      P1  H  7989  7998       L1    10  0.69
      L1  C     5    25       P1  8028  0.73

> <Gold.PLP.Chemscore.Internal.Correction>
0.0205

> <Gold.Rescore>
     Score         DG    S(hbond)    S(metal)    S(lipo)     H(rot)  DE(clash)    DE(int)     intcor
     14.98     -17.07       1.77        0.00      82.09       1.54       0.09       2.00       ----

> <Gold.Chemscore.Fitness>
14.9844

> <Gold.Chemscore.DG>
-17.0691

> <Gold.Chemscore.ZeroCoef>
-5.4800

> <Gold.Chemscore.Hbond>
1.7732

> <Gold.Chemscore.Metal>
0.0000

> <Gold.Chemscore.Lipo>
82.0870

> <Gold.Chemscore.Internal_Hbond>
0.0000

> <Gold.Chemscore.DEClash>
0.0876

> <Gold.Chemscore.DEInternal>
1.9971

> <Gold.Chemscore.Rot>
1.5381

> <Gold.Chemscore.Internal.Correction>
   9.000000E+99

> <Gold.Chemscore.Hbonds>
donor molecule, donor type, donor heavy atom, donor atom, acceptor molecule, acceptor atom, score
      L1  H    14    40       P1  7948  1.00
      P1  H  7989  7998       L1    10  0.63

> <Gold.Chemscore.Hbond.Weighted>
-5.9224

> <Gold.Chemscore.Metal.Weighted>
-0.0000

> <Gold.Chemscore.Lipo.Weighted>
-9.6042

> <Gold.Chemscore.Internal_Hbond.Weighted>
0.0000

> <Gold.Chemscore.DEClash.Weighted>
0.0876

> <Gold.Chemscore.DEInternal.Weighted>
1.9971

> <Gold.Chemscore.Rot.Weighted>
3.9375

> <Gold.Chemscore.Internal.Correction.Weighted>
   9.000000E+99

> <Gold.Protein.RotatedTorsions>
[ 6907 6896 6895 6894 ] final  147.57 input  -60.11 | X-H torsion
[ 7974 7965 7964 7962 ] final  -79.56 input  175.53 | X-H torsion
[ 8008 7997 7996 7995 ] final -155.21 input   59.86 | X-H torsion
[ 10167 10162 10161 10158 ] final  -24.99 input  -65.29 | X-H torsion
[ 10718 10713 10712 10709 ] final  -31.74 input   66.30 | X-H torsion
[ 10763 10752 10751 10750 ] final  -56.30 input  -60.55 | X-H torsion
[ 11005 11000 10999 10996 ] final  -82.78 input  -57.11 | X-H torsion

> <Gold.Protein.ActiveResidues>
 VAL166  LYS551  ARG553  GLY616  TRP617  ASP618  TYR619  PRO620  LYS621  CYS622 
 ASP623  PHE694  ASN695  SER759  ASP760  ASP761  ALA762  ILE779  LEU786  VAL792 
 PHE793  MET794  SER795  GLU796  ALA797  LYS798  CYS799  TRP800  GLU811  SER814 

> <Gold.Protein.RotatedAtoms>
  152.1530  133.4534  159.4822 H   0  0  0  0  0  0  0  0  0  0  0  0  # atno 6907 bound_to 6896
  150.6898  134.2165  159.4389 H   0  0  0  0  0  0  0  0  0  0  0  0  # atno 6908 bound_to 6896
  152.0063  134.9900  160.0617 H   0  0  0  0  0  0  0  0  0  0  0  0  # atno 6909 bound_to 6896
  145.5716  140.9465  143.1392 H   0  0  0  0  0  0  0  0  0  0  0  0  # atno 7974 bound_to 7965
  155.6984  140.0764  157.2420 H   0  0  0  0  0  0  0  0  0  0  0  0  # atno 8008 bound_to 7997
  154.4077  140.1652  156.2216 H   0  0  0  0  0  0  0  0  0  0  0  0  # atno 8009 bound_to 7997
  155.9390  140.3386  155.6314 H   0  0  0  0  0  0  0  0  0  0  0  0  # atno 8010 bound_to 7997
  140.7287  143.4304  151.0811 H   0  0  0  0  0  0  0  0  0  0  0  0  # atno 10167 bound_to 10162
  156.3835  130.4360  149.7450 H   0  0  0  0  0  0  0  0  0  0  0  0  # atno 10718 bound_to 10713
  154.2045  135.6405  153.5097 H   0  0  0  0  0  0  0  0  0  0  0  0  # atno 10763 bound_to 10752
  153.0004  135.5459  154.6280 H   0  0  0  0  0  0  0  0  0  0  0  0  # atno 10764 bound_to 10752
  154.5701  135.2916  155.0809 H   0  0  0  0  0  0  0  0  0  0  0  0  # atno 10765 bound_to 10752
  141.1661  133.7261  156.8622 H   0  0  0  0  0  0  0  0  0  0  0  0  # atno 11005 bound_to 11000
  144.7435  139.7383  143.7301 LP  0  0  0  0  0  0  0  0  0  0  0  0  # atno 17320 bound_to 7965
  146.1780  139.4960  142.9885 LP  0  0  0  0  0  0  0  0  0  0  0  0  # atno 17321 bound_to 7965
  139.7960  143.8150  152.3157 LP  0  0  0  0  0  0  0  0  0  0  0  0  # atno 17342 bound_to 10162
  139.8151  144.7319  150.9646 LP  0  0  0  0  0  0  0  0  0  0  0  0  # atno 17343 bound_to 10162
  156.4531  130.7916  151.2937 LP  0  0  0  0  0  0  0  0  0  0  0  0  # atno 17370 bound_to 10713
  157.7494  131.0089  150.3246 LP  0  0  0  0  0  0  0  0  0  0  0  0  # atno 17371 bound_to 10713
  140.1840  134.9013  157.2982 LP  0  0  0  0  0  0  0  0  0  0  0  0  # atno 17394 bound_to 11000
  140.2363  134.3849  155.7500 LP  0  0  0  0  0  0  0  0  0  0  0  0  # atno 17395 bound_to 11000

$$$$
