AV-unprocessed.smi:1426|AV-procd|sdf|5808|dock6
  -GOLD-   22720 5463D 1   1.00000     0.00000
 Structure written by MMmdl.
 44 46  0  0  0  0  0  0  0  0  2 V2000
  147.6439  137.9022  156.1681 O   0  0  0  0  0  0  0  0  0  0  0  0
  147.8007  137.2942  155.1093 C   0  0  0  0  0  0  0  0  0  0  0  0
  148.6702  137.6684  154.1606 N   0  0  0  0  0  0  0  0  0  0  0  0
  149.5419  138.8360  154.2383 C   0  0  0  0  0  0  0  0  0  0  0  0
  150.8212  138.5476  155.0467 C   0  0  1  0  0  0  0  0  0  0  0  0
  151.9453  137.9493  154.2268 C   0  0  0  0  0  0  0  0  0  0  0  0
  153.1556  138.2134  155.1169 C   0  0  0  0  0  0  0  0  0  0  0  0
  152.8764  139.4339  155.7968 O   0  0  0  0  0  0  0  0  0  0  0  0
  151.5060  139.7863  155.6281 C   0  0  0  0  0  0  0  0  0  0  0  0
  147.1196  136.1963  154.7409 N   0  0  0  0  0  0  0  0  0  0  0  0
  146.1048  135.5095  155.4665 C   0  0  0  0  0  0  0  0  0  0  0  0
  145.8057  135.8481  156.8116 C   0  0  0  0  0  0  0  0  0  0  0  0
  144.7848  135.1650  157.4988 C   0  0  0  0  0  0  0  0  0  0  0  0
  144.0792  134.1488  156.8325 C   0  0  0  0  0  0  0  0  0  0  0  0
  144.4004  133.8358  155.5603 N   0  3  0  0  0  0  0  0  0  0  0  0
  145.3822  134.4464  154.8502 C   0  0  0  0  0  0  0  0  0  0  0  0
  145.6144  134.0003  153.5290 N   0  0  0  0  0  0  0  0  0  0  0  0
  146.8942  133.4035  153.1653 C   0  0  0  0  0  0  0  0  0  0  0  0
  146.9043  133.3878  151.6393 C   0  0  0  0  0  0  0  0  0  0  0  0
  146.1588  134.6736  151.2953 C   0  0  0  0  0  0  0  0  0  0  0  0
  145.1173  134.7983  152.4126 C   0  0  0  0  0  0  0  0  0  0  0  0
  148.7327  137.1115  153.3208 H   0  0  0  0  0  0  0  0  0  0  0  0
  149.7985  139.1776  153.2340 H   0  0  0  0  0  0  0  0  0  0  0  0
  148.9793  139.6460  154.7029 H   0  0  0  0  0  0  0  0  0  0  0  0
  150.5920  137.8597  155.8627 H   0  0  0  0  0  0  0  0  0  0  0  0
  151.8017  136.8904  154.0095 H   0  0  0  0  0  0  0  0  0  0  0  0
  152.0547  138.4812  153.2805 H   0  0  0  0  0  0  0  0  0  0  0  0
  153.2621  137.4205  155.8582 H   0  0  0  0  0  0  0  0  0  0  0  0
  154.0850  138.2745  154.5504 H   0  0  0  0  0  0  0  0  0  0  0  0
  151.4520  140.6223  154.9294 H   0  0  0  0  0  0  0  0  0  0  0  0
  151.0594  140.1052  156.5703 H   0  0  0  0  0  0  0  0  0  0  0  0
  147.2791  135.8707  153.7989 H   0  0  0  0  0  0  0  0  0  0  0  0
  146.3505  136.6211  157.3323 H   0  0  0  0  0  0  0  0  0  0  0  0
  144.5473  135.4186  158.5215 H   0  0  0  0  0  0  0  0  0  0  0  0
  143.2796  133.5739  157.2771 H   0  0  0  0  0  0  0  0  0  0  0  0
  147.7195  134.0167  153.5297 H   0  0  0  0  0  0  0  0  0  0  0  0
  146.9993  132.4009  153.5811 H   0  0  0  0  0  0  0  0  0  0  0  0
  147.9104  133.3503  151.2205 H   0  0  0  0  0  0  0  0  0  0  0  0
  146.3485  132.5247  151.2700 H   0  0  0  0  0  0  0  0  0  0  0  0
  146.8483  135.5179  151.3397 H   0  0  0  0  0  0  0  0  0  0  0  0
  145.7136  134.6559  150.2999 H   0  0  0  0  0  0  0  0  0  0  0  0
  144.1654  134.3824  152.0813 H   0  0  0  0  0  0  0  0  0  0  0  0
  144.9568  135.8410  152.6901 H   0  0  0  0  0  0  0  0  0  0  0  0
  143.8766  133.0867  155.1078 H   0  0  0  0  0  0  0  0  0  0  0  0
  1  2  2  0  0  0  0
  2  3  1  0  0  0  0
  2 10  1  0  0  0  0
  3  4  1  0  0  0  0
  3 22  1  0  0  0  0
  4  5  1  0  0  0  0
  4 23  1  0  0  0  0
  4 24  1  0  0  0  0
  5  9  1  0  0  0  0
  5  6  1  0  0  0  0
  5 25  1  0  0  0  0
  6  7  1  0  0  0  0
  6 26  1  0  0  0  0
  6 27  1  0  0  0  0
  7  8  1  0  0  0  0
  7 28  1  0  0  0  0
  7 29  1  0  0  0  0
  8  9  1  0  0  0  0
  9 30  1  0  0  0  0
  9 31  1  0  0  0  0
 10 11  1  0  0  0  0
 10 32  1  0  0  0  0
 11 16  1  0  0  0  0
 11 12  2  0  0  0  0
 12 13  1  0  0  0  0
 12 33  1  0  0  0  0
 13 14  2  0  0  0  0
 13 34  1  0  0  0  0
 14 15  1  0  0  0  0
 14 35  1  0  0  0  0
 15 16  2  0  0  0  0
 15 44  1  0  0  0  0
 16 17  1  0  0  0  0
 17 21  1  0  0  0  0
 17 18  1  0  0  0  0
 18 19  1  0  0  0  0
 18 36  1  0  0  0  0
 18 37  1  0  0  0  0
 19 20  1  0  0  0  0
 19 38  1  0  0  0  0
 19 39  1  0  0  0  0
 20 21  1  0  0  0  0
 20 40  1  0  0  0  0
 20 41  1  0  0  0  0
 21 42  1  0  0  0  0
 21 43  1  0  0  0  0
M  CHG  1  15   1
M  END
> <s_m_source_file>
AV-unprocessed.smi

> <i_m_source_file_index>
1426

> <i_lp_mmshare_version>
43012

> <i_f3d_flags>
0

> <s_epik_input>
W0NIMl0xT1tDSDJdW0NIMl1bQ0BIXTFbQ0gyXVtOSF1DKD1PKVtOSF1jMltjSF1bY0hdW2NIXW5jMk4zW0NIMl1bQ0gyXVtDSDJdW0NIMl0z

> <s_epik_cmdline>
J2VwaWtfcHl0aG9uJywgJy1waCcsICc3LjAnLCAnLXRuJywgJzgnLCAnLW1hJywgJzIwMCcsICctbWV0YWxfYmluZGluZycsICctaW1hZScsICc8aW5maWxlLm1hZT4nLCAnLW9tYWUnLCAnPG91dGZpbGUubWFlPic=

> <r_lp_tautomer_probability>
0.999994

> <r_epik_Ionization_Penalty>
1.10677

> <r_epik_Ionization_Penalty_Charging>
1.10675

> <r_epik_Ionization_Penalty_Neutral>
2.02663e-05

> <r_epik_State_Penalty>
1.16438

> <r_epik_Charging_Adjusted_Penalty>
2.27113

> <i_epik_Tot_Q>
1

> <i_epik_Tot_abs_Q>
1

> <r_epik_Metal_State_Penalty>
1.25078

> <b_epik_Metal_Only>
0

> <s_lp_Force_Field>
OPLS_2005

> <r_lp_Energy>
54.362

> <b_lp_Chiralities_Consistent>
1

> <s_lp_Variant>
AV-unprocessed.smi:1426-4

> <Gold.Version>
5.8.1

> <Gold.Id.Protein>
6NUR|6NUR_protein|mol2

> <Gold.PLP.Fitness>
37.2369

> <Gold.PLP.PLP>
-26.1849

> <Gold.PLP.part.hbond>
-3.0000

> <Gold.PLP.part.metal>
0.0000

> <Gold.PLP.part.buried>
-2.6430

> <Gold.PLP.part.nonpolar>
-19.8931

> <Gold.PLP.part.repulsive>
0.0987

> <Gold.PLP.ligand.clash>
0.0000

> <Gold.PLP.ligand.torsion>
0.6717

> <Gold.PLP.Chemscore.Hbond>
4.0000

> <Gold.PLP.Chemscore.CHOScore>
0.0000

> <Gold.PLP.Chemscore.Metal>
0.0000

> <Gold.Chemscore.Hbonds>
donor molecule, donor type, donor heavy atom, donor atom, acceptor molecule, acceptor atom, score
      L1  H     3    22       P1  7948  1.00
      L1  H    15    44       P1 10957  2.00
      P1  H  7997  8010       L1     8  1.00

> <Gold.PLP.Chemscore.Internal.Correction>
0.3953

> <Gold.Rescore>
     Score         DG    S(hbond)    S(metal)    S(lipo)     H(rot)  DE(clash)    DE(int)     intcor
     16.40     -18.62       2.96        0.00      58.62       1.40       0.13       2.09       ----

> <Gold.Chemscore.Fitness>
16.4026

> <Gold.Chemscore.DG>
-18.6234

> <Gold.Chemscore.ZeroCoef>
-5.4800

> <Gold.Chemscore.Hbond>
2.9566

> <Gold.Chemscore.Metal>
0.0000

> <Gold.Chemscore.Lipo>
58.6182

> <Gold.Chemscore.Internal_Hbond>
0.0000

> <Gold.Chemscore.DEClash>
0.1260

> <Gold.Chemscore.DEInternal>
2.0948

> <Gold.Chemscore.Rot>
1.4023

> <Gold.Chemscore.Internal.Correction>
   9.000000E+99

> <Gold.Chemscore.Hbonds>
donor molecule, donor type, donor heavy atom, donor atom, acceptor molecule, acceptor atom, score
      L1  H     3    22       P1  7948  1.00
      L1  H    15    44       P1 10957  1.00
      P1  H  7997  8010       L1     8  0.70

> <Gold.Chemscore.Hbond.Weighted>
-9.8749

> <Gold.Chemscore.Metal.Weighted>
-0.0000

> <Gold.Chemscore.Lipo.Weighted>
-6.8583

> <Gold.Chemscore.Internal_Hbond.Weighted>
0.0000

> <Gold.Chemscore.DEClash.Weighted>
0.1260

> <Gold.Chemscore.DEInternal.Weighted>
2.0948

> <Gold.Chemscore.Rot.Weighted>
3.5898

> <Gold.Chemscore.Internal.Correction.Weighted>
   9.000000E+99

> <Gold.Protein.RotatedTorsions>
[ 6907 6896 6895 6894 ] final   74.08 input  -60.11 | X-H torsion
[ 7974 7965 7964 7962 ] final  -11.96 input  175.53 | X-H torsion
[ 8008 7997 7996 7995 ] final   73.00 input   59.86 | X-H torsion
[ 10167 10162 10161 10158 ] final  -36.88 input  -65.29 | X-H torsion
[ 10718 10713 10712 10709 ] final  122.03 input   66.30 | X-H torsion
[ 10763 10752 10751 10750 ] final   49.67 input  -60.55 | X-H torsion
[ 11005 11000 10999 10996 ] final  -78.63 input  -57.11 | X-H torsion

> <Gold.Protein.ActiveResidues>
 VAL166  LYS551  ARG553  GLY616  TRP617  ASP618  TYR619  PRO620  LYS621  CYS622 
 ASP623  PHE694  ASN695  SER759  ASP760  ASP761  ALA762  ILE779  LEU786  VAL792 
 PHE793  MET794  SER795  GLU796  ALA797  LYS798  CYS799  TRP800  GLU811  SER814 

> <Gold.Protein.RotatedAtoms>
  152.4957  134.4325  159.9516 H   0  0  0  0  0  0  0  0  0  0  0  0  # atno 6907 bound_to 6896
  151.4305  133.3665  159.2776 H   0  0  0  0  0  0  0  0  0  0  0  0  # atno 6908 bound_to 6896
  150.9158  134.8599  159.7516 H   0  0  0  0  0  0  0  0  0  0  0  0  # atno 6909 bound_to 6896
  146.2169  140.2987  142.8373 H   0  0  0  0  0  0  0  0  0  0  0  0  # atno 7974 bound_to 7965
  155.7772  140.3483  155.5278 H   0  0  0  0  0  0  0  0  0  0  0  0  # atno 8008 bound_to 7997
  155.8764  140.0995  157.1536 H   0  0  0  0  0  0  0  0  0  0  0  0  # atno 8009 bound_to 7997
  154.4021  140.1330  156.4129 H   0  0  0  0  0  0  0  0  0  0  0  0  # atno 8010 bound_to 7997
  140.7132  143.3379  151.2422 H   0  0  0  0  0  0  0  0  0  0  0  0  # atno 10167 bound_to 10162
  157.5773  131.1078  150.8254 H   0  0  0  0  0  0  0  0  0  0  0  0  # atno 10718 bound_to 10713
  152.9786  135.5904  154.4126 H   0  0  0  0  0  0  0  0  0  0  0  0  # atno 10763 bound_to 10752
  154.3760  135.2767  155.2241 H   0  0  0  0  0  0  0  0  0  0  0  0  # atno 10764 bound_to 10752
  154.4176  135.6067  153.6044 H   0  0  0  0  0  0  0  0  0  0  0  0  # atno 10765 bound_to 10752
  141.1665  133.7071  156.8001 H   0  0  0  0  0  0  0  0  0  0  0  0  # atno 11005 bound_to 11000
  144.9073  140.7715  143.5829 LP  0  0  0  0  0  0  0  0  0  0  0  0  # atno 17320 bound_to 7965
  145.2916  139.1882  143.4737 LP  0  0  0  0  0  0  0  0  0  0  0  0  # atno 17321 bound_to 7965
  139.6879  143.9742  152.2844 LP  0  0  0  0  0  0  0  0  0  0  0  0  # atno 17342 bound_to 10162
  139.9394  144.6691  150.8282 LP  0  0  0  0  0  0  0  0  0  0  0  0  # atno 17343 bound_to 10162
  156.8710  130.5146  149.5297 LP  0  0  0  0  0  0  0  0  0  0  0  0  # atno 17370 bound_to 10713
  156.0818  130.5827  150.9577 LP  0  0  0  0  0  0  0  0  0  0  0  0  # atno 17371 bound_to 10713
  140.2262  134.8720  157.3429 LP  0  0  0  0  0  0  0  0  0  0  0  0  # atno 17394 bound_to 11000
  140.1937  134.4340  155.7701 LP  0  0  0  0  0  0  0  0  0  0  0  0  # atno 17395 bound_to 11000

$$$$
