AV-unprocessed.smi:490|AV-procd|sdf|2703|dock5
  -GOLD-   2262023143D 1   1.00000     0.00000
 Structure written by MMmdl.
 49 51  0  0  0  0  0  0  0  0  1 V2000
  146.5529  130.2032  152.4000 C   0  0  0  0  0  0  0  0  0  0  0  0
  146.1442  131.6523  152.1984 C   0  0  0  0  0  0  0  0  0  0  0  0
  145.9058  132.1181  150.8894 C   0  0  0  0  0  0  0  0  0  0  0  0
  145.5244  133.4526  150.6668 C   0  0  0  0  0  0  0  0  0  0  0  0
  145.3883  134.3403  151.7514 C   0  0  0  0  0  0  0  0  0  0  0  0
  144.9745  135.7779  151.4973 C   0  0  0  0  0  0  0  0  0  0  0  0
  145.6417  133.8877  153.0665 C   0  0  0  0  0  0  0  0  0  0  0  0
  145.5170  134.7664  154.1118 O   0  0  0  0  0  0  0  0  0  0  0  0
  146.7349  135.0028  154.8039 C   0  0  0  0  0  0  0  0  0  0  0  0
  147.1293  136.4754  154.6282 C   0  0  2  0  0  0  0  0  0  0  0  0
  147.2939  136.7356  153.2485 O   0  0  0  0  0  0  0  0  0  0  0  0
  148.4206  136.8321  155.3927 C   0  0  0  0  0  0  0  0  0  0  0  0
  148.9759  138.1167  154.9893 N   0  0  0  0  0  0  0  0  0  0  0  0
  150.2776  138.4286  154.7666 C   0  0  0  0  0  0  0  0  0  0  0  0
  151.3643  137.4007  154.9126 C   0  0  0  0  0  0  0  0  0  0  0  0
  152.1254  137.1985  153.7389 O   0  0  0  0  0  0  0  0  0  0  0  0
  150.5131  139.6907  154.4001 N   0  0  0  0  0  0  0  0  0  0  0  0
  149.2493  140.2471  154.3864 C   0  0  0  0  0  0  0  0  0  0  0  0
  148.8277  141.5606  154.0798 C   0  0  0  0  0  0  0  0  0  0  0  0
  147.4603  141.9020  154.1315 C   0  0  0  0  0  0  0  0  0  0  0  0
  146.4970  140.9367  154.4894 C   0  0  0  0  0  0  0  0  0  0  0  0
  146.8960  139.6224  154.7999 C   0  0  0  0  0  0  0  0  0  0  0  0
  148.2624  139.2869  154.7475 C   0  0  0  0  0  0  0  0  0  0  0  0
  145.9999  132.5354  153.2977 C   0  0  0  0  0  0  0  0  0  0  0  0
  146.2285  132.0353  154.7178 C   0  0  0  0  0  0  0  0  0  0  0  0
  146.7659  129.7144  151.4488 H   0  0  0  0  0  0  0  0  0  0  0  0
  145.7540  129.6477  152.8911 H   0  0  0  0  0  0  0  0  0  0  0  0
  147.4513  130.1383  153.0143 H   0  0  0  0  0  0  0  0  0  0  0  0
  146.0104  131.4509  150.0465 H   0  0  0  0  0  0  0  0  0  0  0  0
  145.3393  133.7917  149.6581 H   0  0  0  0  0  0  0  0  0  0  0  0
  144.1881  136.0797  152.1895 H   0  0  0  0  0  0  0  0  0  0  0  0
  144.5966  135.9078  150.4830 H   0  0  0  0  0  0  0  0  0  0  0  0
  145.8257  136.4454  151.6307 H   0  0  0  0  0  0  0  0  0  0  0  0
  146.6396  134.7568  155.8628 H   0  0  0  0  0  0  0  0  0  0  0  0
  147.5120  134.3568  154.3920 H   0  0  0  0  0  0  0  0  0  0  0  0
  146.3077  137.1013  154.9771 H   0  0  0  0  0  0  0  0  0  0  0  0
  147.7314  135.9975  152.8529 H   0  0  0  0  0  0  0  0  0  0  0  0
  148.2327  136.8563  156.4664 H   0  0  0  0  0  0  0  0  0  0  0  0
  149.1768  136.0614  155.2395 H   0  0  0  0  0  0  0  0  0  0  0  0
  152.0456  137.6985  155.7088 H   0  0  0  0  0  0  0  0  0  0  0  0
  150.9151  136.4517  155.2062 H   0  0  0  0  0  0  0  0  0  0  0  0
  151.5359  136.9896  153.0309 H   0  0  0  0  0  0  0  0  0  0  0  0
  149.5584  142.3068  153.8045 H   0  0  0  0  0  0  0  0  0  0  0  0
  147.1496  142.9093  153.8958 H   0  0  0  0  0  0  0  0  0  0  0  0
  145.4517  141.2064  154.5265 H   0  0  0  0  0  0  0  0  0  0  0  0
  146.1607  138.8823  155.0776 H   0  0  0  0  0  0  0  0  0  0  0  0
  145.7997  132.7045  155.4628 H   0  0  0  0  0  0  0  0  0  0  0  0
  147.2967  131.9464  154.9163 H   0  0  0  0  0  0  0  0  0  0  0  0
  145.7677  131.0593  154.8682 H   0  0  0  0  0  0  0  0  0  0  0  0
  1  2  1  0  0  0  0
  1 26  1  0  0  0  0
  1 27  1  0  0  0  0
  1 28  1  0  0  0  0
  2 24  1  0  0  0  0
  2  3  2  0  0  0  0
  3  4  1  0  0  0  0
  3 29  1  0  0  0  0
  4  5  2  0  0  0  0
  4 30  1  0  0  0  0
  5  6  1  0  0  0  0
  5  7  1  0  0  0  0
  6 31  1  0  0  0  0
  6 32  1  0  0  0  0
  6 33  1  0  0  0  0
  7  8  1  0  0  0  0
  7 24  2  0  0  0  0
  8  9  1  0  0  0  0
  9 10  1  0  0  0  0
  9 34  1  0  0  0  0
  9 35  1  0  0  0  0
 10 11  1  0  0  0  0
 10 12  1  0  0  0  0
 10 36  1  0  0  0  0
 11 37  1  0  0  0  0
 12 13  1  0  0  0  0
 12 38  1  0  0  0  0
 12 39  1  0  0  0  0
 13 23  1  0  0  0  0
 13 14  1  0  0  0  0
 14 15  1  0  0  0  0
 14 17  2  0  0  0  0
 15 16  1  0  0  0  0
 15 40  1  0  0  0  0
 15 41  1  0  0  0  0
 16 42  1  0  0  0  0
 17 18  1  0  0  0  0
 18 23  2  0  0  0  0
 18 19  1  0  0  0  0
 19 20  2  0  0  0  0
 19 43  1  0  0  0  0
 20 21  1  0  0  0  0
 20 44  1  0  0  0  0
 21 22  2  0  0  0  0
 21 45  1  0  0  0  0
 22 23  1  0  0  0  0
 22 46  1  0  0  0  0
 24 25  1  0  0  0  0
 25 47  1  0  0  0  0
 25 48  1  0  0  0  0
 25 49  1  0  0  0  0
M  END
> <s_m_source_file>
AV-unprocessed.smi

> <i_m_source_file_index>
490

> <i_lp_mmshare_version>
43012

> <i_f3d_flags>
0

> <s_epik_input>
W0NIM11jMVtjSF1bY0hdYyhbQ0gzXSljKGMxW0NIM10pT1tDSDJdW0NASF0oW09IXSlbQ0gyXW4oYyhuMilbQ0gyXVtPSF0pYyhjMjMpW2NIXVtjSF1bY0hdW2NIXTM=

> <s_epik_cmdline>
J2VwaWtfcHl0aG9uJywgJy1waCcsICc3LjAnLCAnLXRuJywgJzgnLCAnLW1hJywgJzIwMCcsICctbWV0YWxfYmluZGluZycsICctaW1hZScsICc8aW5maWxlLm1hZT4nLCAnLW9tYWUnLCAnPG91dGZpbGUubWFlPic=

> <r_lp_tautomer_probability>
1

> <r_epik_Ionization_Penalty>
0.0555874

> <r_epik_Ionization_Penalty_Charging>
0

> <r_epik_Ionization_Penalty_Neutral>
0.0555874

> <r_epik_State_Penalty>
0.0478234

> <r_epik_Charging_Adjusted_Penalty>
0.0478234

> <i_epik_Tot_Q>
0

> <i_epik_Tot_abs_Q>
0

> <r_epik_Metal_State_Penalty>
4.98044e-05

> <b_epik_Metal_Only>
0

> <s_lp_Force_Field>
OPLS_2005

> <r_lp_Energy>
19.7492

> <b_lp_Chiralities_Consistent>
1

> <s_lp_Variant>
AV-unprocessed.smi:490-1

> <Gold.Version>
5.8.1

> <Gold.Id.Protein>
6NUR|6NUR_protein|mol2

> <Gold.PLP.Fitness>
47.4026

> <Gold.PLP.PLP>
-38.4432

> <Gold.PLP.part.hbond>
-2.8260

> <Gold.PLP.part.metal>
0.0000

> <Gold.PLP.part.buried>
-4.4667

> <Gold.PLP.part.nonpolar>
-31.0649

> <Gold.PLP.part.repulsive>
0.1926

> <Gold.PLP.ligand.clash>
0.0000

> <Gold.PLP.ligand.torsion>
0.7309

> <Gold.PLP.Chemscore.Hbond>
3.4400

> <Gold.PLP.Chemscore.CHOScore>
0.0000

> <Gold.PLP.Chemscore.Metal>
0.0000

> <Gold.Chemscore.Hbonds>
donor molecule, donor type, donor heavy atom, donor atom, acceptor molecule, acceptor atom, score
      L1  H    11    37       P1  7948  0.42
      L1  H    16    42       P1  7949  0.98
      P1  H  7989  7998       L1    17  1.00
      P1  H 10752 10765       L1    16  1.00

> <Gold.PLP.Chemscore.Internal.Correction>
0.1012

> <Gold.Rescore>
     Score         DG    S(hbond)    S(metal)    S(lipo)     H(rot)  DE(clash)    DE(int)     intcor
     13.92     -15.67       2.17        0.00      89.32       2.93       0.01       1.73       ----

> <Gold.Chemscore.Fitness>
13.9247

> <Gold.Chemscore.DG>
-15.6712

> <Gold.Chemscore.ZeroCoef>
-5.4800

> <Gold.Chemscore.Hbond>
2.1667

> <Gold.Chemscore.Metal>
0.0000

> <Gold.Chemscore.Lipo>
89.3164

> <Gold.Chemscore.Internal_Hbond>
0.0000

> <Gold.Chemscore.DEClash>
0.0126

> <Gold.Chemscore.DEInternal>
1.7339

> <Gold.Chemscore.Rot>
2.9279

> <Gold.Chemscore.Internal.Correction>
   9.000000E+99

> <Gold.Chemscore.Hbonds>
donor molecule, donor type, donor heavy atom, donor atom, acceptor molecule, acceptor atom, score
      L1  H    11    37       P1  7948  0.41
      L1  H    16    42       P1  7949  0.86
      P1  H  7989  7998       L1    17  0.60
      P1  H 10752 10765       L1    16  0.18

> <Gold.Chemscore.Hbond.Weighted>
-7.2366

> <Gold.Chemscore.Metal.Weighted>
-0.0000

> <Gold.Chemscore.Lipo.Weighted>
-10.4500

> <Gold.Chemscore.Internal_Hbond.Weighted>
0.0000

> <Gold.Chemscore.DEClash.Weighted>
0.0126

> <Gold.Chemscore.DEInternal.Weighted>
1.7339

> <Gold.Chemscore.Rot.Weighted>
7.4954

> <Gold.Chemscore.Internal.Correction.Weighted>
   9.000000E+99

> <Gold.Protein.RotatedTorsions>
[ 6907 6896 6895 6894 ] final  -46.90 input  -60.11 | X-H torsion
[ 7974 7965 7964 7962 ] final  -52.07 input  175.53 | X-H torsion
[ 8008 7997 7996 7995 ] final   -0.76 input   59.86 | X-H torsion
[ 10167 10162 10161 10158 ] final   22.20 input  -65.29 | X-H torsion
[ 10718 10713 10712 10709 ] final  -74.01 input   66.30 | X-H torsion
[ 10763 10752 10751 10750 ] final  151.41 input  -60.55 | X-H torsion
[ 11005 11000 10999 10996 ] final  -91.15 input  -57.11 | X-H torsion

> <Gold.Protein.ActiveResidues>
 VAL166  LYS551  ARG553  GLY616  TRP617  ASP618  TYR619  PRO620  LYS621  CYS622 
 ASP623  PHE694  ASN695  SER759  ASP760  ASP761  ALA762  ILE779  LEU786  VAL792 
 PHE793  MET794  SER795  GLU796  ALA797  LYS798  CYS799  TRP800  GLU811  SER814 

> <Gold.Protein.RotatedAtoms>
  150.9064  134.8479  159.7395 H   0  0  0  0  0  0  0  0  0  0  0  0  # atno 6907 bound_to 6896
  152.4921  134.4425  159.9558 H   0  0  0  0  0  0  0  0  0  0  0  0  # atno 6908 bound_to 6896
  151.4471  133.3588  159.2825 H   0  0  0  0  0  0  0  0  0  0  0  0  # atno 6909 bound_to 6896
  145.9120  140.7907  142.9690 H   0  0  0  0  0  0  0  0  0  0  0  0  # atno 7974 bound_to 7965
  154.6544  140.2576  155.7178 H   0  0  0  0  0  0  0  0  0  0  0  0  # atno 8008 bound_to 7997
  156.2590  140.2861  156.0912 H   0  0  0  0  0  0  0  0  0  0  0  0  # atno 8009 bound_to 7997
  155.1402  140.0380  157.2787 H   0  0  0  0  0  0  0  0  0  0  0  0  # atno 8010 bound_to 7997
  140.5367  143.9749  150.6495 H   0  0  0  0  0  0  0  0  0  0  0  0  # atno 10167 bound_to 10162
  156.0258  130.4407  150.2829 H   0  0  0  0  0  0  0  0  0  0  0  0  # atno 10718 bound_to 10713
  154.1034  135.2844  155.3246 H   0  0  0  0  0  0  0  0  0  0  0  0  # atno 10763 bound_to 10752
  154.6540  135.5359  153.7939 H   0  0  0  0  0  0  0  0  0  0  0  0  # atno 10764 bound_to 10752
  153.0371  135.6517  154.1196 H   0  0  0  0  0  0  0  0  0  0  0  0  # atno 10765 bound_to 10752
  141.1551  133.7737  156.9839 H   0  0  0  0  0  0  0  0  0  0  0  0  # atno 11005 bound_to 11000
  144.6744  140.1840  143.7403 LP  0  0  0  0  0  0  0  0  0  0  0  0  # atno 17320 bound_to 7965
  145.8659  139.2247  143.1689 LP  0  0  0  0  0  0  0  0  0  0  0  0  # atno 17321 bound_to 7965
  140.3138  143.3181  152.0852 LP  0  0  0  0  0  0  0  0  0  0  0  0  # atno 17342 bound_to 10162
  139.4973  144.6619  151.6446 LP  0  0  0  0  0  0  0  0  0  0  0  0  # atno 17343 bound_to 10162
  157.0932  131.0175  151.3114 LP  0  0  0  0  0  0  0  0  0  0  0  0  # atno 17370 bound_to 10713
  157.4838  130.7781  149.7440 LP  0  0  0  0  0  0  0  0  0  0  0  0  # atno 17371 bound_to 10713
  140.1048  134.9513  157.1977 LP  0  0  0  0  0  0  0  0  0  0  0  0  # atno 17394 bound_to 11000
  140.3271  134.2851  155.7235 LP  0  0  0  0  0  0  0  0  0  0  0  0  # atno 17395 bound_to 11000

$$$$
