AV-unprocessed.smi:1824|AV-procd|sdf|7401|dock6
  -GOLD-   22720 9 73D 1   1.00000     0.00000
 Structure written by MMmdl.
 45 47  0  0  0  0  0  0  0  0  2 V2000
  146.0455  142.9633  153.6114 C   0  0  0  0  0  0  0  0  0  0  0  0
  146.7073  141.6563  154.0614 C   0  0  2  0  0  0  0  0  0  0  0  0
  148.1262  141.8870  154.6119 C   0  0  0  0  0  0  0  0  0  0  0  0
  148.7597  140.5924  154.9591 N   0  3  2  0  0  0  0  0  0  0  0  0
  150.0950  140.7297  155.5951 C   0  0  0  0  0  0  0  0  0  0  0  0
  150.0851  141.6947  156.7978 C   0  0  1  0  0  0  0  0  0  0  0  0
  149.4157  141.0707  157.8777 O   0  0  0  0  0  0  0  0  0  0  0  0
  151.5135  142.0757  157.2329 C   0  0  0  0  0  0  0  0  0  0  0  0
  151.5322  142.9238  158.4117 N   0  0  0  0  0  0  0  0  0  0  0  0
  150.9093  144.1076  158.5731 C   0  0  0  0  0  0  0  0  0  0  0  0
  151.0582  144.7201  159.7439 N   0  0  0  0  0  0  0  0  0  0  0  0
  151.8692  143.8289  160.4248 C   0  0  0  0  0  0  0  0  0  0  0  0
  152.3955  143.8845  161.7350 C   0  0  0  0  0  0  0  0  0  0  0  0
  153.2112  142.8424  162.2228 C   0  0  0  0  0  0  0  0  0  0  0  0
  153.7054  142.9106  163.4816 F   0  0  0  0  0  0  0  0  0  0  0  0
  153.5140  141.7312  161.4076 C   0  0  0  0  0  0  0  0  0  0  0  0
  154.2983  140.7349  161.8829 F   0  0  0  0  0  0  0  0  0  0  0  0
  153.0010  141.6535  160.0986 C   0  0  0  0  0  0  0  0  0  0  0  0
  152.1859  142.6947  159.6176 C   0  0  0  0  0  0  0  0  0  0  0  0
  148.7828  139.6991  153.7766 C   0  0  0  0  0  0  0  0  0  0  0  0
  147.3692  139.5152  153.1899 C   0  0  1  0  0  0  0  0  0  0  0  0
  146.4635  138.6069  154.0406 C   0  0  0  0  0  0  0  0  0  0  0  0
  146.7725  140.7868  152.9340 O   0  0  0  0  0  0  0  0  0  0  0  0
  145.9621  143.6671  154.4401 H   0  0  0  0  0  0  0  0  0  0  0  0
  145.0407  142.7799  153.2300 H   0  0  0  0  0  0  0  0  0  0  0  0
  146.6193  143.4449  152.8191 H   0  0  0  0  0  0  0  0  0  0  0  0
  146.0814  141.2113  154.8353 H   0  0  0  0  0  0  0  0  0  0  0  0
  148.7383  142.4065  153.8729 H   0  0  0  0  0  0  0  0  0  0  0  0
  148.0705  142.5317  155.4882 H   0  0  0  0  0  0  0  0  0  0  0  0
  150.4376  139.7527  155.9403 H   0  0  0  0  0  0  0  0  0  0  0  0
  150.8180  141.0573  154.8466 H   0  0  0  0  0  0  0  0  0  0  0  0
  149.5459  142.6077  156.5469 H   0  0  0  0  0  0  0  0  0  0  0  0
  148.8300  140.4135  157.5332 H   0  0  0  0  0  0  0  0  0  0  0  0
  152.1038  141.1813  157.4383 H   0  0  0  0  0  0  0  0  0  0  0  0
  152.0230  142.6043  156.4264 H   0  0  0  0  0  0  0  0  0  0  0  0
  150.3139  144.5460  157.7855 H   0  0  0  0  0  0  0  0  0  0  0  0
  152.1704  144.7305  162.3673 H   0  0  0  0  0  0  0  0  0  0  0  0
  153.2296  140.8031  159.4740 H   0  0  0  0  0  0  0  0  0  0  0  0
  149.4414  140.1290  153.0201 H   0  0  0  0  0  0  0  0  0  0  0  0
  149.2015  138.7280  154.0445 H   0  0  0  0  0  0  0  0  0  0  0  0
  147.4741  139.0313  152.2183 H   0  0  0  0  0  0  0  0  0  0  0  0
  146.8764  137.5998  154.1042 H   0  0  0  0  0  0  0  0  0  0  0  0
  145.4700  138.5268  153.5990 H   0  0  0  0  0  0  0  0  0  0  0  0
  146.3477  138.9732  155.0601 H   0  0  0  0  0  0  0  0  0  0  0  0
  148.1652  140.1433  155.6417 H   0  0  0  0  0  0  0  0  0  0  0  0
  1  2  1  0  0  0  0
  1 24  1  0  0  0  0
  1 25  1  0  0  0  0
  1 26  1  0  0  0  0
  2 23  1  0  0  0  0
  2  3  1  0  0  0  0
  2 27  1  0  0  0  0
  3  4  1  0  0  0  0
  3 28  1  0  0  0  0
  3 29  1  0  0  0  0
  4  5  1  0  0  0  0
  4 20  1  0  0  0  0
  4 45  1  0  0  0  0
  5  6  1  0  0  0  0
  5 30  1  0  0  0  0
  5 31  1  0  0  0  0
  6  7  1  0  0  0  0
  6  8  1  0  0  0  0
  6 32  1  0  0  0  0
  7 33  1  0  0  0  0
  8  9  1  0  0  0  0
  8 34  1  0  0  0  0
  8 35  1  0  0  0  0
  9 19  1  0  0  0  0
  9 10  1  0  0  0  0
 10 11  2  0  0  0  0
 10 36  1  0  0  0  0
 11 12  1  0  0  0  0
 12 19  2  0  0  0  0
 12 13  1  0  0  0  0
 13 14  2  0  0  0  0
 13 37  1  0  0  0  0
 14 15  1  0  0  0  0
 14 16  1  0  0  0  0
 16 17  1  0  0  0  0
 16 18  2  0  0  0  0
 18 19  1  0  0  0  0
 18 38  1  0  0  0  0
 20 21  1  0  0  0  0
 20 39  1  0  0  0  0
 20 40  1  0  0  0  0
 21 22  1  0  0  0  0
 21 23  1  0  0  0  0
 21 41  1  0  0  0  0
 22 42  1  0  0  0  0
 22 43  1  0  0  0  0
 22 44  1  0  0  0  0
M  CHG  1   4   1
M  END
> <s_m_source_file>
AV-unprocessed.smi

> <i_m_source_file_index>
1824

> <i_lp_mmshare_version>
43012

> <i_f3d_flags>
0

> <s_epik_input>
W0NIM11bQ0BASF0xW0NIMl1OKFtDSDJdW0NASF0oTzEpW0NIM10pW0NIMl1bQ0BIXShbT0hdKVtDSDJdbihbY0hdbjIpYyhjMjMpW2NIXWMoRiljKEYpW2NIXTM=

> <s_epik_cmdline>
J2VwaWtfcHl0aG9uJywgJy1waCcsICc3LjAnLCAnLXRuJywgJzgnLCAnLW1hJywgJzIwMCcsICctbWV0YWxfYmluZGluZycsICctaW1hZScsICc8aW5maWxlLm1hZT4nLCAnLW9tYWUnLCAnPG91dGZpbGUubWFlPic=

> <r_epik_Ionization_Penalty>
0.61967

> <r_epik_Ionization_Penalty_Charging>
0.608065

> <r_epik_Ionization_Penalty_Neutral>
0.0116057

> <r_epik_State_Penalty>
0.664205

> <r_epik_Charging_Adjusted_Penalty>
1.27227

> <i_epik_Tot_Q>
1

> <i_epik_Tot_abs_Q>
1

> <r_epik_Metal_State_Penalty>
0.654947

> <b_epik_Metal_Only>
0

> <s_lp_Force_Field>
OPLS_2005

> <r_lp_Energy>
23.0579

> <b_lp_Chiralities_Consistent>
1

> <s_lp_Variant>
AV-unprocessed.smi:1824-9

> <Gold.Version>
5.8.1

> <Gold.Id.Protein>
6NUR|6NUR_protein|mol2

> <Gold.PLP.Fitness>
54.2853

> <Gold.PLP.PLP>
-51.3050

> <Gold.PLP.part.hbond>
0.0000

> <Gold.PLP.part.metal>
0.0000

> <Gold.PLP.part.buried>
-2.7427

> <Gold.PLP.part.nonpolar>
-47.4990

> <Gold.PLP.part.repulsive>
0.4259

> <Gold.PLP.ligand.clash>
0.0000

> <Gold.PLP.ligand.torsion>
0.1189

> <Gold.PLP.Chemscore.Hbond>
0.0000

> <Gold.PLP.Chemscore.CHOScore>
1.0629

> <Gold.PLP.Chemscore.Metal>
0.0000

> <Gold.Chemscore.Hbonds>
donor molecule, donor type, donor heavy atom, donor atom, acceptor molecule, acceptor atom, score
      L1  C    10    36       P1  8028  0.98
      L1  C    10    36       P1  8029  0.08

> <Gold.PLP.Chemscore.Internal.Correction>
0.0296

> <Gold.Rescore>
     Score         DG    S(hbond)    S(metal)    S(lipo)     H(rot)  DE(clash)    DE(int)     intcor
     13.28     -13.69       0.00        0.00     121.01       2.33       0.29       0.12       ----

> <Gold.Chemscore.Fitness>
13.2759

> <Gold.Chemscore.DG>
-13.6856

> <Gold.Chemscore.ZeroCoef>
-5.4800

> <Gold.Chemscore.Hbond>
0.0000

> <Gold.Chemscore.Metal>
0.0000

> <Gold.Chemscore.Lipo>
121.0077

> <Gold.Chemscore.Internal_Hbond>
0.0000

> <Gold.Chemscore.DEClash>
0.2860

> <Gold.Chemscore.DEInternal>
0.1237

> <Gold.Chemscore.Rot>
2.3251

> <Gold.Chemscore.Internal.Correction>
   9.000000E+99

> <Gold.Chemscore.Hbond.Weighted>
-0.0000

> <Gold.Chemscore.Metal.Weighted>
-0.0000

> <Gold.Chemscore.Lipo.Weighted>
-14.1579

> <Gold.Chemscore.Internal_Hbond.Weighted>
0.0000

> <Gold.Chemscore.DEClash.Weighted>
0.2860

> <Gold.Chemscore.DEInternal.Weighted>
0.1237

> <Gold.Chemscore.Rot.Weighted>
5.9523

> <Gold.Chemscore.Internal.Correction.Weighted>
   9.000000E+99

> <Gold.Protein.RotatedTorsions>
[ 6907 6896 6895 6894 ] final -108.14 input  -60.11 | X-H torsion
[ 7974 7965 7964 7962 ] final   67.64 input  175.53 | X-H torsion
[ 8008 7997 7996 7995 ] final -116.29 input   59.86 | X-H torsion
[ 10167 10162 10161 10158 ] final   85.54 input  -65.29 | X-H torsion
[ 10718 10713 10712 10709 ] final  -62.00 input   66.30 | X-H torsion
[ 10763 10752 10751 10750 ] final   24.65 input  -60.55 | X-H torsion
[ 11005 11000 10999 10996 ] final   89.20 input  -57.11 | X-H torsion

> <Gold.Protein.ActiveResidues>
 VAL166  LYS551  ARG553  GLY616  TRP617  ASP618  TYR619  PRO620  LYS621  CYS622 
 ASP623  PHE694  ASN695  SER759  ASP760  ASP761  ALA762  ILE779  LEU786  VAL792 
 PHE793  MET794  SER795  GLU796  ALA797  LYS798  CYS799  TRP800  GLU811  SER814 

> <Gold.Protein.RotatedAtoms>
  150.7484  133.9721  159.3548 H   0  0  0  0  0  0  0  0  0  0  0  0  # atno 6907 bound_to 6896
  151.7656  135.0797  160.0361 H   0  0  0  0  0  0  0  0  0  0  0  0  # atno 6908 bound_to 6896
  152.3374  133.5990  159.5888 H   0  0  0  0  0  0  0  0  0  0  0  0  # atno 6909 bound_to 6896
  145.8122  139.3039  143.1092 H   0  0  0  0  0  0  0  0  0  0  0  0  # atno 7974 bound_to 7965
  155.0654  140.0393  157.2591 H   0  0  0  0  0  0  0  0  0  0  0  0  # atno 8008 bound_to 7997
  154.7025  140.2676  155.6681 H   0  0  0  0  0  0  0  0  0  0  0  0  # atno 8009 bound_to 7997
  156.2765  140.2737  156.1641 H   0  0  0  0  0  0  0  0  0  0  0  0  # atno 8010 bound_to 7997
  139.8967  144.6353  150.8680 H   0  0  0  0  0  0  0  0  0  0  0  0  # atno 10167 bound_to 10162
  156.0884  130.4204  150.1073 H   0  0  0  0  0  0  0  0  0  0  0  0  # atno 10718 bound_to 10713
  153.0748  135.6600  154.0169 H   0  0  0  0  0  0  0  0  0  0  0  0  # atno 10763 bound_to 10752
  153.9805  135.2955  155.3422 H   0  0  0  0  0  0  0  0  0  0  0  0  # atno 10764 bound_to 10752
  154.7133  135.5196  153.8770 H   0  0  0  0  0  0  0  0  0  0  0  0  # atno 10765 bound_to 10752
  139.8880  134.8536  156.3109 H   0  0  0  0  0  0  0  0  0  0  0  0  # atno 11005 bound_to 11000
  145.9765  140.8718  143.0136 LP  0  0  0  0  0  0  0  0  0  0  0  0  # atno 17320 bound_to 7965
  144.6756  140.2019  143.7386 LP  0  0  0  0  0  0  0  0  0  0  0  0  # atno 17321 bound_to 7965
  140.7715  143.3468  151.2095 LP  0  0  0  0  0  0  0  0  0  0  0  0  # atno 17342 bound_to 10162
  139.7061  143.9453  152.2927 LP  0  0  0  0  0  0  0  0  0  0  0  0  # atno 17343 bound_to 10162
  156.9089  130.9645  151.3566 LP  0  0  0  0  0  0  0  0  0  0  0  0  # atno 17370 bound_to 10713
  157.6026  130.8523  149.8825 LP  0  0  0  0  0  0  0  0  0  0  0  0  # atno 17371 bound_to 10713
  140.9851  133.7243  156.0730 LP  0  0  0  0  0  0  0  0  0  0  0  0  # atno 17394 bound_to 11000
  140.7699  134.3845  157.5510 LP  0  0  0  0  0  0  0  0  0  0  0  0  # atno 17395 bound_to 11000

$$$$
