AV-unprocessed.smi:2198|AV-procd|sdf|8919|dock6
  -GOLD-   2272012133D 1   1.00000     0.00000
 Structure written by MMmdl.
 42 43  0  0  0  0  0  0  0  0  2 V2000
  146.3653  136.2114  162.7162 C   0  0  0  0  0  0  0  0  0  0  0  0
  147.1007  135.9818  161.4133 C   0  0  0  0  0  0  0  0  0  0  0  0
  147.0755  134.8203  160.8797 N   0  0  0  0  0  0  0  0  0  0  0  0
  147.7559  134.6005  159.6702 C   0  0  0  0  0  0  0  0  0  0  0  0
  147.6755  133.1907  159.1107 C   0  0  0  0  0  0  0  0  0  0  0  0
  148.4417  135.6050  159.0532 C   0  0  0  0  0  0  0  0  0  0  0  0
  149.1979  135.4142  157.7387 C   0  0  0  0  0  0  0  0  0  0  0  0
  148.8351  136.3824  156.6104 C   0  0  0  0  0  0  0  0  0  0  0  0
  147.6972  136.3990  156.1405 O   0  0  0  0  0  0  0  0  0  0  0  0
  149.8202  137.1872  156.1845 N   0  0  0  0  0  0  0  0  0  0  0  0
  149.7043  138.1810  155.1189 C   0  0  2  0  0  0  0  0  0  0  0  0
  150.8681  138.0298  154.1203 C   0  0  0  0  0  0  0  0  0  0  0  0
  152.2106  138.4825  154.7200 C   0  0  0  0  0  0  0  0  0  0  0  0
  152.1258  139.9179  155.2617 C   0  0  0  0  0  0  0  0  0  0  0  0
  150.9920  140.0670  156.2941 C   0  0  1  0  0  0  0  0  0  0  0  0
  150.9102  141.5015  156.8348 C   0  0  0  0  0  0  0  0  0  0  0  0
  149.6470  139.6164  155.6868 C   0  0  0  0  0  0  0  0  0  0  0  0
  148.4422  136.9303  159.6985 C   0  0  0  0  0  0  0  0  0  0  0  0
  149.0343  137.8749  159.1774 O   0  0  0  0  0  0  0  0  0  0  0  0
  147.7663  137.0607  160.8758 N   0  5  0  0  0  0  0  0  0  0  0  0
  145.6974  135.3789  162.9412 H   0  0  0  0  0  0  0  0  0  0  0  0
  145.7665  137.1211  162.6615 H   0  0  0  0  0  0  0  0  0  0  0  0
  147.0763  136.3132  163.5361 H   0  0  0  0  0  0  0  0  0  0  0  0
  148.6629  132.7291  159.0969 H   0  0  0  0  0  0  0  0  0  0  0  0
  147.2813  133.2009  158.0947 H   0  0  0  0  0  0  0  0  0  0  0  0
  147.0201  132.5632  159.7159 H   0  0  0  0  0  0  0  0  0  0  0  0
  150.2753  135.4668  157.8986 H   0  0  0  0  0  0  0  0  0  0  0  0
  149.0209  134.3957  157.3920 H   0  0  0  0  0  0  0  0  0  0  0  0
  150.7217  137.1036  156.6312 H   0  0  0  0  0  0  0  0  0  0  0  0
  148.7765  137.9848  154.5782 H   0  0  0  0  0  0  0  0  0  0  0  0
  150.9405  136.9971  153.7768 H   0  0  0  0  0  0  0  0  0  0  0  0
  150.6566  138.6296  153.2342 H   0  0  0  0  0  0  0  0  0  0  0  0
  152.5051  137.8053  155.5228 H   0  0  0  0  0  0  0  0  0  0  0  0
  152.9929  138.4186  153.9632 H   0  0  0  0  0  0  0  0  0  0  0  0
  153.0799  140.1941  155.7116 H   0  0  0  0  0  0  0  0  0  0  0  0
  151.9644  140.6091  154.4333 H   0  0  0  0  0  0  0  0  0  0  0  0
  151.2184  139.4155  157.1394 H   0  0  0  0  0  0  0  0  0  0  0  0
  150.6852  142.2135  156.0401 H   0  0  0  0  0  0  0  0  0  0  0  0
  151.8522  141.8021  157.2945 H   0  0  0  0  0  0  0  0  0  0  0  0
  150.1317  141.5907  157.5929 H   0  0  0  0  0  0  0  0  0  0  0  0
  149.3698  140.3004  154.8836 H   0  0  0  0  0  0  0  0  0  0  0  0
  148.8538  139.6952  156.4314 H   0  0  0  0  0  0  0  0  0  0  0  0
  1  2  1  0  0  0  0
  1 21  1  0  0  0  0
  1 22  1  0  0  0  0
  1 23  1  0  0  0  0
  2 20  1  0  0  0  0
  2  3  2  0  0  0  0
  3  4  1  0  0  0  0
  4  5  1  0  0  0  0
  4  6  2  0  0  0  0
  5 24  1  0  0  0  0
  5 25  1  0  0  0  0
  5 26  1  0  0  0  0
  6  7  1  0  0  0  0
  6 18  1  0  0  0  0
  7  8  1  0  0  0  0
  7 27  1  0  0  0  0
  7 28  1  0  0  0  0
  8  9  2  0  0  0  0
  8 10  1  0  0  0  0
 10 11  1  0  0  0  0
 10 29  1  0  0  0  0
 11 17  1  0  0  0  0
 11 12  1  0  0  0  0
 11 30  1  0  0  0  0
 12 13  1  0  0  0  0
 12 31  1  0  0  0  0
 12 32  1  0  0  0  0
 13 14  1  0  0  0  0
 13 33  1  0  0  0  0
 13 34  1  0  0  0  0
 14 15  1  0  0  0  0
 14 35  1  0  0  0  0
 14 36  1  0  0  0  0
 15 16  1  0  0  0  0
 15 17  1  0  0  0  0
 15 37  1  0  0  0  0
 16 38  1  0  0  0  0
 16 39  1  0  0  0  0
 16 40  1  0  0  0  0
 17 41  1  0  0  0  0
 17 42  1  0  0  0  0
 18 19  2  0  0  0  0
 18 20  1  0  0  0  0
M  CHG  1  20  -1
M  END
> <s_m_source_file>
AV-unprocessed.smi

> <i_m_source_file_index>
2198

> <i_lp_mmshare_version>
43012

> <i_f3d_flags>
0

> <s_epik_input>
W0NIM11jMW5jKFtDSDNdKWMoYyg9TylbbkhdMSlbQ0gyXUMoPU8pW05IXVtDQEBIXTJbQ0gyXVtDSDJdW0NIMl1bQ0BASF0oW0NIM10pW0NIMl0y

> <s_epik_cmdline>
J2VwaWtfcHl0aG9uJywgJy1waCcsICc3LjAnLCAnLXRuJywgJzgnLCAnLW1hJywgJzIwMCcsICctbWV0YWxfYmluZGluZycsICctaW1hZScsICc8aW5maWxlLm1hZT4nLCAnLW9tYWUnLCAnPG91dGZpbGUubWFlPic=

> <r_lp_tautomer_probability>
0.839158

> <r_epik_Ionization_Penalty>
6.67193

> <r_epik_Ionization_Penalty_Charging>
7.66837e-08

> <r_epik_Ionization_Penalty_Neutral>
6.67193

> <r_epik_State_Penalty>
4.51643

> <r_epik_Charging_Adjusted_Penalty>
4.51643

> <i_epik_Tot_Q>
-1

> <i_epik_Tot_abs_Q>
1

> <r_epik_Metal_State_Penalty>
0.851582

> <b_epik_Metal_Only>
1

> <s_lp_Force_Field>
OPLS_2005

> <r_lp_Energy>
13.1445

> <b_lp_Chiralities_Consistent>
1

> <s_lp_Variant>
AV-unprocessed.smi:2198-9

> <Gold.Version>
5.8.1

> <Gold.Id.Protein>
6NUR|6NUR_protein|mol2

> <Gold.PLP.Fitness>
38.0701

> <Gold.PLP.PLP>
-27.6365

> <Gold.PLP.part.hbond>
-3.2097

> <Gold.PLP.part.metal>
0.0000

> <Gold.PLP.part.buried>
-2.4802

> <Gold.PLP.part.nonpolar>
-23.5362

> <Gold.PLP.part.repulsive>
0.0331

> <Gold.PLP.ligand.clash>
0.0000

> <Gold.PLP.ligand.torsion>
0.1879

> <Gold.PLP.Chemscore.Hbond>
3.6006

> <Gold.PLP.Chemscore.CHOScore>
0.0000

> <Gold.PLP.Chemscore.Metal>
0.0000

> <Gold.Chemscore.Hbonds>
donor molecule, donor type, donor heavy atom, donor atom, acceptor molecule, acceptor atom, score
      P1  H  6931  6943       L1    20  1.86
      P1  H  6934  6947       L1    20  1.72

> <Gold.PLP.Chemscore.Internal.Correction>
0.0076

> <Gold.Rescore>
     Score         DG    S(hbond)    S(metal)    S(lipo)     H(rot)  DE(clash)    DE(int)     intcor
     12.69     -12.98       0.99        0.00      67.42       1.45       0.08       0.21       ----

> <Gold.Chemscore.Fitness>
12.6893

> <Gold.Chemscore.DG>
-12.9757

> <Gold.Chemscore.ZeroCoef>
-5.4800

> <Gold.Chemscore.Hbond>
0.9902

> <Gold.Chemscore.Metal>
0.0000

> <Gold.Chemscore.Lipo>
67.4162

> <Gold.Chemscore.Internal_Hbond>
0.0000

> <Gold.Chemscore.DEClash>
0.0795

> <Gold.Chemscore.DEInternal>
0.2068

> <Gold.Chemscore.Rot>
1.4450

> <Gold.Chemscore.Internal.Correction>
   9.000000E+99

> <Gold.Chemscore.Hbonds>
donor molecule, donor type, donor heavy atom, donor atom, acceptor molecule, acceptor atom, score
      P1  H  6931  6943       L1    20  0.22
      P1  H  6934  6947       L1    20  0.39

> <Gold.Chemscore.Hbond.Weighted>
-3.3072

> <Gold.Chemscore.Metal.Weighted>
-0.0000

> <Gold.Chemscore.Lipo.Weighted>
-7.8877

> <Gold.Chemscore.Internal_Hbond.Weighted>
0.0000

> <Gold.Chemscore.DEClash.Weighted>
0.0795

> <Gold.Chemscore.DEInternal.Weighted>
0.2068

> <Gold.Chemscore.Rot.Weighted>
3.6992

> <Gold.Chemscore.Internal.Correction.Weighted>
   9.000000E+99

> <Gold.Protein.RotatedTorsions>
[ 6907 6896 6895 6894 ] final -154.06 input  -60.11 | X-H torsion
[ 7974 7965 7964 7962 ] final  -93.80 input  175.53 | X-H torsion
[ 8008 7997 7996 7995 ] final -110.53 input   59.86 | X-H torsion
[ 10167 10162 10161 10158 ] final  104.70 input  -65.29 | X-H torsion
[ 10718 10713 10712 10709 ] final  -94.10 input   66.30 | X-H torsion
[ 10763 10752 10751 10750 ] final  -37.56 input  -60.55 | X-H torsion
[ 11005 11000 10999 10996 ] final  107.82 input  -57.11 | X-H torsion

> <Gold.Protein.ActiveResidues>
 VAL166  LYS551  ARG553  GLY616  TRP617  ASP618  TYR619  PRO620  LYS621  CYS622 
 ASP623  PHE694  ASN695  SER759  ASP760  ASP761  ALA762  ILE779  LEU786  VAL792 
 PHE793  MET794  SER795  GLU796  ALA797  LYS798  CYS799  TRP800  GLU811  SER814 

> <Gold.Protein.RotatedAtoms>
  151.2518  133.4346  159.2611 H   0  0  0  0  0  0  0  0  0  0  0  0  # atno 6907 bound_to 6896
  151.0610  134.9737  159.8270 H   0  0  0  0  0  0  0  0  0  0  0  0  # atno 6908 bound_to 6896
  152.5398  134.2468  159.8936 H   0  0  0  0  0  0  0  0  0  0  0  0  # atno 6909 bound_to 6896
  145.3817  140.9518  143.2390 H   0  0  0  0  0  0  0  0  0  0  0  0  # atno 7974 bound_to 7965
  154.9760  140.0397  157.2256 H   0  0  0  0  0  0  0  0  0  0  0  0  # atno 8008 bound_to 7997
  154.7758  140.2810  155.6080 H   0  0  0  0  0  0  0  0  0  0  0  0  # atno 8009 bound_to 7997
  156.2928  140.2601  156.2571 H   0  0  0  0  0  0  0  0  0  0  0  0  # atno 8010 bound_to 7997
  139.7155  144.7069  151.0958 H   0  0  0  0  0  0  0  0  0  0  0  0  # atno 10167 bound_to 10162
  156.0022  130.5054  150.5876 H   0  0  0  0  0  0  0  0  0  0  0  0  # atno 10718 bound_to 10713
  153.8983  135.6805  153.4756 H   0  0  0  0  0  0  0  0  0  0  0  0  # atno 10763 bound_to 10752
  153.1143  135.4768  154.9086 H   0  0  0  0  0  0  0  0  0  0  0  0  # atno 10764 bound_to 10752
  154.7588  135.3205  154.8373 H   0  0  0  0  0  0  0  0  0  0  0  0  # atno 10765 bound_to 10752
  139.8834  134.9412  156.5877 H   0  0  0  0  0  0  0  0  0  0  0  0  # atno 11005 bound_to 11000
  144.8503  139.5332  143.6859 LP  0  0  0  0  0  0  0  0  0  0  0  0  # atno 17320 bound_to 7965
  146.2839  139.6951  142.9209 LP  0  0  0  0  0  0  0  0  0  0  0  0  # atno 17321 bound_to 7965
  140.7742  143.5236  150.9507 LP  0  0  0  0  0  0  0  0  0  0  0  0  # atno 17342 bound_to 10162
  139.8922  143.6939  152.3143 LP  0  0  0  0  0  0  0  0  0  0  0  0  # atno 17343 bound_to 10162
  157.3746  131.0771  151.1528 LP  0  0  0  0  0  0  0  0  0  0  0  0  # atno 17370 bound_to 10713
  157.2271  130.6508  149.5834 LP  0  0  0  0  0  0  0  0  0  0  0  0  # atno 17371 bound_to 10713
  140.7979  133.8529  155.8701 LP  0  0  0  0  0  0  0  0  0  0  0  0  # atno 17394 bound_to 11000
  140.9619  134.1644  157.4647 LP  0  0  0  0  0  0  0  0  0  0  0  0  # atno 17395 bound_to 11000

$$$$
