AV-unprocessed.smi:1400|AV-procd|sdf|5686|dock5
  -GOLD-   22720 5313D 1   1.00000     0.00000
 Structure written by MMmdl.
 34 35  0  0  0  0  0  0  0  0  1 V2000
  151.1582  140.5221  158.9890 C   0  0  0  0  0  0  0  0  0  0  0  0
  152.2086  140.1459  157.9414 C   0  0  0  0  0  0  0  0  0  0  0  0
  153.3353  139.8432  158.3348 O   0  0  0  0  0  0  0  0  0  0  0  0
  151.8676  140.1504  156.6301 N   0  0  0  0  0  0  0  0  0  0  0  0
  152.7823  139.7105  155.5700 C   0  0  0  0  0  0  0  0  0  0  0  0
  152.2792  138.3699  155.0035 C   0  0  0  0  0  0  0  0  0  0  0  0
  150.8201  138.4799  154.5100 C   0  0  0  0  0  0  0  0  0  0  0  0
  150.3074  137.1536  154.1760 N   0  0  0  0  0  0  0  0  0  0  0  0
  150.5539  136.0219  154.8525 C   0  0  0  0  0  0  0  0  0  0  0  0
  151.2580  135.9681  155.8613 O   0  0  0  0  0  0  0  0  0  0  0  0
  149.9351  134.9733  154.2817 N   0  0  0  0  0  0  0  0  0  0  0  0
  149.9545  133.6131  154.6887 C   0  0  0  0  0  0  0  0  0  0  0  0
  150.6153  133.1542  155.7581 N   0  0  0  0  0  0  0  0  0  0  0  0
  150.4596  131.7750  155.9185 C   0  0  0  0  0  0  0  0  0  0  0  0
  149.6717  131.1956  154.9553 C   0  0  0  0  0  0  0  0  0  0  0  0
  149.0898  132.3662  153.8017 S   0  0  0  0  0  0  0  0  0  0  0  0
  149.9109  139.1381  155.5699 C   0  0  0  0  0  0  0  0  0  0  0  0
  150.5297  140.4432  156.1013 C   0  0  0  0  0  0  0  0  0  0  0  0
  150.2913  139.8640  158.9223 H   0  0  0  0  0  0  0  0  0  0  0  0
  150.8324  141.5541  158.8569 H   0  0  0  0  0  0  0  0  0  0  0  0
  151.5690  140.4283  159.9949 H   0  0  0  0  0  0  0  0  0  0  0  0
  152.8116  140.4639  154.7816 H   0  0  0  0  0  0  0  0  0  0  0  0
  153.8111  139.6039  155.9163 H   0  0  0  0  0  0  0  0  0  0  0  0
  152.9265  138.0433  154.1889 H   0  0  0  0  0  0  0  0  0  0  0  0
  152.3506  137.6069  155.7804 H   0  0  0  0  0  0  0  0  0  0  0  0
  150.8162  139.1251  153.6296 H   0  0  0  0  0  0  0  0  0  0  0  0
  149.7144  137.0945  153.3611 H   0  0  0  0  0  0  0  0  0  0  0  0
  149.3882  135.1702  153.4565 H   0  0  0  0  0  0  0  0  0  0  0  0
  150.9468  131.2851  156.7486 H   0  0  0  0  0  0  0  0  0  0  0  0
  149.3999  130.1553  154.8552 H   0  0  0  0  0  0  0  0  0  0  0  0
  148.9263  139.3381  155.1456 H   0  0  0  0  0  0  0  0  0  0  0  0
  149.7548  138.4521  156.4041 H   0  0  0  0  0  0  0  0  0  0  0  0
  149.8623  140.9020  156.8293 H   0  0  0  0  0  0  0  0  0  0  0  0
  150.6165  141.1690  155.2913 H   0  0  0  0  0  0  0  0  0  0  0  0
  1  2  1  0  0  0  0
  1 19  1  0  0  0  0
  1 20  1  0  0  0  0
  1 21  1  0  0  0  0
  2  3  2  0  0  0  0
  2  4  1  0  0  0  0
  4 18  1  0  0  0  0
  4  5  1  0  0  0  0
  5  6  1  0  0  0  0
  5 22  1  0  0  0  0
  5 23  1  0  0  0  0
  6  7  1  0  0  0  0
  6 24  1  0  0  0  0
  6 25  1  0  0  0  0
  7  8  1  0  0  0  0
  7 17  1  0  0  0  0
  7 26  1  0  0  0  0
  8  9  1  0  0  0  0
  8 27  1  0  0  0  0
  9 10  2  0  0  0  0
  9 11  1  0  0  0  0
 11 12  1  0  0  0  0
 11 28  1  0  0  0  0
 12 16  1  0  0  0  0
 12 13  2  0  0  0  0
 13 14  1  0  0  0  0
 14 15  2  0  0  0  0
 14 29  1  0  0  0  0
 15 16  1  0  0  0  0
 15 30  1  0  0  0  0
 17 18  1  0  0  0  0
 17 31  1  0  0  0  0
 17 32  1  0  0  0  0
 18 33  1  0  0  0  0
 18 34  1  0  0  0  0
M  END
> <s_m_source_file>
AV-unprocessed.smi

> <i_m_source_file_index>
1400

> <i_lp_mmshare_version>
43012

> <i_f3d_flags>
0

> <s_epik_input>
W0NIM11DKD1PKU4xW0NIMl1bQ0gyXVtDSF0oW0NIMl1bQ0gyXTEpW05IXUMoPU8pW05IXWMybltjSF1bY0hdczI=

> <s_epik_cmdline>
J2VwaWtfcHl0aG9uJywgJy1waCcsICc3LjAnLCAnLXRuJywgJzgnLCAnLW1hJywgJzIwMCcsICctbWV0YWxfYmluZGluZycsICctaW1hZScsICc8aW5maWxlLm1hZT4nLCAnLW9tYWUnLCAnPG91dGZpbGUubWFlPic=

> <r_lp_tautomer_probability>
1

> <r_epik_Ionization_Penalty>
0.000151384

> <r_epik_Ionization_Penalty_Charging>
0

> <r_epik_Ionization_Penalty_Neutral>
0.000151384

> <r_epik_State_Penalty>
-0

> <r_epik_Charging_Adjusted_Penalty>
0

> <i_epik_Tot_Q>
0

> <i_epik_Tot_abs_Q>
0

> <r_epik_Metal_State_Penalty>
0.0312905

> <b_epik_Metal_Only>
0

> <s_lp_Force_Field>
OPLS_2005

> <r_lp_Energy>
21.754

> <b_lp_Chiralities_Consistent>
1

> <s_lp_Variant>
AV-unprocessed.smi:1400-1

> <Gold.Version>
5.8.1

> <Gold.Id.Protein>
6NUR|6NUR_protein|mol2

> <Gold.PLP.Fitness>
39.9230

> <Gold.PLP.PLP>
-29.3943

> <Gold.PLP.part.hbond>
-5.5600

> <Gold.PLP.part.metal>
0.0000

> <Gold.PLP.part.buried>
2.3557

> <Gold.PLP.part.nonpolar>
-25.2311

> <Gold.PLP.part.repulsive>
0.1660

> <Gold.PLP.ligand.clash>
0.0986

> <Gold.PLP.ligand.torsion>
0.3283

> <Gold.PLP.Chemscore.Hbond>
3.7558

> <Gold.PLP.Chemscore.CHOScore>
0.0000

> <Gold.PLP.Chemscore.Metal>
0.0000

> <Gold.Chemscore.Hbonds>
donor molecule, donor type, donor heavy atom, donor atom, acceptor molecule, acceptor atom, score
      L1  H     8    27       P1  7948  1.00
      L1  H    11    28       P1  7948  0.75
      P1  H  7997  8008       L1     3  0.99
      P1  H 10752 10765       L1    10  0.80

> <Gold.PLP.Chemscore.Internal.Correction>
0.0165

> <Gold.Rescore>
     Score         DG    S(hbond)    S(metal)    S(lipo)     H(rot)  DE(clash)    DE(int)     intcor
     15.52     -18.72       2.85        0.00      53.59       1.00       0.03       3.17       ----

> <Gold.Chemscore.Fitness>
15.5170

> <Gold.Chemscore.DG>
-18.7167

> <Gold.Chemscore.ZeroCoef>
-5.4800

> <Gold.Chemscore.Hbond>
2.8523

> <Gold.Chemscore.Metal>
0.0000

> <Gold.Chemscore.Lipo>
53.5890

> <Gold.Chemscore.Internal_Hbond>
0.0000

> <Gold.Chemscore.DEClash>
0.0287

> <Gold.Chemscore.DEInternal>
3.1711

> <Gold.Chemscore.Rot>
1.0000

> <Gold.Chemscore.Internal.Correction>
   9.000000E+99

> <Gold.Chemscore.Hbonds>
donor molecule, donor type, donor heavy atom, donor atom, acceptor molecule, acceptor atom, score
      L1  H     8    27       P1  7948  0.59
      L1  H    11    28       P1  7948  0.09
      P1  H  7997  8008       L1     3  0.52
      P1  H 10752 10765       L1    10  0.15

> <Gold.Chemscore.Hbond.Weighted>
-9.5268

> <Gold.Chemscore.Metal.Weighted>
-0.0000

> <Gold.Chemscore.Lipo.Weighted>
-6.2699

> <Gold.Chemscore.Internal_Hbond.Weighted>
0.0000

> <Gold.Chemscore.DEClash.Weighted>
0.0287

> <Gold.Chemscore.DEInternal.Weighted>
3.1711

> <Gold.Chemscore.Rot.Weighted>
2.5600

> <Gold.Chemscore.Internal.Correction.Weighted>
   9.000000E+99

> <Gold.Protein.RotatedTorsions>
[ 6907 6896 6895 6894 ] final   15.69 input  -60.11 | X-H torsion
[ 7974 7965 7964 7962 ] final -178.54 input  175.53 | X-H torsion
[ 8008 7997 7996 7995 ] final  -73.44 input   59.86 | X-H torsion
[ 10167 10162 10161 10158 ] final -136.92 input  -65.29 | X-H torsion
[ 10718 10713 10712 10709 ] final  100.02 input   66.30 | X-H torsion
[ 10763 10752 10751 10750 ] final -158.73 input  -60.55 | X-H torsion
[ 11005 11000 10999 10996 ] final -133.32 input  -57.11 | X-H torsion

> <Gold.Protein.ActiveResidues>
 VAL166  LYS551  ARG553  GLY616  TRP617  ASP618  TYR619  PRO620  LYS621  CYS622 
 ASP623  PHE694  ASN695  SER759  ASP760  ASP761  ALA762  ILE779  LEU786  VAL792 
 PHE793  MET794  SER795  GLU796  ALA797  LYS798  CYS799  TRP800  GLU811  SER814 

> <Gold.Protein.RotatedAtoms>
  151.8221  135.0648  160.0426 H   0  0  0  0  0  0  0  0  0  0  0  0  # atno 6907 bound_to 6896
  152.2943  133.5588  159.5586 H   0  0  0  0  0  0  0  0  0  0  0  0  # atno 6908 bound_to 6896
  150.7244  134.0299  159.3772 H   0  0  0  0  0  0  0  0  0  0  0  0  # atno 6909 bound_to 6896
  144.7131  140.0853  143.6424 H   0  0  0  0  0  0  0  0  0  0  0  0  # atno 7974 bound_to 7965
  154.5247  140.0779  156.8237 H   0  0  0  0  0  0  0  0  0  0  0  0  # atno 8008 bound_to 7997
  155.3500  140.3412  155.4221 H   0  0  0  0  0  0  0  0  0  0  0  0  # atno 8009 bound_to 7997
  156.1719  140.1622  156.8418 H   0  0  0  0  0  0  0  0  0  0  0  0  # atno 8010 bound_to 7997
  139.8630  143.7053  152.2648 H   0  0  0  0  0  0  0  0  0  0  0  0  # atno 10167 bound_to 10162
  157.6863  131.0686  150.5037 H   0  0  0  0  0  0  0  0  0  0  0  0  # atno 10718 bound_to 10713
  154.7532  135.3098  154.8518 H   0  0  0  0  0  0  0  0  0  0  0  0  # atno 10763 bound_to 10752
  153.9299  135.6786  153.4750 H   0  0  0  0  0  0  0  0  0  0  0  0  # atno 10764 bound_to 10752
  153.1129  135.4858  154.8994 H   0  0  0  0  0  0  0  0  0  0  0  0  # atno 10765 bound_to 10752
  140.9091  134.1591  157.4403 H   0  0  0  0  0  0  0  0  0  0  0  0  # atno 11005 bound_to 11000
  145.9667  139.2840  143.1123 LP  0  0  0  0  0  0  0  0  0  0  0  0  # atno 17320 bound_to 7965
  145.9161  140.9147  143.0429 LP  0  0  0  0  0  0  0  0  0  0  0  0  # atno 17321 bound_to 7965
  139.7356  144.7572  151.0733 LP  0  0  0  0  0  0  0  0  0  0  0  0  # atno 17342 bound_to 10162
  140.7772  143.5035  150.9742 LP  0  0  0  0  0  0  0  0  0  0  0  0  # atno 17343 bound_to 10162
  156.5357  130.4196  149.6179 LP  0  0  0  0  0  0  0  0  0  0  0  0  # atno 17370 bound_to 10713
  156.3029  130.7187  151.2063 LP  0  0  0  0  0  0  0  0  0  0  0  0  # atno 17371 bound_to 10713
  139.8754  134.9929  156.5617 LP  0  0  0  0  0  0  0  0  0  0  0  0  # atno 17394 bound_to 11000
  140.8132  133.8412  155.8829 LP  0  0  0  0  0  0  0  0  0  0  0  0  # atno 17395 bound_to 11000

$$$$
