AV-unprocessed.smi:2092|AV-procd|sdf|8543|dock8
  -GOLD-   2272011263D 1   1.00000     0.00000
 Structure written by MMmdl.
 44 45  0  0  0  0  0  0  0  0  1 V2000
  144.0224  136.3017  151.9498 C   0  0  0  0  0  0  0  0  0  0  0  0
  145.4510  135.9213  151.5327 C   0  0  1  0  0  0  0  0  0  0  0  0
  145.3507  134.9676  150.4779 O   0  0  0  0  0  0  0  0  0  0  0  0
  146.0714  133.7543  150.6721 C   0  0  0  0  0  0  0  0  0  0  0  0
  145.1686  132.5654  150.3223 C   0  0  0  0  0  0  0  0  0  0  0  0
  145.7849  131.4323  150.6570 F   0  0  0  0  0  0  0  0  0  0  0  0
  144.0224  132.6439  150.9975 F   0  0  0  0  0  0  0  0  0  0  0  0
  144.9174  132.5453  149.0137 F   0  0  0  0  0  0  0  0  0  0  0  0
  146.2484  137.1529  151.0729 C   0  0  0  0  0  0  0  0  0  0  0  0
  146.7900  137.1643  149.9674 O   0  0  0  0  0  0  0  0  0  0  0  0
  146.3184  138.1723  151.9424 N   0  0  0  0  0  0  0  0  0  0  0  0
  146.9980  139.4440  151.7134 C   0  0  0  0  0  0  0  0  0  0  0  0
  147.7404  139.9668  152.9337 C   0  0  0  0  0  0  0  0  0  0  0  0
  147.6114  141.3016  153.3741 C   0  0  0  0  0  0  0  0  0  0  0  0
  148.3306  141.7022  154.5155 C   0  0  0  0  0  0  0  0  0  0  0  0
  149.1428  140.8761  155.2072 N   0  0  0  0  0  0  0  0  0  0  0  0
  149.2883  139.5963  154.7839 C   0  0  0  0  0  0  0  0  0  0  0  0
  150.1494  138.7444  155.5075 N   0  0  0  0  0  0  0  0  0  0  0  0
  149.9358  137.3147  155.2996 C   0  0  0  0  0  0  0  0  0  0  0  0
  150.7055  136.5005  156.3537 C   0  0  0  0  0  0  0  0  0  0  0  0
  152.0826  136.8621  156.3315 O   0  0  0  0  0  0  0  0  0  0  0  0
  152.2742  138.2380  156.6444 C   0  0  0  0  0  0  0  0  0  0  0  0
  151.5611  139.1113  155.5980 C   0  0  0  0  0  0  0  0  0  0  0  0
  148.5989  139.1069  153.6490 C   0  0  0  0  0  0  0  0  0  0  0  0
  144.0260  137.0522  152.7412 H   0  0  0  0  0  0  0  0  0  0  0  0
  143.4849  135.4306  152.3249 H   0  0  0  0  0  0  0  0  0  0  0  0
  143.4522  136.7017  151.1105 H   0  0  0  0  0  0  0  0  0  0  0  0
  145.9453  135.4614  152.3908 H   0  0  0  0  0  0  0  0  0  0  0  0
  146.9645  133.7282  150.0467 H   0  0  0  0  0  0  0  0  0  0  0  0
  146.3964  133.6749  151.7105 H   0  0  0  0  0  0  0  0  0  0  0  0
  145.8447  138.0683  152.8280 H   0  0  0  0  0  0  0  0  0  0  0  0
  147.7066  139.3020  150.8966 H   0  0  0  0  0  0  0  0  0  0  0  0
  146.3026  140.2194  151.3887 H   0  0  0  0  0  0  0  0  0  0  0  0
  146.9815  142.0105  152.8572 H   0  0  0  0  0  0  0  0  0  0  0  0
  148.2530  142.7148  154.8827 H   0  0  0  0  0  0  0  0  0  0  0  0
  148.8796  137.0532  155.3495 H   0  0  0  0  0  0  0  0  0  0  0  0
  150.2811  137.0506  154.2991 H   0  0  0  0  0  0  0  0  0  0  0  0
  150.2907  136.6648  157.3496 H   0  0  0  0  0  0  0  0  0  0  0  0
  150.6151  135.4349  156.1435 H   0  0  0  0  0  0  0  0  0  0  0  0
  151.9007  138.4494  157.6476 H   0  0  0  0  0  0  0  0  0  0  0  0
  153.3422  138.4557  156.6498 H   0  0  0  0  0  0  0  0  0  0  0  0
  152.0323  138.9831  154.6225 H   0  0  0  0  0  0  0  0  0  0  0  0
  151.6602  140.1618  155.8742 H   0  0  0  0  0  0  0  0  0  0  0  0
  148.7096  138.0799  153.3334 H   0  0  0  0  0  0  0  0  0  0  0  0
  1  2  1  0  0  0  0
  1 25  1  0  0  0  0
  1 26  1  0  0  0  0
  1 27  1  0  0  0  0
  2  3  1  0  0  0  0
  2  9  1  0  0  0  0
  2 28  1  0  0  0  0
  3  4  1  0  0  0  0
  4  5  1  0  0  0  0
  4 29  1  0  0  0  0
  4 30  1  0  0  0  0
  5  6  1  0  0  0  0
  5  7  1  0  0  0  0
  5  8  1  0  0  0  0
  9 10  2  0  0  0  0
  9 11  1  0  0  0  0
 11 12  1  0  0  0  0
 11 31  1  0  0  0  0
 12 13  1  0  0  0  0
 12 32  1  0  0  0  0
 12 33  1  0  0  0  0
 13 24  1  0  0  0  0
 13 14  2  0  0  0  0
 14 15  1  0  0  0  0
 14 34  1  0  0  0  0
 15 16  2  0  0  0  0
 15 35  1  0  0  0  0
 16 17  1  0  0  0  0
 17 18  1  0  0  0  0
 17 24  2  0  0  0  0
 18 23  1  0  0  0  0
 18 19  1  0  0  0  0
 19 20  1  0  0  0  0
 19 36  1  0  0  0  0
 19 37  1  0  0  0  0
 20 21  1  0  0  0  0
 20 38  1  0  0  0  0
 20 39  1  0  0  0  0
 21 22  1  0  0  0  0
 22 23  1  0  0  0  0
 22 40  1  0  0  0  0
 22 41  1  0  0  0  0
 23 42  1  0  0  0  0
 23 43  1  0  0  0  0
 24 44  1  0  0  0  0
M  END
> <s_m_source_file>
AV-unprocessed.smi

> <i_m_source_file_index>
2092

> <i_lp_mmshare_version>
43012

> <i_f3d_flags>
0

> <s_epik_input>
RkMoRikoRilbQ0gyXU9bQ0BASF0oW0NIM10pQyg9TylbTkhdW0NIMl1jMVtjSF1bY0hdbmMoW2NIXTEpTjJbQ0gyXVtDSDJdT1tDSDJdW0NIMl0y

> <s_epik_cmdline>
J2VwaWtfcHl0aG9uJywgJy1waCcsICc3LjAnLCAnLXRuJywgJzgnLCAnLW1hJywgJzIwMCcsICctbWV0YWxfYmluZGluZycsICctaW1hZScsICc8aW5maWxlLm1hZT4nLCAnLW9tYWUnLCAnPG91dGZpbGUubWFlPic=

> <r_lp_tautomer_probability>
1

> <r_epik_Ionization_Penalty>
0.00451782

> <r_epik_Ionization_Penalty_Charging>
0

> <r_epik_Ionization_Penalty_Neutral>
0.00451782

> <r_epik_State_Penalty>
0.00326147

> <r_epik_Charging_Adjusted_Penalty>
0.00326147

> <i_epik_Tot_Q>
0

> <i_epik_Tot_abs_Q>
0

> <r_epik_Metal_State_Penalty>
-0

> <b_epik_Metal_Only>
0

> <s_lp_Force_Field>
OPLS_2005

> <r_lp_Energy>
17.1262

> <b_lp_Chiralities_Consistent>
1

> <s_lp_Variant>
AV-unprocessed.smi:2092-2

> <Gold.Version>
5.8.1

> <Gold.Id.Protein>
6NUR|6NUR_protein|mol2

> <Gold.PLP.Fitness>
44.9303

> <Gold.PLP.PLP>
-39.8730

> <Gold.PLP.part.hbond>
-2.8489

> <Gold.PLP.part.metal>
0.0000

> <Gold.PLP.part.buried>
2.3318

> <Gold.PLP.part.nonpolar>
-43.7457

> <Gold.PLP.part.repulsive>
3.7297

> <Gold.PLP.ligand.clash>
0.0000

> <Gold.PLP.ligand.torsion>
1.6860

> <Gold.PLP.Chemscore.Hbond>
1.6581

> <Gold.PLP.Chemscore.CHOScore>
1.0000

> <Gold.PLP.Chemscore.Metal>
0.0000

> <Gold.Chemscore.Hbonds>
donor molecule, donor type, donor heavy atom, donor atom, acceptor molecule, acceptor atom, score
      P1  H  7954  7966       L1    10  0.56
      P1  H 10752 10764       L1    21  0.68
      L1  C    15    35       P1  8028  1.00

> <Gold.PLP.Chemscore.Internal.Correction>
0.4550

> <Gold.Rescore>
     Score         DG    S(hbond)    S(metal)    S(lipo)     H(rot)  DE(clash)    DE(int)     intcor
      9.99     -13.60       1.68        0.00      76.00       2.49       1.87       1.75       ----

> <Gold.Chemscore.Fitness>
9.9872

> <Gold.Chemscore.DG>
-13.6007

> <Gold.Chemscore.ZeroCoef>
-5.4800

> <Gold.Chemscore.Hbond>
1.6774

> <Gold.Chemscore.Metal>
0.0000

> <Gold.Chemscore.Lipo>
76.0034

> <Gold.Chemscore.Internal_Hbond>
0.0000

> <Gold.Chemscore.DEClash>
1.8655

> <Gold.Chemscore.DEInternal>
1.7481

> <Gold.Chemscore.Rot>
2.4899

> <Gold.Chemscore.Internal.Correction>
   9.000000E+99

> <Gold.Chemscore.Hbonds>
donor molecule, donor type, donor heavy atom, donor atom, acceptor molecule, acceptor atom, score
      P1  H  7954  7966       L1    10  0.51
      P1  H 10752 10764       L1    21  0.46

> <Gold.Chemscore.Hbond.Weighted>
-5.6025

> <Gold.Chemscore.Metal.Weighted>
-0.0000

> <Gold.Chemscore.Lipo.Weighted>
-8.8924

> <Gold.Chemscore.Internal_Hbond.Weighted>
0.0000

> <Gold.Chemscore.DEClash.Weighted>
1.8655

> <Gold.Chemscore.DEInternal.Weighted>
1.7481

> <Gold.Chemscore.Rot.Weighted>
6.3741

> <Gold.Chemscore.Internal.Correction.Weighted>
   9.000000E+99

> <Gold.Protein.RotatedTorsions>
[ 6907 6896 6895 6894 ] final  -23.29 input  -60.11 | X-H torsion
[ 7974 7965 7964 7962 ] final  -38.45 input  175.53 | X-H torsion
[ 8008 7997 7996 7995 ] final   80.73 input   59.86 | X-H torsion
[ 10167 10162 10161 10158 ] final   21.96 input  -65.29 | X-H torsion
[ 10718 10713 10712 10709 ] final  -11.86 input   66.30 | X-H torsion
[ 10763 10752 10751 10750 ] final  -32.04 input  -60.55 | X-H torsion
[ 11005 11000 10999 10996 ] final  172.35 input  -57.11 | X-H torsion

> <Gold.Protein.ActiveResidues>
 VAL166  LYS551  ARG553  GLY616  TRP617  ASP618  TYR619  PRO620  LYS621  CYS622 
 ASP623  PHE694  ASN695  SER759  ASP760  ASP761  ALA762  ILE779  LEU786  VAL792 
 PHE793  MET794  SER795  GLU796  ALA797  LYS798  CYS799  TRP800  GLU811  SER814 

> <Gold.Protein.RotatedAtoms>
  151.2061  135.0462  159.8891 H   0  0  0  0  0  0  0  0  0  0  0  0  # atno 6907 bound_to 6896
  152.5428  134.0796  159.8240 H   0  0  0  0  0  0  0  0  0  0  0  0  # atno 6908 bound_to 6896
  151.0943  133.5244  159.2645 H   0  0  0  0  0  0  0  0  0  0  0  0  # atno 6909 bound_to 6896
  146.0485  140.6513  142.9053 H   0  0  0  0  0  0  0  0  0  0  0  0  # atno 7974 bound_to 7965
  155.8875  140.3440  155.5932 H   0  0  0  0  0  0  0  0  0  0  0  0  # atno 8008 bound_to 7997
  155.7649  140.0837  157.2156 H   0  0  0  0  0  0  0  0  0  0  0  0  # atno 8009 bound_to 7997
  154.4030  140.1529  156.2862 H   0  0  0  0  0  0  0  0  0  0  0  0  # atno 8010 bound_to 7997
  140.5386  143.9717  150.6506 H   0  0  0  0  0  0  0  0  0  0  0  0  # atno 10167 bound_to 10162
  156.6529  130.4960  149.6056 H   0  0  0  0  0  0  0  0  0  0  0  0  # atno 10718 bound_to 10713
  153.8072  135.6885  153.4846 H   0  0  0  0  0  0  0  0  0  0  0  0  # atno 10763 bound_to 10752
  153.1651  135.4564  154.9824 H   0  0  0  0  0  0  0  0  0  0  0  0  # atno 10764 bound_to 10752
  154.7982  135.3327  154.7555 H   0  0  0  0  0  0  0  0  0  0  0  0  # atno 10765 bound_to 10752
  140.3288  134.7375  157.4119 H   0  0  0  0  0  0  0  0  0  0  0  0  # atno 11005 bound_to 11000
  144.7110  140.4039  143.7080 LP  0  0  0  0  0  0  0  0  0  0  0  0  # atno 17320 bound_to 7965
  145.6764  139.1609  143.2725 LP  0  0  0  0  0  0  0  0  0  0  0  0  # atno 17321 bound_to 7965
  140.3111  143.3197  152.0878 LP  0  0  0  0  0  0  0  0  0  0  0  0  # atno 17342 bound_to 10162
  139.4980  144.6635  151.6409 LP  0  0  0  0  0  0  0  0  0  0  0  0  # atno 17343 bound_to 10162
  156.2070  130.6655  151.1229 LP  0  0  0  0  0  0  0  0  0  0  0  0  # atno 17370 bound_to 10713
  157.7135  131.0722  150.6414 LP  0  0  0  0  0  0  0  0  0  0  0  0  # atno 17371 bound_to 10713
  140.0878  134.5642  155.8474 LP  0  0  0  0  0  0  0  0  0  0  0  0  # atno 17394 bound_to 11000
  141.2068  133.6659  156.6268 LP  0  0  0  0  0  0  0  0  0  0  0  0  # atno 17395 bound_to 11000

$$$$
