AV-unprocessed.smi:3118|AV-procd|sdf|11886|dock10
  -GOLD-   2272017273D 1   1.00000     0.00000
 Structure written by MMmdl.
 33 34  0  0  0  0  0  0  0  0  2 V2000
  149.3710  140.4451  157.3210 C   0  0  0  0  0  0  0  0  0  0  0  0
  150.0314  141.3185  156.2458 C   0  0  2  0  0  0  0  0  0  0  0  0
  151.3530  140.6921  155.7506 C   0  0  0  0  0  0  0  0  0  0  0  0
  151.1753  139.3442  155.1998 N   0  0  0  0  0  0  0  0  0  0  0  0
  151.7658  138.1859  155.6356 C   0  0  0  0  0  0  0  0  0  0  0  0
  151.2929  137.1801  154.8329 C   0  0  0  0  0  0  0  0  0  0  0  0
  150.4387  137.7671  153.9384 N   0  3  0  0  0  0  0  0  0  0  0  0
  150.3723  139.0838  154.1597 C   0  0  0  0  0  0  0  0  0  0  0  0
  150.2549  142.6552  156.7958 N   0  0  0  0  0  0  0  0  0  0  0  0
  151.0762  142.9588  157.8133 C   0  0  0  0  0  0  0  0  0  0  0  0
  151.7483  142.1185  158.4125 O   0  0  0  0  0  0  0  0  0  0  0  0
  151.1274  144.4378  158.2161 C   0  0  0  0  0  0  0  0  0  0  0  0
  152.5330  144.9766  158.5378 C   0  0  0  0  0  0  0  0  0  0  0  0
  151.9404  145.6689  159.7687 C   0  0  0  0  0  0  0  0  0  0  0  0
  150.7559  144.7017  159.6855 C   0  0  0  0  0  0  0  0  0  0  0  0
  149.1551  139.4473  156.9378 H   0  0  0  0  0  0  0  0  0  0  0  0
  148.4275  140.8784  157.6549 H   0  0  0  0  0  0  0  0  0  0  0  0
  150.0144  140.3334  158.1944 H   0  0  0  0  0  0  0  0  0  0  0  0
  149.3335  141.3779  155.4083 H   0  0  0  0  0  0  0  0  0  0  0  0
  151.8253  141.3215  154.9944 H   0  0  0  0  0  0  0  0  0  0  0  0
  152.0616  140.6060  156.5752 H   0  0  0  0  0  0  0  0  0  0  0  0
  152.4544  138.1630  156.4679 H   0  0  0  0  0  0  0  0  0  0  0  0
  151.4939  136.1186  154.8323 H   0  0  0  0  0  0  0  0  0  0  0  0
  149.7769  139.7938  153.6137 H   0  0  0  0  0  0  0  0  0  0  0  0
  149.7479  143.4130  156.3616 H   0  0  0  0  0  0  0  0  0  0  0  0
  150.5858  145.0952  157.5328 H   0  0  0  0  0  0  0  0  0  0  0  0
  153.2646  144.2097  158.7985 H   0  0  0  0  0  0  0  0  0  0  0  0
  152.9313  145.6654  157.7923 H   0  0  0  0  0  0  0  0  0  0  0  0
  152.5400  145.5782  160.6749 H   0  0  0  0  0  0  0  0  0  0  0  0
  151.6545  146.7036  159.5732 H   0  0  0  0  0  0  0  0  0  0  0  0
  149.7848  145.1774  159.8246 H   0  0  0  0  0  0  0  0  0  0  0  0
  150.8721  143.8356  160.3398 H   0  0  0  0  0  0  0  0  0  0  0  0
  149.9279  137.2771  153.2146 H   0  0  0  0  0  0  0  0  0  0  0  0
  1  2  1  0  0  0  0
  1 16  1  0  0  0  0
  1 17  1  0  0  0  0
  1 18  1  0  0  0  0
  2  3  1  0  0  0  0
  2  9  1  0  0  0  0
  2 19  1  0  0  0  0
  3  4  1  0  0  0  0
  3 20  1  0  0  0  0
  3 21  1  0  0  0  0
  4  8  1  0  0  0  0
  4  5  1  0  0  0  0
  5  6  2  0  0  0  0
  5 22  1  0  0  0  0
  6  7  1  0  0  0  0
  6 23  1  0  0  0  0
  7  8  2  0  0  0  0
  7 33  1  0  0  0  0
  8 24  1  0  0  0  0
  9 10  1  0  0  0  0
  9 25  1  0  0  0  0
 10 11  2  0  0  0  0
 10 12  1  0  0  0  0
 12 15  1  0  0  0  0
 12 13  1  0  0  0  0
 12 26  1  0  0  0  0
 13 14  1  0  0  0  0
 13 27  1  0  0  0  0
 13 28  1  0  0  0  0
 14 15  1  0  0  0  0
 14 29  1  0  0  0  0
 14 30  1  0  0  0  0
 15 31  1  0  0  0  0
 15 32  1  0  0  0  0
M  CHG  1   7   1
M  END
> <s_m_source_file>
AV-unprocessed.smi

> <i_m_source_file_index>
3118

> <i_lp_mmshare_version>
43012

> <i_f3d_flags>
0

> <s_epik_input>
W0NIMl0xW0NIMl1bQ0gyXVtDSF0xQyg9TylbTkhdW0NASF0oW0NIM10pW0NIMl1uMltjSF1bY0hdbltjSF0y

> <s_epik_cmdline>
J2VwaWtfcHl0aG9uJywgJy1waCcsICc3LjAnLCAnLXRuJywgJzgnLCAnLW1hJywgJzIwMCcsICctbWV0YWxfYmluZGluZycsICctaW1hZScsICc8aW5maWxlLm1hZT4nLCAnLW9tYWUnLCAnPG91dGZpbGUubWFlPic=

> <r_lp_tautomer_probability>
1

> <r_epik_Ionization_Penalty>
0.244425

> <r_epik_Ionization_Penalty_Charging>
0

> <r_epik_Ionization_Penalty_Neutral>
0.244425

> <r_epik_State_Penalty>
0.23553

> <r_epik_Charging_Adjusted_Penalty>
0.23553

> <i_epik_Tot_Q>
1

> <i_epik_Tot_abs_Q>
1

> <r_epik_Metal_State_Penalty>
0.5288

> <b_epik_Metal_Only>
0

> <s_lp_Force_Field>
OPLS_2005

> <r_lp_Energy>
13.9066

> <b_lp_Chiralities_Consistent>
1

> <s_lp_Variant>
AV-unprocessed.smi:3118-1

> <Gold.Version>
5.8.1

> <Gold.Id.Protein>
6NUR|6NUR_protein|mol2

> <Gold.PLP.Fitness>
48.3208

> <Gold.PLP.PLP>
-36.6684

> <Gold.PLP.part.hbond>
-2.8645

> <Gold.PLP.part.metal>
0.0000

> <Gold.PLP.part.buried>
-2.5263

> <Gold.PLP.part.nonpolar>
-30.6797

> <Gold.PLP.part.repulsive>
0.1249

> <Gold.PLP.ligand.clash>
0.0000

> <Gold.PLP.ligand.torsion>
0.2715

> <Gold.PLP.Chemscore.Hbond>
3.0000

> <Gold.PLP.Chemscore.CHOScore>
0.9282

> <Gold.PLP.Chemscore.Metal>
0.0000

> <Gold.Chemscore.Hbonds>
donor molecule, donor type, donor heavy atom, donor atom, acceptor molecule, acceptor atom, score
      L1  H     7    33       P1  7948  2.00
      L1  H     9    25       P1  8028  1.00
      L1  C     8    24       P1  7957  0.94

> <Gold.PLP.Chemscore.Internal.Correction>
0.4107

> <Gold.Rescore>
     Score         DG    S(hbond)    S(metal)    S(lipo)     H(rot)  DE(clash)    DE(int)     intcor
     15.30     -16.51       1.94        0.00      79.56       1.86       0.08       1.13       ----

> <Gold.Chemscore.Fitness>
15.3010

> <Gold.Chemscore.DG>
-16.5131

> <Gold.Chemscore.ZeroCoef>
-5.4800

> <Gold.Chemscore.Hbond>
1.9389

> <Gold.Chemscore.Metal>
0.0000

> <Gold.Chemscore.Lipo>
79.5605

> <Gold.Chemscore.Internal_Hbond>
0.0000

> <Gold.Chemscore.DEClash>
0.0812

> <Gold.Chemscore.DEInternal>
1.1309

> <Gold.Chemscore.Rot>
1.8561

> <Gold.Chemscore.Internal.Correction>
   9.000000E+99

> <Gold.Chemscore.Hbonds>
donor molecule, donor type, donor heavy atom, donor atom, acceptor molecule, acceptor atom, score
      L1  H     7    33       P1  7948  0.30
      L1  H     9    25       P1  8028  1.00

> <Gold.Chemscore.Hbond.Weighted>
-6.4761

> <Gold.Chemscore.Metal.Weighted>
-0.0000

> <Gold.Chemscore.Lipo.Weighted>
-9.3086

> <Gold.Chemscore.Internal_Hbond.Weighted>
0.0000

> <Gold.Chemscore.DEClash.Weighted>
0.0812

> <Gold.Chemscore.DEInternal.Weighted>
1.1309

> <Gold.Chemscore.Rot.Weighted>
4.7516

> <Gold.Chemscore.Internal.Correction.Weighted>
   9.000000E+99

> <Gold.Protein.RotatedTorsions>
[ 6907 6896 6895 6894 ] final -167.88 input  -60.11 | X-H torsion
[ 7974 7965 7964 7962 ] final   -3.80 input  175.53 | X-H torsion
[ 8008 7997 7996 7995 ] final  129.33 input   59.86 | X-H torsion
[ 10167 10162 10161 10158 ] final  104.35 input  -65.29 | X-H torsion
[ 10718 10713 10712 10709 ] final   23.47 input   66.30 | X-H torsion
[ 10763 10752 10751 10750 ] final -163.90 input  -60.55 | X-H torsion
[ 11005 11000 10999 10996 ] final   66.86 input  -57.11 | X-H torsion

> <Gold.Protein.ActiveResidues>
 VAL166  LYS551  ARG553  GLY616  TRP617  ASP618  TYR619  PRO620  LYS621  CYS622 
 ASP623  PHE694  ASN695  SER759  ASP760  ASP761  ALA762  ILE779  LEU786  VAL792 
 PHE793  MET794  SER795  GLU796  ALA797  LYS798  CYS799  TRP800  GLU811  SER814 

> <Gold.Protein.RotatedAtoms>
  151.4667  133.3579  159.2817 H   0  0  0  0  0  0  0  0  0  0  0  0  # atno 6907 bound_to 6896
  150.8989  134.8401  159.7356 H   0  0  0  0  0  0  0  0  0  0  0  0  # atno 6908 bound_to 6896
  152.4867  134.4585  159.9649 H   0  0  0  0  0  0  0  0  0  0  0  0  # atno 6909 bound_to 6896
  146.2383  140.1776  142.8332 H   0  0  0  0  0  0  0  0  0  0  0  0  # atno 7974 bound_to 7965
  156.2934  140.2623  156.2581 H   0  0  0  0  0  0  0  0  0  0  0  0  # atno 8008 bound_to 7997
  154.9816  140.0389  157.2298 H   0  0  0  0  0  0  0  0  0  0  0  0  # atno 8009 bound_to 7997
  154.7767  140.2788  155.6100 H   0  0  0  0  0  0  0  0  0  0  0  0  # atno 8010 bound_to 7997
  139.7185  144.7063  151.0911 H   0  0  0  0  0  0  0  0  0  0  0  0  # atno 10167 bound_to 10162
  157.1665  130.6740  149.6062 H   0  0  0  0  0  0  0  0  0  0  0  0  # atno 10718 bound_to 10713
  154.7079  135.3000  154.9242 H   0  0  0  0  0  0  0  0  0  0  0  0  # atno 10763 bound_to 10752
  154.0153  135.6689  153.4772 H   0  0  0  0  0  0  0  0  0  0  0  0  # atno 10764 bound_to 10752
  153.0732  135.5049  154.8261 H   0  0  0  0  0  0  0  0  0  0  0  0  # atno 10765 bound_to 10752
  139.9806  134.6750  156.0270 H   0  0  0  0  0  0  0  0  0  0  0  0  # atno 11005 bound_to 11000
  144.9960  140.8590  143.5310 LP  0  0  0  0  0  0  0  0  0  0  0  0  # atno 17320 bound_to 7965
  145.1789  139.2363  143.5303 LP  0  0  0  0  0  0  0  0  0  0  0  0  # atno 17321 bound_to 7965
  140.7749  143.5198  150.9550 LP  0  0  0  0  0  0  0  0  0  0  0  0  # atno 17342 bound_to 10162
  139.8884  143.6983  152.3148 LP  0  0  0  0  0  0  0  0  0  0  0  0  # atno 17343 bound_to 10162
  155.9745  130.4693  150.6392 LP  0  0  0  0  0  0  0  0  0  0  0  0  # atno 17370 bound_to 10713
  157.4083  131.0820  151.1244 LP  0  0  0  0  0  0  0  0  0  0  0  0  # atno 17371 bound_to 10713
  141.1478  133.6553  156.3921 LP  0  0  0  0  0  0  0  0  0  0  0  0  # atno 17394 bound_to 11000
  140.5105  134.6400  157.5282 LP  0  0  0  0  0  0  0  0  0  0  0  0  # atno 17395 bound_to 11000

$$$$
