AV-unprocessed.smi:2156|AV-procd|sdf|8782|dock2
  -GOLD-   2272011563D 1   1.00000     0.00000
 Structure written by MMmdl.
 33 33  0  0  0  0  0  0  0  0  2 V2000
  152.2258  145.1248  159.3272 C   0  0  0  0  0  0  0  0  0  0  0  0
  152.3596  143.9385  158.3664 C   0  0  0  0  0  0  0  0  0  0  0  0
  151.0363  143.6049  157.6542 C   0  0  0  0  0  0  0  0  0  0  0  0
  151.0779  142.2949  156.8439 C   0  0  1  0  0  0  0  0  0  0  0  0
  151.1238  141.0637  157.7628 C   0  0  0  0  0  0  0  0  0  0  0  0
  149.9198  142.2222  155.9592 N   0  0  0  0  0  0  0  0  0  0  0  0
  149.6843  141.2740  155.0368 C   0  0  0  0  0  0  0  0  0  0  0  0
  150.4241  140.3045  154.8714 O   0  0  0  0  0  0  0  0  0  0  0  0
  148.4325  141.4219  154.1539 C   0  0  0  0  0  0  0  0  0  0  0  0
  147.4635  140.3158  154.2671 N   0  0  0  0  0  0  0  0  0  0  0  0
  147.1936  139.5657  153.1088 C   0  0  0  0  0  0  0  0  0  0  0  0
  146.3389  138.5251  153.1192 C   0  0  0  0  0  0  0  0  0  0  0  0
  145.6850  138.1814  154.3758 C   0  0  0  0  0  0  0  0  0  0  0  0
  144.9037  137.2326  154.4045 O   0  0  0  0  0  0  0  0  0  0  0  0
  145.9787  138.9399  155.4724 N   0  5  0  0  0  0  0  0  0  0  0  0
  146.8507  139.9950  155.4473 C   0  0  0  0  0  0  0  0  0  0  0  0
  147.1099  140.6594  156.4509 O   0  0  0  0  0  0  0  0  0  0  0  0
  153.1771  145.3373  159.8158 H   0  0  0  0  0  0  0  0  0  0  0  0
  151.4897  144.9210  160.1052 H   0  0  0  0  0  0  0  0  0  0  0  0
  151.9156  146.0262  158.7979 H   0  0  0  0  0  0  0  0  0  0  0  0
  153.1343  144.1670  157.6337 H   0  0  0  0  0  0  0  0  0  0  0  0
  152.7072  143.0653  158.9196 H   0  0  0  0  0  0  0  0  0  0  0  0
  150.2430  143.5345  158.3994 H   0  0  0  0  0  0  0  0  0  0  0  0
  150.7625  144.4318  156.9972 H   0  0  0  0  0  0  0  0  0  0  0  0
  151.9853  142.3045  156.2372 H   0  0  0  0  0  0  0  0  0  0  0  0
  151.9984  141.0934  158.4128 H   0  0  0  0  0  0  0  0  0  0  0  0
  151.1771  140.1398  157.1861 H   0  0  0  0  0  0  0  0  0  0  0  0
  150.2391  141.0091  158.3980 H   0  0  0  0  0  0  0  0  0  0  0  0
  149.2579  142.9828  156.0194 H   0  0  0  0  0  0  0  0  0  0  0  0
  147.9491  142.3705  154.3937 H   0  0  0  0  0  0  0  0  0  0  0  0
  148.7613  141.5273  153.1191 H   0  0  0  0  0  0  0  0  0  0  0  0
  147.7239  139.8813  152.2224 H   0  0  0  0  0  0  0  0  0  0  0  0
  146.1445  137.9573  152.2213 H   0  0  0  0  0  0  0  0  0  0  0  0
  1  2  1  0  0  0  0
  1 18  1  0  0  0  0
  1 19  1  0  0  0  0
  1 20  1  0  0  0  0
  2  3  1  0  0  0  0
  2 21  1  0  0  0  0
  2 22  1  0  0  0  0
  3  4  1  0  0  0  0
  3 23  1  0  0  0  0
  3 24  1  0  0  0  0
  4  5  1  0  0  0  0
  4  6  1  0  0  0  0
  4 25  1  0  0  0  0
  5 26  1  0  0  0  0
  5 27  1  0  0  0  0
  5 28  1  0  0  0  0
  6  7  1  0  0  0  0
  6 29  1  0  0  0  0
  7  8  2  0  0  0  0
  7  9  1  0  0  0  0
  9 10  1  0  0  0  0
  9 30  1  0  0  0  0
  9 31  1  0  0  0  0
 10 16  1  0  0  0  0
 10 11  1  0  0  0  0
 11 12  2  0  0  0  0
 11 32  1  0  0  0  0
 12 13  1  0  0  0  0
 12 33  1  0  0  0  0
 13 14  2  0  0  0  0
 13 15  1  0  0  0  0
 15 16  1  0  0  0  0
 16 17  2  0  0  0  0
M  CHG  1  15  -1
M  END
> <s_m_source_file>
AV-unprocessed.smi

> <i_m_source_file_index>
2156

> <i_lp_mmshare_version>
43012

> <i_f3d_flags>
0

> <s_epik_input>
W0NIM11bQ0gyXVtDSDJdW0NASF0oW0NIM10pW05IXUMoPU8pW0NIMl1uMVtjSF1bY0hdYyg9TylbbkhdYzE9Tw==

> <s_epik_cmdline>
J2VwaWtfcHl0aG9uJywgJy1waCcsICc3LjAnLCAnLXRuJywgJzgnLCAnLW1hJywgJzIwMCcsICctbWV0YWxfYmluZGluZycsICctaW1hZScsICc8aW5maWxlLm1hZT4nLCAnLW9tYWUnLCAnPG91dGZpbGUubWFlPic=

> <r_lp_tautomer_probability>
0.999537

> <r_epik_Ionization_Penalty>
3.08607

> <r_epik_Ionization_Penalty_Charging>
2.78879e-08

> <r_epik_Ionization_Penalty_Neutral>
3.08607

> <r_epik_State_Penalty>
3.08511

> <r_epik_Charging_Adjusted_Penalty>
3.08511

> <i_epik_Tot_Q>
-1

> <i_epik_Tot_abs_Q>
1

> <r_epik_Metal_State_Penalty>
0.460479

> <b_epik_Metal_Only>
1

> <s_lp_Force_Field>
OPLS_2005

> <r_lp_Energy>
11.6756

> <b_lp_Chiralities_Consistent>
1

> <s_lp_Variant>
AV-unprocessed.smi:2156-4

> <Gold.Version>
5.8.1

> <Gold.Id.Protein>
6NUR|6NUR_protein|mol2

> <Gold.PLP.Fitness>
38.5584

> <Gold.PLP.PLP>
-29.6956

> <Gold.PLP.part.hbond>
-2.0000

> <Gold.PLP.part.metal>
0.0000

> <Gold.PLP.part.buried>
-1.0398

> <Gold.PLP.part.nonpolar>
-26.3236

> <Gold.PLP.part.repulsive>
0.3484

> <Gold.PLP.ligand.clash>
0.0000

> <Gold.PLP.ligand.torsion>
0.1123

> <Gold.PLP.Chemscore.Hbond>
2.0000

> <Gold.PLP.Chemscore.CHOScore>
1.0000

> <Gold.PLP.Chemscore.Metal>
0.0000

> <Gold.Chemscore.Hbonds>
donor molecule, donor type, donor heavy atom, donor atom, acceptor molecule, acceptor atom, score
      L1  H     6    29       P1  8028  0.96
      P1  H  7989  7998       L1     8  1.00
      L1  C    11    32       P1  7957  1.00

> <Gold.PLP.Chemscore.Internal.Correction>
0.0875

> <Gold.Rescore>
     Score         DG    S(hbond)    S(metal)    S(lipo)     H(rot)  DE(clash)    DE(int)     intcor
     13.88     -14.19       1.65        0.00      73.99       2.14       0.07       0.24       ----

> <Gold.Chemscore.Fitness>
13.8788

> <Gold.Chemscore.DG>
-14.1920

> <Gold.Chemscore.ZeroCoef>
-5.4800

> <Gold.Chemscore.Hbond>
1.6546

> <Gold.Chemscore.Metal>
0.0000

> <Gold.Chemscore.Lipo>
73.9913

> <Gold.Chemscore.Internal_Hbond>
0.0000

> <Gold.Chemscore.DEClash>
0.0716

> <Gold.Chemscore.DEInternal>
0.2416

> <Gold.Chemscore.Rot>
2.1372

> <Gold.Chemscore.Internal.Correction>
   9.000000E+99

> <Gold.Chemscore.Hbonds>
donor molecule, donor type, donor heavy atom, donor atom, acceptor molecule, acceptor atom, score
      L1  H     6    29       P1  8028  0.92
      P1  H  7989  7998       L1     8  0.44

> <Gold.Chemscore.Hbond.Weighted>
-5.5263

> <Gold.Chemscore.Metal.Weighted>
-0.0000

> <Gold.Chemscore.Lipo.Weighted>
-8.6570

> <Gold.Chemscore.Internal_Hbond.Weighted>
0.0000

> <Gold.Chemscore.DEClash.Weighted>
0.0716

> <Gold.Chemscore.DEInternal.Weighted>
0.2416

> <Gold.Chemscore.Rot.Weighted>
5.4713

> <Gold.Chemscore.Internal.Correction.Weighted>
   9.000000E+99

> <Gold.Protein.RotatedTorsions>
[ 6907 6896 6895 6894 ] final  -89.10 input  -60.11 | X-H torsion
[ 7974 7965 7964 7962 ] final    6.65 input  175.53 | X-H torsion
[ 8008 7997 7996 7995 ] final   88.89 input   59.86 | X-H torsion
[ 10167 10162 10161 10158 ] final  167.38 input  -65.29 | X-H torsion
[ 10718 10713 10712 10709 ] final  165.02 input   66.30 | X-H torsion
[ 10763 10752 10751 10750 ] final -108.61 input  -60.55 | X-H torsion
[ 11005 11000 10999 10996 ] final   68.77 input  -57.11 | X-H torsion

> <Gold.Protein.ActiveResidues>
 VAL166  LYS551  ARG553  GLY616  TRP617  ASP618  TYR619  PRO620  LYS621  CYS622 
 ASP623  PHE694  ASN695  SER759  ASP760  ASP761  ALA762  ILE779  LEU786  VAL792 
 PHE793  MET794  SER795  GLU796  ALA797  LYS798  CYS799  TRP800  GLU811  SER814 

> <Gold.Protein.RotatedAtoms>
  150.6872  134.2638  159.4560 H   0  0  0  0  0  0  0  0  0  0  0  0  # atno 6907 bound_to 6896
  152.0566  134.9618  160.0584 H   0  0  0  0  0  0  0  0  0  0  0  0  # atno 6908 bound_to 6896
  152.1061  133.4241  159.4646 H   0  0  0  0  0  0  0  0  0  0  0  0  # atno 6909 bound_to 6896
  146.2433  140.0202  142.8398 H   0  0  0  0  0  0  0  0  0  0  0  0  # atno 7974 bound_to 7965
  155.9933  140.3366  155.6774 H   0  0  0  0  0  0  0  0  0  0  0  0  # atno 8008 bound_to 7997
  155.6391  140.0693  157.2642 H   0  0  0  0  0  0  0  0  0  0  0  0  # atno 8009 bound_to 7997
  154.4226  140.1746  156.1541 H   0  0  0  0  0  0  0  0  0  0  0  0  # atno 8010 bound_to 7997
  139.4944  144.3928  151.9498 H   0  0  0  0  0  0  0  0  0  0  0  0  # atno 10167 bound_to 10162
  157.0861  131.0405  151.2556 H   0  0  0  0  0  0  0  0  0  0  0  0  # atno 10718 bound_to 10713
  154.8145  135.4631  154.0606 H   0  0  0  0  0  0  0  0  0  0  0  0  # atno 10763 bound_to 10752
  153.2010  135.6869  153.8238 H   0  0  0  0  0  0  0  0  0  0  0  0  # atno 10764 bound_to 10752
  153.7722  135.3268  155.3331 H   0  0  0  0  0  0  0  0  0  0  0  0  # atno 10765 bound_to 10752
  139.9692  134.6929  156.0482 H   0  0  0  0  0  0  0  0  0  0  0  0  # atno 11005 bound_to 11000
  145.1248  140.9483  143.4579 LP  0  0  0  0  0  0  0  0  0  0  0  0  # atno 17320 bound_to 7965
  145.0446  139.3232  143.5959 LP  0  0  0  0  0  0  0  0  0  0  0  0  # atno 17321 bound_to 7965
  140.3365  144.3254  150.5976 LP  0  0  0  0  0  0  0  0  0  0  0  0  # atno 17342 bound_to 10162
  140.5601  143.2193  151.7779 LP  0  0  0  0  0  0  0  0  0  0  0  0  # atno 17343 bound_to 10162
  157.4760  130.7737  149.7368 LP  0  0  0  0  0  0  0  0  0  0  0  0  # atno 17370 bound_to 10713
  155.9910  130.3940  150.3002 LP  0  0  0  0  0  0  0  0  0  0  0  0  # atno 17371 bound_to 10713
  141.1372  133.6572  156.3626 LP  0  0  0  0  0  0  0  0  0  0  0  0  # atno 17394 bound_to 11000
  140.5330  134.6194  157.5356 LP  0  0  0  0  0  0  0  0  0  0  0  0  # atno 17395 bound_to 11000

$$$$
