AV-unprocessed.smi:3251|AV-procd|sdf|12436|dock3
  -GOLD-   2272018323D 1   1.00000     0.00000
 Structure written by MMmdl.
 41 42  0  0  0  0  0  0  0  0  2 V2000
  145.6800  131.9168  150.0991 C   0  0  0  0  0  0  0  0  0  0  0  0
  145.4080  133.2367  150.7615 C   0  0  0  0  0  0  0  0  0  0  0  0
  144.3105  134.1156  150.5378 C   0  0  0  0  0  0  0  0  0  0  0  0
  144.3638  135.2052  151.2865 N   0  0  0  0  0  0  0  0  0  0  0  0
  145.4933  135.0614  152.0117 N   0  0  0  0  0  0  0  0  0  0  0  0
  145.8741  136.0864  152.9666 C   0  0  0  0  0  0  0  0  0  0  0  0
  144.8756  137.2539  152.9912 C   0  0  0  0  0  0  0  0  0  0  0  0
  145.5152  138.5048  153.4561 N   0  3  0  0  0  0  0  0  0  0  0  0
  146.8512  138.7836  152.8818 C   0  0  1  0  0  0  0  0  0  0  0  0
  146.7383  138.8725  151.3514 C   0  0  0  0  0  0  0  0  0  0  0  0
  147.4482  140.0906  153.4422 C   0  0  0  0  0  0  0  0  0  0  0  0
  146.8205  141.1410  153.2963 O   0  0  0  0  0  0  0  0  0  0  0  0
  148.6451  140.0558  154.0669 N   0  0  0  0  0  0  0  0  0  0  0  0
  149.2877  141.2420  154.6310 C   0  0  0  0  0  0  0  0  0  0  0  0
  150.4640  140.7247  155.4591 C   0  0  0  0  0  0  0  0  0  0  0  0
  150.8120  139.3909  154.8147 C   0  0  0  0  0  0  0  0  0  0  0  0
  149.4743  138.8706  154.2887 C   0  0  0  0  0  0  0  0  0  0  0  0
  146.1424  133.8817  151.7161 C   0  0  0  0  0  0  0  0  0  0  0  0
  145.3617  131.9152  149.0563 H   0  0  0  0  0  0  0  0  0  0  0  0
  145.1539  131.1023  150.5969 H   0  0  0  0  0  0  0  0  0  0  0  0
  146.7416  131.6686  150.1097 H   0  0  0  0  0  0  0  0  0  0  0  0
  143.4813  133.9944  149.8562 H   0  0  0  0  0  0  0  0  0  0  0  0
  145.9277  135.6264  153.9542 H   0  0  0  0  0  0  0  0  0  0  0  0
  146.8797  136.4396  152.7323 H   0  0  0  0  0  0  0  0  0  0  0  0
  144.4498  137.3930  151.9967 H   0  0  0  0  0  0  0  0  0  0  0  0
  144.0485  137.0136  153.6597 H   0  0  0  0  0  0  0  0  0  0  0  0
  144.9018  139.2701  153.2162 H   0  0  0  0  0  0  0  0  0  0  0  0
  147.4885  137.9349  153.1304 H   0  0  0  0  0  0  0  0  0  0  0  0
  147.7059  139.0653  150.8865 H   0  0  0  0  0  0  0  0  0  0  0  0
  146.0605  139.6710  151.0458 H   0  0  0  0  0  0  0  0  0  0  0  0
  146.3585  137.9397  150.9336 H   0  0  0  0  0  0  0  0  0  0  0  0
  149.6424  141.8745  153.8156 H   0  0  0  0  0  0  0  0  0  0  0  0
  148.6026  141.8306  155.2434 H   0  0  0  0  0  0  0  0  0  0  0  0
  151.3054  141.4179  155.4790 H   0  0  0  0  0  0  0  0  0  0  0  0
  150.1423  140.5600  156.4883 H   0  0  0  0  0  0  0  0  0  0  0  0
  151.4941  139.5567  153.9797 H   0  0  0  0  0  0  0  0  0  0  0  0
  151.2932  138.6990  155.5066 H   0  0  0  0  0  0  0  0  0  0  0  0
  148.9960  138.2366  155.0367 H   0  0  0  0  0  0  0  0  0  0  0  0
  149.6164  138.2822  153.3818 H   0  0  0  0  0  0  0  0  0  0  0  0
  147.0641  133.6005  152.2045 H   0  0  0  0  0  0  0  0  0  0  0  0
  145.6034  138.4697  154.4624 H   0  0  0  0  0  0  0  0  0  0  0  0
  1  2  1  0  0  0  0
  1 19  1  0  0  0  0
  1 20  1  0  0  0  0
  1 21  1  0  0  0  0
  2 18  2  0  0  0  0
  2  3  1  0  0  0  0
  3  4  2  0  0  0  0
  3 22  1  0  0  0  0
  4  5  1  0  0  0  0
  5  6  1  0  0  0  0
  5 18  1  0  0  0  0
  6  7  1  0  0  0  0
  6 23  1  0  0  0  0
  6 24  1  0  0  0  0
  7  8  1  0  0  0  0
  7 25  1  0  0  0  0
  7 26  1  0  0  0  0
  8  9  1  0  0  0  0
  8 27  1  0  0  0  0
  8 41  1  0  0  0  0
  9 10  1  0  0  0  0
  9 11  1  0  0  0  0
  9 28  1  0  0  0  0
 10 29  1  0  0  0  0
 10 30  1  0  0  0  0
 10 31  1  0  0  0  0
 11 12  2  0  0  0  0
 11 13  1  0  0  0  0
 13 17  1  0  0  0  0
 13 14  1  0  0  0  0
 14 15  1  0  0  0  0
 14 32  1  0  0  0  0
 14 33  1  0  0  0  0
 15 16  1  0  0  0  0
 15 34  1  0  0  0  0
 15 35  1  0  0  0  0
 16 17  1  0  0  0  0
 16 36  1  0  0  0  0
 16 37  1  0  0  0  0
 17 38  1  0  0  0  0
 17 39  1  0  0  0  0
 18 40  1  0  0  0  0
M  CHG  1   8   1
M  END
> <s_m_source_file>
AV-unprocessed.smi

> <i_m_source_file_index>
3251

> <i_lp_mmshare_version>
43012

> <i_f3d_flags>
0

> <s_epik_input>
W0NIM11jMVtjSF1ubihbY0hdMSlbQ0gyXVtDSDJdW05IXVtDQEhdKFtDSDNdKUMoPU8pTjJbQ0gyXVtDSDJdW0NIMl1bQ0gyXTI=

> <s_epik_cmdline>
J2VwaWtfcHl0aG9uJywgJy1waCcsICc3LjAnLCAnLXRuJywgJzgnLCAnLW1hJywgJzIwMCcsICctbWV0YWxfYmluZGluZycsICctaW1hZScsICc8aW5maWxlLm1hZT4nLCAnLW9tYWUnLCAnPG91dGZpbGUubWFlPic=

> <r_lp_tautomer_probability>
1

> <r_epik_Ionization_Penalty>
0.203173

> <r_epik_Ionization_Penalty_Charging>
0.203168

> <r_epik_Ionization_Penalty_Neutral>
5.06494e-06

> <r_epik_State_Penalty>
0.193072

> <r_epik_Charging_Adjusted_Penalty>
0.39624

> <i_epik_Tot_Q>
1

> <i_epik_Tot_abs_Q>
1

> <r_epik_Metal_State_Penalty>
0.193587

> <b_epik_Metal_Only>
0

> <s_lp_Force_Field>
OPLS_2005

> <r_lp_Energy>
29.7429

> <b_lp_Chiralities_Consistent>
1

> <s_lp_Variant>
AV-unprocessed.smi:3251-2

> <Gold.Version>
5.8.1

> <Gold.Id.Protein>
6NUR|6NUR_protein|mol2

> <Gold.PLP.Fitness>
45.1554

> <Gold.PLP.PLP>
-36.5371

> <Gold.PLP.part.hbond>
-1.0000

> <Gold.PLP.part.metal>
0.0000

> <Gold.PLP.part.buried>
-0.0735

> <Gold.PLP.part.nonpolar>
-35.4875

> <Gold.PLP.part.repulsive>
0.4007

> <Gold.PLP.ligand.clash>
0.0000

> <Gold.PLP.ligand.torsion>
0.2237

> <Gold.PLP.Chemscore.Hbond>
2.0000

> <Gold.PLP.Chemscore.CHOScore>
1.0000

> <Gold.PLP.Chemscore.Metal>
0.0000

> <Gold.Chemscore.Hbonds>
donor molecule, donor type, donor heavy atom, donor atom, acceptor molecule, acceptor atom, score
      L1  H     8    27       P1 10175  2.00
      L1  C     3    22       P1 10186  1.00

> <Gold.PLP.Chemscore.Internal.Correction>
0.0657

> <Gold.Rescore>
     Score         DG    S(hbond)    S(metal)    S(lipo)     H(rot)  DE(clash)    DE(int)     intcor
     13.71     -14.41       0.99        0.00      86.54       1.76       0.35       0.35       ----

> <Gold.Chemscore.Fitness>
13.7104

> <Gold.Chemscore.DG>
-14.4119

> <Gold.Chemscore.ZeroCoef>
-5.4800

> <Gold.Chemscore.Hbond>
0.9917

> <Gold.Chemscore.Metal>
0.0000

> <Gold.Chemscore.Lipo>
86.5375

> <Gold.Chemscore.Internal_Hbond>
0.0000

> <Gold.Chemscore.DEClash>
0.3491

> <Gold.Chemscore.DEInternal>
0.3523

> <Gold.Chemscore.Rot>
1.7599

> <Gold.Chemscore.Internal.Correction>
   9.000000E+99

> <Gold.Chemscore.Hbonds>
donor molecule, donor type, donor heavy atom, donor atom, acceptor molecule, acceptor atom, score
      L1  H     8    27       P1 10175  1.00

> <Gold.Chemscore.Hbond.Weighted>
-3.3123

> <Gold.Chemscore.Metal.Weighted>
-0.0000

> <Gold.Chemscore.Lipo.Weighted>
-10.1249

> <Gold.Chemscore.Internal_Hbond.Weighted>
0.0000

> <Gold.Chemscore.DEClash.Weighted>
0.3491

> <Gold.Chemscore.DEInternal.Weighted>
0.3523

> <Gold.Chemscore.Rot.Weighted>
4.5053

> <Gold.Chemscore.Internal.Correction.Weighted>
   9.000000E+99

> <Gold.Protein.RotatedTorsions>
[ 6907 6896 6895 6894 ] final -128.62 input  -60.11 | X-H torsion
[ 7974 7965 7964 7962 ] final  156.01 input  175.53 | X-H torsion
[ 8008 7997 7996 7995 ] final  -14.62 input   59.86 | X-H torsion
[ 10167 10162 10161 10158 ] final  -60.61 input  -65.29 | X-H torsion
[ 10718 10713 10712 10709 ] final -131.45 input   66.30 | X-H torsion
[ 10763 10752 10751 10750 ] final   84.02 input  -60.55 | X-H torsion
[ 11005 11000 10999 10996 ] final  113.27 input  -57.11 | X-H torsion

> <Gold.Protein.ActiveResidues>
 VAL166  LYS551  ARG553  GLY616  TRP617  ASP618  TYR619  PRO620  LYS621  CYS622 
 ASP623  PHE694  ASN695  SER759  ASP760  ASP761  ALA762  ILE779  LEU786  VAL792 
 PHE793  MET794  SER795  GLU796  ALA797  LYS798  CYS799  TRP800  GLU811  SER814 

> <Gold.Protein.RotatedAtoms>
  150.9199  133.6894  159.2834 H   0  0  0  0  0  0  0  0  0  0  0  0  # atno 6907 bound_to 6896
  151.4352  135.1013  159.9663 H   0  0  0  0  0  0  0  0  0  0  0  0  # atno 6908 bound_to 6896
  152.4974  133.8619  159.7310 H   0  0  0  0  0  0  0  0  0  0  0  0  # atno 6909 bound_to 6896
  144.7989  139.7145  143.6190 H   0  0  0  0  0  0  0  0  0  0  0  0  # atno 7974 bound_to 7965
  154.5196  140.2218  155.9001 H   0  0  0  0  0  0  0  0  0  0  0  0  # atno 8008 bound_to 7997
  156.1646  140.3135  155.8832 H   0  0  0  0  0  0  0  0  0  0  0  0  # atno 8009 bound_to 7997
  155.3682  140.0465  157.3036 H   0  0  0  0  0  0  0  0  0  0  0  0  # atno 8010 bound_to 7997
  140.6060  143.2373  151.5819 H   0  0  0  0  0  0  0  0  0  0  0  0  # atno 10167 bound_to 10162
  156.2245  130.6999  151.0792 H   0  0  0  0  0  0  0  0  0  0  0  0  # atno 10718 bound_to 10713
  153.1343  135.4670  154.9398 H   0  0  0  0  0  0  0  0  0  0  0  0  # atno 10763 bound_to 10752
  154.7692  135.3154  154.8226 H   0  0  0  0  0  0  0  0  0  0  0  0  # atno 10764 bound_to 10752
  153.8762  135.6899  153.4824 H   0  0  0  0  0  0  0  0  0  0  0  0  # atno 10765 bound_to 10752
  139.8948  134.9546  156.6713 H   0  0  0  0  0  0  0  0  0  0  0  0  # atno 11005 bound_to 11000
  146.2266  139.5734  142.9583 LP  0  0  0  0  0  0  0  0  0  0  0  0  # atno 17320 bound_to 7965
  145.5602  141.0405  143.2230 LP  0  0  0  0  0  0  0  0  0  0  0  0  # atno 17321 bound_to 7965
  139.5325  144.2874  152.1180 LP  0  0  0  0  0  0  0  0  0  0  0  0  # atno 17342 bound_to 10162
  140.2064  144.4607  150.6407 LP  0  0  0  0  0  0  0  0  0  0  0  0  # atno 17343 bound_to 10162
  157.7104  131.0737  150.6521 LP  0  0  0  0  0  0  0  0  0  0  0  0  # atno 17370 bound_to 10713
  156.6586  130.4505  149.5695 LP  0  0  0  0  0  0  0  0  0  0  0  0  # atno 17371 bound_to 10713
  140.7371  133.9009  155.8251 LP  0  0  0  0  0  0  0  0  0  0  0  0  # atno 17394 bound_to 11000
  141.0107  134.1024  157.4224 LP  0  0  0  0  0  0  0  0  0  0  0  0  # atno 17395 bound_to 11000

$$$$
