AV-unprocessed.smi:2592|AV-procd|sdf|10159|dock7
  -GOLD-   2272014173D 1   1.00000     0.00000
 Structure written by MMmdl.
 43 44  0  0  0  0  0  0  0  0  2 V2000
  152.1493  145.0003  159.7636 C   0  0  0  0  0  0  0  0  0  0  0  0
  151.8764  143.7414  158.9990 C   0  0  0  0  0  0  0  0  0  0  0  0
  150.9177  143.7476  157.9818 N   0  0  0  0  0  0  0  0  0  0  0  0
  150.7889  142.5513  157.3995 C   0  0  0  0  0  0  0  0  0  0  0  0
  149.8866  142.2689  156.3404 N   0  0  0  0  0  0  0  0  0  0  0  0
  149.9569  141.2793  155.4328 C   0  0  0  0  0  0  0  0  0  0  0  0
  150.8420  140.4249  155.3769 O   0  0  0  0  0  0  0  0  0  0  0  0
  148.9259  141.3282  154.5764 N   0  0  0  0  0  0  0  0  0  0  0  0
  148.7191  140.4038  153.4668 C   0  0  0  0  0  0  0  0  0  0  0  0
  147.9150  139.1652  153.8971 C   0  0  0  0  0  0  0  0  0  0  0  0
  146.6829  138.9332  153.0064 C   0  0  0  0  0  0  0  0  0  0  0  0
  146.4945  137.5032  152.6551 N   0  3  0  0  0  0  0  0  0  0  0  0
  145.9785  136.7064  153.7942 C   0  0  0  0  0  0  0  0  0  0  0  0
  145.8426  135.2253  153.4020 C   0  0  0  0  0  0  0  0  0  0  0  0
  144.9974  135.1082  152.2646 O   0  0  0  0  0  0  0  0  0  0  0  0
  145.5278  135.7927  151.1368 C   0  0  0  0  0  0  0  0  0  0  0  0
  145.6492  137.2927  151.4532 C   0  0  0  0  0  0  0  0  0  0  0  0
  151.8512  141.3250  158.0685 S   0  0  0  0  0  0  0  0  0  0  0  0
  152.4807  142.5181  159.1775 C   0  0  0  0  0  0  0  0  0  0  0  0
  153.5402  142.1597  160.1660 C   0  0  0  0  0  0  0  0  0  0  0  0
  153.1127  145.4270  159.4843 H   0  0  0  0  0  0  0  0  0  0  0  0
  152.1688  144.8131  160.8374 H   0  0  0  0  0  0  0  0  0  0  0  0
  151.3871  145.7578  159.5781 H   0  0  0  0  0  0  0  0  0  0  0  0
  149.0992  142.8958  156.2642 H   0  0  0  0  0  0  0  0  0  0  0  0
  148.2446  142.0645  154.6908 H   0  0  0  0  0  0  0  0  0  0  0  0
  148.1885  140.9371  152.6777 H   0  0  0  0  0  0  0  0  0  0  0  0
  149.6823  140.1079  153.0475 H   0  0  0  0  0  0  0  0  0  0  0  0
  148.5656  138.2915  153.8680 H   0  0  0  0  0  0  0  0  0  0  0  0
  147.5985  139.2813  154.9345 H   0  0  0  0  0  0  0  0  0  0  0  0
  145.8033  139.2832  153.5490 H   0  0  0  0  0  0  0  0  0  0  0  0
  146.7436  139.5338  152.0974 H   0  0  0  0  0  0  0  0  0  0  0  0
  146.6533  136.7971  154.6463 H   0  0  0  0  0  0  0  0  0  0  0  0
  145.0102  137.1000  154.1077 H   0  0  0  0  0  0  0  0  0  0  0  0
  146.8187  134.7850  153.1920 H   0  0  0  0  0  0  0  0  0  0  0  0
  145.4076  134.6576  154.2246 H   0  0  0  0  0  0  0  0  0  0  0  0
  146.4969  135.3722  150.8626 H   0  0  0  0  0  0  0  0  0  0  0  0
  144.8630  135.6407  150.2864 H   0  0  0  0  0  0  0  0  0  0  0  0
  144.6584  137.7174  151.6226 H   0  0  0  0  0  0  0  0  0  0  0  0
  146.0732  137.8054  150.5906 H   0  0  0  0  0  0  0  0  0  0  0  0
  153.1145  142.0509  161.1635 H   0  0  0  0  0  0  0  0  0  0  0  0
  154.3095  142.9309  160.2085 H   0  0  0  0  0  0  0  0  0  0  0  0
  154.0250  141.2199  159.9012 H   0  0  0  0  0  0  0  0  0  0  0  0
  147.4102  137.1334  152.4429 H   0  0  0  0  0  0  0  0  0  0  0  0
  1  2  1  0  0  0  0
  1 21  1  0  0  0  0
  1 22  1  0  0  0  0
  1 23  1  0  0  0  0
  2 19  2  0  0  0  0
  2  3  1  0  0  0  0
  3  4  2  0  0  0  0
  4  5  1  0  0  0  0
  4 18  1  0  0  0  0
  5  6  1  0  0  0  0
  5 24  1  0  0  0  0
  6  7  2  0  0  0  0
  6  8  1  0  0  0  0
  8  9  1  0  0  0  0
  8 25  1  0  0  0  0
  9 10  1  0  0  0  0
  9 26  1  0  0  0  0
  9 27  1  0  0  0  0
 10 11  1  0  0  0  0
 10 28  1  0  0  0  0
 10 29  1  0  0  0  0
 11 12  1  0  0  0  0
 11 30  1  0  0  0  0
 11 31  1  0  0  0  0
 12 17  1  0  0  0  0
 12 13  1  0  0  0  0
 12 43  1  0  0  0  0
 13 14  1  0  0  0  0
 13 32  1  0  0  0  0
 13 33  1  0  0  0  0
 14 15  1  0  0  0  0
 14 34  1  0  0  0  0
 14 35  1  0  0  0  0
 15 16  1  0  0  0  0
 16 17  1  0  0  0  0
 16 36  1  0  0  0  0
 16 37  1  0  0  0  0
 17 38  1  0  0  0  0
 17 39  1  0  0  0  0
 18 19  1  0  0  0  0
 19 20  1  0  0  0  0
 20 40  1  0  0  0  0
 20 41  1  0  0  0  0
 20 42  1  0  0  0  0
M  CHG  1  12   1
M  END
> <s_m_source_file>
AV-unprocessed.smi

> <i_m_source_file_index>
2592

> <i_lp_mmshare_version>
43012

> <i_f3d_flags>
0

> <s_epik_input>
W0NIM11jMW5jKHNjMVtDSDNdKVtOSF1DKD1PKVtOSF1bQ0gyXVtDSDJdW0NIMl1OMltDSDJdW0NIMl1PW0NIMl1bQ0gyXTI=

> <s_epik_cmdline>
J2VwaWtfcHl0aG9uJywgJy1waCcsICc3LjAnLCAnLXRuJywgJzgnLCAnLW1hJywgJzIwMCcsICctbWV0YWxfYmluZGluZycsICctaW1hZScsICc8aW5maWxlLm1hZT4nLCAnLW9tYWUnLCAnPG91dGZpbGUubWFlPic=

> <r_lp_tautomer_probability>
0.999

> <r_epik_Ionization_Penalty>
0.281876

> <r_epik_Ionization_Penalty_Charging>
0.281705

> <r_epik_Ionization_Penalty_Neutral>
0.000171168

> <r_epik_State_Penalty>
0.274317

> <r_epik_Charging_Adjusted_Penalty>
0.556022

> <i_epik_Tot_Q>
1

> <i_epik_Tot_abs_Q>
1

> <r_epik_Metal_State_Penalty>
0.293174

> <b_epik_Metal_Only>
0

> <s_lp_Force_Field>
OPLS_2005

> <r_lp_Energy>
13.2764

> <b_lp_Chiralities_Consistent>
1

> <s_lp_Variant>
AV-unprocessed.smi:2592-1

> <Gold.Version>
5.8.1

> <Gold.Id.Protein>
6NUR|6NUR_protein|mol2

> <Gold.PLP.Fitness>
45.2646

> <Gold.PLP.PLP>
-36.5041

> <Gold.PLP.part.hbond>
-3.0000

> <Gold.PLP.part.metal>
0.0000

> <Gold.PLP.part.buried>
2.4605

> <Gold.PLP.part.nonpolar>
-36.2715

> <Gold.PLP.part.repulsive>
0.6503

> <Gold.PLP.ligand.clash>
0.0000

> <Gold.PLP.ligand.torsion>
1.1117

> <Gold.PLP.Chemscore.Hbond>
3.6480

> <Gold.PLP.Chemscore.CHOScore>
0.0000

> <Gold.PLP.Chemscore.Metal>
0.0000

> <Gold.Chemscore.Hbonds>
donor molecule, donor type, donor heavy atom, donor atom, acceptor molecule, acceptor atom, score
      L1  H     5    24       P1  8028  0.69
      L1  H    12    43       P1  7948  2.00
      P1  H  7989  7998       L1     7  0.83

> <Gold.PLP.Chemscore.Internal.Correction>
0.0399

> <Gold.Rescore>
     Score         DG    S(hbond)    S(metal)    S(lipo)     H(rot)  DE(clash)    DE(int)     intcor
     14.56     -18.24       1.89        0.00      93.63       1.76       1.80       1.88       ----

> <Gold.Chemscore.Fitness>
14.5627

> <Gold.Chemscore.DG>
-18.2441

> <Gold.Chemscore.ZeroCoef>
-5.4800

> <Gold.Chemscore.Hbond>
1.8901

> <Gold.Chemscore.Metal>
0.0000

> <Gold.Chemscore.Lipo>
93.6349

> <Gold.Chemscore.Internal_Hbond>
0.0000

> <Gold.Chemscore.DEClash>
1.8033

> <Gold.Chemscore.DEInternal>
1.8781

> <Gold.Chemscore.Rot>
1.7593

> <Gold.Chemscore.Internal.Correction>
   9.000000E+99

> <Gold.Chemscore.Hbonds>
donor molecule, donor type, donor heavy atom, donor atom, acceptor molecule, acceptor atom, score
      L1  H     5    24       P1  8028  0.70
      L1  H    12    43       P1  7948  1.00
      P1  H  7989  7998       L1     7  0.17

> <Gold.Chemscore.Hbond.Weighted>
-6.3128

> <Gold.Chemscore.Metal.Weighted>
-0.0000

> <Gold.Chemscore.Lipo.Weighted>
-10.9553

> <Gold.Chemscore.Internal_Hbond.Weighted>
0.0000

> <Gold.Chemscore.DEClash.Weighted>
1.8033

> <Gold.Chemscore.DEInternal.Weighted>
1.8781

> <Gold.Chemscore.Rot.Weighted>
4.5039

> <Gold.Chemscore.Internal.Correction.Weighted>
   9.000000E+99

> <Gold.Protein.RotatedTorsions>
[ 6907 6896 6895 6894 ] final   33.67 input  -60.11 | X-H torsion
[ 7974 7965 7964 7962 ] final  175.08 input  175.53 | X-H torsion
[ 8008 7997 7996 7995 ] final   22.13 input   59.86 | X-H torsion
[ 10167 10162 10161 10158 ] final  -29.86 input  -65.29 | X-H torsion
[ 10718 10713 10712 10709 ] final  -22.17 input   66.30 | X-H torsion
[ 10763 10752 10751 10750 ] final -116.44 input  -60.55 | X-H torsion
[ 11005 11000 10999 10996 ] final   35.42 input  -57.11 | X-H torsion

> <Gold.Protein.ActiveResidues>
 VAL166  LYS551  ARG553  GLY616  TRP617  ASP618  TYR619  PRO620  LYS621  CYS622 
 ASP623  PHE694  ASN695  SER759  ASP760  ASP761  ALA762  ILE779  LEU786  VAL792 
 PHE793  MET794  SER795  GLU796  ALA797  LYS798  CYS799  TRP800  GLU811  SER814 

> <Gold.Protein.RotatedAtoms>
  152.0917  134.9402  160.0571 H   0  0  0  0  0  0  0  0  0  0  0  0  # atno 6907 bound_to 6896
  152.0651  133.4075  159.4443 H   0  0  0  0  0  0  0  0  0  0  0  0  # atno 6908 bound_to 6896
  150.6837  134.3075  159.4776 H   0  0  0  0  0  0  0  0  0  0  0  0  # atno 6909 bound_to 6896
  144.7209  139.9893  143.6439 H   0  0  0  0  0  0  0  0  0  0  0  0  # atno 7974 bound_to 7965
  154.9611  140.3078  155.5030 H   0  0  0  0  0  0  0  0  0  0  0  0  # atno 8008 bound_to 7997
  156.2977  140.2301  156.4634 H   0  0  0  0  0  0  0  0  0  0  0  0  # atno 8009 bound_to 7997
  154.7964  140.0436  157.1229 H   0  0  0  0  0  0  0  0  0  0  0  0  # atno 8010 bound_to 7997
  140.7256  143.3894  151.1456 H   0  0  0  0  0  0  0  0  0  0  0  0  # atno 10167 bound_to 10162
  156.5082  130.4604  149.6663 H   0  0  0  0  0  0  0  0  0  0  0  0  # atno 10718 bound_to 10713
  154.8519  135.4345  154.1822 H   0  0  0  0  0  0  0  0  0  0  0  0  # atno 10763 bound_to 10752
  153.2910  135.6961  153.7299 H   0  0  0  0  0  0  0  0  0  0  0  0  # atno 10764 bound_to 10752
  153.6467  135.3458  155.3062 H   0  0  0  0  0  0  0  0  0  0  0  0  # atno 10765 bound_to 10752
  140.2428  134.3395  155.7919 H   0  0  0  0  0  0  0  0  0  0  0  0  # atno 11005 bound_to 11000
  146.0425  139.3435  143.0689 LP  0  0  0  0  0  0  0  0  0  0  0  0  # atno 17320 bound_to 7965
  145.8317  140.9627  143.0845 LP  0  0  0  0  0  0  0  0  0  0  0  0  # atno 17321 bound_to 7965
  139.7497  143.8798  152.3073 LP  0  0  0  0  0  0  0  0  0  0  0  0  # atno 17342 bound_to 10162
  139.8647  144.7099  150.9058 LP  0  0  0  0  0  0  0  0  0  0  0  0  # atno 17343 bound_to 10162
  156.3266  130.7309  151.2231 LP  0  0  0  0  0  0  0  0  0  0  0  0  # atno 17370 bound_to 10713
  157.7454  131.0441  150.4777 LP  0  0  0  0  0  0  0  0  0  0  0  0  # atno 17371 bound_to 10713
  141.2209  133.7308  156.8913 LP  0  0  0  0  0  0  0  0  0  0  0  0  # atno 17394 bound_to 11000
  140.1636  134.9148  157.2746 LP  0  0  0  0  0  0  0  0  0  0  0  0  # atno 17395 bound_to 11000

$$$$
