AV-unprocessed.smi:115|AV-procd|sdf|1125|dock6
  -GOLD-   2262018253D 1   1.00000     0.00000
 Structure written by MMmdl.
 55 57  0  0  0  0  0  0  0  0  1 V2000
  146.4342  140.5830  156.0764 C   0  0  0  0  0  0  0  0  0  0  0  0
  147.2278  139.8014  156.9570 O   0  0  0  0  0  0  0  0  0  0  0  0
  147.8733  138.6997  156.3313 C   0  0  0  0  0  0  0  0  0  0  0  0
  148.8870  138.0216  157.2828 C   0  0  2  0  0  0  0  0  0  0  0  0
  149.9401  138.9871  157.8529 C   0  0  0  0  0  0  0  0  0  0  0  0
  149.5032  136.8107  156.7147 N   0  0  0  0  0  0  0  0  0  0  0  0
  150.2643  136.8021  155.5472 C   0  0  0  0  0  0  0  0  0  0  0  0
  150.5392  138.0239  154.7281 C   0  0  0  0  0  0  0  0  0  0  0  0
  150.6858  135.5256  155.3300 C   0  0  0  0  0  0  0  0  0  0  0  0
  150.1682  134.6926  156.3583 C   0  0  0  0  0  0  0  0  0  0  0  0
  150.3838  133.2342  156.5688 C   0  0  0  0  0  0  0  0  0  0  0  0
  150.1428  132.6659  157.6334 O   0  0  0  0  0  0  0  0  0  0  0  0
  150.9413  132.4177  155.3897 C   0  0  0  0  0  0  0  0  0  0  0  0
  149.8893  131.6708  154.7131 N   0  0  0  0  0  0  0  0  0  0  0  0
  150.0576  130.2686  154.5868 C   0  0  0  0  0  0  0  0  0  0  0  0
  151.0518  129.6869  155.0248 O   0  0  0  0  0  0  0  0  0  0  0  0
  148.9699  129.5859  153.8945 C   0  0  0  0  0  0  0  0  0  0  0  0
  149.0293  128.2559  153.7119 F   0  0  0  0  0  0  0  0  0  0  0  0
  147.9019  130.2692  153.4300 C   0  0  0  0  0  0  0  0  0  0  0  0
  147.7607  131.6388  153.5728 N   0  0  0  0  0  0  0  0  0  0  0  0
  146.5475  132.3556  153.0265 C   0  0  1  0  0  0  0  0  0  0  0  0
  146.9691  133.4019  151.9877 C   0  0  0  0  0  0  0  0  0  0  0  0
  146.7130  132.6772  150.6835 C   0  0  0  0  0  0  0  0  0  0  0  0
  145.5026  131.8226  151.0389 C   0  0  0  0  0  0  0  0  0  0  0  0
  145.7228  131.4239  152.3876 O   0  0  0  0  0  0  0  0  0  0  0  0
  148.7754  132.3866  154.2094 C   0  0  0  0  0  0  0  0  0  0  0  0
  148.6902  133.6130  154.3055 O   0  0  0  0  0  0  0  0  0  0  0  0
  149.4139  135.4927  157.1891 C   0  0  0  0  0  0  0  0  0  0  0  0
  148.6088  135.1250  158.4055 C   0  0  0  0  0  0  0  0  0  0  0  0
  145.9699  141.3972  156.6329 H   0  0  0  0  0  0  0  0  0  0  0  0
  145.6376  140.0008  155.6134 H   0  0  0  0  0  0  0  0  0  0  0  0
  147.0444  141.0252  155.2878 H   0  0  0  0  0  0  0  0  0  0  0  0
  147.1340  137.9848  155.9648 H   0  0  0  0  0  0  0  0  0  0  0  0
  148.3792  139.0963  155.4535 H   0  0  0  0  0  0  0  0  0  0  0  0
  148.3007  137.7013  158.1395 H   0  0  0  0  0  0  0  0  0  0  0  0
  149.4615  139.8231  158.3634 H   0  0  0  0  0  0  0  0  0  0  0  0
  150.5900  139.4040  157.0863 H   0  0  0  0  0  0  0  0  0  0  0  0
  150.5751  138.4822  158.5814 H   0  0  0  0  0  0  0  0  0  0  0  0
  151.0774  137.7659  153.8158 H   0  0  0  0  0  0  0  0  0  0  0  0
  151.1506  138.7373  155.2814 H   0  0  0  0  0  0  0  0  0  0  0  0
  149.6119  138.5164  154.4346 H   0  0  0  0  0  0  0  0  0  0  0  0
  151.3150  135.2301  154.5039 H   0  0  0  0  0  0  0  0  0  0  0  0
  151.4470  133.0207  154.6368 H   0  0  0  0  0  0  0  0  0  0  0  0
  151.6990  131.7146  155.7375 H   0  0  0  0  0  0  0  0  0  0  0  0
  147.1303  129.7107  152.9210 H   0  0  0  0  0  0  0  0  0  0  0  0
  146.0181  132.7761  153.8826 H   0  0  0  0  0  0  0  0  0  0  0  0
  146.3114  134.2671  152.0800 H   0  0  0  0  0  0  0  0  0  0  0  0
  148.0019  133.7274  152.1200 H   0  0  0  0  0  0  0  0  0  0  0  0
  146.5284  133.3516  149.8471 H   0  0  0  0  0  0  0  0  0  0  0  0
  147.5632  132.0428  150.4303 H   0  0  0  0  0  0  0  0  0  0  0  0
  144.5888  132.4163  150.9907 H   0  0  0  0  0  0  0  0  0  0  0  0
  145.3856  130.9614  150.3809 H   0  0  0  0  0  0  0  0  0  0  0  0
  148.2366  134.1036  158.3469 H   0  0  0  0  0  0  0  0  0  0  0  0
  147.7232  135.7426  158.5211 H   0  0  0  0  0  0  0  0  0  0  0  0
  149.2104  135.2123  159.3101 H   0  0  0  0  0  0  0  0  0  0  0  0
  1  2  1  0  0  0  0
  1 30  1  0  0  0  0
  1 31  1  0  0  0  0
  1 32  1  0  0  0  0
  2  3  1  0  0  0  0
  3  4  1  0  0  0  0
  3 33  1  0  0  0  0
  3 34  1  0  0  0  0
  4  5  1  0  0  0  0
  4  6  1  0  0  0  0
  4 35  1  0  0  0  0
  5 36  1  0  0  0  0
  5 37  1  0  0  0  0
  5 38  1  0  0  0  0
  6 28  1  0  0  0  0
  6  7  1  0  0  0  0
  7  8  1  0  0  0  0
  7  9  2  0  0  0  0
  8 39  1  0  0  0  0
  8 40  1  0  0  0  0
  8 41  1  0  0  0  0
  9 10  1  0  0  0  0
  9 42  1  0  0  0  0
 10 11  1  0  0  0  0
 10 28  2  0  0  0  0
 11 12  2  0  0  0  0
 11 13  1  0  0  0  0
 13 14  1  0  0  0  0
 13 43  1  0  0  0  0
 13 44  1  0  0  0  0
 14 26  1  0  0  0  0
 14 15  1  0  0  0  0
 15 16  2  0  0  0  0
 15 17  1  0  0  0  0
 17 18  1  0  0  0  0
 17 19  2  0  0  0  0
 19 20  1  0  0  0  0
 19 45  1  0  0  0  0
 20 21  1  0  0  0  0
 20 26  1  0  0  0  0
 21 25  1  0  0  0  0
 21 22  1  0  0  0  0
 21 46  1  0  0  0  0
 22 23  1  0  0  0  0
 22 47  1  0  0  0  0
 22 48  1  0  0  0  0
 23 24  1  0  0  0  0
 23 49  1  0  0  0  0
 23 50  1  0  0  0  0
 24 25  1  0  0  0  0
 24 51  1  0  0  0  0
 24 52  1  0  0  0  0
 26 27  2  0  0  0  0
 28 29  1  0  0  0  0
 29 53  1  0  0  0  0
 29 54  1  0  0  0  0
 29 55  1  0  0  0  0
M  END
> <s_m_source_file>
AV-unprocessed.smi

> <i_m_source_file_index>
115

> <i_lp_mmshare_version>
43012

> <i_f3d_flags>
0

> <s_epik_input>
W0NIM11PW0NIMl1bQ0BIXShbQ0gzXSluMWMoW0NIM10pW2NIXWMoYzFbQ0gzXSlDKD1PKVtDSDJdbjJjKD1PKWMoRilbY0hdbihjMj1PKVtDQEBIXTNbQ0gyXVtDSDJdW0NIMl1PMw==

> <s_epik_cmdline>
J2VwaWtfcHl0aG9uJywgJy1waCcsICc3LjAnLCAnLXRuJywgJzgnLCAnLW1hJywgJzIwMCcsICctbWV0YWxfYmluZGluZycsICctaW1hZScsICc8aW5maWxlLm1hZT4nLCAnLW9tYWUnLCAnPG91dGZpbGUubWFlPic=

> <r_lp_tautomer_probability>
1

> <r_epik_Ionization_Penalty>
5.02611e-09

> <r_epik_Ionization_Penalty_Charging>
5.01743e-09

> <r_epik_Ionization_Penalty_Neutral>
8.68114e-12

> <r_epik_State_Penalty>
-0

> <r_epik_Charging_Adjusted_Penalty>
5.01743e-09

> <i_epik_Tot_Q>
0

> <i_epik_Tot_abs_Q>
0

> <r_epik_Metal_State_Penalty>
-0

> <b_epik_Metal_Only>
0

> <s_epik_Chemistry_Notes>
This compound contains an acetal/aminal-like group ( X-CH(R)-Y where X, Y are N, S, or O) that may be acid/base labile, releasing an aldehyde.

> <s_lp_Force_Field>
OPLS_2005

> <r_lp_Energy>
51.0988

> <b_lp_Chiralities_Consistent>
1

> <s_lp_Variant>
AV-unprocessed.smi:115-3

> <Gold.Version>
5.8.1

> <Gold.Id.Protein>
6NUR|6NUR_protein|mol2

> <Gold.PLP.Fitness>
37.9265

> <Gold.PLP.PLP>
-35.5497

> <Gold.PLP.part.hbond>
-1.0000

> <Gold.PLP.part.metal>
0.0000

> <Gold.PLP.part.buried>
-5.5668

> <Gold.PLP.part.nonpolar>
-29.7451

> <Gold.PLP.part.repulsive>
0.3356

> <Gold.PLP.ligand.clash>
0.0000

> <Gold.PLP.ligand.torsion>
0.5003

> <Gold.PLP.Chemscore.Hbond>
1.0000

> <Gold.PLP.Chemscore.CHOScore>
0.0000

> <Gold.PLP.Chemscore.Metal>
0.0000

> <Gold.Chemscore.Hbonds>
donor molecule, donor type, donor heavy atom, donor atom, acceptor molecule, acceptor atom, score
      P1  H  6896  6908       L1    12  1.00

> <Gold.PLP.Chemscore.Internal.Correction>
0.3775

> <Gold.Rescore>
     Score         DG    S(hbond)    S(metal)    S(lipo)     H(rot)  DE(clash)    DE(int)     intcor
      6.28     -11.47       0.99        0.00      70.94       2.19       0.05       5.14       ----

> <Gold.Chemscore.Fitness>
6.2790

> <Gold.Chemscore.DG>
-11.4698

> <Gold.Chemscore.ZeroCoef>
-5.4800

> <Gold.Chemscore.Hbond>
0.9899

> <Gold.Chemscore.Metal>
0.0000

> <Gold.Chemscore.Lipo>
70.9372

> <Gold.Chemscore.Internal_Hbond>
0.0000

> <Gold.Chemscore.DEClash>
0.0469

> <Gold.Chemscore.DEInternal>
5.1439

> <Gold.Chemscore.Rot>
2.1938

> <Gold.Chemscore.Internal.Correction>
   9.000000E+99

> <Gold.Chemscore.Hbonds>
donor molecule, donor type, donor heavy atom, donor atom, acceptor molecule, acceptor atom, score
      P1  H  6896  6908       L1    12  0.81

> <Gold.Chemscore.Hbond.Weighted>
-3.3062

> <Gold.Chemscore.Metal.Weighted>
-0.0000

> <Gold.Chemscore.Lipo.Weighted>
-8.2996

> <Gold.Chemscore.Internal_Hbond.Weighted>
0.0000

> <Gold.Chemscore.DEClash.Weighted>
0.0469

> <Gold.Chemscore.DEInternal.Weighted>
5.1439

> <Gold.Chemscore.Rot.Weighted>
5.6160

> <Gold.Chemscore.Internal.Correction.Weighted>
   9.000000E+99

> <Gold.Protein.RotatedTorsions>
[ 6907 6896 6895 6894 ] final   94.86 input  -60.11 | X-H torsion
[ 7974 7965 7964 7962 ] final   -4.09 input  175.53 | X-H torsion
[ 8008 7997 7996 7995 ] final    2.75 input   59.86 | X-H torsion
[ 10167 10162 10161 10158 ] final   83.12 input  -65.29 | X-H torsion
[ 10718 10713 10712 10709 ] final -176.84 input   66.30 | X-H torsion
[ 10763 10752 10751 10750 ] final  143.10 input  -60.55 | X-H torsion
[ 11005 11000 10999 10996 ] final  116.17 input  -57.11 | X-H torsion

> <Gold.Protein.ActiveResidues>
 VAL166  LYS551  ARG553  GLY616  TRP617  ASP618  TYR619  PRO620  LYS621  CYS622 
 ASP623  PHE694  ASN695  SER759  ASP760  ASP761  ALA762  ILE779  LEU786  VAL792 
 PHE793  MET794  SER795  GLU796  ALA797  LYS798  CYS799  TRP800  GLU811  SER814 

> <Gold.Protein.RotatedAtoms>
  152.5447  134.1129  159.8365 H   0  0  0  0  0  0  0  0  0  0  0  0  # atno 6907 bound_to 6896
  151.1193  133.5108  159.2610 H   0  0  0  0  0  0  0  0  0  0  0  0  # atno 6908 bound_to 6896
  151.1796  135.0365  159.8841 H   0  0  0  0  0  0  0  0  0  0  0  0  # atno 6909 bound_to 6896
  146.2378  140.1819  142.8332 H   0  0  0  0  0  0  0  0  0  0  0  0  # atno 7974 bound_to 7965
  154.6953  140.2662  155.6772 H   0  0  0  0  0  0  0  0  0  0  0  0  # atno 8008 bound_to 7997
  156.2746  140.2783  156.1469 H   0  0  0  0  0  0  0  0  0  0  0  0  # atno 8009 bound_to 7997
  155.0839  140.0373  157.2638 H   0  0  0  0  0  0  0  0  0  0  0  0  # atno 8010 bound_to 7997
  139.9217  144.6208  150.8433 H   0  0  0  0  0  0  0  0  0  0  0  0  # atno 10167 bound_to 10162
  156.8206  130.9618  151.3112 H   0  0  0  0  0  0  0  0  0  0  0  0  # atno 10718 bound_to 10713
  153.9668  135.2954  155.3430 H   0  0  0  0  0  0  0  0  0  0  0  0  # atno 10763 bound_to 10752
  154.7344  135.5053  153.9021 H   0  0  0  0  0  0  0  0  0  0  0  0  # atno 10764 bound_to 10752
  153.0919  135.6710  153.9948 H   0  0  0  0  0  0  0  0  0  0  0  0  # atno 10765 bound_to 10752
  139.9033  134.9594  156.7157 H   0  0  0  0  0  0  0  0  0  0  0  0  # atno 11005 bound_to 11000
  144.9927  140.8562  143.5329 LP  0  0  0  0  0  0  0  0  0  0  0  0  # atno 17320 bound_to 7965
  145.1827  139.2343  143.5284 LP  0  0  0  0  0  0  0  0  0  0  0  0  # atno 17321 bound_to 7965
  140.7660  143.3292  151.2448 LP  0  0  0  0  0  0  0  0  0  0  0  0  # atno 17342 bound_to 10162
  139.6856  143.9780  152.2832 LP  0  0  0  0  0  0  0  0  0  0  0  0  # atno 17343 bound_to 10162
  157.6459  130.8844  149.9537 LP  0  0  0  0  0  0  0  0  0  0  0  0  # atno 17370 bound_to 10713
  156.0991  130.3657  150.0251 LP  0  0  0  0  0  0  0  0  0  0  0  0  # atno 17371 bound_to 10713
  140.7040  133.9281  155.8042 LP  0  0  0  0  0  0  0  0  0  0  0  0  # atno 17394 bound_to 11000
  141.0350  134.0702  157.3970 LP  0  0  0  0  0  0  0  0  0  0  0  0  # atno 17395 bound_to 11000

$$$$
