AV-unprocessed.smi:2175|AV-procd|sdf|8845|dock1
  -GOLD-   2272012 33D 1   1.00000     0.00000
 Structure written by MMmdl.
 33 34  0  0  0  0  0  0  0  0  2 V2000
  150.7798  136.3674  154.3107 C   0  0  0  0  0  0  0  0  0  0  0  0
  150.8447  137.8305  154.6930 C   0  0  0  0  0  0  0  0  0  0  0  0
  149.9531  138.6319  154.2491 N   0  0  0  0  0  0  0  0  0  0  0  0
  150.0072  139.9907  154.6024 C   0  0  0  0  0  0  0  0  0  0  0  0
  148.9037  140.8669  154.0354 C   0  0  0  0  0  0  0  0  0  0  0  0
  150.9968  140.4719  155.4084 C   0  0  0  0  0  0  0  0  0  0  0  0
  151.0916  141.9388  155.8276 C   0  0  0  0  0  0  0  0  0  0  0  0
  151.0496  142.2046  157.3344 C   0  0  0  0  0  0  0  0  0  0  0  0
  151.7427  141.5392  158.1040 O   0  0  0  0  0  0  0  0  0  0  0  0
  150.2325  143.1875  157.7420 N   0  0  0  0  0  0  0  0  0  0  0  0
  150.0555  143.6102  159.1249 C   0  0  0  0  0  0  0  0  0  0  0  0
  151.1852  144.4520  159.6871 C   0  0  0  0  0  0  0  0  0  0  0  0
  152.5043  144.5720  158.9608 C   0  0  0  0  0  0  0  0  0  0  0  0
  152.4217  143.7923  160.2512 C   0  0  0  0  0  0  0  0  0  0  0  0
  152.0088  139.5162  155.8939 C   0  0  0  0  0  0  0  0  0  0  0  0
  152.9309  139.8990  156.6129 O   0  0  0  0  0  0  0  0  0  0  0  0
  151.8813  138.2125  155.5143 N   0  5  0  0  0  0  0  0  0  0  0  0
  150.0277  136.1960  153.5392 H   0  0  0  0  0  0  0  0  0  0  0  0
  150.5231  135.7628  155.1808 H   0  0  0  0  0  0  0  0  0  0  0  0
  151.7434  136.0312  153.9264 H   0  0  0  0  0  0  0  0  0  0  0  0
  148.2978  141.2867  154.8385 H   0  0  0  0  0  0  0  0  0  0  0  0
  148.2432  140.2957  153.3816 H   0  0  0  0  0  0  0  0  0  0  0  0
  149.3240  141.6855  153.4511 H   0  0  0  0  0  0  0  0  0  0  0  0
  152.0183  142.3461  155.4218 H   0  0  0  0  0  0  0  0  0  0  0  0
  150.3049  142.5292  155.3574 H   0  0  0  0  0  0  0  0  0  0  0  0
  149.6988  143.6808  157.0411 H   0  0  0  0  0  0  0  0  0  0  0  0
  149.1235  144.1696  159.2193 H   0  0  0  0  0  0  0  0  0  0  0  0
  149.9362  142.7158  159.7372 H   0  0  0  0  0  0  0  0  0  0  0  0
  150.8483  145.3396  160.2195 H   0  0  0  0  0  0  0  0  0  0  0  0
  152.6298  144.0066  158.0393 H   0  0  0  0  0  0  0  0  0  0  0  0
  153.0047  145.5377  158.9869 H   0  0  0  0  0  0  0  0  0  0  0  0
  152.8692  144.2374  161.1375 H   0  0  0  0  0  0  0  0  0  0  0  0
  152.4938  142.7084  160.1869 H   0  0  0  0  0  0  0  0  0  0  0  0
  1  2  1  0  0  0  0
  1 18  1  0  0  0  0
  1 19  1  0  0  0  0
  1 20  1  0  0  0  0
  2 17  1  0  0  0  0
  2  3  2  0  0  0  0
  3  4  1  0  0  0  0
  4  5  1  0  0  0  0
  4  6  2  0  0  0  0
  5 21  1  0  0  0  0
  5 22  1  0  0  0  0
  5 23  1  0  0  0  0
  6  7  1  0  0  0  0
  6 15  1  0  0  0  0
  7  8  1  0  0  0  0
  7 24  1  0  0  0  0
  7 25  1  0  0  0  0
  8  9  2  0  0  0  0
  8 10  1  0  0  0  0
 10 11  1  0  0  0  0
 10 26  1  0  0  0  0
 11 12  1  0  0  0  0
 11 27  1  0  0  0  0
 11 28  1  0  0  0  0
 12 14  1  0  0  0  0
 12 13  1  0  0  0  0
 12 29  1  0  0  0  0
 13 14  1  0  0  0  0
 13 30  1  0  0  0  0
 13 31  1  0  0  0  0
 14 32  1  0  0  0  0
 14 33  1  0  0  0  0
 15 16  2  0  0  0  0
 15 17  1  0  0  0  0
M  CHG  1  17  -1
M  END
> <s_m_source_file>
AV-unprocessed.smi

> <i_m_source_file_index>
2175

> <i_lp_mmshare_version>
43012

> <i_f3d_flags>
0

> <s_epik_input>
W0NIM11jMW5jKFtDSDNdKWMoYyg9TylbbkhdMSlbQ0gyXUMoPU8pW05IXVtDSDJdW0NIXTJbQ0gyXVtDSDJdMg==

> <s_epik_cmdline>
J2VwaWtfcHl0aG9uJywgJy1waCcsICc3LjAnLCAnLXRuJywgJzgnLCAnLW1hJywgJzIwMCcsICctbWV0YWxfYmluZGluZycsICctaW1hZScsICc8aW5maWxlLm1hZT4nLCAnLW9tYWUnLCAnPG91dGZpbGUubWFlPic=

> <r_lp_tautomer_probability>
0.839158

> <r_epik_Ionization_Penalty>
6.60351

> <r_epik_Ionization_Penalty_Charging>
6.70818e-08

> <r_epik_Ionization_Penalty_Neutral>
6.60351

> <r_epik_State_Penalty>
4.42903

> <r_epik_Charging_Adjusted_Penalty>
4.42903

> <i_epik_Tot_Q>
-1

> <i_epik_Tot_abs_Q>
1

> <r_epik_Metal_State_Penalty>
0.797668

> <b_epik_Metal_Only>
1

> <s_lp_Force_Field>
OPLS_2005

> <r_lp_Energy>
17.43

> <b_lp_Chiralities_Consistent>
1

> <s_lp_Variant>
AV-unprocessed.smi:2175-3

> <Gold.Version>
5.8.1

> <Gold.Id.Protein>
6NUR|6NUR_protein|mol2

> <Gold.PLP.Fitness>
39.2688

> <Gold.PLP.PLP>
-34.1662

> <Gold.PLP.part.hbond>
-2.0000

> <Gold.PLP.part.metal>
0.0000

> <Gold.PLP.part.buried>
-3.2944

> <Gold.PLP.part.nonpolar>
-28.0124

> <Gold.PLP.part.repulsive>
0.2051

> <Gold.PLP.ligand.clash>
0.0000

> <Gold.PLP.ligand.torsion>
0.7252

> <Gold.PLP.Chemscore.Hbond>
2.0000

> <Gold.PLP.Chemscore.CHOScore>
0.0000

> <Gold.PLP.Chemscore.Metal>
0.0000

> <Gold.Chemscore.Hbonds>
donor molecule, donor type, donor heavy atom, donor atom, acceptor molecule, acceptor atom, score
      L1  H    10    26       P1  8028  1.00
      P1  H  7997  8010       L1    16  0.75

> <Gold.PLP.Chemscore.Internal.Correction>
0.5530

> <Gold.Rescore>
     Score         DG    S(hbond)    S(metal)    S(lipo)     H(rot)  DE(clash)    DE(int)     intcor
     14.43     -16.72       1.98        0.00      76.79       1.70       0.02       2.27       ----

> <Gold.Chemscore.Fitness>
14.4312

> <Gold.Chemscore.DG>
-16.7244

> <Gold.Chemscore.ZeroCoef>
-5.4800

> <Gold.Chemscore.Hbond>
1.9804

> <Gold.Chemscore.Metal>
0.0000

> <Gold.Chemscore.Lipo>
76.7882

> <Gold.Chemscore.Internal_Hbond>
0.0000

> <Gold.Chemscore.DEClash>
0.0237

> <Gold.Chemscore.DEInternal>
2.2694

> <Gold.Chemscore.Rot>
1.7009

> <Gold.Chemscore.Internal.Correction>
   9.000000E+99

> <Gold.Chemscore.Hbonds>
donor molecule, donor type, donor heavy atom, donor atom, acceptor molecule, acceptor atom, score
      L1  H    10    26       P1  8028  0.93
      P1  H  7997  8010       L1    16  0.75

> <Gold.Chemscore.Hbond.Weighted>
-6.6145

> <Gold.Chemscore.Metal.Weighted>
-0.0000

> <Gold.Chemscore.Lipo.Weighted>
-8.9842

> <Gold.Chemscore.Internal_Hbond.Weighted>
0.0000

> <Gold.Chemscore.DEClash.Weighted>
0.0237

> <Gold.Chemscore.DEInternal.Weighted>
2.2694

> <Gold.Chemscore.Rot.Weighted>
4.3543

> <Gold.Chemscore.Internal.Correction.Weighted>
   9.000000E+99

> <Gold.Protein.RotatedTorsions>
[ 6907 6896 6895 6894 ] final   68.18 input  -60.11 | X-H torsion
[ 7974 7965 7964 7962 ] final  168.67 input  175.53 | X-H torsion
[ 8008 7997 7996 7995 ] final   67.48 input   59.86 | X-H torsion
[ 10167 10162 10161 10158 ] final   13.25 input  -65.29 | X-H torsion
[ 10718 10713 10712 10709 ] final -130.16 input   66.30 | X-H torsion
[ 10763 10752 10751 10750 ] final  125.25 input  -60.55 | X-H torsion
[ 11005 11000 10999 10996 ] final   71.69 input  -57.11 | X-H torsion

> <Gold.Protein.ActiveResidues>
 VAL166  LYS551  ARG553  GLY616  TRP617  ASP618  TYR619  PRO620  LYS621  CYS622 
 ASP623  PHE694  ASN695  SER759  ASP760  ASP761  ALA762  ILE779  LEU786  VAL792 
 PHE793  MET794  SER795  GLU796  ALA797  LYS798  CYS799  TRP800  GLU811  SER814 

> <Gold.Protein.RotatedAtoms>
  152.4603  134.5200  159.9779 H   0  0  0  0  0  0  0  0  0  0  0  0  # atno 6907 bound_to 6896
  151.5251  133.3453  159.2916 H   0  0  0  0  0  0  0  0  0  0  0  0  # atno 6908 bound_to 6896
  150.8563  134.7932  159.7110 H   0  0  0  0  0  0  0  0  0  0  0  0  # atno 6909 bound_to 6896
  144.7380  139.8942  143.6405 H   0  0  0  0  0  0  0  0  0  0  0  0  # atno 7974 bound_to 7965
  155.6936  140.3496  155.4903 H   0  0  0  0  0  0  0  0  0  0  0  0  # atno 8008 bound_to 7997
  155.9503  140.1118  157.1005 H   0  0  0  0  0  0  0  0  0  0  0  0  # atno 8009 bound_to 7997
  154.4120  140.1195  156.5030 H   0  0  0  0  0  0  0  0  0  0  0  0  # atno 8010 bound_to 7997
  140.6015  143.8595  150.6970 H   0  0  0  0  0  0  0  0  0  0  0  0  # atno 10167 bound_to 10162
  156.2117  130.6922  151.0657 H   0  0  0  0  0  0  0  0  0  0  0  0  # atno 10718 bound_to 10713
  153.6743  135.3325  155.3162 H   0  0  0  0  0  0  0  0  0  0  0  0  # atno 10763 bound_to 10752
  154.8482  135.4394  154.1672 H   0  0  0  0  0  0  0  0  0  0  0  0  # atno 10764 bound_to 10752
  153.2672  135.6997  153.7594 H   0  0  0  0  0  0  0  0  0  0  0  0  # atno 10765 bound_to 10752
  139.9530  134.7193  156.0818 H   0  0  0  0  0  0  0  0  0  0  0  0  # atno 11005 bound_to 11000
  146.1119  139.4125  143.0282 LP  0  0  0  0  0  0  0  0  0  0  0  0  # atno 17320 bound_to 7965
  145.7430  141.0001  143.1291 LP  0  0  0  0  0  0  0  0  0  0  0  0  # atno 17321 bound_to 7965
  140.2142  143.3859  152.1694 LP  0  0  0  0  0  0  0  0  0  0  0  0  # atno 17342 bound_to 10162
  139.5294  144.7141  151.5110 LP  0  0  0  0  0  0  0  0  0  0  0  0  # atno 17343 bound_to 10162
  157.7042  131.0763  150.6722 LP  0  0  0  0  0  0  0  0  0  0  0  0  # atno 17370 bound_to 10713
  156.6782  130.4559  149.5636 LP  0  0  0  0  0  0  0  0  0  0  0  0  # atno 17371 bound_to 10713
  141.1197  133.6617  156.3182 LP  0  0  0  0  0  0  0  0  0  0  0  0  # atno 17394 bound_to 11000
  140.5674  134.5874  157.5449 LP  0  0  0  0  0  0  0  0  0  0  0  0  # atno 17395 bound_to 11000

$$$$
