AV-unprocessed.smi:1699|AV-procd|sdf|6818|dock7
  -GOLD-   22720 7593D 1   1.00000     0.00000
 Structure written by MMmdl.
 37 38  0  0  0  0  0  0  0  0  1 V2000
  147.7112  132.9983  152.4237 C   0  0  0  0  0  0  0  0  0  0  0  0
  146.3810  132.9623  151.6884 C   0  0  0  0  0  0  0  0  0  0  0  0
  145.8604  131.7213  151.2642 C   0  0  0  0  0  0  0  0  0  0  0  0
  144.6310  131.6891  150.5844 C   0  0  0  0  0  0  0  0  0  0  0  0
  143.9688  132.9078  150.3576 C   0  0  0  0  0  0  0  0  0  0  0  0
  144.4587  134.0980  150.7596 N   0  0  0  0  0  0  0  0  0  0  0  0
  145.6450  134.1468  151.4164 C   0  0  0  0  0  0  0  0  0  0  0  0
  146.2236  135.3669  151.8677 N   0  0  0  0  0  0  0  0  0  0  0  0
  145.6121  136.4301  152.4189 C   0  0  0  0  0  0  0  0  0  0  0  0
  144.4053  136.5197  152.6461 O   0  0  0  0  0  0  0  0  0  0  0  0
  146.4931  137.4041  152.6936 N   0  0  0  0  0  0  0  0  0  0  0  0
  146.1799  138.6984  153.2979 C   0  0  1  0  0  0  0  0  0  0  0  0
  145.7454  138.4696  154.7530 C   0  0  0  0  0  0  0  0  0  0  0  0
  147.3918  139.6494  153.2043 C   0  0  1  0  0  0  0  0  0  0  0  0
  147.1773  141.0376  153.8126 C   0  0  0  0  0  0  0  0  0  0  0  0
  148.5953  141.4641  154.1113 C   0  0  0  0  0  0  0  0  0  0  0  0
  149.2178  140.1549  154.5855 C   0  0  0  0  0  0  0  0  0  0  0  0
  148.5042  139.1155  153.9200 O   0  0  0  0  0  0  0  0  0  0  0  0
  148.1279  131.9973  152.5400 H   0  0  0  0  0  0  0  0  0  0  0  0
  147.5856  133.4268  153.4184 H   0  0  0  0  0  0  0  0  0  0  0  0
  148.4357  133.6005  151.8747 H   0  0  0  0  0  0  0  0  0  0  0  0
  146.3950  130.8025  151.4559 H   0  0  0  0  0  0  0  0  0  0  0  0
  144.2063  130.7554  150.2464 H   0  0  0  0  0  0  0  0  0  0  0  0
  143.0209  132.9284  149.8406 H   0  0  0  0  0  0  0  0  0  0  0  0
  147.2231  135.4391  151.7504 H   0  0  0  0  0  0  0  0  0  0  0  0
  147.4630  137.2388  152.4683 H   0  0  0  0  0  0  0  0  0  0  0  0
  145.3397  139.1578  152.7739 H   0  0  0  0  0  0  0  0  0  0  0  0
  145.4664  139.4079  155.2331 H   0  0  0  0  0  0  0  0  0  0  0  0
  146.5459  138.0205  155.3417 H   0  0  0  0  0  0  0  0  0  0  0  0
  144.8809  137.8070  154.8050 H   0  0  0  0  0  0  0  0  0  0  0  0
  147.6965  139.7658  152.1628 H   0  0  0  0  0  0  0  0  0  0  0  0
  146.6577  141.7224  153.1418 H   0  0  0  0  0  0  0  0  0  0  0  0
  146.6076  140.9684  154.7406 H   0  0  0  0  0  0  0  0  0  0  0  0
  149.0838  141.8056  153.1978 H   0  0  0  0  0  0  0  0  0  0  0  0
  148.6585  142.2604  154.8535 H   0  0  0  0  0  0  0  0  0  0  0  0
  150.2861  140.1036  154.3743 H   0  0  0  0  0  0  0  0  0  0  0  0
  149.0791  140.0345  155.6604 H   0  0  0  0  0  0  0  0  0  0  0  0
  1  2  1  0  0  0  0
  1 19  1  0  0  0  0
  1 20  1  0  0  0  0
  1 21  1  0  0  0  0
  2  7  1  0  0  0  0
  2  3  2  0  0  0  0
  3  4  1  0  0  0  0
  3 22  1  0  0  0  0
  4  5  2  0  0  0  0
  4 23  1  0  0  0  0
  5  6  1  0  0  0  0
  5 24  1  0  0  0  0
  6  7  2  0  0  0  0
  7  8  1  0  0  0  0
  8  9  1  0  0  0  0
  8 25  1  0  0  0  0
  9 10  2  0  0  0  0
  9 11  1  0  0  0  0
 11 12  1  0  0  0  0
 11 26  1  0  0  0  0
 12 13  1  0  0  0  0
 12 14  1  0  0  0  0
 12 27  1  0  0  0  0
 13 28  1  0  0  0  0
 13 29  1  0  0  0  0
 13 30  1  0  0  0  0
 14 18  1  0  0  0  0
 14 15  1  0  0  0  0
 14 31  1  0  0  0  0
 15 16  1  0  0  0  0
 15 32  1  0  0  0  0
 15 33  1  0  0  0  0
 16 17  1  0  0  0  0
 16 34  1  0  0  0  0
 16 35  1  0  0  0  0
 17 18  1  0  0  0  0
 17 36  1  0  0  0  0
 17 37  1  0  0  0  0
M  END
> <s_m_source_file>
AV-unprocessed.smi

> <i_m_source_file_index>
1699

> <i_lp_mmshare_version>
43012

> <i_f3d_flags>
0

> <s_epik_input>
W0NIM11jMVtjSF1bY0hdW2NIXW5jMVtOSF1DKD1PKVtOSF1bQ0BIXShbQ0gzXSlbQ0BASF0yW0NIMl1bQ0gyXVtDSDJdTzI=

> <s_epik_cmdline>
J2VwaWtfcHl0aG9uJywgJy1waCcsICc3LjAnLCAnLXRuJywgJzgnLCAnLW1hJywgJzIwMCcsICctbWV0YWxfYmluZGluZycsICctaW1hZScsICc8aW5maWxlLm1hZT4nLCAnLW9tYWUnLCAnPG91dGZpbGUubWFlPic=

> <r_lp_tautomer_probability>
1

> <r_epik_Ionization_Penalty>
5.52788e-05

> <r_epik_Ionization_Penalty_Charging>
0

> <r_epik_Ionization_Penalty_Neutral>
5.52788e-05

> <r_epik_State_Penalty>
-0

> <r_epik_Charging_Adjusted_Penalty>
0

> <i_epik_Tot_Q>
0

> <i_epik_Tot_abs_Q>
0

> <r_epik_Metal_State_Penalty>
-0

> <b_epik_Metal_Only>
0

> <s_lp_Force_Field>
OPLS_2005

> <r_lp_Energy>
20.3495

> <b_lp_Chiralities_Consistent>
1

> <s_lp_Variant>
AV-unprocessed.smi:1699-4

> <Gold.Version>
5.8.1

> <Gold.Id.Protein>
6NUR|6NUR_protein|mol2

> <Gold.PLP.Fitness>
38.8303

> <Gold.PLP.PLP>
-30.6088

> <Gold.PLP.part.hbond>
-2.0000

> <Gold.PLP.part.metal>
0.0000

> <Gold.PLP.part.buried>
-3.1171

> <Gold.PLP.part.nonpolar>
-26.8512

> <Gold.PLP.part.repulsive>
0.7512

> <Gold.PLP.ligand.clash>
0.0000

> <Gold.PLP.ligand.torsion>
0.3947

> <Gold.PLP.Chemscore.Hbond>
2.0000

> <Gold.PLP.Chemscore.CHOScore>
1.0000

> <Gold.PLP.Chemscore.Metal>
0.0000

> <Gold.Chemscore.Hbonds>
donor molecule, donor type, donor heavy atom, donor atom, acceptor molecule, acceptor atom, score
      L1  H     8    25       P1  7948  1.00
      L1  H    11    26       P1  7948  1.00
      L1  C     5    24       P1 10186  1.00

> <Gold.PLP.Chemscore.Internal.Correction>
0.0109

> <Gold.Rescore>
     Score         DG    S(hbond)    S(metal)    S(lipo)     H(rot)  DE(clash)    DE(int)     intcor
     17.42     -17.90       1.96        0.00      77.04       1.22       0.04       0.45       ----

> <Gold.Chemscore.Fitness>
17.4217

> <Gold.Chemscore.DG>
-17.9044

> <Gold.Chemscore.ZeroCoef>
-5.4800

> <Gold.Chemscore.Hbond>
1.9564

> <Gold.Chemscore.Metal>
0.0000

> <Gold.Chemscore.Lipo>
77.0368

> <Gold.Chemscore.Internal_Hbond>
0.0000

> <Gold.Chemscore.DEClash>
0.0364

> <Gold.Chemscore.DEInternal>
0.4463

> <Gold.Chemscore.Rot>
1.2200

> <Gold.Chemscore.Internal.Correction>
   9.000000E+99

> <Gold.Chemscore.Hbonds>
donor molecule, donor type, donor heavy atom, donor atom, acceptor molecule, acceptor atom, score
      L1  H     8    25       P1  7948  0.99
      L1  H    11    26       P1  7948  0.98

> <Gold.Chemscore.Hbond.Weighted>
-6.5343

> <Gold.Chemscore.Metal.Weighted>
-0.0000

> <Gold.Chemscore.Lipo.Weighted>
-9.0133

> <Gold.Chemscore.Internal_Hbond.Weighted>
0.0000

> <Gold.Chemscore.DEClash.Weighted>
0.0364

> <Gold.Chemscore.DEInternal.Weighted>
0.4463

> <Gold.Chemscore.Rot.Weighted>
3.1232

> <Gold.Chemscore.Internal.Correction.Weighted>
   9.000000E+99

> <Gold.Protein.RotatedTorsions>
[ 6907 6896 6895 6894 ] final  -17.13 input  -60.11 | X-H torsion
[ 7974 7965 7964 7962 ] final  -82.36 input  175.53 | X-H torsion
[ 8008 7997 7996 7995 ] final   90.44 input   59.86 | X-H torsion
[ 10167 10162 10161 10158 ] final   17.60 input  -65.29 | X-H torsion
[ 10718 10713 10712 10709 ] final  128.30 input   66.30 | X-H torsion
[ 10763 10752 10751 10750 ] final   33.50 input  -60.55 | X-H torsion
[ 11005 11000 10999 10996 ] final  -56.12 input  -57.11 | X-H torsion

> <Gold.Protein.ActiveResidues>
 VAL166  LYS551  ARG553  GLY616  TRP617  ASP618  TYR619  PRO620  LYS621  CYS622 
 ASP623  PHE694  ASN695  SER759  ASP760  ASP761  ALA762  ILE779  LEU786  VAL792 
 PHE793  MET794  SER795  GLU796  ALA797  LYS798  CYS799  TRP800  GLU811  SER814 

> <Gold.Protein.RotatedAtoms>
  151.2980  135.0760  159.9227 H   0  0  0  0  0  0  0  0  0  0  0  0  # atno 6907 bound_to 6896
  152.5303  133.9863  159.7840 H   0  0  0  0  0  0  0  0  0  0  0  0  # atno 6908 bound_to 6896
  151.0145  133.5883  159.2709 H   0  0  0  0  0  0  0  0  0  0  0  0  # atno 6909 bound_to 6896
  145.5343  140.9517  143.1586 H   0  0  0  0  0  0  0  0  0  0  0  0  # atno 7974 bound_to 7965
  156.0119  140.3349  155.6950 H   0  0  0  0  0  0  0  0  0  0  0  0  # atno 8008 bound_to 7997
  155.6145  140.0668  157.2714 H   0  0  0  0  0  0  0  0  0  0  0  0  # atno 8009 bound_to 7997
  154.4284  140.1787  156.1295 H   0  0  0  0  0  0  0  0  0  0  0  0  # atno 8010 bound_to 7997
  140.5714  143.9153  150.6716 H   0  0  0  0  0  0  0  0  0  0  0  0  # atno 10167 bound_to 10162
  157.5257  131.1098  150.9086 H   0  0  0  0  0  0  0  0  0  0  0  0  # atno 10718 bound_to 10713
  153.0209  135.6385  154.1522 H   0  0  0  0  0  0  0  0  0  0  0  0  # atno 10763 bound_to 10752
  154.1256  135.2844  155.3199 H   0  0  0  0  0  0  0  0  0  0  0  0  # atno 10764 bound_to 10752
  154.6231  135.5518  153.7659 H   0  0  0  0  0  0  0  0  0  0  0  0  # atno 10765 bound_to 10752
  141.1105  133.6611  156.4571 H   0  0  0  0  0  0  0  0  0  0  0  0  # atno 11005 bound_to 11000
  144.7609  139.6958  143.7234 LP  0  0  0  0  0  0  0  0  0  0  0  0  # atno 17320 bound_to 7965
  146.2023  139.5325  142.9735 LP  0  0  0  0  0  0  0  0  0  0  0  0  # atno 17321 bound_to 7965
  140.2629  143.3510  152.1306 LP  0  0  0  0  0  0  0  0  0  0  0  0  # atno 17342 bound_to 10162
  139.5120  144.6909  151.5762 LP  0  0  0  0  0  0  0  0  0  0  0  0  # atno 17343 bound_to 10162
  156.9683  130.5481  149.5289 LP  0  0  0  0  0  0  0  0  0  0  0  0  # atno 17370 bound_to 10713
  156.0385  130.5470  150.8713 LP  0  0  0  0  0  0  0  0  0  0  0  0  # atno 17371 bound_to 10713
  140.4787  134.6685  157.5161 LP  0  0  0  0  0  0  0  0  0  0  0  0  # atno 17394 bound_to 11000
  139.9997  134.6856  155.9551 LP  0  0  0  0  0  0  0  0  0  0  0  0  # atno 17395 bound_to 11000

$$$$
