AV-unprocessed.smi:3343|AV-procd|sdf|12895|dock5
  -GOLD-   2272019303D 1   1.00000     0.00000
 Structure written by MMmdl.
 42 43  0  0  0  0  0  0  0  0  2 V2000
  149.9950  141.2362  155.7803 C   0  0  0  0  0  0  0  0  0  0  0  0
  149.8597  140.3347  154.5366 C   0  0  2  0  0  0  0  0  0  0  0  0
  148.4499  139.7373  154.3738 C   0  0  0  0  0  0  0  0  0  0  0  0
  147.7643  139.4600  155.3585 O   0  0  0  0  0  0  0  0  0  0  0  0
  148.0242  139.5498  153.1141 N   0  0  0  0  0  0  0  0  0  0  0  0
  146.7397  138.9716  152.7413 C   0  0  0  0  0  0  0  0  0  0  0  0
  146.4511  137.7240  153.5918 C   0  0  0  0  0  0  0  0  0  0  0  0
  146.3906  136.4836  152.7788 N   0  3  0  0  0  0  0  0  0  0  0  0
  145.4419  136.5984  151.6447 C   0  0  0  0  0  0  0  0  0  0  0  0
  145.4774  135.3254  150.7730 C   0  0  0  0  0  0  0  0  0  0  0  0
  145.1841  134.1182  151.5470 N   0  0  0  0  0  0  0  0  0  0  0  0
  143.7843  134.0181  151.9456 C   0  0  0  0  0  0  0  0  0  0  0  0
  146.1126  134.0108  152.6735 C   0  0  0  0  0  0  0  0  0  0  0  0
  146.0885  135.2656  153.5722 C   0  0  0  0  0  0  0  0  0  0  0  0
  150.8728  139.2853  154.5237 N   0  0  0  0  0  0  0  0  0  0  0  0
  150.7750  138.0002  154.1764 C   0  0  0  0  0  0  0  0  0  0  0  0
  151.9003  137.3154  154.3236 N   0  0  0  0  0  0  0  0  0  0  0  0
  152.7111  138.3076  154.7976 C   0  0  0  0  0  0  0  0  0  0  0  0
  152.1433  139.5043  154.9461 N   0  0  0  0  0  0  0  0  0  0  0  0
  149.2866  142.0647  155.7471 H   0  0  0  0  0  0  0  0  0  0  0  0
  150.9949  141.6669  155.8405 H   0  0  0  0  0  0  0  0  0  0  0  0
  149.8178  140.6845  156.7045 H   0  0  0  0  0  0  0  0  0  0  0  0
  150.0361  140.9615  153.6610 H   0  0  0  0  0  0  0  0  0  0  0  0
  148.6443  139.8130  152.3618 H   0  0  0  0  0  0  0  0  0  0  0  0
  145.9351  139.6966  152.8763 H   0  0  0  0  0  0  0  0  0  0  0  0
  146.7779  138.7280  151.6800 H   0  0  0  0  0  0  0  0  0  0  0  0
  147.1934  137.6124  154.3838 H   0  0  0  0  0  0  0  0  0  0  0  0
  145.4897  137.8696  154.0873 H   0  0  0  0  0  0  0  0  0  0  0  0
  144.4352  136.7944  152.0163 H   0  0  0  0  0  0  0  0  0  0  0  0
  145.7172  137.4547  151.0279 H   0  0  0  0  0  0  0  0  0  0  0  0
  144.7723  135.4105  149.9451 H   0  0  0  0  0  0  0  0  0  0  0  0
  146.4666  135.2181  150.3255 H   0  0  0  0  0  0  0  0  0  0  0  0
  143.6057  133.0736  152.4602 H   0  0  0  0  0  0  0  0  0  0  0  0
  143.1397  134.0409  151.0664 H   0  0  0  0  0  0  0  0  0  0  0  0
  143.4774  134.8258  152.6089 H   0  0  0  0  0  0  0  0  0  0  0  0
  145.8787  133.1197  153.2573 H   0  0  0  0  0  0  0  0  0  0  0  0
  147.1194  133.8653  152.2792 H   0  0  0  0  0  0  0  0  0  0  0  0
  146.8301  135.1398  154.3598 H   0  0  0  0  0  0  0  0  0  0  0  0
  145.1242  135.3718  154.0707 H   0  0  0  0  0  0  0  0  0  0  0  0
  149.8602  137.5547  153.8138 H   0  0  0  0  0  0  0  0  0  0  0  0
  153.7486  138.1413  155.0481 H   0  0  0  0  0  0  0  0  0  0  0  0
  147.3057  136.3552  152.3709 H   0  0  0  0  0  0  0  0  0  0  0  0
  1  2  1  0  0  0  0
  1 20  1  0  0  0  0
  1 21  1  0  0  0  0
  1 22  1  0  0  0  0
  2  3  1  0  0  0  0
  2 15  1  0  0  0  0
  2 23  1  0  0  0  0
  3  4  2  0  0  0  0
  3  5  1  0  0  0  0
  5  6  1  0  0  0  0
  5 24  1  0  0  0  0
  6  7  1  0  0  0  0
  6 25  1  0  0  0  0
  6 26  1  0  0  0  0
  7  8  1  0  0  0  0
  7 27  1  0  0  0  0
  7 28  1  0  0  0  0
  8 14  1  0  0  0  0
  8  9  1  0  0  0  0
  8 42  1  0  0  0  0
  9 10  1  0  0  0  0
  9 29  1  0  0  0  0
  9 30  1  0  0  0  0
 10 11  1  0  0  0  0
 10 31  1  0  0  0  0
 10 32  1  0  0  0  0
 11 12  1  0  0  0  0
 11 13  1  0  0  0  0
 12 33  1  0  0  0  0
 12 34  1  0  0  0  0
 12 35  1  0  0  0  0
 13 14  1  0  0  0  0
 13 36  1  0  0  0  0
 13 37  1  0  0  0  0
 14 38  1  0  0  0  0
 14 39  1  0  0  0  0
 15 19  1  0  0  0  0
 15 16  1  0  0  0  0
 16 17  2  0  0  0  0
 16 40  1  0  0  0  0
 17 18  1  0  0  0  0
 18 19  2  0  0  0  0
 18 41  1  0  0  0  0
M  CHG  1   8   1
M  END
> <s_m_source_file>
AV-unprocessed.smi

> <i_m_source_file_index>
3343

> <i_lp_mmshare_version>
43012

> <i_f3d_flags>
0

> <s_epik_input>
bjFbY0hdbltjSF1uMVtDQEhdKFtDSDNdKUMoPU8pW05IXVtDSDJdW0NIMl1OMltDSDJdW0NIMl1OKFtDSDNdKVtDSDJdW0NIMl0y

> <s_epik_cmdline>
J2VwaWtfcHl0aG9uJywgJy1waCcsICc3LjAnLCAnLXRuJywgJzgnLCAnLW1hJywgJzIwMCcsICctbWV0YWxfYmluZGluZycsICctaW1hZScsICc8aW5maWxlLm1hZT4nLCAnLW9tYWUnLCAnPG91dGZpbGUubWFlPic=

> <r_epik_Ionization_Penalty>
0.559944

> <r_epik_Ionization_Penalty_Charging>
0.558624

> <r_epik_Ionization_Penalty_Neutral>
0.00131959

> <r_epik_State_Penalty>
2.08679

> <r_epik_Charging_Adjusted_Penalty>
2.64542

> <i_epik_Tot_Q>
1

> <i_epik_Tot_abs_Q>
1

> <r_epik_Metal_State_Penalty>
2.0868

> <b_epik_Metal_Only>
0

> <s_lp_Force_Field>
OPLS_2005

> <r_lp_Energy>
23.1114

> <b_lp_Chiralities_Consistent>
1

> <s_lp_Variant>
AV-unprocessed.smi:3343-5

> <Gold.Version>
5.8.1

> <Gold.Id.Protein>
6NUR|6NUR_protein|mol2

> <Gold.PLP.Fitness>
45.4435

> <Gold.PLP.PLP>
-33.8573

> <Gold.PLP.part.hbond>
-4.0000

> <Gold.PLP.part.metal>
0.0000

> <Gold.PLP.part.buried>
-2.3654

> <Gold.PLP.part.nonpolar>
-28.0085

> <Gold.PLP.part.repulsive>
0.4267

> <Gold.PLP.ligand.clash>
0.0000

> <Gold.PLP.ligand.torsion>
1.6704

> <Gold.PLP.Chemscore.Hbond>
3.9280

> <Gold.PLP.Chemscore.CHOScore>
1.0000

> <Gold.PLP.Chemscore.Metal>
0.0000

> <Gold.Chemscore.Hbonds>
donor molecule, donor type, donor heavy atom, donor atom, acceptor molecule, acceptor atom, score
      L1  H     5    24       P1  7957  1.00
      L1  H     8    42       P1  7948  2.00
      P1  H 10752 10763       L1    17  0.98
      L1  C    16    40       P1  7948  1.00

> <Gold.PLP.Chemscore.Internal.Correction>
0.1431

> <Gold.Rescore>
     Score         DG    S(hbond)    S(metal)    S(lipo)     H(rot)  DE(clash)    DE(int)     intcor
     11.06     -13.81       2.83        0.00      47.86       2.63       0.03       2.73       ----

> <Gold.Chemscore.Fitness>
11.0614

> <Gold.Chemscore.DG>
-13.8144

> <Gold.Chemscore.ZeroCoef>
-5.4800

> <Gold.Chemscore.Hbond>
2.8330

> <Gold.Chemscore.Metal>
0.0000

> <Gold.Chemscore.Lipo>
47.8573

> <Gold.Chemscore.Internal_Hbond>
0.0000

> <Gold.Chemscore.DEClash>
0.0255

> <Gold.Chemscore.DEInternal>
2.7275

> <Gold.Chemscore.Rot>
2.6278

> <Gold.Chemscore.Internal.Correction>
   9.000000E+99

> <Gold.Chemscore.Hbonds>
donor molecule, donor type, donor heavy atom, donor atom, acceptor molecule, acceptor atom, score
      L1  H     5    24       P1  7957  0.95
      L1  H     8    42       P1  7948  1.00
      P1  H 10752 10763       L1    17  0.56

> <Gold.Chemscore.Hbond.Weighted>
-9.4622

> <Gold.Chemscore.Metal.Weighted>
-0.0000

> <Gold.Chemscore.Lipo.Weighted>
-5.5993

> <Gold.Chemscore.Internal_Hbond.Weighted>
0.0000

> <Gold.Chemscore.DEClash.Weighted>
0.0255

> <Gold.Chemscore.DEInternal.Weighted>
2.7275

> <Gold.Chemscore.Rot.Weighted>
6.7271

> <Gold.Chemscore.Internal.Correction.Weighted>
   9.000000E+99

> <Gold.Protein.RotatedTorsions>
[ 6907 6896 6895 6894 ] final   88.47 input  -60.11 | X-H torsion
[ 7974 7965 7964 7962 ] final  -84.94 input  175.53 | X-H torsion
[ 8008 7997 7996 7995 ] final   -4.96 input   59.86 | X-H torsion
[ 10167 10162 10161 10158 ] final   -3.19 input  -65.29 | X-H torsion
[ 10718 10713 10712 10709 ] final -127.30 input   66.30 | X-H torsion
[ 10763 10752 10751 10750 ] final   40.23 input  -60.55 | X-H torsion
[ 11005 11000 10999 10996 ] final   38.38 input  -57.11 | X-H torsion

> <Gold.Protein.ActiveResidues>
 VAL166  LYS551  ARG553  GLY616  TRP617  ASP618  TYR619  PRO620  LYS621  CYS622 
 ASP623  PHE694  ASN695  SER759  ASP760  ASP761  ALA762  ILE779  LEU786  VAL792 
 PHE793  MET794  SER795  GLU796  ALA797  LYS798  CYS799  TRP800  GLU811  SER814 

> <Gold.Protein.RotatedAtoms>
  152.5425  134.2116  159.8751 H   0  0  0  0  0  0  0  0  0  0  0  0  # atno 6907 bound_to 6896
  151.2098  133.4555  159.2605 H   0  0  0  0  0  0  0  0  0  0  0  0  # atno 6908 bound_to 6896
  151.0908  134.9927  159.8457 H   0  0  0  0  0  0  0  0  0  0  0  0  # atno 6909 bound_to 6896
  145.4999  140.9548  143.1765 H   0  0  0  0  0  0  0  0  0  0  0  0  # atno 7974 bound_to 7965
  154.6089  140.2471  155.7695 H   0  0  0  0  0  0  0  0  0  0  0  0  # atno 8008 bound_to 7997
  156.2358  140.2950  156.0260 H   0  0  0  0  0  0  0  0  0  0  0  0  # atno 8009 bound_to 7997
  155.2085  140.0396  157.2920 H   0  0  0  0  0  0  0  0  0  0  0  0  # atno 8010 bound_to 7997
  140.6881  143.6568  150.8301 H   0  0  0  0  0  0  0  0  0  0  0  0  # atno 10167 bound_to 10162
  156.1844  130.6753  151.0345 H   0  0  0  0  0  0  0  0  0  0  0  0  # atno 10718 bound_to 10713
  152.9942  135.6197  154.2593 H   0  0  0  0  0  0  0  0  0  0  0  0  # atno 10763 bound_to 10752
  154.2329  135.2791  155.2885 H   0  0  0  0  0  0  0  0  0  0  0  0  # atno 10764 bound_to 10752
  154.5434  135.5754  153.6917 H   0  0  0  0  0  0  0  0  0  0  0  0  # atno 10765 bound_to 10752
  140.2132  134.3730  155.8039 H   0  0  0  0  0  0  0  0  0  0  0  0  # atno 11005 bound_to 11000
  144.7786  139.6575  143.7164 LP  0  0  0  0  0  0  0  0  0  0  0  0  # atno 17320 bound_to 7965
  146.2233  139.5675  142.9604 LP  0  0  0  0  0  0  0  0  0  0  0  0  # atno 17321 bound_to 7965
  140.0278  143.5475  152.2773 LP  0  0  0  0  0  0  0  0  0  0  0  0  # atno 17342 bound_to 10162
  139.6257  144.7637  151.2644 LP  0  0  0  0  0  0  0  0  0  0  0  0  # atno 17343 bound_to 10162
  157.6889  131.0816  150.7164 LP  0  0  0  0  0  0  0  0  0  0  0  0  # atno 17370 bound_to 10713
  156.7221  130.4684  149.5520 LP  0  0  0  0  0  0  0  0  0  0  0  0  # atno 17371 bound_to 10713
  141.2225  133.7154  156.8453 LP  0  0  0  0  0  0  0  0  0  0  0  0  # atno 17394 bound_to 11000
  140.1928  134.8953  157.3080 LP  0  0  0  0  0  0  0  0  0  0  0  0  # atno 17395 bound_to 11000

$$$$
