AV-unprocessed.smi:1934|AV-procd|sdf|7824|dock9
  -GOLD-   22720 9573D 1   1.00000     0.00000
 Structure written by MMmdl.
 46 47  0  0  0  0  0  0  0  0  2 V2000
  150.8883  142.1025  156.4922 C   0  0  0  0  0  0  0  0  0  0  0  0
  150.5668  140.9063  155.6454 C   0  0  0  0  0  0  0  0  0  0  0  0
  149.3694  140.6394  154.9193 C   0  0  0  0  0  0  0  0  0  0  0  0
  149.6326  139.4282  154.3402 C   0  0  0  0  0  0  0  0  0  0  0  0
  148.8448  138.6825  153.5205 N   0  0  0  0  0  0  0  0  0  0  0  0
  147.5037  138.6687  153.4275 C   0  0  0  0  0  0  0  0  0  0  0  0
  146.7317  139.3510  154.1016 O   0  0  0  0  0  0  0  0  0  0  0  0
  147.0915  137.7967  152.4959 N   0  0  0  0  0  0  0  0  0  0  0  0
  145.6984  137.5404  152.1489 C   0  0  0  0  0  0  0  0  0  0  0  0
  145.4141  136.0305  152.0294 C   0  0  0  0  0  0  0  0  0  0  0  0
  146.4951  135.2035  152.6224 N   0  3  2  0  0  0  0  0  0  0  0  0
  146.6432  133.8944  151.9350 C   0  0  0  0  0  0  0  0  0  0  0  0
  147.8655  133.1261  152.4620 C   0  0  0  0  0  0  0  0  0  0  0  0
  147.7869  132.9429  153.9839 C   0  0  0  0  0  0  0  0  0  0  0  0
  147.5725  134.2902  154.6983 C   0  0  1  0  0  0  0  0  0  0  0  0
  148.8400  135.1626  154.7220 C   0  0  0  0  0  0  0  0  0  0  0  0
  146.3637  135.0357  154.0956 C   0  0  0  0  0  0  0  0  0  0  0  0
  150.8967  139.0242  154.7079 N   0  0  0  0  0  0  0  0  0  0  0  0
  151.6213  137.8210  154.3485 C   0  0  0  0  0  0  0  0  0  0  0  0
  151.4709  139.9421  155.5151 N   0  0  0  0  0  0  0  0  0  0  0  0
  150.0596  142.8106  156.5054 H   0  0  0  0  0  0  0  0  0  0  0  0
  151.7662  142.6267  156.1140 H   0  0  0  0  0  0  0  0  0  0  0  0
  151.0918  141.8106  157.5228 H   0  0  0  0  0  0  0  0  0  0  0  0
  148.4817  141.2494  154.8474 H   0  0  0  0  0  0  0  0  0  0  0  0
  149.3404  138.0523  152.9071 H   0  0  0  0  0  0  0  0  0  0  0  0
  147.7920  137.2778  151.9861 H   0  0  0  0  0  0  0  0  0  0  0  0
  145.0395  137.9961  152.8902 H   0  0  0  0  0  0  0  0  0  0  0  0
  145.5031  138.0499  151.2064 H   0  0  0  0  0  0  0  0  0  0  0  0
  144.4576  135.7769  152.4894 H   0  0  0  0  0  0  0  0  0  0  0  0
  145.3195  135.7836  150.9710 H   0  0  0  0  0  0  0  0  0  0  0  0
  145.7362  133.3039  152.0744 H   0  0  0  0  0  0  0  0  0  0  0  0
  146.7592  134.0500  150.8617 H   0  0  0  0  0  0  0  0  0  0  0  0
  147.9290  132.1526  151.9749 H   0  0  0  0  0  0  0  0  0  0  0  0
  148.7789  133.6592  152.1965 H   0  0  0  0  0  0  0  0  0  0  0  0
  146.9558  132.2765  154.2187 H   0  0  0  0  0  0  0  0  0  0  0  0
  148.6867  132.4501  154.3543 H   0  0  0  0  0  0  0  0  0  0  0  0
  147.3336  134.0695  155.7396 H   0  0  0  0  0  0  0  0  0  0  0  0
  149.1458  135.4661  153.7208 H   0  0  0  0  0  0  0  0  0  0  0  0
  149.6747  134.6278  155.1760 H   0  0  0  0  0  0  0  0  0  0  0  0
  148.6781  136.0697  155.3048 H   0  0  0  0  0  0  0  0  0  0  0  0
  146.2598  136.0029  154.5858 H   0  0  0  0  0  0  0  0  0  0  0  0
  145.4473  134.4827  154.3088 H   0  0  0  0  0  0  0  0  0  0  0  0
  150.9839  136.9488  154.4964 H   0  0  0  0  0  0  0  0  0  0  0  0
  152.5138  137.7120  154.9663 H   0  0  0  0  0  0  0  0  0  0  0  0
  151.9180  137.8733  153.3010 H   0  0  0  0  0  0  0  0  0  0  0  0
  147.3572  135.7032  152.4578 H   0  0  0  0  0  0  0  0  0  0  0  0
  1  2  1  0  0  0  0
  1 21  1  0  0  0  0
  1 22  1  0  0  0  0
  1 23  1  0  0  0  0
  2 20  2  0  0  0  0
  2  3  1  0  0  0  0
  3  4  2  0  0  0  0
  3 24  1  0  0  0  0
  4  5  1  0  0  0  0
  4 18  1  0  0  0  0
  5  6  1  0  0  0  0
  5 25  1  0  0  0  0
  6  7  2  0  0  0  0
  6  8  1  0  0  0  0
  8  9  1  0  0  0  0
  8 26  1  0  0  0  0
  9 10  1  0  0  0  0
  9 27  1  0  0  0  0
  9 28  1  0  0  0  0
 10 11  1  0  0  0  0
 10 29  1  0  0  0  0
 10 30  1  0  0  0  0
 11 17  1  0  0  0  0
 11 12  1  0  0  0  0
 11 46  1  0  0  0  0
 12 13  1  0  0  0  0
 12 31  1  0  0  0  0
 12 32  1  0  0  0  0
 13 14  1  0  0  0  0
 13 33  1  0  0  0  0
 13 34  1  0  0  0  0
 14 15  1  0  0  0  0
 14 35  1  0  0  0  0
 14 36  1  0  0  0  0
 15 16  1  0  0  0  0
 15 17  1  0  0  0  0
 15 37  1  0  0  0  0
 16 38  1  0  0  0  0
 16 39  1  0  0  0  0
 16 40  1  0  0  0  0
 17 41  1  0  0  0  0
 17 42  1  0  0  0  0
 18 19  1  0  0  0  0
 18 20  1  0  0  0  0
 19 43  1  0  0  0  0
 19 44  1  0  0  0  0
 19 45  1  0  0  0  0
M  CHG  1  11   1
M  END
> <s_m_source_file>
AV-unprocessed.smi

> <i_m_source_file_index>
1934

> <i_lp_mmshare_version>
43012

> <i_f3d_flags>
0

> <s_epik_input>
W0NIM11jMVtjSF1jKG4objEpW0NIM10pW05IXUMoPU8pW05IXVtDSDJdW0NIMl1OMltDSDJdW0NIMl1bQ0gyXVtDQEBIXShbQ0gzXSlbQ0gyXTI=

> <s_epik_cmdline>
J2VwaWtfcHl0aG9uJywgJy1waCcsICc3LjAnLCAnLXRuJywgJzgnLCAnLW1hJywgJzIwMCcsICctbWV0YWxfYmluZGluZycsICctaW1hZScsICc8aW5maWxlLm1hZT4nLCAnLW9tYWUnLCAnPG91dGZpbGUubWFlPic=

> <r_lp_tautomer_probability>
1

> <r_epik_Ionization_Penalty>
0.00202955

> <r_epik_Ionization_Penalty_Charging>
0.00195276

> <r_epik_Ionization_Penalty_Neutral>
7.67968e-05

> <r_epik_State_Penalty>
0.00133177

> <r_epik_Charging_Adjusted_Penalty>
0.00328452

> <i_epik_Tot_Q>
1

> <i_epik_Tot_abs_Q>
1

> <r_epik_Metal_State_Penalty>
-0

> <b_epik_Metal_Only>
0

> <s_lp_Force_Field>
OPLS_2005

> <r_lp_Energy>
20.6023

> <b_lp_Chiralities_Consistent>
1

> <s_lp_Variant>
AV-unprocessed.smi:1934-2

> <Gold.Version>
5.8.1

> <Gold.Id.Protein>
6NUR|6NUR_protein|mol2

> <Gold.PLP.Fitness>
43.4137

> <Gold.PLP.PLP>
-34.0815

> <Gold.PLP.part.hbond>
-4.5669

> <Gold.PLP.part.metal>
0.0000

> <Gold.PLP.part.buried>
-1.6474

> <Gold.PLP.part.nonpolar>
-29.5177

> <Gold.PLP.part.repulsive>
0.2840

> <Gold.PLP.ligand.clash>
0.0000

> <Gold.PLP.ligand.torsion>
0.8659

> <Gold.PLP.Chemscore.Hbond>
3.6760

> <Gold.PLP.Chemscore.CHOScore>
0.0000

> <Gold.PLP.Chemscore.Metal>
0.0000

> <Gold.Chemscore.Hbonds>
donor molecule, donor type, donor heavy atom, donor atom, acceptor molecule, acceptor atom, score
      L1  H     5    25       P1  7948  0.65
      L1  H     8    26       P1  7948  1.00
      L1  H    11    46       P1  7948  2.00

> <Gold.PLP.Chemscore.Internal.Correction>
0.0359

> <Gold.Rescore>
     Score         DG    S(hbond)    S(metal)    S(lipo)     H(rot)  DE(clash)    DE(int)     intcor
     16.03     -17.84       2.65        0.00      62.40       1.48       0.17       1.64       ----

> <Gold.Chemscore.Fitness>
16.0336

> <Gold.Chemscore.DG>
-17.8412

> <Gold.Chemscore.ZeroCoef>
-5.4800

> <Gold.Chemscore.Hbond>
2.6524

> <Gold.Chemscore.Metal>
0.0000

> <Gold.Chemscore.Lipo>
62.3986

> <Gold.Chemscore.Internal_Hbond>
0.0000

> <Gold.Chemscore.DEClash>
0.1691

> <Gold.Chemscore.DEInternal>
1.6385

> <Gold.Chemscore.Rot>
1.4838

> <Gold.Chemscore.Internal.Correction>
   9.000000E+99

> <Gold.Chemscore.Hbonds>
donor molecule, donor type, donor heavy atom, donor atom, acceptor molecule, acceptor atom, score
      L1  H     5    25       P1  7948  0.60
      L1  H     8    26       P1  7948  0.93
      L1  H    11    46       P1  7948  1.00

> <Gold.Chemscore.Hbond.Weighted>
-8.8591

> <Gold.Chemscore.Metal.Weighted>
-0.0000

> <Gold.Chemscore.Lipo.Weighted>
-7.3006

> <Gold.Chemscore.Internal_Hbond.Weighted>
0.0000

> <Gold.Chemscore.DEClash.Weighted>
0.1691

> <Gold.Chemscore.DEInternal.Weighted>
1.6385

> <Gold.Chemscore.Rot.Weighted>
3.7985

> <Gold.Chemscore.Internal.Correction.Weighted>
   9.000000E+99

> <Gold.Protein.RotatedTorsions>
[ 6907 6896 6895 6894 ] final  151.83 input  -60.11 | X-H torsion
[ 7974 7965 7964 7962 ] final  -68.93 input  175.53 | X-H torsion
[ 8008 7997 7996 7995 ] final  120.03 input   59.86 | X-H torsion
[ 10167 10162 10161 10158 ] final  -49.08 input  -65.29 | X-H torsion
[ 10718 10713 10712 10709 ] final  148.43 input   66.30 | X-H torsion
[ 10763 10752 10751 10750 ] final   52.94 input  -60.55 | X-H torsion
[ 11005 11000 10999 10996 ] final  151.00 input  -57.11 | X-H torsion

> <Gold.Protein.ActiveResidues>
 VAL166  LYS551  ARG553  GLY616  TRP617  ASP618  TYR619  PRO620  LYS621  CYS622 
 ASP623  PHE694  ASN695  SER759  ASP760  ASP761  ALA762  ILE779  LEU786  VAL792 
 PHE793  MET794  SER795  GLU796  ALA797  LYS798  CYS799  TRP800  GLU811  SER814 

> <Gold.Protein.RotatedAtoms>
  152.0951  133.4221  159.4561 H   0  0  0  0  0  0  0  0  0  0  0  0  # atno 6907 bound_to 6896
  150.6863  134.2826  159.4642 H   0  0  0  0  0  0  0  0  0  0  0  0  # atno 6908 bound_to 6896
  152.0681  134.9551  160.0625 H   0  0  0  0  0  0  0  0  0  0  0  0  # atno 6909 bound_to 6896
  145.7103  140.9081  143.0684 H   0  0  0  0  0  0  0  0  0  0  0  0  # atno 7974 bound_to 7965
  156.2624  140.2840  156.1085 H   0  0  0  0  0  0  0  0  0  0  0  0  # atno 8008 bound_to 7997
  155.1283  140.0393  157.2785 H   0  0  0  0  0  0  0  0  0  0  0  0  # atno 8009 bound_to 7997
  154.6619  140.2568  155.7106 H   0  0  0  0  0  0  0  0  0  0  0  0  # atno 8010 bound_to 7997
  140.6702  143.2713  151.4163 H   0  0  0  0  0  0  0  0  0  0  0  0  # atno 10167 bound_to 10162
  157.3087  131.0884  151.1333 H   0  0  0  0  0  0  0  0  0  0  0  0  # atno 10718 bound_to 10713
  152.9792  135.5795  154.4661 H   0  0  0  0  0  0  0  0  0  0  0  0  # atno 10763 bound_to 10752
  154.4230  135.2772  155.1965 H   0  0  0  0  0  0  0  0  0  0  0  0  # atno 10764 bound_to 10752
  154.3706  135.6169  153.5791 H   0  0  0  0  0  0  0  0  0  0  0  0  # atno 10765 bound_to 10752
  140.1181  134.8881  157.2033 H   0  0  0  0  0  0  0  0  0  0  0  0  # atno 11005 bound_to 11000
  144.6944  139.9065  143.7461 LP  0  0  0  0  0  0  0  0  0  0  0  0  # atno 17320 bound_to 7965
  146.0719  139.3707  143.0518 LP  0  0  0  0  0  0  0  0  0  0  0  0  # atno 17321 bound_to 7965
  139.5967  144.1383  152.2151 LP  0  0  0  0  0  0  0  0  0  0  0  0  # atno 17342 bound_to 10162
  140.0754  144.5744  150.7161 LP  0  0  0  0  0  0  0  0  0  0  0  0  # atno 17343 bound_to 10162
  157.2663  130.6683  149.5998 LP  0  0  0  0  0  0  0  0  0  0  0  0  # atno 17370 bound_to 10713
  155.9676  130.4493  150.5652 LP  0  0  0  0  0  0  0  0  0  0  0  0  # atno 17371 bound_to 10713
  140.3002  134.3141  155.7292 LP  0  0  0  0  0  0  0  0  0  0  0  0  # atno 17394 bound_to 11000
  141.2145  133.7587  156.9629 LP  0  0  0  0  0  0  0  0  0  0  0  0  # atno 17395 bound_to 11000

$$$$
