AV-unprocessed.smi:3156|AV-procd|sdf|12035|dock3
  -GOLD-   2272017453D 1   1.00000     0.00000
 Structure written by MMmdl.
 41 42  0  0  0  0  0  0  0  0  2 V2000
  149.9044  139.7415  154.7013 C   0  0  0  0  0  0  0  0  0  0  0  0
  149.2503  141.1001  154.3909 C   0  0  2  0  0  0  0  0  0  0  0  0
  149.7959  142.1154  155.3198 N   0  3  0  0  0  0  0  0  0  0  0  0
  149.8258  141.7074  156.7395 C   0  0  0  0  0  0  0  0  0  0  0  0
  151.0898  142.2291  157.4517 C   0  0  1  0  0  0  0  0  0  0  0  0
  151.2164  143.7641  157.3765 C   0  0  0  0  0  0  0  0  0  0  0  0
  152.4371  144.2454  158.1690 C   0  0  0  0  0  0  0  0  0  0  0  0
  152.3742  143.6934  159.5968 C   0  0  0  0  0  0  0  0  0  0  0  0
  152.1857  142.1685  159.5713 C   0  0  0  0  0  0  0  0  0  0  0  0
  151.0209  141.8357  158.8212 O   0  0  0  0  0  0  0  0  0  0  0  0
  147.7009  141.0694  154.4784 C   0  0  1  0  0  0  0  0  0  0  0  0
  147.0577  142.4184  154.1028 C   0  0  0  0  0  0  0  0  0  0  0  0
  147.1244  140.0003  153.6725 N   0  0  0  0  0  0  0  0  0  0  0  0
  147.1661  139.8468  152.3020 C   0  0  0  0  0  0  0  0  0  0  0  0
  146.4946  138.6974  151.9989 C   0  0  0  0  0  0  0  0  0  0  0  0
  146.0736  138.2071  153.2661 C   0  0  0  0  0  0  0  0  0  0  0  0
  146.4519  138.9877  154.2653 N   0  0  0  0  0  0  0  0  0  0  0  0
  149.6114  138.9752  153.9831 H   0  0  0  0  0  0  0  0  0  0  0  0
  149.6310  139.3875  155.6960 H   0  0  0  0  0  0  0  0  0  0  0  0
  150.9918  139.8146  154.6621 H   0  0  0  0  0  0  0  0  0  0  0  0
  149.5304  141.3630  153.3689 H   0  0  0  0  0  0  0  0  0  0  0  0
  150.7383  142.3352  155.0305 H   0  0  0  0  0  0  0  0  0  0  0  0
  148.9231  142.0736  157.2306 H   0  0  0  0  0  0  0  0  0  0  0  0
  149.7857  140.6184  156.7926 H   0  0  0  0  0  0  0  0  0  0  0  0
  151.9778  141.7730  157.0091 H   0  0  0  0  0  0  0  0  0  0  0  0
  151.2973  144.0865  156.3378 H   0  0  0  0  0  0  0  0  0  0  0  0
  150.3160  144.2295  157.7800 H   0  0  0  0  0  0  0  0  0  0  0  0
  153.3512  143.9033  157.6821 H   0  0  0  0  0  0  0  0  0  0  0  0
  152.4775  145.3350  158.1831 H   0  0  0  0  0  0  0  0  0  0  0  0
  153.2810  143.9539  160.1432 H   0  0  0  0  0  0  0  0  0  0  0  0
  151.5426  144.1538  160.1318 H   0  0  0  0  0  0  0  0  0  0  0  0
  153.0603  141.6750  159.1447 H   0  0  0  0  0  0  0  0  0  0  0  0
  152.0712  141.7887  160.5867 H   0  0  0  0  0  0  0  0  0  0  0  0
  147.4297  140.8557  155.5136 H   0  0  0  0  0  0  0  0  0  0  0  0
  147.3660  143.2125  154.7829 H   0  0  0  0  0  0  0  0  0  0  0  0
  145.9697  142.3593  154.1498 H   0  0  0  0  0  0  0  0  0  0  0  0
  147.3292  142.7245  153.0920 H   0  0  0  0  0  0  0  0  0  0  0  0
  147.6641  140.5607  151.6624 H   0  0  0  0  0  0  0  0  0  0  0  0
  146.3305  138.2704  151.0206 H   0  0  0  0  0  0  0  0  0  0  0  0
  145.5092  137.3133  153.4881 H   0  0  0  0  0  0  0  0  0  0  0  0
  149.2341  142.9511  155.2416 H   0  0  0  0  0  0  0  0  0  0  0  0
  1  2  1  0  0  0  0
  1 18  1  0  0  0  0
  1 19  1  0  0  0  0
  1 20  1  0  0  0  0
  2  3  1  0  0  0  0
  2 11  1  0  0  0  0
  2 21  1  0  0  0  0
  3  4  1  0  0  0  0
  3 22  1  0  0  0  0
  3 41  1  0  0  0  0
  4  5  1  0  0  0  0
  4 23  1  0  0  0  0
  4 24  1  0  0  0  0
  5 10  1  0  0  0  0
  5  6  1  0  0  0  0
  5 25  1  0  0  0  0
  6  7  1  0  0  0  0
  6 26  1  0  0  0  0
  6 27  1  0  0  0  0
  7  8  1  0  0  0  0
  7 28  1  0  0  0  0
  7 29  1  0  0  0  0
  8  9  1  0  0  0  0
  8 30  1  0  0  0  0
  8 31  1  0  0  0  0
  9 10  1  0  0  0  0
  9 32  1  0  0  0  0
  9 33  1  0  0  0  0
 11 12  1  0  0  0  0
 11 13  1  0  0  0  0
 11 34  1  0  0  0  0
 12 35  1  0  0  0  0
 12 36  1  0  0  0  0
 12 37  1  0  0  0  0
 13 17  1  0  0  0  0
 13 14  1  0  0  0  0
 14 15  2  0  0  0  0
 14 38  1  0  0  0  0
 15 16  1  0  0  0  0
 15 39  1  0  0  0  0
 16 17  2  0  0  0  0
 16 40  1  0  0  0  0
M  CHG  1   3   1
M  END
> <s_m_source_file>
AV-unprocessed.smi

> <i_m_source_file_index>
3156

> <i_lp_mmshare_version>
43012

> <i_f3d_flags>
0

> <s_epik_input>
bjFbY0hdW2NIXVtjSF1uMVtDQEBIXShbQ0gzXSlbQ0BIXShbQ0gzXSlbTkhdW0NIMl1bQ0BASF0yW0NIMl1bQ0gyXVtDSDJdW0NIMl1PMg==

> <s_epik_cmdline>
J2VwaWtfcHl0aG9uJywgJy1waCcsICc3LjAnLCAnLXRuJywgJzgnLCAnLW1hJywgJzIwMCcsICctbWV0YWxfYmluZGluZycsICctaW1hZScsICc8aW5maWxlLm1hZT4nLCAnLW9tYWUnLCAnPG91dGZpbGUubWFlPic=

> <r_lp_tautomer_probability>
1

> <r_epik_Ionization_Penalty>
0.00658015

> <r_epik_Ionization_Penalty_Charging>
0.00656881

> <r_epik_Ionization_Penalty_Neutral>
1.13431e-05

> <r_epik_State_Penalty>
0.0048654

> <r_epik_Charging_Adjusted_Penalty>
0.0114342

> <i_epik_Tot_Q>
1

> <i_epik_Tot_abs_Q>
1

> <r_epik_Metal_State_Penalty>
-0

> <b_epik_Metal_Only>
0

> <s_lp_Force_Field>
OPLS_2005

> <r_lp_Energy>
21.7915

> <b_lp_Chiralities_Consistent>
1

> <s_lp_Variant>
AV-unprocessed.smi:3156-7

> <Gold.Version>
5.8.1

> <Gold.Id.Protein>
6NUR|6NUR_protein|mol2

> <Gold.PLP.Fitness>
46.0548

> <Gold.PLP.PLP>
-38.7081

> <Gold.PLP.part.hbond>
-1.0000

> <Gold.PLP.part.metal>
0.0000

> <Gold.PLP.part.buried>
1.2925

> <Gold.PLP.part.nonpolar>
-39.9972

> <Gold.PLP.part.repulsive>
0.3299

> <Gold.PLP.ligand.clash>
0.0000

> <Gold.PLP.ligand.torsion>
0.4210

> <Gold.PLP.Chemscore.Hbond>
2.0000

> <Gold.PLP.Chemscore.CHOScore>
0.7015

> <Gold.PLP.Chemscore.Metal>
0.0000

> <Gold.Chemscore.Hbonds>
donor molecule, donor type, donor heavy atom, donor atom, acceptor molecule, acceptor atom, score
      L1  H     3    41       P1  8028  2.00
      L1  C    14    38       P1  7957  0.70

> <Gold.PLP.Chemscore.Internal.Correction>
0.0842

> <Gold.Rescore>
     Score         DG    S(hbond)    S(metal)    S(lipo)     H(rot)  DE(clash)    DE(int)     intcor
     16.70     -18.10       0.98        0.00     114.75       1.59       0.94       0.46       ----

> <Gold.Chemscore.Fitness>
16.6971

> <Gold.Chemscore.DG>
-18.1007

> <Gold.Chemscore.ZeroCoef>
-5.4800

> <Gold.Chemscore.Hbond>
0.9807

> <Gold.Chemscore.Metal>
0.0000

> <Gold.Chemscore.Lipo>
114.7475

> <Gold.Chemscore.Internal_Hbond>
0.0000

> <Gold.Chemscore.DEClash>
0.9397

> <Gold.Chemscore.DEInternal>
0.4639

> <Gold.Chemscore.Rot>
1.5938

> <Gold.Chemscore.Internal.Correction>
   9.000000E+99

> <Gold.Chemscore.Hbonds>
donor molecule, donor type, donor heavy atom, donor atom, acceptor molecule, acceptor atom, score
      L1  H     3    41       P1  8028  0.96

> <Gold.Chemscore.Hbond.Weighted>
-3.2755

> <Gold.Chemscore.Metal.Weighted>
-0.0000

> <Gold.Chemscore.Lipo.Weighted>
-13.4255

> <Gold.Chemscore.Internal_Hbond.Weighted>
0.0000

> <Gold.Chemscore.DEClash.Weighted>
0.9397

> <Gold.Chemscore.DEInternal.Weighted>
0.4639

> <Gold.Chemscore.Rot.Weighted>
4.0802

> <Gold.Chemscore.Internal.Correction.Weighted>
   9.000000E+99

> <Gold.Protein.RotatedTorsions>
[ 6907 6896 6895 6894 ] final  -58.75 input  -60.11 | X-H torsion
[ 7974 7965 7964 7962 ] final   31.01 input  175.53 | X-H torsion
[ 8008 7997 7996 7995 ] final    1.40 input   59.86 | X-H torsion
[ 10167 10162 10161 10158 ] final   90.23 input  -65.29 | X-H torsion
[ 10718 10713 10712 10709 ] final  100.55 input   66.30 | X-H torsion
[ 10763 10752 10751 10750 ] final   -5.02 input  -60.55 | X-H torsion
[ 11005 11000 10999 10996 ] final  -12.69 input  -57.11 | X-H torsion

> <Gold.Protein.ActiveResidues>
 VAL166  LYS551  ARG553  GLY616  TRP617  ASP618  TYR619  PRO620  LYS621  CYS622 
 ASP623  PHE694  ASN695  SER759  ASP760  ASP761  ALA762  ILE779  LEU786  VAL792 
 PHE793  MET794  SER795  GLU796  ALA797  LYS798  CYS799  TRP800  GLU811  SER814 

> <Gold.Protein.RotatedAtoms>
  150.7982  134.7057  159.6575 H   0  0  0  0  0  0  0  0  0  0  0  0  # atno 6907 bound_to 6896
  152.4097  134.6143  160.0043 H   0  0  0  0  0  0  0  0  0  0  0  0  # atno 6908 bound_to 6896
  151.6389  133.3290  159.3162 H   0  0  0  0  0  0  0  0  0  0  0  0  # atno 6909 bound_to 6896
  146.1577  139.6713  142.9055 H   0  0  0  0  0  0  0  0  0  0  0  0  # atno 7974 bound_to 7965
  154.6793  140.2629  155.6925 H   0  0  0  0  0  0  0  0  0  0  0  0  # atno 8008 bound_to 7997
  156.2690  140.2813  156.1254 H   0  0  0  0  0  0  0  0  0  0  0  0  # atno 8009 bound_to 7997
  155.1055  140.0375  157.2699 H   0  0  0  0  0  0  0  0  0  0  0  0  # atno 8010 bound_to 7997
  139.8494  144.6601  150.9188 H   0  0  0  0  0  0  0  0  0  0  0  0  # atno 10167 bound_to 10162
  157.6851  131.0701  150.5118 H   0  0  0  0  0  0  0  0  0  0  0  0  # atno 10718 bound_to 10713
  153.3928  135.7002  153.6482 H   0  0  0  0  0  0  0  0  0  0  0  0  # atno 10763 bound_to 10752
  153.5048  135.3644  155.2558 H   0  0  0  0  0  0  0  0  0  0  0  0  # atno 10764 bound_to 10752
  154.8704  135.4120  154.3248 H   0  0  0  0  0  0  0  0  0  0  0  0  # atno 10765 bound_to 10752
  140.7683  133.8459  155.9185 H   0  0  0  0  0  0  0  0  0  0  0  0  # atno 11005 bound_to 11000
  145.4667  141.0435  143.2721 LP  0  0  0  0  0  0  0  0  0  0  0  0  # atno 17320 bound_to 7965
  144.7985  139.6187  143.7082 LP  0  0  0  0  0  0  0  0  0  0  0  0  # atno 17321 bound_to 7965
  140.7789  143.3841  151.1425 LP  0  0  0  0  0  0  0  0  0  0  0  0  # atno 17342 bound_to 10162
  139.7480  143.8822  152.3069 LP  0  0  0  0  0  0  0  0  0  0  0  0  # atno 17343 bound_to 10162
  156.5435  130.4214  149.6142 LP  0  0  0  0  0  0  0  0  0  0  0  0  # atno 17370 bound_to 10713
  156.2965  130.7153  151.2014 LP  0  0  0  0  0  0  0  0  0  0  0  0  # atno 17371 bound_to 10713
  140.9598  134.1671  157.4663 LP  0  0  0  0  0  0  0  0  0  0  0  0  # atno 17394 bound_to 11000
  139.8760  134.9940  156.5674 LP  0  0  0  0  0  0  0  0  0  0  0  0  # atno 17395 bound_to 11000

$$$$
