AV-unprocessed.smi:3181|AV-procd|sdf|12141|dock4
  -GOLD-   2272017583D 1   1.00000     0.00000
 Structure written by MMmdl.
 42 43  0  0  0  0  0  0  0  0  2 V2000
  151.3253  139.3186  155.1319 C   0  0  0  0  0  0  0  0  0  0  0  0
  150.9707  140.2944  156.2666 C   0  0  2  0  0  0  0  0  0  0  0  0
  150.3690  141.6232  155.7530 C   0  0  0  0  0  0  0  0  0  0  0  0
  149.0684  141.4540  155.1316 N   0  0  0  0  0  0  0  0  0  0  0  0
  148.7231  140.8412  153.9981 C   0  0  0  0  0  0  0  0  0  0  0  0
  147.4238  140.8865  153.7400 N   0  0  0  0  0  0  0  0  0  0  0  0
  146.9975  141.5867  154.8332 C   0  0  0  0  0  0  0  0  0  0  0  0
  147.9440  141.9492  155.6996 N   0  0  0  0  0  0  0  0  0  0  0  0
  152.1750  140.5302  157.0967 N   0  3  0  0  0  0  0  0  0  0  0  0
  151.9533  141.2101  158.3932 C   0  0  1  0  0  0  0  0  0  0  0  0
  153.1531  140.9735  159.3221 C   0  0  0  0  0  0  0  0  0  0  0  0
  152.9533  141.6839  160.6680 C   0  0  0  0  0  0  0  0  0  0  0  0
  152.7175  143.1985  160.4951 C   0  0  2  0  0  0  0  0  0  0  0  0
  152.5238  143.8563  161.8731 C   0  0  0  0  0  0  0  0  0  0  0  0
  151.5343  143.4644  159.5261 C   0  0  1  0  0  0  0  0  0  0  0  0
  151.3045  144.9627  159.2599 C   0  0  0  0  0  0  0  0  0  0  0  0
  151.7456  142.7223  158.1898 C   0  0  0  0  0  0  0  0  0  0  0  0
  150.4424  139.0196  154.5663 H   0  0  0  0  0  0  0  0  0  0  0  0
  151.7753  138.4067  155.5259 H   0  0  0  0  0  0  0  0  0  0  0  0
  152.0341  139.7639  154.4331 H   0  0  0  0  0  0  0  0  0  0  0  0
  150.2301  139.7964  156.8944 H   0  0  0  0  0  0  0  0  0  0  0  0
  150.2469  142.3315  156.5726 H   0  0  0  0  0  0  0  0  0  0  0  0
  151.0427  142.0920  155.0334 H   0  0  0  0  0  0  0  0  0  0  0  0
  149.4356  140.3549  153.3480 H   0  0  0  0  0  0  0  0  0  0  0  0
  145.9593  141.8372  154.9948 H   0  0  0  0  0  0  0  0  0  0  0  0
  152.5647  139.6224  157.3070 H   0  0  0  0  0  0  0  0  0  0  0  0
  151.0686  140.7912  158.8762 H   0  0  0  0  0  0  0  0  0  0  0  0
  153.2914  139.9046  159.4908 H   0  0  0  0  0  0  0  0  0  0  0  0
  154.0692  141.3344  158.8518 H   0  0  0  0  0  0  0  0  0  0  0  0
  152.1071  141.2364  161.1914 H   0  0  0  0  0  0  0  0  0  0  0  0
  153.8272  141.5131  161.2980 H   0  0  0  0  0  0  0  0  0  0  0  0
  153.6196  143.6243  160.0528 H   0  0  0  0  0  0  0  0  0  0  0  0
  151.5963  143.5280  162.3435 H   0  0  0  0  0  0  0  0  0  0  0  0
  152.4992  144.9434  161.8040 H   0  0  0  0  0  0  0  0  0  0  0  0
  153.3432  143.6021  162.5460 H   0  0  0  0  0  0  0  0  0  0  0  0
  150.6254  143.0698  159.9830 H   0  0  0  0  0  0  0  0  0  0  0  0
  152.2037  145.4386  158.8671 H   0  0  0  0  0  0  0  0  0  0  0  0
  151.0106  145.4948  160.1642 H   0  0  0  0  0  0  0  0  0  0  0  0
  150.5061  145.1139  158.5328 H   0  0  0  0  0  0  0  0  0  0  0  0
  152.6094  143.1435  157.6726 H   0  0  0  0  0  0  0  0  0  0  0  0
  150.8893  142.8974  157.5387 H   0  0  0  0  0  0  0  0  0  0  0  0
  152.8579  141.0479  156.5618 H   0  0  0  0  0  0  0  0  0  0  0  0
  1  2  1  0  0  0  0
  1 18  1  0  0  0  0
  1 19  1  0  0  0  0
  1 20  1  0  0  0  0
  2  3  1  0  0  0  0
  2  9  1  0  0  0  0
  2 21  1  0  0  0  0
  3  4  1  0  0  0  0
  3 22  1  0  0  0  0
  3 23  1  0  0  0  0
  4  8  1  0  0  0  0
  4  5  1  0  0  0  0
  5  6  2  0  0  0  0
  5 24  1  0  0  0  0
  6  7  1  0  0  0  0
  7  8  2  0  0  0  0
  7 25  1  0  0  0  0
  9 10  1  0  0  0  0
  9 26  1  0  0  0  0
  9 42  1  0  0  0  0
 10 17  1  0  0  0  0
 10 11  1  0  0  0  0
 10 27  1  0  0  0  0
 11 12  1  0  0  0  0
 11 28  1  0  0  0  0
 11 29  1  0  0  0  0
 12 13  1  0  0  0  0
 12 30  1  0  0  0  0
 12 31  1  0  0  0  0
 13 14  1  0  0  0  0
 13 15  1  0  0  0  0
 13 32  1  0  0  0  0
 14 33  1  0  0  0  0
 14 34  1  0  0  0  0
 14 35  1  0  0  0  0
 15 16  1  0  0  0  0
 15 17  1  0  0  0  0
 15 36  1  0  0  0  0
 16 37  1  0  0  0  0
 16 38  1  0  0  0  0
 16 39  1  0  0  0  0
 17 40  1  0  0  0  0
 17 41  1  0  0  0  0
M  CHG  1   9   1
M  END
> <s_m_source_file>
AV-unprocessed.smi

> <i_m_source_file_index>
3181

> <i_lp_mmshare_version>
43012

> <i_f3d_flags>
0

> <s_epik_input>
bjFbY0hdbltjSF1uMVtDSDJdW0NAQEhdKFtDSDNdKVtOSF1bQ0BASF0yW0NIMl1bQ0gyXVtDQEBIXShbQ0gzXSlbQ0BASF0oW0NIM10pW0NIMl0y

> <s_epik_cmdline>
J2VwaWtfcHl0aG9uJywgJy1waCcsICc3LjAnLCAnLXRuJywgJzgnLCAnLW1hJywgJzIwMCcsICctbWV0YWxfYmluZGluZycsICctaW1hZScsICc8aW5maWxlLm1hZT4nLCAnLW9tYWUnLCAnPG91dGZpbGUubWFlPic=

> <r_lp_tautomer_probability>
1

> <r_epik_Ionization_Penalty>
0.000617007

> <r_epik_Ionization_Penalty_Charging>
0.000616215

> <r_epik_Ionization_Penalty_Neutral>
7.92544e-07

> <r_epik_State_Penalty>
0.000388807

> <r_epik_Charging_Adjusted_Penalty>
0.00100502

> <i_epik_Tot_Q>
1

> <i_epik_Tot_abs_Q>
1

> <r_epik_Metal_State_Penalty>
-0

> <b_epik_Metal_Only>
0

> <s_lp_Force_Field>
OPLS_2005

> <r_lp_Energy>
19.8131

> <b_lp_Chiralities_Consistent>
1

> <s_lp_Variant>
AV-unprocessed.smi:3181-7

> <Gold.Version>
5.8.1

> <Gold.Id.Protein>
6NUR|6NUR_protein|mol2

> <Gold.PLP.Fitness>
41.6193

> <Gold.PLP.PLP>
-39.1889

> <Gold.PLP.part.hbond>
0.0000

> <Gold.PLP.part.metal>
0.0000

> <Gold.PLP.part.buried>
-3.5183

> <Gold.PLP.part.nonpolar>
-36.1798

> <Gold.PLP.part.repulsive>
1.6199

> <Gold.PLP.ligand.clash>
0.0000

> <Gold.PLP.ligand.torsion>
0.3022

> <Gold.PLP.Chemscore.Hbond>
0.0000

> <Gold.PLP.Chemscore.CHOScore>
1.0000

> <Gold.PLP.Chemscore.Metal>
0.0000

> <Gold.Chemscore.Hbonds>
donor molecule, donor type, donor heavy atom, donor atom, acceptor molecule, acceptor atom, score
      L1  C     5    24       P1  7957  1.00

> <Gold.PLP.Chemscore.Internal.Correction>
0.0347

> <Gold.Rescore>
     Score         DG    S(hbond)    S(metal)    S(lipo)     H(rot)  DE(clash)    DE(int)     intcor
     11.70     -12.22       0.00        0.00     103.80       2.11       0.03       0.49       ----

> <Gold.Chemscore.Fitness>
11.7044

> <Gold.Chemscore.DG>
-12.2247

> <Gold.Chemscore.ZeroCoef>
-5.4800

> <Gold.Chemscore.Hbond>
0.0000

> <Gold.Chemscore.Metal>
0.0000

> <Gold.Chemscore.Lipo>
103.8037

> <Gold.Chemscore.Internal_Hbond>
0.0000

> <Gold.Chemscore.DEClash>
0.0323

> <Gold.Chemscore.DEInternal>
0.4881

> <Gold.Chemscore.Rot>
2.1095

> <Gold.Chemscore.Internal.Correction>
   9.000000E+99

> <Gold.Chemscore.Hbond.Weighted>
-0.0000

> <Gold.Chemscore.Metal.Weighted>
-0.0000

> <Gold.Chemscore.Lipo.Weighted>
-12.1450

> <Gold.Chemscore.Internal_Hbond.Weighted>
0.0000

> <Gold.Chemscore.DEClash.Weighted>
0.0323

> <Gold.Chemscore.DEInternal.Weighted>
0.4881

> <Gold.Chemscore.Rot.Weighted>
5.4003

> <Gold.Chemscore.Internal.Correction.Weighted>
   9.000000E+99

> <Gold.Protein.RotatedTorsions>
[ 6907 6896 6895 6894 ] final   51.59 input  -60.11 | X-H torsion
[ 7974 7965 7964 7962 ] final  -34.29 input  175.53 | X-H torsion
[ 8008 7997 7996 7995 ] final  -38.45 input   59.86 | X-H torsion
[ 10167 10162 10161 10158 ] final  112.05 input  -65.29 | X-H torsion
[ 10718 10713 10712 10709 ] final -114.39 input   66.30 | X-H torsion
[ 10763 10752 10751 10750 ] final   -6.69 input  -60.55 | X-H torsion
[ 11005 11000 10999 10996 ] final -140.99 input  -57.11 | X-H torsion

> <Gold.Protein.ActiveResidues>
 VAL166  LYS551  ARG553  GLY616  TRP617  ASP618  TYR619  PRO620  LYS621  CYS622 
 ASP623  PHE694  ASN695  SER759  ASP760  ASP761  ALA762  ILE779  LEU786  VAL792 
 PHE793  MET794  SER795  GLU796  ALA797  LYS798  CYS799  TRP800  GLU811  SER814 

> <Gold.Protein.RotatedAtoms>
  152.3143  134.7459  160.0328 H   0  0  0  0  0  0  0  0  0  0  0  0  # atno 6907 bound_to 6896
  151.7929  133.3356  159.3512 H   0  0  0  0  0  0  0  0  0  0  0  0  # atno 6908 bound_to 6896
  150.7336  134.5756  159.5957 H   0  0  0  0  0  0  0  0  0  0  0  0  # atno 6909 bound_to 6896
  146.0841  140.6021  142.8894 H   0  0  0  0  0  0  0  0  0  0  0  0  # atno 7974 bound_to 7965
  154.4037  140.1577  156.2701 H   0  0  0  0  0  0  0  0  0  0  0  0  # atno 8008 bound_to 7997
  155.8961  140.3436  155.5969 H   0  0  0  0  0  0  0  0  0  0  0  0  # atno 8009 bound_to 7997
  155.7503  140.0804  157.2195 H   0  0  0  0  0  0  0  0  0  0  0  0  # atno 8010 bound_to 7997
  139.6565  144.7129  151.1947 H   0  0  0  0  0  0  0  0  0  0  0  0  # atno 10167 bound_to 10162
  156.0827  130.6024  150.8768 H   0  0  0  0  0  0  0  0  0  0  0  0  # atno 10718 bound_to 10713
  153.4159  135.7009  153.6327 H   0  0  0  0  0  0  0  0  0  0  0  0  # atno 10763 bound_to 10752
  153.4802  135.3695  155.2438 H   0  0  0  0  0  0  0  0  0  0  0  0  # atno 10764 bound_to 10752
  154.8719  135.4064  154.3519 H   0  0  0  0  0  0  0  0  0  0  0  0  # atno 10765 bound_to 10752
  140.8368  134.2450  157.4830 H   0  0  0  0  0  0  0  0  0  0  0  0  # atno 11005 bound_to 11000
  144.7314  140.4681  143.6935 LP  0  0  0  0  0  0  0  0  0  0  0  0  # atno 17320 bound_to 7965
  145.6162  139.1519  143.3048 LP  0  0  0  0  0  0  0  0  0  0  0  0  # atno 17321 bound_to 7965
  140.7561  143.6064  150.8648 LP  0  0  0  0  0  0  0  0  0  0  0  0  # atno 17342 bound_to 10162
  139.9718  143.6049  152.2971 LP  0  0  0  0  0  0  0  0  0  0  0  0  # atno 17343 bound_to 10162
  157.5950  131.0943  150.9057 LP  0  0  0  0  0  0  0  0  0  0  0  0  # atno 17370 bound_to 10713
  156.9225  130.5320  149.5279 LP  0  0  0  0  0  0  0  0  0  0  0  0  # atno 17371 bound_to 10713
  139.8704  134.9615  156.4397 LP  0  0  0  0  0  0  0  0  0  0  0  0  # atno 17394 bound_to 11000
  140.8939  133.7828  155.9602 LP  0  0  0  0  0  0  0  0  0  0  0  0  # atno 17395 bound_to 11000

$$$$
