AV-unprocessed.smi:1122|AV-procd|sdf|4827|dock3
  -GOLD-   22720 3393D 1   1.00000     0.00000
 Structure written by MMmdl.
 38 39  0  0  0  0  0  0  0  0  1 V2000
  151.7879  138.7093  156.0232 C   0  0  0  0  0  0  0  0  0  0  0  0
  151.6626  138.2865  154.5577 C   0  0  0  0  0  0  0  0  0  0  0  0
  150.2807  138.2059  154.2227 O   0  0  0  0  0  0  0  0  0  0  0  0
  149.5174  139.3571  154.2689 C   0  0  0  0  0  0  0  0  0  0  0  0
  150.0688  140.4775  154.7991 N   0  0  0  0  0  0  0  0  0  0  0  0
  149.3264  141.6030  154.8377 C   0  0  0  0  0  0  0  0  0  0  0  0
  148.0091  141.6741  154.3488 C   0  0  0  0  0  0  0  0  0  0  0  0
  147.4340  140.5129  153.8004 C   0  0  0  0  0  0  0  0  0  0  0  0
  148.1956  139.3198  153.7671 C   0  0  0  0  0  0  0  0  0  0  0  0
  147.7183  138.0988  153.2165 N   0  0  0  0  0  0  0  0  0  0  0  0
  146.4488  137.6733  153.1073 C   0  0  0  0  0  0  0  0  0  0  0  0
  145.4571  138.2875  153.5001 O   0  0  0  0  0  0  0  0  0  0  0  0
  146.3920  136.4686  152.5226 N   0  0  0  0  0  0  0  0  0  0  0  0
  145.1723  135.7132  152.2552 C   0  0  0  0  0  0  0  0  0  0  0  0
  145.4271  134.5354  151.2988 C   0  0  2  0  0  0  0  0  0  0  0  0
  144.1875  133.7304  150.9083 C   0  0  0  0  0  0  0  0  0  0  0  0
  144.7514  132.3662  150.5436 C   0  0  0  0  0  0  0  0  0  0  0  0
  146.1647  132.3749  151.1348 C   0  0  0  0  0  0  0  0  0  0  0  0
  146.2350  133.5533  151.9261 O   0  0  0  0  0  0  0  0  0  0  0  0
  152.8346  138.7854  156.3181 H   0  0  0  0  0  0  0  0  0  0  0  0
  151.3066  137.9863  156.6820 H   0  0  0  0  0  0  0  0  0  0  0  0
  151.3212  139.6801  156.1923 H   0  0  0  0  0  0  0  0  0  0  0  0
  152.1660  139.0161  153.9215 H   0  0  0  0  0  0  0  0  0  0  0  0
  152.1478  137.3196  154.4137 H   0  0  0  0  0  0  0  0  0  0  0  0
  149.7992  142.4748  155.2649 H   0  0  0  0  0  0  0  0  0  0  0  0
  147.4542  142.5998  154.3889 H   0  0  0  0  0  0  0  0  0  0  0  0
  146.4317  140.5632  153.4041 H   0  0  0  0  0  0  0  0  0  0  0  0
  148.4334  137.4438  152.9357 H   0  0  0  0  0  0  0  0  0  0  0  0
  147.2603  136.0395  152.2377 H   0  0  0  0  0  0  0  0  0  0  0  0
  144.8083  135.3303  153.2088 H   0  0  0  0  0  0  0  0  0  0  0  0
  144.3851  136.3624  151.8682 H   0  0  0  0  0  0  0  0  0  0  0  0
  145.9433  134.8846  150.4023 H   0  0  0  0  0  0  0  0  0  0  0  0
  143.5194  133.6292  151.7648 H   0  0  0  0  0  0  0  0  0  0  0  0
  143.6248  134.1893  150.0949 H   0  0  0  0  0  0  0  0  0  0  0  0
  144.1410  131.5662  150.9639 H   0  0  0  0  0  0  0  0  0  0  0  0
  144.7894  132.2273  149.4625 H   0  0  0  0  0  0  0  0  0  0  0  0
  146.3730  131.4886  151.7344 H   0  0  0  0  0  0  0  0  0  0  0  0
  146.9107  132.4312  150.3410 H   0  0  0  0  0  0  0  0  0  0  0  0
  1  2  1  0  0  0  0
  1 20  1  0  0  0  0
  1 21  1  0  0  0  0
  1 22  1  0  0  0  0
  2  3  1  0  0  0  0
  2 23  1  0  0  0  0
  2 24  1  0  0  0  0
  3  4  1  0  0  0  0
  4  9  1  0  0  0  0
  4  5  2  0  0  0  0
  5  6  1  0  0  0  0
  6  7  2  0  0  0  0
  6 25  1  0  0  0  0
  7  8  1  0  0  0  0
  7 26  1  0  0  0  0
  8  9  2  0  0  0  0
  8 27  1  0  0  0  0
  9 10  1  0  0  0  0
 10 11  1  0  0  0  0
 10 28  1  0  0  0  0
 11 12  2  0  0  0  0
 11 13  1  0  0  0  0
 13 14  1  0  0  0  0
 13 29  1  0  0  0  0
 14 15  1  0  0  0  0
 14 30  1  0  0  0  0
 14 31  1  0  0  0  0
 15 19  1  0  0  0  0
 15 16  1  0  0  0  0
 15 32  1  0  0  0  0
 16 17  1  0  0  0  0
 16 33  1  0  0  0  0
 16 34  1  0  0  0  0
 17 18  1  0  0  0  0
 17 35  1  0  0  0  0
 17 36  1  0  0  0  0
 18 19  1  0  0  0  0
 18 37  1  0  0  0  0
 18 38  1  0  0  0  0
M  END
> <s_m_source_file>
AV-unprocessed.smi

> <i_m_source_file_index>
1122

> <i_lp_mmshare_version>
43012

> <i_f3d_flags>
0

> <s_epik_input>
W0NIM11bQ0gyXU9jMW5bY0hdW2NIXVtjSF1jMVtOSF1DKD1PKVtOSF1bQ0gyXVtDQEBIXTJbQ0gyXVtDSDJdW0NIMl1PMg==

> <s_epik_cmdline>
J2VwaWtfcHl0aG9uJywgJy1waCcsICc3LjAnLCAnLXRuJywgJzgnLCAnLW1hJywgJzIwMCcsICctbWV0YWxfYmluZGluZycsICctaW1hZScsICc8aW5maWxlLm1hZT4nLCAnLW9tYWUnLCAnPG91dGZpbGUubWFlPic=

> <r_lp_tautomer_probability>
1

> <r_epik_Ionization_Penalty>
0.000110193

> <r_epik_Ionization_Penalty_Charging>
0

> <r_epik_Ionization_Penalty_Neutral>
0.000110193

> <r_epik_State_Penalty>
-0

> <r_epik_Charging_Adjusted_Penalty>
0

> <i_epik_Tot_Q>
0

> <i_epik_Tot_abs_Q>
0

> <r_epik_Metal_State_Penalty>
-0

> <b_epik_Metal_Only>
0

> <s_lp_Force_Field>
OPLS_2005

> <r_lp_Energy>
19.6707

> <b_lp_Chiralities_Consistent>
1

> <s_lp_Variant>
AV-unprocessed.smi:1122-1

> <Gold.Version>
5.8.1

> <Gold.Id.Protein>
6NUR|6NUR_protein|mol2

> <Gold.PLP.Fitness>
43.6680

> <Gold.PLP.PLP>
-32.5496

> <Gold.PLP.part.hbond>
-3.0251

> <Gold.PLP.part.metal>
0.0000

> <Gold.PLP.part.buried>
-2.6286

> <Gold.PLP.part.nonpolar>
-27.9468

> <Gold.PLP.part.repulsive>
1.5212

> <Gold.PLP.ligand.clash>
0.0000

> <Gold.PLP.ligand.torsion>
0.3075

> <Gold.PLP.Chemscore.Hbond>
2.9200

> <Gold.PLP.Chemscore.CHOScore>
0.9825

> <Gold.PLP.Chemscore.Metal>
0.0000

> <Gold.Chemscore.Hbonds>
donor molecule, donor type, donor heavy atom, donor atom, acceptor molecule, acceptor atom, score
      L1  H    10    28       P1  7948  0.98
      L1  H    13    29       P1  7948  0.98
      P1  H  7989  7998       L1     5  0.86
      L1  C     6    25       P1  8028  0.99

> <Gold.PLP.Chemscore.Internal.Correction>
0.0257

> <Gold.Rescore>
     Score         DG    S(hbond)    S(metal)    S(lipo)     H(rot)  DE(clash)    DE(int)     intcor
     14.35     -17.50       2.25        0.00      73.78       1.61       0.53       2.61       ----

> <Gold.Chemscore.Fitness>
14.3535

> <Gold.Chemscore.DG>
-17.5004

> <Gold.Chemscore.ZeroCoef>
-5.4800

> <Gold.Chemscore.Hbond>
2.2510

> <Gold.Chemscore.Metal>
0.0000

> <Gold.Chemscore.Lipo>
73.7760

> <Gold.Chemscore.Internal_Hbond>
0.0000

> <Gold.Chemscore.DEClash>
0.5349

> <Gold.Chemscore.DEInternal>
2.6120

> <Gold.Chemscore.Rot>
1.6131

> <Gold.Chemscore.Internal.Correction>
   9.000000E+99

> <Gold.Chemscore.Hbonds>
donor molecule, donor type, donor heavy atom, donor atom, acceptor molecule, acceptor atom, score
      L1  H    10    28       P1  7948  0.93
      L1  H    13    29       P1  7948  0.93
      P1  H  7989  7998       L1     5  0.16

> <Gold.Chemscore.Hbond.Weighted>
-7.5182

> <Gold.Chemscore.Metal.Weighted>
-0.0000

> <Gold.Chemscore.Lipo.Weighted>
-8.6318

> <Gold.Chemscore.Internal_Hbond.Weighted>
0.0000

> <Gold.Chemscore.DEClash.Weighted>
0.5349

> <Gold.Chemscore.DEInternal.Weighted>
2.6120

> <Gold.Chemscore.Rot.Weighted>
4.1296

> <Gold.Chemscore.Internal.Correction.Weighted>
   9.000000E+99

> <Gold.Protein.RotatedTorsions>
[ 6907 6896 6895 6894 ] final -160.15 input  -60.11 | X-H torsion
[ 7974 7965 7964 7962 ] final   36.10 input  175.53 | X-H torsion
[ 8008 7997 7996 7995 ] final -160.14 input   59.86 | X-H torsion
[ 10167 10162 10161 10158 ] final -142.63 input  -65.29 | X-H torsion
[ 10718 10713 10712 10709 ] final  142.81 input   66.30 | X-H torsion
[ 10763 10752 10751 10750 ] final -170.49 input  -60.55 | X-H torsion
[ 11005 11000 10999 10996 ] final -150.16 input  -57.11 | X-H torsion

> <Gold.Protein.ActiveResidues>
 VAL166  LYS551  ARG553  GLY616  TRP617  ASP618  TYR619  PRO620  LYS621  CYS622 
 ASP623  PHE694  ASN695  SER759  ASP760  ASP761  ALA762  ILE779  LEU786  VAL792 
 PHE793  MET794  SER795  GLU796  ALA797  LYS798  CYS799  TRP800  GLU811  SER814 

> <Gold.Protein.RotatedAtoms>
  151.3446  133.3949  159.2674 H   0  0  0  0  0  0  0  0  0  0  0  0  # atno 6907 bound_to 6896
  150.9850  134.9198  159.7877 H   0  0  0  0  0  0  0  0  0  0  0  0  # atno 6908 bound_to 6896
  152.5229  134.3410  159.9269 H   0  0  0  0  0  0  0  0  0  0  0  0  # atno 6909 bound_to 6896
  146.1235  139.6059  142.9274 H   0  0  0  0  0  0  0  0  0  0  0  0  # atno 7974 bound_to 7965
  155.7730  140.0854  157.2098 H   0  0  0  0  0  0  0  0  0  0  0  0  # atno 8008 bound_to 7997
  154.3995  140.1522  156.3021 H   0  0  0  0  0  0  0  0  0  0  0  0  # atno 8009 bound_to 7997
  155.8729  140.3424  155.5836 H   0  0  0  0  0  0  0  0  0  0  0  0  # atno 8010 bound_to 7997
  139.8070  143.7755  152.2661 H   0  0  0  0  0  0  0  0  0  0  0  0  # atno 10167 bound_to 10162
  157.3762  131.0986  151.0782 H   0  0  0  0  0  0  0  0  0  0  0  0  # atno 10718 bound_to 10713
  154.6410  135.2898  155.0104 H   0  0  0  0  0  0  0  0  0  0  0  0  # atno 10763 bound_to 10752
  154.1230  135.6545  153.4911 H   0  0  0  0  0  0  0  0  0  0  0  0  # atno 10764 bound_to 10752
  153.0326  135.5292  154.7276 H   0  0  0  0  0  0  0  0  0  0  0  0  # atno 10765 bound_to 10752
  140.7431  134.3491  157.5143 H   0  0  0  0  0  0  0  0  0  0  0  0  # atno 11005 bound_to 11000
  145.5415  141.0420  143.2328 LP  0  0  0  0  0  0  0  0  0  0  0  0  # atno 17320 bound_to 7965
  144.7620  139.6934  143.7230 LP  0  0  0  0  0  0  0  0  0  0  0  0  # atno 17321 bound_to 7965
  139.7892  144.7416  150.9979 LP  0  0  0  0  0  0  0  0  0  0  0  0  # atno 17342 bound_to 10162
  140.7819  143.4460  151.0482 LP  0  0  0  0  0  0  0  0  0  0  0  0  # atno 17343 bound_to 10162
  157.1868  130.6334  149.5690 LP  0  0  0  0  0  0  0  0  0  0  0  0  # atno 17370 bound_to 10713
  155.9766  130.4735  150.6537 LP  0  0  0  0  0  0  0  0  0  0  0  0  # atno 17371 bound_to 10713
  139.8802  134.9094  156.2989 LP  0  0  0  0  0  0  0  0  0  0  0  0  # atno 17394 bound_to 11000
  140.9818  133.7262  156.0684 LP  0  0  0  0  0  0  0  0  0  0  0  0  # atno 17395 bound_to 11000

$$$$
