AV-unprocessed.smi:193|AV-procd|sdf|1503|dock9
  -GOLD-   2262019333D 1   1.00000     0.00000
 Structure written by MMmdl.
 62 66  0  0  0  0  0  0  0  0  2 V2000
  152.1554  138.2982  153.9230 C   0  0  0  0  0  0  0  0  0  0  0  0
  150.8523  138.0922  154.7082 C   0  0  1  0  0  0  0  0  0  0  0  0
  151.0413  136.9723  155.7558 C   0  0  0  0  0  0  0  0  0  0  0  0
  149.8505  136.7277  156.5700 N   0  0  0  0  0  0  0  0  0  0  0  0
  148.7983  135.9883  156.1012 C   0  0  0  0  0  0  0  0  0  0  0  0
  147.5545  136.2971  156.5597 N   0  0  0  0  0  0  0  0  0  0  0  0
  146.4753  135.6364  156.1362 C   0  0  0  0  0  0  0  0  0  0  0  0
  146.4054  134.6366  155.2602 N   0  0  0  0  0  0  0  0  0  0  0  0
  147.6414  134.3050  154.7934 C   0  0  0  0  0  0  0  0  0  0  0  0
  148.8792  134.9172  155.1542 C   0  0  0  0  0  0  0  0  0  0  0  0
  149.9103  134.2968  154.4543 N   0  0  0  0  0  0  0  0  0  0  0  0
  149.3235  133.3821  153.7342 C   0  0  0  0  0  0  0  0  0  0  0  0
  147.9591  133.3140  153.8815 N   0  0  0  0  0  0  0  0  0  0  0  0
  147.0551  132.3933  153.2083 C   0  0  0  0  0  0  0  0  0  0  0  0
  146.4526  132.9543  151.8961 C   0  0  0  0  0  0  0  0  0  0  0  0
  147.5125  133.1021  150.9666 O   0  0  0  0  0  0  0  0  0  0  0  0
  145.3895  132.0178  151.2803 C   0  0  0  0  0  0  0  0  0  0  0  0
  144.6537  132.6741  150.0985 C   0  0  0  0  0  0  0  0  0  0  0  0
  144.0866  133.9146  150.5019 O   0  0  0  0  0  0  0  0  0  0  0  0
  145.0671  134.8621  150.9075 C   0  0  0  0  0  0  0  0  0  0  0  0
  145.8245  134.3410  152.1417 C   0  0  0  0  0  0  0  0  0  0  0  0
  149.6236  137.6895  157.6546 C   0  0  0  0  0  0  0  0  0  0  0  0
  148.8319  138.9467  157.2284 C   0  0  0  0  0  0  0  0  0  0  0  0
  148.9627  139.2942  155.7898 N   0  3  1  0  0  0  0  0  0  0  0  0
  148.1152  140.4510  155.4218 C   0  0  1  0  0  0  0  0  0  0  0  0
  148.5550  141.1593  154.1595 C   0  0  0  0  0  0  0  0  0  0  0  0
  147.3286  140.2744  154.1343 C   0  0  1  0  0  0  0  0  0  0  0  0
  147.3361  138.9959  153.3147 C   0  0  0  0  0  0  0  0  0  0  0  0
  150.3682  139.4200  155.3278 C   0  0  0  0  0  0  0  0  0  0  0  0
  152.9616  138.6387  154.5737 H   0  0  0  0  0  0  0  0  0  0  0  0
  152.0283  139.0399  153.1340 H   0  0  0  0  0  0  0  0  0  0  0  0
  152.4783  137.3702  153.4498 H   0  0  0  0  0  0  0  0  0  0  0  0
  150.0992  137.7724  153.9874 H   0  0  0  0  0  0  0  0  0  0  0  0
  151.3831  136.0486  155.2921 H   0  0  0  0  0  0  0  0  0  0  0  0
  151.8566  137.2520  156.4240 H   0  0  0  0  0  0  0  0  0  0  0  0
  145.5335  135.9575  156.5562 H   0  0  0  0  0  0  0  0  0  0  0  0
  149.8726  132.7245  153.0757 H   0  0  0  0  0  0  0  0  0  0  0  0
  147.6017  131.4717  153.0036 H   0  0  0  0  0  0  0  0  0  0  0  0
  146.2611  132.1235  153.9063 H   0  0  0  0  0  0  0  0  0  0  0  0
  147.6563  132.2706  150.5409 H   0  0  0  0  0  0  0  0  0  0  0  0
  145.8387  131.0789  150.9545 H   0  0  0  0  0  0  0  0  0  0  0  0
  144.6545  131.7572  152.0428 H   0  0  0  0  0  0  0  0  0  0  0  0
  145.3256  132.8268  149.2526 H   0  0  0  0  0  0  0  0  0  0  0  0
  143.8537  132.0206  149.7501 H   0  0  0  0  0  0  0  0  0  0  0  0
  145.7513  135.0713  150.0838 H   0  0  0  0  0  0  0  0  0  0  0  0
  144.5676  135.8012  151.1471 H   0  0  0  0  0  0  0  0  0  0  0  0
  145.1219  134.2760  152.9737 H   0  0  0  0  0  0  0  0  0  0  0  0
  146.5875  135.0598  152.4432 H   0  0  0  0  0  0  0  0  0  0  0  0
  149.1489  137.2096  158.5113 H   0  0  0  0  0  0  0  0  0  0  0  0
  150.5978  138.0099  158.0253 H   0  0  0  0  0  0  0  0  0  0  0  0
  147.7749  138.7743  157.4323 H   0  0  0  0  0  0  0  0  0  0  0  0
  149.1246  139.7951  157.8485 H   0  0  0  0  0  0  0  0  0  0  0  0
  147.7096  141.0286  156.2506 H   0  0  0  0  0  0  0  0  0  0  0  0
  148.3928  142.2337  154.1036 H   0  0  0  0  0  0  0  0  0  0  0  0
  149.4492  140.8002  153.6528 H   0  0  0  0  0  0  0  0  0  0  0  0
  146.3713  140.7914  154.1058 H   0  0  0  0  0  0  0  0  0  0  0  0
  148.3346  138.5613  153.2622 H   0  0  0  0  0  0  0  0  0  0  0  0
  147.0051  139.2058  152.2976 H   0  0  0  0  0  0  0  0  0  0  0  0
  146.6579  138.2632  153.7521 H   0  0  0  0  0  0  0  0  0  0  0  0
  151.0219  139.7490  156.1372 H   0  0  0  0  0  0  0  0  0  0  0  0
  150.4278  140.1969  154.5641 H   0  0  0  0  0  0  0  0  0  0  0  0
  148.5807  138.5131  155.2760 H   0  0  0  0  0  0  0  0  0  0  0  0
  1  2  1  0  0  0  0
  1 30  1  0  0  0  0
  1 31  1  0  0  0  0
  1 32  1  0  0  0  0
  2 29  1  0  0  0  0
  2  3  1  0  0  0  0
  2 33  1  0  0  0  0
  3  4  1  0  0  0  0
  3 34  1  0  0  0  0
  3 35  1  0  0  0  0
  4  5  1  0  0  0  0
  4 22  1  0  0  0  0
  5 10  1  0  0  0  0
  5  6  2  0  0  0  0
  6  7  1  0  0  0  0
  7  8  2  0  0  0  0
  7 36  1  0  0  0  0
  8  9  1  0  0  0  0
  9 13  1  0  0  0  0
  9 10  2  0  0  0  0
 10 11  1  0  0  0  0
 11 12  2  0  0  0  0
 12 13  1  0  0  0  0
 12 37  1  0  0  0  0
 13 14  1  0  0  0  0
 14 15  1  0  0  0  0
 14 38  1  0  0  0  0
 14 39  1  0  0  0  0
 15 21  1  0  0  0  0
 15 16  1  0  0  0  0
 15 17  1  0  0  0  0
 16 40  1  0  0  0  0
 17 18  1  0  0  0  0
 17 41  1  0  0  0  0
 17 42  1  0  0  0  0
 18 19  1  0  0  0  0
 18 43  1  0  0  0  0
 18 44  1  0  0  0  0
 19 20  1  0  0  0  0
 20 21  1  0  0  0  0
 20 45  1  0  0  0  0
 20 46  1  0  0  0  0
 21 47  1  0  0  0  0
 21 48  1  0  0  0  0
 22 23  1  0  0  0  0
 22 49  1  0  0  0  0
 22 50  1  0  0  0  0
 23 24  1  0  0  0  0
 23 51  1  0  0  0  0
 23 52  1  0  0  0  0
 24 25  1  0  0  0  0
 24 29  1  0  0  0  0
 24 62  1  0  0  0  0
 25 27  1  0  0  0  0
 25 26  1  0  0  0  0
 25 53  1  0  0  0  0
 26 27  1  0  0  0  0
 26 54  1  0  0  0  0
 26 55  1  0  0  0  0
 27 28  1  0  0  0  0
 27 56  1  0  0  0  0
 28 57  1  0  0  0  0
 28 58  1  0  0  0  0
 28 59  1  0  0  0  0
 29 60  1  0  0  0  0
 29 61  1  0  0  0  0
M  CHG  1  24   1
M  END
> <s_m_source_file>
AV-unprocessed.smi

> <i_m_source_file_index>
193

> <i_lp_mmshare_version>
43012

> <i_f3d_flags>
0

> <s_epik_input>
W0NIM11bQ0BASF0xW0NIMl1bQ0BIXTFOKFtDSDJdMilbQ0gyXVtDSDJdTihbQ0gyXVtDQEhdMltDSDNdKWMobltjSF1uMyljKGMzNCluW2NIXW40W0NIMl1DNShbT0hdKVtDSDJdW0NIMl1PW0NIMl1bQ0gyXTU=

> <s_epik_cmdline>
J2VwaWtfcHl0aG9uJywgJy1waCcsICc3LjAnLCAnLXRuJywgJzgnLCAnLW1hJywgJzIwMCcsICctbWV0YWxfYmluZGluZycsICctaW1hZScsICc8aW5maWxlLm1hZT4nLCAnLW9tYWUnLCAnPG91dGZpbGUubWFlPic=

> <r_lp_tautomer_probability>
1

> <r_epik_Ionization_Penalty>
0.0540825

> <r_epik_Ionization_Penalty_Charging>
0.0538476

> <r_epik_Ionization_Penalty_Neutral>
0.000234891

> <r_epik_State_Penalty>
0.0200719

> <r_epik_Charging_Adjusted_Penalty>
0.0739194

> <i_epik_Tot_Q>
1

> <i_epik_Tot_abs_Q>
1

> <r_epik_Metal_State_Penalty>
0.0199414

> <b_epik_Metal_Only>
0

> <s_lp_Force_Field>
OPLS_2005

> <r_lp_Energy>
52.5482

> <b_lp_Chiralities_Consistent>
1

> <s_lp_Variant>
AV-unprocessed.smi:193-8

> <Gold.Version>
5.8.1

> <Gold.Id.Protein>
6NUR|6NUR_protein|mol2

> <Gold.PLP.Fitness>
37.6923

> <Gold.PLP.PLP>
-36.2534

> <Gold.PLP.part.hbond>
-1.0000

> <Gold.PLP.part.metal>
0.0000

> <Gold.PLP.part.buried>
-4.9655

> <Gold.PLP.part.nonpolar>
-30.2947

> <Gold.PLP.part.repulsive>
0.3611

> <Gold.PLP.ligand.clash>
0.0000

> <Gold.PLP.ligand.torsion>
1.4664

> <Gold.PLP.Chemscore.Hbond>
0.9920

> <Gold.PLP.Chemscore.CHOScore>
0.0000

> <Gold.PLP.Chemscore.Metal>
0.0000

> <Gold.Chemscore.Hbonds>
donor molecule, donor type, donor heavy atom, donor atom, acceptor molecule, acceptor atom, score
      L1  H    16    40       P1 10747  0.86

> <Gold.PLP.Chemscore.Internal.Correction>
1.3958

> <Gold.Rescore>
     Score         DG    S(hbond)    S(metal)    S(lipo)     H(rot)  DE(clash)    DE(int)     intcor
     11.59     -13.98       0.85        0.00      90.60       1.93       0.01       2.38       ----

> <Gold.Chemscore.Fitness>
11.5853

> <Gold.Chemscore.DG>
-13.9756

> <Gold.Chemscore.ZeroCoef>
-5.4800

> <Gold.Chemscore.Hbond>
0.8485

> <Gold.Chemscore.Metal>
0.0000

> <Gold.Chemscore.Lipo>
90.5984

> <Gold.Chemscore.Internal_Hbond>
0.0000

> <Gold.Chemscore.DEClash>
0.0077

> <Gold.Chemscore.DEInternal>
2.3826

> <Gold.Chemscore.Rot>
1.9290

> <Gold.Chemscore.Internal.Correction>
   9.000000E+99

> <Gold.Chemscore.Hbonds>
donor molecule, donor type, donor heavy atom, donor atom, acceptor molecule, acceptor atom, score
      L1  H    16    40       P1 10747  0.84

> <Gold.Chemscore.Hbond.Weighted>
-2.8339

> <Gold.Chemscore.Metal.Weighted>
-0.0000

> <Gold.Chemscore.Lipo.Weighted>
-10.6000

> <Gold.Chemscore.Internal_Hbond.Weighted>
0.0000

> <Gold.Chemscore.DEClash.Weighted>
0.0077

> <Gold.Chemscore.DEInternal.Weighted>
2.3826

> <Gold.Chemscore.Rot.Weighted>
4.9383

> <Gold.Chemscore.Internal.Correction.Weighted>
   9.000000E+99

> <Gold.Protein.RotatedTorsions>
[ 6907 6896 6895 6894 ] final   19.79 input  -60.11 | X-H torsion
[ 7974 7965 7964 7962 ] final   -1.51 input  175.53 | X-H torsion
[ 8008 7997 7996 7995 ] final  -68.63 input   59.86 | X-H torsion
[ 10167 10162 10161 10158 ] final   70.06 input  -65.29 | X-H torsion
[ 10718 10713 10712 10709 ] final -176.83 input   66.30 | X-H torsion
[ 10763 10752 10751 10750 ] final -116.60 input  -60.55 | X-H torsion
[ 11005 11000 10999 10996 ] final   80.61 input  -57.11 | X-H torsion

> <Gold.Protein.ActiveResidues>
 VAL166  LYS551  ARG553  GLY616  TRP617  ASP618  TYR619  PRO620  LYS621  CYS622 
 ASP623  PHE694  ASN695  SER759  ASP760  ASP761  ALA762  ILE779  LEU786  VAL792 
 PHE793  MET794  SER795  GLU796  ALA797  LYS798  CYS799  TRP800  GLU811  SER814 

> <Gold.Protein.RotatedAtoms>
  151.8863  135.0434  160.0493 H   0  0  0  0  0  0  0  0  0  0  0  0  # atno 6907 bound_to 6896
  152.2472  133.5180  159.5313 H   0  0  0  0  0  0  0  0  0  0  0  0  # atno 6908 bound_to 6896
  150.7072  134.0925  159.3979 H   0  0  0  0  0  0  0  0  0  0  0  0  # atno 6909 bound_to 6896
  146.2416  140.1431  142.8335 H   0  0  0  0  0  0  0  0  0  0  0  0  # atno 7974 bound_to 7965
  154.4881  140.0869  156.7532 H   0  0  0  0  0  0  0  0  0  0  0  0  # atno 8008 bound_to 7997
  155.4299  140.3449  155.4261 H   0  0  0  0  0  0  0  0  0  0  0  0  # atno 8009 bound_to 7997
  156.1291  140.1496  156.9081 H   0  0  0  0  0  0  0  0  0  0  0  0  # atno 8010 bound_to 7997
  140.0610  144.5233  150.7294 H   0  0  0  0  0  0  0  0  0  0  0  0  # atno 10167 bound_to 10162
  156.8205  130.9618  151.3112 H   0  0  0  0  0  0  0  0  0  0  0  0  # atno 10718 bound_to 10713
  154.8525  135.4340  154.1847 H   0  0  0  0  0  0  0  0  0  0  0  0  # atno 10763 bound_to 10752
  153.2929  135.6963  153.7282 H   0  0  0  0  0  0  0  0  0  0  0  0  # atno 10764 bound_to 10752
  153.6442  135.3462  155.3055 H   0  0  0  0  0  0  0  0  0  0  0  0  # atno 10765 bound_to 10752
  139.9128  134.7934  156.1932 H   0  0  0  0  0  0  0  0  0  0  0  0  # atno 11005 bound_to 11000
  145.0230  140.8809  143.5155 LP  0  0  0  0  0  0  0  0  0  0  0  0  # atno 17320 bound_to 7965
  145.1483  139.2530  143.5454 LP  0  0  0  0  0  0  0  0  0  0  0  0  # atno 17321 bound_to 7965
  140.7172  143.2555  151.4397 LP  0  0  0  0  0  0  0  0  0  0  0  0  # atno 17342 bound_to 10162
  139.5894  144.1533  152.2069 LP  0  0  0  0  0  0  0  0  0  0  0  0  # atno 17343 bound_to 10162
  157.6459  130.8844  149.9538 LP  0  0  0  0  0  0  0  0  0  0  0  0  # atno 17370 bound_to 10713
  156.0991  130.3657  150.0250 LP  0  0  0  0  0  0  0  0  0  0  0  0  # atno 17371 bound_to 10713
  141.0570  133.6860  156.1880 LP  0  0  0  0  0  0  0  0  0  0  0  0  # atno 17394 bound_to 11000
  140.6720  134.4857  157.5587 LP  0  0  0  0  0  0  0  0  0  0  0  0  # atno 17395 bound_to 11000

$$$$
