AV-unprocessed.smi:949|AV-procd|sdf|4242|dock3
  -GOLD-   22720 2153D 1   1.00000     0.00000
 Structure written by MMmdl.
 33 34  0  0  0  0  0  0  0  0  2 V2000
  151.8442  140.9930  157.7419 C   0  0  0  0  0  0  0  0  0  0  0  0
  150.5538  141.8035  157.5184 C   0  0  2  0  0  0  0  0  0  0  0  0
  150.3010  141.9690  156.0916 N   0  0  0  0  0  0  0  0  0  0  0  0
  150.0720  140.8873  155.2224 C   0  0  0  0  0  0  0  0  0  0  0  0
  150.9601  139.7864  155.1238 C   0  0  0  0  0  0  0  0  0  0  0  0
  150.6721  138.7338  154.2325 C   0  0  0  0  0  0  0  0  0  0  0  0
  149.5545  138.7776  153.4782 N   0  3  0  0  0  0  0  0  0  0  0  0
  148.6774  139.8015  153.5343 C   0  0  0  0  0  0  0  0  0  0  0  0
  148.9094  140.8853  154.4073 C   0  0  0  0  0  0  0  0  0  0  0  0
  147.9850  141.9319  154.4480 N   0  0  0  0  0  0  0  0  0  0  0  0
  150.6322  143.1880  158.1909 C   0  0  2  0  0  0  0  0  0  0  0  0
  151.6130  144.1642  157.5375 C   0  0  0  0  0  0  0  0  0  0  0  0
  152.0112  145.0961  158.6722 C   0  0  0  0  0  0  0  0  0  0  0  0
  151.5238  144.3783  159.9326 C   0  0  0  0  0  0  0  0  0  0  0  0
  151.1745  143.0720  159.4979 O   0  0  0  0  0  0  0  0  0  0  0  0
  152.0225  140.8136  158.8022 H   0  0  0  0  0  0  0  0  0  0  0  0
  152.7133  141.5181  157.3443 H   0  0  0  0  0  0  0  0  0  0  0  0
  151.7999  140.0180  157.2571 H   0  0  0  0  0  0  0  0  0  0  0  0
  149.7158  141.2695  157.9668 H   0  0  0  0  0  0  0  0  0  0  0  0
  150.1521  142.9068  155.7477 H   0  0  0  0  0  0  0  0  0  0  0  0
  151.8616  139.7292  155.7144 H   0  0  0  0  0  0  0  0  0  0  0  0
  151.2993  137.8642  154.1014 H   0  0  0  0  0  0  0  0  0  0  0  0
  147.8203  139.7215  152.8813 H   0  0  0  0  0  0  0  0  0  0  0  0
  148.1118  142.7264  155.0588 H   0  0  0  0  0  0  0  0  0  0  0  0
  147.2181  141.9815  153.7925 H   0  0  0  0  0  0  0  0  0  0  0  0
  149.6417  143.6439  158.2548 H   0  0  0  0  0  0  0  0  0  0  0  0
  152.4947  143.6300  157.1806 H   0  0  0  0  0  0  0  0  0  0  0  0
  151.1765  144.6948  156.6907 H   0  0  0  0  0  0  0  0  0  0  0  0
  153.0908  145.2483  158.6880 H   0  0  0  0  0  0  0  0  0  0  0  0
  151.5356  146.0727  158.5766 H   0  0  0  0  0  0  0  0  0  0  0  0
  152.2813  144.3430  160.7158 H   0  0  0  0  0  0  0  0  0  0  0  0
  150.6385  144.8714  160.3368 H   0  0  0  0  0  0  0  0  0  0  0  0
  149.3643  138.0048  152.8394 H   0  0  0  0  0  0  0  0  0  0  0  0
  1  2  1  0  0  0  0
  1 16  1  0  0  0  0
  1 17  1  0  0  0  0
  1 18  1  0  0  0  0
  2  3  1  0  0  0  0
  2 11  1  0  0  0  0
  2 19  1  0  0  0  0
  3  4  1  0  0  0  0
  3 20  1  0  0  0  0
  4  9  1  0  0  0  0
  4  5  2  0  0  0  0
  5  6  1  0  0  0  0
  5 21  1  0  0  0  0
  6  7  2  0  0  0  0
  6 22  1  0  0  0  0
  7  8  1  0  0  0  0
  7 33  1  0  0  0  0
  8  9  2  0  0  0  0
  8 23  1  0  0  0  0
  9 10  1  0  0  0  0
 10 24  1  0  0  0  0
 10 25  1  0  0  0  0
 11 15  1  0  0  0  0
 11 12  1  0  0  0  0
 11 26  1  0  0  0  0
 12 13  1  0  0  0  0
 12 27  1  0  0  0  0
 12 28  1  0  0  0  0
 13 14  1  0  0  0  0
 13 29  1  0  0  0  0
 13 30  1  0  0  0  0
 14 15  1  0  0  0  0
 14 31  1  0  0  0  0
 14 32  1  0  0  0  0
M  CHG  1   7   1
M  END
> <s_m_source_file>
AV-unprocessed.smi

> <i_m_source_file_index>
949

> <i_lp_mmshare_version>
43012

> <i_f3d_flags>
0

> <s_epik_input>
TzFbQ0gyXVtDSDJdW0NIMl1bQ0BIXTFbQ0BIXShbQ0gzXSlbTkhdYzJbY0hdW2NIXW5bY0hdYzJbTkgyXQ==

> <s_epik_cmdline>
J2VwaWtfcHl0aG9uJywgJy1waCcsICc3LjAnLCAnLXRuJywgJzgnLCAnLW1hJywgJzIwMCcsICctbWV0YWxfYmluZGluZycsICctaW1hZScsICc8aW5maWxlLm1hZT4nLCAnLW9tYWUnLCAnPG91dGZpbGUubWFlPic=

> <r_epik_Ionization_Penalty>
0.000849261

> <r_epik_Ionization_Penalty_Charging>
0.000847912

> <r_epik_Ionization_Penalty_Neutral>
1.34939e-06

> <r_epik_State_Penalty>
0.000546618

> <r_epik_Charging_Adjusted_Penalty>
0.00139453

> <i_epik_Tot_Q>
1

> <i_epik_Tot_abs_Q>
1

> <r_epik_Metal_State_Penalty>
0.526583

> <b_epik_Metal_Only>
0

> <s_lp_Force_Field>
OPLS_2005

> <r_lp_Energy>
30.4105

> <b_lp_Chiralities_Consistent>
1

> <s_lp_Variant>
AV-unprocessed.smi:949-1

> <Gold.Version>
5.8.1

> <Gold.Id.Protein>
6NUR|6NUR_protein|mol2

> <Gold.PLP.Fitness>
43.6200

> <Gold.PLP.PLP>
-35.0232

> <Gold.PLP.part.hbond>
-3.7026

> <Gold.PLP.part.metal>
0.0000

> <Gold.PLP.part.buried>
-1.1617

> <Gold.PLP.part.nonpolar>
-31.6831

> <Gold.PLP.part.repulsive>
0.4030

> <Gold.PLP.ligand.clash>
0.0000

> <Gold.PLP.ligand.torsion>
0.6371

> <Gold.PLP.Chemscore.Hbond>
3.2808

> <Gold.PLP.Chemscore.CHOScore>
0.0000

> <Gold.PLP.Chemscore.Metal>
0.0000

> <Gold.Chemscore.Hbonds>
donor molecule, donor type, donor heavy atom, donor atom, acceptor molecule, acceptor atom, score
      L1  H     3    20       P1  8028  0.55
      L1  H     7    33       P1  7948  2.00
      L1  H    10    24       P1  8028  0.59

> <Gold.PLP.Chemscore.Internal.Correction>
0.0285

> <Gold.Rescore>
     Score         DG    S(hbond)    S(metal)    S(lipo)     H(rot)  DE(clash)    DE(int)     intcor
     19.33     -22.35       2.49        0.00     100.20       1.23       1.40       1.61       ----

> <Gold.Chemscore.Fitness>
19.3301

> <Gold.Chemscore.DG>
-22.3451

> <Gold.Chemscore.ZeroCoef>
-5.4800

> <Gold.Chemscore.Hbond>
2.4857

> <Gold.Chemscore.Metal>
0.0000

> <Gold.Chemscore.Lipo>
100.2020

> <Gold.Chemscore.Internal_Hbond>
0.0000

> <Gold.Chemscore.DEClash>
1.4030

> <Gold.Chemscore.DEInternal>
1.6120

> <Gold.Chemscore.Rot>
1.2347

> <Gold.Chemscore.Internal.Correction>
   9.000000E+99

> <Gold.Chemscore.Hbonds>
donor molecule, donor type, donor heavy atom, donor atom, acceptor molecule, acceptor atom, score
      L1  H     3    20       P1  8028  0.51
      L1  H     7    33       P1  7948  0.85
      L1  H    10    24       P1  8028  0.56

> <Gold.Chemscore.Hbond.Weighted>
-8.3023

> <Gold.Chemscore.Metal.Weighted>
-0.0000

> <Gold.Chemscore.Lipo.Weighted>
-11.7236

> <Gold.Chemscore.Internal_Hbond.Weighted>
0.0000

> <Gold.Chemscore.DEClash.Weighted>
1.4030

> <Gold.Chemscore.DEInternal.Weighted>
1.6120

> <Gold.Chemscore.Rot.Weighted>
3.1609

> <Gold.Chemscore.Internal.Correction.Weighted>
   9.000000E+99

> <Gold.Protein.RotatedTorsions>
[ 6907 6896 6895 6894 ] final -138.44 input  -60.11 | X-H torsion
[ 7974 7965 7964 7962 ] final  103.81 input  175.53 | X-H torsion
[ 8008 7997 7996 7995 ] final -135.32 input   59.86 | X-H torsion
[ 10167 10162 10161 10158 ] final  -86.22 input  -65.29 | X-H torsion
[ 10718 10713 10712 10709 ] final  -82.17 input   66.30 | X-H torsion
[ 10763 10752 10751 10750 ] final   82.89 input  -60.55 | X-H torsion
[ 11005 11000 10999 10996 ] final  148.75 input  -57.11 | X-H torsion

> <Gold.Protein.ActiveResidues>
 VAL166  LYS551  ARG553  GLY616  TRP617  ASP618  TYR619  PRO620  LYS621  CYS622 
 ASP623  PHE694  ASN695  SER759  ASP760  ASP761  ALA762  ILE779  LEU786  VAL792 
 PHE793  MET794  SER795  GLU796  ALA797  LYS798  CYS799  TRP800  GLU811  SER814 

> <Gold.Protein.RotatedAtoms>
  151.0351  133.5756  159.2656 H   0  0  0  0  0  0  0  0  0  0  0  0  # atno 6907 bound_to 6896
  151.2823  135.0716  159.9183 H   0  0  0  0  0  0  0  0  0  0  0  0  # atno 6908 bound_to 6896
  152.5353  134.0063  159.7972 H   0  0  0  0  0  0  0  0  0  0  0  0  # atno 6909 bound_to 6896
  145.3410  139.2462  143.3609 H   0  0  0  0  0  0  0  0  0  0  0  0  # atno 7974 bound_to 7965
  155.3768  140.0491  157.3044 H   0  0  0  0  0  0  0  0  0  0  0  0  # atno 8008 bound_to 7997
  154.5102  140.2189  155.9133 H   0  0  0  0  0  0  0  0  0  0  0  0  # atno 8009 bound_to 7997
  156.1574  140.3123  155.8754 H   0  0  0  0  0  0  0  0  0  0  0  0  # atno 8010 bound_to 7997
  140.3962  143.2683  151.9201 H   0  0  0  0  0  0  0  0  0  0  0  0  # atno 10167 bound_to 10162
  156.0037  130.4626  150.4065 H   0  0  0  0  0  0  0  0  0  0  0  0  # atno 10718 bound_to 10713
  153.1242  135.4711  154.9246 H   0  0  0  0  0  0  0  0  0  0  0  0  # atno 10763 bound_to 10752
  154.7605  135.3130  154.8390 H   0  0  0  0  0  0  0  0  0  0  0  0  # atno 10764 bound_to 10752
  153.8947  135.6881  153.4812 H   0  0  0  0  0  0  0  0  0  0  0  0  # atno 10765 bound_to 10752
  140.0986  134.8997  157.1761 H   0  0  0  0  0  0  0  0  0  0  0  0  # atno 11005 bound_to 11000
  146.3007  140.4007  142.8705 LP  0  0  0  0  0  0  0  0  0  0  0  0  # atno 17320 bound_to 7965
  144.8790  140.7375  143.5998 LP  0  0  0  0  0  0  0  0  0  0  0  0  # atno 17321 bound_to 7965
  139.4786  144.5679  151.8135 LP  0  0  0  0  0  0  0  0  0  0  0  0  # atno 17342 bound_to 10162
  140.4788  144.1480  150.5929 LP  0  0  0  0  0  0  0  0  0  0  0  0  # atno 17343 bound_to 10162
  157.2130  131.0465  151.2588 LP  0  0  0  0  0  0  0  0  0  0  0  0  # atno 17370 bound_to 10713
  157.3871  130.7262  149.6671 LP  0  0  0  0  0  0  0  0  0  0  0  0  # atno 17371 bound_to 10713
  140.3252  134.2872  155.7238 LP  0  0  0  0  0  0  0  0  0  0  0  0  # atno 17394 bound_to 11000
  141.2099  133.7735  156.9966 LP  0  0  0  0  0  0  0  0  0  0  0  0  # atno 17395 bound_to 11000

$$$$
