AV-unprocessed.smi:37|AV-procd|sdf|322|dock3
  -GOLD-   2262016143D 1   1.00000     0.00000
 Structure written by MMmdl.
 43 44  0  0  0  0  0  0  0  0  2 V2000
  149.3002  131.7385  154.0651 C   0  0  0  0  0  0  0  0  0  0  0  0
  150.2088  131.8766  155.2958 C   0  0  0  0  0  0  0  0  0  0  0  0
  149.6859  132.8691  156.3363 C   0  0  0  0  0  0  0  0  0  0  0  0
  150.3141  133.1406  157.3611 O   0  0  0  0  0  0  0  0  0  0  0  0
  148.4873  133.3702  155.9886 O   0  0  0  0  0  0  0  0  0  0  0  0
  147.8104  134.3054  156.8221 C   0  0  0  0  0  0  0  0  0  0  0  0
  148.5520  135.6546  156.8488 C   0  0  1  0  0  0  0  0  0  0  0  0
  148.1156  136.4586  155.7565 O   0  0  0  0  0  0  0  0  0  0  0  0
  148.2239  137.8036  156.1038 C   0  0  2  0  0  0  0  0  0  0  0  0
  149.6449  138.2677  155.8019 N   0  0  0  0  0  0  0  0  0  0  0  0
  150.7695  137.7056  156.3909 C   0  0  0  0  0  0  0  0  0  0  0  0
  152.0128  138.1171  156.0694 C   0  0  0  0  0  0  0  0  0  0  0  0
  153.0783  137.5519  156.6630 F   0  0  0  0  0  0  0  0  0  0  0  0
  152.1925  139.1730  155.0769 C   0  0  0  0  0  0  0  0  0  0  0  0
  153.3292  139.5456  154.7905 O   0  0  0  0  0  0  0  0  0  0  0  0
  151.0745  139.7040  154.5051 N   0  5  0  0  0  0  0  0  0  0  0  0
  149.8136  139.2900  154.8254 C   0  0  0  0  0  0  0  0  0  0  0  0
  148.8035  139.7647  154.3057 O   0  0  0  0  0  0  0  0  0  0  0  0
  147.8262  137.8457  157.5827 C   0  0  1  0  0  0  0  0  0  0  0  0
  145.8312  137.8465  157.6723 Br  0  0  0  0  0  0  0  0  0  0  0  0
  148.3944  136.5247  158.1148 C   0  0  1  0  0  0  0  0  0  0  0  0
  147.5900  135.9396  159.1317 O   0  0  0  0  0  0  0  0  0  0  0  0
  147.5800  136.4459  160.3766 C   0  0  0  0  0  0  0  0  0  0  0  0
  148.2716  137.3786  160.7852 O   0  0  0  0  0  0  0  0  0  0  0  0
  146.5832  135.7324  161.2862 C   0  0  0  0  0  0  0  0  0  0  0  0
  147.2610  135.1379  162.5279 C   0  0  0  0  0  0  0  0  0  0  0  0
  149.7207  131.0244  153.3571 H   0  0  0  0  0  0  0  0  0  0  0  0
  149.1866  132.6901  153.5445 H   0  0  0  0  0  0  0  0  0  0  0  0
  148.3069  131.3826  154.3413 H   0  0  0  0  0  0  0  0  0  0  0  0
  150.3288  130.9047  155.7749 H   0  0  0  0  0  0  0  0  0  0  0  0
  151.2025  132.1972  154.9823 H   0  0  0  0  0  0  0  0  0  0  0  0
  146.7786  134.4677  156.5083 H   0  0  0  0  0  0  0  0  0  0  0  0
  147.7670  133.8903  157.8293 H   0  0  0  0  0  0  0  0  0  0  0  0
  149.6161  135.4619  156.7058 H   0  0  0  0  0  0  0  0  0  0  0  0
  147.5899  138.4422  155.4864 H   0  0  0  0  0  0  0  0  0  0  0  0
  150.6852  136.9250  157.1283 H   0  0  0  0  0  0  0  0  0  0  0  0
  148.1737  138.7421  158.0950 H   0  0  0  0  0  0  0  0  0  0  0  0
  149.3984  136.6878  158.5075 H   0  0  0  0  0  0  0  0  0  0  0  0
  145.8144  136.4443  161.5874 H   0  0  0  0  0  0  0  0  0  0  0  0
  146.0832  134.9454  160.7211 H   0  0  0  0  0  0  0  0  0  0  0  0
  146.5267  134.6537  163.1716 H   0  0  0  0  0  0  0  0  0  0  0  0
  147.7608  135.9052  163.1192 H   0  0  0  0  0  0  0  0  0  0  0  0
  148.0051  134.3901  162.2518 H   0  0  0  0  0  0  0  0  0  0  0  0
  1  2  1  0  0  0  0
  1 27  1  0  0  0  0
  1 28  1  0  0  0  0
  1 29  1  0  0  0  0
  2  3  1  0  0  0  0
  2 30  1  0  0  0  0
  2 31  1  0  0  0  0
  3  4  2  0  0  0  0
  3  5  1  0  0  0  0
  5  6  1  0  0  0  0
  6  7  1  0  0  0  0
  6 32  1  0  0  0  0
  6 33  1  0  0  0  0
  7 21  1  0  0  0  0
  7  8  1  0  0  0  0
  7 34  1  0  0  0  0
  8  9  1  0  0  0  0
  9 10  1  0  0  0  0
  9 19  1  0  0  0  0
  9 35  1  0  0  0  0
 10 17  1  0  0  0  0
 10 11  1  0  0  0  0
 11 12  2  0  0  0  0
 11 36  1  0  0  0  0
 12 13  1  0  0  0  0
 12 14  1  0  0  0  0
 14 15  2  0  0  0  0
 14 16  1  0  0  0  0
 16 17  1  0  0  0  0
 17 18  2  0  0  0  0
 19 20  1  0  0  0  0
 19 21  1  0  0  0  0
 19 37  1  0  0  0  0
 21 22  1  0  0  0  0
 21 38  1  0  0  0  0
 22 23  1  0  0  0  0
 23 24  2  0  0  0  0
 23 25  1  0  0  0  0
 25 26  1  0  0  0  0
 25 39  1  0  0  0  0
 25 40  1  0  0  0  0
 26 41  1  0  0  0  0
 26 42  1  0  0  0  0
 26 43  1  0  0  0  0
M  CHG  1  16  -1
M  END
> <s_m_source_file>
AV-unprocessed.smi

> <i_m_source_file_index>
37

> <i_lp_mmshare_version>
43012

> <i_f3d_flags>
0

> <s_epik_input>
W0NIM11bQ0gyXUMoPU8pT1tDSDJdW0NAQEhdMU9bQ0BASF0objJbY0hdYyhGKWMoPU8pW25IXWMyPU8pW0NAQEhdKEJyKVtDQEhdMU9DKD1PKVtDSDJdW0NIM10=

> <s_epik_cmdline>
J2VwaWtfcHl0aG9uJywgJy1waCcsICc3LjAnLCAnLXRuJywgJzgnLCAnLW1hJywgJzIwMCcsICctbWV0YWxfYmluZGluZycsICctaW1hZScsICc8aW5maWxlLm1hZT4nLCAnLW9tYWUnLCAnPG91dGZpbGUubWFlPic=

> <r_epik_Ionization_Penalty>
1.08158

> <r_epik_Ionization_Penalty_Charging>
9.05154e-09

> <r_epik_Ionization_Penalty_Neutral>
1.08158

> <r_epik_State_Penalty>
1.13706

> <r_epik_Charging_Adjusted_Penalty>
1.13706

> <i_epik_Tot_Q>
-1

> <i_epik_Tot_abs_Q>
1

> <r_epik_Metal_State_Penalty>
0.00343535

> <b_epik_Metal_Only>
0

> <s_epik_Chemistry_Notes>
This compound has an ester and may undergo hydrolysis at high or low pH. This compound contains an acetal/aminal-like group ( X-CH(R)-Y where X, Y are N, S, or O) that may be acid/base labile, releasing an aldehyde.

> <s_lp_Force_Field>
OPLS_2005

> <r_lp_Energy>
33.8025

> <b_lp_Chiralities_Consistent>
1

> <s_lp_Variant>
AV-unprocessed.smi:37-20

> <Gold.Version>
5.8.1

> <Gold.Id.Protein>
6NUR|6NUR_protein|mol2

> <Gold.PLP.Fitness>
41.5456

> <Gold.PLP.PLP>
-29.3006

> <Gold.PLP.part.hbond>
-5.6203

> <Gold.PLP.part.metal>
0.0000

> <Gold.PLP.part.buried>
-2.6952

> <Gold.PLP.part.nonpolar>
-20.4772

> <Gold.PLP.part.repulsive>
0.3057

> <Gold.PLP.ligand.clash>
0.0000

> <Gold.PLP.ligand.torsion>
0.4996

> <Gold.PLP.Chemscore.Hbond>
4.3440

> <Gold.PLP.Chemscore.CHOScore>
0.0000

> <Gold.PLP.Chemscore.Metal>
0.0000

> <Gold.Chemscore.Hbonds>
donor molecule, donor type, donor heavy atom, donor atom, acceptor molecule, acceptor atom, score
      P1  H  6896  6908       L1     4  0.98
      P1  H  6931  6943       L1    24  0.78
      P1  H  6934  6947       L1    24  0.58
      P1  H  7989  7998       L1    16  1.00
      P1  H  7997  8009       L1    15  1.00

> <Gold.PLP.Chemscore.Internal.Correction>
0.2123

> <Gold.Rescore>
     Score         DG    S(hbond)    S(metal)    S(lipo)     H(rot)  DE(clash)    DE(int)     intcor
     15.02     -16.34       4.37        0.00      39.50       3.27       0.01       1.31       ----

> <Gold.Chemscore.Fitness>
15.0245

> <Gold.Chemscore.DG>
-16.3450

> <Gold.Chemscore.ZeroCoef>
-5.4800

> <Gold.Chemscore.Hbond>
4.3734

> <Gold.Chemscore.Metal>
0.0000

> <Gold.Chemscore.Lipo>
39.4974

> <Gold.Chemscore.Internal_Hbond>
0.0000

> <Gold.Chemscore.DEClash>
0.0089

> <Gold.Chemscore.DEInternal>
1.3116

> <Gold.Chemscore.Rot>
3.2669

> <Gold.Chemscore.Internal.Correction>
   9.000000E+99

> <Gold.Chemscore.Hbonds>
donor molecule, donor type, donor heavy atom, donor atom, acceptor molecule, acceptor atom, score
      P1  H  6896  6908       L1     4  0.89
      P1  H  6931  6943       L1    24  0.77
      P1  H  6934  6947       L1    24  0.45
      P1  H  7989  7998       L1    16  0.50
      P1  H  7997  8009       L1    15  1.00

> <Gold.Chemscore.Hbond.Weighted>
-14.6071

> <Gold.Chemscore.Metal.Weighted>
-0.0000

> <Gold.Chemscore.Lipo.Weighted>
-4.6212

> <Gold.Chemscore.Internal_Hbond.Weighted>
0.0000

> <Gold.Chemscore.DEClash.Weighted>
0.0089

> <Gold.Chemscore.DEInternal.Weighted>
1.3116

> <Gold.Chemscore.Rot.Weighted>
8.3634

> <Gold.Chemscore.Internal.Correction.Weighted>
   9.000000E+99

> <Gold.Protein.RotatedTorsions>
[ 6907 6896 6895 6894 ] final   91.92 input  -60.11 | X-H torsion
[ 7974 7965 7964 7962 ] final  -68.23 input  175.53 | X-H torsion
[ 8008 7997 7996 7995 ] final -131.14 input   59.86 | X-H torsion
[ 10167 10162 10161 10158 ] final -167.90 input  -65.29 | X-H torsion
[ 10718 10713 10712 10709 ] final  -84.69 input   66.30 | X-H torsion
[ 10763 10752 10751 10750 ] final  134.68 input  -60.55 | X-H torsion
[ 11005 11000 10999 10996 ] final  130.15 input  -57.11 | X-H torsion

> <Gold.Protein.ActiveResidues>
 VAL166  LYS551  ARG553  GLY616  TRP617  ASP618  TYR619  PRO620  LYS621  CYS622 
 ASP623  PHE694  ASN695  SER759  ASP760  ASP761  ALA762  ILE779  LEU786  VAL792 
 PHE793  MET794  SER795  GLU796  ALA797  LYS798  CYS799  TRP800  GLU811  SER814 

> <Gold.Protein.RotatedAtoms>
  152.5451  134.1582  159.8546 H   0  0  0  0  0  0  0  0  0  0  0  0  # atno 6907 bound_to 6896
  151.1602  133.4843  159.2602 H   0  0  0  0  0  0  0  0  0  0  0  0  # atno 6908 bound_to 6896
  151.1381  135.0176  159.8668 H   0  0  0  0  0  0  0  0  0  0  0  0  # atno 6909 bound_to 6896
  145.7191  140.9046  143.0640 H   0  0  0  0  0  0  0  0  0  0  0  0  # atno 7974 bound_to 7965
  155.3074  140.0455  157.3033 H   0  0  0  0  0  0  0  0  0  0  0  0  # atno 8008 bound_to 7997
  154.5452  140.2300  155.8542 H   0  0  0  0  0  0  0  0  0  0  0  0  # atno 8009 bound_to 7997
  156.1917  140.3049  155.9353 H   0  0  0  0  0  0  0  0  0  0  0  0  # atno 8010 bound_to 7997
  139.6019  144.0992  152.1752 H   0  0  0  0  0  0  0  0  0  0  0  0  # atno 10167 bound_to 10162
  156.0004  130.4706  150.4448 H   0  0  0  0  0  0  0  0  0  0  0  0  # atno 10718 bound_to 10713
  153.8276  135.3108  155.3416 H   0  0  0  0  0  0  0  0  0  0  0  0  # atno 10763 bound_to 10752
  154.7987  135.4740  154.0225 H   0  0  0  0  0  0  0  0  0  0  0  0  # atno 10764 bound_to 10752
  153.1654  135.6868  153.8773 H   0  0  0  0  0  0  0  0  0  0  0  0  # atno 10765 bound_to 10752
  139.9656  134.9591  156.9252 H   0  0  0  0  0  0  0  0  0  0  0  0  # atno 11005 bound_to 11000
  144.6921  139.9178  143.7466 LP  0  0  0  0  0  0  0  0  0  0  0  0  # atno 17320 bound_to 7965
  146.0642  139.3634  143.0562 LP  0  0  0  0  0  0  0  0  0  0  0  0  # atno 17321 bound_to 7965
  140.0591  144.5871  150.7277 LP  0  0  0  0  0  0  0  0  0  0  0  0  # atno 17342 bound_to 10162
  140.7256  143.2633  151.4131 LP  0  0  0  0  0  0  0  0  0  0  0  0  # atno 17343 bound_to 10162
  157.2486  131.0541  151.2393 LP  0  0  0  0  0  0  0  0  0  0  0  0  # atno 17370 bound_to 10713
  157.3551  130.7102  149.6465 LP  0  0  0  0  0  0  0  0  0  0  0  0  # atno 17371 bound_to 10713
  140.5405  134.0725  155.7340 LP  0  0  0  0  0  0  0  0  0  0  0  0  # atno 17394 bound_to 11000
  141.1335  133.9262  157.2484 LP  0  0  0  0  0  0  0  0  0  0  0  0  # atno 17395 bound_to 11000

$$$$
