AV-unprocessed.smi:17|AV-procd|sdf|106|dock2
  -GOLD-   2262015263D 1   1.00000     0.00000
 Structure written by MMmdl.
 57 59  0  0  0  0  0  0  0  0  1 V2000
  148.4841  131.1581  158.8665 C   0  0  0  0  0  0  0  0  0  0  0  0
  148.4777  132.4139  159.7541 C   0  0  0  0  0  0  0  0  0  0  0  0
  147.8980  133.5895  159.1002 N   0  0  0  0  0  0  0  0  0  0  0  0
  148.3033  133.8007  157.8212 C   0  0  0  0  0  0  0  0  0  0  0  0
  149.6039  134.1332  157.6270 N   0  0  0  0  0  0  0  0  0  0  0  0
  150.0628  134.3705  156.3955 C   0  0  0  0  0  0  0  0  0  0  0  0
  149.4013  134.3328  155.2376 N   0  0  0  0  0  0  0  0  0  0  0  0
  148.0914  134.0020  155.4245 C   0  0  0  0  0  0  0  0  0  0  0  0
  147.4620  133.7296  156.6723 C   0  0  0  0  0  0  0  0  0  0  0  0
  146.1179  133.4429  156.4663 N   0  0  0  0  0  0  0  0  0  0  0  0
  145.9630  133.5384  155.1749 C   0  0  0  0  0  0  0  0  0  0  0  0
  147.1010  133.8541  154.4674 N   0  0  0  0  0  0  0  0  0  0  0  0
  147.2163  134.0211  153.0254 C   0  0  0  0  0  0  0  0  0  0  0  0
  145.8581  134.1641  152.2846 C   0  0  1  0  0  0  0  0  0  0  0  0
  145.7340  135.5164  151.5438 C   0  0  0  0  0  0  0  0  0  0  0  0
  144.3802  135.8476  151.3172 O   0  0  0  0  0  0  0  0  0  0  0  0
  145.5738  132.9751  151.3290 C   0  0  1  0  0  0  0  0  0  0  0  0
  145.7610  131.6014  151.9513 C   0  0  0  0  0  0  0  0  0  0  0  0
  144.9950  130.7020  150.9882 C   0  0  0  0  0  0  0  0  0  0  0  0
  143.9238  131.4966  150.4934 O   0  0  0  0  0  0  0  0  0  0  0  0
  144.1187  132.8586  150.8602 C   0  0  0  0  0  0  0  0  0  0  0  0
  147.7367  134.7891  159.9378 C   0  0  1  0  0  0  0  0  0  0  0  0
  147.0380  135.9489  159.2024 C   0  0  0  0  0  0  0  0  0  0  0  0
  147.0740  134.5131  161.3051 C   0  0  0  0  0  0  0  0  0  0  0  0
  147.0547  136.0203  162.3721 S   0  0  0  0  0  0  0  0  0  0  0  0
  145.2524  136.3517  162.5205 C   0  0  0  0  0  0  0  0  0  0  0  0
  147.5727  135.6720  163.7035 O   0  0  0  0  0  0  0  0  0  0  0  0
  147.6717  137.1253  161.6227 O   0  0  0  0  0  0  0  0  0  0  0  0
  148.8531  130.2974  159.4242 H   0  0  0  0  0  0  0  0  0  0  0  0
  149.1244  131.2780  157.9923 H   0  0  0  0  0  0  0  0  0  0  0  0
  147.4786  130.9203  158.5175 H   0  0  0  0  0  0  0  0  0  0  0  0
  147.8934  132.1967  160.6488 H   0  0  0  0  0  0  0  0  0  0  0  0
  149.4871  132.6307  160.1020 H   0  0  0  0  0  0  0  0  0  0  0  0
  151.1095  134.6280  156.3292 H   0  0  0  0  0  0  0  0  0  0  0  0
  145.0059  133.3747  154.7034 H   0  0  0  0  0  0  0  0  0  0  0  0
  147.8490  134.8877  152.8330 H   0  0  0  0  0  0  0  0  0  0  0  0
  147.7698  133.1695  152.6285 H   0  0  0  0  0  0  0  0  0  0  0  0
  145.0807  134.1481  153.0500 H   0  0  0  0  0  0  0  0  0  0  0  0
  146.2213  136.3204  152.0956 H   0  0  0  0  0  0  0  0  0  0  0  0
  146.2140  135.4711  150.5671 H   0  0  0  0  0  0  0  0  0  0  0  0
  144.3452  136.5528  150.6883 H   0  0  0  0  0  0  0  0  0  0  0  0
  146.2071  133.0504  150.4441 H   0  0  0  0  0  0  0  0  0  0  0  0
  146.8038  131.3028  152.0535 H   0  0  0  0  0  0  0  0  0  0  0  0
  145.3002  131.5654  152.9395 H   0  0  0  0  0  0  0  0  0  0  0  0
  145.6304  130.4140  150.1499 H   0  0  0  0  0  0  0  0  0  0  0  0
  144.6305  129.7929  151.4666 H   0  0  0  0  0  0  0  0  0  0  0  0
  143.4298  133.0950  151.6722 H   0  0  0  0  0  0  0  0  0  0  0  0
  143.8941  133.5204  150.0238 H   0  0  0  0  0  0  0  0  0  0  0  0
  148.7448  135.1426  160.1570 H   0  0  0  0  0  0  0  0  0  0  0  0
  147.0548  136.8566  159.8061 H   0  0  0  0  0  0  0  0  0  0  0  0
  145.9931  135.7212  158.9903 H   0  0  0  0  0  0  0  0  0  0  0  0
  147.5318  136.1817  158.2589 H   0  0  0  0  0  0  0  0  0  0  0  0
  146.0327  134.2267  161.1578 H   0  0  0  0  0  0  0  0  0  0  0  0
  147.5474  133.6951  161.8465 H   0  0  0  0  0  0  0  0  0  0  0  0
  145.0980  137.2395  163.1330 H   0  0  0  0  0  0  0  0  0  0  0  0
  144.7620  135.4987  162.9890 H   0  0  0  0  0  0  0  0  0  0  0  0
  144.8283  136.5178  161.5306 H   0  0  0  0  0  0  0  0  0  0  0  0
  1  2  1  0  0  0  0
  1 29  1  0  0  0  0
  1 30  1  0  0  0  0
  1 31  1  0  0  0  0
  2  3  1  0  0  0  0
  2 32  1  0  0  0  0
  2 33  1  0  0  0  0
  3  4  1  0  0  0  0
  3 22  1  0  0  0  0
  4  9  1  0  0  0  0
  4  5  2  0  0  0  0
  5  6  1  0  0  0  0
  6  7  2  0  0  0  0
  6 34  1  0  0  0  0
  7  8  1  0  0  0  0
  8 12  1  0  0  0  0
  8  9  2  0  0  0  0
  9 10  1  0  0  0  0
 10 11  2  0  0  0  0
 11 12  1  0  0  0  0
 11 35  1  0  0  0  0
 12 13  1  0  0  0  0
 13 14  1  0  0  0  0
 13 36  1  0  0  0  0
 13 37  1  0  0  0  0
 14 15  1  0  0  0  0
 14 17  1  0  0  0  0
 14 38  1  0  0  0  0
 15 16  1  0  0  0  0
 15 39  1  0  0  0  0
 15 40  1  0  0  0  0
 16 41  1  0  0  0  0
 17 21  1  0  0  0  0
 17 18  1  0  0  0  0
 17 42  1  0  0  0  0
 18 19  1  0  0  0  0
 18 43  1  0  0  0  0
 18 44  1  0  0  0  0
 19 20  1  0  0  0  0
 19 45  1  0  0  0  0
 19 46  1  0  0  0  0
 20 21  1  0  0  0  0
 21 47  1  0  0  0  0
 21 48  1  0  0  0  0
 22 23  1  0  0  0  0
 22 24  1  0  0  0  0
 22 49  1  0  0  0  0
 23 50  1  0  0  0  0
 23 51  1  0  0  0  0
 23 52  1  0  0  0  0
 24 25  1  0  0  0  0
 24 53  1  0  0  0  0
 24 54  1  0  0  0  0
 25 26  1  0  0  0  0
 25 27  2  0  0  0  0
 25 28  2  0  0  0  0
 26 55  1  0  0  0  0
 26 56  1  0  0  0  0
 26 57  1  0  0  0  0
M  END
> <s_m_source_file>
AV-unprocessed.smi

> <i_m_source_file_index>
17

> <i_lp_mmshare_version>
43012

> <i_f3d_flags>
0

> <s_epik_input>
W0NIM11TKD1PKSg9TylbQ0gyXVtDQEBIXShbQ0gzXSlOKFtDSDJdW0NIM10pYyhuW2NIXW4xKWMoYzEyKW5bY0hdbjJbQ0gyXVtDQEhdKFtDSDJdW09IXSlbQ0BASF0zW0NIMl1bQ0gyXU9bQ0gyXTM=

> <s_epik_cmdline>
J2VwaWtfcHl0aG9uJywgJy1waCcsICc3LjAnLCAnLXRuJywgJzgnLCAnLW1hJywgJzIwMCcsICctbWV0YWxfYmluZGluZycsICctaW1hZScsICc8aW5maWxlLm1hZT4nLCAnLW9tYWUnLCAnPG91dGZpbGUubWFlPic=

> <r_lp_tautomer_probability>
1

> <r_epik_Ionization_Penalty>
0.00119955

> <r_epik_Ionization_Penalty_Charging>
0

> <r_epik_Ionization_Penalty_Neutral>
0.00119955

> <r_epik_State_Penalty>
0.000665399

> <r_epik_Charging_Adjusted_Penalty>
0.000665399

> <i_epik_Tot_Q>
0

> <i_epik_Tot_abs_Q>
0

> <r_epik_Metal_State_Penalty>
-0

> <b_epik_Metal_Only>
0

> <s_lp_Force_Field>
OPLS_2005

> <r_lp_Energy>
32.9267

> <b_lp_Chiralities_Consistent>
1

> <s_lp_Variant>
AV-unprocessed.smi:17-8

> <Gold.Version>
5.8.1

> <Gold.Id.Protein>
6NUR|6NUR_protein|mol2

> <Gold.PLP.Fitness>
40.0693

> <Gold.PLP.PLP>
-30.5652

> <Gold.PLP.part.hbond>
-4.6847

> <Gold.PLP.part.metal>
0.0000

> <Gold.PLP.part.buried>
-3.5513

> <Gold.PLP.part.nonpolar>
-22.8356

> <Gold.PLP.part.repulsive>
0.3335

> <Gold.PLP.ligand.clash>
0.0000

> <Gold.PLP.ligand.torsion>
1.7092

> <Gold.PLP.Chemscore.Hbond>
3.4535

> <Gold.PLP.Chemscore.CHOScore>
0.3926

> <Gold.PLP.Chemscore.Metal>
0.0000

> <Gold.Chemscore.Hbonds>
donor molecule, donor type, donor heavy atom, donor atom, acceptor molecule, acceptor atom, score
      L1  H    16    41       P1 10171  0.44
      P1  H  6896  6909       L1     5  1.00
      P1  H  6931  6943       L1    28  1.00
      P1  H  6934  6947       L1    28  0.67
      P1  H 10785 10796       L1    20  0.19
      L1  C    11    35       P1 10957  0.24

> <Gold.PLP.Chemscore.Internal.Correction>
1.3840

> <Gold.Rescore>
     Score         DG    S(hbond)    S(metal)    S(lipo)     H(rot)  DE(clash)    DE(int)     intcor
     11.37     -15.75       3.50        0.00      70.85       3.79       1.07       3.31       ----

> <Gold.Chemscore.Fitness>
11.3700

> <Gold.Chemscore.DG>
-15.7482

> <Gold.Chemscore.ZeroCoef>
-5.4800

> <Gold.Chemscore.Hbond>
3.4970

> <Gold.Chemscore.Metal>
0.0000

> <Gold.Chemscore.Lipo>
70.8484

> <Gold.Chemscore.Internal_Hbond>
0.0000

> <Gold.Chemscore.DEClash>
1.0701

> <Gold.Chemscore.DEInternal>
3.3081

> <Gold.Chemscore.Rot>
3.7894

> <Gold.Chemscore.Internal.Correction>
   9.000000E+99

> <Gold.Chemscore.Hbonds>
donor molecule, donor type, donor heavy atom, donor atom, acceptor molecule, acceptor atom, score
      L1  H    16    41       P1 10171  0.43
      P1  H  6896  6909       L1     5  0.79
      P1  H  6931  6943       L1    28  0.96
      P1  H  6934  6947       L1    28  0.66
      P1  H 10785 10796       L1    20  0.04

> <Gold.Chemscore.Hbond.Weighted>
-11.6799

> <Gold.Chemscore.Metal.Weighted>
-0.0000

> <Gold.Chemscore.Lipo.Weighted>
-8.2893

> <Gold.Chemscore.Internal_Hbond.Weighted>
0.0000

> <Gold.Chemscore.DEClash.Weighted>
1.0701

> <Gold.Chemscore.DEInternal.Weighted>
3.3081

> <Gold.Chemscore.Rot.Weighted>
9.7010

> <Gold.Chemscore.Internal.Correction.Weighted>
   9.000000E+99

> <Gold.Protein.RotatedTorsions>
[ 6907 6896 6895 6894 ] final    5.30 input  -60.11 | X-H torsion
[ 7974 7965 7964 7962 ] final  139.83 input  175.53 | X-H torsion
[ 8008 7997 7996 7995 ] final -145.76 input   59.86 | X-H torsion
[ 10167 10162 10161 10158 ] final -164.93 input  -65.29 | X-H torsion
[ 10718 10713 10712 10709 ] final   86.10 input   66.30 | X-H torsion
[ 10763 10752 10751 10750 ] final -105.38 input  -60.55 | X-H torsion
[ 11005 11000 10999 10996 ] final   -5.41 input  -57.11 | X-H torsion

> <Gold.Protein.ActiveResidues>
 VAL166  LYS551  ARG553  GLY616  TRP617  ASP618  TYR619  PRO620  LYS621  CYS622 
 ASP623  PHE694  ASN695  SER759  ASP760  ASP761  ALA762  ILE779  LEU786  VAL792 
 PHE793  MET794  SER795  GLU796  ALA797  LYS798  CYS799  TRP800  GLU811  SER814 

> <Gold.Protein.RotatedAtoms>
  151.6553  135.0996  160.0168 H   0  0  0  0  0  0  0  0  0  0  0  0  # atno 6907 bound_to 6896
  152.3978  133.6768  159.6299 H   0  0  0  0  0  0  0  0  0  0  0  0  # atno 6908 bound_to 6896
  150.7882  133.8761  159.3313 H   0  0  0  0  0  0  0  0  0  0  0  0  # atno 6909 bound_to 6896
  144.9243  139.5128  143.5648 H   0  0  0  0  0  0  0  0  0  0  0  0  # atno 7974 bound_to 7965
  155.5484  140.0614  157.2855 H   0  0  0  0  0  0  0  0  0  0  0  0  # atno 8008 bound_to 7997
  154.4428  140.1907  156.0706 H   0  0  0  0  0  0  0  0  0  0  0  0  # atno 8009 bound_to 7997
  156.0534  140.3281  155.7381 H   0  0  0  0  0  0  0  0  0  0  0  0  # atno 8010 bound_to 7997
  139.6216  144.0612  152.1938 H   0  0  0  0  0  0  0  0  0  0  0  0  # atno 10167 bound_to 10162
  157.6924  131.0202  150.2922 H   0  0  0  0  0  0  0  0  0  0  0  0  # atno 10718 bound_to 10713
  154.7942  135.4751  154.0123 H   0  0  0  0  0  0  0  0  0  0  0  0  # atno 10763 bound_to 10752
  153.1678  135.6820  153.8657 H   0  0  0  0  0  0  0  0  0  0  0  0  # atno 10764 bound_to 10752
  153.8250  135.3199  155.3391 H   0  0  0  0  0  0  0  0  0  0  0  0  # atno 10765 bound_to 10752
  140.6908  133.9073  155.8617 H   0  0  0  0  0  0  0  0  0  0  0  0  # atno 11005 bound_to 11000
  146.3219  139.8145  142.8939 LP  0  0  0  0  0  0  0  0  0  0  0  0  # atno 17320 bound_to 7965
  145.3245  141.0252  143.3481 LP  0  0  0  0  0  0  0  0  0  0  0  0  # atno 17321 bound_to 7965
  140.0256  144.6120  150.7530 LP  0  0  0  0  0  0  0  0  0  0  0  0  # atno 17342 bound_to 10162
  140.7386  143.2780  151.3684 LP  0  0  0  0  0  0  0  0  0  0  0  0  # atno 17343 bound_to 10162
  156.3451  130.3822  149.7376 LP  0  0  0  0  0  0  0  0  0  0  0  0  # atno 17370 bound_to 10713
  156.4872  130.8068  151.3079 LP  0  0  0  0  0  0  0  0  0  0  0  0  # atno 17371 bound_to 10713
  141.0243  134.0846  157.4086 LP  0  0  0  0  0  0  0  0  0  0  0  0  # atno 17394 bound_to 11000
  139.8924  135.0124  156.6843 LP  0  0  0  0  0  0  0  0  0  0  0  0  # atno 17395 bound_to 11000

$$$$
