AV-unprocessed.smi:1875|AV-procd|sdf|7618|dock9
  -GOLD-   22720 9343D 1   1.00000     0.00000
 Structure written by MMmdl.
 48 50  0  0  0  0  0  0  0  0  2 V2000
  150.6687  131.0756  155.7600 C   0  0  0  0  0  0  0  0  0  0  0  0
  149.7787  131.9285  154.8797 C   0  0  0  0  0  0  0  0  0  0  0  0
  149.2615  131.3459  153.7932 N   0  0  0  0  0  0  0  0  0  0  0  0
  148.4688  132.1097  153.0098 C   0  0  0  0  0  0  0  0  0  0  0  0
  148.1962  133.4577  153.3192 C   0  0  0  0  0  0  0  0  0  0  0  0
  148.7980  133.9613  154.4920 C   0  0  0  0  0  0  0  0  0  0  0  0
  148.5886  135.3965  154.9309 C   0  0  0  0  0  0  0  0  0  0  0  0
  149.7323  136.2428  154.6053 N   0  0  0  0  0  0  0  0  0  0  0  0
  149.9332  137.3303  155.5589 C   0  0  0  0  0  0  0  0  0  0  0  0
  151.0901  138.2469  155.1284 C   0  0  2  0  0  0  0  0  0  0  0  0
  152.1166  137.4436  154.5799 O   0  0  0  0  0  0  0  0  0  0  0  0
  151.6632  139.0364  156.3219 C   0  0  0  0  0  0  0  0  0  0  0  0
  151.2375  140.4426  156.3368 N   0  0  0  0  0  0  0  0  0  0  0  0
  150.5184  141.1478  155.4217 C   0  0  0  0  0  0  0  0  0  0  0  0
  150.3856  142.4178  155.8949 N   0  3  0  0  0  0  0  0  0  0  0  0
  151.0306  142.5248  157.1291 C   0  0  0  0  0  0  0  0  0  0  0  0
  151.1746  143.6053  157.9912 C   0  0  0  0  0  0  0  0  0  0  0  0
  151.8969  143.3853  159.1859 C   0  0  0  0  0  0  0  0  0  0  0  0
  152.0762  144.5470  160.1487 C   0  0  0  0  0  0  0  0  0  0  0  0
  152.4444  142.1104  159.4841 C   0  0  0  0  0  0  0  0  0  0  0  0
  153.2182  141.8856  160.7723 C   0  0  0  0  0  0  0  0  0  0  0  0
  152.2862  141.0235  158.5945 C   0  0  0  0  0  0  0  0  0  0  0  0
  151.5759  141.2593  157.4202 C   0  0  0  0  0  0  0  0  0  0  0  0
  149.5904  133.1921  155.2714 N   0  0  0  0  0  0  0  0  0  0  0  0
  150.7638  130.0609  155.3709 H   0  0  0  0  0  0  0  0  0  0  0  0
  150.2574  131.0153  156.7680 H   0  0  0  0  0  0  0  0  0  0  0  0
  151.6669  131.5101  155.8224 H   0  0  0  0  0  0  0  0  0  0  0  0
  148.0496  131.6428  152.1309 H   0  0  0  0  0  0  0  0  0  0  0  0
  147.5625  134.0673  152.6923 H   0  0  0  0  0  0  0  0  0  0  0  0
  147.6883  135.7774  154.4473 H   0  0  0  0  0  0  0  0  0  0  0  0
  148.3991  135.4182  156.0053 H   0  0  0  0  0  0  0  0  0  0  0  0
  149.6072  136.6299  153.6755 H   0  0  0  0  0  0  0  0  0  0  0  0
  149.0176  137.9206  155.6161 H   0  0  0  0  0  0  0  0  0  0  0  0
  150.1098  136.9390  156.5619 H   0  0  0  0  0  0  0  0  0  0  0  0
  150.7468  138.9481  154.3663 H   0  0  0  0  0  0  0  0  0  0  0  0
  152.7872  138.0141  154.2351 H   0  0  0  0  0  0  0  0  0  0  0  0
  151.3772  138.5785  157.2695 H   0  0  0  0  0  0  0  0  0  0  0  0
  152.7538  139.0270  156.2927 H   0  0  0  0  0  0  0  0  0  0  0  0
  150.1224  140.7678  154.4907 H   0  0  0  0  0  0  0  0  0  0  0  0
  150.7539  144.5726  157.7580 H   0  0  0  0  0  0  0  0  0  0  0  0
  153.1343  144.7702  160.2864 H   0  0  0  0  0  0  0  0  0  0  0  0
  151.6427  144.3101  161.1203 H   0  0  0  0  0  0  0  0  0  0  0  0
  151.5907  145.4505  159.7792 H   0  0  0  0  0  0  0  0  0  0  0  0
  153.5678  140.8562  160.8537 H   0  0  0  0  0  0  0  0  0  0  0  0
  152.5898  142.0932  161.6387 H   0  0  0  0  0  0  0  0  0  0  0  0
  154.0911  142.5375  160.8126 H   0  0  0  0  0  0  0  0  0  0  0  0
  152.7023  140.0527  158.8202 H   0  0  0  0  0  0  0  0  0  0  0  0
  149.8898  143.1543  155.4094 H   0  0  0  0  0  0  0  0  0  0  0  0
  1  2  1  0  0  0  0
  1 25  1  0  0  0  0
  1 26  1  0  0  0  0
  1 27  1  0  0  0  0
  2 24  1  0  0  0  0
  2  3  2  0  0  0  0
  3  4  1  0  0  0  0
  4  5  2  0  0  0  0
  4 28  1  0  0  0  0
  5  6  1  0  0  0  0
  5 29  1  0  0  0  0
  6  7  1  0  0  0  0
  6 24  2  0  0  0  0
  7  8  1  0  0  0  0
  7 30  1  0  0  0  0
  7 31  1  0  0  0  0
  8  9  1  0  0  0  0
  8 32  1  0  0  0  0
  9 10  1  0  0  0  0
  9 33  1  0  0  0  0
  9 34  1  0  0  0  0
 10 11  1  0  0  0  0
 10 12  1  0  0  0  0
 10 35  1  0  0  0  0
 11 36  1  0  0  0  0
 12 13  1  0  0  0  0
 12 37  1  0  0  0  0
 12 38  1  0  0  0  0
 13 23  1  0  0  0  0
 13 14  1  0  0  0  0
 14 15  2  0  0  0  0
 14 39  1  0  0  0  0
 15 16  1  0  0  0  0
 15 48  1  0  0  0  0
 16 23  2  0  0  0  0
 16 17  1  0  0  0  0
 17 18  2  0  0  0  0
 17 40  1  0  0  0  0
 18 19  1  0  0  0  0
 18 20  1  0  0  0  0
 19 41  1  0  0  0  0
 19 42  1  0  0  0  0
 19 43  1  0  0  0  0
 20 21  1  0  0  0  0
 20 22  2  0  0  0  0
 21 44  1  0  0  0  0
 21 45  1  0  0  0  0
 21 46  1  0  0  0  0
 22 23  1  0  0  0  0
 22 47  1  0  0  0  0
M  CHG  1  15   1
M  END
> <s_m_source_file>
AV-unprocessed.smi

> <i_m_source_file_index>
1875

> <i_lp_mmshare_version>
43012

> <i_f3d_flags>
0

> <s_epik_input>
W0NIM11jMW5bY0hdW2NIXWMobjEpW0NIMl1bTkhdW0NIMl1bQ0BIXShbT0hdKVtDSDJdbihbY0hdbjIpYyhjMjMpW2NIXWMoW0NIM10pYyhbY0hdMylbQ0gzXQ==

> <s_epik_cmdline>
J2VwaWtfcHl0aG9uJywgJy1waCcsICc3LjAnLCAnLXRuJywgJzgnLCAnLW1hJywgJzIwMCcsICctbWV0YWxfYmluZGluZycsICctaW1hZScsICc8aW5maWxlLm1hZT4nLCAnLW9tYWUnLCAnPG91dGZpbGUubWFlPic=

> <r_epik_Ionization_Penalty>
2.02862

> <r_epik_Ionization_Penalty_Charging>
1.0004

> <r_epik_Ionization_Penalty_Neutral>
1.02823

> <r_epik_State_Penalty>
2.23022

> <r_epik_Charging_Adjusted_Penalty>
3.23062

> <i_epik_Tot_Q>
1

> <i_epik_Tot_abs_Q>
1

> <r_epik_Metal_State_Penalty>
2.31249

> <b_epik_Metal_Only>
0

> <s_epik_Chemistry_Notes>
This compound contains an electron-poor aromatic ring that is susceptible to covalent hydrolysis at low pH, typically resulting in measured values for nitrogen ring protonation that are around two units higher than predicted values.

> <s_lp_Force_Field>
OPLS_2005

> <r_lp_Energy>
18.1078

> <b_lp_Chiralities_Consistent>
1

> <s_lp_Variant>
AV-unprocessed.smi:1875-7

> <Gold.Version>
5.8.1

> <Gold.Id.Protein>
6NUR|6NUR_protein|mol2

> <Gold.PLP.Fitness>
61.2186

> <Gold.PLP.PLP>
-49.4331

> <Gold.PLP.part.hbond>
-3.0000

> <Gold.PLP.part.metal>
0.0000

> <Gold.PLP.part.buried>
-4.9147

> <Gold.PLP.part.nonpolar>
-41.3326

> <Gold.PLP.part.repulsive>
0.2199

> <Gold.PLP.ligand.clash>
0.0000

> <Gold.PLP.ligand.torsion>
1.3265

> <Gold.PLP.Chemscore.Hbond>
3.7760

> <Gold.PLP.Chemscore.CHOScore>
1.0000

> <Gold.PLP.Chemscore.Metal>
0.0000

> <Gold.Chemscore.Hbonds>
donor molecule, donor type, donor heavy atom, donor atom, acceptor molecule, acceptor atom, score
      L1  H     8    32       P1  7948  0.88
      L1  H    15    48       P1  8028  1.76
      P1  H 10752 10765       L1    11  0.83
      L1  C     4    28       P1 10747  1.00

> <Gold.PLP.Chemscore.Internal.Correction>
0.1105

> <Gold.Rescore>
     Score         DG    S(hbond)    S(metal)    S(lipo)     H(rot)  DE(clash)    DE(int)     intcor
     18.27     -19.82       2.20        0.00     121.09       2.80       0.13       1.42       ----

> <Gold.Chemscore.Fitness>
18.2676

> <Gold.Chemscore.DG>
-19.8166

> <Gold.Chemscore.ZeroCoef>
-5.4800

> <Gold.Chemscore.Hbond>
2.1991

> <Gold.Chemscore.Metal>
0.0000

> <Gold.Chemscore.Lipo>
121.0905

> <Gold.Chemscore.Internal_Hbond>
0.0000

> <Gold.Chemscore.DEClash>
0.1285

> <Gold.Chemscore.DEInternal>
1.4205

> <Gold.Chemscore.Rot>
2.8032

> <Gold.Chemscore.Internal.Correction>
   9.000000E+99

> <Gold.Chemscore.Hbonds>
donor molecule, donor type, donor heavy atom, donor atom, acceptor molecule, acceptor atom, score
      L1  H     8    32       P1  7948  0.60
      L1  H    15    48       P1  8028  0.86
      P1  H 10752 10765       L1    11  0.24

> <Gold.Chemscore.Hbond.Weighted>
-7.3451

> <Gold.Chemscore.Metal.Weighted>
-0.0000

> <Gold.Chemscore.Lipo.Weighted>
-14.1676

> <Gold.Chemscore.Internal_Hbond.Weighted>
0.0000

> <Gold.Chemscore.DEClash.Weighted>
0.1285

> <Gold.Chemscore.DEInternal.Weighted>
1.4205

> <Gold.Chemscore.Rot.Weighted>
7.1761

> <Gold.Chemscore.Internal.Correction.Weighted>
   9.000000E+99

> <Gold.Protein.RotatedTorsions>
[ 6907 6896 6895 6894 ] final   25.56 input  -60.11 | X-H torsion
[ 7974 7965 7964 7962 ] final -127.47 input  175.53 | X-H torsion
[ 8008 7997 7996 7995 ] final   10.91 input   59.86 | X-H torsion
[ 10167 10162 10161 10158 ] final  114.87 input  -65.29 | X-H torsion
[ 10718 10713 10712 10709 ] final  -59.70 input   66.30 | X-H torsion
[ 10763 10752 10751 10750 ] final  164.93 input  -60.55 | X-H torsion
[ 11005 11000 10999 10996 ] final  159.96 input  -57.11 | X-H torsion

> <Gold.Protein.ActiveResidues>
 VAL166  LYS551  ARG553  GLY616  TRP617  ASP618  TYR619  PRO620  LYS621  CYS622 
 ASP623  PHE694  ASN695  SER759  ASP760  ASP761  ALA762  ILE779  LEU786  VAL792 
 PHE793  MET794  SER795  GLU796  ALA797  LYS798  CYS799  TRP800  GLU811  SER814 

> <Gold.Protein.RotatedAtoms>
  151.9743  135.0061  160.0554 H   0  0  0  0  0  0  0  0  0  0  0  0  # atno 6907 bound_to 6896
  152.1754  133.4667  159.4939 H   0  0  0  0  0  0  0  0  0  0  0  0  # atno 6908 bound_to 6896
  150.6908  134.1817  159.4294 H   0  0  0  0  0  0  0  0  0  0  0  0  # atno 6909 bound_to 6896
  144.9768  140.7600  143.4637 H   0  0  0  0  0  0  0  0  0  0  0  0  # atno 7974 bound_to 7965
  154.7997  140.2850  155.5930 H   0  0  0  0  0  0  0  0  0  0  0  0  # atno 8008 bound_to 7997
  156.2975  140.2589  156.2792 H   0  0  0  0  0  0  0  0  0  0  0  0  # atno 8009 bound_to 7997
  154.9573  140.0378  157.2162 H   0  0  0  0  0  0  0  0  0  0  0  0  # atno 8010 bound_to 7997
  139.6358  144.7119  151.2338 H   0  0  0  0  0  0  0  0  0  0  0  0  # atno 10167 bound_to 10162
  156.1043  130.4182  150.0752 H   0  0  0  0  0  0  0  0  0  0  0  0  # atno 10718 bound_to 10713
  154.3163  135.2756  155.2541 H   0  0  0  0  0  0  0  0  0  0  0  0  # atno 10763 bound_to 10752
  154.4914  135.5832  153.6465 H   0  0  0  0  0  0  0  0  0  0  0  0  # atno 10764 bound_to 10752
  152.9882  135.6135  154.3345 H   0  0  0  0  0  0  0  0  0  0  0  0  # atno 10765 bound_to 10752
  140.2013  134.8336  157.3021 H   0  0  0  0  0  0  0  0  0  0  0  0  # atno 11005 bound_to 11000
  145.2479  139.2044  143.4958 LP  0  0  0  0  0  0  0  0  0  0  0  0  # atno 17320 bound_to 7965
  146.3397  140.2387  142.8595 LP  0  0  0  0  0  0  0  0  0  0  0  0  # atno 17321 bound_to 7965
  140.7464  143.6399  150.8344 LP  0  0  0  0  0  0  0  0  0  0  0  0  # atno 17342 bound_to 10162
  140.0030  143.5724  152.2868 LP  0  0  0  0  0  0  0  0  0  0  0  0  # atno 17343 bound_to 10162
  156.8731  130.9531  151.3607 LP  0  0  0  0  0  0  0  0  0  0  0  0  # atno 17370 bound_to 10713
  157.6217  130.8660  149.9120 LP  0  0  0  0  0  0  0  0  0  0  0  0  # atno 17371 bound_to 10713
  140.2051  134.4207  155.7642 LP  0  0  0  0  0  0  0  0  0  0  0  0  # atno 17394 bound_to 11000
  141.2227  133.7091  156.8247 LP  0  0  0  0  0  0  0  0  0  0  0  0  # atno 17395 bound_to 11000

$$$$
