AV-unprocessed.smi:1936|AV-procd|sdf|7829|dock1
  -GOLD-   22720 9573D 1   1.00000     0.00000
 Structure written by MMmdl.
 38 39  0  0  0  0  0  0  0  0  1 V2000
  145.5883  138.1600  154.7637 C   0  0  0  0  0  0  0  0  0  0  0  0
  146.8081  138.0149  153.8446 C   0  0  2  0  0  0  0  0  0  0  0  0
  147.5660  139.3501  153.6822 C   0  0  0  0  0  0  0  0  0  0  0  0
  148.7361  139.5164  154.5476 N   0  0  0  0  0  0  0  0  0  0  0  0
  149.1732  140.9063  154.6538 C   0  0  0  0  0  0  0  0  0  0  0  0
  150.4006  141.0495  155.5701 C   0  0  0  0  0  0  0  0  0  0  0  0
  151.4532  140.2146  155.0975 O   0  0  0  0  0  0  0  0  0  0  0  0
  151.0761  138.8437  155.0197 C   0  0  0  0  0  0  0  0  0  0  0  0
  149.8545  138.6975  154.0964 C   0  0  0  0  0  0  0  0  0  0  0  0
  146.3833  137.5337  152.5323 N   0  0  0  0  0  0  0  0  0  0  0  0
  145.7100  136.3976  152.2936 C   0  0  0  0  0  0  0  0  0  0  0  0
  145.2224  135.6916  153.1759 O   0  0  0  0  0  0  0  0  0  0  0  0
  145.6107  135.9714  150.8296 C   0  0  0  0  0  0  0  0  0  0  0  0
  145.4970  134.5260  150.7280 N   0  0  0  0  0  0  0  0  0  0  0  0
  144.4382  133.7789  150.2525 C   0  0  0  0  0  0  0  0  0  0  0  0
  144.7970  132.4643  150.3353 C   0  0  0  0  0  0  0  0  0  0  0  0
  146.1109  132.5069  150.8799 C   0  0  0  0  0  0  0  0  0  0  0  0
  146.5267  133.7411  151.1142 N   0  0  0  0  0  0  0  0  0  0  0  0
  145.8838  138.5115  155.7526 H   0  0  0  0  0  0  0  0  0  0  0  0
  145.0786  137.2046  154.8928 H   0  0  0  0  0  0  0  0  0  0  0  0
  144.8667  138.8709  154.3594 H   0  0  0  0  0  0  0  0  0  0  0  0
  147.4802  137.2940  154.3120 H   0  0  0  0  0  0  0  0  0  0  0  0
  147.8924  139.4210  152.6436 H   0  0  0  0  0  0  0  0  0  0  0  0
  146.8751  140.1810  153.8329 H   0  0  0  0  0  0  0  0  0  0  0  0
  149.4121  141.2965  153.6634 H   0  0  0  0  0  0  0  0  0  0  0  0
  148.3709  141.5277  155.0507 H   0  0  0  0  0  0  0  0  0  0  0  0
  150.7444  142.0839  155.5844 H   0  0  0  0  0  0  0  0  0  0  0  0
  150.1476  140.7826  156.5972 H   0  0  0  0  0  0  0  0  0  0  0  0
  151.9150  138.2638  154.6350 H   0  0  0  0  0  0  0  0  0  0  0  0
  150.8536  138.4633  156.0178 H   0  0  0  0  0  0  0  0  0  0  0  0
  149.5557  137.6493  154.0597 H   0  0  0  0  0  0  0  0  0  0  0  0
  150.1332  138.9788  153.0795 H   0  0  0  0  0  0  0  0  0  0  0  0
  146.7323  138.0447  151.7347 H   0  0  0  0  0  0  0  0  0  0  0  0
  144.7456  136.4414  150.3586 H   0  0  0  0  0  0  0  0  0  0  0  0
  146.4949  136.2965  150.2795 H   0  0  0  0  0  0  0  0  0  0  0  0
  143.5302  134.2404  149.8924 H   0  0  0  0  0  0  0  0  0  0  0  0
  144.2124  131.6038  150.0462 H   0  0  0  0  0  0  0  0  0  0  0  0
  146.7713  131.6833  151.1085 H   0  0  0  0  0  0  0  0  0  0  0  0
  1  2  1  0  0  0  0
  1 19  1  0  0  0  0
  1 20  1  0  0  0  0
  1 21  1  0  0  0  0
  2  3  1  0  0  0  0
  2 10  1  0  0  0  0
  2 22  1  0  0  0  0
  3  4  1  0  0  0  0
  3 23  1  0  0  0  0
  3 24  1  0  0  0  0
  4  9  1  0  0  0  0
  4  5  1  0  0  0  0
  5  6  1  0  0  0  0
  5 25  1  0  0  0  0
  5 26  1  0  0  0  0
  6  7  1  0  0  0  0
  6 27  1  0  0  0  0
  6 28  1  0  0  0  0
  7  8  1  0  0  0  0
  8  9  1  0  0  0  0
  8 29  1  0  0  0  0
  8 30  1  0  0  0  0
  9 31  1  0  0  0  0
  9 32  1  0  0  0  0
 10 11  1  0  0  0  0
 10 33  1  0  0  0  0
 11 12  2  0  0  0  0
 11 13  1  0  0  0  0
 13 14  1  0  0  0  0
 13 34  1  0  0  0  0
 13 35  1  0  0  0  0
 14 18  1  0  0  0  0
 14 15  1  0  0  0  0
 15 16  2  0  0  0  0
 15 36  1  0  0  0  0
 16 17  1  0  0  0  0
 16 37  1  0  0  0  0
 17 18  2  0  0  0  0
 17 38  1  0  0  0  0
M  END
> <s_m_source_file>
AV-unprocessed.smi

> <i_m_source_file_index>
1936

> <i_lp_mmshare_version>
43012

> <i_f3d_flags>
0

> <s_epik_input>
W0NIMl0xW0NIMl1PW0NIMl1bQ0gyXU4xW0NIMl1bQ0BASF0oW0NIM10pW05IXUMoPU8pW0NIMl1uMltjSF1bY0hdW2NIXW4y

> <s_epik_cmdline>
J2VwaWtfcHl0aG9uJywgJy1waCcsICc3LjAnLCAnLXRuJywgJzgnLCAnLW1hJywgJzIwMCcsICctbWV0YWxfYmluZGluZycsICctaW1hZScsICc8aW5maWxlLm1hZT4nLCAnLW9tYWUnLCAnPG91dGZpbGUubWFlPic=

> <r_lp_tautomer_probability>
1

> <r_epik_Ionization_Penalty>
0.196927

> <r_epik_Ionization_Penalty_Charging>
0

> <r_epik_Ionization_Penalty_Neutral>
0.196927

> <r_epik_State_Penalty>
0.186684

> <r_epik_Charging_Adjusted_Penalty>
0.186684

> <i_epik_Tot_Q>
0

> <i_epik_Tot_abs_Q>
0

> <r_epik_Metal_State_Penalty>
0.186682

> <b_epik_Metal_Only>
0

> <s_lp_Force_Field>
OPLS_2005

> <r_lp_Energy>
24.3888

> <b_lp_Chiralities_Consistent>
1

> <s_lp_Variant>
AV-unprocessed.smi:1936-1

> <Gold.Version>
5.8.1

> <Gold.Id.Protein>
6NUR|6NUR_protein|mol2

> <Gold.PLP.Fitness>
38.7476

> <Gold.PLP.PLP>
-31.7101

> <Gold.PLP.part.hbond>
-2.0000

> <Gold.PLP.part.metal>
0.0000

> <Gold.PLP.part.buried>
-4.1602

> <Gold.PLP.part.nonpolar>
-25.6304

> <Gold.PLP.part.repulsive>
0.4719

> <Gold.PLP.ligand.clash>
0.0000

> <Gold.PLP.ligand.torsion>
1.0522

> <Gold.PLP.Chemscore.Hbond>
1.0000

> <Gold.PLP.Chemscore.CHOScore>
2.0000

> <Gold.PLP.Chemscore.Metal>
0.0000

> <Gold.Chemscore.Hbonds>
donor molecule, donor type, donor heavy atom, donor atom, acceptor molecule, acceptor atom, score
      P1  H  7989  7998       L1     7  1.00
      L1  C    15    36       P1 10186  0.96
      L1  C    17    38       P1 10747  1.00

> <Gold.PLP.Chemscore.Internal.Correction>
0.1419

> <Gold.Rescore>
     Score         DG    S(hbond)    S(metal)    S(lipo)     H(rot)  DE(clash)    DE(int)     intcor
      9.24     -11.70       0.72        0.00      73.11       1.85       0.17       2.29       ----

> <Gold.Chemscore.Fitness>
9.2389

> <Gold.Chemscore.DG>
-11.6964

> <Gold.Chemscore.ZeroCoef>
-5.4800

> <Gold.Chemscore.Hbond>
0.7220

> <Gold.Chemscore.Metal>
0.0000

> <Gold.Chemscore.Lipo>
73.1070

> <Gold.Chemscore.Internal_Hbond>
0.0000

> <Gold.Chemscore.DEClash>
0.1656

> <Gold.Chemscore.DEInternal>
2.2919

> <Gold.Chemscore.Rot>
1.8549

> <Gold.Chemscore.Internal.Correction>
   9.000000E+99

> <Gold.Chemscore.Hbonds>
donor molecule, donor type, donor heavy atom, donor atom, acceptor molecule, acceptor atom, score
      P1  H  7989  7998       L1     7  0.18

> <Gold.Chemscore.Hbond.Weighted>
-2.4114

> <Gold.Chemscore.Metal.Weighted>
-0.0000

> <Gold.Chemscore.Lipo.Weighted>
-8.5535

> <Gold.Chemscore.Internal_Hbond.Weighted>
0.0000

> <Gold.Chemscore.DEClash.Weighted>
0.1656

> <Gold.Chemscore.DEInternal.Weighted>
2.2919

> <Gold.Chemscore.Rot.Weighted>
4.7485

> <Gold.Chemscore.Internal.Correction.Weighted>
   9.000000E+99

> <Gold.Protein.RotatedTorsions>
[ 6907 6896 6895 6894 ] final  140.53 input  -60.11 | X-H torsion
[ 7974 7965 7964 7962 ] final  -63.37 input  175.53 | X-H torsion
[ 8008 7997 7996 7995 ] final -156.45 input   59.86 | X-H torsion
[ 10167 10162 10161 10158 ] final -162.22 input  -65.29 | X-H torsion
[ 10718 10713 10712 10709 ] final   74.53 input   66.30 | X-H torsion
[ 10763 10752 10751 10750 ] final -167.69 input  -60.55 | X-H torsion
[ 11005 11000 10999 10996 ] final  -99.57 input  -57.11 | X-H torsion

> <Gold.Protein.ActiveResidues>
 VAL166  LYS551  ARG553  GLY616  TRP617  ASP618  TYR619  PRO620  LYS621  CYS622 
 ASP623  PHE694  ASN695  SER759  ASP760  ASP761  ALA762  ILE779  LEU786  VAL792 
 PHE793  MET794  SER795  GLU796  ALA797  LYS798  CYS799  TRP800  GLU811  SER814 

> <Gold.Protein.RotatedAtoms>
  152.2419  133.5142  159.5274 H   0  0  0  0  0  0  0  0  0  0  0  0  # atno 6907 bound_to 6896
  150.7067  134.1078  159.3998 H   0  0  0  0  0  0  0  0  0  0  0  0  # atno 6908 bound_to 6896
  151.8998  135.0382  160.0556 H   0  0  0  0  0  0  0  0  0  0  0  0  # atno 6909 bound_to 6896
  145.7799  140.8768  143.0336 H   0  0  0  0  0  0  0  0  0  0  0  0  # atno 7974 bound_to 7965
  155.7174  140.0786  157.2345 H   0  0  0  0  0  0  0  0  0  0  0  0  # atno 8008 bound_to 7997
  154.4050  140.1619  156.2418 H   0  0  0  0  0  0  0  0  0  0  0  0  # atno 8009 bound_to 7997
  155.9228  140.3396  155.6189 H   0  0  0  0  0  0  0  0  0  0  0  0  # atno 8010 bound_to 7997
  139.6408  144.0263  152.2090 H   0  0  0  0  0  0  0  0  0  0  0  0  # atno 10167 bound_to 10162
  157.6596  130.9682  150.1224 H   0  0  0  0  0  0  0  0  0  0  0  0  # atno 10718 bound_to 10713
  154.6705  135.2938  154.9747 H   0  0  0  0  0  0  0  0  0  0  0  0  # atno 10763 bound_to 10752
  154.0776  135.6609  153.4837 H   0  0  0  0  0  0  0  0  0  0  0  0  # atno 10764 bound_to 10752
  153.0484  135.5189  154.7699 H   0  0  0  0  0  0  0  0  0  0  0  0  # atno 10765 bound_to 10752
  141.1303  133.8332  157.0989 H   0  0  0  0  0  0  0  0  0  0  0  0  # atno 11005 bound_to 11000
  144.6798  139.9974  143.7484 LP  0  0  0  0  0  0  0  0  0  0  0  0  # atno 17320 bound_to 7965
  146.0085  139.3150  143.0885 LP  0  0  0  0  0  0  0  0  0  0  0  0  # atno 17321 bound_to 7965
  139.9952  144.6333  150.7778 LP  0  0  0  0  0  0  0  0  0  0  0  0  # atno 17342 bound_to 10162
  140.7490  143.2931  151.3278 LP  0  0  0  0  0  0  0  0  0  0  0  0  # atno 17343 bound_to 10162
  156.2092  130.3665  149.8691 LP  0  0  0  0  0  0  0  0  0  0  0  0  # atno 17370 bound_to 10713
  156.6575  130.8768  151.3542 LP  0  0  0  0  0  0  0  0  0  0  0  0  # atno 17371 bound_to 10713
  140.0345  134.9885  157.0845 LP  0  0  0  0  0  0  0  0  0  0  0  0  # atno 17394 bound_to 11000
  140.4232  134.1859  155.7165 LP  0  0  0  0  0  0  0  0  0  0  0  0  # atno 17395 bound_to 11000

$$$$
