AV-unprocessed.smi:2060|AV-procd|sdf|8357|dock3
  -GOLD-   2272011 23D 1   1.00000     0.00000
 Structure written by MMmdl.
 46 47  0  0  0  0  0  0  0  0  2 V2000
  145.6245  136.5033  155.9394 C   0  0  0  0  0  0  0  0  0  0  0  0
  145.5446  136.2084  154.4305 C   0  0  0  0  0  0  0  0  0  0  0  0
  145.2653  137.4406  153.5157 C   0  0  2  0  0  0  0  0  0  0  0  0
  145.5138  136.9927  152.0511 C   0  0  0  0  0  0  0  0  0  0  0  0
  146.2560  138.5881  153.8884 C   0  0  0  0  0  0  0  0  0  0  0  0
  147.6631  138.2420  153.6878 N   0  0  0  0  0  0  0  0  0  0  0  0
  148.7073  138.8479  154.2723 C   0  0  0  0  0  0  0  0  0  0  0  0
  148.5953  139.7966  155.0490 O   0  0  0  0  0  0  0  0  0  0  0  0
  149.8693  138.2881  153.8957 N   0  0  0  0  0  0  0  0  0  0  0  0
  151.1780  138.6646  154.2913 C   0  0  0  0  0  0  0  0  0  0  0  0
  152.2737  137.7775  154.1205 C   0  0  0  0  0  0  0  0  0  0  0  0
  153.3290  138.4941  154.6109 C   0  0  0  0  0  0  0  0  0  0  0  0
  154.7820  138.1924  154.7490 C   0  0  0  0  0  0  0  0  0  0  0  0
  152.9128  139.7162  155.0409 O   0  0  0  0  0  0  0  0  0  0  0  0
  151.5323  139.8198  154.8334 N   0  0  0  0  0  0  0  0  0  0  0  0
  143.8365  137.8988  153.6766 N   0  3  0  0  0  0  0  0  0  0  0  0
  142.7897  136.9477  153.2053 C   0  0  0  0  0  0  0  0  0  0  0  0
  141.4046  137.6141  153.2322 C   0  0  0  0  0  0  0  0  0  0  0  0
  141.1160  138.0581  154.5504 O   0  0  0  0  0  0  0  0  0  0  0  0
  142.0522  139.0301  154.9939 C   0  0  0  0  0  0  0  0  0  0  0  0
  143.4636  138.4194  155.0231 C   0  0  0  0  0  0  0  0  0  0  0  0
  145.8206  135.5861  156.4949 H   0  0  0  0  0  0  0  0  0  0  0  0
  144.6922  136.9178  156.3219 H   0  0  0  0  0  0  0  0  0  0  0  0
  146.4268  137.2018  156.1765 H   0  0  0  0  0  0  0  0  0  0  0  0
  146.4582  135.7017  154.1205 H   0  0  0  0  0  0  0  0  0  0  0  0
  144.7622  135.4627  154.2856 H   0  0  0  0  0  0  0  0  0  0  0  0
  146.4479  136.4393  151.9498 H   0  0  0  0  0  0  0  0  0  0  0  0
  145.5869  137.8408  151.3701 H   0  0  0  0  0  0  0  0  0  0  0  0
  144.7172  136.3452  151.6841 H   0  0  0  0  0  0  0  0  0  0  0  0
  146.0220  139.5011  153.3406 H   0  0  0  0  0  0  0  0  0  0  0  0
  146.1618  138.8448  154.9428 H   0  0  0  0  0  0  0  0  0  0  0  0
  147.8540  137.4725  153.0627 H   0  0  0  0  0  0  0  0  0  0  0  0
  149.8137  137.5079  153.2578 H   0  0  0  0  0  0  0  0  0  0  0  0
  152.2870  136.7797  153.7079 H   0  0  0  0  0  0  0  0  0  0  0  0
  154.9540  137.1164  154.7818 H   0  0  0  0  0  0  0  0  0  0  0  0
  155.1849  138.6259  155.6647 H   0  0  0  0  0  0  0  0  0  0  0  0
  155.3418  138.5991  153.9066 H   0  0  0  0  0  0  0  0  0  0  0  0
  142.9799  136.6127  152.1878 H   0  0  0  0  0  0  0  0  0  0  0  0
  142.7705  136.0602  153.8382 H   0  0  0  0  0  0  0  0  0  0  0  0
  141.3592  138.4497  152.5318 H   0  0  0  0  0  0  0  0  0  0  0  0
  140.6394  136.9004  152.9265 H   0  0  0  0  0  0  0  0  0  0  0  0
  142.0209  139.9070  154.3451 H   0  0  0  0  0  0  0  0  0  0  0  0
  141.7674  139.3631  155.9921 H   0  0  0  0  0  0  0  0  0  0  0  0
  143.4962  137.6177  155.7611 H   0  0  0  0  0  0  0  0  0  0  0  0
  144.1483  139.1951  155.3603 H   0  0  0  0  0  0  0  0  0  0  0  0
  143.7616  138.6969  153.0620 H   0  0  0  0  0  0  0  0  0  0  0  0
  1  2  1  0  0  0  0
  1 22  1  0  0  0  0
  1 23  1  0  0  0  0
  1 24  1  0  0  0  0
  2  3  1  0  0  0  0
  2 25  1  0  0  0  0
  2 26  1  0  0  0  0
  3  4  1  0  0  0  0
  3  5  1  0  0  0  0
  3 16  1  0  0  0  0
  4 27  1  0  0  0  0
  4 28  1  0  0  0  0
  4 29  1  0  0  0  0
  5  6  1  0  0  0  0
  5 30  1  0  0  0  0
  5 31  1  0  0  0  0
  6  7  1  0  0  0  0
  6 32  1  0  0  0  0
  7  8  2  0  0  0  0
  7  9  1  0  0  0  0
  9 10  1  0  0  0  0
  9 33  1  0  0  0  0
 10 15  2  0  0  0  0
 10 11  1  0  0  0  0
 11 12  2  0  0  0  0
 11 34  1  0  0  0  0
 12 13  1  0  0  0  0
 12 14  1  0  0  0  0
 13 35  1  0  0  0  0
 13 36  1  0  0  0  0
 13 37  1  0  0  0  0
 14 15  1  0  0  0  0
 16 21  1  0  0  0  0
 16 17  1  0  0  0  0
 16 46  1  0  0  0  0
 17 18  1  0  0  0  0
 17 38  1  0  0  0  0
 17 39  1  0  0  0  0
 18 19  1  0  0  0  0
 18 40  1  0  0  0  0
 18 41  1  0  0  0  0
 19 20  1  0  0  0  0
 20 21  1  0  0  0  0
 20 42  1  0  0  0  0
 20 43  1  0  0  0  0
 21 44  1  0  0  0  0
 21 45  1  0  0  0  0
M  CHG  1  16   1
M  END
> <s_m_source_file>
AV-unprocessed.smi

> <i_m_source_file_index>
2060

> <i_lp_mmshare_version>
43012

> <i_f3d_flags>
0

> <s_epik_input>
W0NIMl0xW0NIMl1PW0NIMl1bQ0gyXU4xW0NAQF0oW0NIM10pKFtDSDJdW0NIM10pW0NIMl1bTkhdQyg9TylbTkhdYzJbY0hdYyhbQ0gzXSlvbjI=

> <s_epik_cmdline>
J2VwaWtfcHl0aG9uJywgJy1waCcsICc3LjAnLCAnLXRuJywgJzgnLCAnLW1hJywgJzIwMCcsICctbWV0YWxfYmluZGluZycsICctaW1hZScsICc8aW5maWxlLm1hZT4nLCAnLW9tYWUnLCAnPG91dGZpbGUubWFlPic=

> <r_epik_Ionization_Penalty>
0.563843

> <r_epik_Ionization_Penalty_Charging>
0.563819

> <r_epik_Ionization_Penalty_Neutral>
2.4442e-05

> <r_epik_State_Penalty>
0.575199

> <r_epik_Charging_Adjusted_Penalty>
1.13902

> <i_epik_Tot_Q>
1

> <i_epik_Tot_abs_Q>
1

> <r_epik_Metal_State_Penalty>
0.577669

> <b_epik_Metal_Only>
0

> <s_lp_Force_Field>
OPLS_2005

> <r_lp_Energy>
25.7644

> <b_lp_Chiralities_Consistent>
1

> <s_lp_Variant>
AV-unprocessed.smi:2060-4

> <Gold.Version>
5.8.1

> <Gold.Id.Protein>
6NUR|6NUR_protein|mol2

> <Gold.PLP.Fitness>
39.9660

> <Gold.PLP.PLP>
-23.2007

> <Gold.PLP.part.hbond>
-6.3419

> <Gold.PLP.part.metal>
0.0000

> <Gold.PLP.part.buried>
1.2333

> <Gold.PLP.part.nonpolar>
-18.6778

> <Gold.PLP.part.repulsive>
0.2708

> <Gold.PLP.ligand.clash>
0.0000

> <Gold.PLP.ligand.torsion>
0.3649

> <Gold.PLP.Chemscore.Hbond>
5.7500

> <Gold.PLP.Chemscore.CHOScore>
0.0000

> <Gold.PLP.Chemscore.Metal>
0.0000

> <Gold.Chemscore.Hbonds>
donor molecule, donor type, donor heavy atom, donor atom, acceptor molecule, acceptor atom, score
      L1  H     6    32       P1  7948  0.98
      L1  H     9    33       P1  7948  0.99
      L1  H    16    46       P1 10175  2.00
      P1  H  7989  7998       L1    15  0.75
      P1  H  7997  8009       L1    14  0.95

> <Gold.PLP.Chemscore.Internal.Correction>
0.2450

> <Gold.Rescore>
     Score         DG    S(hbond)    S(metal)    S(lipo)     H(rot)  DE(clash)    DE(int)     intcor
     14.56     -17.36       3.02        0.00      54.13       1.77       1.16       1.64       ----

> <Gold.Chemscore.Fitness>
14.5620

> <Gold.Chemscore.DG>
-17.3616

> <Gold.Chemscore.ZeroCoef>
-5.4800

> <Gold.Chemscore.Hbond>
3.0154

> <Gold.Chemscore.Metal>
0.0000

> <Gold.Chemscore.Lipo>
54.1345

> <Gold.Chemscore.Internal_Hbond>
0.0000

> <Gold.Chemscore.DEClash>
1.1596

> <Gold.Chemscore.DEInternal>
1.6400

> <Gold.Chemscore.Rot>
1.7670

> <Gold.Chemscore.Internal.Correction>
   9.000000E+99

> <Gold.Chemscore.Hbonds>
donor molecule, donor type, donor heavy atom, donor atom, acceptor molecule, acceptor atom, score
      L1  H     6    32       P1  7948  0.90
      L1  H     9    33       P1  7948  0.51
      L1  H    16    46       P1 10175  1.00
      P1  H  7989  7998       L1    15  0.04
      P1  H  7997  8009       L1    14  0.21

> <Gold.Chemscore.Hbond.Weighted>
-10.0714

> <Gold.Chemscore.Metal.Weighted>
-0.0000

> <Gold.Chemscore.Lipo.Weighted>
-6.3337

> <Gold.Chemscore.Internal_Hbond.Weighted>
0.0000

> <Gold.Chemscore.DEClash.Weighted>
1.1596

> <Gold.Chemscore.DEInternal.Weighted>
1.6400

> <Gold.Chemscore.Rot.Weighted>
4.5235

> <Gold.Chemscore.Internal.Correction.Weighted>
   9.000000E+99

> <Gold.Protein.RotatedTorsions>
[ 6907 6896 6895 6894 ] final   24.11 input  -60.11 | X-H torsion
[ 7974 7965 7964 7962 ] final  -99.59 input  175.53 | X-H torsion
[ 8008 7997 7996 7995 ] final -155.20 input   59.86 | X-H torsion
[ 10167 10162 10161 10158 ] final  132.21 input  -65.29 | X-H torsion
[ 10718 10713 10712 10709 ] final -106.21 input   66.30 | X-H torsion
[ 10763 10752 10751 10750 ] final -153.72 input  -60.55 | X-H torsion
[ 11005 11000 10999 10996 ] final   16.34 input  -57.11 | X-H torsion

> <Gold.Protein.ActiveResidues>
 VAL166  LYS551  ARG553  GLY616  TRP617  ASP618  TYR619  PRO620  LYS621  CYS622 
 ASP623  PHE694  ASN695  SER759  ASP760  ASP761  ALA762  ILE779  LEU786  VAL792 
 PHE793  MET794  SER795  GLU796  ALA797  LYS798  CYS799  TRP800  GLU811  SER814 

> <Gold.Protein.RotatedAtoms>
  151.9526  135.0162  160.0542 H   0  0  0  0  0  0  0  0  0  0  0  0  # atno 6907 bound_to 6896
  152.1939  133.4788  159.5031 H   0  0  0  0  0  0  0  0  0  0  0  0  # atno 6908 bound_to 6896
  150.6940  134.1594  159.4213 H   0  0  0  0  0  0  0  0  0  0  0  0  # atno 6909 bound_to 6896
  145.3056  140.9388  143.2799 H   0  0  0  0  0  0  0  0  0  0  0  0  # atno 7974 bound_to 7965
  155.6982  140.0763  157.2421 H   0  0  0  0  0  0  0  0  0  0  0  0  # atno 8008 bound_to 7997
  154.4077  140.1652  156.2214 H   0  0  0  0  0  0  0  0  0  0  0  0  # atno 8009 bound_to 7997
  155.9392  140.3386  155.6316 H   0  0  0  0  0  0  0  0  0  0  0  0  # atno 8010 bound_to 7997
  139.5350  144.6672  151.4818 H   0  0  0  0  0  0  0  0  0  0  0  0  # atno 10167 bound_to 10162
  156.0380  130.5601  150.7648 H   0  0  0  0  0  0  0  0  0  0  0  0  # atno 10718 bound_to 10713
  154.7909  135.3206  154.7780 H   0  0  0  0  0  0  0  0  0  0  0  0  # atno 10763 bound_to 10752
  153.8469  135.6866  153.4801 H   0  0  0  0  0  0  0  0  0  0  0  0  # atno 10764 bound_to 10752
  153.1578  135.4673  154.9670 H   0  0  0  0  0  0  0  0  0  0  0  0  # atno 10765 bound_to 10752
  140.4482  134.1252  155.7699 H   0  0  0  0  0  0  0  0  0  0  0  0  # atno 11005 bound_to 11000
  144.9057  139.4592  143.6611 LP  0  0  0  0  0  0  0  0  0  0  0  0  # atno 17320 bound_to 7965
  146.3136  139.7837  142.9000 LP  0  0  0  0  0  0  0  0  0  0  0  0  # atno 17321 bound_to 7965
  140.6551  143.8617  150.6826 LP  0  0  0  0  0  0  0  0  0  0  0  0  # atno 17342 bound_to 10162
  140.1994  143.3972  152.1803 LP  0  0  0  0  0  0  0  0  0  0  0  0  # atno 17343 bound_to 10162
  157.5158  131.0928  151.0141 LP  0  0  0  0  0  0  0  0  0  0  0  0  # atno 17370 bound_to 10713
  157.0485  130.5777  149.5366 LP  0  0  0  0  0  0  0  0  0  0  0  0  # atno 17371 bound_to 10713
  141.1676  133.8672  157.1668 LP  0  0  0  0  0  0  0  0  0  0  0  0  # atno 17394 bound_to 11000
  140.0025  135.0022  157.0220 LP  0  0  0  0  0  0  0  0  0  0  0  0  # atno 17395 bound_to 11000

$$$$
