AV-unprocessed.smi:247|AV-procd|sdf|1894|dock3
  -GOLD-   2262020563D 1   1.00000     0.00000
 Structure written by MMmdl.
 61 65  0  0  0  0  0  0  0  0  1 V2000
  144.4078  133.9866  154.2680 O   0  0  0  0  0  0  0  0  0  0  0  0
  145.6895  133.7772  153.7079 C   0  0  0  0  0  0  0  0  0  0  0  0
  145.6546  133.4417  152.1908 C   0  0  0  0  0  0  0  0  0  0  0  0
  147.1236  133.3232  151.6744 C   0  0  0  0  0  0  0  0  0  0  0  0
  147.9767  132.4231  152.4378 N   0  0  0  0  0  0  0  0  0  0  0  0
  147.8572  131.0544  152.5313 C   0  0  0  0  0  0  0  0  0  0  0  0
  148.7526  130.4659  153.2756 N   0  0  0  0  0  0  0  0  0  0  0  0
  149.5637  131.5044  153.7174 C   0  0  0  0  0  0  0  0  0  0  0  0
  150.7199  131.5752  154.5453 C   0  0  0  0  0  0  0  0  0  0  0  0
  151.2690  130.4786  155.1297 N   0  0  0  0  0  0  0  0  0  0  0  0
  150.4156  129.7448  156.0584 C   0  0  0  0  0  0  0  0  0  0  0  0
  151.3248  129.2686  157.1950 C   0  0  0  0  0  0  0  0  0  0  0  0
  152.7153  129.2694  156.5689 C   0  0  0  0  0  0  0  0  0  0  0  0
  152.6482  130.4728  155.6195 C   0  0  1  0  0  0  0  0  0  0  0  0
  153.7354  130.5256  154.5044 C   0  0  1  0  0  0  0  0  0  0  0  0
  155.1296  130.7573  155.1274 C   0  0  0  0  0  0  0  0  0  0  0  0
  156.1209  130.9012  154.1161 O   0  0  0  0  0  0  0  0  0  0  0  0
  156.2711  129.7339  153.3179 C   0  0  0  0  0  0  0  0  0  0  0  0
  154.9602  129.4529  152.5712 C   0  0  0  0  0  0  0  0  0  0  0  0
  153.7972  129.2967  153.5615 C   0  0  2  0  0  0  0  0  0  0  0  0
  152.6088  129.1554  152.8092 O   0  0  0  0  0  0  0  0  0  0  0  0
  151.2691  132.8027  154.7445 N   0  0  0  0  0  0  0  0  0  0  0  0
  150.7294  133.8857  154.1785 C   0  0  0  0  0  0  0  0  0  0  0  0
  149.6550  133.9680  153.3920 N   0  0  0  0  0  0  0  0  0  0  0  0
  149.0974  132.7404  153.1868 C   0  0  0  0  0  0  0  0  0  0  0  0
  144.8500  132.1362  151.9594 C   0  0  0  0  0  0  0  0  0  0  0  0
  144.5791  131.8720  150.4675 C   0  0  0  0  0  0  0  0  0  0  0  0
  143.8893  132.9786  149.8991 O   0  0  0  0  0  0  0  0  0  0  0  0
  144.6377  134.1874  149.9467 C   0  0  0  0  0  0  0  0  0  0  0  0
  144.9359  134.5719  151.4088 C   0  0  0  0  0  0  0  0  0  0  0  0
  143.9976  133.1458  154.4014 H   0  0  0  0  0  0  0  0  0  0  0  0
  146.2842  134.6744  153.8838 H   0  0  0  0  0  0  0  0  0  0  0  0
  146.1582  132.9714  154.2726 H   0  0  0  0  0  0  0  0  0  0  0  0
  147.1564  132.9927  150.6375 H   0  0  0  0  0  0  0  0  0  0  0  0
  147.5935  134.3078  151.6754 H   0  0  0  0  0  0  0  0  0  0  0  0
  147.0757  130.5018  152.0304 H   0  0  0  0  0  0  0  0  0  0  0  0
  149.5941  130.3519  156.4421 H   0  0  0  0  0  0  0  0  0  0  0  0
  149.9868  128.8909  155.5331 H   0  0  0  0  0  0  0  0  0  0  0  0
  151.2936  129.9870  158.0152 H   0  0  0  0  0  0  0  0  0  0  0  0
  151.0347  128.2947  157.5902 H   0  0  0  0  0  0  0  0  0  0  0  0
  153.5096  129.3560  157.3107 H   0  0  0  0  0  0  0  0  0  0  0  0
  152.8586  128.3361  156.0262 H   0  0  0  0  0  0  0  0  0  0  0  0
  152.7647  131.3643  156.2382 H   0  0  0  0  0  0  0  0  0  0  0  0
  153.5352  131.3979  153.8816 H   0  0  0  0  0  0  0  0  0  0  0  0
  155.1242  131.6667  155.7289 H   0  0  0  0  0  0  0  0  0  0  0  0
  155.4052  129.9398  155.7951 H   0  0  0  0  0  0  0  0  0  0  0  0
  157.0807  129.8951  152.6059 H   0  0  0  0  0  0  0  0  0  0  0  0
  156.5571  128.8847  153.9403 H   0  0  0  0  0  0  0  0  0  0  0  0
  154.7577  130.2759  151.8840 H   0  0  0  0  0  0  0  0  0  0  0  0
  155.0631  128.5542  151.9617 H   0  0  0  0  0  0  0  0  0  0  0  0
  153.9530  128.3827  154.1332 H   0  0  0  0  0  0  0  0  0  0  0  0
  152.8085  128.6688  152.0237 H   0  0  0  0  0  0  0  0  0  0  0  0
  151.2287  134.8204  154.3879 H   0  0  0  0  0  0  0  0  0  0  0  0
  145.3470  131.2796  152.4127 H   0  0  0  0  0  0  0  0  0  0  0  0
  143.8827  132.2053  152.4579 H   0  0  0  0  0  0  0  0  0  0  0  0
  145.5003  131.6781  149.9178 H   0  0  0  0  0  0  0  0  0  0  0  0
  143.9584  130.9830  150.3565 H   0  0  0  0  0  0  0  0  0  0  0  0
  145.5504  134.0889  149.3589 H   0  0  0  0  0  0  0  0  0  0  0  0
  144.0513  134.9745  149.4725 H   0  0  0  0  0  0  0  0  0  0  0  0
  143.9824  134.8096  151.8809 H   0  0  0  0  0  0  0  0  0  0  0  0
  145.5222  135.4908  151.4411 H   0  0  0  0  0  0  0  0  0  0  0  0
  1  2  1  0  0  0  0
  1 31  1  0  0  0  0
  2  3  1  0  0  0  0
  2 32  1  0  0  0  0
  2 33  1  0  0  0  0
  3 30  1  0  0  0  0
  3  4  1  0  0  0  0
  3 26  1  0  0  0  0
  4  5  1  0  0  0  0
  4 34  1  0  0  0  0
  4 35  1  0  0  0  0
  5 25  1  0  0  0  0
  5  6  1  0  0  0  0
  6  7  2  0  0  0  0
  6 36  1  0  0  0  0
  7  8  1  0  0  0  0
  8 25  2  0  0  0  0
  8  9  1  0  0  0  0
  9 10  1  0  0  0  0
  9 22  2  0  0  0  0
 10 14  1  0  0  0  0
 10 11  1  0  0  0  0
 11 12  1  0  0  0  0
 11 37  1  0  0  0  0
 11 38  1  0  0  0  0
 12 13  1  0  0  0  0
 12 39  1  0  0  0  0
 12 40  1  0  0  0  0
 13 14  1  0  0  0  0
 13 41  1  0  0  0  0
 13 42  1  0  0  0  0
 14 15  1  0  0  0  0
 14 43  1  0  0  0  0
 15 20  1  0  0  0  0
 15 16  1  0  0  0  0
 15 44  1  0  0  0  0
 16 17  1  0  0  0  0
 16 45  1  0  0  0  0
 16 46  1  0  0  0  0
 17 18  1  0  0  0  0
 18 19  1  0  0  0  0
 18 47  1  0  0  0  0
 18 48  1  0  0  0  0
 19 20  1  0  0  0  0
 19 49  1  0  0  0  0
 19 50  1  0  0  0  0
 20 21  1  0  0  0  0
 20 51  1  0  0  0  0
 21 52  1  0  0  0  0
 22 23  1  0  0  0  0
 23 24  2  0  0  0  0
 23 53  1  0  0  0  0
 24 25  1  0  0  0  0
 26 27  1  0  0  0  0
 26 54  1  0  0  0  0
 26 55  1  0  0  0  0
 27 28  1  0  0  0  0
 27 56  1  0  0  0  0
 27 57  1  0  0  0  0
 28 29  1  0  0  0  0
 29 30  1  0  0  0  0
 29 58  1  0  0  0  0
 29 59  1  0  0  0  0
 30 60  1  0  0  0  0
 30 61  1  0  0  0  0
M  END
> <s_m_source_file>
AV-unprocessed.smi

> <i_m_source_file_index>
247

> <i_lp_mmshare_version>
43012

> <i_f3d_flags>
0

> <s_epik_input>
W0NIMl0xW0NIMl1PW0NIMl1bQ0gyXUMxKFtDSDJdW09IXSlbQ0gyXW4oW2NIXW4yKWMoYzIzKW5bY0hdbmMzTjRbQ0gyXVtDSDJdW0NIMl1bQ0BIXTRbQ0BASF01W0NIMl1PW0NIMl1bQ0gyXVtDQEhdNVtPSF0=

> <s_epik_cmdline>
J2VwaWtfcHl0aG9uJywgJy1waCcsICc3LjAnLCAnLXRuJywgJzgnLCAnLW1hJywgJzIwMCcsICctbWV0YWxfYmluZGluZycsICctaW1hZScsICc8aW5maWxlLm1hZT4nLCAnLW9tYWUnLCAnPG91dGZpbGUubWFlPic=

> <r_lp_tautomer_probability>
1

> <r_epik_Ionization_Penalty>
0.00362597

> <r_epik_Ionization_Penalty_Charging>
0

> <r_epik_Ionization_Penalty_Neutral>
0.00362597

> <r_epik_State_Penalty>
0.00241433

> <r_epik_Charging_Adjusted_Penalty>
0.00241433

> <i_epik_Tot_Q>
0

> <i_epik_Tot_abs_Q>
0

> <r_epik_Metal_State_Penalty>
-0

> <b_epik_Metal_Only>
0

> <s_lp_Force_Field>
OPLS_2005

> <r_lp_Energy>
58.3113

> <b_lp_Chiralities_Consistent>
1

> <s_lp_Variant>
AV-unprocessed.smi:247-7

> <Gold.Version>
5.8.1

> <Gold.Id.Protein>
6NUR|6NUR_protein|mol2

> <Gold.PLP.Fitness>
43.6805

> <Gold.PLP.PLP>
-38.1334

> <Gold.PLP.part.hbond>
-2.0000

> <Gold.PLP.part.metal>
0.0000

> <Gold.PLP.part.buried>
-3.2191

> <Gold.PLP.part.nonpolar>
-34.6791

> <Gold.PLP.part.repulsive>
1.0255

> <Gold.PLP.ligand.clash>
0.0000

> <Gold.PLP.ligand.torsion>
0.4135

> <Gold.PLP.Chemscore.Hbond>
1.9920

> <Gold.PLP.Chemscore.CHOScore>
0.0000

> <Gold.PLP.Chemscore.Metal>
0.0000

> <Gold.Chemscore.Hbonds>
donor molecule, donor type, donor heavy atom, donor atom, acceptor molecule, acceptor atom, score
      L1  H     1    31       P1 10957  1.00

> <Gold.PLP.Chemscore.Internal.Correction>
0.3982

> <Gold.Rescore>
     Score         DG    S(hbond)    S(metal)    S(lipo)     H(rot)  DE(clash)    DE(int)     intcor
     10.85     -12.92       1.93        0.00      79.15       3.23       1.44       0.64       ----

> <Gold.Chemscore.Fitness>
10.8474

> <Gold.Chemscore.DG>
-12.9215

> <Gold.Chemscore.ZeroCoef>
-5.4800

> <Gold.Chemscore.Hbond>
1.9294

> <Gold.Chemscore.Metal>
0.0000

> <Gold.Chemscore.Lipo>
79.1503

> <Gold.Chemscore.Internal_Hbond>
0.0000

> <Gold.Chemscore.DEClash>
1.4364

> <Gold.Chemscore.DEInternal>
0.6377

> <Gold.Chemscore.Rot>
3.2278

> <Gold.Chemscore.Internal.Correction>
   9.000000E+99

> <Gold.Chemscore.Hbonds>
donor molecule, donor type, donor heavy atom, donor atom, acceptor molecule, acceptor atom, score
      L1  H     1    31       P1 10957  0.99

> <Gold.Chemscore.Hbond.Weighted>
-6.4442

> <Gold.Chemscore.Metal.Weighted>
-0.0000

> <Gold.Chemscore.Lipo.Weighted>
-9.2606

> <Gold.Chemscore.Internal_Hbond.Weighted>
0.0000

> <Gold.Chemscore.DEClash.Weighted>
1.4364

> <Gold.Chemscore.DEInternal.Weighted>
0.6377

> <Gold.Chemscore.Rot.Weighted>
8.2633

> <Gold.Chemscore.Internal.Correction.Weighted>
   9.000000E+99

> <Gold.Protein.RotatedTorsions>
[ 6907 6896 6895 6894 ] final  -24.50 input  -60.11 | X-H torsion
[ 7974 7965 7964 7962 ] final  177.27 input  175.53 | X-H torsion
[ 8008 7997 7996 7995 ] final   44.71 input   59.86 | X-H torsion
[ 10167 10162 10161 10158 ] final  145.81 input  -65.29 | X-H torsion
[ 10718 10713 10712 10709 ] final  -81.44 input   66.30 | X-H torsion
[ 10763 10752 10751 10750 ] final -113.31 input  -60.55 | X-H torsion
[ 11005 11000 10999 10996 ] final  -67.76 input  -57.11 | X-H torsion

> <Gold.Protein.ActiveResidues>
 VAL166  LYS551  ARG553  GLY616  TRP617  ASP618  TYR619  PRO620  LYS621  CYS622 
 ASP623  PHE694  ASN695  SER759  ASP760  ASP761  ALA762  ILE779  LEU786  VAL792 
 PHE793  MET794  SER795  GLU796  ALA797  LYS798  CYS799  TRP800  GLU811  SER814 

> <Gold.Protein.RotatedAtoms>
  151.1887  135.0393  159.8822 H   0  0  0  0  0  0  0  0  0  0  0  0  # atno 6907 bound_to 6896
  152.5440  134.0981  159.8316 H   0  0  0  0  0  0  0  0  0  0  0  0  # atno 6908 bound_to 6896
  151.1107  133.5128  159.2638 H   0  0  0  0  0  0  0  0  0  0  0  0  # atno 6909 bound_to 6896
  144.7171  140.0222  143.6440 H   0  0  0  0  0  0  0  0  0  0  0  0  # atno 7974 bound_to 7965
  155.3238  140.3398  155.4240 H   0  0  0  0  0  0  0  0  0  0  0  0  # atno 8008 bound_to 7997
  156.1896  140.1693  156.8156 H   0  0  0  0  0  0  0  0  0  0  0  0  # atno 8009 bound_to 7997
  154.5426  140.0722  156.8519 H   0  0  0  0  0  0  0  0  0  0  0  0  # atno 8010 bound_to 7997
  139.4919  144.5875  151.6749 H   0  0  0  0  0  0  0  0  0  0  0  0  # atno 10167 bound_to 10162
  156.0050  130.4604  150.3953 H   0  0  0  0  0  0  0  0  0  0  0  0  # atno 10718 bound_to 10713
  154.8390  135.4459  154.1329 H   0  0  0  0  0  0  0  0  0  0  0  0  # atno 10763 bound_to 10752
  153.2534  135.6929  153.7661 H   0  0  0  0  0  0  0  0  0  0  0  0  # atno 10764 bound_to 10752
  153.6964  135.3379  155.3190 H   0  0  0  0  0  0  0  0  0  0  0  0  # atno 10765 bound_to 10752
  141.1516  133.6726  156.6342 H   0  0  0  0  0  0  0  0  0  0  0  0  # atno 11005 bound_to 11000
  146.0171  139.3219  143.0835 LP  0  0  0  0  0  0  0  0  0  0  0  0  # atno 17320 bound_to 7965
  145.8612  140.9474  143.0699 LP  0  0  0  0  0  0  0  0  0  0  0  0  # atno 17321 bound_to 7965
  140.5494  144.0450  150.6120 LP  0  0  0  0  0  0  0  0  0  0  0  0  # atno 17342 bound_to 10162
  140.3499  143.2969  152.0498 LP  0  0  0  0  0  0  0  0  0  0  0  0  # atno 17343 bound_to 10162
  157.2025  131.0441  151.2643 LP  0  0  0  0  0  0  0  0  0  0  0  0  # atno 17370 bound_to 10713
  157.3963  130.7309  149.6734 LP  0  0  0  0  0  0  0  0  0  0  0  0  # atno 17371 bound_to 10713
  140.3443  134.7823  157.4420 LP  0  0  0  0  0  0  0  0  0  0  0  0  # atno 17394 bound_to 11000
  140.0912  134.5598  155.8442 LP  0  0  0  0  0  0  0  0  0  0  0  0  # atno 17395 bound_to 11000

$$$$
