AV-unprocessed.smi:2899|AV-procd|sdf|11146|dock6
  -GOLD-   2272016 23D 1   1.00000     0.00000
 Structure written by MMmdl.
 30 32  0  0  0  0  0  0  0  0  1 V2000
  152.6238  138.2247  156.4203 C   0  0  0  0  0  0  0  0  0  0  0  0
  151.6159  139.2333  155.9123 C   0  0  0  0  0  0  0  0  0  0  0  0
  150.7608  138.9416  154.8292 C   0  0  0  0  0  0  0  0  0  0  0  0
  149.8662  139.9632  154.4521 C   0  0  0  0  0  0  0  0  0  0  0  0
  149.8335  141.1526  155.0919 N   0  0  0  0  0  0  0  0  0  0  0  0
  150.6895  141.3234  156.1026 C   0  0  0  0  0  0  0  0  0  0  0  0
  150.6316  142.5554  156.7278 N   0  0  0  0  0  0  0  0  0  0  0  0
  151.5926  143.0291  157.7164 C   0  0  1  0  0  0  0  0  0  0  0  0
  151.4672  144.5307  158.0037 C   0  0  0  0  0  0  0  0  0  0  0  0
  151.2410  144.5453  159.5207 C   0  0  2  0  0  0  0  0  0  0  0  0
  152.4943  144.1246  160.3001 C   0  0  0  0  0  0  0  0  0  0  0  0
  152.5402  142.6208  160.0295 C   0  0  0  0  0  0  0  0  0  0  0  0
  151.3287  142.4283  159.1071 C   0  0  1  0  0  0  0  0  0  0  0  0
  150.4417  143.3848  159.6651 O   0  0  0  0  0  0  0  0  0  0  0  0
  151.5778  140.4256  156.5470 N   0  0  0  0  0  0  0  0  0  0  0  0
  152.5350  137.2772  155.8880 H   0  0  0  0  0  0  0  0  0  0  0  0
  152.4685  138.0340  157.4826 H   0  0  0  0  0  0  0  0  0  0  0  0
  153.6381  138.6001  156.2821 H   0  0  0  0  0  0  0  0  0  0  0  0
  150.7859  137.9919  154.3153 H   0  0  0  0  0  0  0  0  0  0  0  0
  149.1747  139.8262  153.6340 H   0  0  0  0  0  0  0  0  0  0  0  0
  149.9503  143.2144  156.3799 H   0  0  0  0  0  0  0  0  0  0  0  0
  152.5985  142.7702  157.3828 H   0  0  0  0  0  0  0  0  0  0  0  0
  152.3563  145.0891  157.7093 H   0  0  0  0  0  0  0  0  0  0  0  0
  150.6092  144.9693  157.4916 H   0  0  0  0  0  0  0  0  0  0  0  0
  150.7759  145.4600  159.8894 H   0  0  0  0  0  0  0  0  0  0  0  0
  153.3891  144.6457  159.9579 H   0  0  0  0  0  0  0  0  0  0  0  0
  152.3723  144.3173  161.3664 H   0  0  0  0  0  0  0  0  0  0  0  0
  153.4738  142.3007  159.5656 H   0  0  0  0  0  0  0  0  0  0  0  0
  152.4116  142.0620  160.9574 H   0  0  0  0  0  0  0  0  0  0  0  0
  150.9485  141.4060  159.0955 H   0  0  0  0  0  0  0  0  0  0  0  0
  1  2  1  0  0  0  0
  1 16  1  0  0  0  0
  1 17  1  0  0  0  0
  1 18  1  0  0  0  0
  2 15  1  0  0  0  0
  2  3  2  0  0  0  0
  3  4  1  0  0  0  0
  3 19  1  0  0  0  0
  4  5  2  0  0  0  0
  4 20  1  0  0  0  0
  5  6  1  0  0  0  0
  6  7  1  0  0  0  0
  6 15  2  0  0  0  0
  7  8  1  0  0  0  0
  7 21  1  0  0  0  0
  8 13  1  0  0  0  0
  8  9  1  0  0  0  0
  8 22  1  0  0  0  0
  9 10  1  0  0  0  0
  9 23  1  0  0  0  0
  9 24  1  0  0  0  0
 10 14  1  0  0  0  0
 10 11  1  0  0  0  0
 10 25  1  0  0  0  0
 11 12  1  0  0  0  0
 11 26  1  0  0  0  0
 11 27  1  0  0  0  0
 12 13  1  0  0  0  0
 12 28  1  0  0  0  0
 12 29  1  0  0  0  0
 13 14  1  0  0  0  0
 13 30  1  0  0  0  0
M  END
> <s_m_source_file>
AV-unprocessed.smi

> <i_m_source_file_index>
2899

> <i_lp_mmshare_version>
43012

> <i_f3d_flags>
0

> <s_epik_input>
W0NIM11jMVtjSF1bY0hdbmMobjEpW05IXVtDQEhdKFtDSDJdW0NAQEhdMjMpW0NAQEhdKE8zKVtDSDJdW0NIMl0y

> <s_epik_cmdline>
J2VwaWtfcHl0aG9uJywgJy1waCcsICc3LjAnLCAnLXRuJywgJzgnLCAnLW1hJywgJzIwMCcsICctbWV0YWxfYmluZGluZycsICctaW1hZScsICc8aW5maWxlLm1hZT4nLCAnLW9tYWUnLCAnPG91dGZpbGUubWFlPic=

> <r_lp_tautomer_probability>
1

> <r_epik_Ionization_Penalty>
0.00589655

> <r_epik_Ionization_Penalty_Charging>
0

> <r_epik_Ionization_Penalty_Neutral>
0.00589655

> <r_epik_State_Penalty>
0.00375391

> <r_epik_Charging_Adjusted_Penalty>
0.00375391

> <i_epik_Tot_Q>
0

> <i_epik_Tot_abs_Q>
0

> <r_epik_Metal_State_Penalty>
-0

> <b_epik_Metal_Only>
0

> <s_lp_Force_Field>
OPLS_2005

> <r_lp_Energy>
31.4606

> <b_lp_Chiralities_Consistent>
1

> <s_lp_Variant>
AV-unprocessed.smi:2899-4

> <Gold.Version>
5.8.1

> <Gold.Id.Protein>
6NUR|6NUR_protein|mol2

> <Gold.PLP.Fitness>
40.3034

> <Gold.PLP.PLP>
-34.8014

> <Gold.PLP.part.hbond>
-2.7355

> <Gold.PLP.part.metal>
0.0000

> <Gold.PLP.part.buried>
-3.2911

> <Gold.PLP.part.nonpolar>
-29.0845

> <Gold.PLP.part.repulsive>
0.2389

> <Gold.PLP.ligand.clash>
0.0000

> <Gold.PLP.ligand.torsion>
0.2250

> <Gold.PLP.Chemscore.Hbond>
1.0000

> <Gold.PLP.Chemscore.CHOScore>
0.9775

> <Gold.PLP.Chemscore.Metal>
0.0000

> <Gold.Chemscore.Hbonds>
donor molecule, donor type, donor heavy atom, donor atom, acceptor molecule, acceptor atom, score
      L1  H     7    21       P1  8028  1.00
      L1  C     4    20       P1  7957  0.97

> <Gold.PLP.Chemscore.Internal.Correction>
0.0194

> <Gold.Rescore>
     Score         DG    S(hbond)    S(metal)    S(lipo)     H(rot)  DE(clash)    DE(int)     intcor
     17.26     -17.48       0.99        0.00      96.11       1.00       0.06       0.17       ----

> <Gold.Chemscore.Fitness>
17.2594

> <Gold.Chemscore.DG>
-17.4841

> <Gold.Chemscore.ZeroCoef>
-5.4800

> <Gold.Chemscore.Hbond>
0.9937

> <Gold.Chemscore.Metal>
0.0000

> <Gold.Chemscore.Lipo>
96.1116

> <Gold.Chemscore.Internal_Hbond>
0.0000

> <Gold.Chemscore.DEClash>
0.0594

> <Gold.Chemscore.DEInternal>
0.1653

> <Gold.Chemscore.Rot>
1.0000

> <Gold.Chemscore.Internal.Correction>
   9.000000E+99

> <Gold.Chemscore.Hbonds>
donor molecule, donor type, donor heavy atom, donor atom, acceptor molecule, acceptor atom, score
      L1  H     7    21       P1  8028  0.98

> <Gold.Chemscore.Hbond.Weighted>
-3.3191

> <Gold.Chemscore.Metal.Weighted>
-0.0000

> <Gold.Chemscore.Lipo.Weighted>
-11.2451

> <Gold.Chemscore.Internal_Hbond.Weighted>
0.0000

> <Gold.Chemscore.DEClash.Weighted>
0.0594

> <Gold.Chemscore.DEInternal.Weighted>
0.1653

> <Gold.Chemscore.Rot.Weighted>
2.5600

> <Gold.Chemscore.Internal.Correction.Weighted>
   9.000000E+99

> <Gold.Protein.RotatedTorsions>
[ 6907 6896 6895 6894 ] final  -59.38 input  -60.11 | X-H torsion
[ 7974 7965 7964 7962 ] final   97.05 input  175.53 | X-H torsion
[ 8008 7997 7996 7995 ] final  -98.49 input   59.86 | X-H torsion
[ 10167 10162 10161 10158 ] final -174.68 input  -65.29 | X-H torsion
[ 10718 10713 10712 10709 ] final  150.22 input   66.30 | X-H torsion
[ 10763 10752 10751 10750 ] final  -37.23 input  -60.55 | X-H torsion
[ 11005 11000 10999 10996 ] final  150.81 input  -57.11 | X-H torsion

> <Gold.Protein.ActiveResidues>
 VAL166  LYS551  ARG553  GLY616  TRP617  ASP618  TYR619  PRO620  LYS621  CYS622 
 ASP623  PHE694  ASN695  SER759  ASP760  ASP761  ALA762  ILE779  LEU786  VAL792 
 PHE793  MET794  SER795  GLU796  ALA797  LYS798  CYS799  TRP800  GLU811  SER814 

> <Gold.Protein.RotatedAtoms>
  150.7934  134.6975  159.6531 H   0  0  0  0  0  0  0  0  0  0  0  0  # atno 6907 bound_to 6896
  152.4043  134.6230  160.0065 H   0  0  0  0  0  0  0  0  0  0  0  0  # atno 6908 bound_to 6896
  151.6492  133.3285  159.3184 H   0  0  0  0  0  0  0  0  0  0  0  0  # atno 6909 bound_to 6896
  145.4307  139.2311  143.3145 H   0  0  0  0  0  0  0  0  0  0  0  0  # atno 7974 bound_to 7965
  154.8019  140.0455  157.1279 H   0  0  0  0  0  0  0  0  0  0  0  0  # atno 8008 bound_to 7997
  154.9469  140.3060  155.5074 H   0  0  0  0  0  0  0  0  0  0  0  0  # atno 8009 bound_to 7997
  156.2962  140.2295  156.4543 H   0  0  0  0  0  0  0  0  0  0  0  0  # atno 8010 bound_to 7997
  139.5621  144.1845  152.1255 H   0  0  0  0  0  0  0  0  0  0  0  0  # atno 10167 bound_to 10162
  157.2862  131.0845  151.1495 H   0  0  0  0  0  0  0  0  0  0  0  0  # atno 10718 bound_to 10713
  153.8928  135.6810  153.4759 H   0  0  0  0  0  0  0  0  0  0  0  0  # atno 10763 bound_to 10752
  153.1171  135.4756  154.9132 H   0  0  0  0  0  0  0  0  0  0  0  0  # atno 10764 bound_to 10752
  154.7614  135.3212  154.8324 H   0  0  0  0  0  0  0  0  0  0  0  0  # atno 10765 bound_to 10752
  140.1164  134.8891  157.2010 H   0  0  0  0  0  0  0  0  0  0  0  0  # atno 11005 bound_to 11000
  146.2608  140.5043  142.8854 LP  0  0  0  0  0  0  0  0  0  0  0  0  # atno 17320 bound_to 7965
  144.8184  140.6508  143.6369 LP  0  0  0  0  0  0  0  0  0  0  0  0  # atno 17321 bound_to 7965
  140.1360  144.5245  150.6773 LP  0  0  0  0  0  0  0  0  0  0  0  0  # atno 17342 bound_to 10162
  140.6902  143.2371  151.5153 LP  0  0  0  0  0  0  0  0  0  0  0  0  # atno 17343 bound_to 10162
  157.2909  130.6796  149.6114 LP  0  0  0  0  0  0  0  0  0  0  0  0  # atno 17370 bound_to 10713
  155.9665  130.4421  150.5367 LP  0  0  0  0  0  0  0  0  0  0  0  0  # atno 17371 bound_to 10713
  140.3023  134.3118  155.7287 LP  0  0  0  0  0  0  0  0  0  0  0  0  # atno 17394 bound_to 11000
  141.2142  133.7599  156.9658 LP  0  0  0  0  0  0  0  0  0  0  0  0  # atno 17395 bound_to 11000

$$$$
