AV-unprocessed.smi:1844|AV-procd|sdf|7508|dock8
  -GOLD-   22720 9213D 1   1.00000     0.00000
 Structure written by MMmdl.
 45 46  0  0  0  0  0  0  0  0  1 V2000
  144.2330  143.5209  155.1238 C   0  0  0  0  0  0  0  0  0  0  0  0
  145.4814  142.7949  154.9459 N   0  0  0  0  0  0  0  0  0  0  0  0
  146.2103  142.2768  155.9481 C   0  0  0  0  0  0  0  0  0  0  0  0
  145.8574  142.3801  157.1241 O   0  0  0  0  0  0  0  0  0  0  0  0
  147.4293  141.5962  155.5039 C   0  0  0  0  0  0  0  0  0  0  0  0
  147.7682  141.4026  154.1016 C   0  0  0  0  0  0  0  0  0  0  0  0
  148.9094  140.7770  153.7520 C   0  0  0  0  0  0  0  0  0  0  0  0
  149.8486  140.2666  154.7547 C   0  0  0  0  0  0  0  0  0  0  0  0
  150.8948  139.6982  154.4408 O   0  0  0  0  0  0  0  0  0  0  0  0
  149.4882  140.4616  156.0595 N   0  0  0  0  0  0  0  0  0  0  0  0
  150.3480  139.9901  157.1582 C   0  0  0  0  0  0  0  0  0  0  0  0
  150.6701  141.0752  158.1957 C   0  0  0  0  0  0  0  0  0  0  0  0
  149.7863  141.5629  158.9020 O   0  0  0  0  0  0  0  0  0  0  0  0
  151.9597  141.4353  158.2784 N   0  0  0  0  0  0  0  0  0  0  0  0
  152.5035  142.4421  159.1875 C   0  0  2  0  0  0  0  0  0  0  0  0
  152.5519  141.8725  160.6210 C   0  0  0  0  0  0  0  0  0  0  0  0
  153.0514  142.9148  161.6315 C   0  0  0  0  0  0  0  0  0  0  0  0
  152.1950  144.1868  161.5777 C   0  0  0  0  0  0  0  0  0  0  0  0
  152.1628  144.7681  160.1565 C   0  0  0  0  0  0  0  0  0  0  0  0
  151.6579  143.7388  159.1247 C   0  0  1  0  0  0  0  0  0  0  0  0
  151.6316  144.3572  157.7151 C   0  0  0  0  0  0  0  0  0  0  0  0
  148.2970  141.1221  156.4192 C   0  0  0  0  0  0  0  0  0  0  0  0
  143.8132  143.7811  154.1523 H   0  0  0  0  0  0  0  0  0  0  0  0
  144.3982  144.4428  155.6822 H   0  0  0  0  0  0  0  0  0  0  0  0
  143.5012  142.9153  155.6595 H   0  0  0  0  0  0  0  0  0  0  0  0
  145.8172  142.6792  154.0009 H   0  0  0  0  0  0  0  0  0  0  0  0
  147.1203  141.7552  153.3126 H   0  0  0  0  0  0  0  0  0  0  0  0
  149.1403  140.6471  152.7047 H   0  0  0  0  0  0  0  0  0  0  0  0
  149.8786  139.1523  157.6760 H   0  0  0  0  0  0  0  0  0  0  0  0
  151.2820  139.5893  156.7599 H   0  0  0  0  0  0  0  0  0  0  0  0
  152.6172  140.9788  157.6630 H   0  0  0  0  0  0  0  0  0  0  0  0
  153.5210  142.6901  158.8784 H   0  0  0  0  0  0  0  0  0  0  0  0
  151.5582  141.5326  160.9166 H   0  0  0  0  0  0  0  0  0  0  0  0
  153.1991  140.9952  160.6555 H   0  0  0  0  0  0  0  0  0  0  0  0
  153.0329  142.4956  162.6378 H   0  0  0  0  0  0  0  0  0  0  0  0
  154.0916  143.1631  161.4178 H   0  0  0  0  0  0  0  0  0  0  0  0
  151.1797  143.9601  161.9054 H   0  0  0  0  0  0  0  0  0  0  0  0
  152.5871  144.9287  162.2742 H   0  0  0  0  0  0  0  0  0  0  0  0
  151.5266  145.6537  160.1424 H   0  0  0  0  0  0  0  0  0  0  0  0
  153.1633  145.1042  159.8809 H   0  0  0  0  0  0  0  0  0  0  0  0
  150.6301  143.4853  159.3895 H   0  0  0  0  0  0  0  0  0  0  0  0
  152.6368  144.6109  157.3769 H   0  0  0  0  0  0  0  0  0  0  0  0
  151.0364  145.2706  157.6998 H   0  0  0  0  0  0  0  0  0  0  0  0
  151.1965  143.6771  156.9827 H   0  0  0  0  0  0  0  0  0  0  0  0
  148.1471  141.2184  157.4855 H   0  0  0  0  0  0  0  0  0  0  0  0
  1  2  1  0  0  0  0
  1 23  1  0  0  0  0
  1 24  1  0  0  0  0
  1 25  1  0  0  0  0
  2  3  1  0  0  0  0
  2 26  1  0  0  0  0
  3  4  2  0  0  0  0
  3  5  1  0  0  0  0
  5 22  2  0  0  0  0
  5  6  1  0  0  0  0
  6  7  2  0  0  0  0
  6 27  1  0  0  0  0
  7  8  1  0  0  0  0
  7 28  1  0  0  0  0
  8  9  2  0  0  0  0
  8 10  1  0  0  0  0
 10 11  1  0  0  0  0
 10 22  1  0  0  0  0
 11 12  1  0  0  0  0
 11 29  1  0  0  0  0
 11 30  1  0  0  0  0
 12 13  2  0  0  0  0
 12 14  1  0  0  0  0
 14 15  1  0  0  0  0
 14 31  1  0  0  0  0
 15 20  1  0  0  0  0
 15 16  1  0  0  0  0
 15 32  1  0  0  0  0
 16 17  1  0  0  0  0
 16 33  1  0  0  0  0
 16 34  1  0  0  0  0
 17 18  1  0  0  0  0
 17 35  1  0  0  0  0
 17 36  1  0  0  0  0
 18 19  1  0  0  0  0
 18 37  1  0  0  0  0
 18 38  1  0  0  0  0
 19 20  1  0  0  0  0
 19 39  1  0  0  0  0
 19 40  1  0  0  0  0
 20 21  1  0  0  0  0
 20 41  1  0  0  0  0
 21 42  1  0  0  0  0
 21 43  1  0  0  0  0
 21 44  1  0  0  0  0
 22 45  1  0  0  0  0
M  END
> <s_m_source_file>
AV-unprocessed.smi

> <i_m_source_file_index>
1844

> <i_lp_mmshare_version>
43012

> <i_f3d_flags>
0

> <s_epik_input>
W0NIM11bTkhdQyg9TyljMVtjSF1bY0hdYyg9TyluKFtjSF0xKVtDSDJdQyg9TylbTkhdW0NAQEhdMltDSDJdW0NIMl1bQ0gyXVtDSDJdW0NASF0yW0NIM10=

> <s_epik_cmdline>
J2VwaWtfcHl0aG9uJywgJy1waCcsICc3LjAnLCAnLXRuJywgJzgnLCAnLW1hJywgJzIwMCcsICctbWV0YWxfYmluZGluZycsICctaW1hZScsICc8aW5maWxlLm1hZT4nLCAnLW9tYWUnLCAnPG91dGZpbGUubWFlPic=

> <r_lp_tautomer_probability>
1

> <r_epik_Ionization_Penalty>
3.66612e-07

> <r_epik_Ionization_Penalty_Charging>
5.18929e-08

> <r_epik_Ionization_Penalty_Neutral>
3.14719e-07

> <r_epik_State_Penalty>
-0

> <r_epik_Charging_Adjusted_Penalty>
5.18929e-08

> <i_epik_Tot_Q>
0

> <i_epik_Tot_abs_Q>
0

> <r_epik_Metal_State_Penalty>
-0

> <b_epik_Metal_Only>
0

> <s_lp_Force_Field>
OPLS_2005

> <r_lp_Energy>
22.707

> <b_lp_Chiralities_Consistent>
1

> <s_lp_Variant>
AV-unprocessed.smi:1844-1

> <Gold.Version>
5.8.1

> <Gold.Id.Protein>
6NUR|6NUR_protein|mol2

> <Gold.PLP.Fitness>
45.4397

> <Gold.PLP.PLP>
-42.9388

> <Gold.PLP.part.hbond>
-2.0000

> <Gold.PLP.part.metal>
0.0000

> <Gold.PLP.part.buried>
-1.2060

> <Gold.PLP.part.nonpolar>
-39.9495

> <Gold.PLP.part.repulsive>
0.3804

> <Gold.PLP.ligand.clash>
0.0000

> <Gold.PLP.ligand.torsion>
0.2528

> <Gold.PLP.Chemscore.Hbond>
1.0000

> <Gold.PLP.Chemscore.CHOScore>
0.0000

> <Gold.PLP.Chemscore.Metal>
0.0000

> <Gold.Chemscore.Hbonds>
donor molecule, donor type, donor heavy atom, donor atom, acceptor molecule, acceptor atom, score
      P1  H  7989  7998       L1     9  1.00

> <Gold.PLP.Chemscore.Internal.Correction>
0.0066

> <Gold.Rescore>
     Score         DG    S(hbond)    S(metal)    S(lipo)     H(rot)  DE(clash)    DE(int)     intcor
     15.05     -17.53       0.96        0.00     108.32       1.49       0.18       2.29       ----

> <Gold.Chemscore.Fitness>
15.0549

> <Gold.Chemscore.DG>
-17.5266

> <Gold.Chemscore.ZeroCoef>
-5.4800

> <Gold.Chemscore.Hbond>
0.9563

> <Gold.Chemscore.Metal>
0.0000

> <Gold.Chemscore.Lipo>
108.3155

> <Gold.Chemscore.Internal_Hbond>
0.0000

> <Gold.Chemscore.DEClash>
0.1806

> <Gold.Chemscore.DEInternal>
2.2911

> <Gold.Chemscore.Rot>
1.4923

> <Gold.Chemscore.Internal.Correction>
   9.000000E+99

> <Gold.Chemscore.Hbonds>
donor molecule, donor type, donor heavy atom, donor atom, acceptor molecule, acceptor atom, score
      P1  H  7989  7998       L1     9  0.35

> <Gold.Chemscore.Hbond.Weighted>
-3.1941

> <Gold.Chemscore.Metal.Weighted>
-0.0000

> <Gold.Chemscore.Lipo.Weighted>
-12.6729

> <Gold.Chemscore.Internal_Hbond.Weighted>
0.0000

> <Gold.Chemscore.DEClash.Weighted>
0.1806

> <Gold.Chemscore.DEInternal.Weighted>
2.2911

> <Gold.Chemscore.Rot.Weighted>
3.8204

> <Gold.Chemscore.Internal.Correction.Weighted>
   9.000000E+99

> <Gold.Protein.RotatedTorsions>
[ 6907 6896 6895 6894 ] final -160.05 input  -60.11 | X-H torsion
[ 7974 7965 7964 7962 ] final   16.36 input  175.53 | X-H torsion
[ 8008 7997 7996 7995 ] final -117.72 input   59.86 | X-H torsion
[ 10167 10162 10161 10158 ] final  -91.08 input  -65.29 | X-H torsion
[ 10718 10713 10712 10709 ] final -169.79 input   66.30 | X-H torsion
[ 10763 10752 10751 10750 ] final   84.75 input  -60.55 | X-H torsion
[ 11005 11000 10999 10996 ] final  -73.19 input  -57.11 | X-H torsion

> <Gold.Protein.ActiveResidues>
 VAL166  LYS551  ARG553  GLY616  TRP617  ASP618  TYR619  PRO620  LYS621  CYS622 
 ASP623  PHE694  ASN695  SER759  ASP760  ASP761  ALA762  ILE779  LEU786  VAL792 
 PHE793  MET794  SER795  GLU796  ALA797  LYS798  CYS799  TRP800  GLU811  SER814 

> <Gold.Protein.RotatedAtoms>
  151.3431  133.3955  159.2672 H   0  0  0  0  0  0  0  0  0  0  0  0  # atno 6907 bound_to 6896
  150.9862  134.9208  159.7883 H   0  0  0  0  0  0  0  0  0  0  0  0  # atno 6908 bound_to 6896
  152.5233  134.3395  159.9264 H   0  0  0  0  0  0  0  0  0  0  0  0  # atno 6909 bound_to 6896
  146.2252  139.8759  142.8579 H   0  0  0  0  0  0  0  0  0  0  0  0  # atno 7974 bound_to 7965
  155.0882  140.0395  157.2660 H   0  0  0  0  0  0  0  0  0  0  0  0  # atno 8008 bound_to 7997
  154.6853  140.2641  155.6842 H   0  0  0  0  0  0  0  0  0  0  0  0  # atno 8009 bound_to 7997
  156.2709  140.2770  156.1411 H   0  0  0  0  0  0  0  0  0  0  0  0  # atno 8010 bound_to 7997
  140.3485  143.2904  151.9754 H   0  0  0  0  0  0  0  0  0  0  0  0  # atno 10167 bound_to 10162
  156.7166  130.9254  151.3094 H   0  0  0  0  0  0  0  0  0  0  0  0  # atno 10718 bound_to 10713
  153.1411  135.4642  154.9496 H   0  0  0  0  0  0  0  0  0  0  0  0  # atno 10763 bound_to 10752
  154.7747  135.3169  154.8118 H   0  0  0  0  0  0  0  0  0  0  0  0  # atno 10764 bound_to 10752
  153.8641  135.6910  153.4834 H   0  0  0  0  0  0  0  0  0  0  0  0  # atno 10765 bound_to 10752
  141.1619  133.6870  156.7174 H   0  0  0  0  0  0  0  0  0  0  0  0  # atno 11005 bound_to 11000
  145.2561  141.0061  143.3853 LP  0  0  0  0  0  0  0  0  0  0  0  0  # atno 17320 bound_to 7965
  144.9336  139.4270  143.6483 LP  0  0  0  0  0  0  0  0  0  0  0  0  # atno 17321 bound_to 7965
  139.4830  144.6096  151.7457 LP  0  0  0  0  0  0  0  0  0  0  0  0  # atno 17342 bound_to 10162
  140.5242  144.0832  150.6032 LP  0  0  0  0  0  0  0  0  0  0  0  0  # atno 17343 bound_to 10162
  157.6915  130.9238  150.0526 LP  0  0  0  0  0  0  0  0  0  0  0  0  # atno 17370 bound_to 10713
  156.1623  130.3644  149.9281 LP  0  0  0  0  0  0  0  0  0  0  0  0  # atno 17371 bound_to 10713
  140.2842  134.8293  157.3960 LP  0  0  0  0  0  0  0  0  0  0  0  0  # atno 17394 bound_to 11000
  140.1406  134.4977  155.8035 LP  0  0  0  0  0  0  0  0  0  0  0  0  # atno 17395 bound_to 11000

$$$$
