AV-unprocessed.smi:271|AV-procd|sdf|2052|dock1
  -GOLD-   2262021283D 1   1.00000     0.00000
 Structure written by MMmdl.
 58 60  0  0  0  0  0  0  0  0  1 V2000
  153.1700  142.5522  160.2819 C   0  0  0  0  0  0  0  0  0  0  0  0
  152.5207  142.7843  158.9071 C   0  0  0  0  0  0  0  0  0  0  0  0
  152.2221  144.2772  158.7011 C   0  0  0  0  0  0  0  0  0  0  0  0
  151.2446  141.9418  158.7130 C   0  0  0  0  0  0  0  0  0  0  0  0
  150.4852  142.2580  157.4089 C   0  0  0  0  0  0  0  0  0  0  0  0
  150.1365  141.0614  156.6437 N   0  0  0  0  0  0  0  0  0  0  0  0
  151.2360  140.3519  155.9870 C   0  0  0  0  0  0  0  0  0  0  0  0
  150.7559  139.3969  154.8831 C   0  0  0  0  0  0  0  0  0  0  0  0
  151.3987  138.0775  154.9679 C   0  0  0  0  0  0  0  0  0  0  0  0
  151.9051  137.0393  155.0344 N   0  0  0  0  0  0  0  0  0  0  0  0
  149.1249  140.3278  157.1783 C   0  0  0  0  0  0  0  0  0  0  0  0
  147.8487  140.7952  157.1242 N   0  0  0  0  0  0  0  0  0  0  0  0
  146.8428  140.0745  157.6279 C   0  0  0  0  0  0  0  0  0  0  0  0
  146.8876  138.8796  158.2192 N   0  0  0  0  0  0  0  0  0  0  0  0
  148.1639  138.4035  158.2766 C   0  0  0  0  0  0  0  0  0  0  0  0
  149.3301  139.0561  157.7852 C   0  0  0  0  0  0  0  0  0  0  0  0
  150.4497  138.2701  158.0324 N   0  0  0  0  0  0  0  0  0  0  0  0
  149.9722  137.2106  158.6262 C   0  0  0  0  0  0  0  0  0  0  0  0
  148.6080  137.2048  158.8068 N   0  0  0  0  0  0  0  0  0  0  0  0
  147.8239  136.1571  159.4384 C   0  0  0  0  0  0  0  0  0  0  0  0
  147.3498  136.5224  160.8666 C   0  0  1  0  0  0  0  0  0  0  0  0
  146.2913  137.6496  160.8128 C   0  0  0  0  0  0  0  0  0  0  0  0
  146.5109  138.5885  161.8451 O   0  0  0  0  0  0  0  0  0  0  0  0
  146.8898  135.2797  161.6799 C   0  0  1  0  0  0  0  0  0  0  0  0
  146.2166  135.5841  163.0198 C   0  0  0  0  0  0  0  0  0  0  0  0
  144.9245  134.7682  162.9852 C   0  0  0  0  0  0  0  0  0  0  0  0
  145.1913  133.7411  162.0448 O   0  0  0  0  0  0  0  0  0  0  0  0
  145.8952  134.3479  160.9741 C   0  0  0  0  0  0  0  0  0  0  0  0
  152.4832  142.8012  161.0913 H   0  0  0  0  0  0  0  0  0  0  0  0
  154.0610  143.1691  160.4027 H   0  0  0  0  0  0  0  0  0  0  0  0
  153.4788  141.5156  160.4131 H   0  0  0  0  0  0  0  0  0  0  0  0
  153.2400  142.4907  158.1414 H   0  0  0  0  0  0  0  0  0  0  0  0
  151.4914  144.6389  159.4254 H   0  0  0  0  0  0  0  0  0  0  0  0
  151.8233  144.4649  157.7039 H   0  0  0  0  0  0  0  0  0  0  0  0
  153.1249  144.8791  158.8097 H   0  0  0  0  0  0  0  0  0  0  0  0
  151.4995  140.8820  158.7517 H   0  0  0  0  0  0  0  0  0  0  0  0
  150.5766  142.1216  159.5562 H   0  0  0  0  0  0  0  0  0  0  0  0
  149.5922  142.8395  157.6345 H   0  0  0  0  0  0  0  0  0  0  0  0
  151.0945  142.8945  156.7680 H   0  0  0  0  0  0  0  0  0  0  0  0
  151.9128  141.0855  155.5476 H   0  0  0  0  0  0  0  0  0  0  0  0
  151.8215  139.8061  156.7280 H   0  0  0  0  0  0  0  0  0  0  0  0
  149.6790  139.2386  154.9292 H   0  0  0  0  0  0  0  0  0  0  0  0
  150.9795  139.8119  153.9002 H   0  0  0  0  0  0  0  0  0  0  0  0
  145.8617  140.5181  157.5432 H   0  0  0  0  0  0  0  0  0  0  0  0
  150.6050  136.3964  158.9486 H   0  0  0  0  0  0  0  0  0  0  0  0
  146.9686  135.9544  158.7931 H   0  0  0  0  0  0  0  0  0  0  0  0
  148.4137  135.2402  159.4604 H   0  0  0  0  0  0  0  0  0  0  0  0
  148.2139  136.9230  161.3994 H   0  0  0  0  0  0  0  0  0  0  0  0
  146.3191  138.1712  159.8559 H   0  0  0  0  0  0  0  0  0  0  0  0
  145.2815  137.2598  160.9324 H   0  0  0  0  0  0  0  0  0  0  0  0
  146.0133  138.3236  162.6038 H   0  0  0  0  0  0  0  0  0  0  0  0
  147.7660  134.6798  161.9273 H   0  0  0  0  0  0  0  0  0  0  0  0
  146.8542  135.2446  163.8372 H   0  0  0  0  0  0  0  0  0  0  0  0
  146.0193  136.6423  163.1889 H   0  0  0  0  0  0  0  0  0  0  0  0
  144.6555  134.3619  163.9605 H   0  0  0  0  0  0  0  0  0  0  0  0
  144.0930  135.3775  162.6274 H   0  0  0  0  0  0  0  0  0  0  0  0
  145.1838  134.8911  160.3523 H   0  0  0  0  0  0  0  0  0  0  0  0
  146.3883  133.6022  160.3509 H   0  0  0  0  0  0  0  0  0  0  0  0
  1  2  1  0  0  0  0
  1 29  1  0  0  0  0
  1 30  1  0  0  0  0
  1 31  1  0  0  0  0
  2  3  1  0  0  0  0
  2  4  1  0  0  0  0
  2 32  1  0  0  0  0
  3 33  1  0  0  0  0
  3 34  1  0  0  0  0
  3 35  1  0  0  0  0
  4  5  1  0  0  0  0
  4 36  1  0  0  0  0
  4 37  1  0  0  0  0
  5  6  1  0  0  0  0
  5 38  1  0  0  0  0
  5 39  1  0  0  0  0
  6  7  1  0  0  0  0
  6 11  1  0  0  0  0
  7  8  1  0  0  0  0
  7 40  1  0  0  0  0
  7 41  1  0  0  0  0
  8  9  1  0  0  0  0
  8 42  1  0  0  0  0
  8 43  1  0  0  0  0
  9 10  3  0  0  0  0
 11 16  1  0  0  0  0
 11 12  2  0  0  0  0
 12 13  1  0  0  0  0
 13 14  2  0  0  0  0
 13 44  1  0  0  0  0
 14 15  1  0  0  0  0
 15 19  1  0  0  0  0
 15 16  2  0  0  0  0
 16 17  1  0  0  0  0
 17 18  2  0  0  0  0
 18 19  1  0  0  0  0
 18 45  1  0  0  0  0
 19 20  1  0  0  0  0
 20 21  1  0  0  0  0
 20 46  1  0  0  0  0
 20 47  1  0  0  0  0
 21 22  1  0  0  0  0
 21 24  1  0  0  0  0
 21 48  1  0  0  0  0
 22 23  1  0  0  0  0
 22 49  1  0  0  0  0
 22 50  1  0  0  0  0
 23 51  1  0  0  0  0
 24 28  1  0  0  0  0
 24 25  1  0  0  0  0
 24 52  1  0  0  0  0
 25 26  1  0  0  0  0
 25 53  1  0  0  0  0
 25 54  1  0  0  0  0
 26 27  1  0  0  0  0
 26 55  1  0  0  0  0
 26 56  1  0  0  0  0
 27 28  1  0  0  0  0
 28 57  1  0  0  0  0
 28 58  1  0  0  0  0
M  END
> <s_m_source_file>
AV-unprocessed.smi

> <i_m_source_file_index>
271

> <i_lp_mmshare_version>
43012

> <i_f3d_flags>
0

> <s_epik_input>
W0NIM11bQ0hdKFtDSDNdKVtDSDJdW0NIMl1OKFtDSDJdW0NIMl1DI04pYyhuW2NIXW4xKWMoYzEyKW5bY0hdbjJbQ0gyXVtDQEhdKFtDSDJdW09IXSlbQ0BASF0zW0NIMl1bQ0gyXU9bQ0gyXTM=

> <s_epik_cmdline>
J2VwaWtfcHl0aG9uJywgJy1waCcsICc3LjAnLCAnLXRuJywgJzgnLCAnLW1hJywgJzIwMCcsICctbWV0YWxfYmluZGluZycsICctaW1hZScsICc8aW5maWxlLm1hZT4nLCAnLW9tYWUnLCAnPG91dGZpbGUubWFlPic=

> <r_lp_tautomer_probability>
1

> <r_epik_Ionization_Penalty>
0.000825874

> <r_epik_Ionization_Penalty_Charging>
0

> <r_epik_Ionization_Penalty_Neutral>
0.000825874

> <r_epik_State_Penalty>
0.000396768

> <r_epik_Charging_Adjusted_Penalty>
0.000396768

> <i_epik_Tot_Q>
0

> <i_epik_Tot_abs_Q>
0

> <r_epik_Metal_State_Penalty>
-0

> <b_epik_Metal_Only>
0

> <s_lp_Force_Field>
OPLS_2005

> <r_lp_Energy>
37.4576

> <b_lp_Chiralities_Consistent>
1

> <s_lp_Variant>
AV-unprocessed.smi:271-4

> <Gold.Version>
5.8.1

> <Gold.Id.Protein>
6NUR|6NUR_protein|mol2

> <Gold.PLP.Fitness>
51.7657

> <Gold.PLP.PLP>
-47.5315

> <Gold.PLP.part.hbond>
-3.0000

> <Gold.PLP.part.metal>
0.0000

> <Gold.PLP.part.buried>
-4.1459

> <Gold.PLP.part.nonpolar>
-40.8525

> <Gold.PLP.part.repulsive>
0.2058

> <Gold.PLP.ligand.clash>
0.0000

> <Gold.PLP.ligand.torsion>
2.2821

> <Gold.PLP.Chemscore.Hbond>
2.3134

> <Gold.PLP.Chemscore.CHOScore>
0.0000

> <Gold.PLP.Chemscore.Metal>
0.0000

> <Gold.Chemscore.Hbonds>
donor molecule, donor type, donor heavy atom, donor atom, acceptor molecule, acceptor atom, score
      P1  H 10752 10765       L1    10  0.85

> <Gold.PLP.Chemscore.Internal.Correction>
1.8584

> <Gold.Rescore>
     Score         DG    S(hbond)    S(metal)    S(lipo)     H(rot)  DE(clash)    DE(int)     intcor
      9.57     -14.53       1.77        0.00     109.38       3.77       1.29       3.66       ----

> <Gold.Chemscore.Fitness>
9.5689

> <Gold.Chemscore.DG>
-14.5264

> <Gold.Chemscore.ZeroCoef>
-5.4800

> <Gold.Chemscore.Hbond>
1.7652

> <Gold.Chemscore.Metal>
0.0000

> <Gold.Chemscore.Lipo>
109.3789

> <Gold.Chemscore.Internal_Hbond>
0.0000

> <Gold.Chemscore.DEClash>
1.2947

> <Gold.Chemscore.DEInternal>
3.6628

> <Gold.Chemscore.Rot>
3.7683

> <Gold.Chemscore.Internal.Correction>
   9.000000E+99

> <Gold.Chemscore.Hbonds>
donor molecule, donor type, donor heavy atom, donor atom, acceptor molecule, acceptor atom, score
      P1  H 10752 10765       L1    10  0.83

> <Gold.Chemscore.Hbond.Weighted>
-5.8959

> <Gold.Chemscore.Metal.Weighted>
-0.0000

> <Gold.Chemscore.Lipo.Weighted>
-12.7973

> <Gold.Chemscore.Internal_Hbond.Weighted>
0.0000

> <Gold.Chemscore.DEClash.Weighted>
1.2947

> <Gold.Chemscore.DEInternal.Weighted>
3.6628

> <Gold.Chemscore.Rot.Weighted>
9.6468

> <Gold.Chemscore.Internal.Correction.Weighted>
   9.000000E+99

> <Gold.Protein.RotatedTorsions>
[ 6907 6896 6895 6894 ] final -177.44 input  -60.11 | X-H torsion
[ 7974 7965 7964 7962 ] final  -41.98 input  175.53 | X-H torsion
[ 8008 7997 7996 7995 ] final  -91.01 input   59.86 | X-H torsion
[ 10167 10162 10161 10158 ] final  117.64 input  -65.29 | X-H torsion
[ 10718 10713 10712 10709 ] final   74.71 input   66.30 | X-H torsion
[ 10763 10752 10751 10750 ] final  159.41 input  -60.55 | X-H torsion
[ 11005 11000 10999 10996 ] final  110.01 input  -57.11 | X-H torsion

> <Gold.Protein.ActiveResidues>
 VAL166  LYS551  ARG553  GLY616  TRP617  ASP618  TYR619  PRO620  LYS621  CYS622 
 ASP623  PHE694  ASN695  SER759  ASP760  ASP761  ALA762  ILE779  LEU786  VAL792 
 PHE793  MET794  SER795  GLU796  ALA797  LYS798  CYS799  TRP800  GLU811  SER814 

> <Gold.Protein.RotatedAtoms>
  151.6211  133.3339  159.3087 H   0  0  0  0  0  0  0  0  0  0  0  0  # atno 6907 bound_to 6896
  150.8105  134.7261  159.6695 H   0  0  0  0  0  0  0  0  0  0  0  0  # atno 6908 bound_to 6896
  152.4202  134.5974  160.0042 H   0  0  0  0  0  0  0  0  0  0  0  0  # atno 6909 bound_to 6896
  146.0159  140.6908  142.9201 H   0  0  0  0  0  0  0  0  0  0  0  0  # atno 7974 bound_to 7965
  154.7055  140.0524  157.0500 H   0  0  0  0  0  0  0  0  0  0  0  0  # atno 8008 bound_to 7997
  155.0626  140.3191  155.4637 H   0  0  0  0  0  0  0  0  0  0  0  0  # atno 8009 bound_to 7997
  156.2773  140.2096  156.5753 H   0  0  0  0  0  0  0  0  0  0  0  0  # atno 8010 bound_to 7997
  139.6165  144.7093  151.2729 H   0  0  0  0  0  0  0  0  0  0  0  0  # atno 10167 bound_to 10162
  157.6604  130.9691  150.1250 H   0  0  0  0  0  0  0  0  0  0  0  0  # atno 10718 bound_to 10713
  154.2313  135.2778  155.2889 H   0  0  0  0  0  0  0  0  0  0  0  0  # atno 10763 bound_to 10752
  154.5621  135.5644  153.7020 H   0  0  0  0  0  0  0  0  0  0  0  0  # atno 10764 bound_to 10752
  153.0019  135.6300  154.2455 H   0  0  0  0  0  0  0  0  0  0  0  0  # atno 10765 bound_to 10752
  139.8873  134.9473  156.6214 H   0  0  0  0  0  0  0  0  0  0  0  0  # atno 11005 bound_to 11000
  144.6971  140.3481  143.7187 LP  0  0  0  0  0  0  0  0  0  0  0  0  # atno 17320 bound_to 7965
  145.7269  139.1725  143.2452 LP  0  0  0  0  0  0  0  0  0  0  0  0  # atno 17321 bound_to 7965
  140.7354  143.6738  150.8059 LP  0  0  0  0  0  0  0  0  0  0  0  0  # atno 17342 bound_to 10162
  140.0341  143.5413  152.2747 LP  0  0  0  0  0  0  0  0  0  0  0  0  # atno 17343 bound_to 10162
  156.2111  130.3667  149.8669 LP  0  0  0  0  0  0  0  0  0  0  0  0  # atno 17370 bound_to 10713
  156.6547  130.8758  151.3537 LP  0  0  0  0  0  0  0  0  0  0  0  0  # atno 17371 bound_to 10713
  140.7736  133.8717  155.8512 LP  0  0  0  0  0  0  0  0  0  0  0  0  # atno 17394 bound_to 11000
  140.9820  134.1392  157.4485 LP  0  0  0  0  0  0  0  0  0  0  0  0  # atno 17395 bound_to 11000

$$$$
