AV-unprocessed.smi:2163|AV-procd|sdf|8805|dock7
  -GOLD-   2272011593D 1   1.00000     0.00000
 Structure written by MMmdl.
 43 45  0  0  0  0  0  0  0  0  1 V2000
  151.7121  137.9261  154.7360 C   0  0  0  0  0  0  0  0  0  0  0  0
  151.6555  139.0366  155.7365 C   0  0  0  0  0  0  0  0  0  0  0  0
  152.3837  139.0220  156.8534 N   0  0  0  0  0  0  0  0  0  0  0  0
  152.0224  140.2065  157.4657 C   0  0  0  0  0  0  0  0  0  0  0  0
  152.4456  140.7750  158.6885 C   0  0  0  0  0  0  0  0  0  0  0  0
  151.9268  142.0146  159.1167 C   0  0  0  0  0  0  0  0  0  0  0  0
  150.9803  142.7026  158.3301 C   0  0  0  0  0  0  0  0  0  0  0  0
  150.5453  142.1541  157.1081 C   0  0  0  0  0  0  0  0  0  0  0  0
  151.0663  140.9167  156.6854 C   0  0  0  0  0  0  0  0  0  0  0  0
  150.8569  140.1194  155.5647 N   0  0  0  0  0  0  0  0  0  0  0  0
  149.9556  140.4136  154.4578 C   0  0  0  0  0  0  0  0  0  0  0  0
  148.7374  141.2546  154.8903 C   0  0  1  0  0  0  0  0  0  0  0  0
  148.9114  142.5848  154.4436 O   0  0  0  0  0  0  0  0  0  0  0  0
  147.4278  140.7128  154.2969 C   0  0  0  0  0  0  0  0  0  0  0  0
  146.3492  141.1004  155.1385 O   0  0  0  0  0  0  0  0  0  0  0  0
  145.6490  142.2440  154.8192 C   0  0  0  0  0  0  0  0  0  0  0  0
  144.5452  142.5674  155.6352 C   0  0  0  0  0  0  0  0  0  0  0  0
  143.7739  143.7182  155.3836 C   0  0  0  0  0  0  0  0  0  0  0  0
  144.0991  144.5636  154.3053 C   0  0  0  0  0  0  0  0  0  0  0  0
  143.2777  145.8070  154.0362 C   0  0  0  0  0  0  0  0  0  0  0  0
  141.8819  145.4816  153.7079 C   0  0  0  0  0  0  0  0  0  0  0  0
  140.7834  145.2262  153.4496 N   0  0  0  0  0  0  0  0  0  0  0  0
  145.1978  144.2502  153.4818 C   0  0  0  0  0  0  0  0  0  0  0  0
  145.9694  143.0991  153.7342 C   0  0  0  0  0  0  0  0  0  0  0  0
  152.4706  137.1951  155.0181 H   0  0  0  0  0  0  0  0  0  0  0  0
  151.9633  138.3145  153.7491 H   0  0  0  0  0  0  0  0  0  0  0  0
  150.7488  137.4186  154.6827 H   0  0  0  0  0  0  0  0  0  0  0  0
  153.1705  140.2560  159.2981 H   0  0  0  0  0  0  0  0  0  0  0  0
  152.2571  142.4391  160.0533 H   0  0  0  0  0  0  0  0  0  0  0  0
  150.5886  143.6519  158.6653 H   0  0  0  0  0  0  0  0  0  0  0  0
  149.8204  142.6776  156.5027 H   0  0  0  0  0  0  0  0  0  0  0  0
  150.5039  140.9158  153.6609 H   0  0  0  0  0  0  0  0  0  0  0  0
  149.6207  139.4634  154.0401 H   0  0  0  0  0  0  0  0  0  0  0  0
  148.6722  141.2540  155.9791 H   0  0  0  0  0  0  0  0  0  0  0  0
  148.8427  143.1610  155.1896 H   0  0  0  0  0  0  0  0  0  0  0  0
  147.2905  141.0673  153.2736 H   0  0  0  0  0  0  0  0  0  0  0  0
  147.4690  139.6226  154.2701 H   0  0  0  0  0  0  0  0  0  0  0  0
  144.2879  141.9270  156.4662 H   0  0  0  0  0  0  0  0  0  0  0  0
  142.9344  143.9512  156.0223 H   0  0  0  0  0  0  0  0  0  0  0  0
  143.2840  146.4562  154.9121 H   0  0  0  0  0  0  0  0  0  0  0  0
  143.7060  146.3699  153.2067 H   0  0  0  0  0  0  0  0  0  0  0  0
  145.4539  144.8951  152.6541 H   0  0  0  0  0  0  0  0  0  0  0  0
  146.8029  142.8949  153.0799 H   0  0  0  0  0  0  0  0  0  0  0  0
  1  2  1  0  0  0  0
  1 25  1  0  0  0  0
  1 26  1  0  0  0  0
  1 27  1  0  0  0  0
  2 10  1  0  0  0  0
  2  3  2  0  0  0  0
  3  4  1  0  0  0  0
  4  9  2  0  0  0  0
  4  5  1  0  0  0  0
  5  6  2  0  0  0  0
  5 28  1  0  0  0  0
  6  7  1  0  0  0  0
  6 29  1  0  0  0  0
  7  8  2  0  0  0  0
  7 30  1  0  0  0  0
  8  9  1  0  0  0  0
  8 31  1  0  0  0  0
  9 10  1  0  0  0  0
 10 11  1  0  0  0  0
 11 12  1  0  0  0  0
 11 32  1  0  0  0  0
 11 33  1  0  0  0  0
 12 13  1  0  0  0  0
 12 14  1  0  0  0  0
 12 34  1  0  0  0  0
 13 35  1  0  0  0  0
 14 15  1  0  0  0  0
 14 36  1  0  0  0  0
 14 37  1  0  0  0  0
 15 16  1  0  0  0  0
 16 24  1  0  0  0  0
 16 17  2  0  0  0  0
 17 18  1  0  0  0  0
 17 38  1  0  0  0  0
 18 19  2  0  0  0  0
 18 39  1  0  0  0  0
 19 20  1  0  0  0  0
 19 23  1  0  0  0  0
 20 21  1  0  0  0  0
 20 40  1  0  0  0  0
 20 41  1  0  0  0  0
 21 22  3  0  0  0  0
 23 24  2  0  0  0  0
 23 42  1  0  0  0  0
 24 43  1  0  0  0  0
M  END
> <s_m_source_file>
AV-unprocessed.smi

> <i_m_source_file_index>
2163

> <i_lp_mmshare_version>
43012

> <i_f3d_flags>
0

> <s_epik_input>
W2NIXTFbY0hdW2NIXVtjSF1jKGMxMiluKGMobjIpW0NIM10pW0NIMl1bQ0BIXShbT0hdKVtDSDJdT2MzW2NIXVtjSF1jKFtDSDJdQyNOKVtjSF1bY0hdMw==

> <s_epik_cmdline>
J2VwaWtfcHl0aG9uJywgJy1waCcsICc3LjAnLCAnLXRuJywgJzgnLCAnLW1hJywgJzIwMCcsICctbWV0YWxfYmluZGluZycsICctaW1hZScsICc8aW5maWxlLm1hZT4nLCAnLW9tYWUnLCAnPG91dGZpbGUubWFlPic=

> <r_lp_tautomer_probability>
1

> <r_epik_Ionization_Penalty>
0.114213

> <r_epik_Ionization_Penalty_Charging>
0

> <r_epik_Ionization_Penalty_Neutral>
0.114213

> <r_epik_State_Penalty>
0.103875

> <r_epik_Charging_Adjusted_Penalty>
0.103875

> <i_epik_Tot_Q>
0

> <i_epik_Tot_abs_Q>
0

> <r_epik_Metal_State_Penalty>
0.000113526

> <b_epik_Metal_Only>
0

> <s_lp_Force_Field>
OPLS_2005

> <r_lp_Energy>
15.853

> <b_lp_Chiralities_Consistent>
1

> <s_lp_Variant>
AV-unprocessed.smi:2163-2

> <Gold.Version>
5.8.1

> <Gold.Id.Protein>
6NUR|6NUR_protein|mol2

> <Gold.PLP.Fitness>
49.4236

> <Gold.PLP.PLP>
-47.0466

> <Gold.PLP.part.hbond>
-4.3440

> <Gold.PLP.part.metal>
0.0000

> <Gold.PLP.part.buried>
-0.4747

> <Gold.PLP.part.nonpolar>
-42.6018

> <Gold.PLP.part.repulsive>
0.1845

> <Gold.PLP.ligand.clash>
0.0216

> <Gold.PLP.ligand.torsion>
1.5521

> <Gold.PLP.Chemscore.Hbond>
1.7773

> <Gold.PLP.Chemscore.CHOScore>
0.0000

> <Gold.PLP.Chemscore.Metal>
0.0000

> <Gold.Chemscore.Hbonds>
donor molecule, donor type, donor heavy atom, donor atom, acceptor molecule, acceptor atom, score
      L1  H    13    35       P1  8028  0.86
      P1  H  7997  8009       L1     3  0.06
      P1  H  8011  8017       L1    13  0.03
      P1  H 10162 10167       L1    22  0.46

> <Gold.PLP.Chemscore.Internal.Correction>
0.1709

> <Gold.Rescore>
     Score         DG    S(hbond)    S(metal)    S(lipo)     H(rot)  DE(clash)    DE(int)     intcor
     15.34     -18.13       1.70        0.00     114.62       2.51       1.25       1.53       ----

> <Gold.Chemscore.Fitness>
15.3441

> <Gold.Chemscore.DG>
-18.1270

> <Gold.Chemscore.ZeroCoef>
-5.4800

> <Gold.Chemscore.Hbond>
1.6963

> <Gold.Chemscore.Metal>
0.0000

> <Gold.Chemscore.Lipo>
114.6225

> <Gold.Chemscore.Internal_Hbond>
0.0000

> <Gold.Chemscore.DEClash>
1.2512

> <Gold.Chemscore.DEInternal>
1.5317

> <Gold.Chemscore.Rot>
2.5115

> <Gold.Chemscore.Internal.Correction>
   9.000000E+99

> <Gold.Chemscore.Hbonds>
donor molecule, donor type, donor heavy atom, donor atom, acceptor molecule, acceptor atom, score
      L1  H    13    35       P1  8028  0.84
      P1  H  8011  8017       L1    13  0.02
      P1  H 10162 10167       L1    22  0.46

> <Gold.Chemscore.Hbond.Weighted>
-5.6658

> <Gold.Chemscore.Metal.Weighted>
-0.0000

> <Gold.Chemscore.Lipo.Weighted>
-13.4108

> <Gold.Chemscore.Internal_Hbond.Weighted>
0.0000

> <Gold.Chemscore.DEClash.Weighted>
1.2512

> <Gold.Chemscore.DEInternal.Weighted>
1.5317

> <Gold.Chemscore.Rot.Weighted>
6.4296

> <Gold.Chemscore.Internal.Correction.Weighted>
   9.000000E+99

> <Gold.Protein.RotatedTorsions>
[ 6907 6896 6895 6894 ] final   78.79 input  -60.11 | X-H torsion
[ 7974 7965 7964 7962 ] final   88.41 input  175.53 | X-H torsion
[ 8008 7997 7996 7995 ] final -179.95 input   59.86 | X-H torsion
[ 10167 10162 10161 10158 ] final -158.08 input  -65.29 | X-H torsion
[ 10718 10713 10712 10709 ] final -158.09 input   66.30 | X-H torsion
[ 10763 10752 10751 10750 ] final -110.07 input  -60.55 | X-H torsion
[ 11005 11000 10999 10996 ] final  156.80 input  -57.11 | X-H torsion

> <Gold.Protein.ActiveResidues>
 VAL166  LYS551  ARG553  GLY616  TRP617  ASP618  TYR619  PRO620  LYS621  CYS622 
 ASP623  PHE694  ASN695  SER759  ASP760  ASP761  ALA762  ILE779  LEU786  VAL792 
 PHE793  MET794  SER795  GLU796  ALA797  LYS798  CYS799  TRP800  GLU811  SER814 

> <Gold.Protein.RotatedAtoms>
  152.5173  134.3610  159.9284 H   0  0  0  0  0  0  0  0  0  0  0  0  # atno 6907 bound_to 6896
  151.3563  133.3900  159.2693 H   0  0  0  0  0  0  0  0  0  0  0  0  # atno 6908 bound_to 6896
  150.9687  134.9083  159.7833 H   0  0  0  0  0  0  0  0  0  0  0  0  # atno 6909 bound_to 6896
  145.5461  139.2292  143.2539 H   0  0  0  0  0  0  0  0  0  0  0  0  # atno 7974 bound_to 7965
  156.0364  140.1293  157.0203 H   0  0  0  0  0  0  0  0  0  0  0  0  # atno 8008 bound_to 7997
  154.4372  140.1039  156.6245 H   0  0  0  0  0  0  0  0  0  0  0  0  # atno 8009 bound_to 7997
  155.5731  140.3467  155.4522 H   0  0  0  0  0  0  0  0  0  0  0  0  # atno 8010 bound_to 7997
  139.6720  143.9729  152.2289 H   0  0  0  0  0  0  0  0  0  0  0  0  # atno 10167 bound_to 10162
  156.5493  130.8598  151.2774 H   0  0  0  0  0  0  0  0  0  0  0  0  # atno 10718 bound_to 10713
  154.8228  135.4577  154.0830 H   0  0  0  0  0  0  0  0  0  0  0  0  # atno 10763 bound_to 10752
  153.2169  135.6889  153.8053 H   0  0  0  0  0  0  0  0  0  0  0  0  # atno 10764 bound_to 10752
  153.7484  135.3302  155.3293 H   0  0  0  0  0  0  0  0  0  0  0  0  # atno 10765 bound_to 10752
  140.1709  134.8544  157.2689 H   0  0  0  0  0  0  0  0  0  0  0  0  # atno 11005 bound_to 11000
  146.1948  140.6282  142.9129 LP  0  0  0  0  0  0  0  0  0  0  0  0  # atno 17320 bound_to 7965
  144.7553  140.5291  143.6773 LP  0  0  0  0  0  0  0  0  0  0  0  0  # atno 17321 bound_to 7965
  139.9496  144.6629  150.8185 LP  0  0  0  0  0  0  0  0  0  0  0  0  # atno 17342 bound_to 10162
  140.7621  143.3191  151.2664 LP  0  0  0  0  0  0  0  0  0  0  0  0  # atno 17343 bound_to 10162
  157.7390  130.9824  150.2290 LP  0  0  0  0  0  0  0  0  0  0  0  0  # atno 17370 bound_to 10713
  156.2899  130.3744  149.7851 LP  0  0  0  0  0  0  0  0  0  0  0  0  # atno 17371 bound_to 10713
  140.2379  134.3831  155.7493 LP  0  0  0  0  0  0  0  0  0  0  0  0  # atno 17394 bound_to 11000
  141.2217  133.7249  156.8742 LP  0  0  0  0  0  0  0  0  0  0  0  0  # atno 17395 bound_to 11000

$$$$
