AV-unprocessed.smi:3037|AV-procd|sdf|11586|dock6
  -GOLD-   2272016563D 1   1.00000     0.00000
 Structure written by MMmdl.
 47 48  0  0  0  0  0  0  0  0  2 V2000
  146.1994  137.3234  151.5624 C   0  0  0  0  0  0  0  0  0  0  0  0
  146.5316  138.4102  152.5438 C   0  0  0  0  0  0  0  0  0  0  0  0
  146.0273  138.5790  153.8647 C   0  0  0  0  0  0  0  0  0  0  0  0
  146.5211  139.6463  154.4709 N   0  0  0  0  0  0  0  0  0  0  0  0
  147.3562  140.1940  153.5628 N   0  0  0  0  0  0  0  0  0  0  0  0
  148.0867  141.4055  153.8901 C   0  0  0  0  0  0  0  0  0  0  0  0
  148.9210  141.2776  155.1814 C   0  0  2  0  0  0  0  0  0  0  0  0
  148.0612  141.3920  156.4562 C   0  0  0  0  0  0  0  0  0  0  0  0
  149.9935  142.2980  155.1656 N   0  3  0  0  0  0  0  0  0  0  0  0
  151.1374  142.0350  156.0643 C   0  0  0  0  0  0  0  0  0  0  0  0
  150.8569  142.5721  157.4799 C   0  0  0  0  0  0  0  0  0  0  0  0
  151.6405  141.8430  158.5859 C   0  0  0  0  0  0  0  0  0  0  0  0
  151.5447  140.6178  158.6712 O   0  0  0  0  0  0  0  0  0  0  0  0
  152.4115  142.5676  159.4339 N   0  0  0  0  0  0  0  0  0  0  0  0
  152.4971  144.0334  159.3696 C   0  0  0  0  0  0  0  0  0  0  0  0
  151.8063  144.6309  160.6093 C   0  0  0  0  0  0  0  0  0  0  0  0
  152.4208  144.0717  161.9057 C   0  0  0  0  0  0  0  0  0  0  0  0
  152.4895  142.5334  161.8823 C   0  0  0  0  0  0  0  0  0  0  0  0
  153.1517  142.0322  160.5858 C   0  0  0  0  0  0  0  0  0  0  0  0
  147.3791  139.4706  152.3892 C   0  0  0  0  0  0  0  0  0  0  0  0
  145.7402  136.4633  152.0503 H   0  0  0  0  0  0  0  0  0  0  0  0
  147.0879  136.9613  151.0448 H   0  0  0  0  0  0  0  0  0  0  0  0
  145.5013  137.6707  150.8006 H   0  0  0  0  0  0  0  0  0  0  0  0
  145.3197  137.9605  154.3970 H   0  0  0  0  0  0  0  0  0  0  0  0
  148.7351  141.6425  153.0455 H   0  0  0  0  0  0  0  0  0  0  0  0
  147.3782  142.2315  153.9774 H   0  0  0  0  0  0  0  0  0  0  0  0
  149.3947  140.2946  155.1709 H   0  0  0  0  0  0  0  0  0  0  0  0
  147.2902  140.6223  156.4880 H   0  0  0  0  0  0  0  0  0  0  0  0
  147.5632  142.3605  156.5111 H   0  0  0  0  0  0  0  0  0  0  0  0
  148.6557  141.2710  157.3611 H   0  0  0  0  0  0  0  0  0  0  0  0
  150.3581  142.3388  154.2245 H   0  0  0  0  0  0  0  0  0  0  0  0
  151.3269  140.9623  156.1064 H   0  0  0  0  0  0  0  0  0  0  0  0
  152.0309  142.5087  155.6544 H   0  0  0  0  0  0  0  0  0  0  0  0
  151.1034  143.6342  157.5176 H   0  0  0  0  0  0  0  0  0  0  0  0
  149.7908  142.4761  157.6894 H   0  0  0  0  0  0  0  0  0  0  0  0
  153.5460  144.3324  159.3436 H   0  0  0  0  0  0  0  0  0  0  0  0
  152.0507  144.4464  158.4643 H   0  0  0  0  0  0  0  0  0  0  0  0
  151.8868  145.7181  160.5968 H   0  0  0  0  0  0  0  0  0  0  0  0
  150.7411  144.3984  160.5796 H   0  0  0  0  0  0  0  0  0  0  0  0
  153.4287  144.4717  162.0233 H   0  0  0  0  0  0  0  0  0  0  0  0
  151.8513  144.4117  162.7710 H   0  0  0  0  0  0  0  0  0  0  0  0
  153.0412  142.1720  162.7505 H   0  0  0  0  0  0  0  0  0  0  0  0
  151.4828  142.1209  161.9608 H   0  0  0  0  0  0  0  0  0  0  0  0
  153.2151  140.9458  160.6042 H   0  0  0  0  0  0  0  0  0  0  0  0
  154.1845  142.3808  160.5381 H   0  0  0  0  0  0  0  0  0  0  0  0
  147.9911  139.7660  151.5496 H   0  0  0  0  0  0  0  0  0  0  0  0
  149.5916  143.1967  155.3915 H   0  0  0  0  0  0  0  0  0  0  0  0
  1  2  1  0  0  0  0
  1 21  1  0  0  0  0
  1 22  1  0  0  0  0
  1 23  1  0  0  0  0
  2 20  2  0  0  0  0
  2  3  1  0  0  0  0
  3  4  2  0  0  0  0
  3 24  1  0  0  0  0
  4  5  1  0  0  0  0
  5  6  1  0  0  0  0
  5 20  1  0  0  0  0
  6  7  1  0  0  0  0
  6 25  1  0  0  0  0
  6 26  1  0  0  0  0
  7  8  1  0  0  0  0
  7  9  1  0  0  0  0
  7 27  1  0  0  0  0
  8 28  1  0  0  0  0
  8 29  1  0  0  0  0
  8 30  1  0  0  0  0
  9 10  1  0  0  0  0
  9 31  1  0  0  0  0
  9 47  1  0  0  0  0
 10 11  1  0  0  0  0
 10 32  1  0  0  0  0
 10 33  1  0  0  0  0
 11 12  1  0  0  0  0
 11 34  1  0  0  0  0
 11 35  1  0  0  0  0
 12 13  2  0  0  0  0
 12 14  1  0  0  0  0
 14 19  1  0  0  0  0
 14 15  1  0  0  0  0
 15 16  1  0  0  0  0
 15 36  1  0  0  0  0
 15 37  1  0  0  0  0
 16 17  1  0  0  0  0
 16 38  1  0  0  0  0
 16 39  1  0  0  0  0
 17 18  1  0  0  0  0
 17 40  1  0  0  0  0
 17 41  1  0  0  0  0
 18 19  1  0  0  0  0
 18 42  1  0  0  0  0
 18 43  1  0  0  0  0
 19 44  1  0  0  0  0
 19 45  1  0  0  0  0
 20 46  1  0  0  0  0
M  CHG  1   9   1
M  END
> <s_m_source_file>
AV-unprocessed.smi

> <i_m_source_file_index>
3037

> <i_lp_mmshare_version>
43012

> <i_f3d_flags>
0

> <s_epik_input>
W0NIM11jMVtjSF1ubihbY0hdMSlbQ0gyXVtDQEhdKFtDSDNdKVtOSF1bQ0gyXVtDSDJdQyg9TylOMltDSDJdW0NIMl1bQ0gyXVtDSDJdW0NIMl0y

> <s_epik_cmdline>
J2VwaWtfcHl0aG9uJywgJy1waCcsICc3LjAnLCAnLXRuJywgJzgnLCAnLW1hJywgJzIwMCcsICctbWV0YWxfYmluZGluZycsICctaW1hZScsICc8aW5maWxlLm1hZT4nLCAnLW9tYWUnLCAnPG91dGZpbGUubWFlPic=

> <r_lp_tautomer_probability>
1

> <r_epik_Ionization_Penalty>
0.00574983

> <r_epik_Ionization_Penalty_Charging>
0.00574185

> <r_epik_Ionization_Penalty_Neutral>
7.97936e-06

> <r_epik_State_Penalty>
0.00421386

> <r_epik_Charging_Adjusted_Penalty>
0.00995571

> <i_epik_Tot_Q>
1

> <i_epik_Tot_abs_Q>
1

> <r_epik_Metal_State_Penalty>
-0

> <b_epik_Metal_Only>
0

> <s_lp_Force_Field>
OPLS_2005

> <r_lp_Energy>
27.2307

> <b_lp_Chiralities_Consistent>
1

> <s_lp_Variant>
AV-unprocessed.smi:3037-1

> <Gold.Version>
5.8.1

> <Gold.Id.Protein>
6NUR|6NUR_protein|mol2

> <Gold.PLP.Fitness>
52.7024

> <Gold.PLP.PLP>
-44.9747

> <Gold.PLP.part.hbond>
-1.0000

> <Gold.PLP.part.metal>
0.0000

> <Gold.PLP.part.buried>
-3.1792

> <Gold.PLP.part.nonpolar>
-39.2704

> <Gold.PLP.part.repulsive>
0.2872

> <Gold.PLP.ligand.clash>
0.0000

> <Gold.PLP.ligand.torsion>
0.6827

> <Gold.PLP.Chemscore.Hbond>
2.0000

> <Gold.PLP.Chemscore.CHOScore>
1.0000

> <Gold.PLP.Chemscore.Metal>
0.0000

> <Gold.Chemscore.Hbonds>
donor molecule, donor type, donor heavy atom, donor atom, acceptor molecule, acceptor atom, score
      L1  H     9    47       P1  8028  2.00
      L1  C    20    46       P1  7957  0.04

> <Gold.PLP.Chemscore.Internal.Correction>
0.0931

> <Gold.Rescore>
     Score         DG    S(hbond)    S(metal)    S(lipo)     H(rot)  DE(clash)    DE(int)     intcor
     16.61     -17.29       1.00        0.00     112.65       1.84       0.08       0.60       ----

> <Gold.Chemscore.Fitness>
16.6147

> <Gold.Chemscore.DG>
-17.2929

> <Gold.Chemscore.ZeroCoef>
-5.4800

> <Gold.Chemscore.Hbond>
0.9999

> <Gold.Chemscore.Metal>
0.0000

> <Gold.Chemscore.Lipo>
112.6453

> <Gold.Chemscore.Internal_Hbond>
0.0000

> <Gold.Chemscore.DEClash>
0.0775

> <Gold.Chemscore.DEInternal>
0.6006

> <Gold.Chemscore.Rot>
1.8383

> <Gold.Chemscore.Internal.Correction>
   9.000000E+99

> <Gold.Chemscore.Hbonds>
donor molecule, donor type, donor heavy atom, donor atom, acceptor molecule, acceptor atom, score
      L1  H     9    47       P1  8028  1.00

> <Gold.Chemscore.Hbond.Weighted>
-3.3395

> <Gold.Chemscore.Metal.Weighted>
-0.0000

> <Gold.Chemscore.Lipo.Weighted>
-13.1795

> <Gold.Chemscore.Internal_Hbond.Weighted>
0.0000

> <Gold.Chemscore.DEClash.Weighted>
0.0775

> <Gold.Chemscore.DEInternal.Weighted>
0.6006

> <Gold.Chemscore.Rot.Weighted>
4.7062

> <Gold.Chemscore.Internal.Correction.Weighted>
   9.000000E+99

> <Gold.Protein.RotatedTorsions>
[ 6907 6896 6895 6894 ] final -103.67 input  -60.11 | X-H torsion
[ 7974 7965 7964 7962 ] final -134.65 input  175.53 | X-H torsion
[ 8008 7997 7996 7995 ] final  -93.20 input   59.86 | X-H torsion
[ 10167 10162 10161 10158 ] final  -18.90 input  -65.29 | X-H torsion
[ 10718 10713 10712 10709 ] final -131.72 input   66.30 | X-H torsion
[ 10763 10752 10751 10750 ] final   33.93 input  -60.55 | X-H torsion
[ 11005 11000 10999 10996 ] final -103.56 input  -57.11 | X-H torsion

> <Gold.Protein.ActiveResidues>
 VAL166  LYS551  ARG553  GLY616  TRP617  ASP618  TYR619  PRO620  LYS621  CYS622 
 ASP623  PHE694  ASN695  SER759  ASP760  ASP761  ALA762  ILE779  LEU786  VAL792 
 PHE793  MET794  SER795  GLU796  ALA797  LYS798  CYS799  TRP800  GLU811  SER814 

> <Gold.Protein.RotatedAtoms>
  150.7251  134.0394  159.3760 H   0  0  0  0  0  0  0  0  0  0  0  0  # atno 6907 bound_to 6896
  151.8366  135.0602  160.0452 H   0  0  0  0  0  0  0  0  0  0  0  0  # atno 6908 bound_to 6896
  152.2893  133.5510  159.5584 H   0  0  0  0  0  0  0  0  0  0  0  0  # atno 6909 bound_to 6896
  144.9084  140.6863  143.5041 H   0  0  0  0  0  0  0  0  0  0  0  0  # atno 7974 bound_to 7965
  154.7327  140.0501  157.0741 H   0  0  0  0  0  0  0  0  0  0  0  0  # atno 8008 bound_to 7997
  155.0280  140.3154  155.4749 H   0  0  0  0  0  0  0  0  0  0  0  0  # atno 8009 bound_to 7997
  156.2845  140.2155  156.5401 H   0  0  0  0  0  0  0  0  0  0  0  0  # atno 8010 bound_to 7997
  140.7263  143.4871  151.0041 H   0  0  0  0  0  0  0  0  0  0  0  0  # atno 10167 bound_to 10162
  156.2273  130.7016  151.0821 H   0  0  0  0  0  0  0  0  0  0  0  0  # atno 10718 bound_to 10713
  153.0188  135.6374  154.1588 H   0  0  0  0  0  0  0  0  0  0  0  0  # atno 10763 bound_to 10752
  154.1325  135.2839  155.3183 H   0  0  0  0  0  0  0  0  0  0  0  0  # atno 10764 bound_to 10752
  154.6184  135.5533  153.7610 H   0  0  0  0  0  0  0  0  0  0  0  0  # atno 10765 bound_to 10752
  141.1140  133.8650  157.1501 H   0  0  0  0  0  0  0  0  0  0  0  0  # atno 11005 bound_to 11000
  145.3497  139.1709  143.4441 LP  0  0  0  0  0  0  0  0  0  0  0  0  # atno 17320 bound_to 7965
  146.3145  140.3547  142.8659 LP  0  0  0  0  0  0  0  0  0  0  0  0  # atno 17321 bound_to 7965
  139.8573  143.7360  152.3175 LP  0  0  0  0  0  0  0  0  0  0  0  0  # atno 17342 bound_to 10162
  139.7563  144.7519  151.0430 LP  0  0  0  0  0  0  0  0  0  0  0  0  # atno 17343 bound_to 10162
  157.7116  131.0731  150.6478 LP  0  0  0  0  0  0  0  0  0  0  0  0  # atno 17370 bound_to 10713
  156.6544  130.4494  149.5708 LP  0  0  0  0  0  0  0  0  0  0  0  0  # atno 17371 bound_to 10713
  140.0051  135.0012  157.0275 LP  0  0  0  0  0  0  0  0  0  0  0  0  # atno 17394 bound_to 11000
  140.4696  134.1400  155.7201 LP  0  0  0  0  0  0  0  0  0  0  0  0  # atno 17395 bound_to 11000

$$$$
