AV-unprocessed.smi:2895|AV-procd|sdf|11131|dock7
  -GOLD-   2272016 03D 1   1.00000     0.00000
 Structure written by MMmdl.
 53 56  0  0  0  0  0  0  0  0  2 V2000
  149.9507  132.5665  156.7413 O   0  0  0  0  0  0  0  0  0  0  0  0
  149.6243  133.3642  155.8615 C   0  0  0  0  0  0  0  0  0  0  0  0
  149.8453  134.6846  155.9795 N   0  0  0  0  0  0  0  0  0  0  0  0
  150.4586  135.3357  157.1316 C   0  0  0  0  0  0  0  0  0  0  0  0
  151.7114  136.1337  156.7330 C   0  0  0  0  0  0  0  0  0  0  0  0
  151.3707  137.3715  155.9261 C   0  0  0  0  0  0  0  0  0  0  0  0
  151.7223  138.6537  156.3957 C   0  0  0  0  0  0  0  0  0  0  0  0
  151.3846  139.7734  155.6094 C   0  0  0  0  0  0  0  0  0  0  0  0
  150.7400  139.6814  154.4262 N   0  0  0  0  0  0  0  0  0  0  0  0
  150.4067  138.4498  153.9832 C   0  0  0  0  0  0  0  0  0  0  0  0
  150.6976  137.2666  154.6914 C   0  0  0  0  0  0  0  0  0  0  0  0
  149.0466  132.9845  154.6933 N   0  0  0  0  0  0  0  0  0  0  0  0
  148.7232  133.8617  153.5570 C   0  0  0  0  0  0  0  0  0  0  0  0
  147.1930  134.0309  153.4767 C   0  0  0  0  0  0  0  0  0  0  0  0
  146.4903  132.7200  153.3650 N   0  3  0  0  0  0  0  0  0  0  0  0
  146.5228  132.1123  152.0000 C   0  0  1  0  0  0  0  0  0  0  0  0
  145.3956  131.0819  151.7435 C   0  0  0  0  0  0  0  0  0  0  0  0
  144.7989  131.5388  150.3991 C   0  0  1  0  0  0  0  0  0  0  0  0
  143.9358  132.7889  150.6394 C   0  0  0  0  0  0  0  0  0  0  0  0
  144.9895  133.8686  150.9432 C   0  0  0  0  0  0  0  0  0  0  0  0
  146.3221  133.0976  150.8203 C   0  0  2  0  0  0  0  0  0  0  0  0
  146.0082  132.1292  149.6846 C   0  0  0  0  0  0  0  0  0  0  0  0
  146.9219  131.7794  154.4394 C   0  0  0  0  0  0  0  0  0  0  0  0
  148.4575  131.6524  154.5182 C   0  0  0  0  0  0  0  0  0  0  0  0
  149.5710  135.2820  155.2134 H   0  0  0  0  0  0  0  0  0  0  0  0
  149.7301  135.9819  157.6243 H   0  0  0  0  0  0  0  0  0  0  0  0
  150.7260  134.5628  157.8527 H   0  0  0  0  0  0  0  0  0  0  0  0
  152.2666  136.4262  157.6255 H   0  0  0  0  0  0  0  0  0  0  0  0
  152.3858  135.5132  156.1414 H   0  0  0  0  0  0  0  0  0  0  0  0
  152.2400  138.7790  157.3357 H   0  0  0  0  0  0  0  0  0  0  0  0
  151.6400  140.7694  155.9396 H   0  0  0  0  0  0  0  0  0  0  0  0
  149.8918  138.4052  153.0350 H   0  0  0  0  0  0  0  0  0  0  0  0
  150.4082  136.3053  154.2929 H   0  0  0  0  0  0  0  0  0  0  0  0
  149.1911  134.8445  153.6078 H   0  0  0  0  0  0  0  0  0  0  0  0
  149.1034  133.4114  152.6395 H   0  0  0  0  0  0  0  0  0  0  0  0
  146.8441  134.5178  154.3883 H   0  0  0  0  0  0  0  0  0  0  0  0
  146.9213  134.7089  152.6694 H   0  0  0  0  0  0  0  0  0  0  0  0
  147.4854  131.6186  151.8617 H   0  0  0  0  0  0  0  0  0  0  0  0
  145.8097  130.0758  151.6684 H   0  0  0  0  0  0  0  0  0  0  0  0
  144.6328  131.0683  152.5232 H   0  0  0  0  0  0  0  0  0  0  0  0
  144.2800  130.7475  149.8573 H   0  0  0  0  0  0  0  0  0  0  0  0
  143.3694  133.0474  149.7436 H   0  0  0  0  0  0  0  0  0  0  0  0
  143.2255  132.6559  151.4563 H   0  0  0  0  0  0  0  0  0  0  0  0
  144.9380  134.6666  150.2012 H   0  0  0  0  0  0  0  0  0  0  0  0
  144.8483  134.3231  151.9238 H   0  0  0  0  0  0  0  0  0  0  0  0
  147.1841  133.7355  150.6236 H   0  0  0  0  0  0  0  0  0  0  0  0
  146.8003  131.4013  149.5003 H   0  0  0  0  0  0  0  0  0  0  0  0
  145.7561  132.6277  148.7466 H   0  0  0  0  0  0  0  0  0  0  0  0
  146.5486  132.1628  155.3901 H   0  0  0  0  0  0  0  0  0  0  0  0
  146.4684  130.7963  154.3189 H   0  0  0  0  0  0  0  0  0  0  0  0
  148.8545  131.2021  153.6080 H   0  0  0  0  0  0  0  0  0  0  0  0
  148.7261  130.9627  155.3195 H   0  0  0  0  0  0  0  0  0  0  0  0
  145.5140  132.9151  153.5358 H   0  0  0  0  0  0  0  0  0  0  0  0
  1  2  2  0  0  0  0
  2  3  1  0  0  0  0
  2 12  1  0  0  0  0
  3  4  1  0  0  0  0
  3 25  1  0  0  0  0
  4  5  1  0  0  0  0
  4 26  1  0  0  0  0
  4 27  1  0  0  0  0
  5  6  1  0  0  0  0
  5 28  1  0  0  0  0
  5 29  1  0  0  0  0
  6 11  1  0  0  0  0
  6  7  2  0  0  0  0
  7  8  1  0  0  0  0
  7 30  1  0  0  0  0
  8  9  2  0  0  0  0
  8 31  1  0  0  0  0
  9 10  1  0  0  0  0
 10 11  2  0  0  0  0
 10 32  1  0  0  0  0
 11 33  1  0  0  0  0
 12 24  1  0  0  0  0
 12 13  1  0  0  0  0
 13 14  1  0  0  0  0
 13 34  1  0  0  0  0
 13 35  1  0  0  0  0
 14 15  1  0  0  0  0
 14 36  1  0  0  0  0
 14 37  1  0  0  0  0
 15 16  1  0  0  0  0
 15 23  1  0  0  0  0
 15 53  1  0  0  0  0
 16 21  1  0  0  0  0
 16 17  1  0  0  0  0
 16 38  1  0  0  0  0
 17 18  1  0  0  0  0
 17 39  1  0  0  0  0
 17 40  1  0  0  0  0
 18 22  1  0  0  0  0
 18 19  1  0  0  0  0
 18 41  1  0  0  0  0
 19 20  1  0  0  0  0
 19 42  1  0  0  0  0
 19 43  1  0  0  0  0
 20 21  1  0  0  0  0
 20 44  1  0  0  0  0
 20 45  1  0  0  0  0
 21 22  1  0  0  0  0
 21 46  1  0  0  0  0
 22 47  1  0  0  0  0
 22 48  1  0  0  0  0
 23 24  1  0  0  0  0
 23 49  1  0  0  0  0
 23 50  1  0  0  0  0
 24 51  1  0  0  0  0
 24 52  1  0  0  0  0
M  CHG  1  15   1
M  END
> <s_m_source_file>
AV-unprocessed.smi

> <i_m_source_file_index>
2895

> <i_lp_mmshare_version>
43012

> <i_f3d_flags>
0

> <s_epik_input>
W0NIMl0xW0NIMl1bQ0BASF0oW0NIMl0yKVtDQEBIXShbQ0gyXVtDQEhdMTIpTihbQ0gyXVtDSDJdMylbQ0gyXVtDSDJdTjNDKD1PKVtOSF1bQ0gyXVtDSDJdYzRbY0hdW2NIXW5bY0hdW2NIXTQ=

> <s_epik_cmdline>
J2VwaWtfcHl0aG9uJywgJy1waCcsICc3LjAnLCAnLXRuJywgJzgnLCAnLW1hJywgJzIwMCcsICctbWV0YWxfYmluZGluZycsICctaW1hZScsICc8aW5maWxlLm1hZT4nLCAnLW9tYWUnLCAnPG91dGZpbGUubWFlPic=

> <r_epik_Ionization_Penalty>
0.0566172

> <r_epik_Ionization_Penalty_Charging>
0.00262064

> <r_epik_Ionization_Penalty_Neutral>
0.0539965

> <r_epik_State_Penalty>
0.0463959

> <r_epik_Charging_Adjusted_Penalty>
0.0490165

> <i_epik_Tot_Q>
1

> <i_epik_Tot_abs_Q>
1

> <r_epik_Metal_State_Penalty>
0.0424856

> <b_epik_Metal_Only>
0

> <s_lp_Force_Field>
OPLS_2005

> <r_lp_Energy>
99.8283

> <b_lp_Chiralities_Consistent>
1

> <s_lp_Variant>
AV-unprocessed.smi:2895-4

> <Gold.Version>
5.8.1

> <Gold.Id.Protein>
6NUR|6NUR_protein|mol2

> <Gold.PLP.Fitness>
46.5953

> <Gold.PLP.PLP>
-38.3969

> <Gold.PLP.part.hbond>
-1.0000

> <Gold.PLP.part.metal>
0.0000

> <Gold.PLP.part.buried>
-1.5270

> <Gold.PLP.part.nonpolar>
-37.0162

> <Gold.PLP.part.repulsive>
0.2053

> <Gold.PLP.ligand.clash>
0.0000

> <Gold.PLP.ligand.torsion>
0.3470

> <Gold.PLP.Chemscore.Hbond>
1.0000

> <Gold.PLP.Chemscore.CHOScore>
1.9371

> <Gold.PLP.Chemscore.Metal>
0.0000

> <Gold.Chemscore.Hbonds>
donor molecule, donor type, donor heavy atom, donor atom, acceptor molecule, acceptor atom, score
      P1  H  7989  7998       L1     9  1.00
      L1  C    10    32       P1  7948  0.78
      L1  C    10    32       P1  7957  1.00

> <Gold.PLP.Chemscore.Internal.Correction>
0.0811

> <Gold.Rescore>
     Score         DG    S(hbond)    S(metal)    S(lipo)     H(rot)  DE(clash)    DE(int)     intcor
     17.85     -19.05       0.95        0.00     119.01       1.37       0.60       0.60       ----

> <Gold.Chemscore.Fitness>
17.8480

> <Gold.Chemscore.DG>
-19.0481

> <Gold.Chemscore.ZeroCoef>
-5.4800

> <Gold.Chemscore.Hbond>
0.9458

> <Gold.Chemscore.Metal>
0.0000

> <Gold.Chemscore.Lipo>
119.0101

> <Gold.Chemscore.Internal_Hbond>
0.0000

> <Gold.Chemscore.DEClash>
0.6047

> <Gold.Chemscore.DEInternal>
0.5954

> <Gold.Chemscore.Rot>
1.3731

> <Gold.Chemscore.Internal.Correction>
   9.000000E+99

> <Gold.Chemscore.Hbonds>
donor molecule, donor type, donor heavy atom, donor atom, acceptor molecule, acceptor atom, score
      P1  H  7989  7998       L1     9  0.30

> <Gold.Chemscore.Hbond.Weighted>
-3.1591

> <Gold.Chemscore.Metal.Weighted>
-0.0000

> <Gold.Chemscore.Lipo.Weighted>
-13.9242

> <Gold.Chemscore.Internal_Hbond.Weighted>
0.0000

> <Gold.Chemscore.DEClash.Weighted>
0.6047

> <Gold.Chemscore.DEInternal.Weighted>
0.5954

> <Gold.Chemscore.Rot.Weighted>
3.5152

> <Gold.Chemscore.Internal.Correction.Weighted>
   9.000000E+99

> <Gold.Protein.RotatedTorsions>
[ 6907 6896 6895 6894 ] final  145.82 input  -60.11 | X-H torsion
[ 7974 7965 7964 7962 ] final  119.84 input  175.53 | X-H torsion
[ 8008 7997 7996 7995 ] final   40.91 input   59.86 | X-H torsion
[ 10167 10162 10161 10158 ] final  156.32 input  -65.29 | X-H torsion
[ 10718 10713 10712 10709 ] final  -78.40 input   66.30 | X-H torsion
[ 10763 10752 10751 10750 ] final -126.59 input  -60.55 | X-H torsion
[ 11005 11000 10999 10996 ] final  -26.22 input  -57.11 | X-H torsion

> <Gold.Protein.ActiveResidues>
 VAL166  LYS551  ARG553  GLY616  TRP617  ASP618  TYR619  PRO620  LYS621  CYS622 
 ASP623  PHE694  ASN695  SER759  ASP760  ASP761  ALA762  ILE779  LEU786  VAL792 
 PHE793  MET794  SER795  GLU796  ALA797  LYS798  CYS799  TRP800  GLU811  SER814 

> <Gold.Protein.RotatedAtoms>
  152.1760  133.4675  159.4933 H   0  0  0  0  0  0  0  0  0  0  0  0  # atno 6907 bound_to 6896
  150.6927  134.1894  159.4288 H   0  0  0  0  0  0  0  0  0  0  0  0  # atno 6908 bound_to 6896
  151.9803  135.0032  160.0607 H   0  0  0  0  0  0  0  0  0  0  0  0  # atno 6909 bound_to 6896
  145.1383  139.3284  143.4629 H   0  0  0  0  0  0  0  0  0  0  0  0  # atno 7974 bound_to 7965
  155.2609  140.3359  155.4273 H   0  0  0  0  0  0  0  0  0  0  0  0  # atno 8008 bound_to 7997
  156.2175  140.1795  156.7598 H   0  0  0  0  0  0  0  0  0  0  0  0  # atno 8009 bound_to 7997
  154.5775  140.0659  156.9040 H   0  0  0  0  0  0  0  0  0  0  0  0  # atno 8010 bound_to 7997
  139.4821  144.5019  151.8155 H   0  0  0  0  0  0  0  0  0  0  0  0  # atno 10167 bound_to 10162
  156.0119  130.4517  150.3490 H   0  0  0  0  0  0  0  0  0  0  0  0  # atno 10718 bound_to 10713
  154.8746  135.3990  154.3456 H   0  0  0  0  0  0  0  0  0  0  0  0  # atno 10763 bound_to 10752
  153.4249  135.7024  153.6275 H   0  0  0  0  0  0  0  0  0  0  0  0  # atno 10764 bound_to 10752
  153.4921  135.3746  155.2467 H   0  0  0  0  0  0  0  0  0  0  0  0  # atno 10765 bound_to 10752
  140.9009  133.7524  156.0543 H   0  0  0  0  0  0  0  0  0  0  0  0  # atno 11005 bound_to 11000
  146.3507  140.1410  142.8594 LP  0  0  0  0  0  0  0  0  0  0  0  0  # atno 17320 bound_to 7965
  145.0560  140.9053  143.4967 LP  0  0  0  0  0  0  0  0  0  0  0  0  # atno 17321 bound_to 7965
  140.4513  144.1850  150.5898 LP  0  0  0  0  0  0  0  0  0  0  0  0  # atno 17342 bound_to 10162
  140.4581  143.2459  151.9257 LP  0  0  0  0  0  0  0  0  0  0  0  0  # atno 17343 bound_to 10162
  157.1583  131.0338  151.2853 LP  0  0  0  0  0  0  0  0  0  0  0  0  # atno 17370 bound_to 10713
  157.4333  130.7503  149.7008 LP  0  0  0  0  0  0  0  0  0  0  0  0  # atno 17371 bound_to 10713
  140.8230  134.3267  157.5375 LP  0  0  0  0  0  0  0  0  0  0  0  0  # atno 17394 bound_to 11000
  139.8742  134.9320  156.3543 LP  0  0  0  0  0  0  0  0  0  0  0  0  # atno 17395 bound_to 11000

$$$$
