AV-unprocessed.smi:3234|AV-procd|sdf|12356|dock5
  -GOLD-   2272018213D 1   1.00000     0.00000
 Structure written by MMmdl.
 37 39  0  0  0  0  0  0  0  0  4 V2000
  151.6556  140.4753  156.5306 O   0  0  0  0  0  0  0  0  0  0  0  0
  150.8820  141.2695  155.9833 C   0  0  0  0  0  0  0  0  0  0  0  0
  150.7285  142.5132  156.4717 N   0  0  0  0  0  0  0  0  0  0  0  0
  151.3145  143.0948  157.6277 C   0  0  0  0  0  0  0  0  0  0  0  0
  151.7146  142.2291  158.6693 C   0  0  0  0  0  0  0  0  0  0  0  0
  152.3207  142.7656  159.8235 C   0  0  0  0  0  0  0  0  0  0  0  0
  152.5265  144.0967  159.9181 N   0  3  0  0  0  0  0  0  0  0  0  0
  152.1783  144.9610  158.9405 C   0  0  0  0  0  0  0  0  0  0  0  0
  151.5675  144.4831  157.7634 C   0  0  0  0  0  0  0  0  0  0  0  0
  150.1321  141.0607  154.8673 N   0  5  0  0  0  0  0  0  0  0  0  0
  148.6851  140.8277  154.8634 C   0  0  2  0  0  0  0  0  0  0  0  0
  147.9689  141.8277  153.9354 C   0  0  0  0  0  0  0  0  0  0  0  0
  146.7770  142.3329  154.7462 C   0  0  0  0  0  0  0  0  0  0  0  0
  147.2410  142.2853  156.1428 N   0  3  1  0  0  0  0  0  0  0  0  0
  146.1609  142.3750  157.1479 C   0  0  0  0  0  0  0  0  0  0  0  0
  144.8256  141.8832  156.6435 C   0  0  0  0  0  0  0  0  0  0  0  0
  145.0824  143.3678  156.7860 C   0  0  0  0  0  0  0  0  0  0  0  0
  148.0881  141.0818  156.2607 C   0  0  0  0  0  0  0  0  0  0  0  0
  150.1701  143.1347  155.9051 H   0  0  0  0  0  0  0  0  0  0  0  0
  151.5526  141.1636  158.5897 H   0  0  0  0  0  0  0  0  0  0  0  0
  152.6469  142.1734  160.6658 H   0  0  0  0  0  0  0  0  0  0  0  0
  152.4033  146.0014  159.1240 H   0  0  0  0  0  0  0  0  0  0  0  0
  151.3157  145.1827  156.9806 H   0  0  0  0  0  0  0  0  0  0  0  0
  148.4291  139.8101  154.5641 H   0  0  0  0  0  0  0  0  0  0  0  0
  148.6146  142.6742  153.6937 H   0  0  0  0  0  0  0  0  0  0  0  0
  147.6641  141.3732  152.9922 H   0  0  0  0  0  0  0  0  0  0  0  0
  146.4768  143.3410  154.4584 H   0  0  0  0  0  0  0  0  0  0  0  0
  145.9136  141.6759  154.6153 H   0  0  0  0  0  0  0  0  0  0  0  0
  146.4500  142.2276  158.1873 H   0  0  0  0  0  0  0  0  0  0  0  0
  144.7736  141.4772  155.6347 H   0  0  0  0  0  0  0  0  0  0  0  0
  144.1550  141.4219  157.3656 H   0  0  0  0  0  0  0  0  0  0  0  0
  144.5807  143.8839  157.6020 H   0  0  0  0  0  0  0  0  0  0  0  0
  145.2025  143.9478  155.8726 H   0  0  0  0  0  0  0  0  0  0  0  0
  147.4693  140.2294  156.5462 H   0  0  0  0  0  0  0  0  0  0  0  0
  148.8379  141.2136  157.0426 H   0  0  0  0  0  0  0  0  0  0  0  0
  147.8558  143.0767  156.2679 H   0  0  0  0  0  0  0  0  0  0  0  0
  152.9689  144.4645  160.7607 H   0  0  0  0  0  0  0  0  0  0  0  0
  1  2  2  0  0  0  0
  2  3  1  0  0  0  0
  2 10  1  0  0  0  0
  3  4  1  0  0  0  0
  3 19  1  0  0  0  0
  4  9  1  0  0  0  0
  4  5  2  0  0  0  0
  5  6  1  0  0  0  0
  5 20  1  0  0  0  0
  6  7  2  0  0  0  0
  6 21  1  0  0  0  0
  7  8  1  0  0  0  0
  7 37  1  0  0  0  0
  8  9  2  0  0  0  0
  8 22  1  0  0  0  0
  9 23  1  0  0  0  0
 10 11  1  0  0  0  0
 11 18  1  0  0  0  0
 11 12  1  0  0  0  0
 11 24  1  0  0  0  0
 12 13  1  0  0  0  0
 12 25  1  0  0  0  0
 12 26  1  0  0  0  0
 13 14  1  0  0  0  0
 13 27  1  0  0  0  0
 13 28  1  0  0  0  0
 14 15  1  0  0  0  0
 14 18  1  0  0  0  0
 14 36  1  0  0  0  0
 15 17  1  0  0  0  0
 15 16  1  0  0  0  0
 15 29  1  0  0  0  0
 16 17  1  0  0  0  0
 16 30  1  0  0  0  0
 16 31  1  0  0  0  0
 17 32  1  0  0  0  0
 17 33  1  0  0  0  0
 18 34  1  0  0  0  0
 18 35  1  0  0  0  0
M  CHG  1   7   1
M  CHG  1  10  -1
M  CHG  1  14   1
M  END
> <s_m_source_file>
AV-unprocessed.smi

> <i_m_source_file_index>
3234

> <i_lp_mmshare_version>
43012

> <i_f3d_flags>
0

> <s_epik_input>
W2NIXTFbY0hdbltjSF1bY0hdYzFbTkhdQyg9TylbTkhdW0NAQEhdMltDSDJdW0NIMl1OKFtDSDJdMilbQ0hdM1tDSDJdW0NIMl0z

> <s_epik_cmdline>
J2VwaWtfcHl0aG9uJywgJy1waCcsICc3LjAnLCAnLXRuJywgJzgnLCAnLW1hJywgJzIwMCcsICctbWV0YWxfYmluZGluZycsICctaW1hZScsICc8aW5maWxlLm1hZT4nLCAnLW9tYWUnLCAnPG91dGZpbGUubWFlPic=

> <r_epik_Ionization_Penalty>
8.3234

> <r_epik_Ionization_Penalty_Charging>
8.3234

> <r_epik_Ionization_Penalty_Neutral>
3.58513e-06

> <r_epik_State_Penalty>
7.99376

> <r_epik_Charging_Adjusted_Penalty>
16.3172

> <i_epik_Tot_Q>
1

> <i_epik_Tot_abs_Q>
3

> <r_epik_Metal_State_Penalty>
3.98956

> <b_epik_Metal_Only>
1

> <s_lp_Force_Field>
OPLS_2005

> <r_lp_Energy>
40.8871

> <b_lp_Chiralities_Consistent>
1

> <s_lp_Variant>
AV-unprocessed.smi:3234-9

> <Gold.Version>
5.8.1

> <Gold.Id.Protein>
6NUR|6NUR_protein|mol2

> <Gold.PLP.Fitness>
45.2925

> <Gold.PLP.PLP>
-36.2390

> <Gold.PLP.part.hbond>
-3.0000

> <Gold.PLP.part.metal>
0.0000

> <Gold.PLP.part.buried>
-4.5992

> <Gold.PLP.part.nonpolar>
-28.3867

> <Gold.PLP.part.repulsive>
0.2327

> <Gold.PLP.ligand.clash>
0.0000

> <Gold.PLP.ligand.torsion>
1.5532

> <Gold.PLP.Chemscore.Hbond>
3.6310

> <Gold.PLP.Chemscore.CHOScore>
0.0000

> <Gold.PLP.Chemscore.Metal>
0.0000

> <Gold.Chemscore.Hbonds>
donor molecule, donor type, donor heavy atom, donor atom, acceptor molecule, acceptor atom, score
      L1  H     3    19       P1  8028  0.94
      L1  H    14    36       P1  8028  2.00
      P1  H  7989  7998       L1    10  0.62

> <Gold.PLP.Chemscore.Internal.Correction>
1.2671

> <Gold.Rescore>
     Score         DG    S(hbond)    S(metal)    S(lipo)     H(rot)  DE(clash)    DE(int)     intcor
     14.17     -18.31       1.82        0.00      84.12       1.21       0.08       4.07       ----

> <Gold.Chemscore.Fitness>
14.1671

> <Gold.Chemscore.DG>
-18.3140

> <Gold.Chemscore.ZeroCoef>
-5.4800

> <Gold.Chemscore.Hbond>
1.8237

> <Gold.Chemscore.Metal>
0.0000

> <Gold.Chemscore.Lipo>
84.1241

> <Gold.Chemscore.Internal_Hbond>
0.0000

> <Gold.Chemscore.DEClash>
0.0774

> <Gold.Chemscore.DEInternal>
4.0695

> <Gold.Chemscore.Rot>
1.2108

> <Gold.Chemscore.Internal.Correction>
   9.000000E+99

> <Gold.Chemscore.Hbonds>
donor molecule, donor type, donor heavy atom, donor atom, acceptor molecule, acceptor atom, score
      L1  H     3    19       P1  8028  0.87
      L1  H    14    36       P1  8028  0.24
      P1  H  7989  7998       L1    10  0.13

> <Gold.Chemscore.Hbond.Weighted>
-6.0911

> <Gold.Chemscore.Metal.Weighted>
-0.0000

> <Gold.Chemscore.Lipo.Weighted>
-9.8425

> <Gold.Chemscore.Internal_Hbond.Weighted>
0.0000

> <Gold.Chemscore.DEClash.Weighted>
0.0774

> <Gold.Chemscore.DEInternal.Weighted>
4.0695

> <Gold.Chemscore.Rot.Weighted>
3.0996

> <Gold.Chemscore.Internal.Correction.Weighted>
   9.000000E+99

> <Gold.Protein.RotatedTorsions>
[ 6907 6896 6895 6894 ] final   77.22 input  -60.11 | X-H torsion
[ 7974 7965 7964 7962 ] final -117.49 input  175.53 | X-H torsion
[ 8008 7997 7996 7995 ] final -166.07 input   59.86 | X-H torsion
[ 10167 10162 10161 10158 ] final   54.97 input  -65.29 | X-H torsion
[ 10718 10713 10712 10709 ] final -167.67 input   66.30 | X-H torsion
[ 10763 10752 10751 10750 ] final   60.26 input  -60.55 | X-H torsion
[ 11005 11000 10999 10996 ] final   17.51 input  -57.11 | X-H torsion

> <Gold.Protein.ActiveResidues>
 VAL166  LYS551  ARG553  GLY616  TRP617  ASP618  TYR619  PRO620  LYS621  CYS622 
 ASP623  PHE694  ASN695  SER759  ASP760  ASP761  ALA762  ILE779  LEU786  VAL792 
 PHE793  MET794  SER795  GLU796  ALA797  LYS798  CYS799  TRP800  GLU811  SER814 

> <Gold.Protein.RotatedAtoms>
  152.5108  134.3849  159.9363 H   0  0  0  0  0  0  0  0  0  0  0  0  # atno 6907 bound_to 6896
  151.3807  133.3816  159.2717 H   0  0  0  0  0  0  0  0  0  0  0  0  # atno 6908 bound_to 6896
  150.9506  134.8927  159.7728 H   0  0  0  0  0  0  0  0  0  0  0  0  # atno 6909 bound_to 6896
  145.0847  140.8449  143.4018 H   0  0  0  0  0  0  0  0  0  0  0  0  # atno 7974 bound_to 7965
  155.8587  140.0974  157.1627 H   0  0  0  0  0  0  0  0  0  0  0  0  # atno 8008 bound_to 7997
  154.3989  140.1369  156.3996 H   0  0  0  0  0  0  0  0  0  0  0  0  # atno 8009 bound_to 7997
  155.7881  140.3456  155.5336 H   0  0  0  0  0  0  0  0  0  0  0  0  # atno 8010 bound_to 7997
  140.2245  144.3753  150.6438 H   0  0  0  0  0  0  0  0  0  0  0  0  # atno 10167 bound_to 10162
  156.6857  130.9139  151.3063 H   0  0  0  0  0  0  0  0  0  0  0  0  # atno 10718 bound_to 10713
  152.9916  135.5542  154.5846 H   0  0  0  0  0  0  0  0  0  0  0  0  # atno 10763 bound_to 10752
  154.5220  135.2808  155.1256 H   0  0  0  0  0  0  0  0  0  0  0  0  # atno 10764 bound_to 10752
  154.2606  135.6382  153.5326 H   0  0  0  0  0  0  0  0  0  0  0  0  # atno 10765 bound_to 10752
  140.4351  134.1380  155.7684 H   0  0  0  0  0  0  0  0  0  0  0  0  # atno 11005 bound_to 11000
  145.1137  139.2740  143.5624 LP  0  0  0  0  0  0  0  0  0  0  0  0  # atno 17320 bound_to 7965
  146.3531  140.0740  142.8621 LP  0  0  0  0  0  0  0  0  0  0  0  0  # atno 17321 bound_to 7965
  140.6231  143.2178  151.6653 LP  0  0  0  0  0  0  0  0  0  0  0  0  # atno 17342 bound_to 10162
  139.5132  144.3450  152.0705 LP  0  0  0  0  0  0  0  0  0  0  0  0  # atno 17343 bound_to 10162
  157.7027  130.9351  150.0835 LP  0  0  0  0  0  0  0  0  0  0  0  0  # atno 17370 bound_to 10713
  156.1835  130.3651  149.9004 LP  0  0  0  0  0  0  0  0  0  0  0  0  # atno 17371 bound_to 10713
  141.1729  133.8572  157.1513 LP  0  0  0  0  0  0  0  0  0  0  0  0  # atno 17394 bound_to 11000
  140.0108  134.9989  157.0390 LP  0  0  0  0  0  0  0  0  0  0  0  0  # atno 17395 bound_to 11000

$$$$
