AV-unprocessed.smi:282|AV-procd|sdf|2120|dock5
  -GOLD-   2262021423D 1   1.00000     0.00000
 Structure written by MMmdl.
 65 69  0  0  0  0  0  0  0  0  2 V2000
  154.4387  137.6759  160.9313 C   0  0  0  0  0  0  0  0  0  0  0  0
  153.8516  138.3984  159.7110 C   0  0  0  0  0  0  0  0  0  0  0  0
  153.2486  139.7953  160.0197 C   0  0  1  0  0  0  0  0  0  0  0  0
  154.3531  140.7874  160.4699 C   0  0  0  0  0  0  0  0  0  0  0  0
  153.8442  142.1669  160.6713 N   0  3  2  0  0  0  0  0  0  0  0  0
  153.0763  142.3299  161.9354 C   0  0  0  0  0  0  0  0  0  0  0  0
  152.6635  143.7937  162.1523 C   0  0  0  0  0  0  0  0  0  0  0  0
  151.8561  144.3149  160.9578 C   0  0  0  0  0  0  0  0  0  0  0  0
  152.6603  144.1311  159.6632 C   0  0  0  0  0  0  0  0  0  0  0  0
  153.1312  142.6753  159.4671 C   0  0  2  0  0  0  0  0  0  0  0  0
  152.0020  141.7146  159.0525 C   0  0  0  0  0  0  0  0  0  0  0  0
  152.5086  140.3552  158.8777 N   0  0  0  0  0  0  0  0  0  0  0  0
  151.5698  139.5411  158.3444 C   0  0  0  0  0  0  0  0  0  0  0  0
  151.1945  138.4125  159.0017 N   0  0  0  0  0  0  0  0  0  0  0  0
  150.2815  137.6011  158.4588 C   0  0  0  0  0  0  0  0  0  0  0  0
  149.6437  137.7240  157.2923 N   0  0  0  0  0  0  0  0  0  0  0  0
  150.0281  138.8522  156.6289 C   0  0  0  0  0  0  0  0  0  0  0  0
  150.9722  139.8120  157.0867 C   0  0  0  0  0  0  0  0  0  0  0  0
  151.1083  140.8341  156.1576 N   0  0  0  0  0  0  0  0  0  0  0  0
  150.2890  140.4962  155.1993 C   0  0  0  0  0  0  0  0  0  0  0  0
  149.6149  139.3093  155.3888 N   0  0  0  0  0  0  0  0  0  0  0  0
  148.6550  138.6992  154.4787 C   0  0  0  0  0  0  0  0  0  0  0  0
  147.2639  139.3998  154.4256 C   0  0  0  0  0  0  0  0  0  0  0  0
  146.3521  138.7280  153.3589 C   0  0  0  0  0  0  0  0  0  0  0  0
  146.8291  138.9287  152.0437 O   0  0  0  0  0  0  0  0  0  0  0  0
  146.6283  139.3311  155.8374 C   0  0  0  0  0  0  0  0  0  0  0  0
  145.3837  140.2247  155.9789 C   0  0  0  0  0  0  0  0  0  0  0  0
  145.7217  141.5702  155.6695 O   0  0  0  0  0  0  0  0  0  0  0  0
  146.1640  141.7319  154.3286 C   0  0  0  0  0  0  0  0  0  0  0  0
  147.4386  140.9021  154.0833 C   0  0  0  0  0  0  0  0  0  0  0  0
  154.7356  136.6605  160.6681 H   0  0  0  0  0  0  0  0  0  0  0  0
  153.7084  137.6077  161.7381 H   0  0  0  0  0  0  0  0  0  0  0  0
  155.3252  138.1795  161.3154 H   0  0  0  0  0  0  0  0  0  0  0  0
  154.6171  138.4884  158.9393 H   0  0  0  0  0  0  0  0  0  0  0  0
  153.0856  137.7405  159.2997 H   0  0  0  0  0  0  0  0  0  0  0  0
  152.5377  139.6768  160.8385 H   0  0  0  0  0  0  0  0  0  0  0  0
  154.8362  140.4533  161.3880 H   0  0  0  0  0  0  0  0  0  0  0  0
  155.1349  140.8275  159.7099 H   0  0  0  0  0  0  0  0  0  0  0  0
  152.1905  141.6944  161.9273 H   0  0  0  0  0  0  0  0  0  0  0  0
  153.6886  142.0001  162.7755 H   0  0  0  0  0  0  0  0  0  0  0  0
  152.0759  143.8837  163.0663 H   0  0  0  0  0  0  0  0  0  0  0  0
  153.5523  144.4103  162.2935 H   0  0  0  0  0  0  0  0  0  0  0  0
  150.9066  143.7829  160.8897 H   0  0  0  0  0  0  0  0  0  0  0  0
  151.6112  145.3678  161.1004 H   0  0  0  0  0  0  0  0  0  0  0  0
  152.0708  144.4560  158.8052 H   0  0  0  0  0  0  0  0  0  0  0  0
  153.5328  144.7853  159.6950 H   0  0  0  0  0  0  0  0  0  0  0  0
  153.8570  142.6836  158.6521 H   0  0  0  0  0  0  0  0  0  0  0  0
  151.2077  141.7153  159.7997 H   0  0  0  0  0  0  0  0  0  0  0  0
  151.5545  142.0585  158.1185 H   0  0  0  0  0  0  0  0  0  0  0  0
  150.0278  136.7260  159.0389 H   0  0  0  0  0  0  0  0  0  0  0  0
  150.1614  141.1040  154.3151 H   0  0  0  0  0  0  0  0  0  0  0  0
  149.1025  138.6631  153.4848 H   0  0  0  0  0  0  0  0  0  0  0  0
  148.5368  137.6579  154.7817 H   0  0  0  0  0  0  0  0  0  0  0  0
  146.2726  137.6535  153.5139 H   0  0  0  0  0  0  0  0  0  0  0  0
  145.3343  139.1132  153.4206 H   0  0  0  0  0  0  0  0  0  0  0  0
  147.7629  139.0691  152.0807 H   0  0  0  0  0  0  0  0  0  0  0  0
  146.3791  138.3032  156.1020 H   0  0  0  0  0  0  0  0  0  0  0  0
  147.3586  139.6572  156.5792 H   0  0  0  0  0  0  0  0  0  0  0  0
  144.5668  139.8813  155.3433 H   0  0  0  0  0  0  0  0  0  0  0  0
  145.0166  140.1868  157.0045 H   0  0  0  0  0  0  0  0  0  0  0  0
  145.3678  141.4615  153.6348 H   0  0  0  0  0  0  0  0  0  0  0  0
  146.3737  142.7879  154.1591 H   0  0  0  0  0  0  0  0  0  0  0  0
  148.2376  141.3221  154.6958 H   0  0  0  0  0  0  0  0  0  0  0  0
  147.7520  141.0277  153.0465 H   0  0  0  0  0  0  0  0  0  0  0  0
  154.6605  142.7516  160.7800 H   0  0  0  0  0  0  0  0  0  0  0  0
  1  2  1  0  0  0  0
  1 31  1  0  0  0  0
  1 32  1  0  0  0  0
  1 33  1  0  0  0  0
  2  3  1  0  0  0  0
  2 34  1  0  0  0  0
  2 35  1  0  0  0  0
  3 12  1  0  0  0  0
  3  4  1  0  0  0  0
  3 36  1  0  0  0  0
  4  5  1  0  0  0  0
  4 37  1  0  0  0  0
  4 38  1  0  0  0  0
  5 10  1  0  0  0  0
  5  6  1  0  0  0  0
  5 65  1  0  0  0  0
  6  7  1  0  0  0  0
  6 39  1  0  0  0  0
  6 40  1  0  0  0  0
  7  8  1  0  0  0  0
  7 41  1  0  0  0  0
  7 42  1  0  0  0  0
  8  9  1  0  0  0  0
  8 43  1  0  0  0  0
  8 44  1  0  0  0  0
  9 10  1  0  0  0  0
  9 45  1  0  0  0  0
  9 46  1  0  0  0  0
 10 11  1  0  0  0  0
 10 47  1  0  0  0  0
 11 12  1  0  0  0  0
 11 48  1  0  0  0  0
 11 49  1  0  0  0  0
 12 13  1  0  0  0  0
 13 18  1  0  0  0  0
 13 14  2  0  0  0  0
 14 15  1  0  0  0  0
 15 16  2  0  0  0  0
 15 50  1  0  0  0  0
 16 17  1  0  0  0  0
 17 21  1  0  0  0  0
 17 18  2  0  0  0  0
 18 19  1  0  0  0  0
 19 20  2  0  0  0  0
 20 21  1  0  0  0  0
 20 51  1  0  0  0  0
 21 22  1  0  0  0  0
 22 23  1  0  0  0  0
 22 52  1  0  0  0  0
 22 53  1  0  0  0  0
 23 30  1  0  0  0  0
 23 24  1  0  0  0  0
 23 26  1  0  0  0  0
 24 25  1  0  0  0  0
 24 54  1  0  0  0  0
 24 55  1  0  0  0  0
 25 56  1  0  0  0  0
 26 27  1  0  0  0  0
 26 57  1  0  0  0  0
 26 58  1  0  0  0  0
 27 28  1  0  0  0  0
 27 59  1  0  0  0  0
 27 60  1  0  0  0  0
 28 29  1  0  0  0  0
 29 30  1  0  0  0  0
 29 61  1  0  0  0  0
 29 62  1  0  0  0  0
 30 63  1  0  0  0  0
 30 64  1  0  0  0  0
M  CHG  1   5   1
M  END
> <s_m_source_file>
AV-unprocessed.smi

> <i_m_source_file_index>
282

> <i_lp_mmshare_version>
43012

> <i_f3d_flags>
0

> <s_epik_input>
W0NIMl0xW0NIMl1bQ0gyXVtDSDJdW0NAQEhdKE4xMilbQ0gyXU4oW0NAQEhdKFtDSDJdMilbQ0gyXVtDSDNdKWMobltjSF1uMyljKGMzNCluW2NIXW40W0NIMl1DNShbQ0gyXVtPSF0pW0NIMl1bQ0gyXU9bQ0gyXVtDSDJdNQ==

> <s_epik_cmdline>
J2VwaWtfcHl0aG9uJywgJy1waCcsICc3LjAnLCAnLXRuJywgJzgnLCAnLW1hJywgJzIwMCcsICctbWV0YWxfYmluZGluZycsICctaW1hZScsICc8aW5maWxlLm1hZT4nLCAnLW9tYWUnLCAnPG91dGZpbGUubWFlPic=

> <r_lp_tautomer_probability>
1

> <r_epik_Ionization_Penalty>
0.00308583

> <r_epik_Ionization_Penalty_Charging>
0.00300384

> <r_epik_Ionization_Penalty_Neutral>
8.19894e-05

> <r_epik_State_Penalty>
-0

> <r_epik_Charging_Adjusted_Penalty>
0.00300384

> <i_epik_Tot_Q>
1

> <i_epik_Tot_abs_Q>
1

> <r_epik_Metal_State_Penalty>
-0

> <b_epik_Metal_Only>
0

> <s_lp_Force_Field>
OPLS_2005

> <r_lp_Energy>
59.0592

> <b_lp_Chiralities_Consistent>
1

> <s_lp_Variant>
AV-unprocessed.smi:282-4

> <Gold.Version>
5.8.1

> <Gold.Id.Protein>
6NUR|6NUR_protein|mol2

> <Gold.PLP.Fitness>
54.3223

> <Gold.PLP.PLP>
-51.9875

> <Gold.PLP.part.hbond>
-1.8943

> <Gold.PLP.part.metal>
0.0000

> <Gold.PLP.part.buried>
-5.3445

> <Gold.PLP.part.nonpolar>
-44.6835

> <Gold.PLP.part.repulsive>
0.1823

> <Gold.PLP.ligand.clash>
0.0000

> <Gold.PLP.ligand.torsion>
0.3974

> <Gold.PLP.Chemscore.Hbond>
0.9440

> <Gold.PLP.Chemscore.CHOScore>
0.0000

> <Gold.PLP.Chemscore.Metal>
0.0000

> <Gold.Chemscore.Hbonds>
donor molecule, donor type, donor heavy atom, donor atom, acceptor molecule, acceptor atom, score
      L1  H    25    56       P1  7957  0.43

> <Gold.PLP.Chemscore.Internal.Correction>
0.2975

> <Gold.Rescore>
     Score         DG    S(hbond)    S(metal)    S(lipo)     H(rot)  DE(clash)    DE(int)     intcor
     14.07     -17.32       0.99        0.00     126.72       2.46       1.16       2.09       ----

> <Gold.Chemscore.Fitness>
14.0685

> <Gold.Chemscore.DG>
-17.3157

> <Gold.Chemscore.ZeroCoef>
-5.4800

> <Gold.Chemscore.Hbond>
0.9884

> <Gold.Chemscore.Metal>
0.0000

> <Gold.Chemscore.Lipo>
126.7164

> <Gold.Chemscore.Internal_Hbond>
0.0000

> <Gold.Chemscore.DEClash>
1.1609

> <Gold.Chemscore.DEInternal>
2.0862

> <Gold.Chemscore.Rot>
2.4576

> <Gold.Chemscore.Internal.Correction>
   9.000000E+99

> <Gold.Chemscore.Hbonds>
donor molecule, donor type, donor heavy atom, donor atom, acceptor molecule, acceptor atom, score
      L1  H    25    56       P1  7957  0.41

> <Gold.Chemscore.Hbond.Weighted>
-3.3014

> <Gold.Chemscore.Metal.Weighted>
-0.0000

> <Gold.Chemscore.Lipo.Weighted>
-14.8258

> <Gold.Chemscore.Internal_Hbond.Weighted>
0.0000

> <Gold.Chemscore.DEClash.Weighted>
1.1609

> <Gold.Chemscore.DEInternal.Weighted>
2.0862

> <Gold.Chemscore.Rot.Weighted>
6.2915

> <Gold.Chemscore.Internal.Correction.Weighted>
   9.000000E+99

> <Gold.Protein.RotatedTorsions>
[ 6907 6896 6895 6894 ] final  -85.27 input  -60.11 | X-H torsion
[ 7974 7965 7964 7962 ] final -117.82 input  175.53 | X-H torsion
[ 8008 7997 7996 7995 ] final -174.46 input   59.86 | X-H torsion
[ 10167 10162 10161 10158 ] final  -35.92 input  -65.29 | X-H torsion
[ 10718 10713 10712 10709 ] final  -67.58 input   66.30 | X-H torsion
[ 10763 10752 10751 10750 ] final  126.09 input  -60.55 | X-H torsion
[ 11005 11000 10999 10996 ] final  102.36 input  -57.11 | X-H torsion

> <Gold.Protein.ActiveResidues>
 VAL166  LYS551  ARG553  GLY616  TRP617  ASP618  TYR619  PRO620  LYS621  CYS622 
 ASP623  PHE694  ASN695  SER759  ASP760  ASP761  ALA762  ILE779  LEU786  VAL792 
 PHE793  MET794  SER795  GLU796  ALA797  LYS798  CYS799  TRP800  GLU811  SER814 

> <Gold.Protein.RotatedAtoms>
  150.6871  134.3230  159.4794 H   0  0  0  0  0  0  0  0  0  0  0  0  # atno 6907 bound_to 6896
  152.1103  134.9276  160.0576 H   0  0  0  0  0  0  0  0  0  0  0  0  # atno 6908 bound_to 6896
  152.0521  133.3989  159.4418 H   0  0  0  0  0  0  0  0  0  0  0  0  # atno 6909 bound_to 6896
  145.0808  140.8424  143.4040 H   0  0  0  0  0  0  0  0  0  0  0  0  # atno 7974 bound_to 7965
  155.9703  140.1161  157.0818 H   0  0  0  0  0  0  0  0  0  0  0  0  # atno 8008 bound_to 7997
  154.4154  140.1164  156.5365 H   0  0  0  0  0  0  0  0  0  0  0  0  # atno 8009 bound_to 7997
  155.6605  140.3473  155.4783 H   0  0  0  0  0  0  0  0  0  0  0  0  # atno 8010 bound_to 7997
  140.7154  143.3444  151.2289 H   0  0  0  0  0  0  0  0  0  0  0  0  # atno 10167 bound_to 10162
  156.0550  130.4280  150.1875 H   0  0  0  0  0  0  0  0  0  0  0  0  # atno 10718 bound_to 10713
  153.6878  135.3304  155.3194 H   0  0  0  0  0  0  0  0  0  0  0  0  # atno 10763 bound_to 10752
  154.8448  135.4424  154.1540 H   0  0  0  0  0  0  0  0  0  0  0  0  # atno 10764 bound_to 10752
  153.2573  135.6987  153.7692 H   0  0  0  0  0  0  0  0  0  0  0  0  # atno 10765 bound_to 10752
  139.8777  134.9221  156.5046 H   0  0  0  0  0  0  0  0  0  0  0  0  # atno 11005 bound_to 11000
  145.1181  139.2712  143.5603 LP  0  0  0  0  0  0  0  0  0  0  0  0  # atno 17320 bound_to 7965
  146.3531  140.0796  142.8618 LP  0  0  0  0  0  0  0  0  0  0  0  0  # atno 17321 bound_to 7965
  139.6959  143.9614  152.2882 LP  0  0  0  0  0  0  0  0  0  0  0  0  # atno 17342 bound_to 10162
  139.9291  144.6753  150.8382 LP  0  0  0  0  0  0  0  0  0  0  0  0  # atno 17343 bound_to 10162
  156.9953  130.9906  151.3404 LP  0  0  0  0  0  0  0  0  0  0  0  0  # atno 17370 bound_to 10713
  157.5512  130.8183  149.8147 LP  0  0  0  0  0  0  0  0  0  0  0  0  # atno 17371 bound_to 10713
  140.8565  133.8092  155.9221 LP  0  0  0  0  0  0  0  0  0  0  0  0  # atno 17394 bound_to 11000
  140.9092  134.2281  157.4996 LP  0  0  0  0  0  0  0  0  0  0  0  0  # atno 17395 bound_to 11000

$$$$
