AV-unprocessed.smi:1868|AV-procd|sdf|7587|dock9
  -GOLD-   22720 9303D 1   1.00000     0.00000
 Structure written by MMmdl.
 47 49  0  0  0  0  0  0  0  0  2 V2000
  151.6515  139.5397  156.0602 C   0  0  0  0  0  0  0  0  0  0  0  0
  152.1321  140.2041  157.3110 C   0  0  0  0  0  0  0  0  0  0  0  0
  152.9702  139.6053  158.1568 N   0  0  0  0  0  0  0  0  0  0  0  0
  153.1480  140.5629  159.1367 C   0  0  0  0  0  0  0  0  0  0  0  0
  153.9292  140.5384  160.3141 C   0  0  0  0  0  0  0  0  0  0  0  0
  153.9533  141.6529  161.1778 C   0  0  0  0  0  0  0  0  0  0  0  0
  153.1980  142.8050  160.8778 C   0  0  0  0  0  0  0  0  0  0  0  0
  152.4134  142.8508  159.7095 C   0  0  0  0  0  0  0  0  0  0  0  0
  152.3932  141.7359  158.8501 C   0  0  0  0  0  0  0  0  0  0  0  0
  151.7427  141.4574  157.6514 N   0  0  0  0  0  0  0  0  0  0  0  0
  150.8405  142.3431  156.9274 C   0  0  0  0  0  0  0  0  0  0  0  0
  149.4553  142.4599  157.5944 C   0  0  1  0  0  0  0  0  0  0  0  0
  148.9425  141.1658  157.8467 O   0  0  0  0  0  0  0  0  0  0  0  0
  149.5313  143.2262  158.9298 C   0  0  0  0  0  0  0  0  0  0  0  0
  148.2857  143.9771  159.2343 N   0  3  2  0  0  0  0  0  0  0  0  0
  148.3621  144.7634  160.4943 C   0  0  0  0  0  0  0  0  0  0  0  0
  147.0998  145.6224  160.6910 C   0  0  0  0  0  0  0  0  0  0  0  0
  145.8101  144.7822  160.6552 C   0  0  2  0  0  0  0  0  0  0  0  0
  145.6071  143.9478  161.9321 C   0  0  0  0  0  0  0  0  0  0  0  0
  145.7931  143.9273  159.3753 C   0  0  0  0  0  0  0  0  0  0  0  0
  147.0833  143.1054  159.2065 C   0  0  0  0  0  0  0  0  0  0  0  0
  152.0377  138.5217  155.9961 H   0  0  0  0  0  0  0  0  0  0  0  0
  151.9948  140.0914  155.1850 H   0  0  0  0  0  0  0  0  0  0  0  0
  150.5628  139.4939  156.0463 H   0  0  0  0  0  0  0  0  0  0  0  0
  154.5113  139.6608  160.5528 H   0  0  0  0  0  0  0  0  0  0  0  0
  154.5542  141.6235  162.0750 H   0  0  0  0  0  0  0  0  0  0  0  0
  153.2222  143.6542  161.5452 H   0  0  0  0  0  0  0  0  0  0  0  0
  151.8338  143.7322  159.4786 H   0  0  0  0  0  0  0  0  0  0  0  0
  151.3087  143.3255  156.8513 H   0  0  0  0  0  0  0  0  0  0  0  0
  150.7385  141.9803  155.9043 H   0  0  0  0  0  0  0  0  0  0  0  0
  148.7785  142.9625  156.9050 H   0  0  0  0  0  0  0  0  0  0  0  0
  149.5778  140.5285  157.5556 H   0  0  0  0  0  0  0  0  0  0  0  0
  149.7293  142.5058  159.7254 H   0  0  0  0  0  0  0  0  0  0  0  0
  150.3765  143.9162  158.9294 H   0  0  0  0  0  0  0  0  0  0  0  0
  148.4997  144.0883  161.3398 H   0  0  0  0  0  0  0  0  0  0  0  0
  149.2306  145.4207  160.4791 H   0  0  0  0  0  0  0  0  0  0  0  0
  147.1645  146.1748  161.6291 H   0  0  0  0  0  0  0  0  0  0  0  0
  147.0584  146.3741  159.9014 H   0  0  0  0  0  0  0  0  0  0  0  0
  144.9672  145.4727  160.6012 H   0  0  0  0  0  0  0  0  0  0  0  0
  146.4049  143.2209  162.0810 H   0  0  0  0  0  0  0  0  0  0  0  0
  144.6656  143.3991  161.8944 H   0  0  0  0  0  0  0  0  0  0  0  0
  145.5757  144.5874  162.8148 H   0  0  0  0  0  0  0  0  0  0  0  0
  144.9251  143.2672  159.3726 H   0  0  0  0  0  0  0  0  0  0  0  0
  145.6762  144.5814  158.5100 H   0  0  0  0  0  0  0  0  0  0  0  0
  147.0383  142.5721  158.2561 H   0  0  0  0  0  0  0  0  0  0  0  0
  147.1615  142.3477  159.9874 H   0  0  0  0  0  0  0  0  0  0  0  0
  148.1684  144.6387  158.4796 H   0  0  0  0  0  0  0  0  0  0  0  0
  1  2  1  0  0  0  0
  1 22  1  0  0  0  0
  1 23  1  0  0  0  0
  1 24  1  0  0  0  0
  2 10  1  0  0  0  0
  2  3  2  0  0  0  0
  3  4  1  0  0  0  0
  4  9  2  0  0  0  0
  4  5  1  0  0  0  0
  5  6  2  0  0  0  0
  5 25  1  0  0  0  0
  6  7  1  0  0  0  0
  6 26  1  0  0  0  0
  7  8  2  0  0  0  0
  7 27  1  0  0  0  0
  8  9  1  0  0  0  0
  8 28  1  0  0  0  0
  9 10  1  0  0  0  0
 10 11  1  0  0  0  0
 11 12  1  0  0  0  0
 11 29  1  0  0  0  0
 11 30  1  0  0  0  0
 12 13  1  0  0  0  0
 12 14  1  0  0  0  0
 12 31  1  0  0  0  0
 13 32  1  0  0  0  0
 14 15  1  0  0  0  0
 14 33  1  0  0  0  0
 14 34  1  0  0  0  0
 15 21  1  0  0  0  0
 15 16  1  0  0  0  0
 15 47  1  0  0  0  0
 16 17  1  0  0  0  0
 16 35  1  0  0  0  0
 16 36  1  0  0  0  0
 17 18  1  0  0  0  0
 17 37  1  0  0  0  0
 17 38  1  0  0  0  0
 18 19  1  0  0  0  0
 18 20  1  0  0  0  0
 18 39  1  0  0  0  0
 19 40  1  0  0  0  0
 19 41  1  0  0  0  0
 19 42  1  0  0  0  0
 20 21  1  0  0  0  0
 20 43  1  0  0  0  0
 20 44  1  0  0  0  0
 21 45  1  0  0  0  0
 21 46  1  0  0  0  0
M  CHG  1  15   1
M  END
> <s_m_source_file>
AV-unprocessed.smi

> <i_m_source_file_index>
1868

> <i_lp_mmshare_version>
43012

> <i_f3d_flags>
0

> <s_epik_input>
W2NIXTFbY0hdW2NIXVtjSF1jKGMxMiluKGMobjIpW0NIM10pW0NIMl1bQ0BIXShbT0hdKVtDSDJdTjNbQ0gyXVtDSDJdW0NIXShbQ0gzXSlbQ0gyXVtDSDJdMw==

> <s_epik_cmdline>
J2VwaWtfcHl0aG9uJywgJy1waCcsICc3LjAnLCAnLXRuJywgJzgnLCAnLW1hJywgJzIwMCcsICctbWV0YWxfYmluZGluZycsICctaW1hZScsICc8aW5maWxlLm1hZT4nLCAnLW9tYWUnLCAnPG91dGZpbGUubWFlPic=

> <r_epik_Ionization_Penalty>
0.101157

> <r_epik_Ionization_Penalty_Charging>
0.00181365

> <r_epik_Ionization_Penalty_Neutral>
0.0993436

> <r_epik_State_Penalty>
0.0871902

> <r_epik_Charging_Adjusted_Penalty>
0.0890039

> <i_epik_Tot_Q>
1

> <i_epik_Tot_abs_Q>
1

> <r_epik_Metal_State_Penalty>
9.24346e-05

> <b_epik_Metal_Only>
0

> <s_lp_Force_Field>
OPLS_2005

> <r_lp_Energy>
23.8168

> <b_lp_Chiralities_Consistent>
1

> <s_lp_Variant>
AV-unprocessed.smi:1868-4

> <Gold.Version>
5.8.1

> <Gold.Id.Protein>
6NUR|6NUR_protein|mol2

> <Gold.PLP.Fitness>
48.8414

> <Gold.PLP.PLP>
-41.1722

> <Gold.PLP.part.hbond>
-2.0000

> <Gold.PLP.part.metal>
0.0000

> <Gold.PLP.part.buried>
-3.0755

> <Gold.PLP.part.nonpolar>
-36.2122

> <Gold.PLP.part.repulsive>
0.1217

> <Gold.PLP.ligand.clash>
0.0000

> <Gold.PLP.ligand.torsion>
0.6070

> <Gold.PLP.Chemscore.Hbond>
2.9500

> <Gold.PLP.Chemscore.CHOScore>
0.0000

> <Gold.PLP.Chemscore.Metal>
0.0000

> <Gold.Chemscore.Hbonds>
donor molecule, donor type, donor heavy atom, donor atom, acceptor molecule, acceptor atom, score
      L1  H    15    47       P1  8029  2.00
      P1  H  7997  8009       L1     3  0.58

> <Gold.PLP.Chemscore.Internal.Correction>
0.0331

> <Gold.Rescore>
     Score         DG    S(hbond)    S(metal)    S(lipo)     H(rot)  DE(clash)    DE(int)     intcor
     15.66     -17.15       0.98        0.00     113.65       1.92       0.09       1.40       ----

> <Gold.Chemscore.Fitness>
15.6608

> <Gold.Chemscore.DG>
-17.1452

> <Gold.Chemscore.ZeroCoef>
-5.4800

> <Gold.Chemscore.Hbond>
0.9830

> <Gold.Chemscore.Metal>
0.0000

> <Gold.Chemscore.Lipo>
113.6456

> <Gold.Chemscore.Internal_Hbond>
0.0000

> <Gold.Chemscore.DEClash>
0.0851

> <Gold.Chemscore.DEInternal>
1.3992

> <Gold.Chemscore.Rot>
1.9198

> <Gold.Chemscore.Internal.Correction>
   9.000000E+99

> <Gold.Chemscore.Hbonds>
donor molecule, donor type, donor heavy atom, donor atom, acceptor molecule, acceptor atom, score
      L1  H    15    47       P1  8029  0.91
      P1  H  7997  8009       L1     3  0.01

> <Gold.Chemscore.Hbond.Weighted>
-3.2834

> <Gold.Chemscore.Metal.Weighted>
-0.0000

> <Gold.Chemscore.Lipo.Weighted>
-13.2965

> <Gold.Chemscore.Internal_Hbond.Weighted>
0.0000

> <Gold.Chemscore.DEClash.Weighted>
0.0851

> <Gold.Chemscore.DEInternal.Weighted>
1.3992

> <Gold.Chemscore.Rot.Weighted>
4.9147

> <Gold.Chemscore.Internal.Correction.Weighted>
   9.000000E+99

> <Gold.Protein.RotatedTorsions>
[ 6907 6896 6895 6894 ] final  117.27 input  -60.11 | X-H torsion
[ 7974 7965 7964 7962 ] final -117.41 input  175.53 | X-H torsion
[ 8008 7997 7996 7995 ] final  154.07 input   59.86 | X-H torsion
[ 10167 10162 10161 10158 ] final  141.40 input  -65.29 | X-H torsion
[ 10718 10713 10712 10709 ] final   15.54 input   66.30 | X-H torsion
[ 10763 10752 10751 10750 ] final  -11.96 input  -60.55 | X-H torsion
[ 11005 11000 10999 10996 ] final   53.40 input  -57.11 | X-H torsion

> <Gold.Protein.ActiveResidues>
 VAL166  LYS551  ARG553  GLY616  TRP617  ASP618  TYR619  PRO620  LYS621  CYS622 
 ASP623  PHE694  ASN695  SER759  ASP760  ASP761  ALA762  ILE779  LEU786  VAL792 
 PHE793  MET794  SER795  GLU796  ALA797  LYS798  CYS799  TRP800  GLU811  SER814 

> <Gold.Protein.RotatedAtoms>
  152.4623  133.7849  159.6870 H   0  0  0  0  0  0  0  0  0  0  0  0  # atno 6907 bound_to 6896
  150.8572  133.7687  159.3011 H   0  0  0  0  0  0  0  0  0  0  0  0  # atno 6908 bound_to 6896
  151.5264  135.1071  159.9943 H   0  0  0  0  0  0  0  0  0  0  0  0  # atno 6909 bound_to 6896
  145.0856  140.8455  143.4013 H   0  0  0  0  0  0  0  0  0  0  0  0  # atno 7974 bound_to 7965
  156.2550  140.1976  156.6589 H   0  0  0  0  0  0  0  0  0  0  0  0  # atno 8008 bound_to 7997
  154.6479  140.0575  156.9947 H   0  0  0  0  0  0  0  0  0  0  0  0  # atno 8009 bound_to 7997
  155.1462  140.3247  155.4444 H   0  0  0  0  0  0  0  0  0  0  0  0  # atno 8010 bound_to 7997
  139.5022  144.6174  151.6132 H   0  0  0  0  0  0  0  0  0  0  0  0  # atno 10167 bound_to 10162
  157.0550  130.6285  149.5775 H   0  0  0  0  0  0  0  0  0  0  0  0  # atno 10718 bound_to 10713
  153.4914  135.7017  153.5882 H   0  0  0  0  0  0  0  0  0  0  0  0  # atno 10763 bound_to 10752
  153.4053  135.3862  155.2015 H   0  0  0  0  0  0  0  0  0  0  0  0  # atno 10764 bound_to 10752
  154.8716  135.3891  154.4375 H   0  0  0  0  0  0  0  0  0  0  0  0  # atno 10765 bound_to 10752
  140.0771  134.5390  155.8985 H   0  0  0  0  0  0  0  0  0  0  0  0  # atno 11005 bound_to 11000
  145.1127  139.2746  143.5629 LP  0  0  0  0  0  0  0  0  0  0  0  0  # atno 17320 bound_to 7965
  146.3531  140.0727  142.8622 LP  0  0  0  0  0  0  0  0  0  0  0  0  # atno 17321 bound_to 7965
  140.5866  143.9853  150.6299 LP  0  0  0  0  0  0  0  0  0  0  0  0  # atno 17342 bound_to 10162
  140.3020  143.3254  152.0962 LP  0  0  0  0  0  0  0  0  0  0  0  0  # atno 17343 bound_to 10162
  155.9996  130.5072  150.7612 LP  0  0  0  0  0  0  0  0  0  0  0  0  # atno 17370 bound_to 10713
  157.5000  131.0918  151.0325 LP  0  0  0  0  0  0  0  0  0  0  0  0  # atno 17371 bound_to 10713
  141.2033  133.6631  156.6056 LP  0  0  0  0  0  0  0  0  0  0  0  0  # atno 17394 bound_to 11000
  140.3542  134.7742  157.4489 LP  0  0  0  0  0  0  0  0  0  0  0  0  # atno 17395 bound_to 11000

$$$$
