AV-unprocessed.smi:3237|AV-procd|sdf|12367|dock10
  -GOLD-   2272018223D 1   1.00000     0.00000
 Structure written by MMmdl.
 36 38  0  0  0  0  0  0  0  0  3 V2000
  151.9964  145.3884  159.3342 C   0  0  0  0  0  0  0  0  0  0  0  0
  152.3609  144.0143  159.7823 C   0  0  0  0  0  0  0  0  0  0  0  0
  152.6644  142.8679  159.1044 C   0  0  0  0  0  0  0  0  0  0  0  0
  152.9199  141.9333  160.1446 C   0  0  0  0  0  0  0  0  0  0  0  0
  153.2537  140.6439  159.9798 N   0  5  0  0  0  0  0  0  0  0  0  0
  152.8791  139.9833  158.8610 C   0  0  0  0  0  0  0  0  0  0  0  0
  153.6058  139.3019  158.1342 O   0  0  0  0  0  0  0  0  0  0  0  0
  151.5802  140.1233  158.5618 N   0  0  0  0  0  0  0  0  0  0  0  0
  150.9095  139.5277  157.4117 C   0  0  2  0  0  0  0  0  0  0  0  0
  151.4960  139.9329  156.0568 C   0  0  0  0  0  0  0  0  0  0  0  0
  150.3043  139.8691  155.0878 C   0  0  0  0  0  0  0  0  0  0  0  0
  149.0905  139.6648  155.9127 N   0  3  2  0  0  0  0  0  0  0  0  0
  147.8933  140.3781  155.4206 C   0  0  0  0  0  0  0  0  0  0  0  0
  147.7447  140.3448  153.9183 C   0  0  0  0  0  0  0  0  0  0  0  0
  148.2167  141.6077  154.6061 C   0  0  0  0  0  0  0  0  0  0  0  0
  149.4617  139.9928  157.3000 C   0  0  0  0  0  0  0  0  0  0  0  0
  152.7687  142.4614  161.3477 N   0  0  0  0  0  0  0  0  0  0  0  0
  152.4180  143.7983  161.1242 O   0  0  0  0  0  0  0  0  0  0  0  0
  151.2465  145.3499  158.5441 H   0  0  0  0  0  0  0  0  0  0  0  0
  152.8704  145.9110  158.9456 H   0  0  0  0  0  0  0  0  0  0  0  0
  151.5888  145.9755  160.1572 H   0  0  0  0  0  0  0  0  0  0  0  0
  152.7017  142.7210  158.0354 H   0  0  0  0  0  0  0  0  0  0  0  0
  151.0200  140.6882  159.1835 H   0  0  0  0  0  0  0  0  0  0  0  0
  150.9223  138.4397  157.5026 H   0  0  0  0  0  0  0  0  0  0  0  0
  151.8782  140.9542  156.0980 H   0  0  0  0  0  0  0  0  0  0  0  0
  152.3183  139.2847  155.7521 H   0  0  0  0  0  0  0  0  0  0  0  0
  150.2420  140.7918  154.5088 H   0  0  0  0  0  0  0  0  0  0  0  0
  150.4035  139.0419  154.3845 H   0  0  0  0  0  0  0  0  0  0  0  0
  147.0162  140.3589  156.0652 H   0  0  0  0  0  0  0  0  0  0  0  0
  148.4766  139.7829  153.3407 H   0  0  0  0  0  0  0  0  0  0  0  0
  146.7346  140.3456  153.5137 H   0  0  0  0  0  0  0  0  0  0  0  0
  147.5176  142.4401  154.6554 H   0  0  0  0  0  0  0  0  0  0  0  0
  149.2623  141.8858  154.4854 H   0  0  0  0  0  0  0  0  0  0  0  0
  148.8061  139.5000  158.0187 H   0  0  0  0  0  0  0  0  0  0  0  0
  149.3918  141.0712  157.4564 H   0  0  0  0  0  0  0  0  0  0  0  0
  148.8940  138.6743  155.8958 H   0  0  0  0  0  0  0  0  0  0  0  0
  1  2  1  0  0  0  0
  1 19  1  0  0  0  0
  1 20  1  0  0  0  0
  1 21  1  0  0  0  0
  2 18  1  0  0  0  0
  2  3  2  0  0  0  0
  3  4  1  0  0  0  0
  3 22  1  0  0  0  0
  4  5  1  0  0  0  0
  4 17  2  0  0  0  0
  5  6  1  0  0  0  0
  6  7  2  0  0  0  0
  6  8  1  0  0  0  0
  8  9  1  0  0  0  0
  8 23  1  0  0  0  0
  9 16  1  0  0  0  0
  9 10  1  0  0  0  0
  9 24  1  0  0  0  0
 10 11  1  0  0  0  0
 10 25  1  0  0  0  0
 10 26  1  0  0  0  0
 11 12  1  0  0  0  0
 11 27  1  0  0  0  0
 11 28  1  0  0  0  0
 12 13  1  0  0  0  0
 12 16  1  0  0  0  0
 12 36  1  0  0  0  0
 13 15  1  0  0  0  0
 13 14  1  0  0  0  0
 13 29  1  0  0  0  0
 14 15  1  0  0  0  0
 14 30  1  0  0  0  0
 14 31  1  0  0  0  0
 15 32  1  0  0  0  0
 15 33  1  0  0  0  0
 16 34  1  0  0  0  0
 16 35  1  0  0  0  0
 17 18  1  0  0  0  0
M  CHG  1   5  -1
M  CHG  1  12   1
M  END
> <s_m_source_file>
AV-unprocessed.smi

> <i_m_source_file_index>
3237

> <i_lp_mmshare_version>
43012

> <i_f3d_flags>
0

> <s_epik_input>
W0NIM11jMVtjSF1jKG5vMSlbTkhdQyg9TylbTkhdW0NAQEhdMltDSDJdW0NIMl1OKFtDSDJdMilbQ0hdM1tDSDJdW0NIMl0z

> <s_epik_cmdline>
J2VwaWtfcHl0aG9uJywgJy1waCcsICc3LjAnLCAnLXRuJywgJzgnLCAnLW1hJywgJzIwMCcsICctbWV0YWxfYmluZGluZycsICctaW1hZScsICc8aW5maWxlLm1hZT4nLCAnLW9tYWUnLCAnPG91dGZpbGUubWFlPic=

> <r_epik_Ionization_Penalty>
6.08472

> <r_epik_Ionization_Penalty_Charging>
6.08464

> <r_epik_Ionization_Penalty_Neutral>
8.41751e-05

> <r_epik_State_Penalty>
6.08438

> <r_epik_Charging_Adjusted_Penalty>
12.169

> <i_epik_Tot_Q>
0

> <i_epik_Tot_abs_Q>
2

> <r_epik_Metal_State_Penalty>
2.0369

> <b_epik_Metal_Only>
1

> <s_lp_Force_Field>
OPLS_2005

> <r_lp_Energy>
23.7168

> <b_lp_Chiralities_Consistent>
1

> <s_lp_Variant>
AV-unprocessed.smi:3237-5

> <Gold.Version>
5.8.1

> <Gold.Id.Protein>
6NUR|6NUR_protein|mol2

> <Gold.PLP.Fitness>
35.7488

> <Gold.PLP.PLP>
-33.9584

> <Gold.PLP.part.hbond>
-1.0000

> <Gold.PLP.part.metal>
0.0000

> <Gold.PLP.part.buried>
-4.2759

> <Gold.PLP.part.nonpolar>
-29.3870

> <Gold.PLP.part.repulsive>
0.3216

> <Gold.PLP.ligand.clash>
0.0000

> <Gold.PLP.ligand.torsion>
1.2400

> <Gold.PLP.Chemscore.Hbond>
1.0000

> <Gold.PLP.Chemscore.CHOScore>
0.0000

> <Gold.PLP.Chemscore.Metal>
0.0000

> <Gold.Chemscore.Hbonds>
donor molecule, donor type, donor heavy atom, donor atom, acceptor molecule, acceptor atom, score
      P1  H  7997  8008       L1     7  1.00

> <Gold.PLP.Chemscore.Internal.Correction>
1.2703

> <Gold.Rescore>
     Score         DG    S(hbond)    S(metal)    S(lipo)     H(rot)  DE(clash)    DE(int)     intcor
     13.07     -14.42       0.99        0.00      75.43       1.25       0.01       1.34       ----

> <Gold.Chemscore.Fitness>
13.0723

> <Gold.Chemscore.DG>
-14.4190

> <Gold.Chemscore.ZeroCoef>
-5.4800

> <Gold.Chemscore.Hbond>
0.9894

> <Gold.Chemscore.Metal>
0.0000

> <Gold.Chemscore.Lipo>
75.4301

> <Gold.Chemscore.Internal_Hbond>
0.0000

> <Gold.Chemscore.DEClash>
0.0098

> <Gold.Chemscore.DEInternal>
1.3369

> <Gold.Chemscore.Rot>
1.2464

> <Gold.Chemscore.Internal.Correction>
   9.000000E+99

> <Gold.Chemscore.Hbonds>
donor molecule, donor type, donor heavy atom, donor atom, acceptor molecule, acceptor atom, score
      P1  H  7997  8008       L1     7  0.97

> <Gold.Chemscore.Hbond.Weighted>
-3.3046

> <Gold.Chemscore.Metal.Weighted>
-0.0000

> <Gold.Chemscore.Lipo.Weighted>
-8.8253

> <Gold.Chemscore.Internal_Hbond.Weighted>
0.0000

> <Gold.Chemscore.DEClash.Weighted>
0.0098

> <Gold.Chemscore.DEInternal.Weighted>
1.3369

> <Gold.Chemscore.Rot.Weighted>
3.1909

> <Gold.Chemscore.Internal.Correction.Weighted>
   9.000000E+99

> <Gold.Protein.RotatedTorsions>
[ 6907 6896 6895 6894 ] final   96.75 input  -60.11 | X-H torsion
[ 7974 7965 7964 7962 ] final  -94.12 input  175.53 | X-H torsion
[ 8008 7997 7996 7995 ] final  -88.83 input   59.86 | X-H torsion
[ 10167 10162 10161 10158 ] final  -19.14 input  -65.29 | X-H torsion
[ 10718 10713 10712 10709 ] final  -11.35 input   66.30 | X-H torsion
[ 10763 10752 10751 10750 ] final -153.44 input  -60.55 | X-H torsion
[ 11005 11000 10999 10996 ] final  144.26 input  -57.11 | X-H torsion

> <Gold.Protein.ActiveResidues>
 VAL166  LYS551  ARG553  GLY616  TRP617  ASP618  TYR619  PRO620  LYS621  CYS622 
 ASP623  PHE694  ASN695  SER759  ASP760  ASP761  ALA762  ILE779  LEU786  VAL792 
 PHE793  MET794  SER795  GLU796  ALA797  LYS798  CYS799  TRP800  GLU811  SER814 

> <Gold.Protein.RotatedAtoms>
  152.5431  134.0839  159.8247 H   0  0  0  0  0  0  0  0  0  0  0  0  # atno 6907 bound_to 6896
  151.0937  133.5289  159.2621 H   0  0  0  0  0  0  0  0  0  0  0  0  # atno 6908 bound_to 6896
  151.2070  135.0475  159.8950 H   0  0  0  0  0  0  0  0  0  0  0  0  # atno 6909 bound_to 6896
  145.3775  140.9513  143.2412 H   0  0  0  0  0  0  0  0  0  0  0  0  # atno 7974 bound_to 7965
  154.6794  140.0549  157.0250 H   0  0  0  0  0  0  0  0  0  0  0  0  # atno 8008 bound_to 7997
  155.0974  140.3225  155.4538 H   0  0  0  0  0  0  0  0  0  0  0  0  # atno 8009 bound_to 7997
  156.2688  140.2037  156.6100 H   0  0  0  0  0  0  0  0  0  0  0  0  # atno 8010 bound_to 7997
  140.7265  143.4847  151.0070 H   0  0  0  0  0  0  0  0  0  0  0  0  # atno 10167 bound_to 10162
  156.6603  130.4980  149.6032 H   0  0  0  0  0  0  0  0  0  0  0  0  # atno 10718 bound_to 10713
  154.7927  135.3212  154.7739 H   0  0  0  0  0  0  0  0  0  0  0  0  # atno 10763 bound_to 10752
  153.8425  135.6869  153.4805 H   0  0  0  0  0  0  0  0  0  0  0  0  # atno 10764 bound_to 10752
  153.1604  135.4663  154.9705 H   0  0  0  0  0  0  0  0  0  0  0  0  # atno 10765 bound_to 10752
  140.0618  134.9200  157.1197 H   0  0  0  0  0  0  0  0  0  0  0  0  # atno 11005 bound_to 11000
  144.8532  139.5290  143.6847 LP  0  0  0  0  0  0  0  0  0  0  0  0  # atno 17320 bound_to 7965
  146.2857  139.6999  142.9197 LP  0  0  0  0  0  0  0  0  0  0  0  0  # atno 17321 bound_to 7965
  139.8548  143.7391  152.3176 LP  0  0  0  0  0  0  0  0  0  0  0  0  # atno 17342 bound_to 10162
  139.7586  144.7513  151.0398 LP  0  0  0  0  0  0  0  0  0  0  0  0  # atno 17343 bound_to 10162
  156.2016  130.6623  151.1173 LP  0  0  0  0  0  0  0  0  0  0  0  0  # atno 17370 bound_to 10713
  157.7112  131.0733  150.6495 LP  0  0  0  0  0  0  0  0  0  0  0  0  # atno 17371 bound_to 10713
  140.3759  134.2340  155.7174 LP  0  0  0  0  0  0  0  0  0  0  0  0  # atno 17394 bound_to 11000
  141.1976  133.8055  157.0619 LP  0  0  0  0  0  0  0  0  0  0  0  0  # atno 17395 bound_to 11000

$$$$
