AV-unprocessed.smi:1179|AV-procd|sdf|4958|dock1
  -GOLD-   22720 3553D 1   1.00000     0.00000
 Structure written by MMmdl.
 47 48  0  0  0  0  0  0  0  0  2 V2000
  152.4412  138.4600  154.9030 C   0  0  0  0  0  0  0  0  0  0  0  0
  151.4603  139.5306  155.2800 C   0  0  0  0  0  0  0  0  0  0  0  0
  151.2849  140.1591  156.5443 C   0  0  0  0  0  0  0  0  0  0  0  0
  150.2705  141.0515  156.3407 C   0  0  0  0  0  0  0  0  0  0  0  0
  149.6287  142.0121  157.2870 C   0  0  0  0  0  0  0  0  0  0  0  0
  149.8890  140.9299  155.0160 N   0  0  0  0  0  0  0  0  0  0  0  0
  148.8596  141.6545  154.2865 C   0  0  0  0  0  0  0  0  0  0  0  0
  147.5946  140.8098  154.1261 C   0  0  0  0  0  0  0  0  0  0  0  0
  146.5916  141.0679  154.7912 O   0  0  0  0  0  0  0  0  0  0  0  0
  147.6528  139.8043  153.2389 N   0  0  0  0  0  0  0  0  0  0  0  0
  146.5537  138.8992  152.9285 C   0  0  0  0  0  0  0  0  0  0  0  0
  146.7155  137.5500  153.6554 C   0  0  0  0  0  0  0  0  0  0  0  0
  146.4407  136.3917  152.7689 N   0  3  2  0  0  0  0  0  0  0  0  0
  145.2683  136.6277  151.8870 C   0  0  0  0  0  0  0  0  0  0  0  0
  145.0837  135.4757  150.8848 C   0  0  0  0  0  0  0  0  0  0  0  0
  144.9439  134.1250  151.6062 C   0  0  1  0  0  0  0  0  0  0  0  0
  144.7909  132.9632  150.6144 C   0  0  0  0  0  0  0  0  0  0  0  0
  146.1503  133.9232  152.5381 C   0  0  0  0  0  0  0  0  0  0  0  0
  146.3139  135.1065  153.5070 C   0  0  0  0  0  0  0  0  0  0  0  0
  150.6232  139.9982  154.3685 N   0  0  0  0  0  0  0  0  0  0  0  0
  152.9932  138.1072  155.7743 H   0  0  0  0  0  0  0  0  0  0  0  0
  153.1664  138.8300  154.1780 H   0  0  0  0  0  0  0  0  0  0  0  0
  151.9360  137.6003  154.4617 H   0  0  0  0  0  0  0  0  0  0  0  0
  151.8234  139.9810  157.4633 H   0  0  0  0  0  0  0  0  0  0  0  0
  150.0911  141.9543  158.2725 H   0  0  0  0  0  0  0  0  0  0  0  0
  148.5670  141.7944  157.4022 H   0  0  0  0  0  0  0  0  0  0  0  0
  149.7294  143.0368  156.9298 H   0  0  0  0  0  0  0  0  0  0  0  0
  148.6218  142.5803  154.8131 H   0  0  0  0  0  0  0  0  0  0  0  0
  149.2488  141.9386  153.3081 H   0  0  0  0  0  0  0  0  0  0  0  0
  148.5184  139.6678  152.7359 H   0  0  0  0  0  0  0  0  0  0  0  0
  145.6241  139.3779  153.2370 H   0  0  0  0  0  0  0  0  0  0  0  0
  146.4930  138.7705  151.8476 H   0  0  0  0  0  0  0  0  0  0  0  0
  147.7130  137.4503  154.0864 H   0  0  0  0  0  0  0  0  0  0  0  0
  146.0175  137.5365  154.4939 H   0  0  0  0  0  0  0  0  0  0  0  0
  144.3707  136.7451  152.4967 H   0  0  0  0  0  0  0  0  0  0  0  0
  145.4018  137.5593  151.3359 H   0  0  0  0  0  0  0  0  0  0  0  0
  144.2030  135.6639  150.2696 H   0  0  0  0  0  0  0  0  0  0  0  0
  145.9353  135.4459  150.2034 H   0  0  0  0  0  0  0  0  0  0  0  0
  144.0416  134.1584  152.2190 H   0  0  0  0  0  0  0  0  0  0  0  0
  145.6667  132.8709  149.9712 H   0  0  0  0  0  0  0  0  0  0  0  0
  143.9209  133.1063  149.9728 H   0  0  0  0  0  0  0  0  0  0  0  0
  144.6612  132.0157  151.1378 H   0  0  0  0  0  0  0  0  0  0  0  0
  146.0327  132.9995  153.1058 H   0  0  0  0  0  0  0  0  0  0  0  0
  147.0604  133.8084  151.9475 H   0  0  0  0  0  0  0  0  0  0  0  0
  147.1935  134.9334  154.1256 H   0  0  0  0  0  0  0  0  0  0  0  0
  145.4595  135.1567  154.1837 H   0  0  0  0  0  0  0  0  0  0  0  0
  147.2392  136.3037  152.1567 H   0  0  0  0  0  0  0  0  0  0  0  0
  1  2  1  0  0  0  0
  1 21  1  0  0  0  0
  1 22  1  0  0  0  0
  1 23  1  0  0  0  0
  2 20  2  0  0  0  0
  2  3  1  0  0  0  0
  3  4  2  0  0  0  0
  3 24  1  0  0  0  0
  4  5  1  0  0  0  0
  4  6  1  0  0  0  0
  5 25  1  0  0  0  0
  5 26  1  0  0  0  0
  5 27  1  0  0  0  0
  6  7  1  0  0  0  0
  6 20  1  0  0  0  0
  7  8  1  0  0  0  0
  7 28  1  0  0  0  0
  7 29  1  0  0  0  0
  8  9  2  0  0  0  0
  8 10  1  0  0  0  0
 10 11  1  0  0  0  0
 10 30  1  0  0  0  0
 11 12  1  0  0  0  0
 11 31  1  0  0  0  0
 11 32  1  0  0  0  0
 12 13  1  0  0  0  0
 12 33  1  0  0  0  0
 12 34  1  0  0  0  0
 13 19  1  0  0  0  0
 13 14  1  0  0  0  0
 13 47  1  0  0  0  0
 14 15  1  0  0  0  0
 14 35  1  0  0  0  0
 14 36  1  0  0  0  0
 15 16  1  0  0  0  0
 15 37  1  0  0  0  0
 15 38  1  0  0  0  0
 16 17  1  0  0  0  0
 16 18  1  0  0  0  0
 16 39  1  0  0  0  0
 17 40  1  0  0  0  0
 17 41  1  0  0  0  0
 17 42  1  0  0  0  0
 18 19  1  0  0  0  0
 18 43  1  0  0  0  0
 18 44  1  0  0  0  0
 19 45  1  0  0  0  0
 19 46  1  0  0  0  0
M  CHG  1  13   1
M  END
> <s_m_source_file>
AV-unprocessed.smi

> <i_m_source_file_index>
1179

> <i_lp_mmshare_version>
43012

> <i_f3d_flags>
0

> <s_epik_input>
W0NIM11jMVtjSF1jKFtDSDNdKW4objEpW0NIMl1DKD1PKVtOSF1bQ0gyXVtDSDJdTjJbQ0gyXVtDSDJdW0NIXShbQ0gzXSlbQ0gyXVtDSDJdMg==

> <s_epik_cmdline>
J2VwaWtfcHl0aG9uJywgJy1waCcsICc3LjAnLCAnLXRuJywgJzgnLCAnLW1hJywgJzIwMCcsICctbWV0YWxfYmluZGluZycsICctaW1hZScsICc8aW5maWxlLm1hZT4nLCAnLW9tYWUnLCAnPG91dGZpbGUubWFlPic=

> <r_lp_tautomer_probability>
1

> <r_epik_Ionization_Penalty>
0.00206343

> <r_epik_Ionization_Penalty_Charging>
0.00187095

> <r_epik_Ionization_Penalty_Neutral>
0.000192474

> <r_epik_State_Penalty>
-0

> <r_epik_Charging_Adjusted_Penalty>
0.00187095

> <i_epik_Tot_Q>
1

> <i_epik_Tot_abs_Q>
1

> <r_epik_Metal_State_Penalty>
-0

> <b_epik_Metal_Only>
0

> <s_lp_Force_Field>
OPLS_2005

> <r_lp_Energy>
13.8345

> <b_lp_Chiralities_Consistent>
1

> <s_lp_Variant>
AV-unprocessed.smi:1179-1

> <Gold.Version>
5.8.1

> <Gold.Id.Protein>
6NUR|6NUR_protein|mol2

> <Gold.PLP.Fitness>
46.8544

> <Gold.PLP.PLP>
-36.8309

> <Gold.PLP.part.hbond>
-3.0000

> <Gold.PLP.part.metal>
0.0000

> <Gold.PLP.part.buried>
-1.2675

> <Gold.PLP.part.nonpolar>
-32.6138

> <Gold.PLP.part.repulsive>
0.2866

> <Gold.PLP.ligand.clash>
0.0000

> <Gold.PLP.ligand.torsion>
0.9886

> <Gold.PLP.Chemscore.Hbond>
3.9760

> <Gold.PLP.Chemscore.CHOScore>
0.0000

> <Gold.PLP.Chemscore.Metal>
0.0000

> <Gold.Chemscore.Hbonds>
donor molecule, donor type, donor heavy atom, donor atom, acceptor molecule, acceptor atom, score
      L1  H    10    30       P1  7957  0.96
      L1  H    13    47       P1  7948  2.00
      P1  H  7989  7998       L1    20  1.00

> <Gold.PLP.Chemscore.Internal.Correction>
0.0726

> <Gold.Rescore>
     Score         DG    S(hbond)    S(metal)    S(lipo)     H(rot)  DE(clash)    DE(int)     intcor
     17.64     -19.05       2.53        0.00      80.19       1.67       0.28       1.13       ----

> <Gold.Chemscore.Fitness>
17.6390

> <Gold.Chemscore.DG>
-19.0546

> <Gold.Chemscore.ZeroCoef>
-5.4800

> <Gold.Chemscore.Hbond>
2.5319

> <Gold.Chemscore.Metal>
0.0000

> <Gold.Chemscore.Lipo>
80.1892

> <Gold.Chemscore.Internal_Hbond>
0.0000

> <Gold.Chemscore.DEClash>
0.2818

> <Gold.Chemscore.DEInternal>
1.1337

> <Gold.Chemscore.Rot>
1.6657

> <Gold.Chemscore.Internal.Correction>
   9.000000E+99

> <Gold.Chemscore.Hbonds>
donor molecule, donor type, donor heavy atom, donor atom, acceptor molecule, acceptor atom, score
      L1  H    10    30       P1  7957  0.91
      L1  H    13    47       P1  7948  0.98
      P1  H  7989  7998       L1    20  0.10

> <Gold.Chemscore.Hbond.Weighted>
-8.4565

> <Gold.Chemscore.Metal.Weighted>
-0.0000

> <Gold.Chemscore.Lipo.Weighted>
-9.3821

> <Gold.Chemscore.Internal_Hbond.Weighted>
0.0000

> <Gold.Chemscore.DEClash.Weighted>
0.2818

> <Gold.Chemscore.DEInternal.Weighted>
1.1337

> <Gold.Chemscore.Rot.Weighted>
4.2641

> <Gold.Chemscore.Internal.Correction.Weighted>
   9.000000E+99

> <Gold.Protein.RotatedTorsions>
[ 6907 6896 6895 6894 ] final -134.51 input  -60.11 | X-H torsion
[ 7974 7965 7964 7962 ] final -128.03 input  175.53 | X-H torsion
[ 8008 7997 7996 7995 ] final -130.69 input   59.86 | X-H torsion
[ 10167 10162 10161 10158 ] final   72.33 input  -65.29 | X-H torsion
[ 10718 10713 10712 10709 ] final   95.19 input   66.30 | X-H torsion
[ 10763 10752 10751 10750 ] final  -62.35 input  -60.55 | X-H torsion
[ 11005 11000 10999 10996 ] final   60.08 input  -57.11 | X-H torsion

> <Gold.Protein.ActiveResidues>
 VAL166  LYS551  ARG553  GLY616  TRP617  ASP618  TYR619  PRO620  LYS621  CYS622 
 ASP623  PHE694  ASN695  SER759  ASP760  ASP761  ALA762  ILE779  LEU786  VAL792 
 PHE793  MET794  SER795  GLU796  ALA797  LYS798  CYS799  TRP800  GLU811  SER814 

> <Gold.Protein.RotatedAtoms>
  150.9867  133.6191  159.2714 H   0  0  0  0  0  0  0  0  0  0  0  0  # atno 6907 bound_to 6896
  151.3426  135.0866  159.9386 H   0  0  0  0  0  0  0  0  0  0  0  0  # atno 6908 bound_to 6896
  152.5233  133.9475  159.7710 H   0  0  0  0  0  0  0  0  0  0  0  0  # atno 6909 bound_to 6896
  144.9711  140.7546  143.4670 H   0  0  0  0  0  0  0  0  0  0  0  0  # atno 7974 bound_to 7965
  155.3000  140.0452  157.3029 H   0  0  0  0  0  0  0  0  0  0  0  0  # atno 8008 bound_to 7997
  154.5492  140.2312  155.8479 H   0  0  0  0  0  0  0  0  0  0  0  0  # atno 8009 bound_to 7997
  156.1952  140.3040  155.9419 H   0  0  0  0  0  0  0  0  0  0  0  0  # atno 8010 bound_to 7997
  140.0364  144.5424  150.7467 H   0  0  0  0  0  0  0  0  0  0  0  0  # atno 10167 bound_to 10162
  157.6941  131.0537  150.4301 H   0  0  0  0  0  0  0  0  0  0  0  0  # atno 10718 bound_to 10713
  154.2985  135.6239  153.5415 H   0  0  0  0  0  0  0  0  0  0  0  0  # atno 10763 bound_to 10752
  152.9843  135.5673  154.5310 H   0  0  0  0  0  0  0  0  0  0  0  0  # atno 10764 bound_to 10752
  154.4936  135.2868  155.1453 H   0  0  0  0  0  0  0  0  0  0  0  0  # atno 10765 bound_to 10752
  140.0258  134.6085  155.9575 H   0  0  0  0  0  0  0  0  0  0  0  0  # atno 11005 bound_to 11000
  145.2557  139.2013  143.4919 LP  0  0  0  0  0  0  0  0  0  0  0  0  # atno 17320 bound_to 7965
  146.3382  140.2478  142.8597 LP  0  0  0  0  0  0  0  0  0  0  0  0  # atno 17321 bound_to 7965
  140.7279  143.2656  151.4055 LP  0  0  0  0  0  0  0  0  0  0  0  0  # atno 17342 bound_to 10162
  139.6042  144.1232  152.2231 LP  0  0  0  0  0  0  0  0  0  0  0  0  # atno 17343 bound_to 10162
  156.4669  130.4044  149.6542 LP  0  0  0  0  0  0  0  0  0  0  0  0  # atno 17370 bound_to 10713
  156.3637  130.7494  151.2470 LP  0  0  0  0  0  0  0  0  0  0  0  0  # atno 17371 bound_to 10713
  141.1801  133.6545  156.4987 LP  0  0  0  0  0  0  0  0  0  0  0  0  # atno 17394 bound_to 11000
  140.4310  134.7102  157.4941 LP  0  0  0  0  0  0  0  0  0  0  0  0  # atno 17395 bound_to 11000

$$$$
