AV-unprocessed.smi:1954|AV-procd|sdf|7897|dock9
  -GOLD-   2272010 53D 1   1.00000     0.00000
 Structure written by MMmdl.
 45 47  0  0  0  0  0  0  0  0  2 V2000
  144.7563  136.0003  153.2435 O   0  0  0  0  0  0  0  0  0  0  0  0
  145.9230  135.9407  152.8559 C   0  0  0  0  0  0  0  0  0  0  0  0
  146.8930  136.7458  153.3124 N   0  0  0  0  0  0  0  0  0  0  0  0
  146.7335  137.8015  154.3127 C   0  0  0  0  0  0  0  0  0  0  0  0
  147.9742  138.7437  154.4220 C   0  0  2  0  0  0  0  0  0  0  0  0
  149.2205  137.8926  154.3902 N   0  3  0  0  0  0  0  0  0  0  0  0
  150.4986  138.6586  154.3960 C   0  0  0  0  0  0  0  0  0  0  0  0
  151.6905  137.7281  154.1264 C   0  0  0  0  0  0  0  0  0  0  0  0
  151.7219  136.7147  155.1209 O   0  0  0  0  0  0  0  0  0  0  0  0
  150.5553  135.9056  155.0788 C   0  0  0  0  0  0  0  0  0  0  0  0
  149.3030  136.7587  155.3504 C   0  0  0  0  0  0  0  0  0  0  0  0
  147.8491  139.6290  155.6948 C   0  0  0  0  0  0  0  0  0  0  0  0
  146.7280  140.6470  155.4684 C   0  0  0  0  0  0  0  0  0  0  0  0
  146.7737  141.1004  153.7182 S   0  0  0  0  0  0  0  0  0  0  0  0
  147.9465  139.7869  153.2797 C   0  0  0  0  0  0  0  0  0  0  0  0
  146.3968  135.0809  151.9376 N   0  0  0  0  0  0  0  0  0  0  0  0
  145.6946  134.0836  151.2092 C   0  0  0  0  0  0  0  0  0  0  0  0
  146.3928  133.0922  150.4715 C   0  0  0  0  0  0  0  0  0  0  0  0
  145.6638  132.1017  149.7851 C   0  0  0  0  0  0  0  0  0  0  0  0
  144.2602  132.1156  149.8612 C   0  0  0  0  0  0  0  0  0  0  0  0
  143.6487  133.1228  150.6290 C   0  0  0  0  0  0  0  0  0  0  0  0
  144.3441  134.0738  151.2884 N   0  0  0  0  0  0  0  0  0  0  0  0
  147.8238  136.6152  152.9430 H   0  0  0  0  0  0  0  0  0  0  0  0
  145.8238  138.3673  154.1111 H   0  0  0  0  0  0  0  0  0  0  0  0
  146.5351  137.3059  155.2623 H   0  0  0  0  0  0  0  0  0  0  0  0
  150.4853  139.4434  153.6412 H   0  0  0  0  0  0  0  0  0  0  0  0
  150.6441  139.1458  155.3608 H   0  0  0  0  0  0  0  0  0  0  0  0
  151.6297  137.2849  153.1312 H   0  0  0  0  0  0  0  0  0  0  0  0
  152.6229  138.2915  154.1681 H   0  0  0  0  0  0  0  0  0  0  0  0
  150.4809  135.4095  154.1093 H   0  0  0  0  0  0  0  0  0  0  0  0
  150.6434  135.1203  155.8297 H   0  0  0  0  0  0  0  0  0  0  0  0
  149.3147  137.1379  156.3732 H   0  0  0  0  0  0  0  0  0  0  0  0
  148.4436  136.0973  155.2484 H   0  0  0  0  0  0  0  0  0  0  0  0
  147.6934  139.0514  156.6063 H   0  0  0  0  0  0  0  0  0  0  0  0
  148.7510  140.2215  155.8463 H   0  0  0  0  0  0  0  0  0  0  0  0
  145.7553  140.2101  155.6945 H   0  0  0  0  0  0  0  0  0  0  0  0
  146.8450  141.5281  156.0997 H   0  0  0  0  0  0  0  0  0  0  0  0
  148.9232  140.2605  153.1738 H   0  0  0  0  0  0  0  0  0  0  0  0
  147.6855  139.3528  152.3141 H   0  0  0  0  0  0  0  0  0  0  0  0
  147.3972  135.0829  151.8025 H   0  0  0  0  0  0  0  0  0  0  0  0
  147.4707  133.0643  150.4299 H   0  0  0  0  0  0  0  0  0  0  0  0
  146.1747  131.3400  149.2154 H   0  0  0  0  0  0  0  0  0  0  0  0
  143.6683  131.3710  149.3496 H   0  0  0  0  0  0  0  0  0  0  0  0
  142.5733  133.1650  150.7196 H   0  0  0  0  0  0  0  0  0  0  0  0
  149.1870  137.4452  153.4850 H   0  0  0  0  0  0  0  0  0  0  0  0
  1  2  2  0  0  0  0
  2  3  1  0  0  0  0
  2 16  1  0  0  0  0
  3  4  1  0  0  0  0
  3 23  1  0  0  0  0
  4  5  1  0  0  0  0
  4 24  1  0  0  0  0
  4 25  1  0  0  0  0
  5 15  1  0  0  0  0
  5  6  1  0  0  0  0
  5 12  1  0  0  0  0
  6 11  1  0  0  0  0
  6  7  1  0  0  0  0
  6 45  1  0  0  0  0
  7  8  1  0  0  0  0
  7 26  1  0  0  0  0
  7 27  1  0  0  0  0
  8  9  1  0  0  0  0
  8 28  1  0  0  0  0
  8 29  1  0  0  0  0
  9 10  1  0  0  0  0
 10 11  1  0  0  0  0
 10 30  1  0  0  0  0
 10 31  1  0  0  0  0
 11 32  1  0  0  0  0
 11 33  1  0  0  0  0
 12 13  1  0  0  0  0
 12 34  1  0  0  0  0
 12 35  1  0  0  0  0
 13 14  1  0  0  0  0
 13 36  1  0  0  0  0
 13 37  1  0  0  0  0
 14 15  1  0  0  0  0
 15 38  1  0  0  0  0
 15 39  1  0  0  0  0
 16 17  1  0  0  0  0
 16 40  1  0  0  0  0
 17 22  1  0  0  0  0
 17 18  2  0  0  0  0
 18 19  1  0  0  0  0
 18 41  1  0  0  0  0
 19 20  2  0  0  0  0
 19 42  1  0  0  0  0
 20 21  1  0  0  0  0
 20 43  1  0  0  0  0
 21 22  2  0  0  0  0
 21 44  1  0  0  0  0
M  CHG  1   6   1
M  END
> <s_m_source_file>
AV-unprocessed.smi

> <i_m_source_file_index>
1954

> <i_lp_mmshare_version>
43012

> <i_f3d_flags>
0

> <s_epik_input>
bjFbY0hdW2NIXVtjSF1bY0hdYzFbTkhdQyg9TylbTkhdW0NIMl1bQ0BdMihbQ0gyXVtDSDJdU1tDSDJdMilOM1tDSDJdW0NIMl1PW0NIMl1bQ0gyXTM=

> <s_epik_cmdline>
J2VwaWtfcHl0aG9uJywgJy1waCcsICc3LjAnLCAnLXRuJywgJzgnLCAnLW1hJywgJzIwMCcsICctbWV0YWxfYmluZGluZycsICctaW1hZScsICc8aW5maWxlLm1hZT4nLCAnLW9tYWUnLCAnPG91dGZpbGUubWFlPic=

> <r_epik_Ionization_Penalty>
2.03222

> <r_epik_Ionization_Penalty_Charging>
2.03219

> <r_epik_Ionization_Penalty_Neutral>
3.25833e-05

> <r_epik_State_Penalty>
2.16328

> <r_epik_Charging_Adjusted_Penalty>
4.19546

> <i_epik_Tot_Q>
1

> <i_epik_Tot_abs_Q>
1

> <r_epik_Metal_State_Penalty>
2.16328

> <b_epik_Metal_Only>
0

> <s_lp_Force_Field>
OPLS_2005

> <r_lp_Energy>
46.5202

> <b_lp_Chiralities_Consistent>
1

> <s_lp_Variant>
AV-unprocessed.smi:1954-4

> <Gold.Version>
5.8.1

> <Gold.Id.Protein>
6NUR|6NUR_protein|mol2

> <Gold.PLP.Fitness>
49.4819

> <Gold.PLP.PLP>
-32.4115

> <Gold.PLP.part.hbond>
-3.9859

> <Gold.PLP.part.metal>
0.0000

> <Gold.PLP.part.buried>
-1.5541

> <Gold.PLP.part.nonpolar>
-28.1310

> <Gold.PLP.part.repulsive>
0.3662

> <Gold.PLP.ligand.clash>
0.0000

> <Gold.PLP.ligand.torsion>
0.3482

> <Gold.PLP.Chemscore.Hbond>
4.8785

> <Gold.PLP.Chemscore.CHOScore>
0.9995

> <Gold.PLP.Chemscore.Metal>
0.0000

> <Gold.Chemscore.Hbonds>
donor molecule, donor type, donor heavy atom, donor atom, acceptor molecule, acceptor atom, score
      L1  H     3    23       P1  7948  1.00
      L1  H     6    45       P1  7948  2.00
      L1  H    16    40       P1  7948  0.88
      P1  H 10752 10765       L1     9  1.00
      L1  C    21    44       P1 10186  1.00

> <Gold.PLP.Chemscore.Internal.Correction>
0.1328

> <Gold.Rescore>
     Score         DG    S(hbond)    S(metal)    S(lipo)     H(rot)  DE(clash)    DE(int)     intcor
     19.63     -22.85       3.18        0.00      91.36       1.54       1.50       1.72       ----

> <Gold.Chemscore.Fitness>
19.6298

> <Gold.Chemscore.DG>
-22.8519

> <Gold.Chemscore.ZeroCoef>
-5.4800

> <Gold.Chemscore.Hbond>
3.1779

> <Gold.Chemscore.Metal>
0.0000

> <Gold.Chemscore.Lipo>
91.3565

> <Gold.Chemscore.Internal_Hbond>
0.0000

> <Gold.Chemscore.DEClash>
1.4987

> <Gold.Chemscore.DEInternal>
1.7234

> <Gold.Chemscore.Rot>
1.5355

> <Gold.Chemscore.Internal.Correction>
   9.000000E+99

> <Gold.Chemscore.Hbonds>
donor molecule, donor type, donor heavy atom, donor atom, acceptor molecule, acceptor atom, score
      L1  H     3    23       P1  7948  0.98
      L1  H     6    45       P1  7948  0.94
      L1  H    16    40       P1  7948  0.78
      P1  H 10752 10765       L1     9  0.31

> <Gold.Chemscore.Hbond.Weighted>
-10.6141

> <Gold.Chemscore.Metal.Weighted>
-0.0000

> <Gold.Chemscore.Lipo.Weighted>
-10.6887

> <Gold.Chemscore.Internal_Hbond.Weighted>
0.0000

> <Gold.Chemscore.DEClash.Weighted>
1.4987

> <Gold.Chemscore.DEInternal.Weighted>
1.7234

> <Gold.Chemscore.Rot.Weighted>
3.9309

> <Gold.Chemscore.Internal.Correction.Weighted>
   9.000000E+99

> <Gold.Protein.RotatedTorsions>
[ 6907 6896 6895 6894 ] final  116.38 input  -60.11 | X-H torsion
[ 7974 7965 7964 7962 ] final -164.09 input  175.53 | X-H torsion
[ 8008 7997 7996 7995 ] final  -77.34 input   59.86 | X-H torsion
[ 10167 10162 10161 10158 ] final  -86.83 input  -65.29 | X-H torsion
[ 10718 10713 10712 10709 ] final   33.50 input   66.30 | X-H torsion
[ 10763 10752 10751 10750 ] final -165.23 input  -60.55 | X-H torsion
[ 11005 11000 10999 10996 ] final   27.36 input  -57.11 | X-H torsion

> <Gold.Protein.ActiveResidues>
 VAL166  LYS551  ARG553  GLY616  TRP617  ASP618  TYR619  PRO620  LYS621  CYS622 
 ASP623  PHE694  ASN695  SER759  ASP760  ASP761  ALA762  ILE779  LEU786  VAL792 
 PHE793  MET794  SER795  GLU796  ALA797  LYS798  CYS799  TRP800  GLU811  SER814 

> <Gold.Protein.RotatedAtoms>
  152.4682  133.7969  159.6931 H   0  0  0  0  0  0  0  0  0  0  0  0  # atno 6907 bound_to 6896
  150.8657  133.7569  159.2984 H   0  0  0  0  0  0  0  0  0  0  0  0  # atno 6908 bound_to 6896
  151.5120  135.1068  159.9908 H   0  0  0  0  0  0  0  0  0  0  0  0  # atno 6909 bound_to 6896
  144.7307  140.3012  143.6204 H   0  0  0  0  0  0  0  0  0  0  0  0  # atno 7974 bound_to 7965
  154.5587  140.0712  156.8785 H   0  0  0  0  0  0  0  0  0  0  0  0  # atno 8008 bound_to 7997
  155.2852  140.3374  155.4237 H   0  0  0  0  0  0  0  0  0  0  0  0  # atno 8009 bound_to 7997
  156.2024  140.1727  156.7857 H   0  0  0  0  0  0  0  0  0  0  0  0  # atno 8010 bound_to 7997
  140.3904  143.2707  151.9272 H   0  0  0  0  0  0  0  0  0  0  0  0  # atno 10167 bound_to 10162
  157.2986  130.7339  149.6653 H   0  0  0  0  0  0  0  0  0  0  0  0  # atno 10718 bound_to 10713
  154.6952  135.2978  154.9422 H   0  0  0  0  0  0  0  0  0  0  0  0  # atno 10763 bound_to 10752
  154.0372  135.6662  153.4790 H   0  0  0  0  0  0  0  0  0  0  0  0  # atno 10764 bound_to 10752
  153.0640  135.5098  154.8066 H   0  0  0  0  0  0  0  0  0  0  0  0  # atno 10765 bound_to 10752
  140.3271  134.2479  155.7708 H   0  0  0  0  0  0  0  0  0  0  0  0  # atno 11005 bound_to 11000
  145.7759  139.1873  143.2186 LP  0  0  0  0  0  0  0  0  0  0  0  0  # atno 17320 bound_to 7965
  146.0873  140.7695  142.9612 LP  0  0  0  0  0  0  0  0  0  0  0  0  # atno 17321 bound_to 7965
  139.4789  144.5733  151.8052 LP  0  0  0  0  0  0  0  0  0  0  0  0  # atno 17342 bound_to 10162
  140.4846  144.1400  150.5938 LP  0  0  0  0  0  0  0  0  0  0  0  0  # atno 17343 bound_to 10162
  155.9670  130.4287  150.4799 LP  0  0  0  0  0  0  0  0  0  0  0  0  # atno 17370 bound_to 10713
  157.2775  131.0600  151.2219 LP  0  0  0  0  0  0  0  0  0  0  0  0  # atno 17371 bound_to 10713
  141.2072  133.7811  157.0130 LP  0  0  0  0  0  0  0  0  0  0  0  0  # atno 17394 bound_to 11000
  140.0892  134.9602  157.1749 LP  0  0  0  0  0  0  0  0  0  0  0  0  # atno 17395 bound_to 11000

$$$$
