AV-unprocessed.smi:3054|AV-procd|sdf|11639|dock2
  -GOLD-   2272017 33D 1   1.00000     0.00000
 Structure written by MMmdl.
 40 41  0  0  0  0  0  0  0  0  2 V2000
  149.6765  141.3584  155.0594 C   0  0  0  0  0  0  0  0  0  0  0  0
  148.4031  140.5028  154.9704 C   0  0  0  0  0  0  0  0  0  0  0  0
  148.3813  139.4937  153.7899 C   0  0  2  0  0  0  0  0  0  0  0  0
  146.9484  139.0025  153.4611 C   0  0  0  0  0  0  0  0  0  0  0  0
  146.9585  137.7509  152.7102 N   0  0  0  0  0  0  0  0  0  0  0  0
  145.8661  137.0915  152.3017 C   0  0  0  0  0  0  0  0  0  0  0  0
  144.7176  137.4734  152.5251 O   0  0  0  0  0  0  0  0  0  0  0  0
  146.1932  135.9780  151.6263 N   0  0  0  0  0  0  0  0  0  0  0  0
  145.3078  135.0352  151.0470 C   0  0  0  0  0  0  0  0  0  0  0  0
  145.4827  133.6334  150.8516 C   0  0  0  0  0  0  0  0  0  0  0  0
  144.4204  133.0941  150.2708 N   0  0  0  0  0  0  0  0  0  0  0  0
  143.5729  134.1325  150.0941 N   0  0  0  0  0  0  0  0  0  0  0  0
  144.0730  135.3314  150.5519 C   0  0  0  0  0  0  0  0  0  0  0  0
  149.3151  138.3544  154.0338 N   0  3  0  0  0  0  0  0  0  0  0  0
  150.7507  138.7010  154.1183 C   0  0  0  0  0  0  0  0  0  0  0  0
  151.4015  137.5180  154.8252 C   0  0  0  0  0  0  0  0  0  0  0  0
  150.3500  137.1095  155.8503 C   0  0  0  0  0  0  0  0  0  0  0  0
  149.0099  137.5253  155.2279 C   0  0  0  0  0  0  0  0  0  0  0  0
  142.6674  134.0079  149.6643 H   0  0  0  0  0  0  0  0  0  0  0  0
  149.6064  142.0642  155.8873 H   0  0  0  0  0  0  0  0  0  0  0  0
  149.8362  141.9360  154.1488 H   0  0  0  0  0  0  0  0  0  0  0  0
  150.5617  140.7458  155.2308 H   0  0  0  0  0  0  0  0  0  0  0  0
  148.2778  139.9691  155.9129 H   0  0  0  0  0  0  0  0  0  0  0  0
  147.5398  141.1657  154.9172 H   0  0  0  0  0  0  0  0  0  0  0  0
  148.7501  140.0197  152.9075 H   0  0  0  0  0  0  0  0  0  0  0  0
  146.3823  138.8138  154.3732 H   0  0  0  0  0  0  0  0  0  0  0  0
  146.4074  139.7787  152.9171 H   0  0  0  0  0  0  0  0  0  0  0  0
  147.8614  137.3602  152.4835 H   0  0  0  0  0  0  0  0  0  0  0  0
  147.1774  135.7829  151.5155 H   0  0  0  0  0  0  0  0  0  0  0  0
  146.3186  132.9973  151.1012 H   0  0  0  0  0  0  0  0  0  0  0  0
  143.5228  136.2586  150.4862 H   0  0  0  0  0  0  0  0  0  0  0  0
  151.1881  138.8776  153.1351 H   0  0  0  0  0  0  0  0  0  0  0  0
  150.8783  139.6037  154.7186 H   0  0  0  0  0  0  0  0  0  0  0  0
  151.5642  136.7053  154.1160 H   0  0  0  0  0  0  0  0  0  0  0  0
  152.3614  137.7689  155.2777 H   0  0  0  0  0  0  0  0  0  0  0  0
  150.3913  136.0454  156.0855 H   0  0  0  0  0  0  0  0  0  0  0  0
  150.5097  137.6601  156.7786 H   0  0  0  0  0  0  0  0  0  0  0  0
  148.4227  138.0768  155.9637 H   0  0  0  0  0  0  0  0  0  0  0  0
  148.4272  136.6560  154.9214 H   0  0  0  0  0  0  0  0  0  0  0  0
  149.2333  137.7347  153.2401 H   0  0  0  0  0  0  0  0  0  0  0  0
  1  2  1  0  0  0  0
  1 20  1  0  0  0  0
  1 21  1  0  0  0  0
  1 22  1  0  0  0  0
  2  3  1  0  0  0  0
  2 23  1  0  0  0  0
  2 24  1  0  0  0  0
  3  4  1  0  0  0  0
  3 14  1  0  0  0  0
  3 25  1  0  0  0  0
  4  5  1  0  0  0  0
  4 26  1  0  0  0  0
  4 27  1  0  0  0  0
  5  6  1  0  0  0  0
  5 28  1  0  0  0  0
  6  7  2  0  0  0  0
  6  8  1  0  0  0  0
  8  9  1  0  0  0  0
  8 29  1  0  0  0  0
  9 13  2  0  0  0  0
  9 10  1  0  0  0  0
 10 11  2  0  0  0  0
 10 30  1  0  0  0  0
 11 12  1  0  0  0  0
 12 19  1  0  0  0  0
 12 13  1  0  0  0  0
 13 31  1  0  0  0  0
 14 18  1  0  0  0  0
 14 15  1  0  0  0  0
 14 40  1  0  0  0  0
 15 16  1  0  0  0  0
 15 32  1  0  0  0  0
 15 33  1  0  0  0  0
 16 17  1  0  0  0  0
 16 34  1  0  0  0  0
 16 35  1  0  0  0  0
 17 18  1  0  0  0  0
 17 36  1  0  0  0  0
 17 37  1  0  0  0  0
 18 38  1  0  0  0  0
 18 39  1  0  0  0  0
M  CHG  1  14   1
M  END
> <s_m_source_file>
AV-unprocessed.smi

> <i_m_source_file_index>
3054

> <i_lp_mmshare_version>
43012

> <i_f3d_flags>
0

> <s_epik_input>
W0NIMl0xW0NIMl1bQ0gyXVtDSDJdTjFbQ0BIXShbQ0gyXVtDSDNdKVtDSDJdW05IXUMoPU8pW05IXWMyW2NIXW5bbkhdW2NIXTI=

> <s_epik_cmdline>
J2VwaWtfcHl0aG9uJywgJy1waCcsICc3LjAnLCAnLXRuJywgJzgnLCAnLW1hJywgJzIwMCcsICctbWV0YWxfYmluZGluZycsICctaW1hZScsICc8aW5maWxlLm1hZT4nLCAnLW9tYWUnLCAnPG91dGZpbGUubWFlPic=

> <r_lp_tautomer_probability>
0.5

> <r_epik_Ionization_Penalty>
0.00108132

> <r_epik_Ionization_Penalty_Charging>
0.00104139

> <r_epik_Ionization_Penalty_Neutral>
3.99244e-05

> <r_epik_State_Penalty>
0.00068071

> <r_epik_Charging_Adjusted_Penalty>
0.0017221

> <i_epik_Tot_Q>
1

> <i_epik_Tot_abs_Q>
1

> <r_epik_Metal_State_Penalty>
-0

> <b_epik_Metal_Only>
0

> <s_lp_Force_Field>
OPLS_2005

> <r_lp_Energy>
36.476

> <b_lp_Chiralities_Consistent>
1

> <s_lp_Variant>
AV-unprocessed.smi:3054-1

> <Gold.Version>
5.8.1

> <Gold.Id.Protein>
6NUR|6NUR_protein|mol2

> <Gold.PLP.Fitness>
44.4731

> <Gold.PLP.PLP>
-27.5958

> <Gold.PLP.part.hbond>
-4.0580

> <Gold.PLP.part.metal>
0.0000

> <Gold.PLP.part.buried>
-4.0255

> <Gold.PLP.part.nonpolar>
-21.4067

> <Gold.PLP.part.repulsive>
1.1684

> <Gold.PLP.ligand.clash>
0.0000

> <Gold.PLP.ligand.torsion>
0.5955

> <Gold.PLP.Chemscore.Hbond>
4.9920

> <Gold.PLP.Chemscore.CHOScore>
1.0000

> <Gold.PLP.Chemscore.Metal>
0.0000

> <Gold.Chemscore.Hbonds>
donor molecule, donor type, donor heavy atom, donor atom, acceptor molecule, acceptor atom, score
      L1  H     5    28       P1  7948  1.00
      L1  H     8    29       P1  7948  1.00
      L1  H    12    19       P1 10186  0.99
      L1  H    14    40       P1  7948  2.00
      L1  C    13    31       P1 10171  1.00

> <Gold.PLP.Chemscore.Internal.Correction>
0.0924

> <Gold.Rescore>
     Score         DG    S(hbond)    S(metal)    S(lipo)     H(rot)  DE(clash)    DE(int)     intcor
     18.36     -21.40       3.86        0.00      65.60       1.81       0.48       2.56       ----

> <Gold.Chemscore.Fitness>
18.3565

> <Gold.Chemscore.DG>
-21.4009

> <Gold.Chemscore.ZeroCoef>
-5.4800

> <Gold.Chemscore.Hbond>
3.8558

> <Gold.Chemscore.Metal>
0.0000

> <Gold.Chemscore.Lipo>
65.5954

> <Gold.Chemscore.Internal_Hbond>
0.0000

> <Gold.Chemscore.DEClash>
0.4806

> <Gold.Chemscore.DEInternal>
2.5638

> <Gold.Chemscore.Rot>
1.8094

> <Gold.Chemscore.Internal.Correction>
   9.000000E+99

> <Gold.Chemscore.Hbonds>
donor molecule, donor type, donor heavy atom, donor atom, acceptor molecule, acceptor atom, score
      L1  H     5    28       P1  7948  0.99
      L1  H     8    29       P1  7948  0.95
      L1  H    12    19       P1 10186  0.94
      L1  H    14    40       P1  7948  0.92

> <Gold.Chemscore.Hbond.Weighted>
-12.8784

> <Gold.Chemscore.Metal.Weighted>
-0.0000

> <Gold.Chemscore.Lipo.Weighted>
-7.6747

> <Gold.Chemscore.Internal_Hbond.Weighted>
0.0000

> <Gold.Chemscore.DEClash.Weighted>
0.4806

> <Gold.Chemscore.DEInternal.Weighted>
2.5638

> <Gold.Chemscore.Rot.Weighted>
4.6322

> <Gold.Chemscore.Internal.Correction.Weighted>
   9.000000E+99

> <Gold.Protein.RotatedTorsions>
[ 6907 6896 6895 6894 ] final  -59.51 input  -60.11 | X-H torsion
[ 7974 7965 7964 7962 ] final  -32.64 input  175.53 | X-H torsion
[ 8008 7997 7996 7995 ] final   68.06 input   59.86 | X-H torsion
[ 10167 10162 10161 10158 ] final -169.39 input  -65.29 | X-H torsion
[ 10718 10713 10712 10709 ] final  159.97 input   66.30 | X-H torsion
[ 10763 10752 10751 10750 ] final  158.14 input  -60.55 | X-H torsion
[ 11005 11000 10999 10996 ] final  -19.44 input  -57.11 | X-H torsion

> <Gold.Protein.ActiveResidues>
 VAL166  LYS551  ARG553  GLY616  TRP617  ASP618  TYR619  PRO620  LYS621  CYS622 
 ASP623  PHE694  ASN695  SER759  ASP760  ASP761  ALA762  ILE779  LEU786  VAL792 
 PHE793  MET794  SER795  GLU796  ALA797  LYS798  CYS799  TRP800  GLU811  SER814 

> <Gold.Protein.RotatedAtoms>
  150.7925  134.6959  159.6522 H   0  0  0  0  0  0  0  0  0  0  0  0  # atno 6907 bound_to 6896
  152.4032  134.6247  160.0070 H   0  0  0  0  0  0  0  0  0  0  0  0  # atno 6908 bound_to 6896
  151.6512  133.3284  159.3188 H   0  0  0  0  0  0  0  0  0  0  0  0  # atno 6909 bound_to 6896
  146.0974  140.5818  142.8836 H   0  0  0  0  0  0  0  0  0  0  0  0  # atno 7974 bound_to 7965
  155.7024  140.3495  155.4939 H   0  0  0  0  0  0  0  0  0  0  0  0  # atno 8008 bound_to 7997
  155.9428  140.1105  157.1063 H   0  0  0  0  0  0  0  0  0  0  0  0  # atno 8009 bound_to 7997
  154.4106  140.1209  156.4936 H   0  0  0  0  0  0  0  0  0  0  0  0  # atno 8010 bound_to 7997
  139.5925  144.1182  152.1651 H   0  0  0  0  0  0  0  0  0  0  0  0  # atno 10167 bound_to 10162
  157.1569  131.0578  151.2252 H   0  0  0  0  0  0  0  0  0  0  0  0  # atno 10718 bound_to 10713
  154.2113  135.2786  155.2957 H   0  0  0  0  0  0  0  0  0  0  0  0  # atno 10763 bound_to 10752
  154.5776  135.5599  153.7158 H   0  0  0  0  0  0  0  0  0  0  0  0  # atno 10764 bound_to 10752
  153.0063  135.6337  154.2252 H   0  0  0  0  0  0  0  0  0  0  0  0  # atno 10765 bound_to 10752
  140.8366  133.7957  155.9816 H   0  0  0  0  0  0  0  0  0  0  0  0  # atno 11005 bound_to 11000
  144.7406  140.4931  143.6872 LP  0  0  0  0  0  0  0  0  0  0  0  0  # atno 17320 bound_to 7965
  145.5922  139.1496  143.3176 LP  0  0  0  0  0  0  0  0  0  0  0  0  # atno 17321 bound_to 7965
  140.0760  144.5740  150.7157 LP  0  0  0  0  0  0  0  0  0  0  0  0  # atno 17342 bound_to 10162
  140.7185  143.2566  151.4356 LP  0  0  0  0  0  0  0  0  0  0  0  0  # atno 17343 bound_to 10162
  157.4168  130.7416  149.6882 LP  0  0  0  0  0  0  0  0  0  0  0  0  # atno 17370 bound_to 10713
  155.9760  130.4081  150.3806 LP  0  0  0  0  0  0  0  0  0  0  0  0  # atno 17371 bound_to 10713
  140.8940  134.2460  157.5079 LP  0  0  0  0  0  0  0  0  0  0  0  0  # atno 17394 bound_to 11000
  139.8704  134.9675  156.4599 LP  0  0  0  0  0  0  0  0  0  0  0  0  # atno 17395 bound_to 11000

$$$$
