AV-unprocessed.smi:101|AV-procd|sdf|915|dock5
  -GOLD-   2262017413D 1   1.00000     0.00000
 Structure written by MMmdl.
 44 46  0  0  0  0  0  0  0  0  1 V2000
  150.9311  141.7509  156.3187 C   0  0  0  0  0  0  0  0  0  0  0  0
  151.2560  140.2681  156.3935 C   0  0  0  0  0  0  0  0  0  0  0  0
  151.8302  139.7019  157.4860 C   0  0  0  0  0  0  0  0  0  0  0  0
  152.1248  138.3471  157.5886 N   0  0  0  0  0  0  0  0  0  0  0  0
  152.7490  137.7403  158.8294 C   0  0  2  0  0  0  0  0  0  0  0  0
  153.1933  138.7623  159.6762 O   0  0  0  0  0  0  0  0  0  0  0  0
  154.5759  138.5983  159.9723 C   0  0  2  0  0  0  0  0  0  0  0  0
  155.2398  139.9630  160.2162 C   0  0  0  0  0  0  0  0  0  0  0  0
  154.3114  141.0047  159.9592 O   0  0  0  0  0  0  0  0  0  0  0  0
  153.8000  141.7395  160.9622 C   0  0  0  0  0  0  0  0  0  0  0  0
  153.9772  141.4887  162.1557 O   0  0  0  0  0  0  0  0  0  0  0  0
  152.9861  142.8881  160.4702 C   0  0  0  0  0  0  0  0  0  0  0  0
  152.8640  143.1067  159.0784 C   0  0  0  0  0  0  0  0  0  0  0  0
  152.1071  144.1877  158.5864 C   0  0  0  0  0  0  0  0  0  0  0  0
  151.4599  145.0608  159.4800 C   0  0  0  0  0  0  0  0  0  0  0  0
  151.5685  144.8505  160.8666 C   0  0  0  0  0  0  0  0  0  0  0  0
  152.3273  143.7719  161.3609 C   0  0  0  0  0  0  0  0  0  0  0  0
  155.1333  137.7848  158.8036 C   0  0  1  0  0  0  0  0  0  0  0  0
  156.3205  137.0865  159.1289 O   0  0  0  0  0  0  0  0  0  0  0  0
  153.9669  136.8691  158.4580 C   0  0  1  0  0  0  0  0  0  0  0  0
  153.9710  135.6624  159.1992 O   0  0  0  0  0  0  0  0  0  0  0  0
  151.8174  137.4936  156.5088 C   0  0  0  0  0  0  0  0  0  0  0  0
  152.0467  136.2847  156.5312 O   0  0  0  0  0  0  0  0  0  0  0  0
  151.2364  138.0750  155.3838 N   0  0  0  0  0  0  0  0  0  0  0  0
  150.9267  139.4291  155.2380 C   0  0  0  0  0  0  0  0  0  0  0  0
  150.4158  139.8256  154.1919 O   0  0  0  0  0  0  0  0  0  0  0  0
  151.0189  137.4661  154.6082 H   0  0  0  0  0  0  0  0  0  0  0  0
  151.1771  142.2684  157.2463 H   0  0  0  0  0  0  0  0  0  0  0  0
  149.8676  141.9002  156.1291 H   0  0  0  0  0  0  0  0  0  0  0  0
  151.4922  142.2237  155.5120 H   0  0  0  0  0  0  0  0  0  0  0  0
  152.0575  140.3555  158.3134 H   0  0  0  0  0  0  0  0  0  0  0  0
  151.9393  137.1938  159.3180 H   0  0  0  0  0  0  0  0  0  0  0  0
  154.6313  138.0034  160.8856 H   0  0  0  0  0  0  0  0  0  0  0  0
  155.6053  140.0125  161.2429 H   0  0  0  0  0  0  0  0  0  0  0  0
  156.0993  140.0866  159.5569 H   0  0  0  0  0  0  0  0  0  0  0  0
  153.3526  142.4494  158.3733 H   0  0  0  0  0  0  0  0  0  0  0  0
  152.0233  144.3465  157.5214 H   0  0  0  0  0  0  0  0  0  0  0  0
  150.8798  145.8896  159.1019 H   0  0  0  0  0  0  0  0  0  0  0  0
  151.0720  145.5195  161.5539 H   0  0  0  0  0  0  0  0  0  0  0  0
  152.3930  143.6428  162.4314 H   0  0  0  0  0  0  0  0  0  0  0  0
  155.3272  138.4280  157.9447 H   0  0  0  0  0  0  0  0  0  0  0  0
  156.6912  137.4715  159.9083 H   0  0  0  0  0  0  0  0  0  0  0  0
  153.9679  136.6115  157.3981 H   0  0  0  0  0  0  0  0  0  0  0  0
  154.5899  135.0692  158.8011 H   0  0  0  0  0  0  0  0  0  0  0  0
  1  2  1  0  0  0  0
  1 28  1  0  0  0  0
  1 29  1  0  0  0  0
  1 30  1  0  0  0  0
  2 25  1  0  0  0  0
  2  3  2  0  0  0  0
  3  4  1  0  0  0  0
  3 31  1  0  0  0  0
  4  5  1  0  0  0  0
  4 22  1  0  0  0  0
  5 20  1  0  0  0  0
  5  6  1  0  0  0  0
  5 32  1  0  0  0  0
  6  7  1  0  0  0  0
  7  8  1  0  0  0  0
  7 18  1  0  0  0  0
  7 33  1  0  0  0  0
  8  9  1  0  0  0  0
  8 34  1  0  0  0  0
  8 35  1  0  0  0  0
  9 10  1  0  0  0  0
 10 11  2  0  0  0  0
 10 12  1  0  0  0  0
 12 17  1  0  0  0  0
 12 13  2  0  0  0  0
 13 14  1  0  0  0  0
 13 36  1  0  0  0  0
 14 15  2  0  0  0  0
 14 37  1  0  0  0  0
 15 16  1  0  0  0  0
 15 38  1  0  0  0  0
 16 17  2  0  0  0  0
 16 39  1  0  0  0  0
 17 40  1  0  0  0  0
 18 19  1  0  0  0  0
 18 20  1  0  0  0  0
 18 41  1  0  0  0  0
 19 42  1  0  0  0  0
 20 21  1  0  0  0  0
 20 43  1  0  0  0  0
 21 44  1  0  0  0  0
 22 23  2  0  0  0  0
 22 24  1  0  0  0  0
 24 27  1  0  0  0  0
 24 25  1  0  0  0  0
 25 26  2  0  0  0  0
M  END
> <s_m_source_file>
AV-unprocessed.smi

> <i_m_source_file_index>
101

> <i_lp_mmshare_version>
43012

> <i_f3d_flags>
0

> <s_epik_input>
Tz1jMVtuSF1jKD1PKW4oW2NIXWMxW0NIM10pW0NAQEhdMk9bQ0BIXShbQ0BASF0oW09IXSlbQ0BIXTJbT0hdKVtDSDJdT0MoPU8pYzNbY0hdW2NIXVtjSF1bY0hdW2NIXTM=

> <s_epik_cmdline>
J2VwaWtfcHl0aG9uJywgJy1waCcsICc3LjAnLCAnLXRuJywgJzgnLCAnLW1hJywgJzIwMCcsICctbWV0YWxfYmluZGluZycsICctaW1hZScsICc8aW5maWxlLm1hZT4nLCAnLW9tYWUnLCAnPG91dGZpbGUubWFlPic=

> <r_lp_tautomer_probability>
0.999537

> <r_epik_Ionization_Penalty>
0.00263537

> <r_epik_Ionization_Penalty_Charging>
0.00263428

> <r_epik_Ionization_Penalty_Neutral>
1.09111e-06

> <r_epik_State_Penalty>
0.00183335

> <r_epik_Charging_Adjusted_Penalty>
0.00446763

> <i_epik_Tot_Q>
0

> <i_epik_Tot_abs_Q>
0

> <r_epik_Metal_State_Penalty>
1.00528

> <b_epik_Metal_Only>
0

> <s_epik_Chemistry_Notes>
This compound has an ester and may undergo hydrolysis at high or low pH. This compound contains an acetal/aminal-like group ( X-CH(R)-Y where X, Y are N, S, or O) that may be acid/base labile, releasing an aldehyde.

> <s_lp_Force_Field>
OPLS_2005

> <r_lp_Energy>
35.2309

> <b_lp_Chiralities_Consistent>
1

> <s_lp_Variant>
AV-unprocessed.smi:101-3

> <Gold.Version>
5.8.1

> <Gold.Id.Protein>
6NUR|6NUR_protein|mol2

> <Gold.PLP.Fitness>
54.8296

> <Gold.PLP.PLP>
-48.4614

> <Gold.PLP.part.hbond>
-3.7202

> <Gold.PLP.part.metal>
0.0000

> <Gold.PLP.part.buried>
-7.7165

> <Gold.PLP.part.nonpolar>
-37.5650

> <Gold.PLP.part.repulsive>
0.7045

> <Gold.PLP.ligand.clash>
0.0000

> <Gold.PLP.ligand.torsion>
1.3354

> <Gold.PLP.Chemscore.Hbond>
3.0000

> <Gold.PLP.Chemscore.CHOScore>
0.0000

> <Gold.PLP.Chemscore.Metal>
0.0000

> <Gold.Chemscore.Hbonds>
donor molecule, donor type, donor heavy atom, donor atom, acceptor molecule, acceptor atom, score
      P1  H  6896  6907       L1    21  1.00
      P1  H  7989  7998       L1    26  1.00
      P1  H 10752 10764       L1    23  0.98

> <Gold.PLP.Chemscore.Internal.Correction>
0.0390

> <Gold.Rescore>
     Score         DG    S(hbond)    S(metal)    S(lipo)     H(rot)  DE(clash)    DE(int)     intcor
     15.14     -17.95       2.40        0.00     110.56       3.32       0.01       2.80       ----

> <Gold.Chemscore.Fitness>
15.1398

> <Gold.Chemscore.DG>
-17.9481

> <Gold.Chemscore.ZeroCoef>
-5.4800

> <Gold.Chemscore.Hbond>
2.4026

> <Gold.Chemscore.Metal>
0.0000

> <Gold.Chemscore.Lipo>
110.5595

> <Gold.Chemscore.Internal_Hbond>
0.0000

> <Gold.Chemscore.DEClash>
0.0112

> <Gold.Chemscore.DEInternal>
2.7971

> <Gold.Chemscore.Rot>
3.3172

> <Gold.Chemscore.Internal.Correction>
   9.000000E+99

> <Gold.Chemscore.Hbonds>
donor molecule, donor type, donor heavy atom, donor atom, acceptor molecule, acceptor atom, score
      P1  H  6896  6907       L1    21  0.67
      P1  H  7989  7998       L1    26  0.50
      P1  H 10752 10764       L1    23  0.85

> <Gold.Chemscore.Hbond.Weighted>
-8.0247

> <Gold.Chemscore.Metal.Weighted>
-0.0000

> <Gold.Chemscore.Lipo.Weighted>
-12.9355

> <Gold.Chemscore.Internal_Hbond.Weighted>
0.0000

> <Gold.Chemscore.DEClash.Weighted>
0.0112

> <Gold.Chemscore.DEInternal.Weighted>
2.7971

> <Gold.Chemscore.Rot.Weighted>
8.4920

> <Gold.Chemscore.Internal.Correction.Weighted>
   9.000000E+99

> <Gold.Protein.RotatedTorsions>
[ 6907 6896 6895 6894 ] final   63.94 input  -60.11 | X-H torsion
[ 7974 7965 7964 7962 ] final  113.85 input  175.53 | X-H torsion
[ 8008 7997 7996 7995 ] final   81.10 input   59.86 | X-H torsion
[ 10167 10162 10161 10158 ] final  -27.12 input  -65.29 | X-H torsion
[ 10718 10713 10712 10709 ] final -111.50 input   66.30 | X-H torsion
[ 10763 10752 10751 10750 ] final  -39.03 input  -60.55 | X-H torsion
[ 11005 11000 10999 10996 ] final  -33.31 input  -57.11 | X-H torsion

> <Gold.Protein.ActiveResidues>
 VAL166  LYS551  ARG553  GLY616  TRP617  ASP618  TYR619  PRO620  LYS621  CYS622 
 ASP623  PHE694  ASN695  SER759  ASP760  ASP761  ALA762  ILE779  LEU786  VAL792 
 PHE793  MET794  SER795  GLU796  ALA797  LYS798  CYS799  TRP800  GLU811  SER814 

> <Gold.Protein.RotatedAtoms>
  152.4293  134.5809  159.9947 H   0  0  0  0  0  0  0  0  0  0  0  0  # atno 6907 bound_to 6896
  151.5937  133.3358  159.3041 H   0  0  0  0  0  0  0  0  0  0  0  0  # atno 6908 bound_to 6896
  150.8184  134.7415  159.6816 H   0  0  0  0  0  0  0  0  0  0  0  0  # atno 6909 bound_to 6896
  145.2118  139.2903  143.4264 H   0  0  0  0  0  0  0  0  0  0  0  0  # atno 7974 bound_to 7965
  155.8926  140.3438  155.5967 H   0  0  0  0  0  0  0  0  0  0  0  0  # atno 8008 bound_to 7997
  155.7593  140.0830  157.2182 H   0  0  0  0  0  0  0  0  0  0  0  0  # atno 8009 bound_to 7997
  154.4035  140.1539  156.2801 H   0  0  0  0  0  0  0  0  0  0  0  0  # atno 8010 bound_to 7997
  140.7279  143.4120  151.1090 H   0  0  0  0  0  0  0  0  0  0  0  0  # atno 10167 bound_to 10162
  156.0651  130.5871  150.8382 H   0  0  0  0  0  0  0  0  0  0  0  0  # atno 10718 bound_to 10713
  153.9226  135.6780  153.4747 H   0  0  0  0  0  0  0  0  0  0  0  0  # atno 10763 bound_to 10752
  153.1020  135.4823  154.8882 H   0  0  0  0  0  0  0  0  0  0  0  0  # atno 10764 bound_to 10752
  154.7470  135.3175  154.8584 H   0  0  0  0  0  0  0  0  0  0  0  0  # atno 10765 bound_to 10752
  140.9624  133.7156  156.1391 H   0  0  0  0  0  0  0  0  0  0  0  0  # atno 11005 bound_to 11000
  146.3396  140.2396  142.8595 LP  0  0  0  0  0  0  0  0  0  0  0  0  # atno 17320 bound_to 7965
  144.9849  140.8493  143.5375 LP  0  0  0  0  0  0  0  0  0  0  0  0  # atno 17321 bound_to 7965
  139.7755  143.8432  152.3128 LP  0  0  0  0  0  0  0  0  0  0  0  0  # atno 17342 bound_to 10162
  139.8365  144.7230  150.9385 LP  0  0  0  0  0  0  0  0  0  0  0  0  # atno 17343 bound_to 10162
  157.5686  131.0946  150.9451 LP  0  0  0  0  0  0  0  0  0  0  0  0  # atno 17370 bound_to 10713
  156.9672  130.5477  149.5288 LP  0  0  0  0  0  0  0  0  0  0  0  0  # atno 17371 bound_to 10713
  140.7447  134.4111  157.5550 LP  0  0  0  0  0  0  0  0  0  0  0  0  # atno 17394 bound_to 11000
  139.8883  134.8860  156.2483 LP  0  0  0  0  0  0  0  0  0  0  0  0  # atno 17395 bound_to 11000

$$$$
