AV-unprocessed.smi:2886|AV-procd|sdf|11097|dock7
  -GOLD-   2272015563D 1   1.00000     0.00000
 Structure written by MMmdl.
 27 29  0  0  0  0  0  0  0  0  2 V2000
  152.3380  136.9820  155.8461 O   0  0  0  0  0  0  0  0  0  0  0  0
  151.8436  138.1052  155.7644 C   0  0  0  0  0  0  0  0  0  0  0  0
  151.2975  138.5774  154.6029 N   0  5  0  0  0  0  0  0  0  0  0  0
  150.7180  139.9015  154.5588 N   0  0  0  0  0  0  0  0  0  0  0  0
  150.7138  140.6514  155.5892 C   0  0  0  0  0  0  0  0  0  0  0  0
  151.2989  140.2256  156.8843 C   0  0  0  0  0  0  0  0  0  0  0  0
  151.2937  141.0424  158.0080 N   0  0  0  0  0  0  0  0  0  0  0  0
  150.7563  142.3884  158.1518 C   0  0  2  0  0  0  0  0  0  0  0  0
  151.2854  143.3614  157.0969 C   0  0  0  0  0  0  0  0  0  0  0  0
  151.8288  144.5004  157.9719 C   0  0  2  0  0  0  0  0  0  0  0  0
  153.1514  144.1112  158.6446 C   0  0  0  0  0  0  0  0  0  0  0  0
  152.6806  143.1152  159.7028 C   0  0  0  0  0  0  0  0  0  0  0  0
  151.1620  143.0872  159.4610 C   0  0  1  0  0  0  0  0  0  0  0  0
  150.9481  144.4369  159.0824 O   0  0  0  0  0  0  0  0  0  0  0  0
  151.8340  138.9798  156.9434 C   0  0  0  0  0  0  0  0  0  0  0  0
  152.5294  138.3863  158.4165 Cl  0  0  0  0  0  0  0  0  0  0  0  0
  150.2681  141.6483  155.5607 H   0  0  0  0  0  0  0  0  0  0  0  0
  151.8433  140.7228  158.7926 H   0  0  0  0  0  0  0  0  0  0  0  0
  149.6693  142.3685  158.0744 H   0  0  0  0  0  0  0  0  0  0  0  0
  152.0573  142.9360  156.4538 H   0  0  0  0  0  0  0  0  0  0  0  0
  150.4705  143.7106  156.4620 H   0  0  0  0  0  0  0  0  0  0  0  0
  151.8556  145.4688  157.4718 H   0  0  0  0  0  0  0  0  0  0  0  0
  153.8643  143.6784  157.9420 H   0  0  0  0  0  0  0  0  0  0  0  0
  153.6177  144.9770  159.1158 H   0  0  0  0  0  0  0  0  0  0  0  0
  153.1477  142.1350  159.6042 H   0  0  0  0  0  0  0  0  0  0  0  0
  152.9017  143.4926  160.7018 H   0  0  0  0  0  0  0  0  0  0  0  0
  150.5826  142.7674  160.3276 H   0  0  0  0  0  0  0  0  0  0  0  0
  1  2  2  0  0  0  0
  2 15  1  0  0  0  0
  2  3  1  0  0  0  0
  3  4  1  0  0  0  0
  4  5  2  0  0  0  0
  5  6  1  0  0  0  0
  5 17  1  0  0  0  0
  6  7  1  0  0  0  0
  6 15  2  0  0  0  0
  7  8  1  0  0  0  0
  7 18  1  0  0  0  0
  8 13  1  0  0  0  0
  8  9  1  0  0  0  0
  8 19  1  0  0  0  0
  9 10  1  0  0  0  0
  9 20  1  0  0  0  0
  9 21  1  0  0  0  0
 10 14  1  0  0  0  0
 10 11  1  0  0  0  0
 10 22  1  0  0  0  0
 11 12  1  0  0  0  0
 11 23  1  0  0  0  0
 11 24  1  0  0  0  0
 12 13  1  0  0  0  0
 12 25  1  0  0  0  0
 12 26  1  0  0  0  0
 13 14  1  0  0  0  0
 13 27  1  0  0  0  0
 15 16  1  0  0  0  0
M  CHG  1   3  -1
M  END
> <s_m_source_file>
AV-unprocessed.smi

> <i_m_source_file_index>
2886

> <i_lp_mmshare_version>
43012

> <i_f3d_flags>
0

> <s_epik_input>
Tz1jMVtuSF1uW2NIXWMoYzFDbClbTkhdW0NASF0oW0NIMl1bQ0BASF0yMylbQ0BASF0oTzMpW0NIMl1bQ0gyXTI=

> <s_epik_cmdline>
J2VwaWtfcHl0aG9uJywgJy1waCcsICc3LjAnLCAnLXRuJywgJzgnLCAnLW1hJywgJzIwMCcsICctbWV0YWxfYmluZGluZycsICctaW1hZScsICc8aW5maWxlLm1hZT4nLCAnLW9tYWUnLCAnPG91dGZpbGUubWFlPic=

> <r_lp_tautomer_probability>
0.986175

> <r_epik_Ionization_Penalty>
3.84253

> <r_epik_Ionization_Penalty_Charging>
0.0129711

> <r_epik_Ionization_Penalty_Neutral>
3.82956

> <r_epik_State_Penalty>
3.8249

> <r_epik_Charging_Adjusted_Penalty>
3.83787

> <i_epik_Tot_Q>
-1

> <i_epik_Tot_abs_Q>
1

> <r_epik_Metal_State_Penalty>
0.57612

> <b_epik_Metal_Only>
1

> <s_lp_Force_Field>
OPLS_2005

> <r_lp_Energy>
60.9826

> <b_lp_Chiralities_Consistent>
1

> <s_lp_Variant>
AV-unprocessed.smi:2886-11

> <Gold.Version>
5.8.1

> <Gold.Id.Protein>
6NUR|6NUR_protein|mol2

> <Gold.PLP.Fitness>
34.2606

> <Gold.PLP.PLP>
-28.6248

> <Gold.PLP.part.hbond>
-2.0000

> <Gold.PLP.part.metal>
0.0000

> <Gold.PLP.part.buried>
-3.8360

> <Gold.PLP.part.nonpolar>
-23.2736

> <Gold.PLP.part.repulsive>
0.4497

> <Gold.PLP.ligand.clash>
0.0000

> <Gold.PLP.ligand.torsion>
0.0787

> <Gold.PLP.Chemscore.Hbond>
1.9280

> <Gold.PLP.Chemscore.CHOScore>
0.0000

> <Gold.PLP.Chemscore.Metal>
0.0000

> <Gold.Chemscore.Hbonds>
donor molecule, donor type, donor heavy atom, donor atom, acceptor molecule, acceptor atom, score
      P1  H  7989  7998       L1     4  1.00
      P1  H 10752 10765       L1     1  0.91

> <Gold.PLP.Chemscore.Internal.Correction>
0.0091

> <Gold.Rescore>
     Score         DG    S(hbond)    S(metal)    S(lipo)     H(rot)  DE(clash)    DE(int)     intcor
     18.32     -18.43       1.60        0.00      86.99       1.00       0.03       0.08       ----

> <Gold.Chemscore.Fitness>
18.3174

> <Gold.Chemscore.DG>
-18.4306

> <Gold.Chemscore.ZeroCoef>
-5.4800

> <Gold.Chemscore.Hbond>
1.5968

> <Gold.Chemscore.Metal>
0.0000

> <Gold.Chemscore.Lipo>
86.9861

> <Gold.Chemscore.Internal_Hbond>
0.0000

> <Gold.Chemscore.DEClash>
0.0282

> <Gold.Chemscore.DEInternal>
0.0849

> <Gold.Chemscore.Rot>
1.0000

> <Gold.Chemscore.Internal.Correction>
   9.000000E+99

> <Gold.Chemscore.Hbonds>
donor molecule, donor type, donor heavy atom, donor atom, acceptor molecule, acceptor atom, score
      P1  H  7989  7998       L1     4  0.18
      P1  H 10752 10765       L1     1  0.90

> <Gold.Chemscore.Hbond.Weighted>
-5.3332

> <Gold.Chemscore.Metal.Weighted>
-0.0000

> <Gold.Chemscore.Lipo.Weighted>
-10.1774

> <Gold.Chemscore.Internal_Hbond.Weighted>
0.0000

> <Gold.Chemscore.DEClash.Weighted>
0.0282

> <Gold.Chemscore.DEInternal.Weighted>
0.0849

> <Gold.Chemscore.Rot.Weighted>
2.5600

> <Gold.Chemscore.Internal.Correction.Weighted>
   9.000000E+99

> <Gold.Protein.RotatedTorsions>
[ 6907 6896 6895 6894 ] final   77.19 input  -60.11 | X-H torsion
[ 7974 7965 7964 7962 ] final  -30.69 input  175.53 | X-H torsion
[ 8008 7997 7996 7995 ] final  -26.32 input   59.86 | X-H torsion
[ 10167 10162 10161 10158 ] final   -2.49 input  -65.29 | X-H torsion
[ 10718 10713 10712 10709 ] final  146.89 input   66.30 | X-H torsion
[ 10763 10752 10751 10750 ] final -157.36 input  -60.55 | X-H torsion
[ 11005 11000 10999 10996 ] final  -61.10 input  -57.11 | X-H torsion

> <Gold.Protein.ActiveResidues>
 VAL166  LYS551  ARG553  GLY616  TRP617  ASP618  TYR619  PRO620  LYS621  CYS622 
 ASP623  PHE694  ASN695  SER759  ASP760  ASP761  ALA762  ILE779  LEU786  VAL792 
 PHE793  MET794  SER795  GLU796  ALA797  LYS798  CYS799  TRP800  GLU811  SER814 

> <Gold.Protein.RotatedAtoms>
  152.5107  134.3854  159.9365 H   0  0  0  0  0  0  0  0  0  0  0  0  # atno 6907 bound_to 6896
  151.3812  133.3814  159.2718 H   0  0  0  0  0  0  0  0  0  0  0  0  # atno 6908 bound_to 6896
  150.9503  134.8924  159.7726 H   0  0  0  0  0  0  0  0  0  0  0  0  # atno 6909 bound_to 6896
  146.1124  140.5572  142.8772 H   0  0  0  0  0  0  0  0  0  0  0  0  # atno 7974 bound_to 7965
  154.4431  140.1903  156.0756 H   0  0  0  0  0  0  0  0  0  0  0  0  # atno 8008 bound_to 7997
  156.0478  140.3312  155.7289 H   0  0  0  0  0  0  0  0  0  0  0  0  # atno 8009 bound_to 7997
  155.5603  140.0603  157.2821 H   0  0  0  0  0  0  0  0  0  0  0  0  # atno 8010 bound_to 7997
  140.6853  143.6651  150.8233 H   0  0  0  0  0  0  0  0  0  0  0  0  # atno 10167 bound_to 10162
  157.3277  131.0915  151.1188 H   0  0  0  0  0  0  0  0  0  0  0  0  # atno 10718 bound_to 10713
  154.7642  135.3126  154.8318 H   0  0  0  0  0  0  0  0  0  0  0  0  # atno 10763 bound_to 10752
  153.9071  135.6809  153.4757 H   0  0  0  0  0  0  0  0  0  0  0  0  # atno 10764 bound_to 10752
  153.1246  135.4807  154.9184 H   0  0  0  0  0  0  0  0  0  0  0  0  # atno 10765 bound_to 10752
  141.1312  133.6627  156.5324 H   0  0  0  0  0  0  0  0  0  0  0  0  # atno 11005 bound_to 11000
  144.7523  140.5221  143.6793 LP  0  0  0  0  0  0  0  0  0  0  0  0  # atno 17320 bound_to 7965
  145.5637  139.1480  143.3327 LP  0  0  0  0  0  0  0  0  0  0  0  0  # atno 17321 bound_to 7965
  140.0357  143.5398  152.2740 LP  0  0  0  0  0  0  0  0  0  0  0  0  # atno 17342 bound_to 10162
  139.6207  144.7628  151.2748 LP  0  0  0  0  0  0  0  0  0  0  0  0  # atno 17343 bound_to 10162
  157.2449  130.6586  149.5906 LP  0  0  0  0  0  0  0  0  0  0  0  0  # atno 17370 bound_to 10713
  155.9692  130.4557  150.5896 LP  0  0  0  0  0  0  0  0  0  0  0  0  # atno 17371 bound_to 10713
  140.4205  134.7192  157.4887 LP  0  0  0  0  0  0  0  0  0  0  0  0  # atno 17394 bound_to 11000
  140.0363  134.6332  155.9039 LP  0  0  0  0  0  0  0  0  0  0  0  0  # atno 17395 bound_to 11000

$$$$
