AV-unprocessed.smi:2034|AV-procd|sdf|8267|dock2
  -GOLD-   2272010543D 1   1.00000     0.00000
 Structure written by MMmdl.
 50 52  0  0  0  0  0  0  0  0  1 V2000
  152.7634  144.9647  158.1905 C   0  0  0  0  0  0  0  0  0  0  0  0
  151.7866  144.1667  159.0724 C   0  0  1  0  0  0  0  0  0  0  0  0
  150.8904  143.2007  158.2734 C   0  0  0  0  0  0  0  0  0  0  0  0
  151.6312  142.0104  157.8593 N   0  0  0  0  0  0  0  0  0  0  0  0
  151.0316  141.2142  156.8578 C   0  0  0  0  0  0  0  0  0  0  0  0
  151.7567  140.2296  156.1405 C   0  0  0  0  0  0  0  0  0  0  0  0
  151.1005  139.4762  155.1482 C   0  0  0  0  0  0  0  0  0  0  0  0
  149.7308  139.7180  154.8963 C   0  0  0  0  0  0  0  0  0  0  0  0
  148.9692  139.0414  153.9059 N   0  0  0  0  0  0  0  0  0  0  0  0
  147.6472  139.1165  153.6762 C   0  0  0  0  0  0  0  0  0  0  0  0
  146.8650  139.8615  154.2667 O   0  0  0  0  0  0  0  0  0  0  0  0
  147.2784  138.2827  152.6936 N   0  0  0  0  0  0  0  0  0  0  0  0
  145.9135  138.1082  152.2098 C   0  0  0  0  0  0  0  0  0  0  0  0
  145.3694  136.7097  152.5465 C   0  0  2  0  0  0  0  0  0  0  0  0
  145.2015  135.8084  151.3233 C   0  0  0  0  0  0  0  0  0  0  0  0
  144.1224  134.8571  151.7871 C   0  0  0  0  0  0  0  0  0  0  0  0
  143.2128  135.7920  152.5762 C   0  0  0  0  0  0  0  0  0  0  0  0
  144.0687  136.7883  153.1282 O   0  0  0  0  0  0  0  0  0  0  0  0
  149.0982  140.7266  155.6484 C   0  0  0  0  0  0  0  0  0  0  0  0
  149.7222  141.4491  156.6017 N   0  0  0  0  0  0  0  0  0  0  0  0
  152.3410  141.3505  158.9497 C   0  0  0  0  0  0  0  0  0  0  0  0
  153.2350  142.3541  159.6995 C   0  0  2  0  0  0  0  0  0  0  0  0
  153.8826  141.7260  160.9379 C   0  0  0  0  0  0  0  0  0  0  0  0
  152.4535  143.4685  160.1260 O   0  0  0  0  0  0  0  0  0  0  0  0
  152.2196  145.5939  157.4859 H   0  0  0  0  0  0  0  0  0  0  0  0
  153.4165  144.3179  157.6056 H   0  0  0  0  0  0  0  0  0  0  0  0
  153.3912  145.6170  158.7976 H   0  0  0  0  0  0  0  0  0  0  0  0
  151.1366  144.8954  159.5572 H   0  0  0  0  0  0  0  0  0  0  0  0
  150.0543  142.8787  158.8952 H   0  0  0  0  0  0  0  0  0  0  0  0
  150.4614  143.7320  157.4241 H   0  0  0  0  0  0  0  0  0  0  0  0
  152.7999  140.0304  156.3316 H   0  0  0  0  0  0  0  0  0  0  0  0
  151.6638  138.7416  154.5938 H   0  0  0  0  0  0  0  0  0  0  0  0
  149.4993  138.4598  153.2737 H   0  0  0  0  0  0  0  0  0  0  0  0
  147.9903  137.7130  152.2602 H   0  0  0  0  0  0  0  0  0  0  0  0
  145.2569  138.8845  152.6066 H   0  0  0  0  0  0  0  0  0  0  0  0
  145.9295  138.2418  151.1279 H   0  0  0  0  0  0  0  0  0  0  0  0
  146.0252  136.2124  153.2634 H   0  0  0  0  0  0  0  0  0  0  0  0
  144.8459  136.3829  150.4664 H   0  0  0  0  0  0  0  0  0  0  0  0
  146.1247  135.3035  151.0375 H   0  0  0  0  0  0  0  0  0  0  0  0
  143.6098  134.3523  150.9678 H   0  0  0  0  0  0  0  0  0  0  0  0
  144.5476  134.0988  152.4461 H   0  0  0  0  0  0  0  0  0  0  0  0
  142.4999  136.2804  151.9108 H   0  0  0  0  0  0  0  0  0  0  0  0
  142.6514  135.2723  153.3527 H   0  0  0  0  0  0  0  0  0  0  0  0
  148.0562  140.9609  155.4854 H   0  0  0  0  0  0  0  0  0  0  0  0
  151.6149  140.9050  159.6312 H   0  0  0  0  0  0  0  0  0  0  0  0
  152.9673  140.5464  158.5620 H   0  0  0  0  0  0  0  0  0  0  0  0
  154.0333  142.6956  159.0405 H   0  0  0  0  0  0  0  0  0  0  0  0
  154.5035  140.8724  160.6652 H   0  0  0  0  0  0  0  0  0  0  0  0
  153.1284  141.3795  161.6451 H   0  0  0  0  0  0  0  0  0  0  0  0
  154.5171  142.4466  161.4540 H   0  0  0  0  0  0  0  0  0  0  0  0
  1  2  1  0  0  0  0
  1 25  1  0  0  0  0
  1 26  1  0  0  0  0
  1 27  1  0  0  0  0
  2 24  1  0  0  0  0
  2  3  1  0  0  0  0
  2 28  1  0  0  0  0
  3  4  1  0  0  0  0
  3 29  1  0  0  0  0
  3 30  1  0  0  0  0
  4  5  1  0  0  0  0
  4 21  1  0  0  0  0
  5 20  1  0  0  0  0
  5  6  2  0  0  0  0
  6  7  1  0  0  0  0
  6 31  1  0  0  0  0
  7  8  2  0  0  0  0
  7 32  1  0  0  0  0
  8  9  1  0  0  0  0
  8 19  1  0  0  0  0
  9 10  1  0  0  0  0
  9 33  1  0  0  0  0
 10 11  2  0  0  0  0
 10 12  1  0  0  0  0
 12 13  1  0  0  0  0
 12 34  1  0  0  0  0
 13 14  1  0  0  0  0
 13 35  1  0  0  0  0
 13 36  1  0  0  0  0
 14 18  1  0  0  0  0
 14 15  1  0  0  0  0
 14 37  1  0  0  0  0
 15 16  1  0  0  0  0
 15 38  1  0  0  0  0
 15 39  1  0  0  0  0
 16 17  1  0  0  0  0
 16 40  1  0  0  0  0
 16 41  1  0  0  0  0
 17 18  1  0  0  0  0
 17 42  1  0  0  0  0
 17 43  1  0  0  0  0
 19 20  2  0  0  0  0
 19 44  1  0  0  0  0
 21 22  1  0  0  0  0
 21 45  1  0  0  0  0
 21 46  1  0  0  0  0
 22 23  1  0  0  0  0
 22 24  1  0  0  0  0
 22 47  1  0  0  0  0
 23 48  1  0  0  0  0
 23 49  1  0  0  0  0
 23 50  1  0  0  0  0
M  END
> <s_m_source_file>
AV-unprocessed.smi

> <i_m_source_file_index>
2034

> <i_lp_mmshare_version>
43012

> <i_f3d_flags>
0

> <s_epik_input>
W0NIM11bQ0BASF0xW0NIMl1OKFtDSDJdW0NASF0oTzEpW0NIM10pYzJbY0hdW2NIXWMoW2NIXW4yKVtOSF1DKD1PKVtOSF1bQ0gyXVtDQEBIXTNbQ0gyXVtDSDJdW0NIMl1PMw==

> <s_epik_cmdline>
J2VwaWtfcHl0aG9uJywgJy1waCcsICc3LjAnLCAnLXRuJywgJzgnLCAnLW1hJywgJzIwMCcsICctbWV0YWxfYmluZGluZycsICctaW1hZScsICc8aW5maWxlLm1hZT4nLCAnLW9tYWUnLCAnPG91dGZpbGUubWFlPic=

> <r_lp_tautomer_probability>
1

> <r_epik_Ionization_Penalty>
0.00268225

> <r_epik_Ionization_Penalty_Charging>
0

> <r_epik_Ionization_Penalty_Neutral>
0.00268225

> <r_epik_State_Penalty>
0.00184408

> <r_epik_Charging_Adjusted_Penalty>
0.00184408

> <i_epik_Tot_Q>
0

> <i_epik_Tot_abs_Q>
0

> <r_epik_Metal_State_Penalty>
-0

> <b_epik_Metal_Only>
0

> <s_lp_Force_Field>
OPLS_2005

> <r_lp_Energy>
36.2022

> <b_lp_Chiralities_Consistent>
1

> <s_lp_Variant>
AV-unprocessed.smi:2034-5

> <Gold.Version>
5.8.1

> <Gold.Id.Protein>
6NUR|6NUR_protein|mol2

> <Gold.PLP.Fitness>
51.4550

> <Gold.PLP.PLP>
-50.0526

> <Gold.PLP.part.hbond>
-3.0565

> <Gold.PLP.part.metal>
0.0000

> <Gold.PLP.part.buried>
-4.7790

> <Gold.PLP.part.nonpolar>
-43.9000

> <Gold.PLP.part.repulsive>
0.6041

> <Gold.PLP.ligand.clash>
0.0000

> <Gold.PLP.ligand.torsion>
0.9645

> <Gold.PLP.Chemscore.Hbond>
0.9600

> <Gold.PLP.Chemscore.CHOScore>
0.0000

> <Gold.PLP.Chemscore.Metal>
0.0000

> <Gold.Chemscore.Hbonds>
donor molecule, donor type, donor heavy atom, donor atom, acceptor molecule, acceptor atom, score
      L1  H    12    34       P1  7948  1.00

> <Gold.PLP.Chemscore.Internal.Correction>
0.4515

> <Gold.Rescore>
     Score         DG    S(hbond)    S(metal)    S(lipo)     H(rot)  DE(clash)    DE(int)     intcor
     16.37     -19.11       0.94        0.00     119.49       1.37       0.18       2.56       ----

> <Gold.Chemscore.Fitness>
16.3692

> <Gold.Chemscore.DG>
-19.1132

> <Gold.Chemscore.ZeroCoef>
-5.4800

> <Gold.Chemscore.Hbond>
0.9432

> <Gold.Chemscore.Metal>
0.0000

> <Gold.Chemscore.Lipo>
119.4935

> <Gold.Chemscore.Internal_Hbond>
0.0000

> <Gold.Chemscore.DEClash>
0.1841

> <Gold.Chemscore.DEInternal>
2.5599

> <Gold.Chemscore.Rot>
1.3663

> <Gold.Chemscore.Internal.Correction>
   9.000000E+99

> <Gold.Chemscore.Hbonds>
donor molecule, donor type, donor heavy atom, donor atom, acceptor molecule, acceptor atom, score
      L1  H    12    34       P1  7948  1.00

> <Gold.Chemscore.Hbond.Weighted>
-3.1502

> <Gold.Chemscore.Metal.Weighted>
-0.0000

> <Gold.Chemscore.Lipo.Weighted>
-13.9807

> <Gold.Chemscore.Internal_Hbond.Weighted>
0.0000

> <Gold.Chemscore.DEClash.Weighted>
0.1841

> <Gold.Chemscore.DEInternal.Weighted>
2.5599

> <Gold.Chemscore.Rot.Weighted>
3.4977

> <Gold.Chemscore.Internal.Correction.Weighted>
   9.000000E+99

> <Gold.Protein.RotatedTorsions>
[ 6907 6896 6895 6894 ] final  142.02 input  -60.11 | X-H torsion
[ 7974 7965 7964 7962 ] final   45.46 input  175.53 | X-H torsion
[ 8008 7997 7996 7995 ] final -125.02 input   59.86 | X-H torsion
[ 10167 10162 10161 10158 ] final    6.07 input  -65.29 | X-H torsion
[ 10718 10713 10712 10709 ] final   24.41 input   66.30 | X-H torsion
[ 10763 10752 10751 10750 ] final  -26.39 input  -60.55 | X-H torsion
[ 11005 11000 10999 10996 ] final  -84.10 input  -57.11 | X-H torsion

> <Gold.Protein.ActiveResidues>
 VAL166  LYS551  ARG553  GLY616  TRP617  ASP618  TYR619  PRO620  LYS621  CYS622 
 ASP623  PHE694  ASN695  SER759  ASP760  ASP761  ALA762  ILE779  LEU786  VAL792 
 PHE793  MET794  SER795  GLU796  ALA797  LYS798  CYS799  TRP800  GLU811  SER814 

> <Gold.Protein.RotatedAtoms>
  152.2238  133.5004  159.5176 H   0  0  0  0  0  0  0  0  0  0  0  0  # atno 6907 bound_to 6896
  150.7019  134.1307  159.4078 H   0  0  0  0  0  0  0  0  0  0  0  0  # atno 6908 bound_to 6896
  151.9228  135.0290  160.0574 H   0  0  0  0  0  0  0  0  0  0  0  0  # atno 6909 bound_to 6896
  146.0478  139.4962  142.9737 H   0  0  0  0  0  0  0  0  0  0  0  0  # atno 7974 bound_to 7965
  155.2064  140.0417  157.2926 H   0  0  0  0  0  0  0  0  0  0  0  0  # atno 8008 bound_to 7997
  154.6040  140.2459  155.7726 H   0  0  0  0  0  0  0  0  0  0  0  0  # atno 8009 bound_to 7997
  156.2339  140.2928  156.0269 H   0  0  0  0  0  0  0  0  0  0  0  0  # atno 8010 bound_to 7997
  140.6448  143.7688  150.7482 H   0  0  0  0  0  0  0  0  0  0  0  0  # atno 10167 bound_to 10162
  157.1794  130.6796  149.6107 H   0  0  0  0  0  0  0  0  0  0  0  0  # atno 10718 bound_to 10713
  153.7151  135.6948  153.5027 H   0  0  0  0  0  0  0  0  0  0  0  0  # atno 10763 bound_to 10752
  153.2244  135.4359  155.0524 H   0  0  0  0  0  0  0  0  0  0  0  0  # atno 10764 bound_to 10752
  154.8302  135.3468  154.6687 H   0  0  0  0  0  0  0  0  0  0  0  0  # atno 10765 bound_to 10752
  141.1653  133.7328  156.8818 H   0  0  0  0  0  0  0  0  0  0  0  0  # atno 11005 bound_to 11000
  145.6776  141.0200  143.1624 LP  0  0  0  0  0  0  0  0  0  0  0  0  # atno 17320 bound_to 7965
  144.7107  139.8383  143.7415 LP  0  0  0  0  0  0  0  0  0  0  0  0  # atno 17321 bound_to 7965
  140.1327  143.4511  152.2244 LP  0  0  0  0  0  0  0  0  0  0  0  0  # atno 17342 bound_to 10162
  139.5658  144.7434  151.4027 LP  0  0  0  0  0  0  0  0  0  0  0  0  # atno 17343 bound_to 10162
  155.9726  130.4652  150.6244 LP  0  0  0  0  0  0  0  0  0  0  0  0  # atno 17370 bound_to 10713
  157.3967  131.0804  151.1346 LP  0  0  0  0  0  0  0  0  0  0  0  0  # atno 17371 bound_to 10713
  140.1710  134.9100  157.2833 LP  0  0  0  0  0  0  0  0  0  0  0  0  # atno 17394 bound_to 11000
  140.2502  134.3692  155.7445 LP  0  0  0  0  0  0  0  0  0  0  0  0  # atno 17395 bound_to 11000

$$$$
