AV-unprocessed.smi:3193|AV-procd|sdf|12207|dock5
  -GOLD-   2272018 43D 1   1.00000     0.00000
 Structure written by MMmdl.
 41 42  0  0  0  0  0  0  0  0  3 V2000
  152.4673  144.8916  157.7223 C   0  0  0  0  0  0  0  0  0  0  0  0
  151.2516  144.4103  158.5406 C   0  0  2  0  0  0  0  0  0  0  0  0
  151.1966  145.0879  159.9263 C   0  0  0  0  0  0  0  0  0  0  0  0
  152.2697  144.5463  160.8858 C   0  0  0  0  0  0  0  0  0  0  0  0
  152.1752  143.0197  161.0197 C   0  0  0  0  0  0  0  0  0  0  0  0
  152.2392  142.3291  159.6479 C   0  0  0  0  0  0  0  0  0  0  0  0
  151.1530  142.8679  158.6894 C   0  0  2  0  0  0  0  0  0  0  0  0
  151.1567  142.1402  157.3298 C   0  0  0  0  0  0  0  0  0  0  0  0
  149.8681  142.2941  156.6252 N   0  3  0  0  0  0  0  0  0  0  0  0
  149.7781  141.5252  155.3669 C   0  0  0  0  0  0  0  0  0  0  0  0
  148.3622  141.5681  154.7680 C   0  0  0  0  0  0  0  0  0  0  0  0
  148.0246  140.3568  154.0113 N   0  0  0  0  0  0  0  0  0  0  0  0
  146.8818  140.1183  153.2906 C   0  0  0  0  0  0  0  0  0  0  0  0
  147.0184  138.8694  152.7414 C   0  0  0  0  0  0  0  0  0  0  0  0
  148.2408  138.4014  153.1422 N   0  3  0  0  0  0  0  0  0  0  0  0
  148.8535  139.3086  153.9100 C   0  0  0  0  0  0  0  0  0  0  0  0
  153.4120  144.5661  158.1567 H   0  0  0  0  0  0  0  0  0  0  0  0
  152.4914  145.9802  157.6688 H   0  0  0  0  0  0  0  0  0  0  0  0
  152.4310  144.5264  156.6962 H   0  0  0  0  0  0  0  0  0  0  0  0
  150.3676  144.7425  157.9943 H   0  0  0  0  0  0  0  0  0  0  0  0
  151.3008  146.1686  159.8233 H   0  0  0  0  0  0  0  0  0  0  0  0
  150.2124  144.9232  160.3668 H   0  0  0  0  0  0  0  0  0  0  0  0
  153.2625  144.8238  160.5307 H   0  0  0  0  0  0  0  0  0  0  0  0
  152.1571  145.0110  161.8657 H   0  0  0  0  0  0  0  0  0  0  0  0
  152.9788  142.6529  161.6590 H   0  0  0  0  0  0  0  0  0  0  0  0
  151.2412  142.7560  161.5173 H   0  0  0  0  0  0  0  0  0  0  0  0
  153.2293  142.4685  159.2131 H   0  0  0  0  0  0  0  0  0  0  0  0
  152.1206  141.2545  159.7888 H   0  0  0  0  0  0  0  0  0  0  0  0
  150.1855  142.6666  159.1534 H   0  0  0  0  0  0  0  0  0  0  0  0
  151.9450  142.5475  156.6950 H   0  0  0  0  0  0  0  0  0  0  0  0
  151.3683  141.0786  157.4642 H   0  0  0  0  0  0  0  0  0  0  0  0
  149.1309  141.9884  157.2443 H   0  0  0  0  0  0  0  0  0  0  0  0
  150.5069  141.9067  154.6504 H   0  0  0  0  0  0  0  0  0  0  0  0
  150.0495  140.4887  155.5716 H   0  0  0  0  0  0  0  0  0  0  0  0
  147.6240  141.6651  155.5650 H   0  0  0  0  0  0  0  0  0  0  0  0
  148.2426  142.4372  154.1189 H   0  0  0  0  0  0  0  0  0  0  0  0
  146.0765  140.8357  153.2206 H   0  0  0  0  0  0  0  0  0  0  0  0
  146.3575  138.2954  152.1077 H   0  0  0  0  0  0  0  0  0  0  0  0
  149.8277  139.2115  154.3558 H   0  0  0  0  0  0  0  0  0  0  0  0
  149.7336  143.2735  156.4184 H   0  0  0  0  0  0  0  0  0  0  0  0
  148.6313  137.5023  152.8871 H   0  0  0  0  0  0  0  0  0  0  0  0
  1  2  1  0  0  0  0
  1 17  1  0  0  0  0
  1 18  1  0  0  0  0
  1 19  1  0  0  0  0
  2  7  1  0  0  0  0
  2  3  1  0  0  0  0
  2 20  1  0  0  0  0
  3  4  1  0  0  0  0
  3 21  1  0  0  0  0
  3 22  1  0  0  0  0
  4  5  1  0  0  0  0
  4 23  1  0  0  0  0
  4 24  1  0  0  0  0
  5  6  1  0  0  0  0
  5 25  1  0  0  0  0
  5 26  1  0  0  0  0
  6  7  1  0  0  0  0
  6 27  1  0  0  0  0
  6 28  1  0  0  0  0
  7  8  1  0  0  0  0
  7 29  1  0  0  0  0
  8  9  1  0  0  0  0
  8 30  1  0  0  0  0
  8 31  1  0  0  0  0
  9 10  1  0  0  0  0
  9 32  1  0  0  0  0
  9 40  1  0  0  0  0
 10 11  1  0  0  0  0
 10 33  1  0  0  0  0
 10 34  1  0  0  0  0
 11 12  1  0  0  0  0
 11 35  1  0  0  0  0
 11 36  1  0  0  0  0
 12 16  1  0  0  0  0
 12 13  1  0  0  0  0
 13 14  2  0  0  0  0
 13 37  1  0  0  0  0
 14 15  1  0  0  0  0
 14 38  1  0  0  0  0
 15 16  2  0  0  0  0
 15 41  1  0  0  0  0
 16 39  1  0  0  0  0
M  CHG  1   9   1
M  CHG  1  15   1
M  END
> <s_m_source_file>
AV-unprocessed.smi

> <i_m_source_file_index>
3193

> <i_lp_mmshare_version>
43012

> <i_f3d_flags>
0

> <s_epik_input>
W0NIM11bQ0BASF0xW0NIMl1bQ0gyXVtDSDJdW0NIMl1bQ0BIXTFbQ0gyXVtOSF1bQ0gyXVtDSDJdbjJbY0hdW2NIXW5bY0hdMg==

> <s_epik_cmdline>
J2VwaWtfcHl0aG9uJywgJy1waCcsICc3LjAnLCAnLXRuJywgJzgnLCAnLW1hJywgJzIwMCcsICctbWV0YWxfYmluZGluZycsICctaW1hZScsICc8aW5maWxlLm1hZT4nLCAnLW9tYWUnLCAnPG91dGZpbGUubWFlPic=

> <r_lp_tautomer_probability>
1

> <r_epik_Ionization_Penalty>
1.50262

> <r_epik_Ionization_Penalty_Charging>
0.00193432

> <r_epik_Ionization_Penalty_Neutral>
1.50068

> <r_epik_State_Penalty>
1.11854

> <r_epik_Charging_Adjusted_Penalty>
1.12048

> <i_epik_Tot_Q>
2

> <i_epik_Tot_abs_Q>
2

> <r_epik_Metal_State_Penalty>
5.11322

> <b_epik_Metal_Only>
0

> <s_lp_Force_Field>
OPLS_2005

> <r_lp_Energy>
29.0126

> <b_lp_Chiralities_Consistent>
1

> <s_lp_Variant>
AV-unprocessed.smi:3193-7

> <Gold.Version>
5.8.1

> <Gold.Id.Protein>
6NUR|6NUR_protein|mol2

> <Gold.PLP.Fitness>
55.1899

> <Gold.PLP.PLP>
-40.9559

> <Gold.PLP.part.hbond>
-3.0000

> <Gold.PLP.part.metal>
0.0000

> <Gold.PLP.part.buried>
-2.7561

> <Gold.PLP.part.nonpolar>
-36.4875

> <Gold.PLP.part.repulsive>
0.1018

> <Gold.PLP.ligand.clash>
0.0000

> <Gold.PLP.ligand.torsion>
0.3700

> <Gold.PLP.Chemscore.Hbond>
4.0000

> <Gold.PLP.Chemscore.CHOScore>
0.9681

> <Gold.PLP.Chemscore.Metal>
0.0000

> <Gold.Chemscore.Hbonds>
donor molecule, donor type, donor heavy atom, donor atom, acceptor molecule, acceptor atom, score
      L1  H     9    40       P1  8028  2.00
      L1  H    15    41       P1  7948  2.00
      L1  C    13    37       P1 10175  0.99

> <Gold.PLP.Chemscore.Internal.Correction>
0.0698

> <Gold.Rescore>
     Score         DG    S(hbond)    S(metal)    S(lipo)     H(rot)  DE(clash)    DE(int)     intcor
     19.78     -20.85       1.97        0.00     118.35       1.98       0.66       0.41       ----

> <Gold.Chemscore.Fitness>
19.7770

> <Gold.Chemscore.DG>
-20.8455

> <Gold.Chemscore.ZeroCoef>
-5.4800

> <Gold.Chemscore.Hbond>
1.9704

> <Gold.Chemscore.Metal>
0.0000

> <Gold.Chemscore.Lipo>
118.3455

> <Gold.Chemscore.Internal_Hbond>
0.0000

> <Gold.Chemscore.DEClash>
0.6606

> <Gold.Chemscore.DEInternal>
0.4079

> <Gold.Chemscore.Rot>
1.9774

> <Gold.Chemscore.Internal.Correction>
   9.000000E+99

> <Gold.Chemscore.Hbonds>
donor molecule, donor type, donor heavy atom, donor atom, acceptor molecule, acceptor atom, score
      L1  H     9    40       P1  8028  0.99
      L1  H    15    41       P1  7948  0.98

> <Gold.Chemscore.Hbond.Weighted>
-6.5812

> <Gold.Chemscore.Metal.Weighted>
-0.0000

> <Gold.Chemscore.Lipo.Weighted>
-13.8464

> <Gold.Chemscore.Internal_Hbond.Weighted>
0.0000

> <Gold.Chemscore.DEClash.Weighted>
0.6606

> <Gold.Chemscore.DEInternal.Weighted>
0.4079

> <Gold.Chemscore.Rot.Weighted>
5.0622

> <Gold.Chemscore.Internal.Correction.Weighted>
   9.000000E+99

> <Gold.Protein.RotatedTorsions>
[ 6907 6896 6895 6894 ] final  164.94 input  -60.11 | X-H torsion
[ 7974 7965 7964 7962 ] final  130.81 input  175.53 | X-H torsion
[ 8008 7997 7996 7995 ] final   86.87 input   59.86 | X-H torsion
[ 10167 10162 10161 10158 ] final -115.63 input  -65.29 | X-H torsion
[ 10718 10713 10712 10709 ] final  -33.26 input   66.30 | X-H torsion
[ 10763 10752 10751 10750 ] final -175.58 input  -60.55 | X-H torsion
[ 11005 11000 10999 10996 ] final   47.24 input  -57.11 | X-H torsion

> <Gold.Protein.ActiveResidues>
 VAL166  LYS551  ARG553  GLY616  TRP617  ASP618  TYR619  PRO620  LYS621  CYS622 
 ASP623  PHE694  ASN695  SER759  ASP760  ASP761  ALA762  ILE779  LEU786  VAL792 
 PHE793  MET794  SER795  GLU796  ALA797  LYS798  CYS799  TRP800  GLU811  SER814 

> <Gold.Protein.RotatedAtoms>
  151.9021  133.3540  159.3834 H   0  0  0  0  0  0  0  0  0  0  0  0  # atno 6907 bound_to 6896
  150.7077  134.4818  159.5483 H   0  0  0  0  0  0  0  0  0  0  0  0  # atno 6908 bound_to 6896
  152.2408  134.8231  160.0511 H   0  0  0  0  0  0  0  0  0  0  0  0  # atno 6909 bound_to 6896
  145.0139  139.4194  143.5231 H   0  0  0  0  0  0  0  0  0  0  0  0  # atno 7974 bound_to 7965
  155.9682  140.3388  155.6551 H   0  0  0  0  0  0  0  0  0  0  0  0  # atno 8008 bound_to 7997
  155.6709  140.0727  157.2538 H   0  0  0  0  0  0  0  0  0  0  0  0  # atno 8009 bound_to 7997
  154.4160  140.1691  156.1866 H   0  0  0  0  0  0  0  0  0  0  0  0  # atno 8010 bound_to 7997
  140.0880  143.4726  152.1887 H   0  0  0  0  0  0  0  0  0  0  0  0  # atno 10167 bound_to 10162
  156.3648  130.4330  149.7594 H   0  0  0  0  0  0  0  0  0  0  0  0  # atno 10718 bound_to 10713
  154.5827  135.2837  155.0716 H   0  0  0  0  0  0  0  0  0  0  0  0  # atno 10763 bound_to 10752
  154.2047  135.6418  153.5101 H   0  0  0  0  0  0  0  0  0  0  0  0  # atno 10764 bound_to 10752
  153.0093  135.5477  154.6486 H   0  0  0  0  0  0  0  0  0  0  0  0  # atno 10765 bound_to 10752
  140.1297  134.4722  155.8531 H   0  0  0  0  0  0  0  0  0  0  0  0  # atno 11005 bound_to 11000
  146.3474  139.9599  142.8718 LP  0  0  0  0  0  0  0  0  0  0  0  0  # atno 17320 bound_to 7965
  145.1986  140.9844  143.4169 LP  0  0  0  0  0  0  0  0  0  0  0  0  # atno 17321 bound_to 7965
  139.5741  144.7478  151.3812 LP  0  0  0  0  0  0  0  0  0  0  0  0  # atno 17342 bound_to 10162
  140.7043  143.7553  150.7456 LP  0  0  0  0  0  0  0  0  0  0  0  0  # atno 17343 bound_to 10162
  156.4744  130.8011  151.3028 LP  0  0  0  0  0  0  0  0  0  0  0  0  # atno 17370 bound_to 10713
  157.7477  131.0026  150.3005 LP  0  0  0  0  0  0  0  0  0  0  0  0  # atno 17371 bound_to 10713
  141.2168  133.6791  156.7045 LP  0  0  0  0  0  0  0  0  0  0  0  0  # atno 17394 bound_to 11000
  140.2858  134.8280  157.3974 LP  0  0  0  0  0  0  0  0  0  0  0  0  # atno 17395 bound_to 11000

$$$$
