AV-unprocessed.smi:2050|AV-procd|sdf|8324|dock3
  -GOLD-   2272010593D 1   1.00000     0.00000
 Structure written by MMmdl.
 33 34  0  0  0  0  0  0  0  0  1 V2000
  144.3282  131.8350  150.4126 C   0  0  0  0  0  0  0  0  0  0  0  0
  144.6731  133.1350  151.0553 C   0  0  0  0  0  0  0  0  0  0  0  0
  145.7574  133.9610  150.9587 C   0  0  0  0  0  0  0  0  0  0  0  0
  145.4290  135.0245  151.8411 C   0  0  0  0  0  0  0  0  0  0  0  0
  146.3160  136.1153  152.0286 N   0  0  0  0  0  0  0  0  0  0  0  0
  146.0031  137.3728  152.3855 C   0  0  0  0  0  0  0  0  0  0  0  0
  144.8656  137.7829  152.6175 O   0  0  0  0  0  0  0  0  0  0  0  0
  147.0964  138.1454  152.4593 N   0  0  0  0  0  0  0  0  0  0  0  0
  147.0989  139.5587  152.8226 C   0  0  0  0  0  0  0  0  0  0  0  0
  147.9409  139.8432  154.0830 C   0  0  2  0  0  0  0  0  0  0  0  0
  148.5732  141.2511  154.0994 C   0  0  0  0  0  0  0  0  0  0  0  0
  149.6039  141.3105  155.2309 C   0  0  0  0  0  0  0  0  0  0  0  0
  150.3384  139.6356  155.3153 S   0  0  0  0  0  0  0  0  0  0  0  0
  151.6226  139.6273  154.5985 O   0  0  0  0  0  0  0  0  0  0  0  0
  150.2381  139.1369  156.6952 O   0  0  0  0  0  0  0  0  0  0  0  0
  149.0709  138.8190  154.2718 C   0  0  0  0  0  0  0  0  0  0  0  0
  144.2511  134.8621  152.4241 N   0  0  0  0  0  0  0  0  0  0  0  0
  143.7612  133.6497  151.9245 O   0  0  0  0  0  0  0  0  0  0  0  0
  144.8723  131.7073  149.4767 H   0  0  0  0  0  0  0  0  0  0  0  0
  143.2618  131.7804  150.1922 H   0  0  0  0  0  0  0  0  0  0  0  0
  144.5816  131.0019  151.0683 H   0  0  0  0  0  0  0  0  0  0  0  0
  146.6408  133.8234  150.3534 H   0  0  0  0  0  0  0  0  0  0  0  0
  147.2929  135.9165  151.8727 H   0  0  0  0  0  0  0  0  0  0  0  0
  147.9918  137.7275  152.2524 H   0  0  0  0  0  0  0  0  0  0  0  0
  147.4637  140.1530  151.9829 H   0  0  0  0  0  0  0  0  0  0  0  0
  146.0653  139.8644  152.9877 H   0  0  0  0  0  0  0  0  0  0  0  0
  147.2951  139.7699  154.9594 H   0  0  0  0  0  0  0  0  0  0  0  0
  149.0808  141.4275  153.1500 H   0  0  0  0  0  0  0  0  0  0  0  0
  147.8227  142.0343  154.2108 H   0  0  0  0  0  0  0  0  0  0  0  0
  150.3803  142.0575  155.0662 H   0  0  0  0  0  0  0  0  0  0  0  0
  149.1185  141.5142  156.1857 H   0  0  0  0  0  0  0  0  0  0  0  0
  148.7314  137.8974  154.7449 H   0  0  0  0  0  0  0  0  0  0  0  0
  149.5385  138.5668  153.3197 H   0  0  0  0  0  0  0  0  0  0  0  0
  1  2  1  0  0  0  0
  1 19  1  0  0  0  0
  1 20  1  0  0  0  0
  1 21  1  0  0  0  0
  2 18  1  0  0  0  0
  2  3  2  0  0  0  0
  3  4  1  0  0  0  0
  3 22  1  0  0  0  0
  4  5  1  0  0  0  0
  4 17  2  0  0  0  0
  5  6  1  0  0  0  0
  5 23  1  0  0  0  0
  6  7  2  0  0  0  0
  6  8  1  0  0  0  0
  8  9  1  0  0  0  0
  8 24  1  0  0  0  0
  9 10  1  0  0  0  0
  9 25  1  0  0  0  0
  9 26  1  0  0  0  0
 10 16  1  0  0  0  0
 10 11  1  0  0  0  0
 10 27  1  0  0  0  0
 11 12  1  0  0  0  0
 11 28  1  0  0  0  0
 11 29  1  0  0  0  0
 12 13  1  0  0  0  0
 12 30  1  0  0  0  0
 12 31  1  0  0  0  0
 13 14  2  0  0  0  0
 13 15  2  0  0  0  0
 13 16  1  0  0  0  0
 16 32  1  0  0  0  0
 16 33  1  0  0  0  0
 17 18  1  0  0  0  0
M  END
> <s_m_source_file>
AV-unprocessed.smi

> <i_m_source_file_index>
2050

> <i_lp_mmshare_version>
43012

> <i_f3d_flags>
0

> <s_epik_input>
W0NIM11jMVtjSF1jKG5vMSlbTkhdQyg9TylbTkhdW0NIMl1bQ0BASF0oW0NIMl0yKVtDSDJdW0NIMl1TMig9Tyk9Tw==

> <s_epik_cmdline>
J2VwaWtfcHl0aG9uJywgJy1waCcsICc3LjAnLCAnLXRuJywgJzgnLCAnLW1hJywgJzIwMCcsICctbWV0YWxfYmluZGluZycsICctaW1hZScsICc8aW5maWxlLm1hZT4nLCAnLW9tYWUnLCAnPG91dGZpbGUubWFlPic=

> <r_lp_tautomer_probability>
1

> <r_epik_Ionization_Penalty>
2.22143e-05

> <r_epik_Ionization_Penalty_Charging>
0

> <r_epik_Ionization_Penalty_Neutral>
2.22143e-05

> <r_epik_State_Penalty>
-0

> <r_epik_Charging_Adjusted_Penalty>
0

> <i_epik_Tot_Q>
0

> <i_epik_Tot_abs_Q>
0

> <r_epik_Metal_State_Penalty>
-0

> <b_epik_Metal_Only>
0

> <s_lp_Force_Field>
OPLS_2005

> <r_lp_Energy>
2.27669

> <b_lp_Chiralities_Consistent>
1

> <s_lp_Variant>
AV-unprocessed.smi:2050-1

> <Gold.Version>
5.8.1

> <Gold.Id.Protein>
6NUR|6NUR_protein|mol2

> <Gold.PLP.Fitness>
36.1259

> <Gold.PLP.PLP>
-28.2532

> <Gold.PLP.part.hbond>
-3.0000

> <Gold.PLP.part.metal>
0.0000

> <Gold.PLP.part.buried>
-4.4081

> <Gold.PLP.part.nonpolar>
-23.7831

> <Gold.PLP.part.repulsive>
2.4714

> <Gold.PLP.ligand.clash>
0.0000

> <Gold.PLP.ligand.torsion>
0.5536

> <Gold.PLP.Chemscore.Hbond>
2.9920

> <Gold.PLP.Chemscore.CHOScore>
0.0000

> <Gold.PLP.Chemscore.Metal>
0.0000

> <Gold.Chemscore.Hbonds>
donor molecule, donor type, donor heavy atom, donor atom, acceptor molecule, acceptor atom, score
      L1  H     5    23       P1  7948  1.00
      L1  H     8    24       P1  7948  0.99
      P1  H  7989  7998       L1    14  1.00

> <Gold.PLP.Chemscore.Internal.Correction>
0.0038

> <Gold.Rescore>
     Score         DG    S(hbond)    S(metal)    S(lipo)     H(rot)  DE(clash)    DE(int)     intcor
     17.50     -18.22       2.92        0.00      55.13       1.36       0.02       0.70       ----

> <Gold.Chemscore.Fitness>
17.4964

> <Gold.Chemscore.DG>
-18.2180

> <Gold.Chemscore.ZeroCoef>
-5.4800

> <Gold.Chemscore.Hbond>
2.9224

> <Gold.Chemscore.Metal>
0.0000

> <Gold.Chemscore.Lipo>
55.1334

> <Gold.Chemscore.Internal_Hbond>
0.0000

> <Gold.Chemscore.DEClash>
0.0178

> <Gold.Chemscore.DEInternal>
0.7039

> <Gold.Chemscore.Rot>
1.3567

> <Gold.Chemscore.Internal.Correction>
   9.000000E+99

> <Gold.Chemscore.Hbonds>
donor molecule, donor type, donor heavy atom, donor atom, acceptor molecule, acceptor atom, score
      L1  H     5    23       P1  7948  0.99
      L1  H     8    24       P1  7948  0.93
      P1  H  7989  7998       L1    14  0.73

> <Gold.Chemscore.Hbond.Weighted>
-9.7607

> <Gold.Chemscore.Metal.Weighted>
-0.0000

> <Gold.Chemscore.Lipo.Weighted>
-6.4506

> <Gold.Chemscore.Internal_Hbond.Weighted>
0.0000

> <Gold.Chemscore.DEClash.Weighted>
0.0178

> <Gold.Chemscore.DEInternal.Weighted>
0.7039

> <Gold.Chemscore.Rot.Weighted>
3.4732

> <Gold.Chemscore.Internal.Correction.Weighted>
   9.000000E+99

> <Gold.Protein.RotatedTorsions>
[ 6907 6896 6895 6894 ] final  134.58 input  -60.11 | X-H torsion
[ 7974 7965 7964 7962 ] final   15.02 input  175.53 | X-H torsion
[ 8008 7997 7996 7995 ] final -104.49 input   59.86 | X-H torsion
[ 10167 10162 10161 10158 ] final   21.47 input  -65.29 | X-H torsion
[ 10718 10713 10712 10709 ] final   31.27 input   66.30 | X-H torsion
[ 10763 10752 10751 10750 ] final  -25.21 input  -60.55 | X-H torsion
[ 11005 11000 10999 10996 ] final   15.48 input  -57.11 | X-H torsion

> <Gold.Protein.ActiveResidues>
 VAL166  LYS551  ARG553  GLY616  TRP617  ASP618  TYR619  PRO620  LYS621  CYS622 
 ASP623  PHE694  ASN695  SER759  ASP760  ASP761  ALA762  ILE779  LEU786  VAL792 
 PHE793  MET794  SER795  GLU796  ALA797  LYS798  CYS799  TRP800  GLU811  SER814 

> <Gold.Protein.RotatedAtoms>
  152.3098  133.5740  159.5672 H   0  0  0  0  0  0  0  0  0  0  0  0  # atno 6907 bound_to 6896
  150.7317  134.0170  159.3697 H   0  0  0  0  0  0  0  0  0  0  0  0  # atno 6908 bound_to 6896
  151.8063  135.0694  160.0458 H   0  0  0  0  0  0  0  0  0  0  0  0  # atno 6909 bound_to 6896
  146.2290  139.8956  142.8547 H   0  0  0  0  0  0  0  0  0  0  0  0  # atno 7974 bound_to 7965
  154.8861  140.0417  157.1811 H   0  0  0  0  0  0  0  0  0  0  0  0  # atno 8008 bound_to 7997
  154.8589  140.2941  155.5530 H   0  0  0  0  0  0  0  0  0  0  0  0  # atno 8009 bound_to 7997
  156.2998  140.2450  156.3560 H   0  0  0  0  0  0  0  0  0  0  0  0  # atno 8010 bound_to 7997
  140.5424  143.9653  150.6527 H   0  0  0  0  0  0  0  0  0  0  0  0  # atno 10167 bound_to 10162
  157.2703  130.7205  149.6501 H   0  0  0  0  0  0  0  0  0  0  0  0  # atno 10718 bound_to 10713
  153.6961  135.6959  153.5076 H   0  0  0  0  0  0  0  0  0  0  0  0  # atno 10763 bound_to 10752
  153.2377  135.4316  155.0663 H   0  0  0  0  0  0  0  0  0  0  0  0  # atno 10764 bound_to 10752
  154.8358  135.3500  154.6502 H   0  0  0  0  0  0  0  0  0  0  0  0  # atno 10765 bound_to 10752
  140.4578  134.1158  155.7712 H   0  0  0  0  0  0  0  0  0  0  0  0  # atno 11005 bound_to 11000
  145.2374  140.9996  143.3955 LP  0  0  0  0  0  0  0  0  0  0  0  0  # atno 17320 bound_to 7965
  144.9480  139.4115  143.6416 LP  0  0  0  0  0  0  0  0  0  0  0  0  # atno 17321 bound_to 7965
  140.3057  143.3231  152.0928 LP  0  0  0  0  0  0  0  0  0  0  0  0  # atno 17342 bound_to 10162
  139.4994  144.6668  151.6337 LP  0  0  0  0  0  0  0  0  0  0  0  0  # atno 17343 bound_to 10162
  155.9663  130.4369  150.5155 LP  0  0  0  0  0  0  0  0  0  0  0  0  # atno 17370 bound_to 10713
  157.3078  131.0658  151.2022 LP  0  0  0  0  0  0  0  0  0  0  0  0  # atno 17371 bound_to 10713
  141.1635  133.8748  157.1781 LP  0  0  0  0  0  0  0  0  0  0  0  0  # atno 17394 bound_to 11000
  139.9965  135.0045  157.0093 LP  0  0  0  0  0  0  0  0  0  0  0  0  # atno 17395 bound_to 11000

$$$$
