AV-unprocessed.smi:72|AV-procd|sdf|748|dock6
  -GOLD-   2262017 83D 1   1.00000     0.00000
 Structure written by MMmdl.
 29 30  0  0  0  0  0  0  0  0  1 V2000
  148.5376  139.3573  150.9415 N   0  0  0  0  0  0  0  0  0  0  0  0
  147.7290  138.2525  151.1091 C   0  0  0  0  0  0  0  0  0  0  0  0
  147.6160  137.3902  150.0100 N   0  0  0  0  0  0  0  0  0  0  0  0
  146.8557  136.3521  150.1616 C   0  0  0  0  0  0  0  0  0  0  0  0
  146.1607  136.1020  151.4134 N   0  0  0  0  0  0  0  0  0  0  0  0
  145.2603  134.8957  151.6216 C   0  0  1  0  0  0  0  0  0  0  0  0
  144.4221  134.7247  150.5148 O   0  0  0  0  0  0  0  0  0  0  0  0
  144.8235  133.5821  149.7645 C   0  0  2  0  0  0  0  0  0  0  0  0
  143.6646  133.0425  148.9084 C   0  0  0  0  0  0  0  0  0  0  0  0
  143.4671  133.8701  147.7819 O   0  0  0  0  0  0  0  0  0  0  0  0
  145.3477  132.6292  150.8462 C   0  0  2  0  0  0  0  0  0  0  0  0
  144.2844  131.9479  151.4882 O   0  0  0  0  0  0  0  0  0  0  0  0
  146.0406  133.5727  151.8206 C   0  0  1  0  0  0  0  0  0  0  0  0
  147.4175  133.6627  151.4962 O   0  0  0  0  0  0  0  0  0  0  0  0
  146.3243  137.0189  152.4879 C   0  0  0  0  0  0  0  0  0  0  0  0
  145.7532  136.8202  153.5604 O   0  0  0  0  0  0  0  0  0  0  0  0
  147.1545  138.1247  152.2705 N   0  0  0  0  0  0  0  0  0  0  0  0
  144.6248  135.1501  152.4712 H   0  0  0  0  0  0  0  0  0  0  0  0
  145.6640  133.8541  149.1234 H   0  0  0  0  0  0  0  0  0  0  0  0
  146.0248  131.8795  150.4340 H   0  0  0  0  0  0  0  0  0  0  0  0
  145.9516  133.2435  152.8569 H   0  0  0  0  0  0  0  0  0  0  0  0
  148.6932  140.0454  151.6639 H   0  0  0  0  0  0  0  0  0  0  0  0
  149.0357  139.5584  150.0866 H   0  0  0  0  0  0  0  0  0  0  0  0
  146.6956  135.6180  149.3722 H   0  0  0  0  0  0  0  0  0  0  0  0
  143.9030  132.0441  148.5404 H   0  0  0  0  0  0  0  0  0  0  0  0
  142.7437  132.9663  149.4870 H   0  0  0  0  0  0  0  0  0  0  0  0
  144.3108  134.1559  147.4663 H   0  0  0  0  0  0  0  0  0  0  0  0
  144.6105  131.1245  151.8179 H   0  0  0  0  0  0  0  0  0  0  0  0
  147.6441  134.5759  151.4074 H   0  0  0  0  0  0  0  0  0  0  0  0
  1  2  1  0  0  0  0
  1 22  1  0  0  0  0
  1 23  1  0  0  0  0
  2 17  2  0  0  0  0
  2  3  1  0  0  0  0
  3  4  2  0  0  0  0
  4  5  1  0  0  0  0
  4 24  1  0  0  0  0
  5  6  1  0  0  0  0
  5 15  1  0  0  0  0
  6 18  1  0  0  0  0
  6 13  1  0  0  0  0
  6  7  1  0  0  0  0
  7  8  1  0  0  0  0
  8 19  1  0  0  0  0
  8  9  1  0  0  0  0
  8 11  1  0  0  0  0
  9 10  1  0  0  0  0
  9 25  1  0  0  0  0
  9 26  1  0  0  0  0
 10 27  1  0  0  0  0
 11 20  1  0  0  0  0
 11 12  1  0  0  0  0
 11 13  1  0  0  0  0
 12 28  1  0  0  0  0
 13 21  1  0  0  0  0
 13 14  1  0  0  0  0
 14 29  1  0  0  0  0
 15 16  2  0  0  0  0
 15 17  1  0  0  0  0
M  END
> <s_m_source_file>
AV-unprocessed.smi

> <i_m_source_file_index>
72

> <i_lp_mmshare_version>
43012

> <i_f3d_flags>
0

> <s_epik_input>
W05IMl1jMW5bY0hdbihjKD1PKW4xKVtDQEBIXTJPW0NASF0oW0NIMl1bT0hdKVtDQEBIXShbT0hdKVtDQEhdMltPSF0=

> <s_epik_cmdline>
J2VwaWtfcHl0aG9uJywgJy1waCcsICc3LjAnLCAnLXRuJywgJzgnLCAnLW1hJywgJzIwMCcsICctbWV0YWxfYmluZGluZycsICctaW1hZScsICc8aW5maWxlLm1hZT4nLCAnLW9tYWUnLCAnPG91dGZpbGUubWFlPic=

> <r_lp_tautomer_probability>
4.77166e-05

> <r_epik_Ionization_Penalty>
1.3546

> <r_epik_Ionization_Penalty_Charging>
1.46833e-10

> <r_epik_Ionization_Penalty_Neutral>
1.3546

> <r_epik_State_Penalty>
3.51908

> <r_epik_Charging_Adjusted_Penalty>
3.51908

> <i_epik_Tot_Q>
0

> <i_epik_Tot_abs_Q>
0

> <r_epik_Metal_State_Penalty>
3.44088

> <b_epik_Metal_Only>
1

> <s_epik_Chemistry_Notes>
This compound contains an acetal/aminal-like group ( X-CH(R)-Y where X, Y are N, S, or O) that may be acid/base labile, releasing an aldehyde.

> <s_lp_Force_Field>
OPLS_2005

> <r_lp_Energy>
33.7939

> <b_lp_Chiralities_Consistent>
1

> <s_lp_Variant>
AV-unprocessed.smi:72-86

> <Gold.Version>
5.8.1

> <Gold.Id.Protein>
6NUR|6NUR_protein|mol2

> <Gold.PLP.Fitness>
39.7355

> <Gold.PLP.PLP>
-26.2366

> <Gold.PLP.part.hbond>
-6.8224

> <Gold.PLP.part.metal>
0.0000

> <Gold.PLP.part.buried>
-0.8809

> <Gold.PLP.part.nonpolar>
-20.4549

> <Gold.PLP.part.repulsive>
2.6103

> <Gold.PLP.ligand.clash>
0.0000

> <Gold.PLP.ligand.torsion>
0.4772

> <Gold.PLP.Chemscore.Hbond>
3.8033

> <Gold.PLP.Chemscore.CHOScore>
1.0000

> <Gold.PLP.Chemscore.Metal>
0.0000

> <Gold.Chemscore.Hbonds>
donor molecule, donor type, donor heavy atom, donor atom, acceptor molecule, acceptor atom, score
      L1  H    10    27       P1  7921  1.00
      L1  H    14    29       P1  7948  0.67
      P1  H 10192 10197       L1    10  0.98
      L1  C     4    24       P1  7921  0.83

> <Gold.PLP.Chemscore.Internal.Correction>
0.0434

> <Gold.Rescore>
     Score         DG    S(hbond)    S(metal)    S(lipo)     H(rot)  DE(clash)    DE(int)     intcor
      5.42      -9.15       3.21        0.00      28.50       4.06       2.99       0.75       ----

> <Gold.Chemscore.Fitness>
5.4199

> <Gold.Chemscore.DG>
-9.1542

> <Gold.Chemscore.ZeroCoef>
-5.4800

> <Gold.Chemscore.Hbond>
3.2136

> <Gold.Chemscore.Metal>
0.0000

> <Gold.Chemscore.Lipo>
28.5004

> <Gold.Chemscore.Internal_Hbond>
0.0000

> <Gold.Chemscore.DEClash>
2.9856

> <Gold.Chemscore.DEInternal>
0.7488

> <Gold.Chemscore.Rot>
4.0600

> <Gold.Chemscore.Internal.Correction>
   9.000000E+99

> <Gold.Chemscore.Hbonds>
donor molecule, donor type, donor heavy atom, donor atom, acceptor molecule, acceptor atom, score
      L1  H    10    27       P1  7921  0.99
      L1  H    14    29       P1  7948  0.09
      P1  H 10192 10197       L1    10  0.69

> <Gold.Chemscore.Hbond.Weighted>
-10.7333

> <Gold.Chemscore.Metal.Weighted>
-0.0000

> <Gold.Chemscore.Lipo.Weighted>
-3.3345

> <Gold.Chemscore.Internal_Hbond.Weighted>
0.0000

> <Gold.Chemscore.DEClash.Weighted>
2.9856

> <Gold.Chemscore.DEInternal.Weighted>
0.7488

> <Gold.Chemscore.Rot.Weighted>
10.3936

> <Gold.Chemscore.Internal.Correction.Weighted>
   9.000000E+99

> <Gold.Protein.RotatedTorsions>
[ 6907 6896 6895 6894 ] final -177.63 input  -60.11 | X-H torsion
[ 7974 7965 7964 7962 ] final  -40.75 input  175.53 | X-H torsion
[ 8008 7997 7996 7995 ] final   47.57 input   59.86 | X-H torsion
[ 10167 10162 10161 10158 ] final  154.51 input  -65.29 | X-H torsion
[ 10718 10713 10712 10709 ] final -170.83 input   66.30 | X-H torsion
[ 10763 10752 10751 10750 ] final   35.12 input  -60.55 | X-H torsion
[ 11005 11000 10999 10996 ] final   80.36 input  -57.11 | X-H torsion

> <Gold.Protein.ActiveResidues>
 VAL166  LYS551  ARG553  GLY616  TRP617  ASP618  TYR619  PRO620  LYS621  CYS622 
 ASP623  PHE694  ASN695  SER759  ASP760  ASP761  ALA762  ILE779  LEU786  VAL792 
 PHE793  MET794  SER795  GLU796  ALA797  LYS798  CYS799  TRP800  GLU811  SER814 

> <Gold.Protein.RotatedAtoms>
  151.6242  133.3337  159.3094 H   0  0  0  0  0  0  0  0  0  0  0  0  # atno 6907 bound_to 6896
  150.8090  134.7237  159.6682 H   0  0  0  0  0  0  0  0  0  0  0  0  # atno 6908 bound_to 6896
  152.4186  134.6001  160.0049 H   0  0  0  0  0  0  0  0  0  0  0  0  # atno 6909 bound_to 6896
  146.0275  140.6773  142.9148 H   0  0  0  0  0  0  0  0  0  0  0  0  # atno 7974 bound_to 7965
  155.3713  140.3424  155.4243 H   0  0  0  0  0  0  0  0  0  0  0  0  # atno 8008 bound_to 7997
  156.1661  140.1616  156.8563 H   0  0  0  0  0  0  0  0  0  0  0  0  # atno 8009 bound_to 7997
  154.5186  140.0772  156.8111 H   0  0  0  0  0  0  0  0  0  0  0  0  # atno 8010 bound_to 7997
  139.4823  144.5180  151.7921 H   0  0  0  0  0  0  0  0  0  0  0  0  # atno 10167 bound_to 10162
  156.7320  130.9310  151.3105 H   0  0  0  0  0  0  0  0  0  0  0  0  # atno 10718 bound_to 10713
  153.0133  135.6342  154.1777 H   0  0  0  0  0  0  0  0  0  0  0  0  # atno 10763 bound_to 10752
  154.1517  135.2828  155.3135 H   0  0  0  0  0  0  0  0  0  0  0  0  # atno 10764 bound_to 10752
  154.6048  135.5575  153.7472 H   0  0  0  0  0  0  0  0  0  0  0  0  # atno 10765 bound_to 10752
  139.9137  134.7915  156.1900 H   0  0  0  0  0  0  0  0  0  0  0  0  # atno 11005 bound_to 11000
  144.7016  140.3676  143.7151 LP  0  0  0  0  0  0  0  0  0  0  0  0  # atno 17320 bound_to 7965
  145.7094  139.1681  143.2547 LP  0  0  0  0  0  0  0  0  0  0  0  0  # atno 17321 bound_to 7965
  140.4691  144.1613  150.5915 LP  0  0  0  0  0  0  0  0  0  0  0  0  # atno 17342 bound_to 10162
  140.4402  143.2530  151.9483 LP  0  0  0  0  0  0  0  0  0  0  0  0  # atno 17343 bound_to 10162
  157.6855  130.9181  150.0375 LP  0  0  0  0  0  0  0  0  0  0  0  0  # atno 17370 bound_to 10713
  156.1522  130.3642  149.9421 LP  0  0  0  0  0  0  0  0  0  0  0  0  # atno 17371 bound_to 10713
  141.0590  133.6851  156.1915 LP  0  0  0  0  0  0  0  0  0  0  0  0  # atno 17394 bound_to 11000
  140.6692  134.4886  157.5586 LP  0  0  0  0  0  0  0  0  0  0  0  0  # atno 17395 bound_to 11000

$$$$
