AV-unprocessed.smi:1385|AV-procd|sdf|5634|dock3
  -GOLD-   22720 5253D 1   1.00000     0.00000
 Structure written by MMmdl.
 38 39  0  0  0  0  0  0  0  0  3 V2000
  152.4914  143.9860  158.9945 C   0  0  0  0  0  0  0  0  0  0  0  0
  151.8522  142.9703  158.1104 C   0  0  0  0  0  0  0  0  0  0  0  0
  151.7021  141.6897  158.4703 N   0  0  0  0  0  0  0  0  0  0  0  0
  151.0751  140.9369  157.4873 N   0  0  0  0  0  0  0  0  0  0  0  0
  150.7674  141.6758  156.4122 C   0  0  0  0  0  0  0  0  0  0  0  0
  150.1148  141.1605  155.2608 N   0  0  0  0  0  0  0  0  0  0  0  0
  148.9901  140.4257  155.1998 C   0  0  0  0  0  0  0  0  0  0  0  0
  148.3304  140.0504  156.1693 O   0  0  0  0  0  0  0  0  0  0  0  0
  148.6629  140.1422  153.9306 N   0  0  0  0  0  0  0  0  0  0  0  0
  147.4920  139.3736  153.5182 C   0  0  2  0  0  0  0  0  0  0  0  0
  147.5109  137.9648  154.1388 C   0  0  0  0  0  0  0  0  0  0  0  0
  146.3333  137.1178  153.6288 C   0  0  0  0  0  0  0  0  0  0  0  0
  146.3312  137.0374  152.1429 N   0  3  1  0  0  0  0  0  0  0  0  0
  145.2878  136.1274  151.6083 C   0  0  0  0  0  0  0  0  0  0  0  0
  145.5686  134.6869  152.0484 C   0  0  0  0  0  0  0  0  0  0  0  0
  146.7587  134.2364  151.6085 N   0  5  0  0  0  0  0  0  0  0  0  0
  144.7314  134.0822  152.7155 O   0  0  0  0  0  0  0  0  0  0  0  0
  146.2761  138.3856  151.5229 C   0  0  0  0  0  0  0  0  0  0  0  0
  147.4545  139.2586  151.9860 C   0  0  0  0  0  0  0  0  0  0  0  0
  151.2287  143.3665  156.5134 S   0  0  0  0  0  0  0  0  0  0  0  0
  153.2055  143.5107  159.6678 H   0  0  0  0  0  0  0  0  0  0  0  0
  151.7309  144.4917  159.5896 H   0  0  0  0  0  0  0  0  0  0  0  0
  153.0193  144.7282  158.3956 H   0  0  0  0  0  0  0  0  0  0  0  0
  150.5499  141.3902  154.3798 H   0  0  0  0  0  0  0  0  0  0  0  0
  149.2617  140.4900  153.1961 H   0  0  0  0  0  0  0  0  0  0  0  0
  146.5896  139.8949  153.8440 H   0  0  0  0  0  0  0  0  0  0  0  0
  148.4493  137.4633  153.8970 H   0  0  0  0  0  0  0  0  0  0  0  0
  147.4678  138.0303  155.2266 H   0  0  0  0  0  0  0  0  0  0  0  0
  146.4022  136.1193  154.0612 H   0  0  0  0  0  0  0  0  0  0  0  0
  145.3895  137.5440  153.9724 H   0  0  0  0  0  0  0  0  0  0  0  0
  144.2927  136.4730  151.8973 H   0  0  0  0  0  0  0  0  0  0  0  0
  145.3112  136.1321  150.5177 H   0  0  0  0  0  0  0  0  0  0  0  0
  147.5600  134.8791  151.6099 H   0  0  0  0  0  0  0  0  0  0  0  0
  146.3065  138.2929  150.4365 H   0  0  0  0  0  0  0  0  0  0  0  0
  145.3284  138.8646  151.7744 H   0  0  0  0  0  0  0  0  0  0  0  0
  147.3762  140.2498  151.5378 H   0  0  0  0  0  0  0  0  0  0  0  0
  148.3883  138.8267  151.6221 H   0  0  0  0  0  0  0  0  0  0  0  0
  147.2147  136.6321  151.8683 H   0  0  0  0  0  0  0  0  0  0  0  0
  1  2  1  0  0  0  0
  1 21  1  0  0  0  0
  1 22  1  0  0  0  0
  1 23  1  0  0  0  0
  2 20  1  0  0  0  0
  2  3  2  0  0  0  0
  3  4  1  0  0  0  0
  4  5  2  0  0  0  0
  5  6  1  0  0  0  0
  5 20  1  0  0  0  0
  6  7  1  0  0  0  0
  6 24  1  0  0  0  0
  7  8  2  0  0  0  0
  7  9  1  0  0  0  0
  9 10  1  0  0  0  0
  9 25  1  0  0  0  0
 10 19  1  0  0  0  0
 10 11  1  0  0  0  0
 10 26  1  0  0  0  0
 11 12  1  0  0  0  0
 11 27  1  0  0  0  0
 11 28  1  0  0  0  0
 12 13  1  0  0  0  0
 12 29  1  0  0  0  0
 12 30  1  0  0  0  0
 13 14  1  0  0  0  0
 13 18  1  0  0  0  0
 13 38  1  0  0  0  0
 14 15  1  0  0  0  0
 14 31  1  0  0  0  0
 14 32  1  0  0  0  0
 15 16  1  0  0  0  0
 15 17  2  0  0  0  0
 16 33  1  0  0  0  0
 18 19  1  0  0  0  0
 18 34  1  0  0  0  0
 18 35  1  0  0  0  0
 19 36  1  0  0  0  0
 19 37  1  0  0  0  0
M  CHG  1  13   1
M  CHG  1  16  -1
M  END
> <s_m_source_file>
AV-unprocessed.smi

> <i_m_source_file_index>
1385

> <i_lp_mmshare_version>
43012

> <i_f3d_flags>
0

> <s_epik_input>
W0NIM11jMW5uYyhzMSlbTkhdQyg9TylbTkhdW0NIXTJbQ0gyXVtDSDJdTihbQ0gyXVtDSDJdMilbQ0gyXUMoPU8pW05IMl0=

> <s_epik_cmdline>
J2VwaWtfcHl0aG9uJywgJy1waCcsICc3LjAnLCAnLXRuJywgJzgnLCAnLW1hJywgJzIwMCcsICctbWV0YWxfYmluZGluZycsICctaW1hZScsICc8aW5maWxlLm1hZT4nLCAnLW9tYWUnLCAnPG91dGZpbGUubWFlPic=

> <r_lp_tautomer_probability>
1

> <r_epik_Ionization_Penalty>
5.73549

> <r_epik_Ionization_Penalty_Charging>
5.73152

> <r_epik_Ionization_Penalty_Neutral>
0.00396448

> <r_epik_State_Penalty>
6.57436

> <r_epik_Charging_Adjusted_Penalty>
12.3059

> <i_epik_Tot_Q>
0

> <i_epik_Tot_abs_Q>
2

> <r_epik_Metal_State_Penalty>
2.87628

> <b_epik_Metal_Only>
1

> <s_lp_Force_Field>
OPLS_2005

> <r_lp_Energy>
6.06006

> <b_lp_Chiralities_Consistent>
1

> <s_lp_Variant>
AV-unprocessed.smi:1385-7

> <Gold.Version>
5.8.1

> <Gold.Id.Protein>
6NUR|6NUR_protein|mol2

> <Gold.PLP.Fitness>
34.9875

> <Gold.PLP.PLP>
-24.9609

> <Gold.PLP.part.hbond>
-3.0000

> <Gold.PLP.part.metal>
0.0000

> <Gold.PLP.part.buried>
6.9350

> <Gold.PLP.part.nonpolar>
-30.0799

> <Gold.PLP.part.repulsive>
0.6691

> <Gold.PLP.ligand.clash>
0.0000

> <Gold.PLP.ligand.torsion>
0.4870

> <Gold.PLP.Chemscore.Hbond>
3.6578

> <Gold.PLP.Chemscore.CHOScore>
0.0000

> <Gold.PLP.Chemscore.Metal>
0.0000

> <Gold.Chemscore.Hbonds>
donor molecule, donor type, donor heavy atom, donor atom, acceptor molecule, acceptor atom, score
      L1  H     9    25       P1  7957  0.59
      L1  H    13    38       P1  7948  2.00
      L1  H    16    33       P1  7948  1.00

> <Gold.PLP.Chemscore.Internal.Correction>
0.0273

> <Gold.Rescore>
     Score         DG    S(hbond)    S(metal)    S(lipo)     H(rot)  DE(clash)    DE(int)     intcor
     11.86     -15.38       1.98        0.00      72.52       2.04       1.77       1.75       ----

> <Gold.Chemscore.Fitness>
11.8570

> <Gold.Chemscore.DG>
-15.3789

> <Gold.Chemscore.ZeroCoef>
-5.4800

> <Gold.Chemscore.Hbond>
1.9844

> <Gold.Chemscore.Metal>
0.0000

> <Gold.Chemscore.Lipo>
72.5246

> <Gold.Chemscore.Internal_Hbond>
0.0000

> <Gold.Chemscore.DEClash>
1.7701

> <Gold.Chemscore.DEInternal>
1.7519

> <Gold.Chemscore.Rot>
2.0369

> <Gold.Chemscore.Internal.Correction>
   9.000000E+99

> <Gold.Chemscore.Hbonds>
donor molecule, donor type, donor heavy atom, donor atom, acceptor molecule, acceptor atom, score
      L1  H     9    25       P1  7957  0.58
      L1  H    13    38       P1  7948  1.00
      L1  H    16    33       P1  7948  0.50

> <Gold.Chemscore.Hbond.Weighted>
-6.6280

> <Gold.Chemscore.Metal.Weighted>
-0.0000

> <Gold.Chemscore.Lipo.Weighted>
-8.4854

> <Gold.Chemscore.Internal_Hbond.Weighted>
0.0000

> <Gold.Chemscore.DEClash.Weighted>
1.7701

> <Gold.Chemscore.DEInternal.Weighted>
1.7519

> <Gold.Chemscore.Rot.Weighted>
5.2144

> <Gold.Chemscore.Internal.Correction.Weighted>
   9.000000E+99

> <Gold.Protein.RotatedTorsions>
[ 6907 6896 6895 6894 ] final  170.52 input  -60.11 | X-H torsion
[ 7974 7965 7964 7962 ] final  -74.91 input  175.53 | X-H torsion
[ 8008 7997 7996 7995 ] final  -61.34 input   59.86 | X-H torsion
[ 10167 10162 10161 10158 ] final  167.06 input  -65.29 | X-H torsion
[ 10718 10713 10712 10709 ] final -145.68 input   66.30 | X-H torsion
[ 10763 10752 10751 10750 ] final   19.42 input  -60.55 | X-H torsion
[ 11005 11000 10999 10996 ] final  -16.25 input  -57.11 | X-H torsion

> <Gold.Protein.ActiveResidues>
 VAL166  LYS551  ARG553  GLY616  TRP617  ASP618  TYR619  PRO620  LYS621  CYS622 
 ASP623  PHE694  ASN695  SER759  ASP760  ASP761  ALA762  ILE779  LEU786  VAL792 
 PHE793  MET794  SER795  GLU796  ALA797  LYS798  CYS799  TRP800  GLU811  SER814 

> <Gold.Protein.RotatedAtoms>
  151.8147  133.3386  159.3565 H   0  0  0  0  0  0  0  0  0  0  0  0  # atno 6907 bound_to 6896
  150.7314  134.5630  159.5861 H   0  0  0  0  0  0  0  0  0  0  0  0  # atno 6908 bound_to 6896
  152.3049  134.7568  160.0400 H   0  0  0  0  0  0  0  0  0  0  0  0  # atno 6909 bound_to 6896
  145.6329  140.9333  143.1077 H   0  0  0  0  0  0  0  0  0  0  0  0  # atno 7974 bound_to 7965
  154.4443  140.1020  156.6416 H   0  0  0  0  0  0  0  0  0  0  0  0  # atno 8008 bound_to 7997
  155.5495  140.3485  155.4447 H   0  0  0  0  0  0  0  0  0  0  0  0  # atno 8009 bound_to 7997
  156.0539  140.1310  157.0008 H   0  0  0  0  0  0  0  0  0  0  0  0  # atno 8010 bound_to 7997
  139.4937  144.3962  151.9462 H   0  0  0  0  0  0  0  0  0  0  0  0  # atno 10167 bound_to 10162
  156.3854  130.7858  151.2055 H   0  0  0  0  0  0  0  0  0  0  0  0  # atno 10718 bound_to 10713
  153.1164  135.6709  153.9411 H   0  0  0  0  0  0  0  0  0  0  0  0  # atno 10763 bound_to 10752
  153.8939  135.3043  155.3449 H   0  0  0  0  0  0  0  0  0  0  0  0  # atno 10764 bound_to 10752
  154.7580  135.5002  153.9488 H   0  0  0  0  0  0  0  0  0  0  0  0  # atno 10765 bound_to 10752
  140.8049  133.8185  155.9506 H   0  0  0  0  0  0  0  0  0  0  0  0  # atno 11005 bound_to 11000
  144.7187  139.8107  143.7390 LP  0  0  0  0  0  0  0  0  0  0  0  0  # atno 17320 bound_to 7965
  146.1342  139.4384  143.0149 LP  0  0  0  0  0  0  0  0  0  0  0  0  # atno 17321 bound_to 7965
  140.3400  144.3214  150.5969 LP  0  0  0  0  0  0  0  0  0  0  0  0  # atno 17342 bound_to 10162
  140.5574  143.2197  151.7824 LP  0  0  0  0  0  0  0  0  0  0  0  0  # atno 17343 bound_to 10162
  157.7495  131.0331  150.4258 LP  0  0  0  0  0  0  0  0  0  0  0  0  # atno 17370 bound_to 10713
  156.4510  130.4011  149.6636 LP  0  0  0  0  0  0  0  0  0  0  0  0  # atno 17371 bound_to 10713
  140.9257  134.2085  157.4897 LP  0  0  0  0  0  0  0  0  0  0  0  0  # atno 17394 bound_to 11000
  139.8718  134.9811  156.5104 LP  0  0  0  0  0  0  0  0  0  0  0  0  # atno 17395 bound_to 11000

$$$$
