AV-unprocessed.smi:273|AV-procd|sdf|2055|dock4
  -GOLD-   2262021293D 1   1.00000     0.00000
 Structure written by MMmdl.
 59 62  0  0  0  0  0  0  0  0  1 V2000
  149.3826  125.9782  152.0886 C   0  0  0  0  0  0  0  0  0  0  0  0
  148.4888  126.4309  150.9266 C   0  0  0  0  0  0  0  0  0  0  0  0
  147.8106  127.6846  151.2327 N   0  0  0  0  0  0  0  0  0  0  0  0
  146.9891  127.8845  152.2749 C   0  0  0  0  0  0  0  0  0  0  0  0
  146.7078  127.0061  153.0908 O   0  0  0  0  0  0  0  0  0  0  0  0
  146.4016  129.2942  152.4198 C   0  0  0  0  0  0  0  0  0  0  0  0
  145.6483  129.7187  151.1417 C   0  0  0  0  0  0  0  0  0  0  0  0
  145.0950  131.1466  151.2772 C   0  0  0  0  0  0  0  0  0  0  0  0
  146.1576  132.0809  151.6352 N   0  0  0  0  0  0  0  0  0  0  0  0
  145.7760  133.3714  151.5258 C   0  0  0  0  0  0  0  0  0  0  0  0
  145.0547  133.7082  150.4286 N   0  0  0  0  0  0  0  0  0  0  0  0
  144.6328  134.9659  150.2658 C   0  0  0  0  0  0  0  0  0  0  0  0
  144.8118  136.0176  151.0681 N   0  0  0  0  0  0  0  0  0  0  0  0
  145.5262  135.6774  152.1793 C   0  0  0  0  0  0  0  0  0  0  0  0
  146.0447  134.3877  152.4865 C   0  0  0  0  0  0  0  0  0  0  0  0
  146.7078  134.4239  153.7077 N   0  0  0  0  0  0  0  0  0  0  0  0
  146.5977  135.6653  154.0947 C   0  0  0  0  0  0  0  0  0  0  0  0
  145.9052  136.4877  153.2354 N   0  0  0  0  0  0  0  0  0  0  0  0
  145.6287  137.9014  153.4266 C   0  0  0  0  0  0  0  0  0  0  0  0
  146.8707  138.8040  153.2171 C   0  0  1  0  0  0  0  0  0  0  0  0
  147.1088  139.0795  151.7102 C   0  0  0  0  0  0  0  0  0  0  0  0
  147.3706  137.8916  150.9932 O   0  0  0  0  0  0  0  0  0  0  0  0
  146.7296  140.1138  154.0413 C   0  0  2  0  0  0  0  0  0  0  0  0
  147.9313  141.0435  154.0162 C   0  0  0  0  0  0  0  0  0  0  0  0
  147.6824  141.9342  155.2275 C   0  0  0  0  0  0  0  0  0  0  0  0
  147.0199  141.1090  156.1772 O   0  0  0  0  0  0  0  0  0  0  0  0
  146.5837  139.9052  155.5542 C   0  0  0  0  0  0  0  0  0  0  0  0
  146.9024  131.7421  152.8455 C   0  0  0  0  0  0  0  0  0  0  0  0
  147.5011  130.3303  152.7342 C   0  0  0  0  0  0  0  0  0  0  0  0
  149.9139  125.0613  151.8335 H   0  0  0  0  0  0  0  0  0  0  0  0
  148.7971  125.7819  152.9875 H   0  0  0  0  0  0  0  0  0  0  0  0
  150.1270  126.7368  152.3324 H   0  0  0  0  0  0  0  0  0  0  0  0
  149.0952  126.5819  150.0333 H   0  0  0  0  0  0  0  0  0  0  0  0
  147.7614  125.6555  150.6807 H   0  0  0  0  0  0  0  0  0  0  0  0
  147.9868  128.4615  150.6122 H   0  0  0  0  0  0  0  0  0  0  0  0
  145.6909  129.2898  153.2487 H   0  0  0  0  0  0  0  0  0  0  0  0
  146.3145  129.6750  150.2784 H   0  0  0  0  0  0  0  0  0  0  0  0
  144.8298  129.0276  150.9360 H   0  0  0  0  0  0  0  0  0  0  0  0
  144.6293  131.4511  150.3388 H   0  0  0  0  0  0  0  0  0  0  0  0
  144.3186  131.1750  152.0433 H   0  0  0  0  0  0  0  0  0  0  0  0
  144.0696  135.1556  149.3640 H   0  0  0  0  0  0  0  0  0  0  0  0
  147.0206  136.0183  155.0240 H   0  0  0  0  0  0  0  0  0  0  0  0
  144.8278  138.1994  152.7490 H   0  0  0  0  0  0  0  0  0  0  0  0
  145.2330  138.0122  154.4358 H   0  0  0  0  0  0  0  0  0  0  0  0
  147.7335  138.2548  153.5976 H   0  0  0  0  0  0  0  0  0  0  0  0
  146.2340  139.5265  151.2406 H   0  0  0  0  0  0  0  0  0  0  0  0
  147.9310  139.7818  151.5698 H   0  0  0  0  0  0  0  0  0  0  0  0
  147.5495  137.2006  151.6127 H   0  0  0  0  0  0  0  0  0  0  0  0
  145.8606  140.6703  153.6857 H   0  0  0  0  0  0  0  0  0  0  0  0
  148.8544  140.4779  154.1513 H   0  0  0  0  0  0  0  0  0  0  0  0
  148.0127  141.6198  153.0944 H   0  0  0  0  0  0  0  0  0  0  0  0
  148.6027  142.3532  155.6344 H   0  0  0  0  0  0  0  0  0  0  0  0
  147.0204  142.7597  154.9628 H   0  0  0  0  0  0  0  0  0  0  0  0
  145.5599  139.6706  155.8466 H   0  0  0  0  0  0  0  0  0  0  0  0
  147.2264  139.0930  155.8967 H   0  0  0  0  0  0  0  0  0  0  0  0
  147.6963  132.4723  153.0082 H   0  0  0  0  0  0  0  0  0  0  0  0
  146.2432  131.7836  153.7126 H   0  0  0  0  0  0  0  0  0  0  0  0
  148.0082  130.0742  153.6652 H   0  0  0  0  0  0  0  0  0  0  0  0
  148.2634  130.3236  151.9533 H   0  0  0  0  0  0  0  0  0  0  0  0
  1  2  1  0  0  0  0
  1 30  1  0  0  0  0
  1 31  1  0  0  0  0
  1 32  1  0  0  0  0
  2  3  1  0  0  0  0
  2 33  1  0  0  0  0
  2 34  1  0  0  0  0
  3  4  1  0  0  0  0
  3 35  1  0  0  0  0
  4  5  2  0  0  0  0
  4  6  1  0  0  0  0
  6 29  1  0  0  0  0
  6  7  1  0  0  0  0
  6 36  1  0  0  0  0
  7  8  1  0  0  0  0
  7 37  1  0  0  0  0
  7 38  1  0  0  0  0
  8  9  1  0  0  0  0
  8 39  1  0  0  0  0
  8 40  1  0  0  0  0
  9 10  1  0  0  0  0
  9 28  1  0  0  0  0
 10 15  1  0  0  0  0
 10 11  2  0  0  0  0
 11 12  1  0  0  0  0
 12 13  2  0  0  0  0
 12 41  1  0  0  0  0
 13 14  1  0  0  0  0
 14 18  1  0  0  0  0
 14 15  2  0  0  0  0
 15 16  1  0  0  0  0
 16 17  2  0  0  0  0
 17 18  1  0  0  0  0
 17 42  1  0  0  0  0
 18 19  1  0  0  0  0
 19 20  1  0  0  0  0
 19 43  1  0  0  0  0
 19 44  1  0  0  0  0
 20 21  1  0  0  0  0
 20 23  1  0  0  0  0
 20 45  1  0  0  0  0
 21 22  1  0  0  0  0
 21 46  1  0  0  0  0
 21 47  1  0  0  0  0
 22 48  1  0  0  0  0
 23 27  1  0  0  0  0
 23 24  1  0  0  0  0
 23 49  1  0  0  0  0
 24 25  1  0  0  0  0
 24 50  1  0  0  0  0
 24 51  1  0  0  0  0
 25 26  1  0  0  0  0
 25 52  1  0  0  0  0
 25 53  1  0  0  0  0
 26 27  1  0  0  0  0
 27 54  1  0  0  0  0
 27 55  1  0  0  0  0
 28 29  1  0  0  0  0
 28 56  1  0  0  0  0
 28 57  1  0  0  0  0
 29 58  1  0  0  0  0
 29 59  1  0  0  0  0
M  END
> <s_m_source_file>
AV-unprocessed.smi

> <i_m_source_file_index>
273

> <i_lp_mmshare_version>
43012

> <i_f3d_flags>
0

> <s_epik_input>
W0NIM11bQ0gyXVtOSF1DKD1PKVtDSF0xW0NIMl1bQ0gyXU4oW0NIMl1bQ0gyXTEpYyhuW2NIXW4yKWMoYzIzKW5bY0hdbjNbQ0gyXVtDQEhdKFtDSDJdW09IXSlbQ0BASF00W0NIMl1bQ0gyXU9bQ0gyXTQ=

> <s_epik_cmdline>
J2VwaWtfcHl0aG9uJywgJy1waCcsICc3LjAnLCAnLXRuJywgJzgnLCAnLW1hJywgJzIwMCcsICctbWV0YWxfYmluZGluZycsICctaW1hZScsICc8aW5maWxlLm1hZT4nLCAnLW9tYWUnLCAnPG91dGZpbGUubWFlPic=

> <r_lp_tautomer_probability>
1

> <r_epik_Ionization_Penalty>
0.00226556

> <r_epik_Ionization_Penalty_Charging>
0

> <r_epik_Ionization_Penalty_Neutral>
0.00226556

> <r_epik_State_Penalty>
0.00139883

> <r_epik_Charging_Adjusted_Penalty>
0.00139883

> <i_epik_Tot_Q>
0

> <i_epik_Tot_abs_Q>
0

> <r_epik_Metal_State_Penalty>
-0

> <b_epik_Metal_Only>
0

> <s_lp_Force_Field>
OPLS_2005

> <r_lp_Energy>
43.4567

> <b_lp_Chiralities_Consistent>
1

> <s_lp_Variant>
AV-unprocessed.smi:273-2

> <Gold.Version>
5.8.1

> <Gold.Id.Protein>
6NUR|6NUR_protein|mol2

> <Gold.PLP.Fitness>
48.3867

> <Gold.PLP.PLP>
-41.2273

> <Gold.PLP.part.hbond>
-2.8608

> <Gold.PLP.part.metal>
0.0000

> <Gold.PLP.part.buried>
-1.0848

> <Gold.PLP.part.nonpolar>
-38.3004

> <Gold.PLP.part.repulsive>
0.7579

> <Gold.PLP.ligand.clash>
0.0000

> <Gold.PLP.ligand.torsion>
0.7033

> <Gold.PLP.Chemscore.Hbond>
1.7200

> <Gold.PLP.Chemscore.CHOScore>
0.9741

> <Gold.PLP.Chemscore.Metal>
0.0000

> <Gold.Chemscore.Hbonds>
donor molecule, donor type, donor heavy atom, donor atom, acceptor molecule, acceptor atom, score
      L1  H    22    48       P1  7948  0.59
      P1  H  7954  7966       L1    22  0.57
      L1  C    12    41       P1  7921  0.19

> <Gold.PLP.Chemscore.Internal.Correction>
0.4836

> <Gold.Rescore>
     Score         DG    S(hbond)    S(metal)    S(lipo)     H(rot)  DE(clash)    DE(int)     intcor
      9.88     -11.91       1.39        0.00      85.78       3.22       0.05       1.97       ----

> <Gold.Chemscore.Fitness>
9.8802

> <Gold.Chemscore.DG>
-11.9059

> <Gold.Chemscore.ZeroCoef>
-5.4800

> <Gold.Chemscore.Hbond>
1.3904

> <Gold.Chemscore.Metal>
0.0000

> <Gold.Chemscore.Lipo>
85.7807

> <Gold.Chemscore.Internal_Hbond>
0.0000

> <Gold.Chemscore.DEClash>
0.0545

> <Gold.Chemscore.DEInternal>
1.9712

> <Gold.Chemscore.Rot>
3.2244

> <Gold.Chemscore.Internal.Correction>
   9.000000E+99

> <Gold.Chemscore.Hbonds>
donor molecule, donor type, donor heavy atom, donor atom, acceptor molecule, acceptor atom, score
      L1  H    22    48       P1  7948  0.60
      P1  H  7954  7966       L1    22  0.49

> <Gold.Chemscore.Hbond.Weighted>
-4.6441

> <Gold.Chemscore.Metal.Weighted>
-0.0000

> <Gold.Chemscore.Lipo.Weighted>
-10.0363

> <Gold.Chemscore.Internal_Hbond.Weighted>
0.0000

> <Gold.Chemscore.DEClash.Weighted>
0.0545

> <Gold.Chemscore.DEInternal.Weighted>
1.9712

> <Gold.Chemscore.Rot.Weighted>
8.2545

> <Gold.Chemscore.Internal.Correction.Weighted>
   9.000000E+99

> <Gold.Protein.RotatedTorsions>
[ 6907 6896 6895 6894 ] final  177.14 input  -60.11 | X-H torsion
[ 7974 7965 7964 7962 ] final   62.80 input  175.53 | X-H torsion
[ 8008 7997 7996 7995 ] final -136.75 input   59.86 | X-H torsion
[ 10167 10162 10161 10158 ] final  176.26 input  -65.29 | X-H torsion
[ 10718 10713 10712 10709 ] final  -29.13 input   66.30 | X-H torsion
[ 10763 10752 10751 10750 ] final  -21.43 input  -60.55 | X-H torsion
[ 11005 11000 10999 10996 ] final   72.72 input  -57.11 | X-H torsion

> <Gold.Protein.ActiveResidues>
 VAL166  LYS551  ARG553  GLY616  TRP617  ASP618  TYR619  PRO620  LYS621  CYS622 
 ASP623  PHE694  ASN695  SER759  ASP760  ASP761  ALA762  ILE779  LEU786  VAL792 
 PHE793  MET794  SER795  GLU796  ALA797  LYS798  CYS799  TRP800  GLU811  SER814 

> <Gold.Protein.RotatedAtoms>
  151.7089  133.3312  159.3285 H   0  0  0  0  0  0  0  0  0  0  0  0  # atno 6907 bound_to 6896
  150.7703  134.6550  159.6318 H   0  0  0  0  0  0  0  0  0  0  0  0  # atno 6908 bound_to 6896
  152.3724  134.6717  160.0223 H   0  0  0  0  0  0  0  0  0  0  0  0  # atno 6909 bound_to 6896
  145.8692  139.3366  143.0773 H   0  0  0  0  0  0  0  0  0  0  0  0  # atno 7974 bound_to 7965
  155.4004  140.0505  157.3037 H   0  0  0  0  0  0  0  0  0  0  0  0  # atno 8008 bound_to 7997
  154.4993  140.2150  155.9340 H   0  0  0  0  0  0  0  0  0  0  0  0  # atno 8009 bound_to 7997
  156.1447  140.3147  155.8556 H   0  0  0  0  0  0  0  0  0  0  0  0  # atno 8010 bound_to 7997
  139.5207  144.2936  152.0442 H   0  0  0  0  0  0  0  0  0  0  0  0  # atno 10167 bound_to 10162
  156.4164  130.4418  149.7215 H   0  0  0  0  0  0  0  0  0  0  0  0  # atno 10718 bound_to 10713
  153.6360  135.6987  153.5258 H   0  0  0  0  0  0  0  0  0  0  0  0  # atno 10763 bound_to 10752
  153.2821  135.4182  155.1087 H   0  0  0  0  0  0  0  0  0  0  0  0  # atno 10764 bound_to 10752
  154.8511  135.3604  154.5903 H   0  0  0  0  0  0  0  0  0  0  0  0  # atno 10765 bound_to 10752
  139.9476  134.7284  156.0940 H   0  0  0  0  0  0  0  0  0  0  0  0  # atno 11005 bound_to 11000
  145.9157  140.9150  143.0431 LP  0  0  0  0  0  0  0  0  0  0  0  0  # atno 17320 bound_to 7965
  144.6726  140.1220  143.7449 LP  0  0  0  0  0  0  0  0  0  0  0  0  # atno 17321 bound_to 7965
  140.2386  144.4293  150.6269 LP  0  0  0  0  0  0  0  0  0  0  0  0  # atno 17342 bound_to 10162
  140.6306  143.2187  151.6504 LP  0  0  0  0  0  0  0  0  0  0  0  0  # atno 17343 bound_to 10162
  156.4174  130.7752  151.2767 LP  0  0  0  0  0  0  0  0  0  0  0  0  # atno 17370 bound_to 10713
  157.7508  131.0193  150.3662 LP  0  0  0  0  0  0  0  0  0  0  0  0  # atno 17371 bound_to 10713
  141.1131  133.6636  156.3028 LP  0  0  0  0  0  0  0  0  0  0  0  0  # atno 17394 bound_to 11000
  140.5796  134.5759  157.5476 LP  0  0  0  0  0  0  0  0  0  0  0  0  # atno 17395 bound_to 11000

$$$$
