AV-unprocessed.smi:1487|AV-procd|sdf|6007|dock2
  -GOLD-   22720 6103D 1   1.00000     0.00000
 Structure written by MMmdl.
 48 50  0  0  0  0  0  0  0  0  2 V2000
  153.3652  142.9203  161.6485 C   0  0  0  0  0  0  0  0  0  0  0  0
  152.7770  142.5973  160.2861 C   0  0  0  0  0  0  0  0  0  0  0  0
  153.0779  141.3543  159.6852 C   0  0  0  0  0  0  0  0  0  0  0  0
  152.5532  141.0160  158.4188 C   0  0  0  0  0  0  0  0  0  0  0  0
  152.7109  139.8708  157.6572 N   0  0  0  0  0  0  0  0  0  0  0  0
  151.9770  140.1572  156.5863 C   0  0  0  0  0  0  0  0  0  0  0  0
  151.3547  141.3514  156.5672 N   0  0  0  0  0  0  0  0  0  0  0  0
  150.4964  141.8704  155.5184 C   0  0  0  0  0  0  0  0  0  0  0  0
  149.6018  140.7809  154.8953 C   0  0  2  0  0  0  0  0  0  0  0  0
  150.3934  140.0630  153.9699 O   0  0  0  0  0  0  0  0  0  0  0  0
  148.3611  141.3503  154.1690 C   0  0  0  0  0  0  0  0  0  0  0  0
  147.5591  142.2703  155.0158 N   0  3  1  0  0  0  0  0  0  0  0  0
  146.2803  142.6920  154.3810 C   0  0  0  0  0  0  0  0  0  0  0  0
  145.5443  143.7303  155.2448 C   0  0  0  0  0  0  0  0  0  0  0  0
  145.2956  143.1917  156.6592 C   0  0  0  0  0  0  0  0  0  0  0  0
  146.6234  142.7382  157.2829 C   0  0  1  0  0  0  0  0  0  0  0  0
  146.3765  142.1515  158.5423 O   0  0  0  0  0  0  0  0  0  0  0  0
  147.3354  141.7172  156.3771 C   0  0  0  0  0  0  0  0  0  0  0  0
  151.7121  141.9628  157.7646 C   0  0  0  0  0  0  0  0  0  0  0  0
  151.4034  143.2020  158.3530 C   0  0  0  0  0  0  0  0  0  0  0  0
  151.9358  143.5238  159.6190 C   0  0  0  0  0  0  0  0  0  0  0  0
  151.5963  144.8642  160.2465 C   0  0  0  0  0  0  0  0  0  0  0  0
  154.0250  142.1248  161.9962 H   0  0  0  0  0  0  0  0  0  0  0  0
  152.5725  143.0443  162.3866 H   0  0  0  0  0  0  0  0  0  0  0  0
  153.9474  143.8410  161.6070 H   0  0  0  0  0  0  0  0  0  0  0  0
  153.7172  140.6476  160.1938 H   0  0  0  0  0  0  0  0  0  0  0  0
  151.8796  139.4558  155.7703 H   0  0  0  0  0  0  0  0  0  0  0  0
  149.8881  142.6754  155.9330 H   0  0  0  0  0  0  0  0  0  0  0  0
  151.1297  142.3228  154.7538 H   0  0  0  0  0  0  0  0  0  0  0  0
  149.3041  140.0954  155.6877 H   0  0  0  0  0  0  0  0  0  0  0  0
  149.8811  139.8895  153.1954 H   0  0  0  0  0  0  0  0  0  0  0  0
  148.6455  141.8839  153.2616 H   0  0  0  0  0  0  0  0  0  0  0  0
  147.7423  140.5121  153.8439 H   0  0  0  0  0  0  0  0  0  0  0  0
  146.4646  143.1237  153.3983 H   0  0  0  0  0  0  0  0  0  0  0  0
  145.6448  141.8186  154.2256 H   0  0  0  0  0  0  0  0  0  0  0  0
  146.1327  144.6474  155.2982 H   0  0  0  0  0  0  0  0  0  0  0  0
  144.5959  143.9979  154.7778 H   0  0  0  0  0  0  0  0  0  0  0  0
  144.8254  143.9585  157.2763 H   0  0  0  0  0  0  0  0  0  0  0  0
  144.5976  142.3542  156.6124 H   0  0  0  0  0  0  0  0  0  0  0  0
  147.2704  143.6035  157.4340 H   0  0  0  0  0  0  0  0  0  0  0  0
  147.1149  142.3233  159.1072 H   0  0  0  0  0  0  0  0  0  0  0  0
  146.7498  140.7992  156.3014 H   0  0  0  0  0  0  0  0  0  0  0  0
  148.2929  141.4473  156.8247 H   0  0  0  0  0  0  0  0  0  0  0  0
  150.7616  143.8995  157.8355 H   0  0  0  0  0  0  0  0  0  0  0  0
  150.9015  145.4302  159.6253 H   0  0  0  0  0  0  0  0  0  0  0  0
  152.4974  145.4647  160.3738 H   0  0  0  0  0  0  0  0  0  0  0  0
  151.1320  144.7237  161.2229 H   0  0  0  0  0  0  0  0  0  0  0  0
  148.1176  143.1020  155.1419 H   0  0  0  0  0  0  0  0  0  0  0  0
  1  2  1  0  0  0  0
  1 23  1  0  0  0  0
  1 24  1  0  0  0  0
  1 25  1  0  0  0  0
  2 21  1  0  0  0  0
  2  3  2  0  0  0  0
  3  4  1  0  0  0  0
  3 26  1  0  0  0  0
  4 19  2  0  0  0  0
  4  5  1  0  0  0  0
  5  6  2  0  0  0  0
  6  7  1  0  0  0  0
  6 27  1  0  0  0  0
  7  8  1  0  0  0  0
  7 19  1  0  0  0  0
  8  9  1  0  0  0  0
  8 28  1  0  0  0  0
  8 29  1  0  0  0  0
  9 10  1  0  0  0  0
  9 11  1  0  0  0  0
  9 30  1  0  0  0  0
 10 31  1  0  0  0  0
 11 12  1  0  0  0  0
 11 32  1  0  0  0  0
 11 33  1  0  0  0  0
 12 18  1  0  0  0  0
 12 13  1  0  0  0  0
 12 48  1  0  0  0  0
 13 14  1  0  0  0  0
 13 34  1  0  0  0  0
 13 35  1  0  0  0  0
 14 15  1  0  0  0  0
 14 36  1  0  0  0  0
 14 37  1  0  0  0  0
 15 16  1  0  0  0  0
 15 38  1  0  0  0  0
 15 39  1  0  0  0  0
 16 17  1  0  0  0  0
 16 18  1  0  0  0  0
 16 40  1  0  0  0  0
 17 41  1  0  0  0  0
 18 42  1  0  0  0  0
 18 43  1  0  0  0  0
 19 20  1  0  0  0  0
 20 21  2  0  0  0  0
 20 44  1  0  0  0  0
 21 22  1  0  0  0  0
 22 45  1  0  0  0  0
 22 46  1  0  0  0  0
 22 47  1  0  0  0  0
M  CHG  1  12   1
M  END
> <s_m_source_file>
AV-unprocessed.smi

> <i_m_source_file_index>
1487

> <i_lp_mmshare_version>
43012

> <i_f3d_flags>
0

> <s_epik_input>
W0NIM11jKFtjSF0xKWMoW0NIM10pW2NIXWMoYzEyKW4oW2NIXW4yKVtDSDJdW0NASF0oW09IXSlbQ0gyXU4zW0NIMl1bQ0gyXVtDSDJdW0NAQEhdKFtPSF0pW0NIMl0z

> <s_epik_cmdline>
J2VwaWtfcHl0aG9uJywgJy1waCcsICc3LjAnLCAnLXRuJywgJzgnLCAnLW1hJywgJzIwMCcsICctbWV0YWxfYmluZGluZycsICctaW1hZScsICc8aW5maWxlLm1hZT4nLCAnLW9tYWUnLCAnPG91dGZpbGUubWFlPic=

> <r_epik_Ionization_Penalty>
0.0940186

> <r_epik_Ionization_Penalty_Charging>
0.00679686

> <r_epik_Ionization_Penalty_Neutral>
0.0872218

> <r_epik_State_Penalty>
0.0799311

> <r_epik_Charging_Adjusted_Penalty>
0.086728

> <i_epik_Tot_Q>
1

> <i_epik_Tot_abs_Q>
1

> <r_epik_Metal_State_Penalty>
7.95545e-05

> <b_epik_Metal_Only>
0

> <s_lp_Force_Field>
OPLS_2005

> <r_lp_Energy>
20.897

> <b_lp_Chiralities_Consistent>
1

> <s_lp_Variant>
AV-unprocessed.smi:1487-1

> <Gold.Version>
5.8.1

> <Gold.Id.Protein>
6NUR|6NUR_protein|mol2

> <Gold.PLP.Fitness>
61.2536

> <Gold.PLP.PLP>
-47.4198

> <Gold.PLP.part.hbond>
-3.7749

> <Gold.PLP.part.metal>
0.0000

> <Gold.PLP.part.buried>
-5.6180

> <Gold.PLP.part.nonpolar>
-36.4067

> <Gold.PLP.part.repulsive>
0.0952

> <Gold.PLP.ligand.clash>
0.0000

> <Gold.PLP.ligand.torsion>
0.5896

> <Gold.PLP.Chemscore.Hbond>
4.9913

> <Gold.PLP.Chemscore.CHOScore>
0.0000

> <Gold.PLP.Chemscore.Metal>
0.0000

> <Gold.Chemscore.Hbonds>
donor molecule, donor type, donor heavy atom, donor atom, acceptor molecule, acceptor atom, score
      L1  H    10    31       P1  7957  0.93
      L1  H    12    48       P1  8028  2.00
      P1  H  7989  7998       L1    10  1.00
      P1  H  7997  8010       L1     5  1.00

> <Gold.PLP.Chemscore.Internal.Correction>
0.0393

> <Gold.Rescore>
     Score         DG    S(hbond)    S(metal)    S(lipo)     H(rot)  DE(clash)    DE(int)     intcor
     19.36     -20.50       2.33        0.00     120.25       2.67       0.37       0.77       ----

> <Gold.Chemscore.Fitness>
19.3552

> <Gold.Chemscore.DG>
-20.5016

> <Gold.Chemscore.ZeroCoef>
-5.4800

> <Gold.Chemscore.Hbond>
2.3327

> <Gold.Chemscore.Metal>
0.0000

> <Gold.Chemscore.Lipo>
120.2452

> <Gold.Chemscore.Internal_Hbond>
0.0000

> <Gold.Chemscore.DEClash>
0.3717

> <Gold.Chemscore.DEInternal>
0.7746

> <Gold.Chemscore.Rot>
2.6712

> <Gold.Chemscore.Internal.Correction>
   9.000000E+99

> <Gold.Chemscore.Hbonds>
donor molecule, donor type, donor heavy atom, donor atom, acceptor molecule, acceptor atom, score
      L1  H    10    31       P1  7957  0.85
      L1  H    12    48       P1  8028  0.94
      P1  H  7989  7998       L1    10  0.38
      P1  H  7997  8010       L1     5  0.10

> <Gold.Chemscore.Hbond.Weighted>
-7.7912

> <Gold.Chemscore.Metal.Weighted>
-0.0000

> <Gold.Chemscore.Lipo.Weighted>
-14.0687

> <Gold.Chemscore.Internal_Hbond.Weighted>
0.0000

> <Gold.Chemscore.DEClash.Weighted>
0.3717

> <Gold.Chemscore.DEInternal.Weighted>
0.7746

> <Gold.Chemscore.Rot.Weighted>
6.8383

> <Gold.Chemscore.Internal.Correction.Weighted>
   9.000000E+99

> <Gold.Protein.RotatedTorsions>
[ 6907 6896 6895 6894 ] final  -68.97 input  -60.11 | X-H torsion
[ 7974 7965 7964 7962 ] final  160.84 input  175.53 | X-H torsion
[ 8008 7997 7996 7995 ] final   41.80 input   59.86 | X-H torsion
[ 10167 10162 10161 10158 ] final  -22.23 input  -65.29 | X-H torsion
[ 10718 10713 10712 10709 ] final  170.95 input   66.30 | X-H torsion
[ 10763 10752 10751 10750 ] final -137.12 input  -60.55 | X-H torsion
[ 11005 11000 10999 10996 ] final -123.79 input  -57.11 | X-H torsion

> <Gold.Protein.ActiveResidues>
 VAL166  LYS551  ARG553  GLY616  TRP617  ASP618  TYR619  PRO620  LYS621  CYS622 
 ASP623  PHE694  ASN695  SER759  ASP760  ASP761  ALA762  ILE779  LEU786  VAL792 
 PHE793  MET794  SER795  GLU796  ALA797  LYS798  CYS799  TRP800  GLU811  SER814 

> <Gold.Protein.RotatedAtoms>
  150.7329  134.5664  159.5867 H   0  0  0  0  0  0  0  0  0  0  0  0  # atno 6907 bound_to 6896
  152.3114  134.7489  160.0344 H   0  0  0  0  0  0  0  0  0  0  0  0  # atno 6908 bound_to 6896
  151.8036  133.3337  159.3571 H   0  0  0  0  0  0  0  0  0  0  0  0  # atno 6909 bound_to 6896
  144.7716  139.7813  143.6295 H   0  0  0  0  0  0  0  0  0  0  0  0  # atno 7974 bound_to 7965
  155.2757  140.3369  155.4262 H   0  0  0  0  0  0  0  0  0  0  0  0  # atno 8008 bound_to 7997
  156.2113  140.1771  156.7731 H   0  0  0  0  0  0  0  0  0  0  0  0  # atno 8009 bound_to 7997
  154.5690  140.0673  156.8919 H   0  0  0  0  0  0  0  0  0  0  0  0  # atno 8010 bound_to 7997
  140.7285  143.4554  151.0456 H   0  0  0  0  0  0  0  0  0  0  0  0  # atno 10167 bound_to 10162
  157.0006  131.0175  151.2831 H   0  0  0  0  0  0  0  0  0  0  0  0  # atno 10718 bound_to 10713
  154.8669  135.3651  154.5172 H   0  0  0  0  0  0  0  0  0  0  0  0  # atno 10763 bound_to 10752
  153.5804  135.7018  153.5470 H   0  0  0  0  0  0  0  0  0  0  0  0  # atno 10764 bound_to 10752
  153.3462  135.4084  155.1573 H   0  0  0  0  0  0  0  0  0  0  0  0  # atno 10765 bound_to 10752
  140.9891  134.0564  157.3675 H   0  0  0  0  0  0  0  0  0  0  0  0  # atno 11005 bound_to 11000
  146.1867  139.5086  142.9832 LP  0  0  0  0  0  0  0  0  0  0  0  0  # atno 17320 bound_to 7965
  145.6307  141.0304  143.1865 LP  0  0  0  0  0  0  0  0  0  0  0  0  # atno 17321 bound_to 7965
  139.8234  143.7789  152.3178 LP  0  0  0  0  0  0  0  0  0  0  0  0  # atno 17342 bound_to 10162
  139.7880  144.7421  150.9995 LP  0  0  0  0  0  0  0  0  0  0  0  0  # atno 17343 bound_to 10162
  157.5392  130.8109  149.8009 LP  0  0  0  0  0  0  0  0  0  0  0  0  # atno 17370 bound_to 10713
  156.0172  130.3809  150.2073 LP  0  0  0  0  0  0  0  0  0  0  0  0  # atno 17371 bound_to 10713
  139.8984  135.0154  156.7147 LP  0  0  0  0  0  0  0  0  0  0  0  0  # atno 17394 bound_to 11000
  140.7067  133.9259  155.8058 LP  0  0  0  0  0  0  0  0  0  0  0  0  # atno 17395 bound_to 11000

$$$$
