AV-unprocessed.smi:1047|AV-procd|sdf|4582|dock2
  -GOLD-   22720 3 53D 1   1.00000     0.00000
 Structure written by MMmdl.
 58 60  0  0  0  0  0  0  0  0  4 V2000
  144.3049  142.0854  155.4581 C   0  0  0  0  0  0  0  0  0  0  0  0
  145.4186  141.0635  155.1890 C   0  0  0  0  0  0  0  0  0  0  0  0
  145.9205  141.1250  153.7904 N   0  3  1  0  0  0  0  0  0  0  0  0
  146.4417  142.4596  153.4066 C   0  0  0  0  0  0  0  0  0  0  0  0
  147.8522  142.6906  153.9769 C   0  0  0  0  0  0  0  0  0  0  0  0
  148.7160  141.6497  153.5360 O   0  0  0  0  0  0  0  0  0  0  0  0
  148.3071  140.3640  153.9911 C   0  0  2  0  0  0  0  0  0  0  0  0
  149.3620  139.3509  153.5146 C   0  0  0  0  0  0  0  0  0  0  0  0
  149.2130  138.0432  154.1860 N   0  3  0  0  0  0  0  0  0  0  0  0
  150.1956  137.8040  155.2630 C   0  0  0  0  0  0  0  0  0  0  0  0
  151.5182  138.5408  154.9905 C   0  0  2  0  0  0  0  0  0  0  0  0
  152.4729  137.6000  154.5384 O   0  0  0  0  0  0  0  0  0  0  0  0
  152.0492  139.2546  156.2499 C   0  0  0  0  0  0  0  0  0  0  0  0
  151.4860  140.6018  156.4262 N   0  0  0  0  0  0  0  0  0  0  0  0
  150.6657  141.3138  155.6056 C   0  0  0  0  0  0  0  0  0  0  0  0
  150.4155  142.5082  156.2090 N   0  3  0  0  0  0  0  0  0  0  0  0
  151.0827  142.5607  157.4345 C   0  0  0  0  0  0  0  0  0  0  0  0
  151.1359  143.5602  158.3984 C   0  0  0  0  0  0  0  0  0  0  0  0
  151.9131  143.3045  159.5503 C   0  0  0  0  0  0  0  0  0  0  0  0
  151.9956  144.3779  160.6224 C   0  0  0  0  0  0  0  0  0  0  0  0
  152.6034  142.0748  159.7067 C   0  0  0  0  0  0  0  0  0  0  0  0
  153.4315  141.8086  160.9523 C   0  0  0  0  0  0  0  0  0  0  0  0
  152.5386  141.0715  158.7133 C   0  0  0  0  0  0  0  0  0  0  0  0
  151.7691  141.3394  157.5831 C   0  0  0  0  0  0  0  0  0  0  0  0
  146.8966  140.0637  153.4298 C   0  0  0  0  0  0  0  0  0  0  0  0
  144.0278  142.0794  156.5127 H   0  0  0  0  0  0  0  0  0  0  0  0
  143.4017  141.8711  154.8878 H   0  0  0  0  0  0  0  0  0  0  0  0
  144.6291  143.0964  155.2097 H   0  0  0  0  0  0  0  0  0  0  0  0
  146.2401  141.2875  155.8703 H   0  0  0  0  0  0  0  0  0  0  0  0
  145.0810  140.0584  155.4399 H   0  0  0  0  0  0  0  0  0  0  0  0
  146.4809  142.5124  152.3177 H   0  0  0  0  0  0  0  0  0  0  0  0
  145.7594  143.2486  153.7249 H   0  0  0  0  0  0  0  0  0  0  0  0
  148.2451  143.6447  153.6257 H   0  0  0  0  0  0  0  0  0  0  0  0
  147.8381  142.7370  155.0668 H   0  0  0  0  0  0  0  0  0  0  0  0
  148.2951  140.3667  155.0821 H   0  0  0  0  0  0  0  0  0  0  0  0
  149.3040  139.2218  152.4329 H   0  0  0  0  0  0  0  0  0  0  0  0
  150.3586  139.7358  153.7352 H   0  0  0  0  0  0  0  0  0  0  0  0
  148.2883  137.9899  154.5903 H   0  0  0  0  0  0  0  0  0  0  0  0
  149.7666  138.1528  156.2035 H   0  0  0  0  0  0  0  0  0  0  0  0
  150.3722  136.7326  155.3711 H   0  0  0  0  0  0  0  0  0  0  0  0
  151.3676  139.2799  154.2024 H   0  0  0  0  0  0  0  0  0  0  0  0
  153.2929  138.0489  154.3952 H   0  0  0  0  0  0  0  0  0  0  0  0
  151.7850  138.6807  157.1392 H   0  0  0  0  0  0  0  0  0  0  0  0
  153.1377  139.3164  156.2430 H   0  0  0  0  0  0  0  0  0  0  0  0
  150.2808  140.9907  154.6491 H   0  0  0  0  0  0  0  0  0  0  0  0
  150.6068  144.4937  158.2734 H   0  0  0  0  0  0  0  0  0  0  0  0
  151.5877  144.0109  161.5644 H   0  0  0  0  0  0  0  0  0  0  0  0
  151.4335  145.2684  160.3398 H   0  0  0  0  0  0  0  0  0  0  0  0
  153.0309  144.6772  160.7859 H   0  0  0  0  0  0  0  0  0  0  0  0
  153.8821  140.8159  160.9283 H   0  0  0  0  0  0  0  0  0  0  0  0
  152.8091  141.8692  161.8456 H   0  0  0  0  0  0  0  0  0  0  0  0
  154.2371  142.5379  161.0403 H   0  0  0  0  0  0  0  0  0  0  0  0
  153.0695  140.1389  158.8337 H   0  0  0  0  0  0  0  0  0  0  0  0
  146.5458  139.0864  153.7591 H   0  0  0  0  0  0  0  0  0  0  0  0
  146.9462  140.0135  152.3412 H   0  0  0  0  0  0  0  0  0  0  0  0
  149.3083  137.3095  153.4985 H   0  0  0  0  0  0  0  0  0  0  0  0
  145.1041  140.9751  153.2140 H   0  0  0  0  0  0  0  0  0  0  0  0
  149.8301  143.2325  155.8124 H   0  0  0  0  0  0  0  0  0  0  0  0
  1  2  1  0  0  0  0
  1 26  1  0  0  0  0
  1 27  1  0  0  0  0
  1 28  1  0  0  0  0
  2  3  1  0  0  0  0
  2 29  1  0  0  0  0
  2 30  1  0  0  0  0
  3 25  1  0  0  0  0
  3  4  1  0  0  0  0
  3 57  1  0  0  0  0
  4  5  1  0  0  0  0
  4 31  1  0  0  0  0
  4 32  1  0  0  0  0
  5  6  1  0  0  0  0
  5 33  1  0  0  0  0
  5 34  1  0  0  0  0
  6  7  1  0  0  0  0
  7  8  1  0  0  0  0
  7 25  1  0  0  0  0
  7 35  1  0  0  0  0
  8  9  1  0  0  0  0
  8 36  1  0  0  0  0
  8 37  1  0  0  0  0
  9 10  1  0  0  0  0
  9 38  1  0  0  0  0
  9 56  1  0  0  0  0
 10 11  1  0  0  0  0
 10 39  1  0  0  0  0
 10 40  1  0  0  0  0
 11 12  1  0  0  0  0
 11 13  1  0  0  0  0
 11 41  1  0  0  0  0
 12 42  1  0  0  0  0
 13 14  1  0  0  0  0
 13 43  1  0  0  0  0
 13 44  1  0  0  0  0
 14 24  1  0  0  0  0
 14 15  1  0  0  0  0
 15 16  2  0  0  0  0
 15 45  1  0  0  0  0
 16 17  1  0  0  0  0
 16 58  1  0  0  0  0
 17 24  2  0  0  0  0
 17 18  1  0  0  0  0
 18 19  2  0  0  0  0
 18 46  1  0  0  0  0
 19 20  1  0  0  0  0
 19 21  1  0  0  0  0
 20 47  1  0  0  0  0
 20 48  1  0  0  0  0
 20 49  1  0  0  0  0
 21 22  1  0  0  0  0
 21 23  2  0  0  0  0
 22 50  1  0  0  0  0
 22 51  1  0  0  0  0
 22 52  1  0  0  0  0
 23 24  1  0  0  0  0
 23 53  1  0  0  0  0
 25 54  1  0  0  0  0
 25 55  1  0  0  0  0
M  CHG  1   3   1
M  CHG  1   9   1
M  CHG  1  16   1
M  END
> <s_m_source_file>
AV-unprocessed.smi

> <i_m_source_file_index>
1047

> <i_lp_mmshare_version>
43012

> <i_f3d_flags>
0

> <s_epik_input>
W0NIM11bQ0gyXU4xW0NIMl1bQ0gyXU9bQ0BIXShbQ0gyXTEpW0NIMl1bTkhdW0NIMl1bQ0BIXShbT0hdKVtDSDJdbihbY0hdbjIpYyhjMjMpW2NIXWMoW0NIM10pYyhbY0hdMylbQ0gzXQ==

> <s_epik_cmdline>
J2VwaWtfcHl0aG9uJywgJy1waCcsICc3LjAnLCAnLXRuJywgJzgnLCAnLW1hJywgJzIwMCcsICctbWV0YWxfYmluZGluZycsICctaW1hZScsICc8aW5maWxlLm1hZT4nLCAnLW9tYWUnLCAnPG91dGZpbGUubWFlPic=

> <r_epik_Ionization_Penalty>
1.6114

> <r_epik_Ionization_Penalty_Charging>
1.61139

> <r_epik_Ionization_Penalty_Neutral>
5.04732e-06

> <r_epik_State_Penalty>
1.63724

> <r_epik_Charging_Adjusted_Penalty>
3.24864

> <i_epik_Tot_Q>
3

> <i_epik_Tot_abs_Q>
3

> <r_epik_Metal_State_Penalty>
5.64594

> <b_epik_Metal_Only>
0

> <s_lp_Force_Field>
OPLS_2005

> <r_lp_Energy>
42.8961

> <b_lp_Chiralities_Consistent>
1

> <s_lp_Variant>
AV-unprocessed.smi:1047-23

> <Gold.Version>
5.8.1

> <Gold.Id.Protein>
6NUR|6NUR_protein|mol2

> <Gold.PLP.Fitness>
66.8821

> <Gold.PLP.PLP>
-48.9167

> <Gold.PLP.part.hbond>
-5.0000

> <Gold.PLP.part.metal>
0.0000

> <Gold.PLP.part.buried>
-0.9835

> <Gold.PLP.part.nonpolar>
-43.2456

> <Gold.PLP.part.repulsive>
0.2696

> <Gold.PLP.ligand.clash>
0.5181

> <Gold.PLP.ligand.torsion>
1.5604

> <Gold.PLP.Chemscore.Hbond>
7.1623

> <Gold.PLP.Chemscore.CHOScore>
0.0000

> <Gold.PLP.Chemscore.Metal>
0.0000

> <Gold.Chemscore.Hbonds>
donor molecule, donor type, donor heavy atom, donor atom, acceptor molecule, acceptor atom, score
      L1  H     3    57       P1 10175  2.00
      L1  H     9    56       P1  7948  2.00
      L1  H    16    58       P1  8028  2.00
      P1  H  8011  8017       L1     6  0.69
      P1  H 10752 10765       L1    12  0.61

> <Gold.PLP.Chemscore.Internal.Correction>
0.1173

> <Gold.Rescore>
     Score         DG    S(hbond)    S(metal)    S(lipo)     H(rot)  DE(clash)    DE(int)     intcor
     23.07     -26.95       3.82        0.00     135.47       2.78       2.41       1.48       ----

> <Gold.Chemscore.Fitness>
23.0651

> <Gold.Chemscore.DG>
-26.9538

> <Gold.Chemscore.ZeroCoef>
-5.4800

> <Gold.Chemscore.Hbond>
3.8183

> <Gold.Chemscore.Metal>
0.0000

> <Gold.Chemscore.Lipo>
135.4667

> <Gold.Chemscore.Internal_Hbond>
0.0000

> <Gold.Chemscore.DEClash>
2.4112

> <Gold.Chemscore.DEInternal>
1.4775

> <Gold.Chemscore.Rot>
2.7848

> <Gold.Chemscore.Internal.Correction>
   9.000000E+99

> <Gold.Chemscore.Hbonds>
donor molecule, donor type, donor heavy atom, donor atom, acceptor molecule, acceptor atom, score
      L1  H     3    57       P1 10175  0.45
      L1  H     9    56       P1  7948  0.96
      L1  H    16    58       P1  8028  1.00
      P1  H  8011  8017       L1     6  0.30
      P1  H 10752 10765       L1    12  0.23

> <Gold.Chemscore.Hbond.Weighted>
-12.7532

> <Gold.Chemscore.Metal.Weighted>
-0.0000

> <Gold.Chemscore.Lipo.Weighted>
-15.8496

> <Gold.Chemscore.Internal_Hbond.Weighted>
0.0000

> <Gold.Chemscore.DEClash.Weighted>
2.4112

> <Gold.Chemscore.DEInternal.Weighted>
1.4775

> <Gold.Chemscore.Rot.Weighted>
7.1291

> <Gold.Chemscore.Internal.Correction.Weighted>
   9.000000E+99

> <Gold.Protein.RotatedTorsions>
[ 6907 6896 6895 6894 ] final   87.30 input  -60.11 | X-H torsion
[ 7974 7965 7964 7962 ] final  -77.44 input  175.53 | X-H torsion
[ 8008 7997 7996 7995 ] final   99.00 input   59.86 | X-H torsion
[ 10167 10162 10161 10158 ] final   86.76 input  -65.29 | X-H torsion
[ 10718 10713 10712 10709 ] final  159.23 input   66.30 | X-H torsion
[ 10763 10752 10751 10750 ] final  167.70 input  -60.55 | X-H torsion
[ 11005 11000 10999 10996 ] final   62.08 input  -57.11 | X-H torsion

> <Gold.Protein.ActiveResidues>
 VAL166  LYS551  ARG553  GLY616  TRP617  ASP618  TYR619  PRO620  LYS621  CYS622 
 ASP623  PHE694  ASN695  SER759  ASP760  ASP761  ALA762  ILE779  LEU786  VAL792 
 PHE793  MET794  SER795  GLU796  ALA797  LYS798  CYS799  TRP800  GLU811  SER814 

> <Gold.Protein.RotatedAtoms>
  152.5409  134.2297  159.8819 H   0  0  0  0  0  0  0  0  0  0  0  0  # atno 6907 bound_to 6896
  151.2270  133.4464  159.2610 H   0  0  0  0  0  0  0  0  0  0  0  0  # atno 6908 bound_to 6896
  151.0752  134.9836  159.8384 H   0  0  0  0  0  0  0  0  0  0  0  0  # atno 6909 bound_to 6896
  145.5997  140.9411  143.1247 H   0  0  0  0  0  0  0  0  0  0  0  0  # atno 7974 bound_to 7965
  156.1061  140.3235  155.8008 H   0  0  0  0  0  0  0  0  0  0  0  0  # atno 8008 bound_to 7997
  155.4754  140.0550  157.2991 H   0  0  0  0  0  0  0  0  0  0  0  0  # atno 8009 bound_to 7997
  154.4728  140.2019  155.9966 H   0  0  0  0  0  0  0  0  0  0  0  0  # atno 8010 bound_to 7997
  139.8842  144.6422  150.8809 H   0  0  0  0  0  0  0  0  0  0  0  0  # atno 10167 bound_to 10162
  157.1671  131.0601  151.2202 H   0  0  0  0  0  0  0  0  0  0  0  0  # atno 10718 bound_to 10713
  154.3577  135.2753  155.2337 H   0  0  0  0  0  0  0  0  0  0  0  0  # atno 10763 bound_to 10752
  154.4539  135.5924  153.6213 H   0  0  0  0  0  0  0  0  0  0  0  0  # atno 10764 bound_to 10752
  152.9845  135.6048  154.3794 H   0  0  0  0  0  0  0  0  0  0  0  0  # atno 10765 bound_to 10752
  140.0117  134.6286  155.9771 H   0  0  0  0  0  0  0  0  0  0  0  0  # atno 11005 bound_to 11000
  144.7315  139.7711  143.7345 LP  0  0  0  0  0  0  0  0  0  0  0  0  # atno 17320 bound_to 7965
  146.1585  139.4692  143.0003 LP  0  0  0  0  0  0  0  0  0  0  0  0  # atno 17321 bound_to 7965
  140.7739  143.3561  151.1919 LP  0  0  0  0  0  0  0  0  0  0  0  0  # atno 17342 bound_to 10162
  139.7168  143.9288  152.2970 LP  0  0  0  0  0  0  0  0  0  0  0  0  # atno 17343 bound_to 10162
  157.4078  130.7368  149.6816 LP  0  0  0  0  0  0  0  0  0  0  0  0  # atno 17370 bound_to 10713
  155.9744  130.4103  150.3924 LP  0  0  0  0  0  0  0  0  0  0  0  0  # atno 17371 bound_to 10713
  141.1715  133.6537  156.4670 LP  0  0  0  0  0  0  0  0  0  0  0  0  # atno 17394 bound_to 11000
  140.4543  134.6900  157.5055 LP  0  0  0  0  0  0  0  0  0  0  0  0  # atno 17395 bound_to 11000

$$$$
