AV-unprocessed.smi:765|AV-procd|sdf|3650|dock8
  -GOLD-   22720 1 53D 1   1.00000     0.00000
 Structure written by MMmdl.
 39 40  0  0  0  0  0  0  0  0  1 V2000
  151.5885  141.5333  158.7537 C   0  0  0  0  0  0  0  0  0  0  0  0
  151.0502  140.4849  157.7705 C   0  0  1  0  0  0  0  0  0  0  0  0
  151.0993  140.9955  156.3191 C   0  0  0  0  0  0  0  0  0  0  0  0
  150.5736  139.9449  155.3302 C   0  0  0  0  0  0  0  0  0  0  0  0
  151.3265  138.6102  155.4802 C   0  0  0  0  0  0  0  0  0  0  0  0
  151.2836  138.0610  156.9233 C   0  0  2  0  0  0  0  0  0  0  0  0
  152.1375  136.8603  156.9951 C   0  0  0  0  0  0  0  0  0  0  0  0
  152.8078  135.9187  157.0532 N   0  0  0  0  0  0  0  0  0  0  0  0
  149.8928  137.7274  157.2421 N   0  0  0  0  0  0  0  0  0  0  0  0
  149.4330  137.1364  158.3577 C   0  0  0  0  0  0  0  0  0  0  0  0
  150.1681  136.6631  159.2245 O   0  0  0  0  0  0  0  0  0  0  0  0
  147.9043  137.1180  158.5197 C   0  0  1  0  0  0  0  0  0  0  0  0
  147.1727  136.5119  157.3046 C   0  0  0  0  0  0  0  0  0  0  0  0
  147.5461  136.4439  159.7639 N   0  0  0  0  0  0  0  0  0  0  0  0
  147.5893  135.0923  160.0414 C   0  0  0  0  0  0  0  0  0  0  0  0
  147.1084  134.9168  161.3072 C   0  0  0  0  0  0  0  0  0  0  0  0
  146.7814  136.2347  161.7301 C   0  0  0  0  0  0  0  0  0  0  0  0
  147.0377  137.1443  160.8050 N   0  0  0  0  0  0  0  0  0  0  0  0
  151.8158  139.1493  157.8907 C   0  0  0  0  0  0  0  0  0  0  0  0
  152.6346  141.7666  158.5533 H   0  0  0  0  0  0  0  0  0  0  0  0
  151.5164  141.1792  159.7823 H   0  0  0  0  0  0  0  0  0  0  0  0
  151.0210  142.4617  158.6855 H   0  0  0  0  0  0  0  0  0  0  0  0
  150.0058  140.3097  158.0319 H   0  0  0  0  0  0  0  0  0  0  0  0
  150.5134  141.9106  156.2247 H   0  0  0  0  0  0  0  0  0  0  0  0
  152.1249  141.2581  156.0557 H   0  0  0  0  0  0  0  0  0  0  0  0
  149.5058  139.7926  155.4914 H   0  0  0  0  0  0  0  0  0  0  0  0
  150.6776  140.3148  154.3099 H   0  0  0  0  0  0  0  0  0  0  0  0
  150.9152  137.8758  154.7863 H   0  0  0  0  0  0  0  0  0  0  0  0
  152.3656  138.7564  155.1810 H   0  0  0  0  0  0  0  0  0  0  0  0
  149.2021  138.0654  156.5883 H   0  0  0  0  0  0  0  0  0  0  0  0
  147.5807  138.1562  158.6094 H   0  0  0  0  0  0  0  0  0  0  0  0
  147.3940  137.0690  156.3937 H   0  0  0  0  0  0  0  0  0  0  0  0
  146.0923  136.5398  157.4490 H   0  0  0  0  0  0  0  0  0  0  0  0
  147.4557  135.4724  157.1334 H   0  0  0  0  0  0  0  0  0  0  0  0
  147.9505  134.3735  159.3209 H   0  0  0  0  0  0  0  0  0  0  0  0
  147.0012  133.9879  161.8472 H   0  0  0  0  0  0  0  0  0  0  0  0
  146.3642  136.5555  162.6733 H   0  0  0  0  0  0  0  0  0  0  0  0
  152.8723  139.3244  157.6820 H   0  0  0  0  0  0  0  0  0  0  0  0
  151.7770  138.7935  158.9207 H   0  0  0  0  0  0  0  0  0  0  0  0
  1  2  1  0  0  0  0
  1 20  1  0  0  0  0
  1 21  1  0  0  0  0
  1 22  1  0  0  0  0
  2 19  1  0  0  0  0
  2  3  1  0  0  0  0
  2 23  1  0  0  0  0
  3  4  1  0  0  0  0
  3 24  1  0  0  0  0
  3 25  1  0  0  0  0
  4  5  1  0  0  0  0
  4 26  1  0  0  0  0
  4 27  1  0  0  0  0
  5  6  1  0  0  0  0
  5 28  1  0  0  0  0
  5 29  1  0  0  0  0
  6  7  1  0  0  0  0
  6  9  1  0  0  0  0
  6 19  1  0  0  0  0
  7  8  3  0  0  0  0
  9 10  1  0  0  0  0
  9 30  1  0  0  0  0
 10 11  2  0  0  0  0
 10 12  1  0  0  0  0
 12 13  1  0  0  0  0
 12 14  1  0  0  0  0
 12 31  1  0  0  0  0
 13 32  1  0  0  0  0
 13 33  1  0  0  0  0
 13 34  1  0  0  0  0
 14 18  1  0  0  0  0
 14 15  1  0  0  0  0
 15 16  2  0  0  0  0
 15 35  1  0  0  0  0
 16 17  1  0  0  0  0
 16 36  1  0  0  0  0
 17 18  2  0  0  0  0
 17 37  1  0  0  0  0
 19 38  1  0  0  0  0
 19 39  1  0  0  0  0
M  END
> <s_m_source_file>
AV-unprocessed.smi

> <i_m_source_file_index>
765

> <i_lp_mmshare_version>
43012

> <i_f3d_flags>
0

> <s_epik_input>
W0NIM11bQ0BASF0oW0NIMl0xKVtDSDJdW0NIMl1bQ0gyXVtDQEBdMShDI04pW05IXUMoPU8pW0NASF0oW0NIM10pbjJbY0hdW2NIXVtjSF1uMg==

> <s_epik_cmdline>
J2VwaWtfcHl0aG9uJywgJy1waCcsICc3LjAnLCAnLXRuJywgJzgnLCAnLW1hJywgJzIwMCcsICctbWV0YWxfYmluZGluZycsICctaW1hZScsICc8aW5maWxlLm1hZT4nLCAnLW9tYWUnLCAnPG91dGZpbGUubWFlPic=

> <r_lp_tautomer_probability>
1

> <r_epik_Ionization_Penalty>
2.71142e-05

> <r_epik_Ionization_Penalty_Charging>
0

> <r_epik_Ionization_Penalty_Neutral>
2.71142e-05

> <r_epik_State_Penalty>
-0

> <r_epik_Charging_Adjusted_Penalty>
0

> <i_epik_Tot_Q>
0

> <i_epik_Tot_abs_Q>
0

> <r_epik_Metal_State_Penalty>
-0

> <b_epik_Metal_Only>
0

> <s_lp_Force_Field>
OPLS_2005

> <r_lp_Energy>
11.0403

> <b_lp_Chiralities_Consistent>
1

> <s_lp_Variant>
AV-unprocessed.smi:765-8

> <Gold.Version>
5.8.1

> <Gold.Id.Protein>
6NUR|6NUR_protein|mol2

> <Gold.PLP.Fitness>
41.4677

> <Gold.PLP.PLP>
-30.3533

> <Gold.PLP.part.hbond>
-4.0000

> <Gold.PLP.part.metal>
0.0000

> <Gold.PLP.part.buried>
-5.3417

> <Gold.PLP.part.nonpolar>
-21.7067

> <Gold.PLP.part.repulsive>
0.0338

> <Gold.PLP.ligand.clash>
0.0000

> <Gold.PLP.ligand.torsion>
0.2528

> <Gold.PLP.Chemscore.Hbond>
3.8400

> <Gold.PLP.Chemscore.CHOScore>
0.0000

> <Gold.PLP.Chemscore.Metal>
0.0000

> <Gold.Chemscore.Hbonds>
donor molecule, donor type, donor heavy atom, donor atom, acceptor molecule, acceptor atom, score
      P1  H  6896  6907       L1    11  1.00
      P1  H  6934  6947       L1    18  1.00
      P1  H 10752 10763       L1     8  1.00

> <Gold.PLP.Chemscore.Internal.Correction>
0.1001

> <Gold.Rescore>
     Score         DG    S(hbond)    S(metal)    S(lipo)     H(rot)  DE(clash)    DE(int)     intcor
     19.44     -20.88       3.37        0.00      66.54       1.42       0.00       1.44       ----

> <Gold.Chemscore.Fitness>
19.4408

> <Gold.Chemscore.DG>
-20.8829

> <Gold.Chemscore.ZeroCoef>
-5.4800

> <Gold.Chemscore.Hbond>
3.3677

> <Gold.Chemscore.Metal>
0.0000

> <Gold.Chemscore.Lipo>
66.5439

> <Gold.Chemscore.Internal_Hbond>
0.0000

> <Gold.Chemscore.DEClash>
0.0000

> <Gold.Chemscore.DEInternal>
1.4421

> <Gold.Chemscore.Rot>
1.4183

> <Gold.Chemscore.Internal.Correction>
   9.000000E+99

> <Gold.Chemscore.Hbonds>
donor molecule, donor type, donor heavy atom, donor atom, acceptor molecule, acceptor atom, score
      P1  H  6896  6907       L1    11  0.99
      P1  H  6934  6947       L1    18  0.99
      P1  H 10752 10763       L1     8  0.91

> <Gold.Chemscore.Hbond.Weighted>
-11.2482

> <Gold.Chemscore.Metal.Weighted>
-0.0000

> <Gold.Chemscore.Lipo.Weighted>
-7.7856

> <Gold.Chemscore.Internal_Hbond.Weighted>
0.0000

> <Gold.Chemscore.DEClash.Weighted>
0.0000

> <Gold.Chemscore.DEInternal.Weighted>
1.4421

> <Gold.Chemscore.Rot.Weighted>
3.6309

> <Gold.Chemscore.Internal.Correction.Weighted>
   9.000000E+99

> <Gold.Protein.RotatedTorsions>
[ 6907 6896 6895 6894 ] final  -38.93 input  -60.11 | X-H torsion
[ 7974 7965 7964 7962 ] final  -65.96 input  175.53 | X-H torsion
[ 8008 7997 7996 7995 ] final -174.71 input   59.86 | X-H torsion
[ 10167 10162 10161 10158 ] final   42.15 input  -65.29 | X-H torsion
[ 10718 10713 10712 10709 ] final   98.70 input   66.30 | X-H torsion
[ 10763 10752 10751 10750 ] final  124.74 input  -60.55 | X-H torsion
[ 11005 11000 10999 10996 ] final  -67.86 input  -57.11 | X-H torsion

> <Gold.Protein.ActiveResidues>
 VAL166  LYS551  ARG553  GLY616  TRP617  ASP618  TYR619  PRO620  LYS621  CYS622 
 ASP623  PHE694  ASN695  SER759  ASP760  ASP761  ALA762  ILE779  LEU786  VAL792 
 PHE793  MET794  SER795  GLU796  ALA797  LYS798  CYS799  TRP800  GLU811  SER814 

> <Gold.Protein.RotatedAtoms>
  150.9965  134.9287  159.7928 H   0  0  0  0  0  0  0  0  0  0  0  0  # atno 6907 bound_to 6896
  152.5266  134.3212  159.9159 H   0  0  0  0  0  0  0  0  0  0  0  0  # atno 6908 bound_to 6896
  151.3217  133.3995  159.2689 H   0  0  0  0  0  0  0  0  0  0  0  0  # atno 6909 bound_to 6896
  145.7478  140.8923  143.0496 H   0  0  0  0  0  0  0  0  0  0  0  0  # atno 7974 bound_to 7965
  155.9735  140.1167  157.0791 H   0  0  0  0  0  0  0  0  0  0  0  0  # atno 8008 bound_to 7997
  154.4163  140.1158  156.5406 H   0  0  0  0  0  0  0  0  0  0  0  0  # atno 8009 bound_to 7997
  155.6565  140.3473  155.4769 H   0  0  0  0  0  0  0  0  0  0  0  0  # atno 8010 bound_to 7997
  140.3573  144.2274  150.6141 H   0  0  0  0  0  0  0  0  0  0  0  0  # atno 10167 bound_to 10162
  157.6890  131.0648  150.4836 H   0  0  0  0  0  0  0  0  0  0  0  0  # atno 10718 bound_to 10713
  153.6663  135.3338  155.3141 H   0  0  0  0  0  0  0  0  0  0  0  0  # atno 10763 bound_to 10752
  154.8502  135.4375  154.1752 H   0  0  0  0  0  0  0  0  0  0  0  0  # atno 10764 bound_to 10752
  153.2732  135.7002  153.7536 H   0  0  0  0  0  0  0  0  0  0  0  0  # atno 10765 bound_to 10752
  141.1518  133.6728  156.6358 H   0  0  0  0  0  0  0  0  0  0  0  0  # atno 11005 bound_to 11000
  144.6856  139.9549  143.7479 LP  0  0  0  0  0  0  0  0  0  0  0  0  # atno 17320 bound_to 7965
  146.0386  139.3400  143.0711 LP  0  0  0  0  0  0  0  0  0  0  0  0  # atno 17321 bound_to 7965
  140.5162  143.2277  151.8460 LP  0  0  0  0  0  0  0  0  0  0  0  0  # atno 17342 bound_to 10162
  139.4818  144.4892  151.9207 LP  0  0  0  0  0  0  0  0  0  0  0  0  # atno 17343 bound_to 10162
  156.5167  130.4152  149.6272 LP  0  0  0  0  0  0  0  0  0  0  0  0  # atno 17370 bound_to 10713
  156.3192  130.7271  151.2179 LP  0  0  0  0  0  0  0  0  0  0  0  0  # atno 17371 bound_to 10713
  140.3431  134.7832  157.4412 LP  0  0  0  0  0  0  0  0  0  0  0  0  # atno 17394 bound_to 11000
  140.0921  134.5586  155.8434 LP  0  0  0  0  0  0  0  0  0  0  0  0  # atno 17395 bound_to 11000

$$$$
