AV-unprocessed.smi:2169|AV-procd|sdf|8823|dock8
  -GOLD-   2272012 13D 1   1.00000     0.00000
 Structure written by MMmdl.
 45 46  0  0  0  0  0  0  0  0  2 V2000
  151.1204  142.2628  157.2601 C   0  0  0  0  0  0  0  0  0  0  0  0
  150.2587  140.8251  156.5024 S   0  0  0  0  0  0  0  0  0  0  0  0
  150.9792  140.4531  155.2751 O   0  0  0  0  0  0  0  0  0  0  0  0
  150.0380  139.8181  157.5516 O   0  0  0  0  0  0  0  0  0  0  0  0
  148.7056  141.4577  156.0369 N   0  0  0  0  0  0  0  0  0  0  0  0
  148.5558  142.1769  154.7559 C   0  0  0  0  0  0  0  0  0  0  0  0
  147.9224  141.2856  153.6727 C   0  0  0  0  0  0  0  0  0  0  0  0
  146.5932  140.6776  154.1524 C   0  0  0  0  0  0  0  0  0  0  0  0
  146.0398  139.7725  153.1494 N   0  0  0  0  0  0  0  0  0  0  0  0
  146.5113  138.5498  152.8691 C   0  0  0  0  0  0  0  0  0  0  0  0
  147.4707  138.0306  153.4404 O   0  0  0  0  0  0  0  0  0  0  0  0
  145.8153  137.9599  151.8872 N   0  0  0  0  0  0  0  0  0  0  0  0
  146.0900  136.6307  151.3547 C   0  0  0  0  0  0  0  0  0  0  0  0
  144.8874  135.6889  151.5329 C   0  0  0  0  0  0  0  0  0  0  0  0
  145.1565  134.3055  150.9739 C   0  0  0  0  0  0  0  0  0  0  0  0
  144.0898  133.4529  150.6124 C   0  0  0  0  0  0  0  0  0  0  0  0
  144.3738  132.1710  150.0966 C   0  0  0  0  0  0  0  0  0  0  0  0
  145.7183  131.7704  149.9548 C   0  0  0  0  0  0  0  0  0  0  0  0
  146.7122  132.6132  150.3121 N   0  3  0  0  0  0  0  0  0  0  0  0
  146.4818  133.8484  150.8093 C   0  0  0  0  0  0  0  0  0  0  0  0
  146.8284  139.9161  155.4649 C   0  0  0  0  0  0  0  0  0  0  0  0
  147.4694  140.8196  156.5327 C   0  0  0  0  0  0  0  0  0  0  0  0
  152.1142  141.9525  157.5815 H   0  0  0  0  0  0  0  0  0  0  0  0
  150.5634  142.6139  158.1269 H   0  0  0  0  0  0  0  0  0  0  0  0
  151.2201  143.0637  156.5297 H   0  0  0  0  0  0  0  0  0  0  0  0
  147.9233  143.0493  154.9239 H   0  0  0  0  0  0  0  0  0  0  0  0
  149.5195  142.5571  154.4184 H   0  0  0  0  0  0  0  0  0  0  0  0
  147.7605  141.8770  152.7708 H   0  0  0  0  0  0  0  0  0  0  0  0
  148.6140  140.4914  153.3933 H   0  0  0  0  0  0  0  0  0  0  0  0
  145.8791  141.4814  154.3432 H   0  0  0  0  0  0  0  0  0  0  0  0
  145.2456  140.1082  152.6242 H   0  0  0  0  0  0  0  0  0  0  0  0
  145.0417  138.4651  151.4798 H   0  0  0  0  0  0  0  0  0  0  0  0
  146.3683  136.7042  150.3019 H   0  0  0  0  0  0  0  0  0  0  0  0
  146.9580  136.2291  151.8784 H   0  0  0  0  0  0  0  0  0  0  0  0
  144.6302  135.6060  152.5897 H   0  0  0  0  0  0  0  0  0  0  0  0
  144.0076  136.0984  151.0347 H   0  0  0  0  0  0  0  0  0  0  0  0
  143.0651  133.7752  150.7288 H   0  0  0  0  0  0  0  0  0  0  0  0
  143.5712  131.5052  149.8138 H   0  0  0  0  0  0  0  0  0  0  0  0
  146.0261  130.8090  149.5698 H   0  0  0  0  0  0  0  0  0  0  0  0
  147.3583  134.4285  151.0597 H   0  0  0  0  0  0  0  0  0  0  0  0
  145.8825  139.5254  155.8423 H   0  0  0  0  0  0  0  0  0  0  0  0
  147.4633  139.0495  155.2831 H   0  0  0  0  0  0  0  0  0  0  0  0
  147.6721  140.2503  157.4394 H   0  0  0  0  0  0  0  0  0  0  0  0
  146.7671  141.6050  156.8142 H   0  0  0  0  0  0  0  0  0  0  0  0
  147.6783  132.3037  150.2016 H   0  0  0  0  0  0  0  0  0  0  0  0
  1  2  1  0  0  0  0
  1 23  1  0  0  0  0
  1 24  1  0  0  0  0
  1 25  1  0  0  0  0
  2  3  2  0  0  0  0
  2  4  2  0  0  0  0
  2  5  1  0  0  0  0
  5 22  1  0  0  0  0
  5  6  1  0  0  0  0
  6  7  1  0  0  0  0
  6 26  1  0  0  0  0
  6 27  1  0  0  0  0
  7  8  1  0  0  0  0
  7 28  1  0  0  0  0
  7 29  1  0  0  0  0
  8  9  1  0  0  0  0
  8 21  1  0  0  0  0
  8 30  1  0  0  0  0
  9 10  1  0  0  0  0
  9 31  1  0  0  0  0
 10 11  2  0  0  0  0
 10 12  1  0  0  0  0
 12 13  1  0  0  0  0
 12 32  1  0  0  0  0
 13 14  1  0  0  0  0
 13 33  1  0  0  0  0
 13 34  1  0  0  0  0
 14 15  1  0  0  0  0
 14 35  1  0  0  0  0
 14 36  1  0  0  0  0
 15 20  1  0  0  0  0
 15 16  2  0  0  0  0
 16 17  1  0  0  0  0
 16 37  1  0  0  0  0
 17 18  2  0  0  0  0
 17 38  1  0  0  0  0
 18 19  1  0  0  0  0
 18 39  1  0  0  0  0
 19 20  2  0  0  0  0
 19 45  1  0  0  0  0
 20 40  1  0  0  0  0
 21 22  1  0  0  0  0
 21 41  1  0  0  0  0
 21 42  1  0  0  0  0
 22 43  1  0  0  0  0
 22 44  1  0  0  0  0
M  CHG  1  19   1
M  END
> <s_m_source_file>
AV-unprocessed.smi

> <i_m_source_file_index>
2169

> <i_lp_mmshare_version>
43012

> <i_f3d_flags>
0

> <s_epik_input>
W0NIM11TKD1PKSg9TylOMVtDSDJdW0NIMl1bQ0hdKFtDSDJdW0NIMl0xKVtOSF1DKD1PKVtOSF1bQ0gyXVtDSDJdYzJbY0hdW2NIXVtjSF1uW2NIXTI=

> <s_epik_cmdline>
J2VwaWtfcHl0aG9uJywgJy1waCcsICc3LjAnLCAnLXRuJywgJzgnLCAnLW1hJywgJzIwMCcsICctbWV0YWxfYmluZGluZycsICctaW1hZScsICc8aW5maWxlLm1hZT4nLCAnLW9tYWUnLCAnPG91dGZpbGUubWFlPic=

> <r_epik_Ionization_Penalty>
2.21124

> <r_epik_Ionization_Penalty_Charging>
2.21119

> <r_epik_Ionization_Penalty_Neutral>
4.90089e-05

> <r_epik_State_Penalty>
2.35542

> <r_epik_Charging_Adjusted_Penalty>
4.56661

> <i_epik_Tot_Q>
1

> <i_epik_Tot_abs_Q>
1

> <r_epik_Metal_State_Penalty>
2.36951

> <b_epik_Metal_Only>
0

> <s_lp_Force_Field>
OPLS_2005

> <r_lp_Energy>
3.64161

> <b_lp_Chiralities_Consistent>
1

> <s_lp_Variant>
AV-unprocessed.smi:2169-2

> <Gold.Version>
5.8.1

> <Gold.Id.Protein>
6NUR|6NUR_protein|mol2

> <Gold.PLP.Fitness>
44.6495

> <Gold.PLP.PLP>
-33.9963

> <Gold.PLP.part.hbond>
-4.0064

> <Gold.PLP.part.metal>
0.0000

> <Gold.PLP.part.buried>
-2.4497

> <Gold.PLP.part.nonpolar>
-30.5414

> <Gold.PLP.part.repulsive>
2.4183

> <Gold.PLP.ligand.clash>
0.0000

> <Gold.PLP.ligand.torsion>
1.5168

> <Gold.PLP.Chemscore.Hbond>
3.8720

> <Gold.PLP.Chemscore.CHOScore>
0.0000

> <Gold.PLP.Chemscore.Metal>
0.0000

> <Gold.Chemscore.Hbonds>
donor molecule, donor type, donor heavy atom, donor atom, acceptor molecule, acceptor atom, score
      L1  H     9    31       P1 10175  1.00
      L1  H    12    32       P1 10171  0.87
      L1  H    19    45       P1 10747  0.99
      P1  H  7989  7998       L1     3  0.99

> <Gold.PLP.Chemscore.Internal.Correction>
2.0708

> <Gold.Rescore>
     Score         DG    S(hbond)    S(metal)    S(lipo)     H(rot)  DE(clash)    DE(int)     intcor
     18.48     -23.98       3.74        0.00      89.07       1.73       2.60       2.90       ----

> <Gold.Chemscore.Fitness>
18.4788

> <Gold.Chemscore.DG>
-23.9781

> <Gold.Chemscore.ZeroCoef>
-5.4800

> <Gold.Chemscore.Hbond>
3.7441

> <Gold.Chemscore.Metal>
0.0000

> <Gold.Chemscore.Lipo>
89.0675

> <Gold.Chemscore.Internal_Hbond>
0.0000

> <Gold.Chemscore.DEClash>
2.5966

> <Gold.Chemscore.DEInternal>
2.9026

> <Gold.Chemscore.Rot>
1.7297

> <Gold.Chemscore.Internal.Correction>
   9.000000E+99

> <Gold.Chemscore.Hbonds>
donor molecule, donor type, donor heavy atom, donor atom, acceptor molecule, acceptor atom, score
      L1  H     9    31       P1 10175  0.93
      L1  H    12    32       P1 10171  0.80
      L1  H    19    45       P1 10747  0.94
      P1  H  7989  7998       L1     3  0.94

> <Gold.Chemscore.Hbond.Weighted>
-12.5052

> <Gold.Chemscore.Metal.Weighted>
-0.0000

> <Gold.Chemscore.Lipo.Weighted>
-10.4209

> <Gold.Chemscore.Internal_Hbond.Weighted>
0.0000

> <Gold.Chemscore.DEClash.Weighted>
2.5966

> <Gold.Chemscore.DEInternal.Weighted>
2.9026

> <Gold.Chemscore.Rot.Weighted>
4.4280

> <Gold.Chemscore.Internal.Correction.Weighted>
   9.000000E+99

> <Gold.Protein.RotatedTorsions>
[ 6907 6896 6895 6894 ] final   12.20 input  -60.11 | X-H torsion
[ 7974 7965 7964 7962 ] final  165.95 input  175.53 | X-H torsion
[ 8008 7997 7996 7995 ] final  -99.83 input   59.86 | X-H torsion
[ 10167 10162 10161 10158 ] final  -39.95 input  -65.29 | X-H torsion
[ 10718 10713 10712 10709 ] final   34.92 input   66.30 | X-H torsion
[ 10763 10752 10751 10750 ] final    9.16 input  -60.55 | X-H torsion
[ 11005 11000 10999 10996 ] final  159.34 input  -57.11 | X-H torsion

> <Gold.Protein.ActiveResidues>
 VAL166  LYS551  ARG553  GLY616  TRP617  ASP618  TYR619  PRO620  LYS621  CYS622 
 ASP623  PHE694  ASN695  SER759  ASP760  ASP761  ALA762  ILE779  LEU786  VAL792 
 PHE793  MET794  SER795  GLU796  ALA797  LYS798  CYS799  TRP800  GLU811  SER814 

> <Gold.Protein.RotatedAtoms>
  151.7665  135.0797  160.0353 H   0  0  0  0  0  0  0  0  0  0  0  0  # atno 6907 bound_to 6896
  152.3317  133.5962  159.5823 H   0  0  0  0  0  0  0  0  0  0  0  0  # atno 6908 bound_to 6896
  150.7427  133.9773  159.3607 H   0  0  0  0  0  0  0  0  0  0  0  0  # atno 6909 bound_to 6896
  144.7482  139.8544  143.6375 H   0  0  0  0  0  0  0  0  0  0  0  0  # atno 7974 bound_to 7965
  154.8202  140.0445  157.1405 H   0  0  0  0  0  0  0  0  0  0  0  0  # atno 8008 bound_to 7997
  154.9268  140.3034  155.5168 H   0  0  0  0  0  0  0  0  0  0  0  0  # atno 8009 bound_to 7997
  156.2979  140.2330  156.4324 H   0  0  0  0  0  0  0  0  0  0  0  0  # atno 8010 bound_to 7997
  140.7049  143.3183  151.2855 H   0  0  0  0  0  0  0  0  0  0  0  0  # atno 10167 bound_to 10162
  157.3164  130.7425  149.6757 H   0  0  0  0  0  0  0  0  0  0  0  0  # atno 10718 bound_to 10713
  153.2171  135.6876  153.8044 H   0  0  0  0  0  0  0  0  0  0  0  0  # atno 10763 bound_to 10752
  153.7256  135.3260  155.3276 H   0  0  0  0  0  0  0  0  0  0  0  0  # atno 10764 bound_to 10752
  154.8251  135.4623  154.1003 H   0  0  0  0  0  0  0  0  0  0  0  0  # atno 10765 bound_to 10752
  140.1952  134.8378  157.2957 H   0  0  0  0  0  0  0  0  0  0  0  0  # atno 11005 bound_to 11000
  146.1393  139.4446  143.0119 LP  0  0  0  0  0  0  0  0  0  0  0  0  # atno 17320 bound_to 7965
  145.7043  141.0126  143.1487 LP  0  0  0  0  0  0  0  0  0  0  0  0  # atno 17321 bound_to 7965
  139.6628  144.0158  152.2704 LP  0  0  0  0  0  0  0  0  0  0  0  0  # atno 17342 bound_to 10162
  139.9731  144.6480  150.7970 LP  0  0  0  0  0  0  0  0  0  0  0  0  # atno 17343 bound_to 10162
  155.9682  130.4236  150.4570 LP  0  0  0  0  0  0  0  0  0  0  0  0  # atno 17370 bound_to 10713
  157.2578  131.0560  151.2339 LP  0  0  0  0  0  0  0  0  0  0  0  0  # atno 17371 bound_to 10713
  140.2115  134.4133  155.7610 LP  0  0  0  0  0  0  0  0  0  0  0  0  # atno 17394 bound_to 11000
  141.2227  133.7120  156.8345 LP  0  0  0  0  0  0  0  0  0  0  0  0  # atno 17395 bound_to 11000

$$$$
