AV-unprocessed.smi:769|AV-procd|sdf|3676|dock1
  -GOLD-   22720 1 83D 1   1.00000     0.00000
 Structure written by MMmdl.
 50 52  0  0  0  0  0  0  0  0  2 V2000
  147.6751  132.4322  153.9259 O   0  0  0  0  0  0  0  0  0  0  0  0
  148.0653  133.4852  153.4221 C   0  0  0  0  0  0  0  0  0  0  0  0
  149.2301  134.0680  153.7402 N   0  0  0  0  0  0  0  0  0  0  0  0
  150.1910  133.5420  154.7022 C   0  0  0  0  0  0  0  0  0  0  0  0
  150.4366  134.5399  155.8512 C   0  0  0  0  0  0  0  0  0  0  0  0
  151.3389  135.6233  155.4642 N   0  0  0  0  0  0  0  0  0  0  0  0
  151.9113  136.2885  156.6423 C   0  0  0  0  0  0  0  0  0  0  0  0
  152.8297  137.4458  156.2054 C   0  0  0  0  0  0  0  0  0  0  0  0
  152.0407  138.4030  155.4249 N   0  0  0  0  0  0  0  0  0  0  0  0
  151.7366  139.6735  155.7844 C   0  0  0  0  0  0  0  0  0  0  0  0
  151.0530  140.4081  155.0699 O   0  0  0  0  0  0  0  0  0  0  0  0
  152.2193  140.1954  157.1525 C   0  0  0  0  0  0  0  0  0  0  0  0
  151.5133  139.6099  158.3931 C   0  0  0  0  0  0  0  0  0  0  0  0
  151.4650  141.0253  158.9749 C   0  0  0  0  0  0  0  0  0  0  0  0
  151.6275  141.5591  157.5490 C   0  0  0  0  0  0  0  0  0  0  0  0
  151.5091  137.7560  154.2225 C   0  0  0  0  0  0  0  0  0  0  0  0
  150.5936  136.5934  154.6540 C   0  0  0  0  0  0  0  0  0  0  0  0
  147.3922  134.2080  152.5098 N   0  0  0  0  0  0  0  0  0  0  0  0
  146.1309  133.9357  151.9123 C   0  0  0  0  0  0  0  0  0  0  0  0
  145.4432  135.0192  151.3213 C   0  0  0  0  0  0  0  0  0  0  0  0
  144.1952  134.7988  150.7037 C   0  0  0  0  0  0  0  0  0  0  0  0
  143.6703  133.5553  150.6736 N   0  3  0  0  0  0  0  0  0  0  0  0
  144.2950  132.4863  151.2120 C   0  0  0  0  0  0  0  0  0  0  0  0
  145.5460  132.6449  151.8428 C   0  0  0  0  0  0  0  0  0  0  0  0
  149.4736  134.9348  153.2834 H   0  0  0  0  0  0  0  0  0  0  0  0
  149.8319  132.5807  155.0703 H   0  0  0  0  0  0  0  0  0  0  0  0
  151.1244  133.3456  154.1742 H   0  0  0  0  0  0  0  0  0  0  0  0
  149.4746  134.9701  156.1344 H   0  0  0  0  0  0  0  0  0  0  0  0
  150.8225  134.0306  156.7359 H   0  0  0  0  0  0  0  0  0  0  0  0
  151.1152  136.6620  157.2887 H   0  0  0  0  0  0  0  0  0  0  0  0
  152.4970  135.5827  157.2292 H   0  0  0  0  0  0  0  0  0  0  0  0
  153.3109  137.8833  157.0779 H   0  0  0  0  0  0  0  0  0  0  0  0
  153.6448  137.0654  155.5878 H   0  0  0  0  0  0  0  0  0  0  0  0
  153.3031  140.1499  157.2735 H   0  0  0  0  0  0  0  0  0  0  0  0
  150.5151  139.2080  158.2133 H   0  0  0  0  0  0  0  0  0  0  0  0
  152.1222  138.9148  158.9715 H   0  0  0  0  0  0  0  0  0  0  0  0
  150.5231  141.2891  159.4568 H   0  0  0  0  0  0  0  0  0  0  0  0
  152.3232  141.2500  159.6102 H   0  0  0  0  0  0  0  0  0  0  0  0
  152.3208  142.3967  157.4656 H   0  0  0  0  0  0  0  0  0  0  0  0
  150.6731  141.7810  157.0675 H   0  0  0  0  0  0  0  0  0  0  0  0
  150.9490  138.4420  153.5860 H   0  0  0  0  0  0  0  0  0  0  0  0
  152.3334  137.3857  153.6110 H   0  0  0  0  0  0  0  0  0  0  0  0
  150.1935  136.0996  153.7678 H   0  0  0  0  0  0  0  0  0  0  0  0
  149.7428  136.9774  155.2193 H   0  0  0  0  0  0  0  0  0  0  0  0
  147.8124  135.0883  152.2498 H   0  0  0  0  0  0  0  0  0  0  0  0
  145.8628  136.0147  151.3440 H   0  0  0  0  0  0  0  0  0  0  0  0
  143.6061  135.5739  150.2354 H   0  0  0  0  0  0  0  0  0  0  0  0
  143.7822  131.5401  151.1175 H   0  0  0  0  0  0  0  0  0  0  0  0
  146.0338  131.7720  152.2481 H   0  0  0  0  0  0  0  0  0  0  0  0
  142.7662  133.4163  150.2210 H   0  0  0  0  0  0  0  0  0  0  0  0
  1  2  2  0  0  0  0
  2  3  1  0  0  0  0
  2 18  1  0  0  0  0
  3  4  1  0  0  0  0
  3 25  1  0  0  0  0
  4  5  1  0  0  0  0
  4 26  1  0  0  0  0
  4 27  1  0  0  0  0
  5  6  1  0  0  0  0
  5 28  1  0  0  0  0
  5 29  1  0  0  0  0
  6 17  1  0  0  0  0
  6  7  1  0  0  0  0
  7  8  1  0  0  0  0
  7 30  1  0  0  0  0
  7 31  1  0  0  0  0
  8  9  1  0  0  0  0
  8 32  1  0  0  0  0
  8 33  1  0  0  0  0
  9 10  1  0  0  0  0
  9 16  1  0  0  0  0
 10 11  2  0  0  0  0
 10 12  1  0  0  0  0
 12 15  1  0  0  0  0
 12 13  1  0  0  0  0
 12 34  1  0  0  0  0
 13 14  1  0  0  0  0
 13 35  1  0  0  0  0
 13 36  1  0  0  0  0
 14 15  1  0  0  0  0
 14 37  1  0  0  0  0
 14 38  1  0  0  0  0
 15 39  1  0  0  0  0
 15 40  1  0  0  0  0
 16 17  1  0  0  0  0
 16 41  1  0  0  0  0
 16 42  1  0  0  0  0
 17 43  1  0  0  0  0
 17 44  1  0  0  0  0
 18 19  1  0  0  0  0
 18 45  1  0  0  0  0
 19 24  1  0  0  0  0
 19 20  2  0  0  0  0
 20 21  1  0  0  0  0
 20 46  1  0  0  0  0
 21 22  2  0  0  0  0
 21 47  1  0  0  0  0
 22 23  1  0  0  0  0
 22 50  1  0  0  0  0
 23 24  2  0  0  0  0
 23 48  1  0  0  0  0
 24 49  1  0  0  0  0
M  CHG  1  22   1
M  END
> <s_m_source_file>
AV-unprocessed.smi

> <i_m_source_file_index>
769

> <i_lp_mmshare_version>
43012

> <i_f3d_flags>
0

> <s_epik_input>
W2NIXTFbY0hdbltjSF1bY0hdYzFbTkhdQyg9TylbTkhdW0NIMl1bQ0gyXU4yW0NIMl1bQ0gyXU4oW0NIMl1bQ0gyXTIpQyg9TylbQ0hdM1tDSDJdW0NIMl1bQ0gyXTM=

> <s_epik_cmdline>
J2VwaWtfcHl0aG9uJywgJy1waCcsICc3LjAnLCAnLXRuJywgJzgnLCAnLW1hJywgJzIwMCcsICctbWV0YWxfYmluZGluZycsICctaW1hZScsICc8aW5maWxlLm1hZT4nLCAnLW9tYWUnLCAnPG91dGZpbGUubWFlPic=

> <r_epik_Ionization_Penalty>
1.23972

> <r_epik_Ionization_Penalty_Charging>
0.991409

> <r_epik_Ionization_Penalty_Neutral>
0.248308

> <r_epik_State_Penalty>
1.32283

> <r_epik_Charging_Adjusted_Penalty>
2.31424

> <i_epik_Tot_Q>
1

> <i_epik_Tot_abs_Q>
1

> <r_epik_Metal_State_Penalty>
1.42026

> <b_epik_Metal_Only>
0

> <s_lp_Force_Field>
OPLS_2005

> <r_lp_Energy>
53.8523

> <b_lp_Chiralities_Consistent>
1

> <s_lp_Variant>
AV-unprocessed.smi:769-3

> <Gold.Version>
5.8.1

> <Gold.Id.Protein>
6NUR|6NUR_protein|mol2

> <Gold.PLP.Fitness>
56.1472

> <Gold.PLP.PLP>
-40.8066

> <Gold.PLP.part.hbond>
-4.9552

> <Gold.PLP.part.metal>
0.0000

> <Gold.PLP.part.buried>
-4.0746

> <Gold.PLP.part.nonpolar>
-31.4221

> <Gold.PLP.part.repulsive>
0.2035

> <Gold.PLP.ligand.clash>
0.0000

> <Gold.PLP.ligand.torsion>
0.5467

> <Gold.PLP.Chemscore.Hbond>
5.2923

> <Gold.PLP.Chemscore.CHOScore>
0.0000

> <Gold.PLP.Chemscore.Metal>
0.0000

> <Gold.Chemscore.Hbonds>
donor molecule, donor type, donor heavy atom, donor atom, acceptor molecule, acceptor atom, score
      L1  H     3    25       P1  7948  0.36
      L1  H    18    45       P1  7948  1.00
      L1  H    22    50       P1 10186  1.32
      P1  H  7989  7998       L1    11  1.00
      P1  H 10752 10764       L1     6  0.65

> <Gold.PLP.Chemscore.Internal.Correction>
0.5572

> <Gold.Rescore>
     Score         DG    S(hbond)    S(metal)    S(lipo)     H(rot)  DE(clash)    DE(int)     intcor
     18.85     -20.63       2.89        0.00      84.59       1.72       0.09       1.69       ----

> <Gold.Chemscore.Fitness>
18.8504

> <Gold.Chemscore.DG>
-20.6318

> <Gold.Chemscore.ZeroCoef>
-5.4800

> <Gold.Chemscore.Hbond>
2.8943

> <Gold.Chemscore.Metal>
0.0000

> <Gold.Chemscore.Lipo>
84.5866

> <Gold.Chemscore.Internal_Hbond>
0.0000

> <Gold.Chemscore.DEClash>
0.0931

> <Gold.Chemscore.DEInternal>
1.6883

> <Gold.Chemscore.Rot>
1.7233

> <Gold.Chemscore.Internal.Correction>
   9.000000E+99

> <Gold.Chemscore.Hbonds>
donor molecule, donor type, donor heavy atom, donor atom, acceptor molecule, acceptor atom, score
      L1  H     3    25       P1  7948  0.01
      L1  H    18    45       P1  7948  0.92
      L1  H    22    50       P1 10186  0.63
      P1  H  7989  7998       L1    11  0.95
      P1  H 10752 10764       L1     6  0.02

> <Gold.Chemscore.Hbond.Weighted>
-9.6668

> <Gold.Chemscore.Metal.Weighted>
-0.0000

> <Gold.Chemscore.Lipo.Weighted>
-9.8966

> <Gold.Chemscore.Internal_Hbond.Weighted>
0.0000

> <Gold.Chemscore.DEClash.Weighted>
0.0931

> <Gold.Chemscore.DEInternal.Weighted>
1.6883

> <Gold.Chemscore.Rot.Weighted>
4.4116

> <Gold.Chemscore.Internal.Correction.Weighted>
   9.000000E+99

> <Gold.Protein.RotatedTorsions>
[ 6907 6896 6895 6894 ] final   23.84 input  -60.11 | X-H torsion
[ 7974 7965 7964 7962 ] final -104.84 input  175.53 | X-H torsion
[ 8008 7997 7996 7995 ] final   49.02 input   59.86 | X-H torsion
[ 10167 10162 10161 10158 ] final  132.63 input  -65.29 | X-H torsion
[ 10718 10713 10712 10709 ] final   34.73 input   66.30 | X-H torsion
[ 10763 10752 10751 10750 ] final  -60.04 input  -60.55 | X-H torsion
[ 11005 11000 10999 10996 ] final  -15.57 input  -57.11 | X-H torsion

> <Gold.Protein.ActiveResidues>
 VAL166  LYS551  ARG553  GLY616  TRP617  ASP618  TYR619  PRO620  LYS621  CYS622 
 ASP623  PHE694  ASN695  SER759  ASP760  ASP761  ALA762  ILE779  LEU786  VAL792 
 PHE793  MET794  SER795  GLU796  ALA797  LYS798  CYS799  TRP800  GLU811  SER814 

> <Gold.Protein.RotatedAtoms>
  151.9485  135.0180  160.0540 H   0  0  0  0  0  0  0  0  0  0  0  0  # atno 6907 bound_to 6896
  152.1974  133.4812  159.5048 H   0  0  0  0  0  0  0  0  0  0  0  0  # atno 6908 bound_to 6896
  150.6947  134.1552  159.4198 H   0  0  0  0  0  0  0  0  0  0  0  0  # atno 6909 bound_to 6896
  145.2381  140.9195  143.3166 H   0  0  0  0  0  0  0  0  0  0  0  0  # atno 7974 bound_to 7965
  155.3952  140.3435  155.4253 H   0  0  0  0  0  0  0  0  0  0  0  0  # atno 8008 bound_to 7997
  156.1535  140.1578  156.8764 H   0  0  0  0  0  0  0  0  0  0  0  0  # atno 8009 bound_to 7997
  154.5073  140.0799  156.7902 H   0  0  0  0  0  0  0  0  0  0  0  0  # atno 8010 bound_to 7997
  139.5331  144.6653  151.4880 H   0  0  0  0  0  0  0  0  0  0  0  0  # atno 10167 bound_to 10162
  157.3139  130.7413  149.6742 H   0  0  0  0  0  0  0  0  0  0  0  0  # atno 10718 bound_to 10713
  154.2631  135.6304  153.5282 H   0  0  0  0  0  0  0  0  0  0  0  0  # atno 10763 bound_to 10752
  152.9892  135.5592  154.5683 H   0  0  0  0  0  0  0  0  0  0  0  0  # atno 10764 bound_to 10752
  154.5236  135.2884  155.1216 H   0  0  0  0  0  0  0  0  0  0  0  0  # atno 10765 bound_to 10752
  140.7980  133.8236  155.9442 H   0  0  0  0  0  0  0  0  0  0  0  0  # atno 11005 bound_to 11000
  144.9615  139.3975  143.6353 LP  0  0  0  0  0  0  0  0  0  0  0  0  # atno 17320 bound_to 7965
  146.3336  139.8670  142.8846 LP  0  0  0  0  0  0  0  0  0  0  0  0  # atno 17321 bound_to 7965
  140.6522  143.8674  150.6797 LP  0  0  0  0  0  0  0  0  0  0  0  0  # atno 17342 bound_to 10162
  140.2042  143.3935  152.1768 LP  0  0  0  0  0  0  0  0  0  0  0  0  # atno 17343 bound_to 10162
  155.9680  130.4243  150.4602 LP  0  0  0  0  0  0  0  0  0  0  0  0  # atno 17370 bound_to 10713
  157.2605  131.0566  151.2323 LP  0  0  0  0  0  0  0  0  0  0  0  0  # atno 17371 bound_to 10713
  140.9323  134.2006  157.4855 LP  0  0  0  0  0  0  0  0  0  0  0  0  # atno 17394 bound_to 11000
  139.8724  134.9838  156.5213 LP  0  0  0  0  0  0  0  0  0  0  0  0  # atno 17395 bound_to 11000

$$$$
