AV-unprocessed.smi:3320|AV-procd|sdf|12768|dock7
  -GOLD-   2272019113D 1   1.00000     0.00000
 Structure written by MMmdl.
 37 38  0  0  0  0  0  0  0  0  1 V2000
  145.5321  144.1570  153.4238 C   0  0  0  0  0  0  0  0  0  0  0  0
  145.4182  143.0593  154.4914 C   0  0  0  0  0  0  0  0  0  0  0  0
  145.1310  143.6125  155.8946 C   0  0  0  0  0  0  0  0  0  0  0  0
  146.5976  142.1382  154.4797 C   0  0  0  0  0  0  0  0  0  0  0  0
  147.4584  142.0225  155.4955 N   0  0  0  0  0  0  0  0  0  0  0  0
  148.4755  141.0978  155.2412 C   0  0  0  0  0  0  0  0  0  0  0  0
  149.5342  140.8517  156.2726 C   0  0  0  0  0  0  0  0  0  0  0  0
  150.6840  141.8677  156.1746 C   0  0  0  0  0  0  0  0  0  0  0  0
  150.6349  142.8440  157.2568 N   0  0  0  0  0  0  0  0  0  0  0  0
  151.0542  142.6236  158.5118 C   0  0  0  0  0  0  0  0  0  0  0  0
  151.5361  141.5525  158.8830 O   0  0  0  0  0  0  0  0  0  0  0  0
  150.9042  143.7978  159.4880 C   0  0  0  0  0  0  0  0  0  0  0  0
  151.2418  145.1763  158.8919 C   0  0  0  0  0  0  0  0  0  0  0  0
  152.0221  145.4929  160.1712 C   0  0  0  0  0  0  0  0  0  0  0  0
  152.0948  143.9877  160.4445 C   0  0  0  0  0  0  0  0  0  0  0  0
  148.3717  140.5057  154.0075 C   0  0  0  0  0  0  0  0  0  0  0  0
  146.9919  141.0917  153.1199 S   0  0  0  0  0  0  0  0  0  0  0  0
  145.6533  143.7264  152.4294 H   0  0  0  0  0  0  0  0  0  0  0  0
  146.3878  144.8062  153.6123 H   0  0  0  0  0  0  0  0  0  0  0  0
  144.6391  144.7822  153.4066 H   0  0  0  0  0  0  0  0  0  0  0  0
  144.5536  142.4532  154.2175 H   0  0  0  0  0  0  0  0  0  0  0  0
  144.9765  142.8045  156.6105 H   0  0  0  0  0  0  0  0  0  0  0  0
  144.2335  144.2315  155.8966 H   0  0  0  0  0  0  0  0  0  0  0  0
  145.9573  144.2251  156.2563 H   0  0  0  0  0  0  0  0  0  0  0  0
  149.0910  140.8904  157.2685 H   0  0  0  0  0  0  0  0  0  0  0  0
  149.9322  139.8422  156.1629 H   0  0  0  0  0  0  0  0  0  0  0  0
  151.6415  141.3492  156.2302 H   0  0  0  0  0  0  0  0  0  0  0  0
  150.6639  142.3784  155.2101 H   0  0  0  0  0  0  0  0  0  0  0  0
  150.2511  143.7517  157.0368 H   0  0  0  0  0  0  0  0  0  0  0  0
  149.9494  143.8054  160.0178 H   0  0  0  0  0  0  0  0  0  0  0  0
  151.8807  145.1415  158.0075 H   0  0  0  0  0  0  0  0  0  0  0  0
  150.3767  145.8199  158.7303 H   0  0  0  0  0  0  0  0  0  0  0  0
  152.9876  145.9731  160.0086 H   0  0  0  0  0  0  0  0  0  0  0  0
  151.4223  146.0269  160.9099 H   0  0  0  0  0  0  0  0  0  0  0  0
  151.8869  143.7148  161.4796 H   0  0  0  0  0  0  0  0  0  0  0  0
  153.0276  143.5407  160.0956 H   0  0  0  0  0  0  0  0  0  0  0  0
  149.0219  139.7643  153.5673 H   0  0  0  0  0  0  0  0  0  0  0  0
  1  2  1  0  0  0  0
  1 18  1  0  0  0  0
  1 19  1  0  0  0  0
  1 20  1  0  0  0  0
  2  3  1  0  0  0  0
  2  4  1  0  0  0  0
  2 21  1  0  0  0  0
  3 22  1  0  0  0  0
  3 23  1  0  0  0  0
  3 24  1  0  0  0  0
  4 17  1  0  0  0  0
  4  5  2  0  0  0  0
  5  6  1  0  0  0  0
  6  7  1  0  0  0  0
  6 16  2  0  0  0  0
  7  8  1  0  0  0  0
  7 25  1  0  0  0  0
  7 26  1  0  0  0  0
  8  9  1  0  0  0  0
  8 27  1  0  0  0  0
  8 28  1  0  0  0  0
  9 10  1  0  0  0  0
  9 29  1  0  0  0  0
 10 11  2  0  0  0  0
 10 12  1  0  0  0  0
 12 15  1  0  0  0  0
 12 13  1  0  0  0  0
 12 30  1  0  0  0  0
 13 14  1  0  0  0  0
 13 31  1  0  0  0  0
 13 32  1  0  0  0  0
 14 15  1  0  0  0  0
 14 33  1  0  0  0  0
 14 34  1  0  0  0  0
 15 35  1  0  0  0  0
 15 36  1  0  0  0  0
 16 17  1  0  0  0  0
 16 37  1  0  0  0  0
M  END
> <s_m_source_file>
AV-unprocessed.smi

> <i_m_source_file_index>
3320

> <i_lp_mmshare_version>
43012

> <i_f3d_flags>
0

> <s_epik_input>
W0NIM11bQ0hdKFtDSDNdKWMxbmMoW2NIXXMxKVtDSDJdW0NIMl1bTkhdQyg9TylbQ0hdMltDSDJdW0NIMl1bQ0gyXTI=

> <s_epik_cmdline>
J2VwaWtfcHl0aG9uJywgJy1waCcsICc3LjAnLCAnLXRuJywgJzgnLCAnLW1hJywgJzIwMCcsICctbWV0YWxfYmluZGluZycsICctaW1hZScsICc8aW5maWxlLm1hZT4nLCAnLW9tYWUnLCAnPG91dGZpbGUubWFlPic=

> <r_epik_Ionization_Penalty>
0.000842111

> <r_epik_Ionization_Penalty_Charging>
0

> <r_epik_Ionization_Penalty_Neutral>
0.000842111

> <r_epik_State_Penalty>
0.000542609

> <r_epik_Charging_Adjusted_Penalty>
0.000542609

> <i_epik_Tot_Q>
0

> <i_epik_Tot_abs_Q>
0

> <r_epik_Metal_State_Penalty>
-0

> <b_epik_Metal_Only>
0

> <s_lp_Force_Field>
OPLS_2005

> <r_lp_Energy>
-0.445202

> <b_lp_Chiralities_Consistent>
1

> <s_lp_Variant>
AV-unprocessed.smi:3320-1

> <Gold.Version>
5.8.1

> <Gold.Id.Protein>
6NUR|6NUR_protein|mol2

> <Gold.PLP.Fitness>
40.6147

> <Gold.PLP.PLP>
-38.3318

> <Gold.PLP.part.hbond>
-1.0000

> <Gold.PLP.part.metal>
0.0000

> <Gold.PLP.part.buried>
-6.0983

> <Gold.PLP.part.nonpolar>
-32.1671

> <Gold.PLP.part.repulsive>
0.5749

> <Gold.PLP.ligand.clash>
0.0000

> <Gold.PLP.ligand.torsion>
1.5204

> <Gold.PLP.Chemscore.Hbond>
0.8564

> <Gold.PLP.Chemscore.CHOScore>
0.7543

> <Gold.PLP.Chemscore.Metal>
0.0000

> <Gold.Chemscore.Hbonds>
donor molecule, donor type, donor heavy atom, donor atom, acceptor molecule, acceptor atom, score
      L1  H     9    29       P1  8028  0.59
      L1  C    16    37       P1  7957  0.75

> <Gold.PLP.Chemscore.Internal.Correction>
0.4914

> <Gold.Rescore>
     Score         DG    S(hbond)    S(metal)    S(lipo)     H(rot)  DE(clash)    DE(int)     intcor
     15.21     -16.30       0.86        0.00     100.33       1.49       0.04       1.05       ----

> <Gold.Chemscore.Fitness>
15.2060

> <Gold.Chemscore.DG>
-16.2972

> <Gold.Chemscore.ZeroCoef>
-5.4800

> <Gold.Chemscore.Hbond>
0.8640

> <Gold.Chemscore.Metal>
0.0000

> <Gold.Chemscore.Lipo>
100.3267

> <Gold.Chemscore.Internal_Hbond>
0.0000

> <Gold.Chemscore.DEClash>
0.0413

> <Gold.Chemscore.DEInternal>
1.0500

> <Gold.Chemscore.Rot>
1.4870

> <Gold.Chemscore.Internal.Correction>
   9.000000E+99

> <Gold.Chemscore.Hbonds>
donor molecule, donor type, donor heavy atom, donor atom, acceptor molecule, acceptor atom, score
      L1  H     9    29       P1  8028  0.57

> <Gold.Chemscore.Hbond.Weighted>
-2.8857

> <Gold.Chemscore.Metal.Weighted>
-0.0000

> <Gold.Chemscore.Lipo.Weighted>
-11.7382

> <Gold.Chemscore.Internal_Hbond.Weighted>
0.0000

> <Gold.Chemscore.DEClash.Weighted>
0.0413

> <Gold.Chemscore.DEInternal.Weighted>
1.0500

> <Gold.Chemscore.Rot.Weighted>
3.8067

> <Gold.Chemscore.Internal.Correction.Weighted>
   9.000000E+99

> <Gold.Protein.RotatedTorsions>
[ 6907 6896 6895 6894 ] final  176.01 input  -60.11 | X-H torsion
[ 7974 7965 7964 7962 ] final   17.97 input  175.53 | X-H torsion
[ 8008 7997 7996 7995 ] final  -28.07 input   59.86 | X-H torsion
[ 10167 10162 10161 10158 ] final   36.66 input  -65.29 | X-H torsion
[ 10718 10713 10712 10709 ] final  177.69 input   66.30 | X-H torsion
[ 10763 10752 10751 10750 ] final  164.74 input  -60.55 | X-H torsion
[ 11005 11000 10999 10996 ] final  -83.16 input  -57.11 | X-H torsion

> <Gold.Protein.ActiveResidues>
 VAL166  LYS551  ARG553  GLY616  TRP617  ASP618  TYR619  PRO620  LYS621  CYS622 
 ASP623  PHE694  ASN695  SER759  ASP760  ASP761  ALA762  ILE779  LEU786  VAL792 
 PHE793  MET794  SER795  GLU796  ALA797  LYS798  CYS799  TRP800  GLU811  SER814 

> <Gold.Protein.RotatedAtoms>
  151.7271  133.3316  159.3330 H   0  0  0  0  0  0  0  0  0  0  0  0  # atno 6907 bound_to 6896
  150.7628  134.6397  159.6239 H   0  0  0  0  0  0  0  0  0  0  0  0  # atno 6908 bound_to 6896
  152.3615  134.6867  160.0257 H   0  0  0  0  0  0  0  0  0  0  0  0  # atno 6909 bound_to 6896
  146.2201  139.8525  142.8620 H   0  0  0  0  0  0  0  0  0  0  0  0  # atno 7974 bound_to 7965
  154.4348  140.1855  156.1032 H   0  0  0  0  0  0  0  0  0  0  0  0  # atno 8008 bound_to 7997
  156.0276  140.3334  155.7079 H   0  0  0  0  0  0  0  0  0  0  0  0  # atno 8009 bound_to 7997
  155.5886  140.0629  157.2755 H   0  0  0  0  0  0  0  0  0  0  0  0  # atno 8010 bound_to 7997
  140.4106  144.1597  150.6139 H   0  0  0  0  0  0  0  0  0  0  0  0  # atno 10167 bound_to 10162
  156.9016  130.9880  151.3035 H   0  0  0  0  0  0  0  0  0  0  0  0  # atno 10718 bound_to 10713
  154.3135  135.2757  155.2554 H   0  0  0  0  0  0  0  0  0  0  0  0  # atno 10763 bound_to 10752
  154.4939  135.5826  153.6483 H   0  0  0  0  0  0  0  0  0  0  0  0  # atno 10764 bound_to 10752
  152.9885  135.6141  154.3314 H   0  0  0  0  0  0  0  0  0  0  0  0  # atno 10765 bound_to 10752
  141.1659  133.7280  156.8679 H   0  0  0  0  0  0  0  0  0  0  0  0  # atno 11005 bound_to 11000
  145.2787  141.0132  143.3730 LP  0  0  0  0  0  0  0  0  0  0  0  0  # atno 17320 bound_to 7965
  144.9167  139.4462  143.6561 LP  0  0  0  0  0  0  0  0  0  0  0  0  # atno 17321 bound_to 7965
  140.4641  143.2437  151.9179 LP  0  0  0  0  0  0  0  0  0  0  0  0  # atno 17342 bound_to 10162
  139.4782  144.5437  151.8490 LP  0  0  0  0  0  0  0  0  0  0  0  0  # atno 17343 bound_to 10162
  157.6023  130.8521  149.8820 LP  0  0  0  0  0  0  0  0  0  0  0  0  # atno 17370 bound_to 10713
  156.0579  130.3705  150.1048 LP  0  0  0  0  0  0  0  0  0  0  0  0  # atno 17371 bound_to 10713
  140.1802  134.9038  157.2940 LP  0  0  0  0  0  0  0  0  0  0  0  0  # atno 17394 bound_to 11000
  140.2403  134.3803  155.7483 LP  0  0  0  0  0  0  0  0  0  0  0  0  # atno 17395 bound_to 11000

$$$$
