AV-unprocessed.smi:651|AV-procd|sdf|3189|dock8
  -GOLD-   22720 0113D 1   1.00000     0.00000
 Structure written by MMmdl.
 39 40  0  0  0  0  0  0  0  0  2 V2000
  151.3953  145.3707  159.1622 C   0  0  0  0  0  0  0  0  0  0  0  0
  151.4596  143.9176  158.7424 C   0  0  0  0  0  0  0  0  0  0  0  0
  152.1444  142.9433  159.5000 C   0  0  0  0  0  0  0  0  0  0  0  0
  152.1628  141.6074  159.0482 C   0  0  0  0  0  0  0  0  0  0  0  0
  151.4952  141.2715  157.8493 C   0  0  0  0  0  0  0  0  0  0  0  0
  151.4886  139.8390  157.3414 C   0  0  0  0  0  0  0  0  0  0  0  0
  150.8146  139.7413  155.9703 C   0  0  0  0  0  0  0  0  0  0  0  0
  151.2183  140.4346  155.0376 O   0  0  0  0  0  0  0  0  0  0  0  0
  149.7819  138.8901  155.8662 N   0  0  0  0  0  0  0  0  0  0  0  0
  148.9860  138.6604  154.6593 C   0  0  1  0  0  0  0  0  0  0  0  0
  147.7145  137.8522  154.9866 C   0  0  0  0  0  0  0  0  0  0  0  0
  146.5418  138.5721  154.3121 C   0  0  0  0  0  0  0  0  0  0  0  0
  147.1766  139.5415  153.3134 C   0  0  0  0  0  0  0  0  0  0  0  0
  148.5202  139.9535  153.9339 C   0  0  1  0  0  0  0  0  0  0  0  0
  148.3473  141.1934  154.8386 C   0  0  0  0  0  0  0  0  0  0  0  0
  149.1091  142.2547  154.5621 N   0  0  0  0  0  0  0  0  0  0  0  0
  147.5487  141.1933  155.7743 O   0  0  0  0  0  0  0  0  0  0  0  0
  150.8311  142.2899  157.1314 C   0  0  0  0  0  0  0  0  0  0  0  0
  150.8366  143.5577  157.5980 N   0  3  0  0  0  0  0  0  0  0  0  0
  151.7350  145.4967  160.1907 H   0  0  0  0  0  0  0  0  0  0  0  0
  150.3731  145.7444  159.0951 H   0  0  0  0  0  0  0  0  0  0  0  0
  152.0285  145.9792  158.5160 H   0  0  0  0  0  0  0  0  0  0  0  0
  152.6487  143.2126  160.4168 H   0  0  0  0  0  0  0  0  0  0  0  0
  152.6795  140.8492  159.6189 H   0  0  0  0  0  0  0  0  0  0  0  0
  152.5087  139.4601  157.2677 H   0  0  0  0  0  0  0  0  0  0  0  0
  150.9662  139.2032  158.0578 H   0  0  0  0  0  0  0  0  0  0  0  0
  149.5103  138.3726  156.6894 H   0  0  0  0  0  0  0  0  0  0  0  0
  149.5737  138.0713  153.9522 H   0  0  0  0  0  0  0  0  0  0  0  0
  147.8110  136.8358  154.6031 H   0  0  0  0  0  0  0  0  0  0  0  0
  147.5369  137.7715  156.0600 H   0  0  0  0  0  0  0  0  0  0  0  0
  145.8509  137.8789  153.8315 H   0  0  0  0  0  0  0  0  0  0  0  0
  145.9749  139.1297  155.0585 H   0  0  0  0  0  0  0  0  0  0  0  0
  147.3591  139.0263  152.3694 H   0  0  0  0  0  0  0  0  0  0  0  0
  146.5226  140.3870  153.0944 H   0  0  0  0  0  0  0  0  0  0  0  0
  149.2305  140.2057  153.1444 H   0  0  0  0  0  0  0  0  0  0  0  0
  149.0383  143.0886  155.1275 H   0  0  0  0  0  0  0  0  0  0  0  0
  149.7591  142.2177  153.7902 H   0  0  0  0  0  0  0  0  0  0  0  0
  150.2950  142.1303  156.2069 H   0  0  0  0  0  0  0  0  0  0  0  0
  150.3479  144.2759  157.0627 H   0  0  0  0  0  0  0  0  0  0  0  0
  1  2  1  0  0  0  0
  1 20  1  0  0  0  0
  1 21  1  0  0  0  0
  1 22  1  0  0  0  0
  2 19  1  0  0  0  0
  2  3  2  0  0  0  0
  3  4  1  0  0  0  0
  3 23  1  0  0  0  0
  4  5  2  0  0  0  0
  4 24  1  0  0  0  0
  5  6  1  0  0  0  0
  5 18  1  0  0  0  0
  6  7  1  0  0  0  0
  6 25  1  0  0  0  0
  6 26  1  0  0  0  0
  7  8  2  0  0  0  0
  7  9  1  0  0  0  0
  9 10  1  0  0  0  0
  9 27  1  0  0  0  0
 10 14  1  0  0  0  0
 10 11  1  0  0  0  0
 10 28  1  0  0  0  0
 11 12  1  0  0  0  0
 11 29  1  0  0  0  0
 11 30  1  0  0  0  0
 12 13  1  0  0  0  0
 12 31  1  0  0  0  0
 12 32  1  0  0  0  0
 13 14  1  0  0  0  0
 13 33  1  0  0  0  0
 13 34  1  0  0  0  0
 14 15  1  0  0  0  0
 14 35  1  0  0  0  0
 15 16  1  0  0  0  0
 15 17  2  0  0  0  0
 16 36  1  0  0  0  0
 16 37  1  0  0  0  0
 18 19  2  0  0  0  0
 18 38  1  0  0  0  0
 19 39  1  0  0  0  0
M  CHG  1  19   1
M  END
> <s_m_source_file>
AV-unprocessed.smi

> <i_m_source_file_index>
651

> <i_lp_mmshare_version>
43012

> <i_f3d_flags>
0

> <s_epik_input>
W0NIM11jMVtjSF1bY0hdYyhbY0hdbjEpW0NIMl1DKD1PKVtOSF1bQ0BASF0yW0NIMl1bQ0gyXVtDSDJdW0NASF0yQyg9TylbTkgyXQ==

> <s_epik_cmdline>
J2VwaWtfcHl0aG9uJywgJy1waCcsICc3LjAnLCAnLXRuJywgJzgnLCAnLW1hJywgJzIwMCcsICctbWV0YWxfYmluZGluZycsICctaW1hZScsICc8aW5maWxlLm1hZT4nLCAnLW9tYWUnLCAnPG91dGZpbGUubWFlPic=

> <r_epik_Ionization_Penalty>
2.14971

> <r_epik_Ionization_Penalty_Charging>
2.14971

> <r_epik_Ionization_Penalty_Neutral>
1.65229e-07

> <r_epik_State_Penalty>
2.28946

> <r_epik_Charging_Adjusted_Penalty>
4.43917

> <i_epik_Tot_Q>
1

> <i_epik_Tot_abs_Q>
1

> <r_epik_Metal_State_Penalty>
2.30508

> <b_epik_Metal_Only>
0

> <s_lp_Force_Field>
OPLS_2005

> <r_lp_Energy>
19.7283

> <b_lp_Chiralities_Consistent>
1

> <s_lp_Variant>
AV-unprocessed.smi:651-6

> <Gold.Version>
5.8.1

> <Gold.Id.Protein>
6NUR|6NUR_protein|mol2

> <Gold.PLP.Fitness>
43.4596

> <Gold.PLP.PLP>
-31.9101

> <Gold.PLP.part.hbond>
-2.8439

> <Gold.PLP.part.metal>
0.0000

> <Gold.PLP.part.buried>
-3.7162

> <Gold.PLP.part.nonpolar>
-26.9106

> <Gold.PLP.part.repulsive>
1.2456

> <Gold.PLP.ligand.clash>
0.0000

> <Gold.PLP.ligand.torsion>
0.1992

> <Gold.PLP.Chemscore.Hbond>
3.9745

> <Gold.PLP.Chemscore.CHOScore>
0.0000

> <Gold.PLP.Chemscore.Metal>
0.0000

> <Gold.Chemscore.Hbonds>
donor molecule, donor type, donor heavy atom, donor atom, acceptor molecule, acceptor atom, score
      L1  H    16    36       P1  8028  1.00
      L1  H    19    39       P1  8028  1.87
      P1  H  7989  7998       L1     8  1.00

> <Gold.PLP.Chemscore.Internal.Correction>
0.0245

> <Gold.Rescore>
     Score         DG    S(hbond)    S(metal)    S(lipo)     H(rot)  DE(clash)    DE(int)     intcor
     17.37     -19.65       2.90        0.00      82.87       2.04       0.04       2.24       ----

> <Gold.Chemscore.Fitness>
17.3671

> <Gold.Chemscore.DG>
-19.6508

> <Gold.Chemscore.ZeroCoef>
-5.4800

> <Gold.Chemscore.Hbond>
2.9024

> <Gold.Chemscore.Metal>
0.0000

> <Gold.Chemscore.Lipo>
82.8688

> <Gold.Chemscore.Internal_Hbond>
0.0000

> <Gold.Chemscore.DEClash>
0.0416

> <Gold.Chemscore.DEInternal>
2.2421

> <Gold.Chemscore.Rot>
2.0386

> <Gold.Chemscore.Internal.Correction>
   9.000000E+99

> <Gold.Chemscore.Hbonds>
donor molecule, donor type, donor heavy atom, donor atom, acceptor molecule, acceptor atom, score
      L1  H    16    36       P1  8028  1.00
      L1  H    19    39       P1  8028  0.75
      P1  H  7989  7998       L1     8  0.95

> <Gold.Chemscore.Hbond.Weighted>
-9.6940

> <Gold.Chemscore.Metal.Weighted>
-0.0000

> <Gold.Chemscore.Lipo.Weighted>
-9.6957

> <Gold.Chemscore.Internal_Hbond.Weighted>
0.0000

> <Gold.Chemscore.DEClash.Weighted>
0.0416

> <Gold.Chemscore.DEInternal.Weighted>
2.2421

> <Gold.Chemscore.Rot.Weighted>
5.2188

> <Gold.Chemscore.Internal.Correction.Weighted>
   9.000000E+99

> <Gold.Protein.RotatedTorsions>
[ 6907 6896 6895 6894 ] final -140.84 input  -60.11 | X-H torsion
[ 7974 7965 7964 7962 ] final  -80.07 input  175.53 | X-H torsion
[ 8008 7997 7996 7995 ] final -116.82 input   59.86 | X-H torsion
[ 10167 10162 10161 10158 ] final  -33.39 input  -65.29 | X-H torsion
[ 10718 10713 10712 10709 ] final  100.51 input   66.30 | X-H torsion
[ 10763 10752 10751 10750 ] final -137.07 input  -60.55 | X-H torsion
[ 11005 11000 10999 10996 ] final   44.60 input  -57.11 | X-H torsion

> <Gold.Protein.ActiveResidues>
 VAL166  LYS551  ARG553  GLY616  TRP617  ASP618  TYR619  PRO620  LYS621  CYS622 
 ASP623  PHE694  ASN695  SER759  ASP760  ASP761  ALA762  ILE779  LEU786  VAL792 
 PHE793  MET794  SER795  GLU796  ALA797  LYS798  CYS799  TRP800  GLU811  SER814 

> <Gold.Protein.RotatedAtoms>
  151.0660  133.5505  159.2630 H   0  0  0  0  0  0  0  0  0  0  0  0  # atno 6907 bound_to 6896
  151.2462  135.0606  159.9054 H   0  0  0  0  0  0  0  0  0  0  0  0  # atno 6908 bound_to 6896
  152.5404  134.0427  159.8128 H   0  0  0  0  0  0  0  0  0  0  0  0  # atno 6909 bound_to 6896
  145.5648  140.9476  143.1428 H   0  0  0  0  0  0  0  0  0  0  0  0  # atno 7974 bound_to 7965
  155.0739  140.0393  157.2617 H   0  0  0  0  0  0  0  0  0  0  0  0  # atno 8008 bound_to 7997
  154.6961  140.2663  155.6741 H   0  0  0  0  0  0  0  0  0  0  0  0  # atno 8009 bound_to 7997
  156.2745  140.2750  156.1555 H   0  0  0  0  0  0  0  0  0  0  0  0  # atno 8010 bound_to 7997
  140.7205  143.3624  151.1938 H   0  0  0  0  0  0  0  0  0  0  0  0  # atno 10167 bound_to 10162
  157.6852  131.0700  150.5112 H   0  0  0  0  0  0  0  0  0  0  0  0  # atno 10718 bound_to 10713
  154.8670  135.3653  154.5163 H   0  0  0  0  0  0  0  0  0  0  0  0  # atno 10763 bound_to 10752
  153.5795  135.7018  153.5474 H   0  0  0  0  0  0  0  0  0  0  0  0  # atno 10764 bound_to 10752
  153.3470  135.4082  155.1579 H   0  0  0  0  0  0  0  0  0  0  0  0  # atno 10765 bound_to 10752
  140.1537  134.4429  155.8364 H   0  0  0  0  0  0  0  0  0  0  0  0  # atno 11005 bound_to 11000
  144.7466  139.7305  143.7290 LP  0  0  0  0  0  0  0  0  0  0  0  0  # atno 17320 bound_to 7965
  146.1826  139.5025  142.9857 LP  0  0  0  0  0  0  0  0  0  0  0  0  # atno 17321 bound_to 7965
  139.7178  143.9272  152.2973 LP  0  0  0  0  0  0  0  0  0  0  0  0  # atno 17342 bound_to 10162
  139.9019  144.6907  150.8656 LP  0  0  0  0  0  0  0  0  0  0  0  0  # atno 17343 bound_to 10162
  156.5429  130.4212  149.6145 LP  0  0  0  0  0  0  0  0  0  0  0  0  # atno 17370 bound_to 10713
  156.2970  130.7155  151.2018 LP  0  0  0  0  0  0  0  0  0  0  0  0  # atno 17371 bound_to 10713
  141.2202  133.6883  156.7468 LP  0  0  0  0  0  0  0  0  0  0  0  0  # atno 17394 bound_to 11000
  140.2574  134.8494  157.3725 LP  0  0  0  0  0  0  0  0  0  0  0  0  # atno 17395 bound_to 11000

$$$$
