AV-unprocessed.smi:283|AV-procd|sdf|2130|dock9
  -GOLD-   2262021443D 1   1.00000     0.00000
 Structure written by MMmdl.
 48 51  0  0  0  0  0  0  0  0  1 V2000
  145.8091  134.9474  158.3590 C   0  0  0  0  0  0  0  0  0  0  0  0
  147.0885  134.3600  158.9822 C   0  0  1  0  0  0  0  0  0  0  0  0
  148.2616  134.6520  158.1591 N   0  0  0  0  0  0  0  0  0  0  0  0
  148.7990  135.8907  158.0985 C   0  0  0  0  0  0  0  0  0  0  0  0
  149.6977  136.3187  159.0232 N   0  0  0  0  0  0  0  0  0  0  0  0
  150.2071  137.5513  158.9403 C   0  0  0  0  0  0  0  0  0  0  0  0
  149.9581  138.4979  158.0322 N   0  0  0  0  0  0  0  0  0  0  0  0
  149.0528  138.0738  157.1029 C   0  0  0  0  0  0  0  0  0  0  0  0
  148.4297  136.7958  157.0703 C   0  0  0  0  0  0  0  0  0  0  0  0
  147.5600  136.7256  155.9913 N   0  0  0  0  0  0  0  0  0  0  0  0
  147.6606  137.8994  155.4279 C   0  0  0  0  0  0  0  0  0  0  0  0
  148.5543  138.7699  156.0218 N   0  0  0  0  0  0  0  0  0  0  0  0
  148.8991  140.1902  155.6731 C   0  0  2  0  0  0  0  0  0  0  0  0
  148.0813  141.0177  156.4408 O   0  0  0  0  0  0  0  0  0  0  0  0
  146.9225  141.3648  155.6936 C   0  0  1  0  0  0  0  0  0  0  0  0
  146.2023  142.5759  156.3141 C   0  0  0  0  0  0  0  0  0  0  0  0
  145.7968  142.2759  157.6326 O   0  0  0  0  0  0  0  0  0  0  0  0
  147.5030  141.5775  154.2868 C   0  0  1  0  0  0  0  0  0  0  0  0
  148.0029  142.8981  154.1475 O   0  0  0  0  0  0  0  0  0  0  0  0
  148.6038  140.5128  154.1943 C   0  0  1  0  0  0  0  0  0  0  0  0
  149.7490  140.9574  153.4909 O   0  0  0  0  0  0  0  0  0  0  0  0
  147.2432  134.8575  160.4185 C   0  0  0  0  0  0  0  0  0  0  0  0
  147.3029  136.2465  160.6817 C   0  0  0  0  0  0  0  0  0  0  0  0
  147.4389  136.7233  161.9990 C   0  0  0  0  0  0  0  0  0  0  0  0
  147.5104  135.8159  163.0709 C   0  0  0  0  0  0  0  0  0  0  0  0
  147.4391  134.4328  162.8232 C   0  0  0  0  0  0  0  0  0  0  0  0
  147.3017  133.9493  161.5063 C   0  0  0  0  0  0  0  0  0  0  0  0
  147.1988  132.2397  161.2669 Cl  0  0  0  0  0  0  0  0  0  0  0  0
  149.9471  140.3096  155.9497 H   0  0  0  0  0  0  0  0  0  0  0  0
  146.2425  140.5127  155.6631 H   0  0  0  0  0  0  0  0  0  0  0  0
  146.7418  141.4296  153.5201 H   0  0  0  0  0  0  0  0  0  0  0  0
  148.2287  139.6284  153.6809 H   0  0  0  0  0  0  0  0  0  0  0  0
  144.9320  134.6865  158.9518 H   0  0  0  0  0  0  0  0  0  0  0  0
  145.6384  134.5740  157.3497 H   0  0  0  0  0  0  0  0  0  0  0  0
  145.8596  136.0353  158.3043 H   0  0  0  0  0  0  0  0  0  0  0  0
  146.9920  133.2757  159.0188 H   0  0  0  0  0  0  0  0  0  0  0  0
  148.6728  133.8570  157.6917 H   0  0  0  0  0  0  0  0  0  0  0  0
  150.9149  137.8171  159.7116 H   0  0  0  0  0  0  0  0  0  0  0  0
  147.0763  138.1529  154.5560 H   0  0  0  0  0  0  0  0  0  0  0  0
  146.8358  143.4635  156.3095 H   0  0  0  0  0  0  0  0  0  0  0  0
  145.3042  142.8130  155.7429 H   0  0  0  0  0  0  0  0  0  0  0  0
  144.8607  142.3895  157.6935 H   0  0  0  0  0  0  0  0  0  0  0  0
  148.4054  143.1524  154.9638 H   0  0  0  0  0  0  0  0  0  0  0  0
  150.0283  140.2697  152.9058 H   0  0  0  0  0  0  0  0  0  0  0  0
  147.2403  136.9605  159.8738 H   0  0  0  0  0  0  0  0  0  0  0  0
  147.4856  137.7859  162.1868 H   0  0  0  0  0  0  0  0  0  0  0  0
  147.6141  136.1799  164.0824 H   0  0  0  0  0  0  0  0  0  0  0  0
  147.4858  133.7390  163.6497 H   0  0  0  0  0  0  0  0  0  0  0  0
  1  2  1  0  0  0  0
  1 33  1  0  0  0  0
  1 34  1  0  0  0  0
  1 35  1  0  0  0  0
  2  3  1  0  0  0  0
  2 22  1  0  0  0  0
  2 36  1  0  0  0  0
  3  4  1  0  0  0  0
  3 37  1  0  0  0  0
  4  9  1  0  0  0  0
  4  5  2  0  0  0  0
  5  6  1  0  0  0  0
  6  7  2  0  0  0  0
  6 38  1  0  0  0  0
  7  8  1  0  0  0  0
  8 12  1  0  0  0  0
  8  9  2  0  0  0  0
  9 10  1  0  0  0  0
 10 11  2  0  0  0  0
 11 12  1  0  0  0  0
 11 39  1  0  0  0  0
 12 13  1  0  0  0  0
 13 29  1  0  0  0  0
 13 20  1  0  0  0  0
 13 14  1  0  0  0  0
 14 15  1  0  0  0  0
 15 30  1  0  0  0  0
 15 16  1  0  0  0  0
 15 18  1  0  0  0  0
 16 17  1  0  0  0  0
 16 40  1  0  0  0  0
 16 41  1  0  0  0  0
 17 42  1  0  0  0  0
 18 31  1  0  0  0  0
 18 19  1  0  0  0  0
 18 20  1  0  0  0  0
 19 43  1  0  0  0  0
 20 32  1  0  0  0  0
 20 21  1  0  0  0  0
 21 44  1  0  0  0  0
 22 27  1  0  0  0  0
 22 23  2  0  0  0  0
 23 24  1  0  0  0  0
 23 45  1  0  0  0  0
 24 25  2  0  0  0  0
 24 46  1  0  0  0  0
 25 26  1  0  0  0  0
 25 47  1  0  0  0  0
 26 27  2  0  0  0  0
 26 48  1  0  0  0  0
 27 28  1  0  0  0  0
M  END
> <s_m_source_file>
AV-unprocessed.smi

> <i_m_source_file_index>
283

> <i_lp_mmshare_version>
43012

> <i_f3d_flags>
0

> <s_epik_input>
Q2xjMVtjSF1bY0hdW2NIXVtjSF1jMVtDQEhdKFtDSDNdKVtOSF1jKG5bY0hdbjIpYyhjMjMpbltjSF1uM1tDQEBIXTRPW0NASF0oW0NIMl1bT0hdKVtDQEBIXShbT0hdKVtDQEhdNFtPSF0=

> <s_epik_cmdline>
J2VwaWtfcHl0aG9uJywgJy1waCcsICc3LjAnLCAnLXRuJywgJzgnLCAnLW1hJywgJzIwMCcsICctbWV0YWxfYmluZGluZycsICctaW1hZScsICc8aW5maWxlLm1hZT4nLCAnLW9tYWUnLCAnPG91dGZpbGUubWFlPic=

> <r_lp_tautomer_probability>
1

> <r_epik_Ionization_Penalty>
0.000266407

> <r_epik_Ionization_Penalty_Charging>
0

> <r_epik_Ionization_Penalty_Neutral>
0.000266407

> <r_epik_State_Penalty>
-0

> <r_epik_Charging_Adjusted_Penalty>
0

> <i_epik_Tot_Q>
0

> <i_epik_Tot_abs_Q>
0

> <r_epik_Metal_State_Penalty>
-0

> <b_epik_Metal_Only>
0

> <s_epik_Chemistry_Notes>
This compound contains an acetal/aminal-like group ( X-CH(R)-Y where X, Y are N, S, or O) that may be acid/base labile, releasing an aldehyde.

> <s_lp_Force_Field>
OPLS_2005

> <r_lp_Energy>
48.0921

> <b_lp_Chiralities_Consistent>
1

> <s_lp_Variant>
AV-unprocessed.smi:283-6

> <Gold.Version>
5.8.1

> <Gold.Id.Protein>
6NUR|6NUR_protein|mol2

> <Gold.PLP.Fitness>
44.9861

> <Gold.PLP.PLP>
-37.9637

> <Gold.PLP.part.hbond>
-6.4111

> <Gold.PLP.part.metal>
0.0000

> <Gold.PLP.part.buried>
-2.4647

> <Gold.PLP.part.nonpolar>
-28.0079

> <Gold.PLP.part.repulsive>
0.1566

> <Gold.PLP.ligand.clash>
0.0000

> <Gold.PLP.ligand.torsion>
1.5705

> <Gold.PLP.Chemscore.Hbond>
3.3552

> <Gold.PLP.Chemscore.CHOScore>
0.0000

> <Gold.PLP.Chemscore.Metal>
0.0000

> <Gold.Chemscore.Hbonds>
donor molecule, donor type, donor heavy atom, donor atom, acceptor molecule, acceptor atom, score
      L1  H    19    43       P1  8028  0.64
      L1  H    21    44       P1  7957  0.58
      P1  H  6896  6909       L1     5  1.00
      P1  H  8011  8017       L1    21  1.00
      P1  H  8022  8030       L1    19  0.09

> <Gold.PLP.Chemscore.Internal.Correction>
0.0978

> <Gold.Rescore>
     Score         DG    S(hbond)    S(metal)    S(lipo)     H(rot)  DE(clash)    DE(int)     intcor
      9.66     -13.10       2.66        0.00      78.90       4.10       0.17       3.28       ----

> <Gold.Chemscore.Fitness>
9.6573

> <Gold.Chemscore.DG>
-13.1030

> <Gold.Chemscore.ZeroCoef>
-5.4800

> <Gold.Chemscore.Hbond>
2.6587

> <Gold.Chemscore.Metal>
0.0000

> <Gold.Chemscore.Lipo>
78.8971

> <Gold.Chemscore.Internal_Hbond>
0.0000

> <Gold.Chemscore.DEClash>
0.1682

> <Gold.Chemscore.DEInternal>
3.2775

> <Gold.Chemscore.Rot>
4.0968

> <Gold.Chemscore.Internal.Correction>
   9.000000E+99

> <Gold.Chemscore.Hbonds>
donor molecule, donor type, donor heavy atom, donor atom, acceptor molecule, acceptor atom, score
      L1  H    19    43       P1  8028  0.64
      L1  H    21    44       P1  7957  0.58
      P1  H  6896  6909       L1     5  0.83
      P1  H  8011  8017       L1    21  0.25

> <Gold.Chemscore.Hbond.Weighted>
-8.8800

> <Gold.Chemscore.Metal.Weighted>
-0.0000

> <Gold.Chemscore.Lipo.Weighted>
-9.2310

> <Gold.Chemscore.Internal_Hbond.Weighted>
0.0000

> <Gold.Chemscore.DEClash.Weighted>
0.1682

> <Gold.Chemscore.DEInternal.Weighted>
3.2775

> <Gold.Chemscore.Rot.Weighted>
10.4879

> <Gold.Chemscore.Internal.Correction.Weighted>
   9.000000E+99

> <Gold.Protein.RotatedTorsions>
[ 6907 6896 6895 6894 ] final   75.57 input  -60.11 | X-H torsion
[ 7974 7965 7964 7962 ] final    4.23 input  175.53 | X-H torsion
[ 8008 7997 7996 7995 ] final  118.93 input   59.86 | X-H torsion
[ 10167 10162 10161 10158 ] final   17.79 input  -65.29 | X-H torsion
[ 10718 10713 10712 10709 ] final -132.15 input   66.30 | X-H torsion
[ 10763 10752 10751 10750 ] final   61.45 input  -60.55 | X-H torsion
[ 11005 11000 10999 10996 ] final   75.72 input  -57.11 | X-H torsion

> <Gold.Protein.ActiveResidues>
 VAL166  LYS551  ARG553  GLY616  TRP617  ASP618  TYR619  PRO620  LYS621  CYS622 
 ASP623  PHE694  ASN695  SER759  ASP760  ASP761  ALA762  ILE779  LEU786  VAL792 
 PHE793  MET794  SER795  GLU796  ALA797  LYS798  CYS799  TRP800  GLU811  SER814 

> <Gold.Protein.RotatedAtoms>
  152.5032  134.4100  159.9445 H   0  0  0  0  0  0  0  0  0  0  0  0  # atno 6907 bound_to 6896
  151.4068  133.3734  159.2746 H   0  0  0  0  0  0  0  0  0  0  0  0  # atno 6908 bound_to 6896
  150.9321  134.8757  159.7617 H   0  0  0  0  0  0  0  0  0  0  0  0  # atno 6909 bound_to 6896
  146.2444  140.0566  142.8371 H   0  0  0  0  0  0  0  0  0  0  0  0  # atno 7974 bound_to 7965
  156.2571  140.2864  156.0911 H   0  0  0  0  0  0  0  0  0  0  0  0  # atno 8008 bound_to 7997
  155.1462  140.0396  157.2827 H   0  0  0  0  0  0  0  0  0  0  0  0  # atno 8009 bound_to 7997
  154.6494  140.2541  155.7237 H   0  0  0  0  0  0  0  0  0  0  0  0  # atno 8010 bound_to 7997
  140.5701  143.9178  150.6706 H   0  0  0  0  0  0  0  0  0  0  0  0  # atno 10167 bound_to 10162
  156.2317  130.7041  151.0865 H   0  0  0  0  0  0  0  0  0  0  0  0  # atno 10718 bound_to 10713
  152.9951  135.5500  154.6036 H   0  0  0  0  0  0  0  0  0  0  0  0  # atno 10763 bound_to 10752
  154.5372  135.2817  155.1130 H   0  0  0  0  0  0  0  0  0  0  0  0  # atno 10764 bound_to 10752
  154.2421  135.6414  153.5263 H   0  0  0  0  0  0  0  0  0  0  0  0  # atno 10765 bound_to 10752
  139.9331  134.7541  156.1306 H   0  0  0  0  0  0  0  0  0  0  0  0  # atno 11005 bound_to 11000
  145.0937  140.9301  143.4754 LP  0  0  0  0  0  0  0  0  0  0  0  0  # atno 17320 bound_to 7965
  145.0744  139.3007  143.5815 LP  0  0  0  0  0  0  0  0  0  0  0  0  # atno 17321 bound_to 7965
  140.2651  143.3496  152.1288 LP  0  0  0  0  0  0  0  0  0  0  0  0  # atno 17342 bound_to 10162
  139.5113  144.6898  151.5790 LP  0  0  0  0  0  0  0  0  0  0  0  0  # atno 17343 bound_to 10162
  157.7136  131.0721  150.6411 LP  0  0  0  0  0  0  0  0  0  0  0  0  # atno 17370 bound_to 10713
  156.6479  130.4477  149.5729 LP  0  0  0  0  0  0  0  0  0  0  0  0  # atno 17371 bound_to 10713
  141.0930  133.6706  156.2583 LP  0  0  0  0  0  0  0  0  0  0  0  0  # atno 17394 bound_to 11000
  140.6149  134.5421  157.5539 LP  0  0  0  0  0  0  0  0  0  0  0  0  # atno 17395 bound_to 11000

$$$$
