AV-unprocessed.smi:1524|AV-procd|sdf|6140|dock4
  -GOLD-   22720 6283D 1   1.00000     0.00000
 Structure written by MMmdl.
 34 35  0  0  0  0  0  0  0  0  2 V2000
  149.0898  141.5097  157.3084 O   0  0  0  0  0  0  0  0  0  0  0  0
  149.8957  140.7263  156.8106 C   0  0  0  0  0  0  0  0  0  0  0  0
  151.1412  140.4902  157.2710 N   0  0  0  0  0  0  0  0  0  0  0  0
  151.8332  141.0874  158.3378 C   0  0  0  0  0  0  0  0  0  0  0  0
  151.4723  142.2515  158.9457 C   0  0  0  0  0  0  0  0  0  0  0  0
  152.2444  142.8300  160.0386 C   0  0  0  0  0  0  0  0  0  0  0  0
  151.8844  144.1202  160.7523 C   0  0  0  0  0  0  0  0  0  0  0  0
  152.2167  145.1694  160.0011 F   0  0  0  0  0  0  0  0  0  0  0  0
  150.5718  144.1731  160.9762 F   0  0  0  0  0  0  0  0  0  0  0  0
  152.5154  144.2236  161.9220 F   0  0  0  0  0  0  0  0  0  0  0  0
  153.3579  142.0768  160.3526 C   0  0  0  0  0  0  0  0  0  0  0  0
  153.7896  140.9236  159.7966 N   0  5  0  0  0  0  0  0  0  0  0  0
  153.0575  140.3874  158.7794 C   0  0  0  0  0  0  0  0  0  0  0  0
  153.3946  139.3401  158.2257 O   0  0  0  0  0  0  0  0  0  0  0  0
  149.5659  139.9943  155.7305 N   0  0  0  0  0  0  0  0  0  0  0  0
  148.3082  139.9950  154.9789 C   0  0  0  0  0  0  0  0  0  0  0  0
  148.3522  138.9750  153.8263 C   0  0  0  0  0  0  0  0  0  0  0  0
  147.1062  139.1038  152.9352 C   0  0  0  0  0  0  0  0  0  0  0  0
  146.9898  140.4358  152.4463 O   0  0  0  0  0  0  0  0  0  0  0  0
  146.8193  141.3928  153.4861 C   0  0  0  0  0  0  0  0  0  0  0  0
  148.0526  141.3965  154.4038 C   0  0  0  0  0  0  0  0  0  0  0  0
  151.6574  139.7601  156.8021 H   0  0  0  0  0  0  0  0  0  0  0  0
  150.6037  142.7982  158.6186 H   0  0  0  0  0  0  0  0  0  0  0  0
  153.9974  142.4618  161.1756 H   0  0  0  0  0  0  0  0  0  0  0  0
  150.2623  139.3368  155.4107 H   0  0  0  0  0  0  0  0  0  0  0  0
  147.4783  139.7516  155.6451 H   0  0  0  0  0  0  0  0  0  0  0  0
  149.2439  139.1404  153.2200 H   0  0  0  0  0  0  0  0  0  0  0  0
  148.4237  137.9583  154.2144 H   0  0  0  0  0  0  0  0  0  0  0  0
  147.1816  138.4232  152.0870 H   0  0  0  0  0  0  0  0  0  0  0  0
  146.2055  138.8270  153.4852 H   0  0  0  0  0  0  0  0  0  0  0  0
  146.6826  142.3775  153.0390 H   0  0  0  0  0  0  0  0  0  0  0  0
  145.9132  141.1729  154.0528 H   0  0  0  0  0  0  0  0  0  0  0  0
  147.9151  142.1175  155.2106 H   0  0  0  0  0  0  0  0  0  0  0  0
  148.9211  141.7288  153.8328 H   0  0  0  0  0  0  0  0  0  0  0  0
  1  2  2  0  0  0  0
  2  3  1  0  0  0  0
  2 15  1  0  0  0  0
  3  4  1  0  0  0  0
  3 22  1  0  0  0  0
  4 13  1  0  0  0  0
  4  5  2  0  0  0  0
  5  6  1  0  0  0  0
  5 23  1  0  0  0  0
  6  7  1  0  0  0  0
  6 11  2  0  0  0  0
  7  8  1  0  0  0  0
  7  9  1  0  0  0  0
  7 10  1  0  0  0  0
 11 12  1  0  0  0  0
 11 24  1  0  0  0  0
 12 13  1  0  0  0  0
 13 14  2  0  0  0  0
 15 16  1  0  0  0  0
 15 25  1  0  0  0  0
 16 21  1  0  0  0  0
 16 17  1  0  0  0  0
 16 26  1  0  0  0  0
 17 18  1  0  0  0  0
 17 27  1  0  0  0  0
 17 28  1  0  0  0  0
 18 19  1  0  0  0  0
 18 29  1  0  0  0  0
 18 30  1  0  0  0  0
 19 20  1  0  0  0  0
 20 21  1  0  0  0  0
 20 31  1  0  0  0  0
 20 32  1  0  0  0  0
 21 33  1  0  0  0  0
 21 34  1  0  0  0  0
M  CHG  1  12  -1
M  END
> <s_m_source_file>
AV-unprocessed.smi

> <i_m_source_file_index>
1524

> <i_lp_mmshare_version>
43012

> <i_f3d_flags>
0

> <s_epik_input>
W0NIMl0xW0NIMl1PW0NIMl1bQ0gyXVtDSF0xW05IXUMoPU8pW05IXWMyW2NIXWMoQyhGKShGKUYpW2NIXVtuSF1jMj1P

> <s_epik_cmdline>
J2VwaWtfcHl0aG9uJywgJy1waCcsICc3LjAnLCAnLXRuJywgJzgnLCAnLW1hJywgJzIwMCcsICctbWV0YWxfYmluZGluZycsICctaW1hZScsICc8aW5maWxlLm1hZT4nLCAnLW9tYWUnLCAnPG91dGZpbGUubWFlPic=

> <r_lp_tautomer_probability>
1

> <r_epik_Ionization_Penalty>
3.17101

> <r_epik_Ionization_Penalty_Charging>
0.175581

> <r_epik_Ionization_Penalty_Neutral>
2.99543

> <r_epik_State_Penalty>
2.99161

> <r_epik_Charging_Adjusted_Penalty>
3.16719

> <i_epik_Tot_Q>
-1

> <i_epik_Tot_abs_Q>
1

> <r_epik_Metal_State_Penalty>
0.453119

> <b_epik_Metal_Only>
1

> <s_lp_Force_Field>
OPLS_2005

> <r_lp_Energy>
32.5819

> <b_lp_Chiralities_Consistent>
1

> <s_lp_Variant>
AV-unprocessed.smi:1524-2

> <Gold.Version>
5.8.1

> <Gold.Id.Protein>
6NUR|6NUR_protein|mol2

> <Gold.PLP.Fitness>
36.1853

> <Gold.PLP.PLP>
-34.7310

> <Gold.PLP.part.hbond>
-1.0000

> <Gold.PLP.part.metal>
0.0000

> <Gold.PLP.part.buried>
-2.3996

> <Gold.PLP.part.nonpolar>
-30.7681

> <Gold.PLP.part.repulsive>
1.6282

> <Gold.PLP.ligand.clash>
0.0000

> <Gold.PLP.ligand.torsion>
0.7757

> <Gold.PLP.Chemscore.Hbond>
1.0000

> <Gold.PLP.Chemscore.CHOScore>
0.0000

> <Gold.PLP.Chemscore.Metal>
0.0000

> <Gold.Chemscore.Hbonds>
donor molecule, donor type, donor heavy atom, donor atom, acceptor molecule, acceptor atom, score
      P1  H  7997  8010       L1    14  0.95

> <Gold.PLP.Chemscore.Internal.Correction>
0.0058

> <Gold.Rescore>
     Score         DG    S(hbond)    S(metal)    S(lipo)     H(rot)  DE(clash)    DE(int)     intcor
     11.49     -15.20       0.81        0.00      81.77       1.00       1.76       1.96       ----

> <Gold.Chemscore.Fitness>
11.4891

> <Gold.Chemscore.DG>
-15.2041

> <Gold.Chemscore.ZeroCoef>
-5.4800

> <Gold.Chemscore.Hbond>
0.8136

> <Gold.Chemscore.Metal>
0.0000

> <Gold.Chemscore.Lipo>
81.7652

> <Gold.Chemscore.Internal_Hbond>
0.0000

> <Gold.Chemscore.DEClash>
1.7561

> <Gold.Chemscore.DEInternal>
1.9589

> <Gold.Chemscore.Rot>
1.0000

> <Gold.Chemscore.Internal.Correction>
   9.000000E+99

> <Gold.Chemscore.Hbonds>
donor molecule, donor type, donor heavy atom, donor atom, acceptor molecule, acceptor atom, score
      P1  H  7997  8010       L1    14  0.21

> <Gold.Chemscore.Hbond.Weighted>
-2.7176

> <Gold.Chemscore.Metal.Weighted>
-0.0000

> <Gold.Chemscore.Lipo.Weighted>
-9.5665

> <Gold.Chemscore.Internal_Hbond.Weighted>
0.0000

> <Gold.Chemscore.DEClash.Weighted>
1.7561

> <Gold.Chemscore.DEInternal.Weighted>
1.9589

> <Gold.Chemscore.Rot.Weighted>
2.5600

> <Gold.Chemscore.Internal.Correction.Weighted>
   9.000000E+99

> <Gold.Protein.RotatedTorsions>
[ 6907 6896 6895 6894 ] final -156.61 input  -60.11 | X-H torsion
[ 7974 7965 7964 7962 ] final  152.92 input  175.53 | X-H torsion
[ 8008 7997 7996 7995 ] final   43.72 input   59.86 | X-H torsion
[ 10167 10162 10161 10158 ] final  -12.48 input  -65.29 | X-H torsion
[ 10718 10713 10712 10709 ] final  -63.35 input   66.30 | X-H torsion
[ 10763 10752 10751 10750 ] final   73.61 input  -60.55 | X-H torsion
[ 11005 11000 10999 10996 ] final  151.65 input  -57.11 | X-H torsion

> <Gold.Protein.ActiveResidues>
 VAL166  LYS551  ARG553  GLY616  TRP617  ASP618  TYR619  PRO620  LYS621  CYS622 
 ASP623  PHE694  ASN695  SER759  ASP760  ASP761  ALA762  ILE779  LEU786  VAL792 
 PHE793  MET794  SER795  GLU796  ALA797  LYS798  CYS799  TRP800  GLU811  SER814 

> <Gold.Protein.RotatedAtoms>
  151.2903  133.4169  159.2632 H   0  0  0  0  0  0  0  0  0  0  0  0  # atno 6907 bound_to 6896
  151.0284  134.9521  159.8108 H   0  0  0  0  0  0  0  0  0  0  0  0  # atno 6908 bound_to 6896
  152.5340  134.2864  159.9079 H   0  0  0  0  0  0  0  0  0  0  0  0  # atno 6909 bound_to 6896
  144.8189  139.6732  143.6109 H   0  0  0  0  0  0  0  0  0  0  0  0  # atno 7974 bound_to 7965
  155.3073  140.3389  155.4245 H   0  0  0  0  0  0  0  0  0  0  0  0  # atno 8008 bound_to 7997
  156.1972  140.1719  156.8011 H   0  0  0  0  0  0  0  0  0  0  0  0  # atno 8009 bound_to 7997
  154.5514  140.0705  156.8657 H   0  0  0  0  0  0  0  0  0  0  0  0  # atno 8010 bound_to 7997
  140.7162  143.5527  150.9282 H   0  0  0  0  0  0  0  0  0  0  0  0  # atno 10167 bound_to 10162
  156.0796  130.4220  150.1265 H   0  0  0  0  0  0  0  0  0  0  0  0  # atno 10718 bound_to 10713
  153.0532  135.5056  154.7919 H   0  0  0  0  0  0  0  0  0  0  0  0  # atno 10763 bound_to 10752
  154.6765  135.2961  154.9674 H   0  0  0  0  0  0  0  0  0  0  0  0  # atno 10764 bound_to 10752
  154.0475  135.6708  153.4849 H   0  0  0  0  0  0  0  0  0  0  0  0  # atno 10765 bound_to 10752
  140.1237  134.8847  157.2108 H   0  0  0  0  0  0  0  0  0  0  0  0  # atno 11005 bound_to 11000
  146.2494  139.6167  142.9437 LP  0  0  0  0  0  0  0  0  0  0  0  0  # atno 17320 bound_to 7965
  145.5150  141.0434  143.2467 LP  0  0  0  0  0  0  0  0  0  0  0  0  # atno 17321 bound_to 7965
  139.9252  143.6558  152.3088 LP  0  0  0  0  0  0  0  0  0  0  0  0  # atno 17342 bound_to 10162
  139.6990  144.7637  151.1307 LP  0  0  0  0  0  0  0  0  0  0  0  0  # atno 17343 bound_to 10162
  156.9299  130.9710  151.3534 LP  0  0  0  0  0  0  0  0  0  0  0  0  # atno 17370 bound_to 10713
  157.5907  130.8442  149.8655 LP  0  0  0  0  0  0  0  0  0  0  0  0  # atno 17371 bound_to 10713
  140.2931  134.3217  155.7310 LP  0  0  0  0  0  0  0  0  0  0  0  0  # atno 17394 bound_to 11000
  141.2157  133.7546  156.9532 LP  0  0  0  0  0  0  0  0  0  0  0  0  # atno 17395 bound_to 11000

$$$$
