AV-unprocessed.smi:3078|AV-procd|sdf|11735|dock6
  -GOLD-   2272017133D 1   1.00000     0.00000
 Structure written by MMmdl.
 24 24  0  0  0  0  0  0  0  0  3 V2000
  151.0709  141.2897  156.1221 C   0  0  0  0  0  0  0  0  0  0  0  0
  150.1034  140.6519  155.2548 N   0  0  0  0  0  0  0  0  0  0  0  0
  148.9547  141.1818  154.7088 C   0  0  0  0  0  0  0  0  0  0  0  0
  148.3632  140.2008  153.9598 C   0  0  0  0  0  0  0  0  0  0  0  0
  147.0900  140.2473  153.1528 C   0  0  2  0  0  0  0  0  0  0  0  0
  145.9696  140.6436  154.0250 N   0  3  0  0  0  0  0  0  0  0  0  0
  146.7876  138.9116  152.4450 C   0  0  0  0  0  0  0  0  0  0  0  0
  145.3580  138.7772  152.1074 N   0  3  0  0  0  0  0  0  0  0  0  0
  149.2478  139.0945  154.1142 C   0  0  0  0  0  0  0  0  0  0  0  0
  150.2825  139.3663  154.8906 N   0  0  0  0  0  0  0  0  0  0  0  0
  150.8657  142.3585  156.1909 H   0  0  0  0  0  0  0  0  0  0  0  0
  152.0764  141.1482  155.7240 H   0  0  0  0  0  0  0  0  0  0  0  0
  151.0157  140.8524  157.1194 H   0  0  0  0  0  0  0  0  0  0  0  0
  148.6579  142.2032  154.8975 H   0  0  0  0  0  0  0  0  0  0  0  0
  147.1650  141.0236  152.3898 H   0  0  0  0  0  0  0  0  0  0  0  0
  145.9842  140.0835  154.8660 H   0  0  0  0  0  0  0  0  0  0  0  0
  145.0936  140.4966  153.5441 H   0  0  0  0  0  0  0  0  0  0  0  0
  147.3774  138.8122  151.5330 H   0  0  0  0  0  0  0  0  0  0  0  0
  147.0598  138.0753  153.0901 H   0  0  0  0  0  0  0  0  0  0  0  0
  144.9985  137.9153  152.4932 H   0  0  0  0  0  0  0  0  0  0  0  0
  145.2463  138.7654  151.1032 H   0  0  0  0  0  0  0  0  0  0  0  0
  149.1666  138.1050  153.6886 H   0  0  0  0  0  0  0  0  0  0  0  0
  144.8411  139.5555  152.4918 H   0  0  0  0  0  0  0  0  0  0  0  0
  146.0578  141.6189  154.2729 H   0  0  0  0  0  0  0  0  0  0  0  0
  1  2  1  0  0  0  0
  1 11  1  0  0  0  0
  1 12  1  0  0  0  0
  1 13  1  0  0  0  0
  2 10  1  0  0  0  0
  2  3  1  0  0  0  0
  3  4  2  0  0  0  0
  3 14  1  0  0  0  0
  4  5  1  0  0  0  0
  4  9  1  0  0  0  0
  5  6  1  0  0  0  0
  5  7  1  0  0  0  0
  5 15  1  0  0  0  0
  6 16  1  0  0  0  0
  6 17  1  0  0  0  0
  6 24  1  0  0  0  0
  7  8  1  0  0  0  0
  7 18  1  0  0  0  0
  7 19  1  0  0  0  0
  8 20  1  0  0  0  0
  8 21  1  0  0  0  0
  8 23  1  0  0  0  0
  9 10  2  0  0  0  0
  9 22  1  0  0  0  0
M  CHG  1   6   1
M  CHG  1   8   1
M  END
> <s_m_source_file>
AV-unprocessed.smi

> <i_m_source_file_index>
3078

> <i_lp_mmshare_version>
43012

> <i_f3d_flags>
0

> <s_epik_input>
W0NIM11uMVtjSF1jKFtjSF1uMSlbQ0BIXShbTkgyXSlbQ0gyXVtOSDJd

> <s_epik_cmdline>
J2VwaWtfcHl0aG9uJywgJy1waCcsICc3LjAnLCAnLXRuJywgJzgnLCAnLW1hJywgJzIwMCcsICctbWV0YWxfYmluZGluZycsICctaW1hZScsICc8aW5maWxlLm1hZT4nLCAnLW9tYWUnLCAnPG91dGZpbGUubWFlPic=

> <r_lp_tautomer_probability>
1

> <r_epik_Ionization_Penalty>
2.39325

> <r_epik_Ionization_Penalty_Charging>
2.39325

> <r_epik_Ionization_Penalty_Neutral>
1.68997e-07

> <r_epik_State_Penalty>
1.77229

> <r_epik_Charging_Adjusted_Penalty>
4.16555

> <i_epik_Tot_Q>
2

> <i_epik_Tot_abs_Q>
2

> <r_epik_Metal_State_Penalty>
1.77233

> <b_epik_Metal_Only>
0

> <s_lp_Force_Field>
OPLS_2005

> <r_lp_Energy>
8.51806

> <b_lp_Chiralities_Consistent>
1

> <s_lp_Variant>
AV-unprocessed.smi:3078-5

> <Gold.Version>
5.8.1

> <Gold.Id.Protein>
6NUR|6NUR_protein|mol2

> <Gold.PLP.Fitness>
39.8723

> <Gold.PLP.PLP>
-21.3345

> <Gold.PLP.part.hbond>
-3.0000

> <Gold.PLP.part.metal>
0.0000

> <Gold.PLP.part.buried>
-0.1346

> <Gold.PLP.part.nonpolar>
-18.0117

> <Gold.PLP.part.repulsive>
0.1078

> <Gold.PLP.ligand.clash>
0.0000

> <Gold.PLP.ligand.torsion>
0.2620

> <Gold.PLP.Chemscore.Hbond>
4.8480

> <Gold.PLP.Chemscore.CHOScore>
1.5003

> <Gold.PLP.Chemscore.Metal>
0.0000

> <Gold.Chemscore.Hbonds>
donor molecule, donor type, donor heavy atom, donor atom, acceptor molecule, acceptor atom, score
      L1  H     6    17       P1 10175  2.00
      L1  H     8    21       P1 10171  0.80
      L1  H     8    23       P1 10175  1.68
      L1  C     3    14       P1  8028  0.76
      L1  C     9    22       P1  7948  0.82

> <Gold.PLP.Chemscore.Internal.Correction>
0.0169

> <Gold.Rescore>
     Score         DG    S(hbond)    S(metal)    S(lipo)     H(rot)  DE(clash)    DE(int)     intcor
     15.76     -15.92       2.72        0.00      42.99       1.43       0.03       0.13       ----

> <Gold.Chemscore.Fitness>
15.7622

> <Gold.Chemscore.DG>
-15.9216

> <Gold.Chemscore.ZeroCoef>
-5.4800

> <Gold.Chemscore.Hbond>
2.7167

> <Gold.Chemscore.Metal>
0.0000

> <Gold.Chemscore.Lipo>
42.9897

> <Gold.Chemscore.Internal_Hbond>
0.0000

> <Gold.Chemscore.DEClash>
0.0291

> <Gold.Chemscore.DEInternal>
0.1303

> <Gold.Chemscore.Rot>
1.4304

> <Gold.Chemscore.Internal.Correction>
   9.000000E+99

> <Gold.Chemscore.Hbonds>
donor molecule, donor type, donor heavy atom, donor atom, acceptor molecule, acceptor atom, score
      L1  H     6    17       P1 10175  0.99
      L1  H     8    21       P1 10171  0.79
      L1  H     8    23       P1 10175  0.79

> <Gold.Chemscore.Hbond.Weighted>
-9.0737

> <Gold.Chemscore.Metal.Weighted>
-0.0000

> <Gold.Chemscore.Lipo.Weighted>
-5.0298

> <Gold.Chemscore.Internal_Hbond.Weighted>
0.0000

> <Gold.Chemscore.DEClash.Weighted>
0.0291

> <Gold.Chemscore.DEInternal.Weighted>
0.1303

> <Gold.Chemscore.Rot.Weighted>
3.6618

> <Gold.Chemscore.Internal.Correction.Weighted>
   9.000000E+99

> <Gold.Protein.RotatedTorsions>
[ 6907 6896 6895 6894 ] final  160.76 input  -60.11 | X-H torsion
[ 7974 7965 7964 7962 ] final  -92.85 input  175.53 | X-H torsion
[ 8008 7997 7996 7995 ] final -111.60 input   59.86 | X-H torsion
[ 10167 10162 10161 10158 ] final   11.63 input  -65.29 | X-H torsion
[ 10718 10713 10712 10709 ] final  121.30 input   66.30 | X-H torsion
[ 10763 10752 10751 10750 ] final  103.60 input  -60.55 | X-H torsion
[ 11005 11000 10999 10996 ] final  115.05 input  -57.11 | X-H torsion

> <Gold.Protein.ActiveResidues>
 VAL166  LYS551  ARG553  GLY616  TRP617  ASP618  TYR619  PRO620  LYS621  CYS622 
 ASP623  PHE694  ASN695  SER759  ASP760  ASP761  ALA762  ILE779  LEU786  VAL792 
 PHE793  MET794  SER795  GLU796  ALA797  LYS798  CYS799  TRP800  GLU811  SER814 

> <Gold.Protein.RotatedAtoms>
  151.9658  133.3710  159.4052 H   0  0  0  0  0  0  0  0  0  0  0  0  # atno 6907 bound_to 6896
  150.6957  134.4192  159.5206 H   0  0  0  0  0  0  0  0  0  0  0  0  # atno 6908 bound_to 6896
  152.1889  134.8689  160.0570 H   0  0  0  0  0  0  0  0  0  0  0  0  # atno 6909 bound_to 6896
  145.3943  140.9531  143.2323 H   0  0  0  0  0  0  0  0  0  0  0  0  # atno 7974 bound_to 7965
  154.9923  140.0395  157.2325 H   0  0  0  0  0  0  0  0  0  0  0  0  # atno 8008 bound_to 7997
  154.7617  140.2786  155.6186 H   0  0  0  0  0  0  0  0  0  0  0  0  # atno 8009 bound_to 7997
  156.2905  140.2627  156.2398 H   0  0  0  0  0  0  0  0  0  0  0  0  # atno 8010 bound_to 7997
  140.6119  143.8389  150.7075 H   0  0  0  0  0  0  0  0  0  0  0  0  # atno 10167 bound_to 10162
  157.5828  131.1073  150.8154 H   0  0  0  0  0  0  0  0  0  0  0  0  # atno 10718 bound_to 10713
  153.3548  135.3971  155.1674 H   0  0  0  0  0  0  0  0  0  0  0  0  # atno 10763 bound_to 10752
  154.8669  135.3665  154.5175 H   0  0  0  0  0  0  0  0  0  0  0  0  # atno 10764 bound_to 10752
  153.5630  135.7080  153.5599 H   0  0  0  0  0  0  0  0  0  0  0  0  # atno 10765 bound_to 10752
  139.8998  134.9578  156.6985 H   0  0  0  0  0  0  0  0  0  0  0  0  # atno 11005 bound_to 11000
  144.8418  139.5460  143.6897 LP  0  0  0  0  0  0  0  0  0  0  0  0  # atno 17320 bound_to 7965
  146.2782  139.6808  142.9248 LP  0  0  0  0  0  0  0  0  0  0  0  0  # atno 17321 bound_to 7965
  140.1959  143.3998  152.1828 LP  0  0  0  0  0  0  0  0  0  0  0  0  # atno 17342 bound_to 10162
  139.5368  144.7217  151.4866 LP  0  0  0  0  0  0  0  0  0  0  0  0  # atno 17343 bound_to 10162
  156.8596  130.5108  149.5305 LP  0  0  0  0  0  0  0  0  0  0  0  0  # atno 17370 bound_to 10713
  156.0874  130.5869  150.9673 LP  0  0  0  0  0  0  0  0  0  0  0  0  # atno 17371 bound_to 10713
  140.7169  133.9175  155.8121 LP  0  0  0  0  0  0  0  0  0  0  0  0  # atno 17394 bound_to 11000
  141.0257  134.0826  157.4070 LP  0  0  0  0  0  0  0  0  0  0  0  0  # atno 17395 bound_to 11000

$$$$
