AV-unprocessed.smi:3025|AV-procd|sdf|11506|dock7
  -GOLD-   2272016443D 1   1.00000     0.00000
 Structure written by MMmdl.
 42 43  0  0  0  0  0  0  0  0  2 V2000
  144.7729  132.3850  149.9164 C   0  0  0  0  0  0  0  0  0  0  0  0
  145.1912  132.9684  151.2703 C   0  0  0  0  0  0  0  0  0  0  0  0
  146.7191  133.0456  151.4303 C   0  0  0  0  0  0  0  0  0  0  0  0
  147.1948  133.2160  152.8881 C   0  0  2  0  0  0  0  0  0  0  0  0
  146.7205  134.5440  153.5170 C   0  0  0  0  0  0  0  0  0  0  0  0
  147.2255  134.7055  154.9613 C   0  0  0  0  0  0  0  0  0  0  0  0
  148.7610  134.5879  155.0644 C   0  0  2  0  0  0  0  0  0  0  0  0
  149.4595  135.7448  154.4565 N   0  3  0  0  0  0  0  0  0  0  0  0
  149.3564  137.0149  155.2051 C   0  0  0  0  0  0  0  0  0  0  0  0
  150.0660  138.1518  154.4581 C   0  0  0  0  0  0  0  0  0  0  0  0
  149.4675  139.4879  154.7537 C   0  0  0  0  0  0  0  0  0  0  0  0
  148.3050  139.6272  155.3943 N   0  0  0  0  0  0  0  0  0  0  0  0
  148.0120  140.9398  155.5036 N   0  0  0  0  0  0  0  0  0  0  0  0
  149.0528  141.5101  154.8994 C   0  0  0  0  0  0  0  0  0  0  0  0
  149.9983  140.6549  154.4054 N   0  0  0  0  0  0  0  0  0  0  0  0
  149.2389  133.2740  154.4189 C   0  0  0  0  0  0  0  0  0  0  0  0
  148.7307  133.1130  152.9752 C   0  0  0  0  0  0  0  0  0  0  0  0
  147.7085  138.8978  155.7584 H   0  0  0  0  0  0  0  0  0  0  0  0
  143.6868  132.3485  149.8284 H   0  0  0  0  0  0  0  0  0  0  0  0
  145.1501  131.3699  149.7905 H   0  0  0  0  0  0  0  0  0  0  0  0
  145.1529  132.9896  149.0926 H   0  0  0  0  0  0  0  0  0  0  0  0
  144.7507  133.9595  151.3734 H   0  0  0  0  0  0  0  0  0  0  0  0
  144.7690  132.3566  152.0683 H   0  0  0  0  0  0  0  0  0  0  0  0
  147.1488  132.1280  151.0263 H   0  0  0  0  0  0  0  0  0  0  0  0
  147.1127  133.8568  150.8162 H   0  0  0  0  0  0  0  0  0  0  0  0
  146.7776  132.3948  153.4732 H   0  0  0  0  0  0  0  0  0  0  0  0
  147.0612  135.3846  152.9112 H   0  0  0  0  0  0  0  0  0  0  0  0
  145.6320  134.5935  153.5227 H   0  0  0  0  0  0  0  0  0  0  0  0
  146.8720  135.6479  155.3789 H   0  0  0  0  0  0  0  0  0  0  0  0
  146.7726  133.9265  155.5763 H   0  0  0  0  0  0  0  0  0  0  0  0
  149.0403  134.5571  156.1187 H   0  0  0  0  0  0  0  0  0  0  0  0
  150.4401  135.5097  154.3985 H   0  0  0  0  0  0  0  0  0  0  0  0
  148.3074  137.2727  155.3510 H   0  0  0  0  0  0  0  0  0  0  0  0
  149.8009  136.8910  156.1936 H   0  0  0  0  0  0  0  0  0  0  0  0
  151.1244  138.1715  154.7220 H   0  0  0  0  0  0  0  0  0  0  0  0
  150.0168  137.9828  153.3815 H   0  0  0  0  0  0  0  0  0  0  0  0
  149.1345  142.5833  154.8090 H   0  0  0  0  0  0  0  0  0  0  0  0
  150.3279  133.2159  154.4404 H   0  0  0  0  0  0  0  0  0  0  0  0
  148.8816  132.4330  155.0148 H   0  0  0  0  0  0  0  0  0  0  0  0
  149.0606  132.1491  152.5852 H   0  0  0  0  0  0  0  0  0  0  0  0
  149.1879  133.8708  152.3376 H   0  0  0  0  0  0  0  0  0  0  0  0
  149.1084  135.8810  153.5192 H   0  0  0  0  0  0  0  0  0  0  0  0
  1  2  1  0  0  0  0
  1 19  1  0  0  0  0
  1 20  1  0  0  0  0
  1 21  1  0  0  0  0
  2  3  1  0  0  0  0
  2 22  1  0  0  0  0
  2 23  1  0  0  0  0
  3  4  1  0  0  0  0
  3 24  1  0  0  0  0
  3 25  1  0  0  0  0
  4 17  1  0  0  0  0
  4  5  1  0  0  0  0
  4 26  1  0  0  0  0
  5  6  1  0  0  0  0
  5 27  1  0  0  0  0
  5 28  1  0  0  0  0
  6  7  1  0  0  0  0
  6 29  1  0  0  0  0
  6 30  1  0  0  0  0
  7  8  1  0  0  0  0
  7 16  1  0  0  0  0
  7 31  1  0  0  0  0
  8  9  1  0  0  0  0
  8 32  1  0  0  0  0
  8 42  1  0  0  0  0
  9 10  1  0  0  0  0
  9 33  1  0  0  0  0
  9 34  1  0  0  0  0
 10 35  1  0  0  0  0
 10 36  1  0  0  0  0
 10 11  1  0  0  0  0
 11 15  2  0  0  0  0
 11 12  1  0  0  0  0
 12 18  1  0  0  0  0
 12 13  1  0  0  0  0
 13 14  2  0  0  0  0
 14 15  1  0  0  0  0
 14 37  1  0  0  0  0
 16 17  1  0  0  0  0
 16 38  1  0  0  0  0
 16 39  1  0  0  0  0
 17 40  1  0  0  0  0
 17 41  1  0  0  0  0
M  CHG  1   8   1
M  END
> <s_m_source_file>
AV-unprocessed.smi

> <i_m_source_file_index>
3025

> <i_lp_mmshare_version>
43012

> <i_f3d_flags>
0

> <s_epik_input>
W0NIM11bQ0gyXVtDSDJdW0NAQEhdMVtDSDJdW0NIMl1bQ0BIXShbQ0gyXVtDSDJdMSlbTkhdW0NIMl1bQ0gyXWMybm5bY0hdW25IXTI=

> <s_epik_cmdline>
J2VwaWtfcHl0aG9uJywgJy1waCcsICc3LjAnLCAnLXRuJywgJzgnLCAnLW1hJywgJzIwMCcsICctbWV0YWxfYmluZGluZycsICctaW1hZScsICc8aW5maWxlLm1hZT4nLCAnLW9tYWUnLCAnPG91dGZpbGUubWFlPic=

> <r_lp_tautomer_probability>
0.948284

> <r_epik_Ionization_Penalty>
0.0093758

> <r_epik_Ionization_Penalty_Charging>
0.000546397

> <r_epik_Ionization_Penalty_Neutral>
0.00882941

> <r_epik_State_Penalty>
0.401098

> <r_epik_Charging_Adjusted_Penalty>
0.401645

> <i_epik_Tot_Q>
1

> <i_epik_Tot_abs_Q>
1

> <r_epik_Metal_State_Penalty>
0.634803

> <b_epik_Metal_Only>
0

> <s_lp_Force_Field>
OPLS_2005

> <r_lp_Energy>
16.9982

> <b_lp_Chiralities_Consistent>
1

> <s_lp_Variant>
AV-unprocessed.smi:3025-2

> <Gold.Version>
5.8.1

> <Gold.Id.Protein>
6NUR|6NUR_protein|mol2

> <Gold.PLP.Fitness>
40.7953

> <Gold.PLP.PLP>
-29.7128

> <Gold.PLP.part.hbond>
-2.0647

> <Gold.PLP.part.metal>
0.0000

> <Gold.PLP.part.buried>
-2.6647

> <Gold.PLP.part.nonpolar>
-24.4840

> <Gold.PLP.part.repulsive>
0.2483

> <Gold.PLP.ligand.clash>
0.0000

> <Gold.PLP.ligand.torsion>
0.4586

> <Gold.PLP.Chemscore.Hbond>
2.9760

> <Gold.PLP.Chemscore.CHOScore>
1.0000

> <Gold.PLP.Chemscore.Metal>
0.0000

> <Gold.Chemscore.Hbonds>
donor molecule, donor type, donor heavy atom, donor atom, acceptor molecule, acceptor atom, score
      L1  H     8    42       P1  7948  2.00
      P1  H  7989  7998       L1    15  0.77
      L1  C    14    37       P1  8028  1.00

> <Gold.PLP.Chemscore.Internal.Correction>
0.0718

> <Gold.Rescore>
     Score         DG    S(hbond)    S(metal)    S(lipo)     H(rot)  DE(clash)    DE(int)     intcor
     11.96     -12.54       1.90        0.00      62.13       2.56       0.01       0.58       ----

> <Gold.Chemscore.Fitness>
11.9551

> <Gold.Chemscore.DG>
-12.5442

> <Gold.Chemscore.ZeroCoef>
-5.4800

> <Gold.Chemscore.Hbond>
1.9009

> <Gold.Chemscore.Metal>
0.0000

> <Gold.Chemscore.Lipo>
62.1317

> <Gold.Chemscore.Internal_Hbond>
0.0000

> <Gold.Chemscore.DEClash>
0.0106

> <Gold.Chemscore.DEInternal>
0.5785

> <Gold.Chemscore.Rot>
2.5602

> <Gold.Chemscore.Internal.Correction>
   9.000000E+99

> <Gold.Chemscore.Hbonds>
donor molecule, donor type, donor heavy atom, donor atom, acceptor molecule, acceptor atom, score
      L1  H     8    42       P1  7948  0.85
      P1  H  7989  7998       L1    15  0.76

> <Gold.Chemscore.Hbond.Weighted>
-6.3490

> <Gold.Chemscore.Metal.Weighted>
-0.0000

> <Gold.Chemscore.Lipo.Weighted>
-7.2694

> <Gold.Chemscore.Internal_Hbond.Weighted>
0.0000

> <Gold.Chemscore.DEClash.Weighted>
0.0106

> <Gold.Chemscore.DEInternal.Weighted>
0.5785

> <Gold.Chemscore.Rot.Weighted>
6.5542

> <Gold.Chemscore.Internal.Correction.Weighted>
   9.000000E+99

> <Gold.Protein.RotatedTorsions>
[ 6907 6896 6895 6894 ] final  179.36 input  -60.11 | X-H torsion
[ 7974 7965 7964 7962 ] final   82.10 input  175.53 | X-H torsion
[ 8008 7997 7996 7995 ] final  133.64 input   59.86 | X-H torsion
[ 10167 10162 10161 10158 ] final  -51.46 input  -65.29 | X-H torsion
[ 10718 10713 10712 10709 ] final -139.82 input   66.30 | X-H torsion
[ 10763 10752 10751 10750 ] final   50.14 input  -60.55 | X-H torsion
[ 11005 11000 10999 10996 ] final  -42.91 input  -57.11 | X-H torsion

> <Gold.Protein.ActiveResidues>
 VAL166  LYS551  ARG553  GLY616  TRP617  ASP618  TYR619  PRO620  LYS621  CYS622 
 ASP623  PHE694  ASN695  SER759  ASP760  ASP761  ALA762  ILE779  LEU786  VAL792 
 PHE793  MET794  SER795  GLU796  ALA797  LYS798  CYS799  TRP800  GLU811  SER814 

> <Gold.Protein.RotatedAtoms>
  151.6729  133.3313  159.3200 H   0  0  0  0  0  0  0  0  0  0  0  0  # atno 6907 bound_to 6896
  150.7859  134.6847  159.6473 H   0  0  0  0  0  0  0  0  0  0  0  0  # atno 6908 bound_to 6896
  152.3928  134.6416  160.0153 H   0  0  0  0  0  0  0  0  0  0  0  0  # atno 6909 bound_to 6896
  145.6295  139.2402  143.2092 H   0  0  0  0  0  0  0  0  0  0  0  0  # atno 7974 bound_to 7965
  156.2994  140.2516  156.3287 H   0  0  0  0  0  0  0  0  0  0  0  0  # atno 8008 bound_to 7997
  154.9166  140.0402  157.1994 H   0  0  0  0  0  0  0  0  0  0  0  0  # atno 8009 bound_to 7997
  154.8353  140.2882  155.5699 H   0  0  0  0  0  0  0  0  0  0  0  0  # atno 8010 bound_to 7997
  140.6587  143.2619  151.4506 H   0  0  0  0  0  0  0  0  0  0  0  0  # atno 10167 bound_to 10162
  156.3152  130.7504  151.1589 H   0  0  0  0  0  0  0  0  0  0  0  0  # atno 10718 bound_to 10713
  152.9785  135.5888  154.4204 H   0  0  0  0  0  0  0  0  0  0  0  0  # atno 10763 bound_to 10752
  154.3829  135.2767  155.2203 H   0  0  0  0  0  0  0  0  0  0  0  0  # atno 10764 bound_to 10752
  154.4108  135.6082  153.6006 H   0  0  0  0  0  0  0  0  0  0  0  0  # atno 10765 bound_to 10752
  141.0348  133.6804  156.2659 H   0  0  0  0  0  0  0  0  0  0  0  0  # atno 11005 bound_to 11000
  146.1368  140.7112  142.9386 LP  0  0  0  0  0  0  0  0  0  0  0  0  # atno 17320 bound_to 7965
  144.7199  140.4338  143.7016 LP  0  0  0  0  0  0  0  0  0  0  0  0  # atno 17321 bound_to 7965
  139.5816  144.1698  152.1975 LP  0  0  0  0  0  0  0  0  0  0  0  0  # atno 17342 bound_to 10162
  140.1024  144.5528  150.6979 LP  0  0  0  0  0  0  0  0  0  0  0  0  # atno 17343 bound_to 10162
  157.7400  131.0522  150.5196 LP  0  0  0  0  0  0  0  0  0  0  0  0  # atno 17370 bound_to 10713
  156.5341  130.4192  149.6187 LP  0  0  0  0  0  0  0  0  0  0  0  0  # atno 17371 bound_to 10713
  140.6342  134.5232  157.5563 LP  0  0  0  0  0  0  0  0  0  0  0  0  # atno 17394 bound_to 11000
  139.9233  134.8106  156.1146 LP  0  0  0  0  0  0  0  0  0  0  0  0  # atno 17395 bound_to 11000

$$$$
