AV-unprocessed.smi:283|AV-procd|sdf|2134|dock6
  -GOLD-   2262021453D 1   1.00000     0.00000
 Structure written by MMmdl.
 48 51  0  0  0  0  0  0  0  0  1 V2000
  149.8801  142.2781  157.4814 C   0  0  0  0  0  0  0  0  0  0  0  0
  150.8218  141.0940  157.7395 C   0  0  1  0  0  0  0  0  0  0  0  0
  151.4066  140.6489  156.4768 N   0  0  0  0  0  0  0  0  0  0  0  0
  151.1562  139.4225  155.9661 C   0  0  0  0  0  0  0  0  0  0  0  0
  151.4591  139.2697  154.6552 N   0  0  0  0  0  0  0  0  0  0  0  0
  151.2621  138.0940  154.0536 C   0  0  0  0  0  0  0  0  0  0  0  0
  150.7792  136.9648  154.5717 N   0  0  0  0  0  0  0  0  0  0  0  0
  150.4585  137.1090  155.8896 C   0  0  0  0  0  0  0  0  0  0  0  0
  150.6110  138.2997  156.6583 C   0  0  0  0  0  0  0  0  0  0  0  0
  150.1643  138.0664  157.9541 N   0  0  0  0  0  0  0  0  0  0  0  0
  149.7913  136.8166  157.9510 C   0  0  0  0  0  0  0  0  0  0  0  0
  149.9327  136.1636  156.7487 N   0  0  0  0  0  0  0  0  0  0  0  0
  149.5769  134.7434  156.4449 C   0  0  2  0  0  0  0  0  0  0  0  0
  148.5601  134.7319  155.4896 O   0  0  0  0  0  0  0  0  0  0  0  0
  147.6181  133.7325  155.8433 C   0  0  2  0  0  0  0  0  0  0  0  0
  146.2877  133.8446  155.0683 C   0  0  0  0  0  0  0  0  0  0  0  0
  145.3972  132.7756  155.3110 O   0  0  0  0  0  0  0  0  0  0  0  0
  147.6199  133.6819  157.3791 C   0  0  2  0  0  0  0  0  0  0  0  0
  146.7560  134.6305  157.9725 O   0  0  0  0  0  0  0  0  0  0  0  0
  149.0694  134.0260  157.7143 C   0  0  1  0  0  0  0  0  0  0  0  0
  149.7994  132.8383  157.9504 O   0  0  0  0  0  0  0  0  0  0  0  0
  151.8363  141.4499  158.8303 C   0  0  0  0  0  0  0  0  0  0  0  0
  151.8662  142.7564  159.3720 C   0  0  0  0  0  0  0  0  0  0  0  0
  152.7956  143.0983  160.3722 C   0  0  0  0  0  0  0  0  0  0  0  0
  153.7006  142.1338  160.8501 C   0  0  0  0  0  0  0  0  0  0  0  0
  153.6704  140.8269  160.3301 C   0  0  0  0  0  0  0  0  0  0  0  0
  152.7426  140.4793  159.3280 C   0  0  0  0  0  0  0  0  0  0  0  0
  152.7431  138.8546  158.7357 Cl  0  0  0  0  0  0  0  0  0  0  0  0
  150.4909  134.3125  156.0331 H   0  0  0  0  0  0  0  0  0  0  0  0
  148.0758  132.7991  155.5094 H   0  0  0  0  0  0  0  0  0  0  0  0
  147.3245  132.6965  157.7424 H   0  0  0  0  0  0  0  0  0  0  0  0
  149.1561  134.6677  158.5932 H   0  0  0  0  0  0  0  0  0  0  0  0
  149.3639  142.5764  158.3943 H   0  0  0  0  0  0  0  0  0  0  0  0
  149.1183  142.0217  156.7443 H   0  0  0  0  0  0  0  0  0  0  0  0
  150.4260  143.1460  157.1094 H   0  0  0  0  0  0  0  0  0  0  0  0
  150.2024  140.2699  158.0892 H   0  0  0  0  0  0  0  0  0  0  0  0
  152.1679  141.2199  156.1399 H   0  0  0  0  0  0  0  0  0  0  0  0
  151.5320  138.0494  153.0088 H   0  0  0  0  0  0  0  0  0  0  0  0
  149.3933  136.3351  158.8323 H   0  0  0  0  0  0  0  0  0  0  0  0
  145.7884  134.7809  155.3181 H   0  0  0  0  0  0  0  0  0  0  0  0
  146.4906  133.8722  153.9975 H   0  0  0  0  0  0  0  0  0  0  0  0
  144.5937  132.9407  154.8418 H   0  0  0  0  0  0  0  0  0  0  0  0
  147.1706  135.4791  157.9332 H   0  0  0  0  0  0  0  0  0  0  0  0
  149.1887  132.1501  158.1663 H   0  0  0  0  0  0  0  0  0  0  0  0
  151.1763  143.5099  159.0212 H   0  0  0  0  0  0  0  0  0  0  0  0
  152.8125  144.1009  160.7736 H   0  0  0  0  0  0  0  0  0  0  0  0
  154.4140  142.3944  161.6180 H   0  0  0  0  0  0  0  0  0  0  0  0
  154.3623  140.0867  160.7043 H   0  0  0  0  0  0  0  0  0  0  0  0
  1  2  1  0  0  0  0
  1 33  1  0  0  0  0
  1 34  1  0  0  0  0
  1 35  1  0  0  0  0
  2  3  1  0  0  0  0
  2 22  1  0  0  0  0
  2 36  1  0  0  0  0
  3  4  1  0  0  0  0
  3 37  1  0  0  0  0
  4  9  1  0  0  0  0
  4  5  2  0  0  0  0
  5  6  1  0  0  0  0
  6  7  2  0  0  0  0
  6 38  1  0  0  0  0
  7  8  1  0  0  0  0
  8 12  1  0  0  0  0
  8  9  2  0  0  0  0
  9 10  1  0  0  0  0
 10 11  2  0  0  0  0
 11 12  1  0  0  0  0
 11 39  1  0  0  0  0
 12 13  1  0  0  0  0
 13 29  1  0  0  0  0
 13 20  1  0  0  0  0
 13 14  1  0  0  0  0
 14 15  1  0  0  0  0
 15 30  1  0  0  0  0
 15 16  1  0  0  0  0
 15 18  1  0  0  0  0
 16 17  1  0  0  0  0
 16 40  1  0  0  0  0
 16 41  1  0  0  0  0
 17 42  1  0  0  0  0
 18 31  1  0  0  0  0
 18 19  1  0  0  0  0
 18 20  1  0  0  0  0
 19 43  1  0  0  0  0
 20 32  1  0  0  0  0
 20 21  1  0  0  0  0
 21 44  1  0  0  0  0
 22 27  1  0  0  0  0
 22 23  2  0  0  0  0
 23 24  1  0  0  0  0
 23 45  1  0  0  0  0
 24 25  2  0  0  0  0
 24 46  1  0  0  0  0
 25 26  1  0  0  0  0
 25 47  1  0  0  0  0
 26 27  2  0  0  0  0
 26 48  1  0  0  0  0
 27 28  1  0  0  0  0
M  END
> <s_m_source_file>
AV-unprocessed.smi

> <i_m_source_file_index>
283

> <i_lp_mmshare_version>
43012

> <i_f3d_flags>
0

> <s_epik_input>
Q2xjMVtjSF1bY0hdW2NIXVtjSF1jMVtDQEhdKFtDSDNdKVtOSF1jKG5bY0hdbjIpYyhjMjMpbltjSF1uM1tDQEBIXTRPW0NASF0oW0NIMl1bT0hdKVtDQEBIXShbT0hdKVtDQEhdNFtPSF0=

> <s_epik_cmdline>
J2VwaWtfcHl0aG9uJywgJy1waCcsICc3LjAnLCAnLXRuJywgJzgnLCAnLW1hJywgJzIwMCcsICctbWV0YWxfYmluZGluZycsICctaW1hZScsICc8aW5maWxlLm1hZT4nLCAnLW9tYWUnLCAnPG91dGZpbGUubWFlPic=

> <r_lp_tautomer_probability>
1

> <r_epik_Ionization_Penalty>
0.000266407

> <r_epik_Ionization_Penalty_Charging>
0

> <r_epik_Ionization_Penalty_Neutral>
0.000266407

> <r_epik_State_Penalty>
-0

> <r_epik_Charging_Adjusted_Penalty>
0

> <i_epik_Tot_Q>
0

> <i_epik_Tot_abs_Q>
0

> <r_epik_Metal_State_Penalty>
-0

> <b_epik_Metal_Only>
0

> <s_epik_Chemistry_Notes>
This compound contains an acetal/aminal-like group ( X-CH(R)-Y where X, Y are N, S, or O) that may be acid/base labile, releasing an aldehyde.

> <s_lp_Force_Field>
OPLS_2005

> <r_lp_Energy>
45.8165

> <b_lp_Chiralities_Consistent>
1

> <s_lp_Variant>
AV-unprocessed.smi:283-10

> <Gold.Version>
5.8.1

> <Gold.Id.Protein>
6NUR|6NUR_protein|mol2

> <Gold.PLP.Fitness>
44.2260

> <Gold.PLP.PLP>
-34.5310

> <Gold.PLP.part.hbond>
-3.0000

> <Gold.PLP.part.metal>
0.0000

> <Gold.PLP.part.buried>
-6.0611

> <Gold.PLP.part.nonpolar>
-26.0455

> <Gold.PLP.part.repulsive>
0.4445

> <Gold.PLP.ligand.clash>
0.0000

> <Gold.PLP.ligand.torsion>
0.1254

> <Gold.PLP.Chemscore.Hbond>
2.3360

> <Gold.PLP.Chemscore.CHOScore>
0.9566

> <Gold.PLP.Chemscore.Metal>
0.0000

> <Gold.Chemscore.Hbonds>
donor molecule, donor type, donor heavy atom, donor atom, acceptor molecule, acceptor atom, score
      L1  H    17    42       P1 10957  0.27
      P1  H  6896  6908       L1    21  1.00
      P1  H  7989  7998       L1     5  1.00
      L1  C     6    38       P1  7949  0.79

> <Gold.PLP.Chemscore.Internal.Correction>
0.0679

> <Gold.Rescore>
     Score         DG    S(hbond)    S(metal)    S(lipo)     H(rot)  DE(clash)    DE(int)     intcor
     11.34     -11.65       2.04        0.00      84.19       4.10       0.17       0.14       ----

> <Gold.Chemscore.Fitness>
11.3444

> <Gold.Chemscore.DG>
-11.6492

> <Gold.Chemscore.ZeroCoef>
-5.4800

> <Gold.Chemscore.Hbond>
2.0380

> <Gold.Chemscore.Metal>
0.0000

> <Gold.Chemscore.Lipo>
84.1912

> <Gold.Chemscore.Internal_Hbond>
0.0000

> <Gold.Chemscore.DEClash>
0.1661

> <Gold.Chemscore.DEInternal>
0.1387

> <Gold.Chemscore.Rot>
4.0968

> <Gold.Chemscore.Internal.Correction>
   9.000000E+99

> <Gold.Chemscore.Hbonds>
donor molecule, donor type, donor heavy atom, donor atom, acceptor molecule, acceptor atom, score
      L1  H    17    42       P1 10957  0.26
      P1  H  6896  6908       L1    21  0.25
      P1  H  7989  7998       L1     5  0.90

> <Gold.Chemscore.Hbond.Weighted>
-6.8068

> <Gold.Chemscore.Metal.Weighted>
-0.0000

> <Gold.Chemscore.Lipo.Weighted>
-9.8504

> <Gold.Chemscore.Internal_Hbond.Weighted>
0.0000

> <Gold.Chemscore.DEClash.Weighted>
0.1661

> <Gold.Chemscore.DEInternal.Weighted>
0.1387

> <Gold.Chemscore.Rot.Weighted>
10.4879

> <Gold.Chemscore.Internal.Correction.Weighted>
   9.000000E+99

> <Gold.Protein.RotatedTorsions>
[ 6907 6896 6895 6894 ] final   94.02 input  -60.11 | X-H torsion
[ 7974 7965 7964 7962 ] final   11.39 input  175.53 | X-H torsion
[ 8008 7997 7996 7995 ] final  -80.08 input   59.86 | X-H torsion
[ 10167 10162 10161 10158 ] final -103.97 input  -65.29 | X-H torsion
[ 10718 10713 10712 10709 ] final -154.25 input   66.30 | X-H torsion
[ 10763 10752 10751 10750 ] final  -38.21 input  -60.55 | X-H torsion
[ 11005 11000 10999 10996 ] final -118.68 input  -57.11 | X-H torsion

> <Gold.Protein.ActiveResidues>
 VAL166  LYS551  ARG553  GLY616  TRP617  ASP618  TYR619  PRO620  LYS621  CYS622 
 ASP623  PHE694  ASN695  SER759  ASP760  ASP761  ALA762  ILE779  LEU786  VAL792 
 PHE793  MET794  SER795  GLU796  ALA797  LYS798  CYS799  TRP800  GLU811  SER814 

> <Gold.Protein.RotatedAtoms>
  152.5451  134.1258  159.8417 H   0  0  0  0  0  0  0  0  0  0  0  0  # atno 6907 bound_to 6896
  151.1309  133.5030  159.2606 H   0  0  0  0  0  0  0  0  0  0  0  0  # atno 6908 bound_to 6896
  151.1676  135.0313  159.8792 H   0  0  0  0  0  0  0  0  0  0  0  0  # atno 6909 bound_to 6896
  146.2372  139.9492  142.8473 H   0  0  0  0  0  0  0  0  0  0  0  0  # atno 7974 bound_to 7965
  154.5848  140.0668  156.9155 H   0  0  0  0  0  0  0  0  0  0  0  0  # atno 8008 bound_to 7997
  155.2399  140.3344  155.4275 H   0  0  0  0  0  0  0  0  0  0  0  0  # atno 8009 bound_to 7997
  156.2215  140.1800  156.7451 H   0  0  0  0  0  0  0  0  0  0  0  0  # atno 8010 bound_to 7997
  140.2143  143.3723  152.1024 H   0  0  0  0  0  0  0  0  0  0  0  0  # atno 10167 bound_to 10162
  156.4967  130.8372  151.2593 H   0  0  0  0  0  0  0  0  0  0  0  0  # atno 10718 bound_to 10713
  153.9091  135.6794  153.4752 H   0  0  0  0  0  0  0  0  0  0  0  0  # atno 10763 bound_to 10752
  153.1088  135.4793  154.8996 H   0  0  0  0  0  0  0  0  0  0  0  0  # atno 10764 bound_to 10752
  154.7536  135.3191  154.8466 H   0  0  0  0  0  0  0  0  0  0  0  0  # atno 10765 bound_to 10752
  141.0268  134.0041  157.3202 H   0  0  0  0  0  0  0  0  0  0  0  0  # atno 11005 bound_to 11000
  145.1878  140.9797  143.4229 LP  0  0  0  0  0  0  0  0  0  0  0  0  # atno 17320 bound_to 7965
  144.9885  139.3713  143.6227 LP  0  0  0  0  0  0  0  0  0  0  0  0  # atno 17321 bound_to 7965
  139.5168  144.6983  151.5568 LP  0  0  0  0  0  0  0  0  0  0  0  0  # atno 17342 bound_to 10162
  140.6301  143.9092  150.6598 LP  0  0  0  0  0  0  0  0  0  0  0  0  # atno 17343 bound_to 10162
  157.7467  130.9995  150.2892 LP  0  0  0  0  0  0  0  0  0  0  0  0  # atno 17370 bound_to 10713
  156.3372  130.3809  149.7439 LP  0  0  0  0  0  0  0  0  0  0  0  0  # atno 17371 bound_to 10713
  139.9181  135.0198  156.7961 LP  0  0  0  0  0  0  0  0  0  0  0  0  # atno 17394 bound_to 11000
  140.6476  133.9761  155.7739 LP  0  0  0  0  0  0  0  0  0  0  0  0  # atno 17395 bound_to 11000

$$$$
