AV-unprocessed.smi:3266|AV-procd|sdf|12503|dock6
  -GOLD-   2272018403D 1   1.00000     0.00000
 Structure written by MMmdl.
 39 40  0  0  0  0  0  0  0  0  2 V2000
  149.9782  140.5432  157.4756 O   0  0  0  0  0  0  0  0  0  0  0  0
  149.9266  141.7420  157.2004 C   0  0  0  0  0  0  0  0  0  0  0  0
  151.2041  142.5544  156.9702 C   0  0  0  0  0  0  0  0  0  0  0  0
  151.4968  143.5737  158.0867 C   0  0  0  0  0  0  0  0  0  0  0  0
  151.7178  142.9021  159.4500 C   0  0  1  0  0  0  0  0  0  0  0  0
  153.1766  142.5533  159.7401 C   0  0  0  0  0  0  0  0  0  0  0  0
  153.1819  142.5158  161.2510 C   0  0  0  0  0  0  0  0  0  0  0  0
  152.2571  143.6809  161.5906 C   0  0  0  0  0  0  0  0  0  0  0  0
  151.3286  143.7706  160.5123 O   0  0  0  0  0  0  0  0  0  0  0  0
  148.7736  142.4137  157.0632 N   0  0  0  0  0  0  0  0  0  0  0  0
  147.4398  141.8427  157.2271 C   0  0  0  0  0  0  0  0  0  0  0  0
  146.3572  142.8868  157.5736 C   0  0  0  0  0  0  0  0  0  0  0  0
  146.3839  143.3477  159.0213 C   0  0  0  0  0  0  0  0  0  0  0  0
  145.6111  142.7197  160.0220 C   0  0  0  0  0  0  0  0  0  0  0  0
  145.6898  143.1895  161.3498 C   0  0  0  0  0  0  0  0  0  0  0  0
  146.5394  144.2748  161.6493 C   0  0  0  0  0  0  0  0  0  0  0  0
  147.2904  144.8637  160.6118 C   0  0  0  0  0  0  0  0  0  0  0  0
  147.1866  144.3856  159.3526 N   0  3  0  0  0  0  0  0  0  0  0  0
  152.0373  141.8571  156.8756 H   0  0  0  0  0  0  0  0  0  0  0  0
  151.1211  143.0755  156.0154 H   0  0  0  0  0  0  0  0  0  0  0  0
  152.3868  144.1489  157.8268 H   0  0  0  0  0  0  0  0  0  0  0  0
  150.6771  144.2893  158.1659 H   0  0  0  0  0  0  0  0  0  0  0  0
  151.1174  141.9938  159.5234 H   0  0  0  0  0  0  0  0  0  0  0  0
  153.4881  141.6123  159.2858 H   0  0  0  0  0  0  0  0  0  0  0  0
  153.8417  143.3422  159.3852 H   0  0  0  0  0  0  0  0  0  0  0  0
  152.7512  141.5776  161.6039 H   0  0  0  0  0  0  0  0  0  0  0  0
  154.1777  142.6206  161.6822 H   0  0  0  0  0  0  0  0  0  0  0  0
  151.7488  143.5443  162.5452 H   0  0  0  0  0  0  0  0  0  0  0  0
  152.8215  144.6127  161.6378 H   0  0  0  0  0  0  0  0  0  0  0  0
  148.8239  143.3972  156.8387 H   0  0  0  0  0  0  0  0  0  0  0  0
  147.1584  141.2897  156.3297 H   0  0  0  0  0  0  0  0  0  0  0  0
  147.5012  141.1094  158.0318 H   0  0  0  0  0  0  0  0  0  0  0  0
  146.4662  143.7595  156.9283 H   0  0  0  0  0  0  0  0  0  0  0  0
  145.3719  142.4757  157.3516 H   0  0  0  0  0  0  0  0  0  0  0  0
  144.9677  141.8871  159.7771 H   0  0  0  0  0  0  0  0  0  0  0  0
  145.1061  142.7223  162.1293 H   0  0  0  0  0  0  0  0  0  0  0  0
  146.6137  144.6496  162.6598 H   0  0  0  0  0  0  0  0  0  0  0  0
  147.9655  145.6957  160.7490 H   0  0  0  0  0  0  0  0  0  0  0  0
  147.7402  144.8258  158.6167 H   0  0  0  0  0  0  0  0  0  0  0  0
  1  2  2  0  0  0  0
  2  3  1  0  0  0  0
  2 10  1  0  0  0  0
  3  4  1  0  0  0  0
  3 19  1  0  0  0  0
  3 20  1  0  0  0  0
  4  5  1  0  0  0  0
  4 21  1  0  0  0  0
  4 22  1  0  0  0  0
  5  9  1  0  0  0  0
  5  6  1  0  0  0  0
  5 23  1  0  0  0  0
  6  7  1  0  0  0  0
  6 24  1  0  0  0  0
  6 25  1  0  0  0  0
  7  8  1  0  0  0  0
  7 26  1  0  0  0  0
  7 27  1  0  0  0  0
  8  9  1  0  0  0  0
  8 28  1  0  0  0  0
  8 29  1  0  0  0  0
 10 11  1  0  0  0  0
 10 30  1  0  0  0  0
 11 12  1  0  0  0  0
 11 31  1  0  0  0  0
 11 32  1  0  0  0  0
 12 13  1  0  0  0  0
 12 33  1  0  0  0  0
 12 34  1  0  0  0  0
 13 18  1  0  0  0  0
 13 14  2  0  0  0  0
 14 15  1  0  0  0  0
 14 35  1  0  0  0  0
 15 16  2  0  0  0  0
 15 36  1  0  0  0  0
 16 17  1  0  0  0  0
 16 37  1  0  0  0  0
 17 18  2  0  0  0  0
 17 38  1  0  0  0  0
 18 39  1  0  0  0  0
M  CHG  1  18   1
M  END
> <s_m_source_file>
AV-unprocessed.smi

> <i_m_source_file_index>
3266

> <i_lp_mmshare_version>
43012

> <i_f3d_flags>
0

> <s_epik_input>
TzFbQ0gyXVtDSDJdW0NIMl1bQ0BIXTFbQ0gyXVtDSDJdQyg9TylbTkhdW0NIMl1bQ0gyXWMyW2NIXVtjSF1bY0hdW2NIXW4y

> <s_epik_cmdline>
J2VwaWtfcHl0aG9uJywgJy1waCcsICc3LjAnLCAnLXRuJywgJzgnLCAnLW1hJywgJzIwMCcsICctbWV0YWxfYmluZGluZycsICctaW1hZScsICc8aW5maWxlLm1hZT4nLCAnLW9tYWUnLCAnPG91dGZpbGUubWFlPic=

> <r_epik_Ionization_Penalty>
1.8495

> <r_epik_Ionization_Penalty_Charging>
1.8495

> <r_epik_Ionization_Penalty_Neutral>
1.53068e-08

> <r_epik_State_Penalty>
1.96688

> <r_epik_Charging_Adjusted_Penalty>
3.81638

> <i_epik_Tot_Q>
1

> <i_epik_Tot_abs_Q>
1

> <r_epik_Metal_State_Penalty>
1.99263

> <b_epik_Metal_Only>
0

> <s_lp_Force_Field>
OPLS_2005

> <r_lp_Energy>
22.1722

> <b_lp_Chiralities_Consistent>
1

> <s_lp_Variant>
AV-unprocessed.smi:3266-4

> <Gold.Version>
5.8.1

> <Gold.Id.Protein>
6NUR|6NUR_protein|mol2

> <Gold.PLP.Fitness>
46.2146

> <Gold.PLP.PLP>
-39.2931

> <Gold.PLP.part.hbond>
-2.0000

> <Gold.PLP.part.metal>
0.0000

> <Gold.PLP.part.buried>
-7.1655

> <Gold.PLP.part.nonpolar>
-29.8740

> <Gold.PLP.part.repulsive>
0.2143

> <Gold.PLP.ligand.clash>
0.0000

> <Gold.PLP.ligand.torsion>
1.0785

> <Gold.PLP.Chemscore.Hbond>
3.0000

> <Gold.PLP.Chemscore.CHOScore>
0.0000

> <Gold.PLP.Chemscore.Metal>
0.0000

> <Gold.Chemscore.Hbonds>
donor molecule, donor type, donor heavy atom, donor atom, acceptor molecule, acceptor atom, score
      L1  H    10    30       P1  8028  1.00
      L1  H    18    39       P1  8029  2.00

> <Gold.PLP.Chemscore.Internal.Correction>
0.0786

> <Gold.Rescore>
     Score         DG    S(hbond)    S(metal)    S(lipo)     H(rot)  DE(clash)    DE(int)     intcor
     16.69     -17.83       1.92        0.00      91.06       1.84       0.02       1.11       ----

> <Gold.Chemscore.Fitness>
16.6950

> <Gold.Chemscore.DG>
-17.8312

> <Gold.Chemscore.ZeroCoef>
-5.4800

> <Gold.Chemscore.Hbond>
1.9172

> <Gold.Chemscore.Metal>
0.0000

> <Gold.Chemscore.Lipo>
91.0563

> <Gold.Chemscore.Internal_Hbond>
0.0000

> <Gold.Chemscore.DEClash>
0.0236

> <Gold.Chemscore.DEInternal>
1.1126

> <Gold.Chemscore.Rot>
1.8382

> <Gold.Chemscore.Internal.Correction>
   9.000000E+99

> <Gold.Chemscore.Hbonds>
donor molecule, donor type, donor heavy atom, donor atom, acceptor molecule, acceptor atom, score
      L1  H    10    30       P1  8028  0.63
      L1  H    18    39       P1  8029  0.94

> <Gold.Chemscore.Hbond.Weighted>
-6.4034

> <Gold.Chemscore.Metal.Weighted>
-0.0000

> <Gold.Chemscore.Lipo.Weighted>
-10.6536

> <Gold.Chemscore.Internal_Hbond.Weighted>
0.0000

> <Gold.Chemscore.DEClash.Weighted>
0.0236

> <Gold.Chemscore.DEInternal.Weighted>
1.1126

> <Gold.Chemscore.Rot.Weighted>
4.7058

> <Gold.Chemscore.Internal.Correction.Weighted>
   9.000000E+99

> <Gold.Protein.RotatedTorsions>
[ 6907 6896 6895 6894 ] final  109.98 input  -60.11 | X-H torsion
[ 7974 7965 7964 7962 ] final -117.10 input  175.53 | X-H torsion
[ 8008 7997 7996 7995 ] final   70.31 input   59.86 | X-H torsion
[ 10167 10162 10161 10158 ] final -114.88 input  -65.29 | X-H torsion
[ 10718 10713 10712 10709 ] final   70.73 input   66.30 | X-H torsion
[ 10763 10752 10751 10750 ] final   38.89 input  -60.55 | X-H torsion
[ 11005 11000 10999 10996 ] final  101.01 input  -57.11 | X-H torsion

> <Gold.Protein.ActiveResidues>
 VAL166  LYS551  ARG553  GLY616  TRP617  ASP618  TYR619  PRO620  LYS621  CYS622 
 ASP623  PHE694  ASN695  SER759  ASP760  ASP761  ALA762  ILE779  LEU786  VAL792 
 PHE793  MET794  SER795  GLU796  ALA797  LYS798  CYS799  TRP800  GLU811  SER814 

> <Gold.Protein.RotatedAtoms>
  152.5041  133.8866  159.7372 H   0  0  0  0  0  0  0  0  0  0  0  0  # atno 6907 bound_to 6896
  150.9315  133.6752  159.2816 H   0  0  0  0  0  0  0  0  0  0  0  0  # atno 6908 bound_to 6896
  151.4095  135.0987  159.9633 H   0  0  0  0  0  0  0  0  0  0  0  0  # atno 6909 bound_to 6896
  145.0891  140.8477  143.3993 H   0  0  0  0  0  0  0  0  0  0  0  0  # atno 7974 bound_to 7965
  155.7368  140.3491  155.5085 H   0  0  0  0  0  0  0  0  0  0  0  0  # atno 8008 bound_to 7997
  155.9131  140.1054  157.1285 H   0  0  0  0  0  0  0  0  0  0  0  0  # atno 8009 bound_to 7997
  154.4059  140.1264  156.4570 H   0  0  0  0  0  0  0  0  0  0  0  0  # atno 8010 bound_to 7997
  140.0962  143.4654  152.1840 H   0  0  0  0  0  0  0  0  0  0  0  0  # atno 10167 bound_to 10162
  157.6415  130.9492  150.0690 H   0  0  0  0  0  0  0  0  0  0  0  0  # atno 10718 bound_to 10713
  152.9985  135.6236  154.2377 H   0  0  0  0  0  0  0  0  0  0  0  0  # atno 10763 bound_to 10752
  154.2119  135.2799  155.2957 H   0  0  0  0  0  0  0  0  0  0  0  0  # atno 10764 bound_to 10752
  154.5600  135.5708  153.7057 H   0  0  0  0  0  0  0  0  0  0  0  0  # atno 10765 bound_to 10752
  139.8772  134.9165  156.4842 H   0  0  0  0  0  0  0  0  0  0  0  0  # atno 11005 bound_to 11000
  145.1088  139.2771  143.5648 LP  0  0  0  0  0  0  0  0  0  0  0  0  # atno 17320 bound_to 7965
  146.3531  140.0677  142.8625 LP  0  0  0  0  0  0  0  0  0  0  0  0  # atno 17321 bound_to 7965
  139.5697  144.7455  151.3925 LP  0  0  0  0  0  0  0  0  0  0  0  0  # atno 17342 bound_to 10162
  140.7002  143.7650  150.7391 LP  0  0  0  0  0  0  0  0  0  0  0  0  # atno 17343 bound_to 10162
  156.1700  130.3646  149.9178 LP  0  0  0  0  0  0  0  0  0  0  0  0  # atno 17370 bound_to 10713
  156.7156  130.8987  151.3613 LP  0  0  0  0  0  0  0  0  0  0  0  0  # atno 17371 bound_to 10713
  140.8705  133.7992  155.9360 LP  0  0  0  0  0  0  0  0  0  0  0  0  # atno 17394 bound_to 11000
  140.8957  134.2440  157.5070 LP  0  0  0  0  0  0  0  0  0  0  0  0  # atno 17395 bound_to 11000

$$$$
