AV-unprocessed.smi:1898|AV-procd|sdf|7701|dock5
  -GOLD-   22720 9443D 1   1.00000     0.00000
 Structure written by MMmdl.
 47 48  0  0  0  0  0  0  0  0  2 V2000
  146.1491  132.3694  150.2631 C   0  0  0  0  0  0  0  0  0  0  0  0
  147.2503  132.3518  151.2142 N   0  0  0  0  0  0  0  0  0  0  0  0
  147.3857  133.2205  152.2258 C   0  0  0  0  0  0  0  0  0  0  0  0
  146.5859  134.1311  152.4442 O   0  0  0  0  0  0  0  0  0  0  0  0
  148.6226  133.0401  153.1124 C   0  0  0  0  0  0  0  0  0  0  0  0
  148.9402  134.2475  153.9174 N   0  3  2  0  0  0  0  0  0  0  0  0
  150.2438  134.1380  154.6202 C   0  0  0  0  0  0  0  0  0  0  0  0
  150.6128  135.4629  155.3078 C   0  0  0  0  0  0  0  0  0  0  0  0
  149.5117  135.9082  156.2834 C   0  0  1  0  0  0  0  0  0  0  0  0
  149.8466  137.2115  156.8494 N   0  0  0  0  0  0  0  0  0  0  0  0
  150.9493  137.4836  157.5616 C   0  0  0  0  0  0  0  0  0  0  0  0
  151.8162  136.6468  157.8106 O   0  0  0  0  0  0  0  0  0  0  0  0
  150.9697  138.7718  157.9444 N   0  0  0  0  0  0  0  0  0  0  0  0
  151.9577  139.4783  158.6869 C   0  0  0  0  0  0  0  0  0  0  0  0
  152.9129  138.8606  159.5316 C   0  0  0  0  0  0  0  0  0  0  0  0
  153.8353  139.6666  160.2242 C   0  0  0  0  0  0  0  0  0  0  0  0
  153.7671  141.0612  160.0549 C   0  0  0  0  0  0  0  0  0  0  0  0
  152.8567  141.6650  159.2642 N   0  0  0  0  0  0  0  0  0  0  0  0
  151.9666  140.8902  158.5949 C   0  0  0  0  0  0  0  0  0  0  0  0
  151.0312  141.5115  157.7891 O   0  0  0  0  0  0  0  0  0  0  0  0
  151.1203  142.9201  157.6049 C   0  0  0  0  0  0  0  0  0  0  0  0
  148.1608  135.9666  155.5479 C   0  0  0  0  0  0  0  0  0  0  0  0
  147.8484  134.6321  154.8516 C   0  0  0  0  0  0  0  0  0  0  0  0
  146.2729  131.5667  149.5362 H   0  0  0  0  0  0  0  0  0  0  0  0
  146.1163  133.3164  149.7227 H   0  0  0  0  0  0  0  0  0  0  0  0
  145.1948  132.2249  150.7713 H   0  0  0  0  0  0  0  0  0  0  0  0
  147.9520  131.6352  151.0934 H   0  0  0  0  0  0  0  0  0  0  0  0
  148.5030  132.1739  153.7653 H   0  0  0  0  0  0  0  0  0  0  0  0
  149.4540  132.8156  152.4429 H   0  0  0  0  0  0  0  0  0  0  0  0
  150.1976  133.3310  155.3532 H   0  0  0  0  0  0  0  0  0  0  0  0
  151.0276  133.8765  153.9082 H   0  0  0  0  0  0  0  0  0  0  0  0
  151.5597  135.3514  155.8376 H   0  0  0  0  0  0  0  0  0  0  0  0
  150.7713  136.2309  154.5490 H   0  0  0  0  0  0  0  0  0  0  0  0
  149.4490  135.1696  157.0850 H   0  0  0  0  0  0  0  0  0  0  0  0
  149.1898  137.9615  156.6891 H   0  0  0  0  0  0  0  0  0  0  0  0
  150.2016  139.3396  157.6168 H   0  0  0  0  0  0  0  0  0  0  0  0
  152.9555  137.7931  159.6754 H   0  0  0  0  0  0  0  0  0  0  0  0
  154.5762  139.2246  160.8737 H   0  0  0  0  0  0  0  0  0  0  0  0
  154.4588  141.7097  160.5718 H   0  0  0  0  0  0  0  0  0  0  0  0
  150.3120  143.2493  156.9523 H   0  0  0  0  0  0  0  0  0  0  0  0
  152.0625  143.2020  157.1327 H   0  0  0  0  0  0  0  0  0  0  0  0
  151.0195  143.4540  158.5509 H   0  0  0  0  0  0  0  0  0  0  0  0
  147.3609  136.2101  156.2484 H   0  0  0  0  0  0  0  0  0  0  0  0
  148.1757  136.7665  154.8057 H   0  0  0  0  0  0  0  0  0  0  0  0
  146.9054  134.7228  154.3119 H   0  0  0  0  0  0  0  0  0  0  0  0
  147.7102  133.8458  155.5955 H   0  0  0  0  0  0  0  0  0  0  0  0
  149.0391  135.0034  153.2542 H   0  0  0  0  0  0  0  0  0  0  0  0
  1  2  1  0  0  0  0
  1 24  1  0  0  0  0
  1 25  1  0  0  0  0
  1 26  1  0  0  0  0
  2  3  1  0  0  0  0
  2 27  1  0  0  0  0
  3  4  2  0  0  0  0
  3  5  1  0  0  0  0
  5  6  1  0  0  0  0
  5 28  1  0  0  0  0
  5 29  1  0  0  0  0
  6 23  1  0  0  0  0
  6  7  1  0  0  0  0
  6 47  1  0  0  0  0
  7  8  1  0  0  0  0
  7 30  1  0  0  0  0
  7 31  1  0  0  0  0
  8  9  1  0  0  0  0
  8 32  1  0  0  0  0
  8 33  1  0  0  0  0
  9 10  1  0  0  0  0
  9 22  1  0  0  0  0
  9 34  1  0  0  0  0
 10 11  1  0  0  0  0
 10 35  1  0  0  0  0
 11 12  2  0  0  0  0
 11 13  1  0  0  0  0
 13 14  1  0  0  0  0
 13 36  1  0  0  0  0
 14 19  1  0  0  0  0
 14 15  2  0  0  0  0
 15 16  1  0  0  0  0
 15 37  1  0  0  0  0
 16 17  2  0  0  0  0
 16 38  1  0  0  0  0
 17 18  1  0  0  0  0
 17 39  1  0  0  0  0
 18 19  2  0  0  0  0
 19 20  1  0  0  0  0
 20 21  1  0  0  0  0
 21 40  1  0  0  0  0
 21 41  1  0  0  0  0
 21 42  1  0  0  0  0
 22 23  1  0  0  0  0
 22 43  1  0  0  0  0
 22 44  1  0  0  0  0
 23 45  1  0  0  0  0
 23 46  1  0  0  0  0
M  CHG  1   6   1
M  END
> <s_m_source_file>
AV-unprocessed.smi

> <i_m_source_file_index>
1898

> <i_lp_mmshare_version>
43012

> <i_f3d_flags>
0

> <s_epik_input>
W0NIM11bTkhdQyg9TylbQ0gyXU4xW0NIMl1bQ0gyXVtDSF0oW0NIMl1bQ0gyXTEpW05IXUMoPU8pW05IXWMyW2NIXVtjSF1bY0hdbmMyT1tDSDNd

> <s_epik_cmdline>
J2VwaWtfcHl0aG9uJywgJy1waCcsICc3LjAnLCAnLXRuJywgJzgnLCAnLW1hJywgJzIwMCcsICctbWV0YWxfYmluZGluZycsICctaW1hZScsICc8aW5maWxlLm1hZT4nLCAnLW9tYWUnLCAnPG91dGZpbGUubWFlPic=

> <r_lp_tautomer_probability>
1

> <r_epik_Ionization_Penalty>
0.838943

> <r_epik_Ionization_Penalty_Charging>
0.838844

> <r_epik_Ionization_Penalty_Neutral>
9.87395e-05

> <r_epik_State_Penalty>
0.8734

> <r_epik_Charging_Adjusted_Penalty>
1.71224

> <i_epik_Tot_Q>
1

> <i_epik_Tot_abs_Q>
1

> <r_epik_Metal_State_Penalty>
0.877926

> <b_epik_Metal_Only>
0

> <s_lp_Force_Field>
OPLS_2005

> <r_lp_Energy>
17.1521

> <b_lp_Chiralities_Consistent>
1

> <s_lp_Variant>
AV-unprocessed.smi:1898-2

> <Gold.Version>
5.8.1

> <Gold.Id.Protein>
6NUR|6NUR_protein|mol2

> <Gold.PLP.Fitness>
40.3151

> <Gold.PLP.PLP>
-32.0495

> <Gold.PLP.part.hbond>
-2.3670

> <Gold.PLP.part.metal>
0.0000

> <Gold.PLP.part.buried>
-7.0608

> <Gold.PLP.part.nonpolar>
-23.2881

> <Gold.PLP.part.repulsive>
0.2610

> <Gold.PLP.ligand.clash>
0.0000

> <Gold.PLP.ligand.torsion>
0.3823

> <Gold.PLP.Chemscore.Hbond>
3.0000

> <Gold.PLP.Chemscore.CHOScore>
0.0000

> <Gold.PLP.Chemscore.Metal>
0.0000

> <Gold.Chemscore.Hbonds>
donor molecule, donor type, donor heavy atom, donor atom, acceptor molecule, acceptor atom, score
      L1  H     2    27       P1 10747  0.99
      L1  H     6    47       P1  7948  1.80

> <Gold.PLP.Chemscore.Internal.Correction>
0.0303

> <Gold.Rescore>
     Score         DG    S(hbond)    S(metal)    S(lipo)     H(rot)  DE(clash)    DE(int)     intcor
     11.68     -14.67       1.82        0.00      70.39       2.00       0.02       2.97       ----

> <Gold.Chemscore.Fitness>
11.6825

> <Gold.Chemscore.DG>
-14.6681

> <Gold.Chemscore.ZeroCoef>
-5.4800

> <Gold.Chemscore.Hbond>
1.8152

> <Gold.Chemscore.Metal>
0.0000

> <Gold.Chemscore.Lipo>
70.3904

> <Gold.Chemscore.Internal_Hbond>
0.0000

> <Gold.Chemscore.DEClash>
0.0202

> <Gold.Chemscore.DEInternal>
2.9653

> <Gold.Chemscore.Rot>
1.9963

> <Gold.Chemscore.Internal.Correction>
   9.000000E+99

> <Gold.Chemscore.Hbonds>
donor molecule, donor type, donor heavy atom, donor atom, acceptor molecule, acceptor atom, score
      L1  H     2    27       P1 10747  0.90
      L1  H     6    47       P1  7948  0.18

> <Gold.Chemscore.Hbond.Weighted>
-6.0629

> <Gold.Chemscore.Metal.Weighted>
-0.0000

> <Gold.Chemscore.Lipo.Weighted>
-8.2357

> <Gold.Chemscore.Internal_Hbond.Weighted>
0.0000

> <Gold.Chemscore.DEClash.Weighted>
0.0202

> <Gold.Chemscore.DEInternal.Weighted>
2.9653

> <Gold.Chemscore.Rot.Weighted>
5.1105

> <Gold.Chemscore.Internal.Correction.Weighted>
   9.000000E+99

> <Gold.Protein.RotatedTorsions>
[ 6907 6896 6895 6894 ] final  154.14 input  -60.11 | X-H torsion
[ 7974 7965 7964 7962 ] final  113.52 input  175.53 | X-H torsion
[ 8008 7997 7996 7995 ] final  -54.01 input   59.86 | X-H torsion
[ 10167 10162 10161 10158 ] final  113.45 input  -65.29 | X-H torsion
[ 10718 10713 10712 10709 ] final -122.86 input   66.30 | X-H torsion
[ 10763 10752 10751 10750 ] final  -38.03 input  -60.55 | X-H torsion
[ 11005 11000 10999 10996 ] final    6.41 input  -57.11 | X-H torsion

> <Gold.Protein.ActiveResidues>
 VAL166  LYS551  ARG553  GLY616  TRP617  ASP618  TYR619  PRO620  LYS621  CYS622 
 ASP623  PHE694  ASN695  SER759  ASP760  ASP761  ALA762  ILE779  LEU786  VAL792 
 PHE793  MET794  SER795  GLU796  ALA797  LYS798  CYS799  TRP800  GLU811  SER814 

> <Gold.Protein.RotatedAtoms>
  152.0627  133.4070  159.4424 H   0  0  0  0  0  0  0  0  0  0  0  0  # atno 6907 bound_to 6896
  150.6865  134.3181  159.4784 H   0  0  0  0  0  0  0  0  0  0  0  0  # atno 6908 bound_to 6896
  152.1004  134.9345  160.0620 H   0  0  0  0  0  0  0  0  0  0  0  0  # atno 6909 bound_to 6896
  145.2159  139.2884  143.4244 H   0  0  0  0  0  0  0  0  0  0  0  0  # atno 7974 bound_to 7965
  154.4150  140.1186  156.5246 H   0  0  0  0  0  0  0  0  0  0  0  0  # atno 8008 bound_to 7997
  155.6668  140.3496  155.4784 H   0  0  0  0  0  0  0  0  0  0  0  0  # atno 8009 bound_to 7997
  155.9667  140.1133  157.0838 H   0  0  0  0  0  0  0  0  0  0  0  0  # atno 8010 bound_to 7997
  139.6460  144.7126  151.2141 H   0  0  0  0  0  0  0  0  0  0  0  0  # atno 10167 bound_to 10162
  156.1453  130.6496  150.9833 H   0  0  0  0  0  0  0  0  0  0  0  0  # atno 10718 bound_to 10713
  153.9060  135.6797  153.4753 H   0  0  0  0  0  0  0  0  0  0  0  0  # atno 10763 bound_to 10752
  153.1104  135.4786  154.9022 H   0  0  0  0  0  0  0  0  0  0  0  0  # atno 10764 bound_to 10752
  154.7551  135.3195  154.8440 H   0  0  0  0  0  0  0  0  0  0  0  0  # atno 10765 bound_to 10752
  140.5598  134.0203  155.7967 H   0  0  0  0  0  0  0  0  0  0  0  0  # atno 11005 bound_to 11000
  146.3387  140.2449  142.8597 LP  0  0  0  0  0  0  0  0  0  0  0  0  # atno 17320 bound_to 7965
  144.9811  140.8460  143.5396 LP  0  0  0  0  0  0  0  0  0  0  0  0  # atno 17321 bound_to 7965
  140.7515  143.6229  150.8495 LP  0  0  0  0  0  0  0  0  0  0  0  0  # atno 17342 bound_to 10162
  139.9872  143.5886  152.2922 LP  0  0  0  0  0  0  0  0  0  0  0  0  # atno 17343 bound_to 10162
  157.6611  131.0880  150.7835 LP  0  0  0  0  0  0  0  0  0  0  0  0  # atno 17370 bound_to 10713
  156.7907  130.4889  149.5385 LP  0  0  0  0  0  0  0  0  0  0  0  0  # atno 17371 bound_to 10713
  141.1121  133.9599  157.2890 LP  0  0  0  0  0  0  0  0  0  0  0  0  # atno 17394 bound_to 11000
  139.9413  135.0190  156.8717 LP  0  0  0  0  0  0  0  0  0  0  0  0  # atno 17395 bound_to 11000

$$$$
