AV-unprocessed.smi:1723|AV-procd|sdf|6948|dock7
  -GOLD-   22720 8163D 1   1.00000     0.00000
 Structure written by MMmdl.
 37 37  0  0  0  0  0  0  0  0  2 V2000
  149.6770  133.9658  154.6243 C   0  0  0  0  0  0  0  0  0  0  0  0
  150.8166  134.2511  155.6083 C   0  0  0  0  0  0  0  0  0  0  0  0
  150.7135  135.6467  156.2396 C   0  0  0  0  0  0  0  0  0  0  0  0
  150.5737  136.7598  155.1948 C   0  0  0  0  0  0  0  0  0  0  0  0
  150.7568  138.0099  155.8427 O   0  0  0  0  0  0  0  0  0  0  0  0
  150.6666  139.1455  154.9905 C   0  0  1  0  0  0  0  0  0  0  0  0
  149.2461  139.3010  154.4107 C   0  0  0  0  0  0  0  0  0  0  0  0
  151.0763  140.3699  155.8181 C   0  0  0  0  0  0  0  0  0  0  0  0
  150.9968  141.4945  155.3229 O   0  0  0  0  0  0  0  0  0  0  0  0
  151.5159  140.0989  157.0631 N   0  0  0  0  0  0  0  0  0  0  0  0
  151.9525  140.9776  158.0695 C   0  0  0  0  0  0  0  0  0  0  0  0
  151.3754  142.1769  158.3590 C   0  0  0  0  0  0  0  0  0  0  0  0
  151.8686  143.0439  159.4218 C   0  0  0  0  0  0  0  0  0  0  0  0
  151.3197  144.4319  159.7001 C   0  0  0  0  0  0  0  0  0  0  0  0
  150.0071  144.3913  159.9290 F   0  0  0  0  0  0  0  0  0  0  0  0
  151.9150  144.9778  160.7607 F   0  0  0  0  0  0  0  0  0  0  0  0
  151.5336  145.2236  158.6503 F   0  0  0  0  0  0  0  0  0  0  0  0
  152.9633  142.5066  160.0706 C   0  0  0  0  0  0  0  0  0  0  0  0
  153.5731  141.3179  159.8688 N   0  5  0  0  0  0  0  0  0  0  0  0
  153.1052  140.5164  158.8707 C   0  0  0  0  0  0  0  0  0  0  0  0
  153.6198  139.4244  158.6268 O   0  0  0  0  0  0  0  0  0  0  0  0
  149.7766  132.9698  154.1929 H   0  0  0  0  0  0  0  0  0  0  0  0
  149.6750  134.6848  153.8046 H   0  0  0  0  0  0  0  0  0  0  0  0
  148.7072  134.0187  155.1194 H   0  0  0  0  0  0  0  0  0  0  0  0
  150.8118  133.4928  156.3920 H   0  0  0  0  0  0  0  0  0  0  0  0
  151.7711  134.1534  155.0904 H   0  0  0  0  0  0  0  0  0  0  0  0
  149.8582  135.6790  156.9155 H   0  0  0  0  0  0  0  0  0  0  0  0
  151.5967  135.8362  156.8506 H   0  0  0  0  0  0  0  0  0  0  0  0
  151.3213  136.6309  154.4108 H   0  0  0  0  0  0  0  0  0  0  0  0
  149.5903  136.7063  154.7280 H   0  0  0  0  0  0  0  0  0  0  0  0
  151.3760  139.0429  154.1667 H   0  0  0  0  0  0  0  0  0  0  0  0
  149.1357  140.2519  153.8880 H   0  0  0  0  0  0  0  0  0  0  0  0
  148.4887  139.2613  155.1944 H   0  0  0  0  0  0  0  0  0  0  0  0
  149.0193  138.5160  153.6901 H   0  0  0  0  0  0  0  0  0  0  0  0
  151.5858  139.1217  157.3075 H   0  0  0  0  0  0  0  0  0  0  0  0
  150.5104  142.5202  157.8163 H   0  0  0  0  0  0  0  0  0  0  0  0
  153.4229  143.1290  160.8678 H   0  0  0  0  0  0  0  0  0  0  0  0
  1  2  1  0  0  0  0
  1 22  1  0  0  0  0
  1 23  1  0  0  0  0
  1 24  1  0  0  0  0
  2  3  1  0  0  0  0
  2 25  1  0  0  0  0
  2 26  1  0  0  0  0
  3  4  1  0  0  0  0
  3 27  1  0  0  0  0
  3 28  1  0  0  0  0
  4  5  1  0  0  0  0
  4 29  1  0  0  0  0
  4 30  1  0  0  0  0
  5  6  1  0  0  0  0
  6  7  1  0  0  0  0
  6  8  1  0  0  0  0
  6 31  1  0  0  0  0
  7 32  1  0  0  0  0
  7 33  1  0  0  0  0
  7 34  1  0  0  0  0
  8  9  2  0  0  0  0
  8 10  1  0  0  0  0
 10 11  1  0  0  0  0
 10 35  1  0  0  0  0
 11 20  1  0  0  0  0
 11 12  2  0  0  0  0
 12 13  1  0  0  0  0
 12 36  1  0  0  0  0
 13 14  1  0  0  0  0
 13 18  2  0  0  0  0
 14 15  1  0  0  0  0
 14 16  1  0  0  0  0
 14 17  1  0  0  0  0
 18 19  1  0  0  0  0
 18 37  1  0  0  0  0
 19 20  1  0  0  0  0
 20 21  2  0  0  0  0
M  CHG  1  19  -1
M  END
> <s_m_source_file>
AV-unprocessed.smi

> <i_m_source_file_index>
1723

> <i_lp_mmshare_version>
43012

> <i_f3d_flags>
0

> <s_epik_input>
W0NIM11bQ0gyXVtDSDJdW0NIMl1PW0NASF0oW0NIM10pQyg9TylbTkhdYzFbY0hdYyhDKEYpKEYpRilbY0hdW25IXWMxPU8=

> <s_epik_cmdline>
J2VwaWtfcHl0aG9uJywgJy1waCcsICc3LjAnLCAnLXRuJywgJzgnLCAnLW1hJywgJzIwMCcsICctbWV0YWxfYmluZGluZycsICctaW1hZScsICc8aW5maWxlLm1hZT4nLCAnLW9tYWUnLCAnPG91dGZpbGUubWFlPic=

> <r_lp_tautomer_probability>
0.999

> <r_epik_Ionization_Penalty>
2.64397

> <r_epik_Ionization_Penalty_Charging>
0.0618254

> <r_epik_Ionization_Penalty_Neutral>
2.58215

> <r_epik_State_Penalty>
2.58023

> <r_epik_Charging_Adjusted_Penalty>
2.64205

> <i_epik_Tot_Q>
-1

> <i_epik_Tot_abs_Q>
1

> <r_epik_Metal_State_Penalty>
0.429101

> <b_epik_Metal_Only>
1

> <s_lp_Force_Field>
OPLS_2005

> <r_lp_Energy>
21.9007

> <b_lp_Chiralities_Consistent>
1

> <s_lp_Variant>
AV-unprocessed.smi:1723-4

> <Gold.Version>
5.8.1

> <Gold.Id.Protein>
6NUR|6NUR_protein|mol2

> <Gold.PLP.Fitness>
42.8572

> <Gold.PLP.PLP>
-40.3366

> <Gold.PLP.part.hbond>
-2.0000

> <Gold.PLP.part.metal>
0.0000

> <Gold.PLP.part.buried>
-3.6027

> <Gold.PLP.part.nonpolar>
-35.1483

> <Gold.PLP.part.repulsive>
0.1987

> <Gold.PLP.ligand.clash>
0.0000

> <Gold.PLP.ligand.torsion>
0.5676

> <Gold.PLP.Chemscore.Hbond>
1.1828

> <Gold.PLP.Chemscore.CHOScore>
0.0000

> <Gold.PLP.Chemscore.Metal>
0.0000

> <Gold.Chemscore.Hbonds>
donor molecule, donor type, donor heavy atom, donor atom, acceptor molecule, acceptor atom, score
      P1  H  7989  7998       L1     9  0.31
      P1  H  7997  8010       L1    21  0.90

> <Gold.PLP.Chemscore.Internal.Correction>
0.1074

> <Gold.Rescore>
     Score         DG    S(hbond)    S(metal)    S(lipo)     H(rot)  DE(clash)    DE(int)     intcor
     11.75     -13.18       1.11        0.00      76.77       1.95       0.85       0.58       ----

> <Gold.Chemscore.Fitness>
11.7483

> <Gold.Chemscore.DG>
-13.1779

> <Gold.Chemscore.ZeroCoef>
-5.4800

> <Gold.Chemscore.Hbond>
1.1108

> <Gold.Chemscore.Metal>
0.0000

> <Gold.Chemscore.Lipo>
76.7664

> <Gold.Chemscore.Internal_Hbond>
0.0000

> <Gold.Chemscore.DEClash>
0.8470

> <Gold.Chemscore.DEInternal>
0.5826

> <Gold.Chemscore.Rot>
1.9507

> <Gold.Chemscore.Internal.Correction>
   9.000000E+99

> <Gold.Chemscore.Hbonds>
donor molecule, donor type, donor heavy atom, donor atom, acceptor molecule, acceptor atom, score
      P1  H  7989  7998       L1     9  0.04
      P1  H  7997  8010       L1    21  0.18

> <Gold.Chemscore.Hbond.Weighted>
-3.7101

> <Gold.Chemscore.Metal.Weighted>
-0.0000

> <Gold.Chemscore.Lipo.Weighted>
-8.9817

> <Gold.Chemscore.Internal_Hbond.Weighted>
0.0000

> <Gold.Chemscore.DEClash.Weighted>
0.8470

> <Gold.Chemscore.DEInternal.Weighted>
0.5826

> <Gold.Chemscore.Rot.Weighted>
4.9939

> <Gold.Chemscore.Internal.Correction.Weighted>
   9.000000E+99

> <Gold.Protein.RotatedTorsions>
[ 6907 6896 6895 6894 ] final  -71.15 input  -60.11 | X-H torsion
[ 7974 7965 7964 7962 ] final   46.07 input  175.53 | X-H torsion
[ 8008 7997 7996 7995 ] final   14.43 input   59.86 | X-H torsion
[ 10167 10162 10161 10158 ] final -129.53 input  -65.29 | X-H torsion
[ 10718 10713 10712 10709 ] final    1.51 input   66.30 | X-H torsion
[ 10763 10752 10751 10750 ] final  177.73 input  -60.55 | X-H torsion
[ 11005 11000 10999 10996 ] final  -68.36 input  -57.11 | X-H torsion

> <Gold.Protein.ActiveResidues>
 VAL166  LYS551  ARG553  GLY616  TRP617  ASP618  TYR619  PRO620  LYS621  CYS622 
 ASP623  PHE694  ASN695  SER759  ASP760  ASP761  ALA762  ILE779  LEU786  VAL792 
 PHE793  MET794  SER795  GLU796  ALA797  LYS798  CYS799  TRP800  GLU811  SER814 

> <Gold.Protein.RotatedAtoms>
  150.7225  134.5351  159.5719 H   0  0  0  0  0  0  0  0  0  0  0  0  # atno 6907 bound_to 6896
  152.2875  134.7756  160.0393 H   0  0  0  0  0  0  0  0  0  0  0  0  # atno 6908 bound_to 6896
  151.8382  133.3384  159.3671 H   0  0  0  0  0  0  0  0  0  0  0  0  # atno 6909 bound_to 6896
  146.0423  139.4896  142.9770 H   0  0  0  0  0  0  0  0  0  0  0  0  # atno 7974 bound_to 7965
  154.8484  140.2926  155.5614 H   0  0  0  0  0  0  0  0  0  0  0  0  # atno 8008 bound_to 7997
  156.3015  140.2500  156.3371 H   0  0  0  0  0  0  0  0  0  0  0  0  # atno 8009 bound_to 7997
  154.9048  140.0390  157.1902 H   0  0  0  0  0  0  0  0  0  0  0  0  # atno 8010 bound_to 7997
  139.9388  143.6187  152.2509 H   0  0  0  0  0  0  0  0  0  0  0  0  # atno 10167 bound_to 10162
  156.8493  130.5548  149.5671 H   0  0  0  0  0  0  0  0  0  0  0  0  # atno 10718 bound_to 10713
  154.4983  135.2782  155.1441 H   0  0  0  0  0  0  0  0  0  0  0  0  # atno 10763 bound_to 10752
  154.3085  135.6234  153.5459 H   0  0  0  0  0  0  0  0  0  0  0  0  # atno 10764 bound_to 10752
  152.9898  135.5714  154.5420 H   0  0  0  0  0  0  0  0  0  0  0  0  # atno 10765 bound_to 10752
  141.1530  133.6739  156.6434 H   0  0  0  0  0  0  0  0  0  0  0  0  # atno 11005 bound_to 11000
  145.6863  141.0177  143.1579 LP  0  0  0  0  0  0  0  0  0  0  0  0  # atno 17320 bound_to 7965
  144.7081  139.8481  143.7423 LP  0  0  0  0  0  0  0  0  0  0  0  0  # atno 17321 bound_to 7965
  139.6722  144.7660  151.1763 LP  0  0  0  0  0  0  0  0  0  0  0  0  # atno 17342 bound_to 10162
  140.7617  143.5849  150.8856 LP  0  0  0  0  0  0  0  0  0  0  0  0  # atno 17343 bound_to 10162
  156.0837  130.5841  150.9609 LP  0  0  0  0  0  0  0  0  0  0  0  0  # atno 17370 bound_to 10713
  157.6312  131.0921  150.8437 LP  0  0  0  0  0  0  0  0  0  0  0  0  # atno 17371 bound_to 10713
  140.3375  134.7876  157.4373 LP  0  0  0  0  0  0  0  0  0  0  0  0  # atno 17394 bound_to 11000
  140.0965  134.5530  155.8393 LP  0  0  0  0  0  0  0  0  0  0  0  0  # atno 17395 bound_to 11000

$$$$
