AV-unprocessed.smi:3130|AV-procd|sdf|11926|dock5
  -GOLD-   2272017313D 1   1.00000     0.00000
 Structure written by MMmdl.
 40 40  0  0  0  0  0  0  0  0  2 V2000
  151.3776  142.2888  157.8880 C   0  0  0  0  0  0  0  0  0  0  0  0
  150.8826  141.5269  156.6928 C   0  0  0  0  0  0  0  0  0  0  0  0
  151.5559  140.5048  155.9649 C   0  0  0  0  0  0  0  0  0  0  0  0
  150.8413  140.0379  154.9538 N   0  0  0  0  0  0  0  0  0  0  0  0
  149.6895  140.7398  155.0022 N   0  0  0  0  0  0  0  0  0  0  0  0
  148.6547  140.4944  154.0162 C   0  0  0  0  0  0  0  0  0  0  0  0
  148.2711  139.0090  153.9451 C   0  0  0  0  0  0  0  0  0  0  0  0
  148.0098  138.5949  152.5531 N   0  3  0  0  0  0  0  0  0  0  0  0
  146.5876  138.6618  152.1642 C   0  0  0  0  0  0  0  0  0  0  0  0
  145.7114  137.8525  153.1354 C   0  0  0  0  0  0  0  0  0  0  0  0
  145.0984  136.6086  152.4854 C   0  0  0  0  0  0  0  0  0  0  0  0
  143.8777  136.5084  152.3611 O   0  0  0  0  0  0  0  0  0  0  0  0
  145.9612  135.6643  152.0783 N   0  0  0  0  0  0  0  0  0  0  0  0
  145.5978  134.4005  151.4432 C   0  0  0  0  0  0  0  0  0  0  0  0
  146.8732  133.6417  151.0529 C   0  0  0  0  0  0  0  0  0  0  0  0
  144.6922  134.6489  150.2264 C   0  0  0  0  0  0  0  0  0  0  0  0
  149.6886  141.6476  156.0400 C   0  0  0  0  0  0  0  0  0  0  0  0
  152.3198  141.8889  158.2636 H   0  0  0  0  0  0  0  0  0  0  0  0
  150.6637  142.2546  158.7114 H   0  0  0  0  0  0  0  0  0  0  0  0
  151.5466  143.3395  157.6513 H   0  0  0  0  0  0  0  0  0  0  0  0
  152.5390  140.0926  156.1394 H   0  0  0  0  0  0  0  0  0  0  0  0
  147.7836  141.0996  154.2711 H   0  0  0  0  0  0  0  0  0  0  0  0
  149.0124  140.8454  153.0470 H   0  0  0  0  0  0  0  0  0  0  0  0
  149.0734  138.3936  154.3546 H   0  0  0  0  0  0  0  0  0  0  0  0
  147.3809  138.8233  154.5480 H   0  0  0  0  0  0  0  0  0  0  0  0
  148.5418  139.1914  151.9355 H   0  0  0  0  0  0  0  0  0  0  0  0
  146.2762  139.7076  152.1516 H   0  0  0  0  0  0  0  0  0  0  0  0
  146.4765  138.2778  151.1487 H   0  0  0  0  0  0  0  0  0  0  0  0
  146.3055  137.5509  153.9997 H   0  0  0  0  0  0  0  0  0  0  0  0
  144.8997  138.4746  153.5145 H   0  0  0  0  0  0  0  0  0  0  0  0
  146.9469  135.8293  152.2224 H   0  0  0  0  0  0  0  0  0  0  0  0
  145.0529  133.7855  152.1617 H   0  0  0  0  0  0  0  0  0  0  0  0
  146.6339  132.6795  150.5991 H   0  0  0  0  0  0  0  0  0  0  0  0
  147.4976  133.4465  151.9253 H   0  0  0  0  0  0  0  0  0  0  0  0
  147.4691  134.2075  150.3359 H   0  0  0  0  0  0  0  0  0  0  0  0
  144.4148  133.7092  149.7477 H   0  0  0  0  0  0  0  0  0  0  0  0
  145.1907  135.2675  149.4794 H   0  0  0  0  0  0  0  0  0  0  0  0
  143.7691  135.1529  150.5146 H   0  0  0  0  0  0  0  0  0  0  0  0
  148.8482  142.2999  156.2269 H   0  0  0  0  0  0  0  0  0  0  0  0
  148.3284  137.6433  152.4375 H   0  0  0  0  0  0  0  0  0  0  0  0
  1  2  1  0  0  0  0
  1 18  1  0  0  0  0
  1 19  1  0  0  0  0
  1 20  1  0  0  0  0
  2 17  2  0  0  0  0
  2  3  1  0  0  0  0
  3  4  2  0  0  0  0
  3 21  1  0  0  0  0
  4  5  1  0  0  0  0
  5  6  1  0  0  0  0
  5 17  1  0  0  0  0
  6  7  1  0  0  0  0
  6 22  1  0  0  0  0
  6 23  1  0  0  0  0
  7  8  1  0  0  0  0
  7 24  1  0  0  0  0
  7 25  1  0  0  0  0
  8  9  1  0  0  0  0
  8 26  1  0  0  0  0
  8 40  1  0  0  0  0
  9 10  1  0  0  0  0
  9 27  1  0  0  0  0
  9 28  1  0  0  0  0
 10 11  1  0  0  0  0
 10 29  1  0  0  0  0
 10 30  1  0  0  0  0
 11 12  2  0  0  0  0
 11 13  1  0  0  0  0
 13 14  1  0  0  0  0
 13 31  1  0  0  0  0
 14 15  1  0  0  0  0
 14 16  1  0  0  0  0
 14 32  1  0  0  0  0
 15 33  1  0  0  0  0
 15 34  1  0  0  0  0
 15 35  1  0  0  0  0
 16 36  1  0  0  0  0
 16 37  1  0  0  0  0
 16 38  1  0  0  0  0
 17 39  1  0  0  0  0
M  CHG  1   8   1
M  END
> <s_m_source_file>
AV-unprocessed.smi

> <i_m_source_file_index>
3130

> <i_lp_mmshare_version>
43012

> <i_f3d_flags>
0

> <s_epik_input>
W0NIM11jMVtjSF1ubihbY0hdMSlbQ0gyXVtDSDJdW05IXVtDSDJdW0NIMl1DKD1PKVtOSF1bQ0hdKFtDSDNdKVtDSDNd

> <s_epik_cmdline>
J2VwaWtfcHl0aG9uJywgJy1waCcsICc3LjAnLCAnLXRuJywgJzgnLCAnLW1hJywgJzIwMCcsICctbWV0YWxfYmluZGluZycsICctaW1hZScsICc8aW5maWxlLm1hZT4nLCAnLW9tYWUnLCAnPG91dGZpbGUubWFlPic=

> <r_lp_tautomer_probability>
1

> <r_epik_Ionization_Penalty>
0.00578341

> <r_epik_Ionization_Penalty_Charging>
0.00577767

> <r_epik_Ionization_Penalty_Neutral>
5.73237e-06

> <r_epik_State_Penalty>
-0

> <r_epik_Charging_Adjusted_Penalty>
0.00577767

> <i_epik_Tot_Q>
1

> <i_epik_Tot_abs_Q>
1

> <r_epik_Metal_State_Penalty>
-0

> <b_epik_Metal_Only>
0

> <s_lp_Force_Field>
OPLS_2005

> <r_lp_Energy>
3.33075

> <b_lp_Chiralities_Consistent>
1

> <s_lp_Variant>
AV-unprocessed.smi:3130-1

> <Gold.Version>
5.8.1

> <Gold.Id.Protein>
6NUR|6NUR_protein|mol2

> <Gold.PLP.Fitness>
47.9798

> <Gold.PLP.PLP>
-32.4433

> <Gold.PLP.part.hbond>
-3.9970

> <Gold.PLP.part.metal>
0.0000

> <Gold.PLP.part.buried>
-0.9091

> <Gold.PLP.part.nonpolar>
-26.8845

> <Gold.PLP.part.repulsive>
0.3071

> <Gold.PLP.ligand.clash>
0.0000

> <Gold.PLP.ligand.torsion>
0.9509

> <Gold.PLP.Chemscore.Hbond>
4.8763

> <Gold.PLP.Chemscore.CHOScore>
0.8931

> <Gold.PLP.Chemscore.Metal>
0.0000

> <Gold.Chemscore.Hbonds>
donor molecule, donor type, donor heavy atom, donor atom, acceptor molecule, acceptor atom, score
      L1  H     8    26       P1  7957  1.00
      L1  H     8    40       P1  7948  2.00
      L1  H    13    31       P1  7948  0.94
      P1  H  7989  7998       L1     4  0.95
      L1  C    17    39       P1  8028  0.86

> <Gold.PLP.Chemscore.Internal.Correction>
0.1303

> <Gold.Rescore>
     Score         DG    S(hbond)    S(metal)    S(lipo)     H(rot)  DE(clash)    DE(int)     intcor
     17.04     -19.27       3.37        0.00      71.03       2.26       0.33       1.90       ----

> <Gold.Chemscore.Fitness>
17.0401

> <Gold.Chemscore.DG>
-19.2709

> <Gold.Chemscore.ZeroCoef>
-5.4800

> <Gold.Chemscore.Hbond>
3.3723

> <Gold.Chemscore.Metal>
0.0000

> <Gold.Chemscore.Lipo>
71.0312

> <Gold.Chemscore.Internal_Hbond>
0.0000

> <Gold.Chemscore.DEClash>
0.3302

> <Gold.Chemscore.DEInternal>
1.9006

> <Gold.Chemscore.Rot>
2.2591

> <Gold.Chemscore.Internal.Correction>
   9.000000E+99

> <Gold.Chemscore.Hbonds>
donor molecule, donor type, donor heavy atom, donor atom, acceptor molecule, acceptor atom, score
      L1  H     8    26       P1  7957  0.93
      L1  H     8    40       P1  7948  0.99
      L1  H    13    31       P1  7948  0.90
      P1  H  7989  7998       L1     4  0.07

> <Gold.Chemscore.Hbond.Weighted>
-11.2636

> <Gold.Chemscore.Metal.Weighted>
-0.0000

> <Gold.Chemscore.Lipo.Weighted>
-8.3106

> <Gold.Chemscore.Internal_Hbond.Weighted>
0.0000

> <Gold.Chemscore.DEClash.Weighted>
0.3302

> <Gold.Chemscore.DEInternal.Weighted>
1.9006

> <Gold.Chemscore.Rot.Weighted>
5.7834

> <Gold.Chemscore.Internal.Correction.Weighted>
   9.000000E+99

> <Gold.Protein.RotatedTorsions>
[ 6907 6896 6895 6894 ] final  138.40 input  -60.11 | X-H torsion
[ 7974 7965 7964 7962 ] final -138.81 input  175.53 | X-H torsion
[ 8008 7997 7996 7995 ] final   -9.71 input   59.86 | X-H torsion
[ 10167 10162 10161 10158 ] final  130.18 input  -65.29 | X-H torsion
[ 10718 10713 10712 10709 ] final -167.87 input   66.30 | X-H torsion
[ 10763 10752 10751 10750 ] final  152.64 input  -60.55 | X-H torsion
[ 11005 11000 10999 10996 ] final  -91.71 input  -57.11 | X-H torsion

> <Gold.Protein.ActiveResidues>
 VAL166  LYS551  ARG553  GLY616  TRP617  ASP618  TYR619  PRO620  LYS621  CYS622 
 ASP623  PHE694  ASN695  SER759  ASP760  ASP761  ALA762  ILE779  LEU786  VAL792 
 PHE793  MET794  SER795  GLU796  ALA797  LYS798  CYS799  TRP800  GLU811  SER814 

> <Gold.Protein.RotatedAtoms>
  152.2671  133.5348  159.5416 H   0  0  0  0  0  0  0  0  0  0  0  0  # atno 6907 bound_to 6896
  150.7145  134.0750  159.3887 H   0  0  0  0  0  0  0  0  0  0  0  0  # atno 6908 bound_to 6896
  151.8666  135.0505  160.0525 H   0  0  0  0  0  0  0  0  0  0  0  0  # atno 6909 bound_to 6896
  144.8728  140.6392  143.5256 H   0  0  0  0  0  0  0  0  0  0  0  0  # atno 7974 bound_to 7965
  154.5622  140.2348  155.8319 H   0  0  0  0  0  0  0  0  0  0  0  0  # atno 8008 bound_to 7997
  156.2038  140.3045  155.9543 H   0  0  0  0  0  0  0  0  0  0  0  0  # atno 8009 bound_to 7997
  155.2868  140.0425  157.3010 H   0  0  0  0  0  0  0  0  0  0  0  0  # atno 8010 bound_to 7997
  139.5442  144.6758  151.4526 H   0  0  0  0  0  0  0  0  0  0  0  0  # atno 10167 bound_to 10162
  156.6886  130.9150  151.3066 H   0  0  0  0  0  0  0  0  0  0  0  0  # atno 10718 bound_to 10713
  154.1233  135.2831  155.3203 H   0  0  0  0  0  0  0  0  0  0  0  0  # atno 10763 bound_to 10752
  154.6407  135.5403  153.7790 H   0  0  0  0  0  0  0  0  0  0  0  0  # atno 10764 bound_to 10752
  153.0305  135.6486  154.1386 H   0  0  0  0  0  0  0  0  0  0  0  0  # atno 10765 bound_to 10752
  141.1538  133.7773  156.9918 H   0  0  0  0  0  0  0  0  0  0  0  0  # atno 11005 bound_to 11000
  145.4099  139.1582  143.4131 LP  0  0  0  0  0  0  0  0  0  0  0  0  # atno 17320 bound_to 7965
  146.2942  140.4202  142.8728 LP  0  0  0  0  0  0  0  0  0  0  0  0  # atno 17321 bound_to 7965
  140.6684  143.8348  150.6969 LP  0  0  0  0  0  0  0  0  0  0  0  0  # atno 17342 bound_to 10162
  140.1764  143.4151  152.1964 LP  0  0  0  0  0  0  0  0  0  0  0  0  # atno 17343 bound_to 10162
  157.7017  130.9340  150.0806 LP  0  0  0  0  0  0  0  0  0  0  0  0  # atno 17370 bound_to 10713
  156.1814  130.3650  149.9030 LP  0  0  0  0  0  0  0  0  0  0  0  0  # atno 17371 bound_to 10713
  140.0998  134.9542  157.1905 LP  0  0  0  0  0  0  0  0  0  0  0  0  # atno 17394 bound_to 11000
  140.3334  134.2785  155.7224 LP  0  0  0  0  0  0  0  0  0  0  0  0  # atno 17395 bound_to 11000

$$$$
