AV-unprocessed.smi:1845|AV-procd|sdf|7512|dock8
  -GOLD-   22720 9223D 1   1.00000     0.00000
 Structure written by MMmdl.
 45 46  0  0  0  0  0  0  0  0  1 V2000
  146.9391  133.1715  151.5306 C   0  0  0  0  0  0  0  0  0  0  0  0
  147.5003  132.8395  153.2517 S   0  0  0  0  0  0  0  0  0  0  0  0
  146.3227  132.4845  154.0576 O   0  0  0  0  0  0  0  0  0  0  0  0
  148.6673  131.9453  153.2068 O   0  0  0  0  0  0  0  0  0  0  0  0
  148.0427  134.3854  153.7906 N   0  0  0  0  0  0  0  0  0  0  0  0
  148.7495  134.5178  155.0681 C   0  0  0  0  0  0  0  0  0  0  0  0
  148.5403  135.9063  155.7048 C   0  0  0  0  0  0  0  0  0  0  0  0
  149.7840  136.7963  155.6193 C   0  0  0  0  0  0  0  0  0  0  0  0
  150.4262  137.0598  156.6360 O   0  0  0  0  0  0  0  0  0  0  0  0
  150.1008  137.2631  154.4013 N   0  0  0  0  0  0  0  0  0  0  0  0
  151.1638  138.2194  154.1089 C   0  0  0  0  0  0  0  0  0  0  0  0
  151.3290  139.2551  155.2087 C   0  0  0  0  0  0  0  0  0  0  0  0
  150.4709  140.3692  155.2920 C   0  0  0  0  0  0  0  0  0  0  0  0
  150.6465  141.2889  156.3440 C   0  0  0  0  0  0  0  0  0  0  0  0
  151.6785  141.0706  157.2879 C   0  0  0  0  0  0  0  0  0  0  0  0
  151.8629  141.9685  158.3610 N   0  0  0  0  0  0  0  0  0  0  0  0
  151.8874  143.3849  158.0051 C   0  0  0  0  0  0  0  0  0  0  0  0
  151.7829  144.2555  159.2694 C   0  0  0  0  0  0  0  0  0  0  0  0
  152.8076  143.8960  160.1902 O   0  0  0  0  0  0  0  0  0  0  0  0
  152.6904  142.5408  160.6091 C   0  0  0  0  0  0  0  0  0  0  0  0
  152.8352  141.6114  159.3927 C   0  0  0  0  0  0  0  0  0  0  0  0
  152.5055  140.0002  157.1994 N   0  0  0  0  0  0  0  0  0  0  0  0
  152.3369  139.1263  156.1862 C   0  0  0  0  0  0  0  0  0  0  0  0
  146.5591  132.2491  151.0916 H   0  0  0  0  0  0  0  0  0  0  0  0
  147.7691  133.5386  150.9283 H   0  0  0  0  0  0  0  0  0  0  0  0
  146.1425  133.9144  151.5453 H   0  0  0  0  0  0  0  0  0  0  0  0
  148.4008  134.9775  153.0408 H   0  0  0  0  0  0  0  0  0  0  0  0
  148.4007  133.7364  155.7433 H   0  0  0  0  0  0  0  0  0  0  0  0
  149.8144  134.3435  154.9124 H   0  0  0  0  0  0  0  0  0  0  0  0
  147.7115  136.4177  155.2136 H   0  0  0  0  0  0  0  0  0  0  0  0
  148.2479  135.7879  156.7492 H   0  0  0  0  0  0  0  0  0  0  0  0
  149.5239  136.9771  153.6231 H   0  0  0  0  0  0  0  0  0  0  0  0
  152.1165  137.7119  153.9492 H   0  0  0  0  0  0  0  0  0  0  0  0
  150.9224  138.7169  153.1692 H   0  0  0  0  0  0  0  0  0  0  0  0
  149.6811  140.5150  154.5699 H   0  0  0  0  0  0  0  0  0  0  0  0
  149.9787  142.1335  156.4263 H   0  0  0  0  0  0  0  0  0  0  0  0
  152.8198  143.5994  157.4814 H   0  0  0  0  0  0  0  0  0  0  0  0
  151.0760  143.6448  157.3269 H   0  0  0  0  0  0  0  0  0  0  0  0
  151.8928  145.3085  159.0098 H   0  0  0  0  0  0  0  0  0  0  0  0
  150.8035  144.1442  159.7372 H   0  0  0  0  0  0  0  0  0  0  0  0
  153.4689  142.3258  161.3409 H   0  0  0  0  0  0  0  0  0  0  0  0
  151.7325  142.3836  161.1077 H   0  0  0  0  0  0  0  0  0  0  0  0
  152.6890  140.5777  159.7085 H   0  0  0  0  0  0  0  0  0  0  0  0
  153.8428  141.6885  158.9821 H   0  0  0  0  0  0  0  0  0  0  0  0
  153.0260  138.2959  156.1639 H   0  0  0  0  0  0  0  0  0  0  0  0
  1  2  1  0  0  0  0
  1 24  1  0  0  0  0
  1 25  1  0  0  0  0
  1 26  1  0  0  0  0
  2  3  2  0  0  0  0
  2  4  2  0  0  0  0
  2  5  1  0  0  0  0
  5  6  1  0  0  0  0
  5 27  1  0  0  0  0
  6  7  1  0  0  0  0
  6 28  1  0  0  0  0
  6 29  1  0  0  0  0
  7  8  1  0  0  0  0
  7 30  1  0  0  0  0
  7 31  1  0  0  0  0
  8  9  2  0  0  0  0
  8 10  1  0  0  0  0
 10 11  1  0  0  0  0
 10 32  1  0  0  0  0
 11 12  1  0  0  0  0
 11 33  1  0  0  0  0
 11 34  1  0  0  0  0
 12 23  1  0  0  0  0
 12 13  2  0  0  0  0
 13 14  1  0  0  0  0
 13 35  1  0  0  0  0
 14 15  2  0  0  0  0
 14 36  1  0  0  0  0
 15 16  1  0  0  0  0
 15 22  1  0  0  0  0
 16 21  1  0  0  0  0
 16 17  1  0  0  0  0
 17 18  1  0  0  0  0
 17 37  1  0  0  0  0
 17 38  1  0  0  0  0
 18 19  1  0  0  0  0
 18 39  1  0  0  0  0
 18 40  1  0  0  0  0
 19 20  1  0  0  0  0
 20 21  1  0  0  0  0
 20 41  1  0  0  0  0
 20 42  1  0  0  0  0
 21 43  1  0  0  0  0
 21 44  1  0  0  0  0
 22 23  2  0  0  0  0
 23 45  1  0  0  0  0
M  END
> <s_m_source_file>
AV-unprocessed.smi

> <i_m_source_file_index>
1845

> <i_lp_mmshare_version>
43012

> <i_f3d_flags>
0

> <s_epik_input>
W0NIM11TKD1PKSg9TylbTkhdW0NIMl1bQ0gyXUMoPU8pW05IXVtDSDJdYzFbY0hdW2NIXWMobltjSF0xKU4yW0NIMl1bQ0gyXU9bQ0gyXVtDSDJdMg==

> <s_epik_cmdline>
J2VwaWtfcHl0aG9uJywgJy1waCcsICc3LjAnLCAnLXRuJywgJzgnLCAnLW1hJywgJzIwMCcsICctbWV0YWxfYmluZGluZycsICctaW1hZScsICc8aW5maWxlLm1hZT4nLCAnLW9tYWUnLCAnPG91dGZpbGUubWFlPic=

> <r_lp_tautomer_probability>
1

> <r_epik_Ionization_Penalty>
0.00479915

> <r_epik_Ionization_Penalty_Charging>
0

> <r_epik_Ionization_Penalty_Neutral>
0.00479915

> <r_epik_State_Penalty>
0.00346804

> <r_epik_Charging_Adjusted_Penalty>
0.00346804

> <i_epik_Tot_Q>
0

> <i_epik_Tot_abs_Q>
0

> <r_epik_Metal_State_Penalty>
0.0135183

> <b_epik_Metal_Only>
0

> <s_lp_Force_Field>
OPLS_2005

> <r_lp_Energy>
4.60417

> <b_lp_Chiralities_Consistent>
1

> <s_lp_Variant>
AV-unprocessed.smi:1845-1

> <Gold.Version>
5.8.1

> <Gold.Id.Protein>
6NUR|6NUR_protein|mol2

> <Gold.PLP.Fitness>
45.4712

> <Gold.PLP.PLP>
-40.0376

> <Gold.PLP.part.hbond>
-3.0000

> <Gold.PLP.part.metal>
0.0000

> <Gold.PLP.part.buried>
-4.6001

> <Gold.PLP.part.nonpolar>
-32.8353

> <Gold.PLP.part.repulsive>
0.4910

> <Gold.PLP.ligand.clash>
0.0000

> <Gold.PLP.ligand.torsion>
1.3886

> <Gold.PLP.Chemscore.Hbond>
2.5720

> <Gold.PLP.Chemscore.CHOScore>
0.0000

> <Gold.PLP.Chemscore.Metal>
0.0000

> <Gold.Chemscore.Hbonds>
donor molecule, donor type, donor heavy atom, donor atom, acceptor molecule, acceptor atom, score
      L1  H     5    27       P1  7948  1.00
      L1  H    10    32       P1  7948  1.00
      P1  H  7997  8010       L1    22  0.54

> <Gold.PLP.Chemscore.Internal.Correction>
0.4949

> <Gold.Rescore>
     Score         DG    S(hbond)    S(metal)    S(lipo)     H(rot)  DE(clash)    DE(int)     intcor
     12.83     -15.41       2.01        0.00      90.86       2.90       0.05       2.53       ----

> <Gold.Chemscore.Fitness>
12.8266

> <Gold.Chemscore.DG>
-15.4059

> <Gold.Chemscore.ZeroCoef>
-5.4800

> <Gold.Chemscore.Hbond>
2.0128

> <Gold.Chemscore.Metal>
0.0000

> <Gold.Chemscore.Lipo>
90.8637

> <Gold.Chemscore.Internal_Hbond>
0.0000

> <Gold.Chemscore.DEClash>
0.0504

> <Gold.Chemscore.DEInternal>
2.5288

> <Gold.Chemscore.Rot>
2.9015

> <Gold.Chemscore.Internal.Correction>
   9.000000E+99

> <Gold.Chemscore.Hbonds>
donor molecule, donor type, donor heavy atom, donor atom, acceptor molecule, acceptor atom, score
      L1  H     5    27       P1  7948  0.78
      L1  H    10    32       P1  7948  0.84
      P1  H  7997  8010       L1    22  0.03

> <Gold.Chemscore.Hbond.Weighted>
-6.7227

> <Gold.Chemscore.Metal.Weighted>
-0.0000

> <Gold.Chemscore.Lipo.Weighted>
-10.6311

> <Gold.Chemscore.Internal_Hbond.Weighted>
0.0000

> <Gold.Chemscore.DEClash.Weighted>
0.0504

> <Gold.Chemscore.DEInternal.Weighted>
2.5288

> <Gold.Chemscore.Rot.Weighted>
7.4278

> <Gold.Chemscore.Internal.Correction.Weighted>
   9.000000E+99

> <Gold.Protein.RotatedTorsions>
[ 6907 6896 6895 6894 ] final  139.28 input  -60.11 | X-H torsion
[ 7974 7965 7964 7962 ] final   -7.54 input  175.53 | X-H torsion
[ 8008 7997 7996 7995 ] final   40.12 input   59.86 | X-H torsion
[ 10167 10162 10161 10158 ] final    3.65 input  -65.29 | X-H torsion
[ 10718 10713 10712 10709 ] final   64.54 input   66.30 | X-H torsion
[ 10763 10752 10751 10750 ] final  155.53 input  -60.55 | X-H torsion
[ 11005 11000 10999 10996 ] final -178.53 input  -57.11 | X-H torsion

> <Gold.Protein.ActiveResidues>
 VAL166  LYS551  ARG553  GLY616  TRP617  ASP618  TYR619  PRO620  LYS621  CYS622 
 ASP623  PHE694  ASN695  SER759  ASP760  ASP761  ALA762  ILE779  LEU786  VAL792 
 PHE793  MET794  SER795  GLU796  ALA797  LYS798  CYS799  TRP800  GLU811  SER814 

> <Gold.Protein.RotatedAtoms>
  152.2567  133.5262  159.5357 H   0  0  0  0  0  0  0  0  0  0  0  0  # atno 6907 bound_to 6896
  150.7111  134.0885  159.3932 H   0  0  0  0  0  0  0  0  0  0  0  0  # atno 6908 bound_to 6896
  151.8804  135.0456  160.0539 H   0  0  0  0  0  0  0  0  0  0  0  0  # atno 6909 bound_to 6896
  146.2304  140.2335  142.8341 H   0  0  0  0  0  0  0  0  0  0  0  0  # atno 7974 bound_to 7965
  155.2479  140.3350  155.4285 H   0  0  0  0  0  0  0  0  0  0  0  0  # atno 8008 bound_to 7997
  156.2228  140.1816  156.7480 H   0  0  0  0  0  0  0  0  0  0  0  0  # atno 8009 bound_to 7997
  154.5852  140.0647  156.9146 H   0  0  0  0  0  0  0  0  0  0  0  0  # atno 8010 bound_to 7997
  140.6575  143.7389  150.7680 H   0  0  0  0  0  0  0  0  0  0  0  0  # atno 10167 bound_to 10162
  157.6046  130.9165  149.9858 H   0  0  0  0  0  0  0  0  0  0  0  0  # atno 10718 bound_to 10713
  154.1699  135.2805  155.3084 H   0  0  0  0  0  0  0  0  0  0  0  0  # atno 10763 bound_to 10752
  154.6083  135.5507  153.7450 H   0  0  0  0  0  0  0  0  0  0  0  0  # atno 10764 bound_to 10752
  153.0168  135.6409  154.1839 H   0  0  0  0  0  0  0  0  0  0  0  0  # atno 10765 bound_to 10752
  140.4287  134.6539  157.4701 H   0  0  0  0  0  0  0  0  0  0  0  0  # atno 11005 bound_to 11000
  144.9540  140.8207  143.5554 LP  0  0  0  0  0  0  0  0  0  0  0  0  # atno 17320 bound_to 7965
  145.2298  139.2120  143.5049 LP  0  0  0  0  0  0  0  0  0  0  0  0  # atno 17321 bound_to 7965
  140.1052  143.4751  152.2402 LP  0  0  0  0  0  0  0  0  0  0  0  0  # atno 17342 bound_to 10162
  139.5801  144.7506  151.3662 LP  0  0  0  0  0  0  0  0  0  0  0  0  # atno 17343 bound_to 10162
  156.1128  130.3649  150.0019 LP  0  0  0  0  0  0  0  0  0  0  0  0  # atno 17370 bound_to 10713
  156.8114  130.9326  151.3644 LP  0  0  0  0  0  0  0  0  0  0  0  0  # atno 17371 bound_to 10713
  140.0149  134.6634  155.9325 LP  0  0  0  0  0  0  0  0  0  0  0  0  # atno 17394 bound_to 11000
  141.1754  133.6540  156.4810 LP  0  0  0  0  0  0  0  0  0  0  0  0  # atno 17395 bound_to 11000

$$$$
