AV-unprocessed.smi:240|AV-procd|sdf|1825|dock8
  -GOLD-   2262020423D 1   1.00000     0.00000
 Structure written by MMmdl.
 55 59  0  0  0  0  0  0  0  0  1 V2000
  145.2490  132.8387  154.1021 O   0  0  0  0  0  0  0  0  0  0  0  0
  145.3978  133.2089  152.7465 C   0  0  1  0  0  0  0  0  0  0  0  0
  144.6195  132.3098  151.7883 C   0  0  0  0  0  0  0  0  0  0  0  0
  144.6015  133.1163  150.4913 C   0  0  0  0  0  0  0  0  0  0  0  0
  144.5235  134.5874  150.9232 C   0  0  0  0  0  0  0  0  0  0  0  0
  144.9680  134.6527  152.4038 C   0  0  1  0  0  0  0  0  0  0  0  0
  143.9119  135.3144  153.3519 C   0  0  2  0  0  0  0  0  0  0  0  0
  142.5544  134.5619  153.3916 C   0  0  0  0  0  0  0  0  0  0  0  0
  141.6431  135.2183  154.2654 O   0  0  0  0  0  0  0  0  0  0  0  0
  141.3558  136.5409  153.8341 C   0  0  0  0  0  0  0  0  0  0  0  0
  142.6523  137.3592  153.8613 C   0  0  0  0  0  0  0  0  0  0  0  0
  143.6676  136.7276  153.0257 N   0  0  0  0  0  0  0  0  0  0  0  0
  144.7627  137.5134  152.9174 C   0  0  0  0  0  0  0  0  0  0  0  0
  145.4214  137.6073  151.7320 N   0  0  0  0  0  0  0  0  0  0  0  0
  146.4909  138.4020  151.6272 C   0  0  0  0  0  0  0  0  0  0  0  0
  147.0533  139.1738  152.5607 N   0  0  0  0  0  0  0  0  0  0  0  0
  146.3945  139.0735  153.7515 C   0  0  0  0  0  0  0  0  0  0  0  0
  145.2503  138.2708  154.0134 C   0  0  0  0  0  0  0  0  0  0  0  0
  144.8464  138.4277  155.3325 N   0  0  0  0  0  0  0  0  0  0  0  0
  145.7041  139.2798  155.8243 C   0  0  0  0  0  0  0  0  0  0  0  0
  146.6723  139.7155  154.9462 N   0  0  0  0  0  0  0  0  0  0  0  0
  147.7400  140.6649  155.2219 C   0  0  0  0  0  0  0  0  0  0  0  0
  149.0964  140.2870  154.5775 C   0  0  1  0  0  0  0  0  0  0  0  0
  149.1852  140.8890  153.2987 O   0  0  0  0  0  0  0  0  0  0  0  0
  150.2854  140.7402  155.4267 C   0  0  0  0  0  0  0  0  0  0  0  0
  150.7950  139.4444  156.0445 C   0  0  0  0  0  0  0  0  0  0  0  0
  150.5967  138.5093  155.0000 O   0  0  0  0  0  0  0  0  0  0  0  0
  149.3143  138.7652  154.4440 C   0  0  0  0  0  0  0  0  0  0  0  0
  144.3884  132.4660  154.2196 H   0  0  0  0  0  0  0  0  0  0  0  0
  146.4573  133.1053  152.5062 H   0  0  0  0  0  0  0  0  0  0  0  0
  145.0811  131.3298  151.6645 H   0  0  0  0  0  0  0  0  0  0  0  0
  143.6002  132.1538  152.1420 H   0  0  0  0  0  0  0  0  0  0  0  0
  145.5307  132.9463  149.9459 H   0  0  0  0  0  0  0  0  0  0  0  0
  143.7790  132.8302  149.8355 H   0  0  0  0  0  0  0  0  0  0  0  0
  145.1630  135.2073  150.2937 H   0  0  0  0  0  0  0  0  0  0  0  0
  143.5095  134.9634  150.7898 H   0  0  0  0  0  0  0  0  0  0  0  0
  145.8814  135.2459  152.4585 H   0  0  0  0  0  0  0  0  0  0  0  0
  144.3180  135.2941  154.3644 H   0  0  0  0  0  0  0  0  0  0  0  0
  142.1057  134.4791  152.4016 H   0  0  0  0  0  0  0  0  0  0  0  0
  142.6804  133.5466  153.7628 H   0  0  0  0  0  0  0  0  0  0  0  0
  140.9183  136.5300  152.8342 H   0  0  0  0  0  0  0  0  0  0  0  0
  140.6172  136.9820  154.5035 H   0  0  0  0  0  0  0  0  0  0  0  0
  142.4563  138.3726  153.5081 H   0  0  0  0  0  0  0  0  0  0  0  0
  143.0154  137.4389  154.8873 H   0  0  0  0  0  0  0  0  0  0  0  0
  146.9627  138.4239  150.6561 H   0  0  0  0  0  0  0  0  0  0  0  0
  145.6505  139.6170  156.8493 H   0  0  0  0  0  0  0  0  0  0  0  0
  147.4183  141.6475  154.8736 H   0  0  0  0  0  0  0  0  0  0  0  0
  147.8497  140.7485  156.3040 H   0  0  0  0  0  0  0  0  0  0  0  0
  149.1858  140.2073  152.6441 H   0  0  0  0  0  0  0  0  0  0  0  0
  151.0733  141.1640  154.8013 H   0  0  0  0  0  0  0  0  0  0  0  0
  150.0269  141.4873  156.1779 H   0  0  0  0  0  0  0  0  0  0  0  0
  151.8417  139.5005  156.3440 H   0  0  0  0  0  0  0  0  0  0  0  0
  150.1987  139.1610  156.9135 H   0  0  0  0  0  0  0  0  0  0  0  0
  148.5863  138.2084  155.0338 H   0  0  0  0  0  0  0  0  0  0  0  0
  149.2509  138.4033  153.4170 H   0  0  0  0  0  0  0  0  0  0  0  0
  1  2  1  0  0  0  0
  1 29  1  0  0  0  0
  2  6  1  0  0  0  0
  2  3  1  0  0  0  0
  2 30  1  0  0  0  0
  3  4  1  0  0  0  0
  3 31  1  0  0  0  0
  3 32  1  0  0  0  0
  4  5  1  0  0  0  0
  4 33  1  0  0  0  0
  4 34  1  0  0  0  0
  5  6  1  0  0  0  0
  5 35  1  0  0  0  0
  5 36  1  0  0  0  0
  6  7  1  0  0  0  0
  6 37  1  0  0  0  0
  7 12  1  0  0  0  0
  7  8  1  0  0  0  0
  7 38  1  0  0  0  0
  8  9  1  0  0  0  0
  8 39  1  0  0  0  0
  8 40  1  0  0  0  0
  9 10  1  0  0  0  0
 10 11  1  0  0  0  0
 10 41  1  0  0  0  0
 10 42  1  0  0  0  0
 11 12  1  0  0  0  0
 11 43  1  0  0  0  0
 11 44  1  0  0  0  0
 12 13  1  0  0  0  0
 13 18  1  0  0  0  0
 13 14  2  0  0  0  0
 14 15  1  0  0  0  0
 15 16  2  0  0  0  0
 15 45  1  0  0  0  0
 16 17  1  0  0  0  0
 17 21  1  0  0  0  0
 17 18  2  0  0  0  0
 18 19  1  0  0  0  0
 19 20  2  0  0  0  0
 20 21  1  0  0  0  0
 20 46  1  0  0  0  0
 21 22  1  0  0  0  0
 22 23  1  0  0  0  0
 22 47  1  0  0  0  0
 22 48  1  0  0  0  0
 23 28  1  0  0  0  0
 23 24  1  0  0  0  0
 23 25  1  0  0  0  0
 24 49  1  0  0  0  0
 25 26  1  0  0  0  0
 25 50  1  0  0  0  0
 25 51  1  0  0  0  0
 26 27  1  0  0  0  0
 26 52  1  0  0  0  0
 26 53  1  0  0  0  0
 27 28  1  0  0  0  0
 28 54  1  0  0  0  0
 28 55  1  0  0  0  0
M  END
> <s_m_source_file>
AV-unprocessed.smi

> <i_m_source_file_index>
240

> <i_lp_mmshare_version>
43012

> <i_f3d_flags>
0

> <s_epik_input>
W09IXVtDQEBIXTFbQ0gyXVtDSDJdW0NIMl1bQ0BIXTFbQ0BASF0yW0NIMl1PW0NIMl1bQ0gyXU4yYyhuW2NIXW4zKWMoYzM0KW5bY0hdbjRbQ0gyXVtDQEBdNShbT0hdKVtDSDJdW0NIMl1PW0NIMl01

> <s_epik_cmdline>
J2VwaWtfcHl0aG9uJywgJy1waCcsICc3LjAnLCAnLXRuJywgJzgnLCAnLW1hJywgJzIwMCcsICctbWV0YWxfYmluZGluZycsICctaW1hZScsICc8aW5maWxlLm1hZT4nLCAnLW9tYWUnLCAnPG91dGZpbGUubWFlPic=

> <r_lp_tautomer_probability>
1

> <r_epik_Ionization_Penalty>
0.000130618

> <r_epik_Ionization_Penalty_Charging>
0

> <r_epik_Ionization_Penalty_Neutral>
0.000130618

> <r_epik_State_Penalty>
-0

> <r_epik_Charging_Adjusted_Penalty>
0

> <i_epik_Tot_Q>
0

> <i_epik_Tot_abs_Q>
0

> <r_epik_Metal_State_Penalty>
-0

> <b_epik_Metal_Only>
0

> <s_lp_Force_Field>
OPLS_2005

> <r_lp_Energy>
64.9026

> <b_lp_Chiralities_Consistent>
1

> <s_lp_Variant>
AV-unprocessed.smi:240-2

> <Gold.Version>
5.8.1

> <Gold.Id.Protein>
6NUR|6NUR_protein|mol2

> <Gold.PLP.Fitness>
41.6946

> <Gold.PLP.PLP>
-34.4274

> <Gold.PLP.part.hbond>
-4.3625

> <Gold.PLP.part.metal>
0.0000

> <Gold.PLP.part.buried>
-7.2130

> <Gold.PLP.part.nonpolar>
-29.4329

> <Gold.PLP.part.repulsive>
4.9002

> <Gold.PLP.ligand.clash>
0.0000

> <Gold.PLP.ligand.torsion>
1.5356

> <Gold.PLP.Chemscore.Hbond>
3.3864

> <Gold.PLP.Chemscore.CHOScore>
0.0000

> <Gold.PLP.Chemscore.Metal>
0.0000

> <Gold.Chemscore.Hbonds>
donor molecule, donor type, donor heavy atom, donor atom, acceptor molecule, acceptor atom, score
      L1  H     1    29       P1 10957  1.00
      L1  H    24    49       P1  7957  0.75
      P1  H  8011  8017       L1    24  1.00
      P1  H 11000 11005       L1     9  0.56

> <Gold.PLP.Chemscore.Internal.Correction>
0.1793

> <Gold.Rescore>
     Score         DG    S(hbond)    S(metal)    S(lipo)     H(rot)  DE(clash)    DE(int)     intcor
      9.96     -15.17       2.66        0.00      72.46       3.00       1.95       3.26       ----

> <Gold.Chemscore.Fitness>
9.9560

> <Gold.Chemscore.DG>
-15.1661

> <Gold.Chemscore.ZeroCoef>
-5.4800

> <Gold.Chemscore.Hbond>
2.6642

> <Gold.Chemscore.Metal>
0.0000

> <Gold.Chemscore.Lipo>
72.4593

> <Gold.Chemscore.Internal_Hbond>
0.0000

> <Gold.Chemscore.DEClash>
1.9454

> <Gold.Chemscore.DEInternal>
3.2647

> <Gold.Chemscore.Rot>
3.0039

> <Gold.Chemscore.Internal.Correction>
   9.000000E+99

> <Gold.Chemscore.Hbonds>
donor molecule, donor type, donor heavy atom, donor atom, acceptor molecule, acceptor atom, score
      L1  H     1    29       P1 10957  0.65
      L1  H    24    49       P1  7957  0.70
      P1  H  8011  8017       L1    24  0.39
      P1  H 11000 11005       L1     9  0.57

> <Gold.Chemscore.Hbond.Weighted>
-8.8983

> <Gold.Chemscore.Metal.Weighted>
-0.0000

> <Gold.Chemscore.Lipo.Weighted>
-8.4777

> <Gold.Chemscore.Internal_Hbond.Weighted>
0.0000

> <Gold.Chemscore.DEClash.Weighted>
1.9454

> <Gold.Chemscore.DEInternal.Weighted>
3.2647

> <Gold.Chemscore.Rot.Weighted>
7.6899

> <Gold.Chemscore.Internal.Correction.Weighted>
   9.000000E+99

> <Gold.Protein.RotatedTorsions>
[ 6907 6896 6895 6894 ] final   86.57 input  -60.11 | X-H torsion
[ 7974 7965 7964 7962 ] final -179.28 input  175.53 | X-H torsion
[ 8008 7997 7996 7995 ] final  -24.68 input   59.86 | X-H torsion
[ 10167 10162 10161 10158 ] final  -68.02 input  -65.29 | X-H torsion
[ 10718 10713 10712 10709 ] final  -99.61 input   66.30 | X-H torsion
[ 10763 10752 10751 10750 ] final    8.09 input  -60.55 | X-H torsion
[ 11005 11000 10999 10996 ] final   19.48 input  -57.11 | X-H torsion

> <Gold.Protein.ActiveResidues>
 VAL166  LYS551  ARG553  GLY616  TRP617  ASP618  TYR619  PRO620  LYS621  CYS622 
 ASP623  PHE694  ASN695  SER759  ASP760  ASP761  ALA762  ILE779  LEU786  VAL792 
 PHE793  MET794  SER795  GLU796  ALA797  LYS798  CYS799  TRP800  GLU811  SER814 

> <Gold.Protein.RotatedAtoms>
  152.5396  134.2411  159.8862 H   0  0  0  0  0  0  0  0  0  0  0  0  # atno 6907 bound_to 6896
  151.2378  133.4409  159.2614 H   0  0  0  0  0  0  0  0  0  0  0  0  # atno 6908 bound_to 6896
  151.0655  134.9778  159.8338 H   0  0  0  0  0  0  0  0  0  0  0  0  # atno 6909 bound_to 6896
  144.7135  140.0742  143.6428 H   0  0  0  0  0  0  0  0  0  0  0  0  # atno 7974 bound_to 7965
  154.4516  140.1947  156.0502 H   0  0  0  0  0  0  0  0  0  0  0  0  # atno 8008 bound_to 7997
  156.0660  140.3290  155.7490 H   0  0  0  0  0  0  0  0  0  0  0  0  # atno 8009 bound_to 7997
  155.5338  140.0580  157.2874 H   0  0  0  0  0  0  0  0  0  0  0  0  # atno 8010 bound_to 7997
  140.5539  143.2312  151.6859 H   0  0  0  0  0  0  0  0  0  0  0  0  # atno 10167 bound_to 10162
  156.0139  130.5290  150.6696 H   0  0  0  0  0  0  0  0  0  0  0  0  # atno 10718 bound_to 10713
  153.2289  135.6890  153.7912 H   0  0  0  0  0  0  0  0  0  0  0  0  # atno 10763 bound_to 10752
  153.7084  135.3286  155.3241 H   0  0  0  0  0  0  0  0  0  0  0  0  # atno 10764 bound_to 10752
  154.8305  135.4584  154.1167 H   0  0  0  0  0  0  0  0  0  0  0  0  # atno 10765 bound_to 10752
  140.4132  134.1597  155.7668 H   0  0  0  0  0  0  0  0  0  0  0  0  # atno 11005 bound_to 11000
  145.9757  139.2903  143.1072 LP  0  0  0  0  0  0  0  0  0  0  0  0  # atno 17320 bound_to 7965
  145.9066  140.9208  143.0475 LP  0  0  0  0  0  0  0  0  0  0  0  0  # atno 17321 bound_to 7965
  139.5039  144.3773  152.0411 LP  0  0  0  0  0  0  0  0  0  0  0  0  # atno 17342 bound_to 10162
  140.2893  144.3772  150.6094 LP  0  0  0  0  0  0  0  0  0  0  0  0  # atno 17343 bound_to 10162
  157.4421  131.0862  151.0933 LP  0  0  0  0  0  0  0  0  0  0  0  0  # atno 17370 bound_to 10713
  157.1474  130.6169  149.5572 LP  0  0  0  0  0  0  0  0  0  0  0  0  # atno 17371 bound_to 10713
  141.1813  133.8408  157.1247 LP  0  0  0  0  0  0  0  0  0  0  0  0  # atno 17394 bound_to 11000
  140.0253  134.9927  157.0673 LP  0  0  0  0  0  0  0  0  0  0  0  0  # atno 17395 bound_to 11000

$$$$
