AV-unprocessed.smi:1240|AV-procd|sdf|5211|dock5
  -GOLD-   22720 4303D 1   1.00000     0.00000
 Structure written by MMmdl.
 48 50  0  0  0  0  0  0  0  0  4 V2000
  148.9354  134.4995  157.9091 O   0  0  0  0  0  0  0  0  0  0  0  0
  149.0049  135.6915  158.2302 C   0  0  0  0  0  0  0  0  0  0  0  0
  149.5380  136.7147  157.5111 N   0  5  0  0  0  0  0  0  0  0  0  0
  148.8045  137.5041  156.5228 C   0  0  0  0  0  0  0  0  0  0  0  0
  149.1739  137.0620  155.0624 C   0  0  2  0  0  0  0  0  0  0  0  0
  150.5727  137.5549  154.5630 C   0  0  2  0  0  0  0  0  0  0  0  0
  151.7447  136.9204  155.2988 C   0  0  0  0  0  0  0  0  0  0  0  0
  152.9027  137.8451  154.9427 C   0  0  0  0  0  0  0  0  0  0  0  0
  152.3285  139.1374  154.7985 O   0  0  0  0  0  0  0  0  0  0  0  0
  150.9083  139.0395  154.7910 C   0  0  0  0  0  0  0  0  0  0  0  0
  148.1287  137.3969  154.0312 N   0  3  0  0  0  0  0  0  0  0  0  0
  146.7972  136.7635  154.2245 C   0  0  0  0  0  0  0  0  0  0  0  0
  145.9468  136.9326  152.9545 C   0  0  0  0  0  0  0  0  0  0  0  0
  145.8351  138.3133  152.6283 O   0  0  0  0  0  0  0  0  0  0  0  0
  147.1003  138.9057  152.3576 C   0  0  0  0  0  0  0  0  0  0  0  0
  147.9888  138.8196  153.6085 C   0  0  0  0  0  0  0  0  0  0  0  0
  148.4939  136.1095  159.4022 N   0  0  0  0  0  0  0  0  0  0  0  0
  147.8744  135.3468  160.4281 C   0  0  0  0  0  0  0  0  0  0  0  0
  147.7158  135.9535  161.6936 C   0  0  0  0  0  0  0  0  0  0  0  0
  147.1256  135.2231  162.7447 C   0  0  0  0  0  0  0  0  0  0  0  0
  146.7301  133.9484  162.5388 N   0  3  0  0  0  0  0  0  0  0  0  0
  146.8781  133.3204  161.3523 C   0  0  0  0  0  0  0  0  0  0  0  0
  147.4612  134.0005  160.2640 C   0  0  0  0  0  0  0  0  0  0  0  0
  147.7309  137.3833  156.6675 H   0  0  0  0  0  0  0  0  0  0  0  0
  148.9918  138.5737  156.6256 H   0  0  0  0  0  0  0  0  0  0  0  0
  149.2221  135.9715  155.0634 H   0  0  0  0  0  0  0  0  0  0  0  0
  150.6935  137.3433  153.4986 H   0  0  0  0  0  0  0  0  0  0  0  0
  151.5718  136.9389  156.3762 H   0  0  0  0  0  0  0  0  0  0  0  0
  151.9350  135.8883  155.0024 H   0  0  0  0  0  0  0  0  0  0  0  0
  153.6892  137.8391  155.6979 H   0  0  0  0  0  0  0  0  0  0  0  0
  153.3445  137.5525  153.9894 H   0  0  0  0  0  0  0  0  0  0  0  0
  150.4843  139.6895  154.0252 H   0  0  0  0  0  0  0  0  0  0  0  0
  150.5395  139.3755  155.7613 H   0  0  0  0  0  0  0  0  0  0  0  0
  146.9143  135.7020  154.4455 H   0  0  0  0  0  0  0  0  0  0  0  0
  146.2795  137.2137  155.0722 H   0  0  0  0  0  0  0  0  0  0  0  0
  146.3833  136.3845  152.1178 H   0  0  0  0  0  0  0  0  0  0  0  0
  144.9482  136.5256  153.1142 H   0  0  0  0  0  0  0  0  0  0  0  0
  147.5744  138.4107  151.5085 H   0  0  0  0  0  0  0  0  0  0  0  0
  146.9497  139.9477  152.0750 H   0  0  0  0  0  0  0  0  0  0  0  0
  147.5417  139.4156  154.4051 H   0  0  0  0  0  0  0  0  0  0  0  0
  148.9634  139.2544  153.3896 H   0  0  0  0  0  0  0  0  0  0  0  0
  148.4912  137.1096  159.5394 H   0  0  0  0  0  0  0  0  0  0  0  0
  148.0362  136.9724  161.8568 H   0  0  0  0  0  0  0  0  0  0  0  0
  146.9621  135.6167  163.7373 H   0  0  0  0  0  0  0  0  0  0  0  0
  146.5347  132.2971  161.3106 H   0  0  0  0  0  0  0  0  0  0  0  0
  147.5937  133.4785  159.3283 H   0  0  0  0  0  0  0  0  0  0  0  0
  148.4849  136.9357  153.2068 H   0  0  0  0  0  0  0  0  0  0  0  0
  146.3071  133.4365  163.3134 H   0  0  0  0  0  0  0  0  0  0  0  0
  1  2  2  0  0  0  0
  2  3  1  0  0  0  0
  2 17  1  0  0  0  0
  3  4  1  0  0  0  0
  4  5  1  0  0  0  0
  4 24  1  0  0  0  0
  4 25  1  0  0  0  0
  5  6  1  0  0  0  0
  5 11  1  0  0  0  0
  5 26  1  0  0  0  0
  6 10  1  0  0  0  0
  6  7  1  0  0  0  0
  6 27  1  0  0  0  0
  7  8  1  0  0  0  0
  7 28  1  0  0  0  0
  7 29  1  0  0  0  0
  8  9  1  0  0  0  0
  8 30  1  0  0  0  0
  8 31  1  0  0  0  0
  9 10  1  0  0  0  0
 10 32  1  0  0  0  0
 10 33  1  0  0  0  0
 11 16  1  0  0  0  0
 11 12  1  0  0  0  0
 11 47  1  0  0  0  0
 12 13  1  0  0  0  0
 12 34  1  0  0  0  0
 12 35  1  0  0  0  0
 13 14  1  0  0  0  0
 13 36  1  0  0  0  0
 13 37  1  0  0  0  0
 14 15  1  0  0  0  0
 15 16  1  0  0  0  0
 15 38  1  0  0  0  0
 15 39  1  0  0  0  0
 16 40  1  0  0  0  0
 16 41  1  0  0  0  0
 17 18  1  0  0  0  0
 17 42  1  0  0  0  0
 18 23  1  0  0  0  0
 18 19  2  0  0  0  0
 19 20  1  0  0  0  0
 19 43  1  0  0  0  0
 20 21  2  0  0  0  0
 20 44  1  0  0  0  0
 21 22  1  0  0  0  0
 21 48  1  0  0  0  0
 22 23  2  0  0  0  0
 22 45  1  0  0  0  0
 23 46  1  0  0  0  0
M  CHG  1   3  -1
M  CHG  1  11   1
M  CHG  1  21   1
M  END
> <s_m_source_file>
AV-unprocessed.smi

> <i_m_source_file_index>
1240

> <i_lp_mmshare_version>
43012

> <i_f3d_flags>
0

> <s_epik_input>
W2NIXTFbY0hdbltjSF1bY0hdYzFbTkhdQyg9TylbTkhdW0NIMl1bQ0BIXShbQ0BASF0yW0NIMl1bQ0gyXU9bQ0gyXTIpTjNbQ0gyXVtDSDJdT1tDSDJdW0NIMl0z

> <s_epik_cmdline>
J2VwaWtfcHl0aG9uJywgJy1waCcsICc3LjAnLCAnLXRuJywgJzgnLCAnLW1hJywgJzIwMCcsICctbWV0YWxfYmluZGluZycsICctaW1hZScsICc8aW5maWxlLm1hZT4nLCAnLW9tYWUnLCAnPG91dGZpbGUubWFlPic=

> <r_epik_Ionization_Penalty>
8.41087

> <r_epik_Ionization_Penalty_Charging>
8.41087

> <r_epik_Ionization_Penalty_Neutral>
3.12936e-06

> <r_epik_State_Penalty>
8.81894

> <r_epik_Charging_Adjusted_Penalty>
17.2298

> <i_epik_Tot_Q>
1

> <i_epik_Tot_abs_Q>
3

> <r_epik_Metal_State_Penalty>
4.82983

> <b_epik_Metal_Only>
1

> <s_lp_Force_Field>
OPLS_2005

> <r_lp_Energy>
48.2206

> <b_lp_Chiralities_Consistent>
1

> <s_lp_Variant>
AV-unprocessed.smi:1240-17

> <Gold.Version>
5.8.1

> <Gold.Id.Protein>
6NUR|6NUR_protein|mol2

> <Gold.PLP.Fitness>
46.3925

> <Gold.PLP.PLP>
-36.7531

> <Gold.PLP.part.hbond>
-2.8150

> <Gold.PLP.part.metal>
0.0000

> <Gold.PLP.part.buried>
-6.6361

> <Gold.PLP.part.nonpolar>
-29.8916

> <Gold.PLP.part.repulsive>
0.6481

> <Gold.PLP.ligand.clash>
0.0000

> <Gold.PLP.ligand.torsion>
1.4120

> <Gold.PLP.Chemscore.Hbond>
3.9913

> <Gold.PLP.Chemscore.CHOScore>
0.0000

> <Gold.PLP.Chemscore.Metal>
0.0000

> <Gold.Chemscore.Hbonds>
donor molecule, donor type, donor heavy atom, donor atom, acceptor molecule, acceptor atom, score
      L1  H    11    47       P1  7948  2.00
      P1  H  6896  6909       L1     1  0.14

> <Gold.PLP.Chemscore.Internal.Correction>
0.4896

> <Gold.Rescore>
     Score         DG    S(hbond)    S(metal)    S(lipo)     H(rot)  DE(clash)    DE(int)     intcor
     17.57     -20.41       2.83        0.00      84.04       1.70       0.02       2.82       ----

> <Gold.Chemscore.Fitness>
17.5695

> <Gold.Chemscore.DG>
-20.4073

> <Gold.Chemscore.ZeroCoef>
-5.4800

> <Gold.Chemscore.Hbond>
2.8299

> <Gold.Chemscore.Metal>
0.0000

> <Gold.Chemscore.Lipo>
84.0406

> <Gold.Chemscore.Internal_Hbond>
0.0000

> <Gold.Chemscore.DEClash>
0.0202

> <Gold.Chemscore.DEInternal>
2.8176

> <Gold.Chemscore.Rot>
1.7021

> <Gold.Chemscore.Internal.Correction>
   9.000000E+99

> <Gold.Chemscore.Hbonds>
donor molecule, donor type, donor heavy atom, donor atom, acceptor molecule, acceptor atom, score
      L1  H    11    47       P1  7948  0.98

> <Gold.Chemscore.Hbond.Weighted>
-9.4520

> <Gold.Chemscore.Metal.Weighted>
-0.0000

> <Gold.Chemscore.Lipo.Weighted>
-9.8328

> <Gold.Chemscore.Internal_Hbond.Weighted>
0.0000

> <Gold.Chemscore.DEClash.Weighted>
0.0202

> <Gold.Chemscore.DEInternal.Weighted>
2.8176

> <Gold.Chemscore.Rot.Weighted>
4.3575

> <Gold.Chemscore.Internal.Correction.Weighted>
   9.000000E+99

> <Gold.Protein.RotatedTorsions>
[ 6907 6896 6895 6894 ] final   21.71 input  -60.11 | X-H torsion
[ 7974 7965 7964 7962 ] final   51.33 input  175.53 | X-H torsion
[ 8008 7997 7996 7995 ] final -149.07 input   59.86 | X-H torsion
[ 10167 10162 10161 10158 ] final  -91.69 input  -65.29 | X-H torsion
[ 10718 10713 10712 10709 ] final  125.98 input   66.30 | X-H torsion
[ 10763 10752 10751 10750 ] final  103.37 input  -60.55 | X-H torsion
[ 11005 11000 10999 10996 ] final    6.68 input  -57.11 | X-H torsion

> <Gold.Protein.ActiveResidues>
 VAL166  LYS551  ARG553  GLY616  TRP617  ASP618  TYR619  PRO620  LYS621  CYS622 
 ASP623  PHE694  ASN695  SER759  ASP760  ASP761  ALA762  ILE779  LEU786  VAL792 
 PHE793  MET794  SER795  GLU796  ALA797  LYS798  CYS799  TRP800  GLU811  SER814 

> <Gold.Protein.RotatedAtoms>
  151.9160  135.0319  160.0517 H   0  0  0  0  0  0  0  0  0  0  0  0  # atno 6907 bound_to 6896
  152.2240  133.5001  159.5186 H   0  0  0  0  0  0  0  0  0  0  0  0  # atno 6908 bound_to 6896
  150.7007  134.1222  159.4081 H   0  0  0  0  0  0  0  0  0  0  0  0  # atno 6909 bound_to 6896
  145.9924  139.4352  143.0065 H   0  0  0  0  0  0  0  0  0  0  0  0  # atno 7974 bound_to 7965
  155.6018  140.0663  157.2731 H   0  0  0  0  0  0  0  0  0  0  0  0  # atno 8008 bound_to 7997
  154.4277  140.1817  156.1228 H   0  0  0  0  0  0  0  0  0  0  0  0  # atno 8009 bound_to 7997
  156.0153  140.3322  155.6986 H   0  0  0  0  0  0  0  0  0  0  0  0  # atno 8010 bound_to 7997
  140.3424  143.2935  151.9820 H   0  0  0  0  0  0  0  0  0  0  0  0  # atno 10167 bound_to 10162
  157.5458  131.1095  150.8784 H   0  0  0  0  0  0  0  0  0  0  0  0  # atno 10718 bound_to 10713
  153.3518  135.3979  155.1652 H   0  0  0  0  0  0  0  0  0  0  0  0  # atno 10763 bound_to 10752
  154.8663  135.3658  154.5212 H   0  0  0  0  0  0  0  0  0  0  0  0  # atno 10764 bound_to 10752
  153.5664  135.7080  153.5584 H   0  0  0  0  0  0  0  0  0  0  0  0  # atno 10765 bound_to 10752
  140.5567  134.0231  155.7956 H   0  0  0  0  0  0  0  0  0  0  0  0  # atno 11005 bound_to 11000
  145.7611  140.9935  143.1199 LP  0  0  0  0  0  0  0  0  0  0  0  0  # atno 17320 bound_to 7965
  144.6893  139.9331  143.7472 LP  0  0  0  0  0  0  0  0  0  0  0  0  # atno 17321 bound_to 7965
  139.4838  144.6145  151.7371 LP  0  0  0  0  0  0  0  0  0  0  0  0  # atno 17342 bound_to 10162
  140.5296  144.0751  150.6049 LP  0  0  0  0  0  0  0  0  0  0  0  0  # atno 17343 bound_to 10162
  156.9324  130.5354  149.5279 LP  0  0  0  0  0  0  0  0  0  0  0  0  # atno 17370 bound_to 10713
  156.0534  130.5600  150.9039 LP  0  0  0  0  0  0  0  0  0  0  0  0  # atno 17371 bound_to 10713
  141.1139  133.9572  157.2859 LP  0  0  0  0  0  0  0  0  0  0  0  0  # atno 17394 bound_to 11000
  139.9428  135.0188  156.8761 LP  0  0  0  0  0  0  0  0  0  0  0  0  # atno 17395 bound_to 11000

$$$$
