AV-unprocessed.smi:1236|AV-procd|sdf|5181|dock2
  -GOLD-   22720 4263D 1   1.00000     0.00000
 Structure written by MMmdl.
 40 41  0  0  0  0  0  0  0  0  2 V2000
  146.7426  139.6699  152.2873 C   0  0  0  0  0  0  0  0  0  0  0  0
  146.6433  138.5582  153.3406 C   0  0  2  0  0  0  0  0  0  0  0  0
  147.6721  138.7696  154.4763 C   0  0  0  0  0  0  0  0  0  0  0  0
  148.9244  137.9961  154.2803 N   0  3  0  0  0  0  0  0  0  0  0  0
  150.1424  138.8382  154.3150 C   0  0  0  0  0  0  0  0  0  0  0  0
  151.3867  137.9833  154.0186 C   0  0  0  0  0  0  0  0  0  0  0  0
  151.4666  136.9121  154.9512 O   0  0  0  0  0  0  0  0  0  0  0  0
  150.3362  136.0517  154.8740 C   0  0  0  0  0  0  0  0  0  0  0  0
  149.0635  136.8470  155.2072 C   0  0  0  0  0  0  0  0  0  0  0  0
  146.8276  137.2626  152.6838 N   0  0  0  0  0  0  0  0  0  0  0  0
  145.8559  136.3896  152.3764 C   0  0  0  0  0  0  0  0  0  0  0  0
  144.6684  136.5777  152.6418 O   0  0  0  0  0  0  0  0  0  0  0  0
  146.3525  135.3005  151.7643 N   0  0  0  0  0  0  0  0  0  0  0  0
  145.6536  134.1370  151.3450 C   0  0  0  0  0  0  0  0  0  0  0  0
  146.4516  133.1500  150.7238 C   0  0  0  0  0  0  0  0  0  0  0  0
  145.8536  131.9558  150.2767 C   0  0  0  0  0  0  0  0  0  0  0  0
  144.4711  131.7794  150.4631 C   0  0  0  0  0  0  0  0  0  0  0  0
  143.7495  132.8109  151.0914 C   0  0  0  0  0  0  0  0  0  0  0  0
  144.3210  133.9554  151.5224 N   0  0  0  0  0  0  0  0  0  0  0  0
  146.5649  140.6489  152.7335 H   0  0  0  0  0  0  0  0  0  0  0  0
  146.0032  139.5311  151.4977 H   0  0  0  0  0  0  0  0  0  0  0  0
  147.7282  139.6911  151.8208 H   0  0  0  0  0  0  0  0  0  0  0  0
  145.6351  138.6071  153.7542 H   0  0  0  0  0  0  0  0  0  0  0  0
  147.9127  139.8331  154.5203 H   0  0  0  0  0  0  0  0  0  0  0  0
  147.2363  138.5186  155.4446 H   0  0  0  0  0  0  0  0  0  0  0  0
  150.0642  139.6368  153.5763 H   0  0  0  0  0  0  0  0  0  0  0  0
  150.2338  139.3116  155.2939 H   0  0  0  0  0  0  0  0  0  0  0  0
  151.3562  137.5925  153.0002 H   0  0  0  0  0  0  0  0  0  0  0  0
  152.2881  138.5907  154.1002 H   0  0  0  0  0  0  0  0  0  0  0  0
  150.2682  135.6058  153.8802 H   0  0  0  0  0  0  0  0  0  0  0  0
  150.4648  135.2336  155.5826 H   0  0  0  0  0  0  0  0  0  0  0  0
  149.1054  137.2059  156.2367 H   0  0  0  0  0  0  0  0  0  0  0  0
  148.1968  136.1906  155.1333 H   0  0  0  0  0  0  0  0  0  0  0  0
  147.7737  137.0221  152.4252 H   0  0  0  0  0  0  0  0  0  0  0  0
  147.3471  135.2939  151.5922 H   0  0  0  0  0  0  0  0  0  0  0  0
  147.5127  133.3014  150.5879 H   0  0  0  0  0  0  0  0  0  0  0  0
  146.4463  131.1892  149.7996 H   0  0  0  0  0  0  0  0  0  0  0  0
  143.9769  130.8775  150.1332 H   0  0  0  0  0  0  0  0  0  0  0  0
  142.6863  132.7151  151.2537 H   0  0  0  0  0  0  0  0  0  0  0  0
  148.8753  137.6117  153.3473 H   0  0  0  0  0  0  0  0  0  0  0  0
  1  2  1  0  0  0  0
  1 20  1  0  0  0  0
  1 21  1  0  0  0  0
  1 22  1  0  0  0  0
  2  3  1  0  0  0  0
  2 10  1  0  0  0  0
  2 23  1  0  0  0  0
  3  4  1  0  0  0  0
  3 24  1  0  0  0  0
  3 25  1  0  0  0  0
  4  9  1  0  0  0  0
  4  5  1  0  0  0  0
  4 40  1  0  0  0  0
  5  6  1  0  0  0  0
  5 26  1  0  0  0  0
  5 27  1  0  0  0  0
  6  7  1  0  0  0  0
  6 28  1  0  0  0  0
  6 29  1  0  0  0  0
  7  8  1  0  0  0  0
  8  9  1  0  0  0  0
  8 30  1  0  0  0  0
  8 31  1  0  0  0  0
  9 32  1  0  0  0  0
  9 33  1  0  0  0  0
 10 11  1  0  0  0  0
 10 34  1  0  0  0  0
 11 12  2  0  0  0  0
 11 13  1  0  0  0  0
 13 14  1  0  0  0  0
 13 35  1  0  0  0  0
 14 19  1  0  0  0  0
 14 15  2  0  0  0  0
 15 16  1  0  0  0  0
 15 36  1  0  0  0  0
 16 17  2  0  0  0  0
 16 37  1  0  0  0  0
 17 18  1  0  0  0  0
 17 38  1  0  0  0  0
 18 19  2  0  0  0  0
 18 39  1  0  0  0  0
M  CHG  1   4   1
M  END
> <s_m_source_file>
AV-unprocessed.smi

> <i_m_source_file_index>
1236

> <i_lp_mmshare_version>
43012

> <i_f3d_flags>
0

> <s_epik_input>
W0NIMl0xW0NIMl1PW0NIMl1bQ0gyXU4xW0NIMl1bQ0BASF0oW0NIM10pW05IXUMoPU8pW05IXWMyW2NIXVtjSF1bY0hdW2NIXW4y

> <s_epik_cmdline>
J2VwaWtfcHl0aG9uJywgJy1waCcsICc3LjAnLCAnLXRuJywgJzgnLCAnLW1hJywgJzIwMCcsICctbWV0YWxfYmluZGluZycsICctaW1hZScsICc8aW5maWxlLm1hZT4nLCAnLW9tYWUnLCAnPG91dGZpbGUubWFlPic=

> <r_epik_Ionization_Penalty>
0.602564

> <r_epik_Ionization_Penalty_Charging>
0.602531

> <r_epik_Ionization_Penalty_Neutral>
3.36306e-05

> <r_epik_State_Penalty>
0.617039

> <r_epik_Charging_Adjusted_Penalty>
1.21957

> <i_epik_Tot_Q>
1

> <i_epik_Tot_abs_Q>
1

> <r_epik_Metal_State_Penalty>
0.617041

> <b_epik_Metal_Only>
0

> <s_lp_Force_Field>
OPLS_2005

> <r_lp_Energy>
24.2739

> <b_lp_Chiralities_Consistent>
1

> <s_lp_Variant>
AV-unprocessed.smi:1236-3

> <Gold.Version>
5.8.1

> <Gold.Id.Protein>
6NUR|6NUR_protein|mol2

> <Gold.PLP.Fitness>
46.5918

> <Gold.PLP.PLP>
-31.9869

> <Gold.PLP.part.hbond>
-3.8913

> <Gold.PLP.part.metal>
0.0000

> <Gold.PLP.part.buried>
-2.8395

> <Gold.PLP.part.nonpolar>
-27.0300

> <Gold.PLP.part.repulsive>
0.5517

> <Gold.PLP.ligand.clash>
0.0000

> <Gold.PLP.ligand.torsion>
1.3795

> <Gold.PLP.Chemscore.Hbond>
4.9030

> <Gold.PLP.Chemscore.CHOScore>
0.8786

> <Gold.PLP.Chemscore.Metal>
0.0000

> <Gold.Chemscore.Hbonds>
donor molecule, donor type, donor heavy atom, donor atom, acceptor molecule, acceptor atom, score
      L1  H     4    40       P1  7948  2.00
      L1  H    10    34       P1  7948  0.98
      L1  H    13    35       P1  7948  0.93
      P1  H 10752 10764       L1     7  1.00

> <Gold.PLP.Chemscore.Internal.Correction>
0.0191

> <Gold.Rescore>
     Score         DG    S(hbond)    S(metal)    S(lipo)     H(rot)  DE(clash)    DE(int)     intcor
     18.35     -21.82       3.50        0.00      73.86       1.56       1.02       2.46       ----

> <Gold.Chemscore.Fitness>
18.3475

> <Gold.Chemscore.DG>
-21.8194

> <Gold.Chemscore.ZeroCoef>
-5.4800

> <Gold.Chemscore.Hbond>
3.4991

> <Gold.Chemscore.Metal>
0.0000

> <Gold.Chemscore.Lipo>
73.8625

> <Gold.Chemscore.Internal_Hbond>
0.0000

> <Gold.Chemscore.DEClash>
1.0158

> <Gold.Chemscore.DEInternal>
2.4562

> <Gold.Chemscore.Rot>
1.5584

> <Gold.Chemscore.Internal.Correction>
   9.000000E+99

> <Gold.Chemscore.Hbonds>
donor molecule, donor type, donor heavy atom, donor atom, acceptor molecule, acceptor atom, score
      L1  H     4    40       P1  7948  0.95
      L1  H    10    34       P1  7948  0.91
      L1  H    13    35       P1  7948  0.83
      P1  H 10752 10764       L1     7  0.22

> <Gold.Chemscore.Hbond.Weighted>
-11.6871

> <Gold.Chemscore.Metal.Weighted>
-0.0000

> <Gold.Chemscore.Lipo.Weighted>
-8.6419

> <Gold.Chemscore.Internal_Hbond.Weighted>
0.0000

> <Gold.Chemscore.DEClash.Weighted>
1.0158

> <Gold.Chemscore.DEInternal.Weighted>
2.4562

> <Gold.Chemscore.Rot.Weighted>
3.9896

> <Gold.Chemscore.Internal.Correction.Weighted>
   9.000000E+99

> <Gold.Protein.RotatedTorsions>
[ 6907 6896 6895 6894 ] final  -58.72 input  -60.11 | X-H torsion
[ 7974 7965 7964 7962 ] final  132.99 input  175.53 | X-H torsion
[ 8008 7997 7996 7995 ] final  -89.48 input   59.86 | X-H torsion
[ 10167 10162 10161 10158 ] final   55.51 input  -65.29 | X-H torsion
[ 10718 10713 10712 10709 ] final  102.73 input   66.30 | X-H torsion
[ 10763 10752 10751 10750 ] final  -54.65 input  -60.55 | X-H torsion
[ 11005 11000 10999 10996 ] final   77.44 input  -57.11 | X-H torsion

> <Gold.Protein.ActiveResidues>
 VAL166  LYS551  ARG553  GLY616  TRP617  ASP618  TYR619  PRO620  LYS621  CYS622 
 ASP623  PHE694  ASN695  SER759  ASP760  ASP761  ALA762  ILE779  LEU786  VAL792 
 PHE793  MET794  SER795  GLU796  ALA797  LYS798  CYS799  TRP800  GLU811  SER814 

> <Gold.Protein.RotatedAtoms>
  150.7985  134.7062  159.6577 H   0  0  0  0  0  0  0  0  0  0  0  0  # atno 6907 bound_to 6896
  152.4100  134.6138  160.0042 H   0  0  0  0  0  0  0  0  0  0  0  0  # atno 6908 bound_to 6896
  151.6384  133.3290  159.3161 H   0  0  0  0  0  0  0  0  0  0  0  0  # atno 6909 bound_to 6896
  144.9911  139.4406  143.5339 H   0  0  0  0  0  0  0  0  0  0  0  0  # atno 7974 bound_to 7965
  154.6871  140.0541  157.0326 H   0  0  0  0  0  0  0  0  0  0  0  0  # atno 8008 bound_to 7997
  155.0868  140.3215  155.4566 H   0  0  0  0  0  0  0  0  0  0  0  0  # atno 8009 bound_to 7997
  156.2715  140.2055  156.5996 H   0  0  0  0  0  0  0  0  0  0  0  0  # atno 8010 bound_to 7997
  140.2187  144.3812  150.6459 H   0  0  0  0  0  0  0  0  0  0  0  0  # atno 10167 bound_to 10162
  157.6793  131.0761  150.5449 H   0  0  0  0  0  0  0  0  0  0  0  0  # atno 10718 bound_to 10713
  154.1783  135.6447  153.5027 H   0  0  0  0  0  0  0  0  0  0  0  0  # atno 10763 bound_to 10752
  153.0066  135.5400  154.6541 H   0  0  0  0  0  0  0  0  0  0  0  0  # atno 10764 bound_to 10752
  154.5898  135.2933  155.0619 H   0  0  0  0  0  0  0  0  0  0  0  0  # atno 10765 bound_to 10752
  139.9254  134.7683  156.1523 H   0  0  0  0  0  0  0  0  0  0  0  0  # atno 11005 bound_to 11000
  146.3431  139.9243  142.8762 LP  0  0  0  0  0  0  0  0  0  0  0  0  # atno 17320 bound_to 7965
  145.2284  140.9963  143.4004 LP  0  0  0  0  0  0  0  0  0  0  0  0  # atno 17321 bound_to 7965
  140.6271  143.2182  151.6573 LP  0  0  0  0  0  0  0  0  0  0  0  0  # atno 17342 bound_to 10162
  139.5152  144.3385  152.0762 LP  0  0  0  0  0  0  0  0  0  0  0  0  # atno 17343 bound_to 10162
  156.5755  130.4291  149.6000 LP  0  0  0  0  0  0  0  0  0  0  0  0  # atno 17370 bound_to 10713
  156.2705  130.7014  151.1810 LP  0  0  0  0  0  0  0  0  0  0  0  0  # atno 17371 bound_to 10713
  141.0808  133.6755  156.2332 LP  0  0  0  0  0  0  0  0  0  0  0  0  # atno 17394 bound_to 11000
  140.6351  134.5224  157.5564 LP  0  0  0  0  0  0  0  0  0  0  0  0  # atno 17395 bound_to 11000

$$$$
