AV-unprocessed.smi:2913|AV-procd|sdf|11182|dock5
  -GOLD-   2272016 73D 1   1.00000     0.00000
 Structure written by MMmdl.
 41 42  0  0  0  0  0  0  0  0  1 V2000
  146.2217  142.1001  153.9801 C   0  0  0  0  0  0  0  0  0  0  0  0
  147.2128  140.9698  154.2037 C   0  0  0  0  0  0  0  0  0  0  0  0
  148.5159  141.2523  154.4259 C   0  0  0  0  0  0  0  0  0  0  0  0
  149.5247  140.2153  154.6482 C   0  0  0  0  0  0  0  0  0  0  0  0
  150.7088  140.4830  154.8536 O   0  0  0  0  0  0  0  0  0  0  0  0
  149.0670  138.9338  154.6106 N   0  0  0  0  0  0  0  0  0  0  0  0
  149.9994  137.8214  154.8120 C   0  0  0  0  0  0  0  0  0  0  0  0
  147.7157  138.6259  154.3793 C   0  0  0  0  0  0  0  0  0  0  0  0
  146.7774  139.5789  154.1842 C   0  0  0  0  0  0  0  0  0  0  0  0
  145.4190  139.3161  153.9386 N   0  0  0  0  0  0  0  0  0  0  0  0
  144.6891  138.2249  154.2363 C   0  0  0  0  0  0  0  0  0  0  0  0
  145.0909  137.2317  154.8418 O   0  0  0  0  0  0  0  0  0  0  0  0
  143.4286  138.3658  153.8009 N   0  0  0  0  0  0  0  0  0  0  0  0
  142.3433  137.4026  153.9807 C   0  0  2  0  0  0  0  0  0  0  0  0
  142.8190  136.0190  153.5144 C   0  0  0  0  0  0  0  0  0  0  0  0
  141.0902  137.8721  153.2156 C   0  0  2  0  0  0  0  0  0  0  0  0
  140.4503  139.1524  153.7597 C   0  0  0  0  0  0  0  0  0  0  0  0
  139.0217  139.0049  153.2915 C   0  0  0  0  0  0  0  0  0  0  0  0
  138.7904  137.5105  153.4881 C   0  0  0  0  0  0  0  0  0  0  0  0
  140.0581  136.8899  153.2901 O   0  0  0  0  0  0  0  0  0  0  0  0
  146.7014  143.0775  154.0428 H   0  0  0  0  0  0  0  0  0  0  0  0
  145.4317  142.0659  154.7310 H   0  0  0  0  0  0  0  0  0  0  0  0
  145.7642  142.0135  152.9942 H   0  0  0  0  0  0  0  0  0  0  0  0
  148.8387  142.2831  154.4420 H   0  0  0  0  0  0  0  0  0  0  0  0
  149.5137  136.8461  154.7673 H   0  0  0  0  0  0  0  0  0  0  0  0
  150.4818  137.8976  155.7874 H   0  0  0  0  0  0  0  0  0  0  0  0
  150.7770  137.8317  154.0470 H   0  0  0  0  0  0  0  0  0  0  0  0
  147.5161  137.5667  154.3620 H   0  0  0  0  0  0  0  0  0  0  0  0
  144.9232  140.0695  153.4853 H   0  0  0  0  0  0  0  0  0  0  0  0
  143.1920  139.2194  153.3167 H   0  0  0  0  0  0  0  0  0  0  0  0
  142.0814  137.3236  155.0372 H   0  0  0  0  0  0  0  0  0  0  0  0
  142.0458  135.2653  153.6647 H   0  0  0  0  0  0  0  0  0  0  0  0
  143.6999  135.6988  154.0720 H   0  0  0  0  0  0  0  0  0  0  0  0
  143.0778  136.0227  152.4551 H   0  0  0  0  0  0  0  0  0  0  0  0
  141.3279  138.0195  152.1607 H   0  0  0  0  0  0  0  0  0  0  0  0
  140.4848  139.1671  154.8502 H   0  0  0  0  0  0  0  0  0  0  0  0
  140.9293  140.0596  153.3906 H   0  0  0  0  0  0  0  0  0  0  0  0
  138.3187  139.6238  153.8498 H   0  0  0  0  0  0  0  0  0  0  0  0
  138.9444  139.2631  152.2344 H   0  0  0  0  0  0  0  0  0  0  0  0
  138.4627  137.3080  154.5084 H   0  0  0  0  0  0  0  0  0  0  0  0
  138.0393  137.1118  152.8061 H   0  0  0  0  0  0  0  0  0  0  0  0
  1  2  1  0  0  0  0
  1 21  1  0  0  0  0
  1 22  1  0  0  0  0
  1 23  1  0  0  0  0
  2  9  1  0  0  0  0
  2  3  2  0  0  0  0
  3  4  1  0  0  0  0
  3 24  1  0  0  0  0
  4  5  2  0  0  0  0
  4  6  1  0  0  0  0
  6  7  1  0  0  0  0
  6  8  1  0  0  0  0
  7 25  1  0  0  0  0
  7 26  1  0  0  0  0
  7 27  1  0  0  0  0
  8  9  2  0  0  0  0
  8 28  1  0  0  0  0
  9 10  1  0  0  0  0
 10 11  1  0  0  0  0
 10 29  1  0  0  0  0
 11 12  2  0  0  0  0
 11 13  1  0  0  0  0
 13 14  1  0  0  0  0
 13 30  1  0  0  0  0
 14 15  1  0  0  0  0
 14 16  1  0  0  0  0
 14 31  1  0  0  0  0
 15 32  1  0  0  0  0
 15 33  1  0  0  0  0
 15 34  1  0  0  0  0
 16 20  1  0  0  0  0
 16 17  1  0  0  0  0
 16 35  1  0  0  0  0
 17 18  1  0  0  0  0
 17 36  1  0  0  0  0
 17 37  1  0  0  0  0
 18 19  1  0  0  0  0
 18 38  1  0  0  0  0
 18 39  1  0  0  0  0
 19 20  1  0  0  0  0
 19 40  1  0  0  0  0
 19 41  1  0  0  0  0
M  END
> <s_m_source_file>
AV-unprocessed.smi

> <i_m_source_file_index>
2913

> <i_lp_mmshare_version>
43012

> <i_f3d_flags>
0

> <s_epik_input>
W0NIM11jMVtjSF1jKD1PKW4oW0NIM10pW2NIXWMxW05IXUMoPU8pW05IXVtDQEhdKFtDSDNdKVtDQEBIXTJbQ0gyXVtDSDJdW0NIMl1PMg==

> <s_epik_cmdline>
J2VwaWtfcHl0aG9uJywgJy1waCcsICc3LjAnLCAnLXRuJywgJzgnLCAnLW1hJywgJzIwMCcsICctbWV0YWxfYmluZGluZycsICctaW1hZScsICc8aW5maWxlLm1hZT4nLCAnLW9tYWUnLCAnPG91dGZpbGUubWFlPic=

> <r_lp_tautomer_probability>
1

> <r_epik_Ionization_Penalty>
2.72039e-05

> <r_epik_Ionization_Penalty_Charging>
8.03976e-06

> <r_epik_Ionization_Penalty_Neutral>
1.91642e-05

> <r_epik_State_Penalty>
-0

> <r_epik_Charging_Adjusted_Penalty>
8.03976e-06

> <i_epik_Tot_Q>
0

> <i_epik_Tot_abs_Q>
0

> <r_epik_Metal_State_Penalty>
-0

> <b_epik_Metal_Only>
0

> <s_lp_Force_Field>
OPLS_2005

> <r_lp_Energy>
32.2239

> <b_lp_Chiralities_Consistent>
1

> <s_lp_Variant>
AV-unprocessed.smi:2913-1

> <Gold.Version>
5.8.1

> <Gold.Id.Protein>
6NUR|6NUR_protein|mol2

> <Gold.PLP.Fitness>
39.6235

> <Gold.PLP.PLP>
-31.2337

> <Gold.PLP.part.hbond>
-2.7760

> <Gold.PLP.part.metal>
0.0000

> <Gold.PLP.part.buried>
-3.5167

> <Gold.PLP.part.nonpolar>
-26.6066

> <Gold.PLP.part.repulsive>
0.2777

> <Gold.PLP.ligand.clash>
0.0000

> <Gold.PLP.ligand.torsion>
0.2019

> <Gold.PLP.Chemscore.Hbond>
2.9280

> <Gold.PLP.Chemscore.CHOScore>
0.0000

> <Gold.PLP.Chemscore.Metal>
0.0000

> <Gold.Chemscore.Hbonds>
donor molecule, donor type, donor heavy atom, donor atom, acceptor molecule, acceptor atom, score
      L1  H    10    29       P1 10175  0.93
      L1  H    13    30       P1 10175  1.00
      P1  H  7989  7998       L1     5  1.00

> <Gold.PLP.Chemscore.Internal.Correction>
0.0095

> <Gold.Rescore>
     Score         DG    S(hbond)    S(metal)    S(lipo)     H(rot)  DE(clash)    DE(int)     intcor
     17.35     -19.86       2.88        0.00      67.04       1.21       0.14       2.37       ----

> <Gold.Chemscore.Fitness>
17.3477

> <Gold.Chemscore.DG>
-19.8611

> <Gold.Chemscore.ZeroCoef>
-5.4800

> <Gold.Chemscore.Hbond>
2.8848

> <Gold.Chemscore.Metal>
0.0000

> <Gold.Chemscore.Lipo>
67.0420

> <Gold.Chemscore.Internal_Hbond>
0.0000

> <Gold.Chemscore.DEClash>
0.1393

> <Gold.Chemscore.DEInternal>
2.3741

> <Gold.Chemscore.Rot>
1.2101

> <Gold.Chemscore.Internal.Correction>
   9.000000E+99

> <Gold.Chemscore.Hbonds>
donor molecule, donor type, donor heavy atom, donor atom, acceptor molecule, acceptor atom, score
      L1  H    10    29       P1 10175  0.89
      L1  H    13    30       P1 10175  0.89
      P1  H  7989  7998       L1     5  0.90

> <Gold.Chemscore.Hbond.Weighted>
-9.6351

> <Gold.Chemscore.Metal.Weighted>
-0.0000

> <Gold.Chemscore.Lipo.Weighted>
-7.8439

> <Gold.Chemscore.Internal_Hbond.Weighted>
0.0000

> <Gold.Chemscore.DEClash.Weighted>
0.1393

> <Gold.Chemscore.DEInternal.Weighted>
2.3741

> <Gold.Chemscore.Rot.Weighted>
3.0979

> <Gold.Chemscore.Internal.Correction.Weighted>
   9.000000E+99

> <Gold.Protein.RotatedTorsions>
[ 6907 6896 6895 6894 ] final -145.57 input  -60.11 | X-H torsion
[ 7974 7965 7964 7962 ] final  -47.23 input  175.53 | X-H torsion
[ 8008 7997 7996 7995 ] final  -18.91 input   59.86 | X-H torsion
[ 10167 10162 10161 10158 ] final   54.84 input  -65.29 | X-H torsion
[ 10718 10713 10712 10709 ] final -106.62 input   66.30 | X-H torsion
[ 10763 10752 10751 10750 ] final  172.11 input  -60.55 | X-H torsion
[ 11005 11000 10999 10996 ] final   29.52 input  -57.11 | X-H torsion

> <Gold.Protein.ActiveResidues>
 VAL166  LYS551  ARG553  GLY616  TRP617  ASP618  TYR619  PRO620  LYS621  CYS622 
 ASP623  PHE694  ASN695  SER759  ASP760  ASP761  ALA762  ILE779  LEU786  VAL792 
 PHE793  MET794  SER795  GLU796  ALA797  LYS798  CYS799  TRP800  GLU811  SER814 

> <Gold.Protein.RotatedAtoms>
  151.1296  133.5046  159.2599 H   0  0  0  0  0  0  0  0  0  0  0  0  # atno 6907 bound_to 6896
  151.1772  135.0344  159.8787 H   0  0  0  0  0  0  0  0  0  0  0  0  # atno 6908 bound_to 6896
  152.5459  134.1152  159.8429 H   0  0  0  0  0  0  0  0  0  0  0  0  # atno 6909 bound_to 6896
  145.9637  140.7453  142.9445 H   0  0  0  0  0  0  0  0  0  0  0  0  # atno 7974 bound_to 7965
  154.4873  140.2103  155.9627 H   0  0  0  0  0  0  0  0  0  0  0  0  # atno 8008 bound_to 7997
  156.1254  140.3206  155.8238 H   0  0  0  0  0  0  0  0  0  0  0  0  # atno 8009 bound_to 7997
  155.4393  140.0509  157.3002 H   0  0  0  0  0  0  0  0  0  0  0  0  # atno 8010 bound_to 7997
  140.2258  144.3739  150.6433 H   0  0  0  0  0  0  0  0  0  0  0  0  # atno 10167 bound_to 10162
  156.0398  130.5622  150.7706 H   0  0  0  0  0  0  0  0  0  0  0  0  # atno 10718 bound_to 10713
  154.4214  135.2758  155.1973 H   0  0  0  0  0  0  0  0  0  0  0  0  # atno 10763 bound_to 10752
  154.3917  135.6064  153.5850 H   0  0  0  0  0  0  0  0  0  0  0  0  # atno 10764 bound_to 10752
  152.9833  135.5905  154.4511 H   0  0  0  0  0  0  0  0  0  0  0  0  # atno 10765 bound_to 10752
  140.3040  134.2724  155.7748 H   0  0  0  0  0  0  0  0  0  0  0  0  # atno 11005 bound_to 11000
  144.6821  140.2633  143.7316 LP  0  0  0  0  0  0  0  0  0  0  0  0  # atno 17320 bound_to 7965
  145.8004  139.1962  143.2051 LP  0  0  0  0  0  0  0  0  0  0  0  0  # atno 17321 bound_to 7965
  140.6221  143.2177  151.6672 LP  0  0  0  0  0  0  0  0  0  0  0  0  # atno 17342 bound_to 10162
  139.5127  144.3466  152.0691 LP  0  0  0  0  0  0  0  0  0  0  0  0  # atno 17343 bound_to 10162
  157.5201  131.0931  151.0090 LP  0  0  0  0  0  0  0  0  0  0  0  0  # atno 17370 bound_to 10713
  157.0422  130.5754  149.5358 LP  0  0  0  0  0  0  0  0  0  0  0  0  # atno 17371 bound_to 10713
  141.2122  133.7665  156.9810 LP  0  0  0  0  0  0  0  0  0  0  0  0  # atno 17394 bound_to 11000
  140.1083  134.9492  157.2028 LP  0  0  0  0  0  0  0  0  0  0  0  0  # atno 17395 bound_to 11000

$$$$
