AV-unprocessed.smi:1066|AV-procd|sdf|4671|dock2
  -GOLD-   22720 3183D 1   1.00000     0.00000
 Structure written by MMmdl.
 38 40  0  0  0  0  0  0  0  0  2 V2000
  150.1338  130.7684  154.5720 C   0  0  0  0  0  0  0  0  0  0  0  0
  150.0298  131.7979  155.6602 C   0  0  0  0  0  0  0  0  0  0  0  0
  150.2400  131.4391  156.9202 N   0  0  0  0  0  0  0  0  0  0  0  0
  150.0739  132.5945  157.6926 O   0  0  0  0  0  0  0  0  0  0  0  0
  149.7712  133.6000  156.8404 C   0  0  0  0  0  0  0  0  0  0  0  0
  149.4718  135.2046  157.3809 Cl  0  0  0  0  0  0  0  0  0  0  0  0
  149.7222  133.1849  155.5405 C   0  0  0  0  0  0  0  0  0  0  0  0
  149.4188  133.9714  154.2907 C   0  0  0  0  0  0  0  0  0  0  0  0
  148.0497  133.5619  153.7491 C   0  0  0  0  0  0  0  0  0  0  0  0
  147.3819  132.7120  154.3371 O   0  0  0  0  0  0  0  0  0  0  0  0
  147.6390  134.1820  152.6328 N   0  0  0  0  0  0  0  0  0  0  0  0
  146.3521  133.9652  151.9834 C   0  0  1  0  0  0  0  0  0  0  0  0
  145.5955  135.2425  151.6308 C   0  0  0  0  0  0  0  0  0  0  0  0
  144.6254  134.7658  150.5444 C   0  0  0  0  0  0  0  0  0  0  0  0
  145.2693  133.6080  149.8747 N   0  3  2  0  0  0  0  0  0  0  0  0
  144.3720  132.4428  149.7147 C   0  0  0  0  0  0  0  0  0  0  0  0
  143.2849  132.3703  150.7604 C   0  0  0  0  0  0  0  0  0  0  0  0
  144.4765  131.4407  150.8395 C   0  0  0  0  0  0  0  0  0  0  0  0
  146.5118  133.3004  150.6169 C   0  0  0  0  0  0  0  0  0  0  0  0
  149.4127  130.9617  153.7773 H   0  0  0  0  0  0  0  0  0  0  0  0
  149.9430  129.7636  154.9506 H   0  0  0  0  0  0  0  0  0  0  0  0
  151.1283  130.7731  154.1257 H   0  0  0  0  0  0  0  0  0  0  0  0
  149.4239  135.0455  154.4807 H   0  0  0  0  0  0  0  0  0  0  0  0
  150.1726  133.7987  153.5215 H   0  0  0  0  0  0  0  0  0  0  0  0
  148.2561  134.8653  152.2175 H   0  0  0  0  0  0  0  0  0  0  0  0
  145.7247  133.3324  152.6149 H   0  0  0  0  0  0  0  0  0  0  0  0
  145.0855  135.6873  152.4860 H   0  0  0  0  0  0  0  0  0  0  0  0
  146.2793  135.9872  151.2199 H   0  0  0  0  0  0  0  0  0  0  0  0
  143.6862  134.4582  151.0074 H   0  0  0  0  0  0  0  0  0  0  0  0
  144.3942  135.5539  149.8275 H   0  0  0  0  0  0  0  0  0  0  0  0
  144.1816  132.1126  148.6947 H   0  0  0  0  0  0  0  0  0  0  0  0
  143.2221  133.1714  151.4950 H   0  0  0  0  0  0  0  0  0  0  0  0
  142.3322  131.9348  150.4654 H   0  0  0  0  0  0  0  0  0  0  0  0
  144.3080  130.3935  150.5964 H   0  0  0  0  0  0  0  0  0  0  0  0
  145.2056  131.6236  151.6271 H   0  0  0  0  0  0  0  0  0  0  0  0
  147.3449  133.7471  150.0717 H   0  0  0  0  0  0  0  0  0  0  0  0
  146.7068  132.2296  150.6939 H   0  0  0  0  0  0  0  0  0  0  0  0
  145.5444  133.9008  148.9478 H   0  0  0  0  0  0  0  0  0  0  0  0
  1  2  1  0  0  0  0
  1 20  1  0  0  0  0
  1 21  1  0  0  0  0
  1 22  1  0  0  0  0
  2  7  1  0  0  0  0
  2  3  2  0  0  0  0
  3  4  1  0  0  0  0
  4  5  1  0  0  0  0
  5  6  1  0  0  0  0
  5  7  2  0  0  0  0
  7  8  1  0  0  0  0
  8  9  1  0  0  0  0
  8 23  1  0  0  0  0
  8 24  1  0  0  0  0
  9 10  2  0  0  0  0
  9 11  1  0  0  0  0
 11 12  1  0  0  0  0
 11 25  1  0  0  0  0
 12 19  1  0  0  0  0
 12 13  1  0  0  0  0
 12 26  1  0  0  0  0
 13 14  1  0  0  0  0
 13 27  1  0  0  0  0
 13 28  1  0  0  0  0
 14 15  1  0  0  0  0
 14 29  1  0  0  0  0
 14 30  1  0  0  0  0
 15 16  1  0  0  0  0
 15 19  1  0  0  0  0
 15 38  1  0  0  0  0
 16 18  1  0  0  0  0
 16 17  1  0  0  0  0
 16 31  1  0  0  0  0
 17 18  1  0  0  0  0
 17 32  1  0  0  0  0
 17 33  1  0  0  0  0
 18 34  1  0  0  0  0
 18 35  1  0  0  0  0
 19 36  1  0  0  0  0
 19 37  1  0  0  0  0
M  CHG  1  15   1
M  END
> <s_m_source_file>
AV-unprocessed.smi

> <i_m_source_file_index>
1066

> <i_lp_mmshare_version>
43012

> <i_f3d_flags>
0

> <s_epik_input>
W0NIM11jMW5vYyhDbCljMVtDSDJdQyg9TylbTkhdW0NAQEhdMltDSDJdW0NIMl1OKFtDSDJdMilbQ0hdM1tDSDJdW0NIMl0z

> <s_epik_cmdline>
J2VwaWtfcHl0aG9uJywgJy1waCcsICc3LjAnLCAnLXRuJywgJzgnLCAnLW1hJywgJzIwMCcsICctbWV0YWxfYmluZGluZycsICctaW1hZScsICc8aW5maWxlLm1hZT4nLCAnLW9tYWUnLCAnPG91dGZpbGUubWFlPic=

> <r_epik_Ionization_Penalty>
0.00108138

> <r_epik_Ionization_Penalty_Charging>
0.00108128

> <r_epik_Ionization_Penalty_Neutral>
9.66632e-08

> <r_epik_State_Penalty>
0.000708577

> <r_epik_Charging_Adjusted_Penalty>
0.00178986

> <i_epik_Tot_Q>
1

> <i_epik_Tot_abs_Q>
1

> <r_epik_Metal_State_Penalty>
-0

> <b_epik_Metal_Only>
0

> <s_lp_Force_Field>
OPLS_2005

> <r_lp_Energy>
31.8821

> <b_lp_Chiralities_Consistent>
1

> <s_lp_Variant>
AV-unprocessed.smi:1066-4

> <Gold.Version>
5.8.1

> <Gold.Id.Protein>
6NUR|6NUR_protein|mol2

> <Gold.PLP.Fitness>
42.8742

> <Gold.PLP.PLP>
-34.7150

> <Gold.PLP.part.hbond>
-2.9320

> <Gold.PLP.part.metal>
0.0000

> <Gold.PLP.part.buried>
-3.4042

> <Gold.PLP.part.nonpolar>
-28.8416

> <Gold.PLP.part.repulsive>
0.1567

> <Gold.PLP.ligand.clash>
0.0000

> <Gold.PLP.ligand.torsion>
1.0614

> <Gold.PLP.Chemscore.Hbond>
3.0000

> <Gold.PLP.Chemscore.CHOScore>
0.0000

> <Gold.PLP.Chemscore.Metal>
0.0000

> <Gold.Chemscore.Hbonds>
donor molecule, donor type, donor heavy atom, donor atom, acceptor molecule, acceptor atom, score
      L1  H    11    25       P1  7948  0.99
      L1  H    15    38       P1  7921  1.00
      P1  H  6896  6907       L1     4  1.00

> <Gold.PLP.Chemscore.Internal.Correction>
1.2820

> <Gold.Rescore>
     Score         DG    S(hbond)    S(metal)    S(lipo)     H(rot)  DE(clash)    DE(int)     intcor
     19.07     -20.21       2.84        0.00      79.04       1.57       0.02       1.11       ----

> <Gold.Chemscore.Fitness>
19.0702

> <Gold.Chemscore.DG>
-20.2059

> <Gold.Chemscore.ZeroCoef>
-5.4800

> <Gold.Chemscore.Hbond>
2.8444

> <Gold.Chemscore.Metal>
0.0000

> <Gold.Chemscore.Lipo>
79.0414

> <Gold.Chemscore.Internal_Hbond>
0.0000

> <Gold.Chemscore.DEClash>
0.0237

> <Gold.Chemscore.DEInternal>
1.1120

> <Gold.Chemscore.Rot>
1.5711

> <Gold.Chemscore.Internal.Correction>
   9.000000E+99

> <Gold.Chemscore.Hbonds>
donor molecule, donor type, donor heavy atom, donor atom, acceptor molecule, acceptor atom, score
      L1  H    11    25       P1  7948  0.28
      L1  H    15    38       P1  7921  0.60
      P1  H  6896  6907       L1     4  0.37

> <Gold.Chemscore.Hbond.Weighted>
-9.5002

> <Gold.Chemscore.Metal.Weighted>
-0.0000

> <Gold.Chemscore.Lipo.Weighted>
-9.2478

> <Gold.Chemscore.Internal_Hbond.Weighted>
0.0000

> <Gold.Chemscore.DEClash.Weighted>
0.0237

> <Gold.Chemscore.DEInternal.Weighted>
1.1120

> <Gold.Chemscore.Rot.Weighted>
4.0221

> <Gold.Chemscore.Internal.Correction.Weighted>
   9.000000E+99

> <Gold.Protein.RotatedTorsions>
[ 6907 6896 6895 6894 ] final -137.56 input  -60.11 | X-H torsion
[ 7974 7965 7964 7962 ] final   58.03 input  175.53 | X-H torsion
[ 8008 7997 7996 7995 ] final   99.93 input   59.86 | X-H torsion
[ 10167 10162 10161 10158 ] final   87.83 input  -65.29 | X-H torsion
[ 10718 10713 10712 10709 ] final  160.99 input   66.30 | X-H torsion
[ 10763 10752 10751 10750 ] final   93.44 input  -60.55 | X-H torsion
[ 11005 11000 10999 10996 ] final   35.83 input  -57.11 | X-H torsion

> <Gold.Protein.ActiveResidues>
 VAL166  LYS551  ARG553  GLY616  TRP617  ASP618  TYR619  PRO620  LYS621  CYS622 
 ASP623  PHE694  ASN695  SER759  ASP760  ASP761  ALA762  ILE779  LEU786  VAL792 
 PHE793  MET794  SER795  GLU796  ALA797  LYS798  CYS799  TRP800  GLU811  SER814 

> <Gold.Protein.RotatedAtoms>
  151.0240  133.5850  159.2667 H   0  0  0  0  0  0  0  0  0  0  0  0  # atno 6907 bound_to 6896
  151.2957  135.0753  159.9230 H   0  0  0  0  0  0  0  0  0  0  0  0  # atno 6908 bound_to 6896
  152.5330  133.9931  159.7914 H   0  0  0  0  0  0  0  0  0  0  0  0  # atno 6909 bound_to 6896
  145.9227  139.3742  143.0469 H   0  0  0  0  0  0  0  0  0  0  0  0  # atno 7974 bound_to 7965
  156.1153  140.3221  155.8130 H   0  0  0  0  0  0  0  0  0  0  0  0  # atno 8008 bound_to 7997
  155.4601  140.0539  157.3009 H   0  0  0  0  0  0  0  0  0  0  0  0  # atno 8009 bound_to 7997
  154.4788  140.2044  155.9826 H   0  0  0  0  0  0  0  0  0  0  0  0  # atno 8010 bound_to 7997
  139.8733  144.6480  150.8924 H   0  0  0  0  0  0  0  0  0  0  0  0  # atno 10167 bound_to 10162
  157.1427  131.0544  151.2318 H   0  0  0  0  0  0  0  0  0  0  0  0  # atno 10718 bound_to 10713
  153.2303  135.4325  155.0588 H   0  0  0  0  0  0  0  0  0  0  0  0  # atno 10763 bound_to 10752
  154.8293  135.3378  154.6797 H   0  0  0  0  0  0  0  0  0  0  0  0  # atno 10764 bound_to 10752
  153.7224  135.7016  153.5065 H   0  0  0  0  0  0  0  0  0  0  0  0  # atno 10765 bound_to 10752
  140.2387  134.3441  155.7934 H   0  0  0  0  0  0  0  0  0  0  0  0  # atno 11005 bound_to 11000
  145.8529  140.9518  143.0740 LP  0  0  0  0  0  0  0  0  0  0  0  0  # atno 17320 bound_to 7965
  144.6755  140.0431  143.7480 LP  0  0  0  0  0  0  0  0  0  0  0  0  # atno 17321 bound_to 7965
  140.7757  143.3645  151.1764 LP  0  0  0  0  0  0  0  0  0  0  0  0  # atno 17342 bound_to 10162
  139.7263  143.9143  152.3004 LP  0  0  0  0  0  0  0  0  0  0  0  0  # atno 17343 bound_to 10162
  157.4292  130.7481  149.6976 LP  0  0  0  0  0  0  0  0  0  0  0  0  # atno 17370 bound_to 10713
  155.9785  130.4050  150.3643 LP  0  0  0  0  0  0  0  0  0  0  0  0  # atno 17371 bound_to 10713
  141.2212  133.7286  156.8850 LP  0  0  0  0  0  0  0  0  0  0  0  0  # atno 17394 bound_to 11000
  140.1676  134.9122  157.2793 LP  0  0  0  0  0  0  0  0  0  0  0  0  # atno 17395 bound_to 11000

$$$$
