AV-unprocessed.smi:1032|AV-procd|sdf|4486|dock6
  -GOLD-   22720 2463D 1   1.00000     0.00000
 Structure written by MMmdl.
 47 48  0  0  0  0  0  0  0  0  3 V2000
  151.0632  135.0711  156.4292 C   0  0  0  0  0  0  0  0  0  0  0  0
  150.2319  136.3034  156.0457 C   0  0  2  0  0  0  0  0  0  0  0  0
  148.7877  135.9269  155.6751 C   0  0  0  0  0  0  0  0  0  0  0  0
  147.9745  137.1667  155.2658 C   0  0  0  0  0  0  0  0  0  0  0  0
  148.6246  137.8856  154.1375 N   0  3  1  0  0  0  0  0  0  0  0  0
  147.8225  139.0238  153.6181 C   0  0  0  0  0  0  0  0  0  0  0  0
  147.8175  140.2421  154.5653 C   0  0  2  0  0  0  0  0  0  0  0  0
  146.4781  140.6764  154.6969 O   0  0  0  0  0  0  0  0  0  0  0  0
  148.6433  141.4084  153.9841 C   0  0  0  0  0  0  0  0  0  0  0  0
  149.2657  142.2149  155.0303 N   0  0  0  0  0  0  0  0  0  0  0  0
  150.0695  141.7364  155.9911 C   0  0  0  0  0  0  0  0  0  0  0  0
  150.3426  140.5420  156.1118 O   0  0  0  0  0  0  0  0  0  0  0  0
  150.5058  142.7168  156.8005 N   0  0  0  0  0  0  0  0  0  0  0  0
  151.4131  142.6187  157.8904 C   0  0  0  0  0  0  0  0  0  0  0  0
  151.9056  141.3370  158.2228 C   0  0  0  0  0  0  0  0  0  0  0  0
  152.7924  141.1933  159.3093 C   0  0  0  0  0  0  0  0  0  0  0  0
  153.1541  142.2763  160.0301 N   0  3  0  0  0  0  0  0  0  0  0  0
  152.6973  143.5180  159.7611 C   0  0  0  0  0  0  0  0  0  0  0  0
  151.8095  143.7242  158.6853 C   0  0  0  0  0  0  0  0  0  0  0  0
  150.0119  138.2915  154.4812 C   0  0  0  0  0  0  0  0  0  0  0  0
  150.8670  137.0769  154.8783 C   0  0  0  0  0  0  0  0  0  0  0  0
  151.1421  134.3693  155.5980 H   0  0  0  0  0  0  0  0  0  0  0  0
  150.6158  134.5414  157.2707 H   0  0  0  0  0  0  0  0  0  0  0  0
  152.0744  135.3559  156.7211 H   0  0  0  0  0  0  0  0  0  0  0  0
  150.1986  136.9636  156.9138 H   0  0  0  0  0  0  0  0  0  0  0  0
  148.7906  135.2065  154.8557 H   0  0  0  0  0  0  0  0  0  0  0  0
  148.3028  135.4327  156.5178 H   0  0  0  0  0  0  0  0  0  0  0  0
  146.9699  136.8487  154.9905 H   0  0  0  0  0  0  0  0  0  0  0  0
  147.8682  137.8418  156.1165 H   0  0  0  0  0  0  0  0  0  0  0  0
  148.2021  139.3048  152.6345 H   0  0  0  0  0  0  0  0  0  0  0  0
  146.7900  138.7051  153.4640 H   0  0  0  0  0  0  0  0  0  0  0  0
  148.2041  139.9648  155.5452 H   0  0  0  0  0  0  0  0  0  0  0  0
  145.9272  139.9195  154.8295 H   0  0  0  0  0  0  0  0  0  0  0  0
  149.4318  141.0213  153.3360 H   0  0  0  0  0  0  0  0  0  0  0  0
  148.0272  142.0477  153.3501 H   0  0  0  0  0  0  0  0  0  0  0  0
  149.0887  143.2087  155.0045 H   0  0  0  0  0  0  0  0  0  0  0  0
  150.1132  143.6333  156.6428 H   0  0  0  0  0  0  0  0  0  0  0  0
  151.6135  140.4694  157.6490 H   0  0  0  0  0  0  0  0  0  0  0  0
  153.2173  140.2509  159.6231 H   0  0  0  0  0  0  0  0  0  0  0  0
  153.0479  144.3041  160.4139 H   0  0  0  0  0  0  0  0  0  0  0  0
  151.4396  144.7214  158.5002 H   0  0  0  0  0  0  0  0  0  0  0  0
  150.4745  138.7865  153.6262 H   0  0  0  0  0  0  0  0  0  0  0  0
  149.9886  139.0188  155.2946 H   0  0  0  0  0  0  0  0  0  0  0  0
  151.8693  137.4088  155.1517 H   0  0  0  0  0  0  0  0  0  0  0  0
  150.9844  136.4180  154.0168 H   0  0  0  0  0  0  0  0  0  0  0  0
  148.7048  137.2287  153.3741 H   0  0  0  0  0  0  0  0  0  0  0  0
  153.7951  142.1506  160.8142 H   0  0  0  0  0  0  0  0  0  0  0  0
  1  2  1  0  0  0  0
  1 22  1  0  0  0  0
  1 23  1  0  0  0  0
  1 24  1  0  0  0  0
  2 21  1  0  0  0  0
  2  3  1  0  0  0  0
  2 25  1  0  0  0  0
  3  4  1  0  0  0  0
  3 26  1  0  0  0  0
  3 27  1  0  0  0  0
  4  5  1  0  0  0  0
  4 28  1  0  0  0  0
  4 29  1  0  0  0  0
  5  6  1  0  0  0  0
  5 20  1  0  0  0  0
  5 46  1  0  0  0  0
  6  7  1  0  0  0  0
  6 30  1  0  0  0  0
  6 31  1  0  0  0  0
  7  8  1  0  0  0  0
  7  9  1  0  0  0  0
  7 32  1  0  0  0  0
  8 33  1  0  0  0  0
  9 10  1  0  0  0  0
  9 34  1  0  0  0  0
  9 35  1  0  0  0  0
 10 11  1  0  0  0  0
 10 36  1  0  0  0  0
 11 12  2  0  0  0  0
 11 13  1  0  0  0  0
 13 14  1  0  0  0  0
 13 37  1  0  0  0  0
 14 19  1  0  0  0  0
 14 15  2  0  0  0  0
 15 16  1  0  0  0  0
 15 38  1  0  0  0  0
 16 17  2  0  0  0  0
 16 39  1  0  0  0  0
 17 18  1  0  0  0  0
 17 47  1  0  0  0  0
 18 19  2  0  0  0  0
 18 40  1  0  0  0  0
 19 41  1  0  0  0  0
 20 21  1  0  0  0  0
 20 42  1  0  0  0  0
 20 43  1  0  0  0  0
 21 44  1  0  0  0  0
 21 45  1  0  0  0  0
M  CHG  1   5   1
M  CHG  1  17   1
M  END
> <s_m_source_file>
AV-unprocessed.smi

> <i_m_source_file_index>
1032

> <i_lp_mmshare_version>
43012

> <i_f3d_flags>
0

> <s_epik_input>
W0NIM11bQ0hdMVtDSDJdW0NIMl1OKFtDSDJdW0NIMl0xKVtDSDJdW0NASF0oW09IXSlbQ0gyXVtOSF1DKD1PKVtOSF1jMltjSF1bY0hdbltjSF1bY0hdMg==

> <s_epik_cmdline>
J2VwaWtfcHl0aG9uJywgJy1waCcsICc3LjAnLCAnLXRuJywgJzgnLCAnLW1hJywgJzIwMCcsICctbWV0YWxfYmluZGluZycsICctaW1hZScsICc8aW5maWxlLm1hZT4nLCAnLW9tYWUnLCAnPG91dGZpbGUubWFlPic=

> <r_epik_Ionization_Penalty>
1.02509

> <r_epik_Ionization_Penalty_Charging>
1.02507

> <r_epik_Ionization_Penalty_Neutral>
1.85474e-05

> <r_epik_State_Penalty>
1.07411

> <r_epik_Charging_Adjusted_Penalty>
2.09917

> <i_epik_Tot_Q>
2

> <i_epik_Tot_abs_Q>
2

> <r_epik_Metal_State_Penalty>
1.1725

> <b_epik_Metal_Only>
0

> <s_lp_Force_Field>
OPLS_2005

> <r_lp_Energy>
32.4913

> <b_lp_Chiralities_Consistent>
1

> <s_lp_Variant>
AV-unprocessed.smi:1032-5

> <Gold.Version>
5.8.1

> <Gold.Id.Protein>
6NUR|6NUR_protein|mol2

> <Gold.PLP.Fitness>
44.4893

> <Gold.PLP.PLP>
-35.0196

> <Gold.PLP.part.hbond>
-3.0000

> <Gold.PLP.part.metal>
0.0000

> <Gold.PLP.part.buried>
-4.2054

> <Gold.PLP.part.nonpolar>
-28.0767

> <Gold.PLP.part.repulsive>
0.3365

> <Gold.PLP.ligand.clash>
0.2054

> <Gold.PLP.ligand.torsion>
1.1643

> <Gold.PLP.Chemscore.Hbond>
3.9760

> <Gold.PLP.Chemscore.CHOScore>
0.0000

> <Gold.PLP.Chemscore.Metal>
0.0000

> <Gold.Chemscore.Hbonds>
donor molecule, donor type, donor heavy atom, donor atom, acceptor molecule, acceptor atom, score
      L1  H     5    46       P1  7948  2.00
      L1  H    10    36       P1  8028  1.00
      L1  H    13    37       P1  8028  0.98

> <Gold.PLP.Chemscore.Internal.Correction>
0.0757

> <Gold.Rescore>
     Score         DG    S(hbond)    S(metal)    S(lipo)     H(rot)  DE(clash)    DE(int)     intcor
     17.58     -20.92       2.88        0.00     100.75       2.34       0.75       2.59       ----

> <Gold.Chemscore.Fitness>
17.5762

> <Gold.Chemscore.DG>
-20.9155

> <Gold.Chemscore.ZeroCoef>
-5.4800

> <Gold.Chemscore.Hbond>
2.8850

> <Gold.Chemscore.Metal>
0.0000

> <Gold.Chemscore.Lipo>
100.7549

> <Gold.Chemscore.Internal_Hbond>
0.0000

> <Gold.Chemscore.DEClash>
0.7537

> <Gold.Chemscore.DEInternal>
2.5855

> <Gold.Chemscore.Rot>
2.3393

> <Gold.Chemscore.Internal.Correction>
   9.000000E+99

> <Gold.Chemscore.Hbonds>
donor molecule, donor type, donor heavy atom, donor atom, acceptor molecule, acceptor atom, score
      L1  H     5    46       P1  7948  1.00
      L1  H    10    36       P1  8028  0.99
      L1  H    13    37       P1  8028  0.93

> <Gold.Chemscore.Hbond.Weighted>
-9.6358

> <Gold.Chemscore.Metal.Weighted>
-0.0000

> <Gold.Chemscore.Lipo.Weighted>
-11.7883

> <Gold.Chemscore.Internal_Hbond.Weighted>
0.0000

> <Gold.Chemscore.DEClash.Weighted>
0.7537

> <Gold.Chemscore.DEInternal.Weighted>
2.5855

> <Gold.Chemscore.Rot.Weighted>
5.9886

> <Gold.Chemscore.Internal.Correction.Weighted>
   9.000000E+99

> <Gold.Protein.RotatedTorsions>
[ 6907 6896 6895 6894 ] final  -57.53 input  -60.11 | X-H torsion
[ 7974 7965 7964 7962 ] final -103.13 input  175.53 | X-H torsion
[ 8008 7997 7996 7995 ] final -126.70 input   59.86 | X-H torsion
[ 10167 10162 10161 10158 ] final  -15.86 input  -65.29 | X-H torsion
[ 10718 10713 10712 10709 ] final   18.42 input   66.30 | X-H torsion
[ 10763 10752 10751 10750 ] final  -51.12 input  -60.55 | X-H torsion
[ 11005 11000 10999 10996 ] final -167.60 input  -57.11 | X-H torsion

> <Gold.Protein.ActiveResidues>
 VAL166  LYS551  ARG553  GLY616  TRP617  ASP618  TYR619  PRO620  LYS621  CYS622 
 ASP623  PHE694  ASN695  SER759  ASP760  ASP761  ALA762  ILE779  LEU786  VAL792 
 PHE793  MET794  SER795  GLU796  ALA797  LYS798  CYS799  TRP800  GLU811  SER814 

> <Gold.Protein.RotatedAtoms>
  150.8078  134.7215  159.6660 H   0  0  0  0  0  0  0  0  0  0  0  0  # atno 6907 bound_to 6896
  152.4198  134.5972  160.0000 H   0  0  0  0  0  0  0  0  0  0  0  0  # atno 6908 bound_to 6896
  151.6191  133.3303  159.3120 H   0  0  0  0  0  0  0  0  0  0  0  0  # atno 6909 bound_to 6896
  145.2598  140.9265  143.3047 H   0  0  0  0  0  0  0  0  0  0  0  0  # atno 7974 bound_to 7965
  155.2341  140.0426  157.2966 H   0  0  0  0  0  0  0  0  0  0  0  0  # atno 8008 bound_to 7997
  154.5870  140.2416  155.7944 H   0  0  0  0  0  0  0  0  0  0  0  0  # atno 8009 bound_to 7997
  156.2233  140.2963  156.0013 H   0  0  0  0  0  0  0  0  0  0  0  0  # atno 8010 bound_to 7997
  140.7225  143.5175  150.9674 H   0  0  0  0  0  0  0  0  0  0  0  0  # atno 10167 bound_to 10162
  157.0960  130.6448  149.5860 H   0  0  0  0  0  0  0  0  0  0  0  0  # atno 10718 bound_to 10713
  154.1215  135.6534  153.4904 H   0  0  0  0  0  0  0  0  0  0  0  0  # atno 10763 bound_to 10752
  153.0224  135.5271  154.7092 H   0  0  0  0  0  0  0  0  0  0  0  0  # atno 10764 bound_to 10752
  154.6301  135.2975  155.0196 H   0  0  0  0  0  0  0  0  0  0  0  0  # atno 10765 bound_to 10752
  140.5514  134.5424  157.5123 H   0  0  0  0  0  0  0  0  0  0  0  0  # atno 11005 bound_to 11000
  144.9429  139.4169  143.6440 LP  0  0  0  0  0  0  0  0  0  0  0  0  # atno 17320 bound_to 7965
  146.3278  139.8397  142.8892 LP  0  0  0  0  0  0  0  0  0  0  0  0  # atno 17321 bound_to 7965
  139.8891  143.6975  152.3147 LP  0  0  0  0  0  0  0  0  0  0  0  0  # atno 17342 bound_to 10162
  139.7285  144.7587  151.0840 LP  0  0  0  0  0  0  0  0  0  0  0  0  # atno 17343 bound_to 10162
  155.9885  130.4929  150.7175 LP  0  0  0  0  0  0  0  0  0  0  0  0  # atno 17370 bound_to 10713
  157.4681  131.0890  151.0673 LP  0  0  0  0  0  0  0  0  0  0  0  0  # atno 17371 bound_to 10713
  139.9453  134.7713  156.0577 LP  0  0  0  0  0  0  0  0  0  0  0  0  # atno 17394 bound_to 11000
  141.1169  133.6625  156.3117 LP  0  0  0  0  0  0  0  0  0  0  0  0  # atno 17395 bound_to 11000

$$$$
