AV-unprocessed.smi:2010|AV-procd|sdf|8152|dock10
  -GOLD-   2272010393D 1   1.00000     0.00000
 Structure written by MMmdl.
 40 41  0  0  0  0  0  0  0  0  2 V2000
  146.5887  141.2678  154.6162 C   0  0  0  0  0  0  0  0  0  0  0  0
  147.8103  141.5209  155.5106 C   0  0  0  0  0  0  0  0  0  0  0  0
  149.1018  141.6307  154.6853 C   0  0  0  0  0  0  0  0  0  0  0  0
  150.3309  141.8588  155.5842 C   0  0  0  0  0  0  0  0  0  0  0  0
  150.4430  140.8240  156.6340 N   0  0  0  0  0  0  0  0  0  0  0  0
  151.4994  139.4607  156.3795 S   0  0  0  0  0  0  0  0  0  0  0  0
  150.7694  138.2815  156.8733 O   0  0  0  0  0  0  0  0  0  0  0  0
  151.8763  139.4838  154.9568 O   0  0  0  0  0  0  0  0  0  0  0  0
  152.6985  139.9400  157.3585 N   0  5  0  0  0  0  0  0  0  0  0  0
  152.4101  140.4086  158.7051 C   0  0  1  0  0  0  0  0  0  0  0  0
  152.9832  139.3951  159.7080 C   0  0  0  0  0  0  0  0  0  0  0  0
  152.9557  141.8494  158.9125 C   0  0  0  0  0  0  0  0  0  0  0  0
  152.8463  142.3731  160.2729 N   0  0  0  0  0  0  0  0  0  0  0  0
  152.1532  143.4819  160.7203 C   0  0  0  0  0  0  0  0  0  0  0  0
  152.3605  143.5821  162.0661 C   0  0  0  0  0  0  0  0  0  0  0  0
  153.2198  142.4866  162.3571 C   0  0  0  0  0  0  0  0  0  0  0  0
  153.5211  141.7759  161.2837 N   0  0  0  0  0  0  0  0  0  0  0  0
  149.2197  140.6568  157.4462 C   0  0  0  0  0  0  0  0  0  0  0  0
  147.9779  140.4173  156.5673 C   0  0  0  0  0  0  0  0  0  0  0  0
  146.6885  140.3308  154.0673 H   0  0  0  0  0  0  0  0  0  0  0  0
  146.4629  142.0689  153.8875 H   0  0  0  0  0  0  0  0  0  0  0  0
  145.6744  141.2122  155.2073 H   0  0  0  0  0  0  0  0  0  0  0  0
  147.6557  142.4681  156.0288 H   0  0  0  0  0  0  0  0  0  0  0  0
  149.2379  140.7281  154.0897 H   0  0  0  0  0  0  0  0  0  0  0  0
  149.0187  142.4516  153.9725 H   0  0  0  0  0  0  0  0  0  0  0  0
  151.2379  141.8861  154.9810 H   0  0  0  0  0  0  0  0  0  0  0  0
  150.2532  142.8328  156.0679 H   0  0  0  0  0  0  0  0  0  0  0  0
  151.3338  140.4444  158.8773 H   0  0  0  0  0  0  0  0  0  0  0  0
  152.8171  139.7247  160.7336 H   0  0  0  0  0  0  0  0  0  0  0  0
  154.0554  139.2503  159.5726 H   0  0  0  0  0  0  0  0  0  0  0  0
  152.5047  138.4216  159.5958 H   0  0  0  0  0  0  0  0  0  0  0  0
  153.9980  141.9107  158.5982 H   0  0  0  0  0  0  0  0  0  0  0  0
  152.4152  142.5317  158.2557 H   0  0  0  0  0  0  0  0  0  0  0  0
  151.5694  144.0948  160.0495 H   0  0  0  0  0  0  0  0  0  0  0  0
  151.9604  144.3252  162.7391 H   0  0  0  0  0  0  0  0  0  0  0  0
  153.6353  142.1914  163.3091 H   0  0  0  0  0  0  0  0  0  0  0  0
  149.3459  139.8384  158.1544 H   0  0  0  0  0  0  0  0  0  0  0  0
  149.0764  141.5591  158.0408 H   0  0  0  0  0  0  0  0  0  0  0  0
  147.0914  140.3730  157.2002 H   0  0  0  0  0  0  0  0  0  0  0  0
  148.0491  139.4442  156.0808 H   0  0  0  0  0  0  0  0  0  0  0  0
  1  2  1  0  0  0  0
  1 20  1  0  0  0  0
  1 21  1  0  0  0  0
  1 22  1  0  0  0  0
  2 19  1  0  0  0  0
  2  3  1  0  0  0  0
  2 23  1  0  0  0  0
  3  4  1  0  0  0  0
  3 24  1  0  0  0  0
  3 25  1  0  0  0  0
  4  5  1  0  0  0  0
  4 26  1  0  0  0  0
  4 27  1  0  0  0  0
  5  6  1  0  0  0  0
  5 18  1  0  0  0  0
  6  7  2  0  0  0  0
  6  8  2  0  0  0  0
  6  9  1  0  0  0  0
  9 10  1  0  0  0  0
 10 11  1  0  0  0  0
 10 12  1  0  0  0  0
 10 28  1  0  0  0  0
 11 29  1  0  0  0  0
 11 30  1  0  0  0  0
 11 31  1  0  0  0  0
 12 13  1  0  0  0  0
 12 32  1  0  0  0  0
 12 33  1  0  0  0  0
 13 17  1  0  0  0  0
 13 14  1  0  0  0  0
 14 15  2  0  0  0  0
 14 34  1  0  0  0  0
 15 16  1  0  0  0  0
 15 35  1  0  0  0  0
 16 17  2  0  0  0  0
 16 36  1  0  0  0  0
 18 19  1  0  0  0  0
 18 37  1  0  0  0  0
 18 38  1  0  0  0  0
 19 39  1  0  0  0  0
 19 40  1  0  0  0  0
M  CHG  1   9  -1
M  END
> <s_m_source_file>
AV-unprocessed.smi

> <i_m_source_file_index>
2010

> <i_lp_mmshare_version>
43012

> <i_f3d_flags>
0

> <s_epik_input>
W0NIM11bQ0hdMVtDSDJdW0NIMl1OKFtDSDJdW0NIMl0xKVMoPU8pKD1PKVtOSF1bQ0BIXShbQ0gzXSlbQ0gyXW4yW2NIXVtjSF1bY0hdbjI=

> <s_epik_cmdline>
J2VwaWtfcHl0aG9uJywgJy1waCcsICc3LjAnLCAnLXRuJywgJzgnLCAnLW1hJywgJzIwMCcsICctbWV0YWxfYmluZGluZycsICctaW1hZScsICc8aW5maWxlLm1hZT4nLCAnLW9tYWUnLCAnPG91dGZpbGUubWFlPic=

> <r_lp_tautomer_probability>
1

> <r_epik_Ionization_Penalty>
1.75622

> <r_epik_Ionization_Penalty_Charging>
1.7562

> <r_epik_Ionization_Penalty_Neutral>
2.39925e-05

> <r_epik_State_Penalty>
1.86645

> <r_epik_Charging_Adjusted_Penalty>
3.62264

> <i_epik_Tot_Q>
-1

> <i_epik_Tot_abs_Q>
1

> <r_epik_Metal_State_Penalty>
0.460135

> <b_epik_Metal_Only>
0

> <s_lp_Force_Field>
OPLS_2005

> <r_lp_Energy>
3.33366

> <b_lp_Chiralities_Consistent>
1

> <s_lp_Variant>
AV-unprocessed.smi:2010-4

> <Gold.Version>
5.8.1

> <Gold.Id.Protein>
6NUR|6NUR_protein|mol2

> <Gold.PLP.Fitness>
46.4185

> <Gold.PLP.PLP>
-37.6986

> <Gold.PLP.part.hbond>
-2.0000

> <Gold.PLP.part.metal>
0.0000

> <Gold.PLP.part.buried>
-3.1987

> <Gold.PLP.part.nonpolar>
-30.8141

> <Gold.PLP.part.repulsive>
0.0307

> <Gold.PLP.ligand.clash>
0.0000

> <Gold.PLP.ligand.torsion>
1.6827

> <Gold.PLP.Chemscore.Hbond>
2.9920

> <Gold.PLP.Chemscore.CHOScore>
0.0000

> <Gold.PLP.Chemscore.Metal>
0.0000

> <Gold.Chemscore.Hbonds>
donor molecule, donor type, donor heavy atom, donor atom, acceptor molecule, acceptor atom, score
      P1  H  7989  7998       L1     8  0.99
      P1  H  7997  8008       L1     9  2.00

> <Gold.PLP.Chemscore.Internal.Correction>
3.1093

> <Gold.Rescore>
     Score         DG    S(hbond)    S(metal)    S(lipo)     H(rot)  DE(clash)    DE(int)     intcor
     16.38     -18.48       1.91        0.00      86.50       1.37       0.25       1.85       ----

> <Gold.Chemscore.Fitness>
16.3818

> <Gold.Chemscore.DG>
-18.4785

> <Gold.Chemscore.ZeroCoef>
-5.4800

> <Gold.Chemscore.Hbond>
1.9081

> <Gold.Chemscore.Metal>
0.0000

> <Gold.Chemscore.Lipo>
86.4970

> <Gold.Chemscore.Internal_Hbond>
0.0000

> <Gold.Chemscore.DEClash>
0.2461

> <Gold.Chemscore.DEInternal>
1.8506

> <Gold.Chemscore.Rot>
1.3652

> <Gold.Chemscore.Internal.Correction>
   9.000000E+99

> <Gold.Chemscore.Hbonds>
donor molecule, donor type, donor heavy atom, donor atom, acceptor molecule, acceptor atom, score
      P1  H  7989  7998       L1     8  0.90
      P1  H  7997  8008       L1     9  0.87

> <Gold.Chemscore.Hbond.Weighted>
-6.3732

> <Gold.Chemscore.Metal.Weighted>
-0.0000

> <Gold.Chemscore.Lipo.Weighted>
-10.1201

> <Gold.Chemscore.Internal_Hbond.Weighted>
0.0000

> <Gold.Chemscore.DEClash.Weighted>
0.2461

> <Gold.Chemscore.DEInternal.Weighted>
1.8506

> <Gold.Chemscore.Rot.Weighted>
3.4948

> <Gold.Chemscore.Internal.Correction.Weighted>
   9.000000E+99

> <Gold.Protein.RotatedTorsions>
[ 6907 6896 6895 6894 ] final  -53.46 input  -60.11 | X-H torsion
[ 7974 7965 7964 7962 ] final -173.68 input  175.53 | X-H torsion
[ 8008 7997 7996 7995 ] final  -53.17 input   59.86 | X-H torsion
[ 10167 10162 10161 10158 ] final  -42.62 input  -65.29 | X-H torsion
[ 10718 10713 10712 10709 ] final   31.99 input   66.30 | X-H torsion
[ 10763 10752 10751 10750 ] final  158.29 input  -60.55 | X-H torsion
[ 11005 11000 10999 10996 ] final  146.08 input  -57.11 | X-H torsion

> <Gold.Protein.ActiveResidues>
 VAL166  LYS551  ARG553  GLY616  TRP617  ASP618  TYR619  PRO620  LYS621  CYS622 
 ASP623  PHE694  ASN695  SER759  ASP760  ASP761  ALA762  ILE779  LEU786  VAL792 
 PHE793  MET794  SER795  GLU796  ALA797  LYS798  CYS799  TRP800  GLU811  SER814 

> <Gold.Protein.RotatedAtoms>
  150.8424  134.7721  159.6943 H   0  0  0  0  0  0  0  0  0  0  0  0  # atno 6907 bound_to 6896
  152.4509  134.5393  159.9844 H   0  0  0  0  0  0  0  0  0  0  0  0  # atno 6908 bound_to 6896
  151.5530  133.3377  159.2992 H   0  0  0  0  0  0  0  0  0  0  0  0  # atno 6909 bound_to 6896
  144.7136  140.1585  143.6378 H   0  0  0  0  0  0  0  0  0  0  0  0  # atno 7974 bound_to 7965
  154.4126  140.1206  156.5111 H   0  0  0  0  0  0  0  0  0  0  0  0  # atno 8008 bound_to 7997
  155.6798  140.3496  155.4831 H   0  0  0  0  0  0  0  0  0  0  0  0  # atno 8009 bound_to 7997
  155.9561  140.1114  157.0926 H   0  0  0  0  0  0  0  0  0  0  0  0  # atno 8010 bound_to 7997
  140.6963  143.3027  151.3235 H   0  0  0  0  0  0  0  0  0  0  0  0  # atno 10167 bound_to 10162
  157.2796  130.7248  149.6549 H   0  0  0  0  0  0  0  0  0  0  0  0  # atno 10718 bound_to 10713
  154.2137  135.2785  155.2949 H   0  0  0  0  0  0  0  0  0  0  0  0  # atno 10763 bound_to 10752
  154.5758  135.5604  153.7141 H   0  0  0  0  0  0  0  0  0  0  0  0  # atno 10764 bound_to 10752
  153.0058  135.6332  154.2276 H   0  0  0  0  0  0  0  0  0  0  0  0  # atno 10765 bound_to 10752
  140.0764  134.9122  157.1429 H   0  0  0  0  0  0  0  0  0  0  0  0  # atno 11005 bound_to 11000
  145.9052  139.2454  143.1470 LP  0  0  0  0  0  0  0  0  0  0  0  0  # atno 17320 bound_to 7965
  145.9771  140.8713  143.0133 LP  0  0  0  0  0  0  0  0  0  0  0  0  # atno 17321 bound_to 7965
  139.6422  144.0518  152.2563 LP  0  0  0  0  0  0  0  0  0  0  0  0  # atno 17342 bound_to 10162
  140.0027  144.6281  150.7715 LP  0  0  0  0  0  0  0  0  0  0  0  0  # atno 17343 bound_to 10162
  155.9664  130.4342  150.5040 LP  0  0  0  0  0  0  0  0  0  0  0  0  # atno 17370 bound_to 10713
  157.2981  131.0639  151.2087 LP  0  0  0  0  0  0  0  0  0  0  0  0  # atno 17371 bound_to 10713
  140.3552  134.2555  155.7193 LP  0  0  0  0  0  0  0  0  0  0  0  0  # atno 17394 bound_to 11000
  141.2031  133.7921  157.0357 LP  0  0  0  0  0  0  0  0  0  0  0  0  # atno 17395 bound_to 11000

$$$$
