AV-unprocessed.smi:82|AV-procd|sdf|799|dock7
  -GOLD-   2262017183D 1   1.00000     0.00000
 Structure written by MMmdl.
 58 61  0  0  0  0  0  0  0  0  1 V2000
  148.6660  145.2083  160.3970 C   0  0  0  0  0  0  0  0  0  0  0  0
  149.7065  144.2627  160.2201 O   0  0  0  0  0  0  0  0  0  0  0  0
  150.7943  144.7837  159.4750 C   0  0  0  0  0  0  0  0  0  0  0  0
  151.9184  143.7348  159.4498 C   0  0  0  0  0  0  0  0  0  0  0  0
  151.5485  142.4233  158.9003 N   0  0  0  0  0  0  0  0  0  0  0  0
  150.9099  142.5736  157.5864 C   0  0  0  0  0  0  0  0  0  0  0  0
  150.4725  141.2337  156.9785 C   0  0  0  0  0  0  0  0  0  0  0  0
  151.6225  140.3411  156.8765 N   0  0  0  0  0  0  0  0  0  0  0  0
  151.4947  139.2150  156.1292 C   0  0  0  0  0  0  0  0  0  0  0  0
  151.9883  139.1789  154.8622 N   0  0  0  0  0  0  0  0  0  0  0  0
  151.8549  138.0786  154.1158 C   0  0  0  0  0  0  0  0  0  0  0  0
  151.2793  136.9184  154.4357 N   0  0  0  0  0  0  0  0  0  0  0  0
  150.7943  136.9415  155.7102 C   0  0  0  0  0  0  0  0  0  0  0  0
  150.8544  138.0397  156.6146 C   0  0  0  0  0  0  0  0  0  0  0  0
  150.2529  137.6924  157.8187 N   0  0  0  0  0  0  0  0  0  0  0  0
  149.8464  136.4668  157.6311 C   0  0  0  0  0  0  0  0  0  0  0  0
  150.1564  135.9273  156.4033 N   0  0  0  0  0  0  0  0  0  0  0  0
  149.8000  134.6234  155.9263 C   0  0  0  0  0  0  0  0  0  0  0  0
  150.1125  134.1936  154.4916 C   0  0  0  0  0  0  0  0  0  0  0  0
  148.8375  133.3196  154.4834 C   0  0  0  0  0  0  0  0  0  0  0  0
  147.9924  133.3610  153.1984 C   0  0  0  0  0  0  0  0  0  0  0  0
  147.5943  134.6763  152.8707 O   0  0  0  0  0  0  0  0  0  0  0  0
  149.0036  131.8538  154.9377 C   0  0  0  0  0  0  0  0  0  0  0  0
  149.4224  131.0106  153.8843 O   0  0  0  0  0  0  0  0  0  0  0  0
  148.3472  134.2676  155.6010 C   0  0  0  0  0  0  0  0  0  0  0  0
  152.3053  140.1605  158.1540 C   0  0  0  0  0  0  0  0  0  0  0  0
  152.7121  141.5213  158.7653 C   0  0  2  0  0  0  0  0  0  0  0  0
  153.4547  141.2381  160.0866 C   0  0  0  0  0  0  0  0  0  0  0  0
  147.8524  144.7564  160.9642 H   0  0  0  0  0  0  0  0  0  0  0  0
  148.2648  145.5373  159.4377 H   0  0  0  0  0  0  0  0  0  0  0  0
  149.0162  146.0819  160.9485 H   0  0  0  0  0  0  0  0  0  0  0  0
  150.4721  145.0119  158.4577 H   0  0  0  0  0  0  0  0  0  0  0  0
  151.1322  145.7122  159.9360 H   0  0  0  0  0  0  0  0  0  0  0  0
  152.7801  144.1343  158.9131 H   0  0  0  0  0  0  0  0  0  0  0  0
  152.2347  143.6175  160.4846 H   0  0  0  0  0  0  0  0  0  0  0  0
  150.0237  143.2016  157.6649 H   0  0  0  0  0  0  0  0  0  0  0  0
  151.5896  143.0795  156.8986 H   0  0  0  0  0  0  0  0  0  0  0  0
  149.7014  140.7733  157.5978 H   0  0  0  0  0  0  0  0  0  0  0  0
  150.0411  141.4045  155.9912 H   0  0  0  0  0  0  0  0  0  0  0  0
  152.2700  138.1357  153.1204 H   0  0  0  0  0  0  0  0  0  0  0  0
  149.3131  135.9169  158.3931 H   0  0  0  0  0  0  0  0  0  0  0  0
  150.2224  133.9154  156.6415 H   0  0  0  0  0  0  0  0  0  0  0  0
  150.0571  135.0235  153.7843 H   0  0  0  0  0  0  0  0  0  0  0  0
  151.0500  133.6485  154.3778 H   0  0  0  0  0  0  0  0  0  0  0  0
  148.5328  132.9331  152.3537 H   0  0  0  0  0  0  0  0  0  0  0  0
  147.0850  132.7672  153.3129 H   0  0  0  0  0  0  0  0  0  0  0  0
  148.2722  135.0748  152.3470 H   0  0  0  0  0  0  0  0  0  0  0  0
  149.7428  131.7707  155.7345 H   0  0  0  0  0  0  0  0  0  0  0  0
  148.0728  131.4623  155.3495 H   0  0  0  0  0  0  0  0  0  0  0  0
  150.3075  130.7291  154.0577 H   0  0  0  0  0  0  0  0  0  0  0  0
  147.8097  133.7800  156.4151 H   0  0  0  0  0  0  0  0  0  0  0  0
  147.7861  135.1254  155.2254 H   0  0  0  0  0  0  0  0  0  0  0  0
  151.6400  139.6273  158.8351 H   0  0  0  0  0  0  0  0  0  0  0  0
  153.1912  139.5379  158.0350 H   0  0  0  0  0  0  0  0  0  0  0  0
  153.4289  141.9823  158.0835 H   0  0  0  0  0  0  0  0  0  0  0  0
  154.2149  140.4683  159.9507 H   0  0  0  0  0  0  0  0  0  0  0  0
  152.7696  140.8904  160.8604 H   0  0  0  0  0  0  0  0  0  0  0  0
  153.9768  142.1167  160.4642 H   0  0  0  0  0  0  0  0  0  0  0  0
  1  2  1  0  0  0  0
  1 29  1  0  0  0  0
  1 30  1  0  0  0  0
  1 31  1  0  0  0  0
  2  3  1  0  0  0  0
  3  4  1  0  0  0  0
  3 32  1  0  0  0  0
  3 33  1  0  0  0  0
  4  5  1  0  0  0  0
  4 34  1  0  0  0  0
  4 35  1  0  0  0  0
  5 27  1  0  0  0  0
  5  6  1  0  0  0  0
  6  7  1  0  0  0  0
  6 36  1  0  0  0  0
  6 37  1  0  0  0  0
  7  8  1  0  0  0  0
  7 38  1  0  0  0  0
  7 39  1  0  0  0  0
  8  9  1  0  0  0  0
  8 26  1  0  0  0  0
  9 14  1  0  0  0  0
  9 10  2  0  0  0  0
 10 11  1  0  0  0  0
 11 12  2  0  0  0  0
 11 40  1  0  0  0  0
 12 13  1  0  0  0  0
 13 17  1  0  0  0  0
 13 14  2  0  0  0  0
 14 15  1  0  0  0  0
 15 16  2  0  0  0  0
 16 17  1  0  0  0  0
 16 41  1  0  0  0  0
 17 18  1  0  0  0  0
 18 25  1  0  0  0  0
 18 19  1  0  0  0  0
 18 42  1  0  0  0  0
 19 20  1  0  0  0  0
 19 43  1  0  0  0  0
 19 44  1  0  0  0  0
 20 21  1  0  0  0  0
 20 23  1  0  0  0  0
 20 25  1  0  0  0  0
 21 22  1  0  0  0  0
 21 45  1  0  0  0  0
 21 46  1  0  0  0  0
 22 47  1  0  0  0  0
 23 24  1  0  0  0  0
 23 48  1  0  0  0  0
 23 49  1  0  0  0  0
 24 50  1  0  0  0  0
 25 51  1  0  0  0  0
 25 52  1  0  0  0  0
 26 27  1  0  0  0  0
 26 53  1  0  0  0  0
 26 54  1  0  0  0  0
 27 28  1  0  0  0  0
 27 55  1  0  0  0  0
 28 56  1  0  0  0  0
 28 57  1  0  0  0  0
 28 58  1  0  0  0  0
M  END
> <s_m_source_file>
AV-unprocessed.smi

> <i_m_source_file_index>
82

> <i_lp_mmshare_version>
43012

> <i_f3d_flags>
0

> <s_epik_input>
W0NIM11PW0NIMl1bQ0gyXU4xW0NIMl1bQ0gyXU4oW0NIMl1bQ0BIXTFbQ0gzXSljKG5bY0hdbjIpYyhjMjMpbltjSF1uM1tDSF0oW0NIMl00KVtDSDJdQzQoW0NIMl1bT0hdKVtDSDJdW09IXQ==

> <s_epik_cmdline>
J2VwaWtfcHl0aG9uJywgJy1waCcsICc3LjAnLCAnLXRuJywgJzgnLCAnLW1hJywgJzIwMCcsICctbWV0YWxfYmluZGluZycsICctaW1hZScsICc8aW5maWxlLm1hZT4nLCAnLW9tYWUnLCAnPG91dGZpbGUubWFlPic=

> <r_lp_tautomer_probability>
1

> <r_epik_Ionization_Penalty>
0.549054

> <r_epik_Ionization_Penalty_Charging>
0

> <r_epik_Ionization_Penalty_Neutral>
0.549054

> <r_epik_State_Penalty>
0.552556

> <r_epik_Charging_Adjusted_Penalty>
0.552556

> <i_epik_Tot_Q>
0

> <i_epik_Tot_abs_Q>
0

> <r_epik_Metal_State_Penalty>
0.545162

> <b_epik_Metal_Only>
0

> <s_lp_Force_Field>
OPLS_2005

> <r_lp_Energy>
68.3354

> <b_lp_Chiralities_Consistent>
1

> <s_lp_Variant>
AV-unprocessed.smi:82-6

> <Gold.Version>
5.8.1

> <Gold.Id.Protein>
6NUR|6NUR_protein|mol2

> <Gold.PLP.Fitness>
49.8000

> <Gold.PLP.PLP>
-42.5217

> <Gold.PLP.part.hbond>
-3.7206

> <Gold.PLP.part.metal>
0.0000

> <Gold.PLP.part.buried>
-8.7206

> <Gold.PLP.part.nonpolar>
-30.3322

> <Gold.PLP.part.repulsive>
0.7076

> <Gold.PLP.ligand.clash>
0.0000

> <Gold.PLP.ligand.torsion>
0.7645

> <Gold.PLP.Chemscore.Hbond>
2.5274

> <Gold.PLP.Chemscore.CHOScore>
0.1395

> <Gold.PLP.Chemscore.Metal>
0.0000

> <Gold.Chemscore.Hbonds>
donor molecule, donor type, donor heavy atom, donor atom, acceptor molecule, acceptor atom, score
      L1  H    22    47       P1  7948  0.63
      P1  H  7989  7998       L1    10  0.58
      P1  H 10752 10763       L1    12  0.65
      L1  C    11    40       P1  7949  0.04

> <Gold.PLP.Chemscore.Internal.Correction>
0.8069

> <Gold.Rescore>
     Score         DG    S(hbond)    S(metal)    S(lipo)     H(rot)  DE(clash)    DE(int)     intcor
      8.98     -10.83       1.09        0.00      98.65       3.84       0.04       1.82       ----

> <Gold.Chemscore.Fitness>
8.9775

> <Gold.Chemscore.DG>
-10.8306

> <Gold.Chemscore.ZeroCoef>
-5.4800

> <Gold.Chemscore.Hbond>
1.0919

> <Gold.Chemscore.Metal>
0.0000

> <Gold.Chemscore.Lipo>
98.6550

> <Gold.Chemscore.Internal_Hbond>
0.0000

> <Gold.Chemscore.DEClash>
0.0373

> <Gold.Chemscore.DEInternal>
1.8159

> <Gold.Chemscore.Rot>
3.8434

> <Gold.Chemscore.Internal.Correction>
   9.000000E+99

> <Gold.Chemscore.Hbonds>
donor molecule, donor type, donor heavy atom, donor atom, acceptor molecule, acceptor atom, score
      L1  H    22    47       P1  7948  0.37
      P1  H  7989  7998       L1    10  0.27
      P1  H 10752 10763       L1    12  0.10

> <Gold.Chemscore.Hbond.Weighted>
-3.6471

> <Gold.Chemscore.Metal.Weighted>
-0.0000

> <Gold.Chemscore.Lipo.Weighted>
-11.5426

> <Gold.Chemscore.Internal_Hbond.Weighted>
0.0000

> <Gold.Chemscore.DEClash.Weighted>
0.0373

> <Gold.Chemscore.DEInternal.Weighted>
1.8159

> <Gold.Chemscore.Rot.Weighted>
9.8391

> <Gold.Chemscore.Internal.Correction.Weighted>
   9.000000E+99

> <Gold.Protein.RotatedTorsions>
[ 6907 6896 6895 6894 ] final -139.85 input  -60.11 | X-H torsion
[ 7974 7965 7964 7962 ] final  -79.87 input  175.53 | X-H torsion
[ 8008 7997 7996 7995 ] final  -97.17 input   59.86 | X-H torsion
[ 10167 10162 10161 10158 ] final   86.04 input  -65.29 | X-H torsion
[ 10718 10713 10712 10709 ] final  157.41 input   66.30 | X-H torsion
[ 10763 10752 10751 10750 ] final   30.63 input  -60.55 | X-H torsion
[ 11005 11000 10999 10996 ] final -127.37 input  -57.11 | X-H torsion

> <Gold.Protein.ActiveResidues>
 VAL166  LYS551  ARG553  GLY616  TRP617  ASP618  TYR619  PRO620  LYS621  CYS622 
 ASP623  PHE694  ASN695  SER759  ASP760  ASP761  ALA762  ILE779  LEU786  VAL792 
 PHE793  MET794  SER795  GLU796  ALA797  LYS798  CYS799  TRP800  GLU811  SER814 

> <Gold.Protein.RotatedAtoms>
  151.0531  133.5607  159.2640 H   0  0  0  0  0  0  0  0  0  0  0  0  # atno 6907 bound_to 6896
  151.2611  135.0653  159.9108 H   0  0  0  0  0  0  0  0  0  0  0  0  # atno 6908 bound_to 6896
  152.5385  134.0276  159.8064 H   0  0  0  0  0  0  0  0  0  0  0  0  # atno 6909 bound_to 6896
  145.5675  140.9472  143.1414 H   0  0  0  0  0  0  0  0  0  0  0  0  # atno 7974 bound_to 7965
  154.7842  140.0465  157.1151 H   0  0  0  0  0  0  0  0  0  0  0  0  # atno 8008 bound_to 7997
  154.9668  140.3084  155.4986 H   0  0  0  0  0  0  0  0  0  0  0  0  # atno 8009 bound_to 7997
  156.2941  140.2260  156.4758 H   0  0  0  0  0  0  0  0  0  0  0  0  # atno 8010 bound_to 7997
  139.8916  144.6382  150.8733 H   0  0  0  0  0  0  0  0  0  0  0  0  # atno 10167 bound_to 10162
  157.1919  131.0656  151.2075 H   0  0  0  0  0  0  0  0  0  0  0  0  # atno 10718 bound_to 10713
  153.0361  135.6459  154.1074 H   0  0  0  0  0  0  0  0  0  0  0  0  # atno 10763 bound_to 10752
  154.0788  135.2875  155.3296 H   0  0  0  0  0  0  0  0  0  0  0  0  # atno 10764 bound_to 10752
  154.6544  135.5414  153.8005 H   0  0  0  0  0  0  0  0  0  0  0  0  # atno 10765 bound_to 10752
  140.9605  134.0943  157.3973 H   0  0  0  0  0  0  0  0  0  0  0  0  # atno 11005 bound_to 11000
  144.7453  139.7336  143.7294 LP  0  0  0  0  0  0  0  0  0  0  0  0  # atno 17320 bound_to 7965
  146.1808  139.4999  142.9868 LP  0  0  0  0  0  0  0  0  0  0  0  0  # atno 17321 bound_to 7965
  140.7725  143.3506  151.2022 LP  0  0  0  0  0  0  0  0  0  0  0  0  # atno 17342 bound_to 10162
  139.7105  143.9385  152.2945 LP  0  0  0  0  0  0  0  0  0  0  0  0  # atno 17343 bound_to 10162
  157.3852  130.7253  149.6658 LP  0  0  0  0  0  0  0  0  0  0  0  0  # atno 17370 bound_to 10713
  155.9711  130.4161  150.4216 LP  0  0  0  0  0  0  0  0  0  0  0  0  # atno 17371 bound_to 10713
  139.8876  135.0091  156.6572 LP  0  0  0  0  0  0  0  0  0  0  0  0  # atno 17394 bound_to 11000
  140.7475  133.8926  155.8322 LP  0  0  0  0  0  0  0  0  0  0  0  0  # atno 17395 bound_to 11000

$$$$
