AV-unprocessed.smi:2536|AV-procd|sdf|9979|dock9
  -GOLD-   2272014 23D 1   1.00000     0.00000
 Structure written by MMmdl.
 32 33  0  0  0  0  0  0  0  0  1 V2000
  151.4475  145.2479  159.9226 C   0  0  0  0  0  0  0  0  0  0  0  0
  151.6484  143.8687  159.3238 C   0  0  0  0  0  0  0  0  0  0  0  0
  151.1716  143.5649  158.0306 C   0  0  0  0  0  0  0  0  0  0  0  0
  151.3341  142.3440  157.4767 N   0  0  0  0  0  0  0  0  0  0  0  0
  151.9691  141.4258  158.2078 C   0  0  0  0  0  0  0  0  0  0  0  0
  152.1119  140.1866  157.6093 N   0  0  0  0  0  0  0  0  0  0  0  0
  151.9209  139.9135  156.1902 C   0  0  1  0  0  0  0  0  0  0  0  0
  152.1587  138.4297  155.8597 C   0  0  0  0  0  0  0  0  0  0  0  0
  151.8540  138.1723  154.3803 C   0  0  0  0  0  0  0  0  0  0  0  0
  150.4464  138.6783  154.0281 C   0  0  0  0  0  0  0  0  0  0  0  0
  150.3318  140.0593  154.3554 O   0  0  0  0  0  0  0  0  0  0  0  0
  150.5041  140.3209  155.7447 C   0  0  0  0  0  0  0  0  0  0  0  0
  152.4648  141.6006  159.4380 N   0  0  0  0  0  0  0  0  0  0  0  0
  152.3098  142.8175  160.0050 C   0  0  0  0  0  0  0  0  0  0  0  0
  152.8847  142.9617  161.4026 C   0  0  0  0  0  0  0  0  0  0  0  0
  150.8999  145.8973  159.2390 H   0  0  0  0  0  0  0  0  0  0  0  0
  152.4093  145.7161  160.1335 H   0  0  0  0  0  0  0  0  0  0  0  0
  150.8799  145.1810  160.8510 H   0  0  0  0  0  0  0  0  0  0  0  0
  150.6546  144.3025  157.4348 H   0  0  0  0  0  0  0  0  0  0  0  0
  152.4516  139.4353  158.1918 H   0  0  0  0  0  0  0  0  0  0  0  0
  152.6328  140.5181  155.6267 H   0  0  0  0  0  0  0  0  0  0  0  0
  153.1858  138.1399  156.0827 H   0  0  0  0  0  0  0  0  0  0  0  0
  151.5150  137.8025  156.4782 H   0  0  0  0  0  0  0  0  0  0  0  0
  152.5912  138.6836  153.7601 H   0  0  0  0  0  0  0  0  0  0  0  0
  151.9400  137.1087  154.1571 H   0  0  0  0  0  0  0  0  0  0  0  0
  150.2588  138.5524  152.9616 H   0  0  0  0  0  0  0  0  0  0  0  0
  149.6835  138.1039  154.5558 H   0  0  0  0  0  0  0  0  0  0  0  0
  149.7422  139.7912  156.3195 H   0  0  0  0  0  0  0  0  0  0  0  0
  150.3479  141.3863  155.9165 H   0  0  0  0  0  0  0  0  0  0  0  0
  152.8082  143.9768  161.7888 H   0  0  0  0  0  0  0  0  0  0  0  0
  153.9393  142.6847  161.4041 H   0  0  0  0  0  0  0  0  0  0  0  0
  152.3595  142.2995  162.0912 H   0  0  0  0  0  0  0  0  0  0  0  0
  1  2  1  0  0  0  0
  1 16  1  0  0  0  0
  1 17  1  0  0  0  0
  1 18  1  0  0  0  0
  2 14  1  0  0  0  0
  2  3  2  0  0  0  0
  3  4  1  0  0  0  0
  3 19  1  0  0  0  0
  4  5  2  0  0  0  0
  5  6  1  0  0  0  0
  5 13  1  0  0  0  0
  6  7  1  0  0  0  0
  6 20  1  0  0  0  0
  7 12  1  0  0  0  0
  7  8  1  0  0  0  0
  7 21  1  0  0  0  0
  8  9  1  0  0  0  0
  8 22  1  0  0  0  0
  8 23  1  0  0  0  0
  9 10  1  0  0  0  0
  9 24  1  0  0  0  0
  9 25  1  0  0  0  0
 10 11  1  0  0  0  0
 10 26  1  0  0  0  0
 10 27  1  0  0  0  0
 11 12  1  0  0  0  0
 12 28  1  0  0  0  0
 12 29  1  0  0  0  0
 13 14  2  0  0  0  0
 14 15  1  0  0  0  0
 15 30  1  0  0  0  0
 15 31  1  0  0  0  0
 15 32  1  0  0  0  0
M  END
> <s_m_source_file>
AV-unprocessed.smi

> <i_m_source_file_index>
2536

> <i_lp_mmshare_version>
43012

> <i_f3d_flags>
0

> <s_epik_input>
W0NIM11jMVtjSF1uYyhuYzFbQ0gzXSlbTkhdW0NAQEhdMltDSDJdW0NIMl1bQ0gyXU9bQ0gyXTI=

> <s_epik_cmdline>
J2VwaWtfcHl0aG9uJywgJy1waCcsICc3LjAnLCAnLXRuJywgJzgnLCAnLW1hJywgJzIwMCcsICctbWV0YWxfYmluZGluZycsICctaW1hZScsICc8aW5maWxlLm1hZT4nLCAnLW9tYWUnLCAnPG91dGZpbGUubWFlPic=

> <r_lp_tautomer_probability>
1

> <r_epik_Ionization_Penalty>
0.00982357

> <r_epik_Ionization_Penalty_Charging>
0

> <r_epik_Ionization_Penalty_Neutral>
0.00982357

> <r_epik_State_Penalty>
0.0064698

> <r_epik_Charging_Adjusted_Penalty>
0.0064698

> <i_epik_Tot_Q>
0

> <i_epik_Tot_abs_Q>
0

> <r_epik_Metal_State_Penalty>
-0

> <b_epik_Metal_Only>
0

> <s_lp_Force_Field>
OPLS_2005

> <r_lp_Energy>
1.83983

> <b_lp_Chiralities_Consistent>
1

> <s_lp_Variant>
AV-unprocessed.smi:2536-2

> <Gold.Version>
5.8.1

> <Gold.Id.Protein>
6NUR|6NUR_protein|mol2

> <Gold.PLP.Fitness>
41.2178

> <Gold.PLP.PLP>
-35.3232

> <Gold.PLP.part.hbond>
-1.0000

> <Gold.PLP.part.metal>
0.0000

> <Gold.PLP.part.buried>
-5.8187

> <Gold.PLP.part.nonpolar>
-29.5534

> <Gold.PLP.part.repulsive>
0.2601

> <Gold.PLP.ligand.clash>
0.0000

> <Gold.PLP.ligand.torsion>
0.0542

> <Gold.PLP.Chemscore.Hbond>
1.0000

> <Gold.PLP.Chemscore.CHOScore>
1.0000

> <Gold.PLP.Chemscore.Metal>
0.0000

> <Gold.Chemscore.Hbonds>
donor molecule, donor type, donor heavy atom, donor atom, acceptor molecule, acceptor atom, score
      P1  H  7989  7998       L1    11  1.00
      L1  C     3    19       P1  8028  1.00

> <Gold.PLP.Chemscore.Internal.Correction>
0.0029

> <Gold.Rescore>
     Score         DG    S(hbond)    S(metal)    S(lipo)     H(rot)  DE(clash)    DE(int)     intcor
     15.21     -16.70       0.85        0.00      93.55       1.00       0.00       1.50       ----

> <Gold.Chemscore.Fitness>
15.2065

> <Gold.Chemscore.DG>
-16.7043

> <Gold.Chemscore.ZeroCoef>
-5.4800

> <Gold.Chemscore.Hbond>
0.8498

> <Gold.Chemscore.Metal>
0.0000

> <Gold.Chemscore.Lipo>
93.5541

> <Gold.Chemscore.Internal_Hbond>
0.0000

> <Gold.Chemscore.DEClash>
0.0021

> <Gold.Chemscore.DEInternal>
1.4957

> <Gold.Chemscore.Rot>
1.0000

> <Gold.Chemscore.Internal.Correction>
   9.000000E+99

> <Gold.Chemscore.Hbonds>
donor molecule, donor type, donor heavy atom, donor atom, acceptor molecule, acceptor atom, score
      P1  H  7989  7998       L1    11  0.36

> <Gold.Chemscore.Hbond.Weighted>
-2.8385

> <Gold.Chemscore.Metal.Weighted>
-0.0000

> <Gold.Chemscore.Lipo.Weighted>
-10.9458

> <Gold.Chemscore.Internal_Hbond.Weighted>
0.0000

> <Gold.Chemscore.DEClash.Weighted>
0.0021

> <Gold.Chemscore.DEInternal.Weighted>
1.4957

> <Gold.Chemscore.Rot.Weighted>
2.5600

> <Gold.Chemscore.Internal.Correction.Weighted>
   9.000000E+99

> <Gold.Protein.RotatedTorsions>
[ 6907 6896 6895 6894 ] final   25.00 input  -60.11 | X-H torsion
[ 7974 7965 7964 7962 ] final   28.18 input  175.53 | X-H torsion
[ 8008 7997 7996 7995 ] final  -31.10 input   59.86 | X-H torsion
[ 10167 10162 10161 10158 ] final   70.39 input  -65.29 | X-H torsion
[ 10718 10713 10712 10709 ] final   86.40 input   66.30 | X-H torsion
[ 10763 10752 10751 10750 ] final   99.54 input  -60.55 | X-H torsion
[ 11005 11000 10999 10996 ] final  111.93 input  -57.11 | X-H torsion

> <Gold.Protein.ActiveResidues>
 VAL166  LYS551  ARG553  GLY616  TRP617  ASP618  TYR619  PRO620  LYS621  CYS622 
 ASP623  PHE694  ASN695  SER759  ASP760  ASP761  ALA762  ILE779  LEU786  VAL792 
 PHE793  MET794  SER795  GLU796  ALA797  LYS798  CYS799  TRP800  GLU811  SER814 

> <Gold.Protein.RotatedAtoms>
  151.9659  135.0100  160.0549 H   0  0  0  0  0  0  0  0  0  0  0  0  # atno 6907 bound_to 6896
  152.1827  133.4713  159.4974 H   0  0  0  0  0  0  0  0  0  0  0  0  # atno 6908 bound_to 6896
  150.6920  134.1731  159.4262 H   0  0  0  0  0  0  0  0  0  0  0  0  # atno 6909 bound_to 6896
  146.1743  139.7090  142.8945 H   0  0  0  0  0  0  0  0  0  0  0  0  # atno 7974 bound_to 7965
  154.4226  140.1773  156.1512 H   0  0  0  0  0  0  0  0  0  0  0  0  # atno 8008 bound_to 7997
  155.9913  140.3368  155.6731 H   0  0  0  0  0  0  0  0  0  0  0  0  # atno 8009 bound_to 7997
  155.6368  140.0675  157.2622 H   0  0  0  0  0  0  0  0  0  0  0  0  # atno 8010 bound_to 7997
  140.0574  144.5261  150.7319 H   0  0  0  0  0  0  0  0  0  0  0  0  # atno 10167 bound_to 10162
  157.6928  131.0214  150.2967 H   0  0  0  0  0  0  0  0  0  0  0  0  # atno 10718 bound_to 10713
  153.3026  135.4110  155.1266 H   0  0  0  0  0  0  0  0  0  0  0  0  # atno 10763 bound_to 10752
  154.8554  135.3545  154.5831 H   0  0  0  0  0  0  0  0  0  0  0  0  # atno 10764 bound_to 10752
  153.6256  135.7063  153.5352 H   0  0  0  0  0  0  0  0  0  0  0  0  # atno 10765 bound_to 10752
  139.8915  134.9519  156.6507 H   0  0  0  0  0  0  0  0  0  0  0  0  # atno 11005 bound_to 11000
  145.4255  141.0410  143.2940 LP  0  0  0  0  0  0  0  0  0  0  0  0  # atno 17320 bound_to 7965
  144.8211  139.5790  143.6986 LP  0  0  0  0  0  0  0  0  0  0  0  0  # atno 17321 bound_to 7965
  140.7188  143.2569  151.4347 LP  0  0  0  0  0  0  0  0  0  0  0  0  # atno 17342 bound_to 10162
  139.5915  144.1489  152.2093 LP  0  0  0  0  0  0  0  0  0  0  0  0  # atno 17343 bound_to 10162
  156.3489  130.3827  149.7346 LP  0  0  0  0  0  0  0  0  0  0  0  0  # atno 17370 bound_to 10713
  156.4830  130.8050  151.3063 LP  0  0  0  0  0  0  0  0  0  0  0  0  # atno 17371 bound_to 10713
  140.7522  133.8887  155.8355 LP  0  0  0  0  0  0  0  0  0  0  0  0  # atno 17394 bound_to 11000
  140.9991  134.1175  157.4335 LP  0  0  0  0  0  0  0  0  0  0  0  0  # atno 17395 bound_to 11000

$$$$
