AV-unprocessed.smi:895|AV-procd|sdf|4076|dock4
  -GOLD-   22720 1563D 1   1.00000     0.00000
 Structure written by MMmdl.
 44 45  0  0  0  0  0  0  0  0  1 V2000
  146.8768  141.0898  153.7457 C   0  0  0  0  0  0  0  0  0  0  0  0
  147.0803  139.7240  153.0613 C   0  0  0  0  0  0  0  0  0  0  0  0
  146.8000  139.8329  151.5531 C   0  0  0  0  0  0  0  0  0  0  0  0
  148.4437  139.3673  153.1785 O   0  0  0  0  0  0  0  0  0  0  0  0
  146.2243  138.5900  153.6769 C   0  0  0  0  0  0  0  0  0  0  0  0
  146.5232  137.2750  153.1171 N   0  0  0  0  0  0  0  0  0  0  0  0
  145.6783  136.2358  153.1005 C   0  0  0  0  0  0  0  0  0  0  0  0
  144.5517  136.2550  153.5963 O   0  0  0  0  0  0  0  0  0  0  0  0
  146.2133  135.1776  152.4758 N   0  0  0  0  0  0  0  0  0  0  0  0
  145.5687  133.8777  152.2929 C   0  0  1  0  0  0  0  0  0  0  0  0
  144.5240  133.9931  151.1655 C   0  0  0  0  0  0  0  0  0  0  0  0
  143.8725  132.6377  150.8524 C   0  0  0  0  0  0  0  0  0  0  0  0
  144.9318  131.5826  150.5039 C   0  0  0  0  0  0  0  0  0  0  0  0
  145.9598  131.4424  151.6359 C   0  0  0  0  0  0  0  0  0  0  0  0
  146.6278  132.7943  151.9640 C   0  0  2  0  0  0  0  0  0  0  0  0
  147.6099  132.6448  153.0310 N   0  0  0  0  0  0  0  0  0  0  0  0
  148.5417  133.5660  153.4620 C   0  0  0  0  0  0  0  0  0  0  0  0
  149.2377  132.9953  154.4887 C   0  0  0  0  0  0  0  0  0  0  0  0
  148.6527  131.7049  154.6163 C   0  0  0  0  0  0  0  0  0  0  0  0
  147.6826  131.4964  153.7419 N   0  0  0  0  0  0  0  0  0  0  0  0
  145.8299  141.3926  153.7139 H   0  0  0  0  0  0  0  0  0  0  0  0
  147.4594  141.8689  153.2529 H   0  0  0  0  0  0  0  0  0  0  0  0
  147.1858  141.0727  154.7913 H   0  0  0  0  0  0  0  0  0  0  0  0
  145.7633  140.1148  151.3654 H   0  0  0  0  0  0  0  0  0  0  0  0
  146.9797  138.8850  151.0443 H   0  0  0  0  0  0  0  0  0  0  0  0
  147.4343  140.5847  151.0817 H   0  0  0  0  0  0  0  0  0  0  0  0
  148.8742  139.5487  152.3568 H   0  0  0  0  0  0  0  0  0  0  0  0
  146.4395  138.5194  154.7436 H   0  0  0  0  0  0  0  0  0  0  0  0
  145.1590  138.8189  153.6054 H   0  0  0  0  0  0  0  0  0  0  0  0
  147.4283  137.1602  152.6852 H   0  0  0  0  0  0  0  0  0  0  0  0
  147.1457  135.2745  152.1018 H   0  0  0  0  0  0  0  0  0  0  0  0
  145.0409  133.5827  153.2018 H   0  0  0  0  0  0  0  0  0  0  0  0
  143.7539  134.7136  151.4441 H   0  0  0  0  0  0  0  0  0  0  0  0
  144.9959  134.3808  150.2613 H   0  0  0  0  0  0  0  0  0  0  0  0
  143.2913  132.3035  151.7129 H   0  0  0  0  0  0  0  0  0  0  0  0
  143.1691  132.7456  150.0264 H   0  0  0  0  0  0  0  0  0  0  0  0
  144.4524  130.6215  150.3161 H   0  0  0  0  0  0  0  0  0  0  0  0
  145.4387  131.8625  149.5798 H   0  0  0  0  0  0  0  0  0  0  0  0
  145.4628  131.0447  152.5219 H   0  0  0  0  0  0  0  0  0  0  0  0
  146.7180  130.7111  151.3541 H   0  0  0  0  0  0  0  0  0  0  0  0
  147.1722  133.1149  151.0738 H   0  0  0  0  0  0  0  0  0  0  0  0
  148.6291  134.5423  153.0086 H   0  0  0  0  0  0  0  0  0  0  0  0
  150.0410  133.4336  155.0618 H   0  0  0  0  0  0  0  0  0  0  0  0
  148.9029  130.9185  155.3130 H   0  0  0  0  0  0  0  0  0  0  0  0
  1  2  1  0  0  0  0
  1 21  1  0  0  0  0
  1 22  1  0  0  0  0
  1 23  1  0  0  0  0
  2  3  1  0  0  0  0
  2  4  1  0  0  0  0
  2  5  1  0  0  0  0
  3 24  1  0  0  0  0
  3 25  1  0  0  0  0
  3 26  1  0  0  0  0
  4 27  1  0  0  0  0
  5  6  1  0  0  0  0
  5 28  1  0  0  0  0
  5 29  1  0  0  0  0
  6  7  1  0  0  0  0
  6 30  1  0  0  0  0
  7  8  2  0  0  0  0
  7  9  1  0  0  0  0
  9 10  1  0  0  0  0
  9 31  1  0  0  0  0
 10 15  1  0  0  0  0
 10 11  1  0  0  0  0
 10 32  1  0  0  0  0
 11 12  1  0  0  0  0
 11 33  1  0  0  0  0
 11 34  1  0  0  0  0
 12 13  1  0  0  0  0
 12 35  1  0  0  0  0
 12 36  1  0  0  0  0
 13 14  1  0  0  0  0
 13 37  1  0  0  0  0
 13 38  1  0  0  0  0
 14 15  1  0  0  0  0
 14 39  1  0  0  0  0
 14 40  1  0  0  0  0
 15 16  1  0  0  0  0
 15 41  1  0  0  0  0
 16 20  1  0  0  0  0
 16 17  1  0  0  0  0
 17 18  2  0  0  0  0
 17 42  1  0  0  0  0
 18 19  1  0  0  0  0
 18 43  1  0  0  0  0
 19 20  2  0  0  0  0
 19 44  1  0  0  0  0
M  END
> <s_m_source_file>
AV-unprocessed.smi

> <i_m_source_file_index>
895

> <i_lp_mmshare_version>
43012

> <i_f3d_flags>
0

> <s_epik_input>
W0NIM11DKFtDSDNdKShbT0hdKVtDSDJdW05IXUMoPU8pW05IXVtDQEBIXTFbQ0gyXVtDSDJdW0NIMl1bQ0gyXVtDQEhdMW4yW2NIXVtjSF1bY0hdbjI=

> <s_epik_cmdline>
J2VwaWtfcHl0aG9uJywgJy1waCcsICc3LjAnLCAnLXRuJywgJzgnLCAnLW1hJywgJzIwMCcsICctbWV0YWxfYmluZGluZycsICctaW1hZScsICc8aW5maWxlLm1hZT4nLCAnLW9tYWUnLCAnPG91dGZpbGUubWFlPic=

> <r_lp_tautomer_probability>
1

> <r_epik_Ionization_Penalty>
0.000440451

> <r_epik_Ionization_Penalty_Charging>
0

> <r_epik_Ionization_Penalty_Neutral>
0.000440451

> <r_epik_State_Penalty>
-0

> <r_epik_Charging_Adjusted_Penalty>
0

> <i_epik_Tot_Q>
0

> <i_epik_Tot_abs_Q>
0

> <r_epik_Metal_State_Penalty>
-0

> <b_epik_Metal_Only>
0

> <s_lp_Force_Field>
OPLS_2005

> <r_lp_Energy>
11.0588

> <b_lp_Chiralities_Consistent>
1

> <s_lp_Variant>
AV-unprocessed.smi:895-4

> <Gold.Version>
5.8.1

> <Gold.Id.Protein>
6NUR|6NUR_protein|mol2

> <Gold.PLP.Fitness>
45.2471

> <Gold.PLP.PLP>
-34.6938

> <Gold.PLP.part.hbond>
-2.7790

> <Gold.PLP.part.metal>
0.0000

> <Gold.PLP.part.buried>
-1.6801

> <Gold.PLP.part.nonpolar>
-31.6287

> <Gold.PLP.part.repulsive>
0.1422

> <Gold.PLP.ligand.clash>
0.0508

> <Gold.PLP.ligand.torsion>
0.5683

> <Gold.PLP.Chemscore.Hbond>
2.9913

> <Gold.PLP.Chemscore.CHOScore>
0.9054

> <Gold.PLP.Chemscore.Metal>
0.0000

> <Gold.Chemscore.Hbonds>
donor molecule, donor type, donor heavy atom, donor atom, acceptor molecule, acceptor atom, score
      L1  H     4    27       P1  7957  0.88
      L1  H     6    30       P1  7948  1.00
      L1  H     9    31       P1  7948  1.00
      L1  C    17    42       P1  7948  0.89

> <Gold.PLP.Chemscore.Internal.Correction>
0.0509

> <Gold.Rescore>
     Score         DG    S(hbond)    S(metal)    S(lipo)     H(rot)  DE(clash)    DE(int)     intcor
     17.33     -19.83       2.88        0.00      88.34       2.19       0.85       1.65       ----

> <Gold.Chemscore.Fitness>
17.3306

> <Gold.Chemscore.DG>
-19.8329

> <Gold.Chemscore.ZeroCoef>
-5.4800

> <Gold.Chemscore.Hbond>
2.8827

> <Gold.Chemscore.Metal>
0.0000

> <Gold.Chemscore.Lipo>
88.3432

> <Gold.Chemscore.Internal_Hbond>
0.0000

> <Gold.Chemscore.DEClash>
0.8493

> <Gold.Chemscore.DEInternal>
1.6531

> <Gold.Chemscore.Rot>
2.1919

> <Gold.Chemscore.Internal.Correction>
   9.000000E+99

> <Gold.Chemscore.Hbonds>
donor molecule, donor type, donor heavy atom, donor atom, acceptor molecule, acceptor atom, score
      L1  H     4    27       P1  7957  0.86
      L1  H     6    30       P1  7948  0.98
      L1  H     9    31       P1  7948  0.92

> <Gold.Chemscore.Hbond.Weighted>
-9.6281

> <Gold.Chemscore.Metal.Weighted>
-0.0000

> <Gold.Chemscore.Lipo.Weighted>
-10.3362

> <Gold.Chemscore.Internal_Hbond.Weighted>
0.0000

> <Gold.Chemscore.DEClash.Weighted>
0.8493

> <Gold.Chemscore.DEInternal.Weighted>
1.6531

> <Gold.Chemscore.Rot.Weighted>
5.6113

> <Gold.Chemscore.Internal.Correction.Weighted>
   9.000000E+99

> <Gold.Protein.RotatedTorsions>
[ 6907 6896 6895 6894 ] final  153.40 input  -60.11 | X-H torsion
[ 7974 7965 7964 7962 ] final  164.84 input  175.53 | X-H torsion
[ 8008 7997 7996 7995 ] final  114.09 input   59.86 | X-H torsion
[ 10167 10162 10161 10158 ] final -100.23 input  -65.29 | X-H torsion
[ 10718 10713 10712 10709 ] final   36.41 input   66.30 | X-H torsion
[ 10763 10752 10751 10750 ] final   31.52 input  -60.55 | X-H torsion
[ 11005 11000 10999 10996 ] final  -78.08 input  -57.11 | X-H torsion

> <Gold.Protein.ActiveResidues>
 VAL166  LYS551  ARG553  GLY616  TRP617  ASP618  TYR619  PRO620  LYS621  CYS622 
 ASP623  PHE694  ASN695  SER759  ASP760  ASP761  ALA762  ILE779  LEU786  VAL792 
 PHE793  MET794  SER795  GLU796  ALA797  LYS798  CYS799  TRP800  GLU811  SER814 

> <Gold.Protein.RotatedAtoms>
  152.0731  133.4116  159.4467 H   0  0  0  0  0  0  0  0  0  0  0  0  # atno 6907 bound_to 6896
  150.6863  134.3068  159.4739 H   0  0  0  0  0  0  0  0  0  0  0  0  # atno 6908 bound_to 6896
  152.0902  134.9412  160.0622 H   0  0  0  0  0  0  0  0  0  0  0  0  # atno 6909 bound_to 6896
  144.7528  139.8384  143.6360 H   0  0  0  0  0  0  0  0  0  0  0  0  # atno 7974 bound_to 7965
  156.2300  140.2966  156.0163 H   0  0  0  0  0  0  0  0  0  0  0  0  # atno 8008 bound_to 7997
  155.2252  140.0417  157.2971 H   0  0  0  0  0  0  0  0  0  0  0  0  # atno 8009 bound_to 7997
  154.5979  140.2419  155.7840 H   0  0  0  0  0  0  0  0  0  0  0  0  # atno 8010 bound_to 7997
  140.2541  143.3452  152.0687 H   0  0  0  0  0  0  0  0  0  0  0  0  # atno 10167 bound_to 10162
  157.3345  130.7515  149.6870 H   0  0  0  0  0  0  0  0  0  0  0  0  # atno 10718 bound_to 10713
  153.0311  135.6437  154.1213 H   0  0  0  0  0  0  0  0  0  0  0  0  # atno 10763 bound_to 10752
  154.0935  135.2864  155.3268 H   0  0  0  0  0  0  0  0  0  0  0  0  # atno 10764 bound_to 10752
  154.6448  135.5447  153.7895 H   0  0  0  0  0  0  0  0  0  0  0  0  # atno 10765 bound_to 10752
  141.1663  133.7048  156.7918 H   0  0  0  0  0  0  0  0  0  0  0  0  # atno 11005 bound_to 11000
  146.1500  139.4580  143.0055 LP  0  0  0  0  0  0  0  0  0  0  0  0  # atno 17320 bound_to 7965
  145.6885  141.0171  143.1568 LP  0  0  0  0  0  0  0  0  0  0  0  0  # atno 17321 bound_to 7965
  139.5037  144.6761  151.6126 LP  0  0  0  0  0  0  0  0  0  0  0  0  # atno 17342 bound_to 10162
  140.6018  143.9597  150.6391 LP  0  0  0  0  0  0  0  0  0  0  0  0  # atno 17343 bound_to 10162
  155.9700  130.4185  150.4332 LP  0  0  0  0  0  0  0  0  0  0  0  0  # atno 17370 bound_to 10713
  157.2370  131.0517  151.2459 LP  0  0  0  0  0  0  0  0  0  0  0  0  # atno 17371 bound_to 10713
  140.2320  134.8679  157.3486 LP  0  0  0  0  0  0  0  0  0  0  0  0  # atno 17394 bound_to 11000
  140.1882  134.4405  155.7731 LP  0  0  0  0  0  0  0  0  0  0  0  0  # atno 17395 bound_to 11000

$$$$
