AV-unprocessed.smi:146|AV-procd|sdf|1200|dock7
  -GOLD-   2262018363D 1   1.00000     0.00000
 Structure written by MMmdl.
 55 59  0  0  0  0  0  0  0  0  1 V2000
  152.7196  138.5471  154.8503 C   0  0  0  0  0  0  0  0  0  0  0  0
  151.7205  139.0531  155.9028 C   0  0  0  0  0  0  0  0  0  0  0  0
  150.6322  139.8849  155.1938 C   0  0  0  0  0  0  0  0  0  0  0  0
  151.1089  137.8514  156.6512 C   0  0  0  0  0  0  0  0  0  0  0  0
  150.4139  138.2944  157.8512 N   0  0  0  0  0  0  0  0  0  0  0  0
  149.5258  137.4075  158.3639 C   0  0  0  0  0  0  0  0  0  0  0  0
  149.4317  137.2374  159.7097 N   0  0  0  0  0  0  0  0  0  0  0  0
  148.5646  136.3575  160.2187 C   0  0  0  0  0  0  0  0  0  0  0  0
  147.7085  135.5621  159.5748 N   0  0  0  0  0  0  0  0  0  0  0  0
  147.7881  135.7366  158.2250 C   0  0  0  0  0  0  0  0  0  0  0  0
  148.6642  136.6274  157.5424 C   0  0  0  0  0  0  0  0  0  0  0  0
  148.4605  136.5332  156.1709 N   0  0  0  0  0  0  0  0  0  0  0  0
  147.5267  135.6299  156.0494 C   0  0  0  0  0  0  0  0  0  0  0  0
  147.0553  135.1076  157.2333 N   0  0  0  0  0  0  0  0  0  0  0  0
  146.0195  134.0965  157.3846 C   0  0  0  0  0  0  0  0  0  0  0  0
  144.6383  134.5183  156.8406 C   0  0  0  0  0  0  0  0  0  0  0  0
  144.6965  134.7542  155.3208 C   0  0  0  0  0  0  0  0  0  0  0  0
  143.4355  135.1329  154.8061 O   0  0  0  0  0  0  0  0  0  0  0  0
  143.4477  133.6739  157.3150 C   0  0  0  0  0  0  0  0  0  0  0  0
  142.7036  134.8451  157.7117 O   0  0  0  0  0  0  0  0  0  0  0  0
  143.9145  135.6246  157.6223 C   0  0  0  0  0  0  0  0  0  0  0  0
  151.2926  139.0074  158.7684 C   0  0  0  0  0  0  0  0  0  0  0  0
  151.9408  140.2210  158.0673 C   0  0  1  0  0  0  0  0  0  0  0  0
  151.0013  141.4273  157.9612 C   0  0  0  0  0  0  0  0  0  0  0  0
  151.4112  142.3654  159.0998 C   0  0  0  0  0  0  0  0  0  0  0  0
  152.4020  141.6647  159.8329 O   0  0  0  0  0  0  0  0  0  0  0  0
  153.0660  140.7956  158.9328 C   0  0  0  0  0  0  0  0  0  0  0  0
  152.5075  139.8497  156.8024 O   0  0  0  0  0  0  0  0  0  0  0  0
  152.2322  137.9084  154.1128 H   0  0  0  0  0  0  0  0  0  0  0  0
  153.5199  137.9673  155.3115 H   0  0  0  0  0  0  0  0  0  0  0  0
  153.1834  139.3766  154.3155 H   0  0  0  0  0  0  0  0  0  0  0  0
  150.1518  139.3044  154.4055 H   0  0  0  0  0  0  0  0  0  0  0  0
  151.0555  140.7780  154.7334 H   0  0  0  0  0  0  0  0  0  0  0  0
  149.8404  140.1992  155.8716 H   0  0  0  0  0  0  0  0  0  0  0  0
  150.4526  137.2929  155.9839 H   0  0  0  0  0  0  0  0  0  0  0  0
  151.8975  137.1613  156.9547 H   0  0  0  0  0  0  0  0  0  0  0  0
  148.5559  136.2794  161.2960 H   0  0  0  0  0  0  0  0  0  0  0  0
  147.1459  135.3241  155.0857 H   0  0  0  0  0  0  0  0  0  0  0  0
  146.3616  133.1844  156.8939 H   0  0  0  0  0  0  0  0  0  0  0  0
  145.9521  133.8465  158.4440 H   0  0  0  0  0  0  0  0  0  0  0  0
  145.4033  135.5504  155.0848 H   0  0  0  0  0  0  0  0  0  0  0  0
  145.0515  133.8716  154.7889 H   0  0  0  0  0  0  0  0  0  0  0  0
  142.8386  134.4075  154.9107 H   0  0  0  0  0  0  0  0  0  0  0  0
  142.9540  133.1110  156.5219 H   0  0  0  0  0  0  0  0  0  0  0  0
  143.6723  133.0300  158.1670 H   0  0  0  0  0  0  0  0  0  0  0  0
  144.3313  135.8226  158.6105 H   0  0  0  0  0  0  0  0  0  0  0  0
  143.7803  136.5517  157.0635 H   0  0  0  0  0  0  0  0  0  0  0  0
  150.7433  139.3357  159.6522 H   0  0  0  0  0  0  0  0  0  0  0  0
  152.0652  138.3171  159.1106 H   0  0  0  0  0  0  0  0  0  0  0  0
  151.1312  141.9474  157.0117 H   0  0  0  0  0  0  0  0  0  0  0  0
  149.9525  141.1390  158.0383 H   0  0  0  0  0  0  0  0  0  0  0  0
  151.8393  143.2868  158.7029 H   0  0  0  0  0  0  0  0  0  0  0  0
  150.5719  142.6300  159.7434 H   0  0  0  0  0  0  0  0  0  0  0  0
  153.6438  140.0330  159.4557 H   0  0  0  0  0  0  0  0  0  0  0  0
  153.7591  141.3828  158.3278 H   0  0  0  0  0  0  0  0  0  0  0  0
  1  2  1  0  0  0  0
  1 29  1  0  0  0  0
  1 30  1  0  0  0  0
  1 31  1  0  0  0  0
  2 28  1  0  0  0  0
  2  3  1  0  0  0  0
  2  4  1  0  0  0  0
  3 32  1  0  0  0  0
  3 33  1  0  0  0  0
  3 34  1  0  0  0  0
  4  5  1  0  0  0  0
  4 35  1  0  0  0  0
  4 36  1  0  0  0  0
  5  6  1  0  0  0  0
  5 22  1  0  0  0  0
  6 11  1  0  0  0  0
  6  7  2  0  0  0  0
  7  8  1  0  0  0  0
  8  9  2  0  0  0  0
  8 37  1  0  0  0  0
  9 10  1  0  0  0  0
 10 14  1  0  0  0  0
 10 11  2  0  0  0  0
 11 12  1  0  0  0  0
 12 13  2  0  0  0  0
 13 14  1  0  0  0  0
 13 38  1  0  0  0  0
 14 15  1  0  0  0  0
 15 16  1  0  0  0  0
 15 39  1  0  0  0  0
 15 40  1  0  0  0  0
 16 21  1  0  0  0  0
 16 17  1  0  0  0  0
 16 19  1  0  0  0  0
 17 18  1  0  0  0  0
 17 41  1  0  0  0  0
 17 42  1  0  0  0  0
 18 43  1  0  0  0  0
 19 20  1  0  0  0  0
 19 44  1  0  0  0  0
 19 45  1  0  0  0  0
 20 21  1  0  0  0  0
 21 46  1  0  0  0  0
 21 47  1  0  0  0  0
 22 23  1  0  0  0  0
 22 48  1  0  0  0  0
 22 49  1  0  0  0  0
 23 27  1  0  0  0  0
 23 24  1  0  0  0  0
 23 28  1  0  0  0  0
 24 25  1  0  0  0  0
 24 50  1  0  0  0  0
 24 51  1  0  0  0  0
 25 26  1  0  0  0  0
 25 52  1  0  0  0  0
 25 53  1  0  0  0  0
 26 27  1  0  0  0  0
 27 54  1  0  0  0  0
 27 55  1  0  0  0  0
M  END
> <s_m_source_file>
AV-unprocessed.smi

> <i_m_source_file_index>
146

> <i_lp_mmshare_version>
43012

> <i_f3d_flags>
0

> <s_epik_input>
W0NIMl0xT1tDSDJdW0NIMl1bQ0BAXTEyW0NIMl1OKFtDSDJdQyhPMikoW0NIM10pW0NIM10pYyhuW2NIXW4zKWMoYzM0KW5bY0hdbjRbQ0gyXUM1KFtDSDJdW09IXSlbQ0gyXU9bQ0gyXTU=

> <s_epik_cmdline>
J2VwaWtfcHl0aG9uJywgJy1waCcsICc3LjAnLCAnLXRuJywgJzgnLCAnLW1hJywgJzIwMCcsICctbWV0YWxfYmluZGluZycsICctaW1hZScsICc8aW5maWxlLm1hZT4nLCAnLW9tYWUnLCAnPG91dGZpbGUubWFlPic=

> <r_lp_tautomer_probability>
1

> <r_epik_Ionization_Penalty>
0.00353822

> <r_epik_Ionization_Penalty_Charging>
0

> <r_epik_Ionization_Penalty_Neutral>
0.00353822

> <r_epik_State_Penalty>
0.0023805

> <r_epik_Charging_Adjusted_Penalty>
0.0023805

> <i_epik_Tot_Q>
0

> <i_epik_Tot_abs_Q>
0

> <r_epik_Metal_State_Penalty>
-0

> <b_epik_Metal_Only>
0

> <s_lp_Force_Field>
OPLS_2005

> <r_lp_Energy>
57.4997

> <b_lp_Chiralities_Consistent>
1

> <s_lp_Variant>
AV-unprocessed.smi:146-2

> <Gold.Version>
5.8.1

> <Gold.Id.Protein>
6NUR|6NUR_protein|mol2

> <Gold.PLP.Fitness>
37.7416

> <Gold.PLP.PLP>
-29.0628

> <Gold.PLP.part.hbond>
-4.0000

> <Gold.PLP.part.metal>
0.0000

> <Gold.PLP.part.buried>
-5.4516

> <Gold.PLP.part.nonpolar>
-20.2677

> <Gold.PLP.part.repulsive>
0.0799

> <Gold.PLP.ligand.clash>
0.0000

> <Gold.PLP.ligand.torsion>
0.4632

> <Gold.PLP.Chemscore.Hbond>
2.9913

> <Gold.PLP.Chemscore.CHOScore>
0.0000

> <Gold.PLP.Chemscore.Metal>
0.0000

> <Gold.Chemscore.Hbonds>
donor molecule, donor type, donor heavy atom, donor atom, acceptor molecule, acceptor atom, score
      P1  H  7997  8008       L1    28  1.00
      P1  H 11000 11005       L1    20  0.29

> <Gold.PLP.Chemscore.Internal.Correction>
0.6315

> <Gold.Rescore>
     Score         DG    S(hbond)    S(metal)    S(lipo)     H(rot)  DE(clash)    DE(int)     intcor
     13.49     -15.81       2.69        0.00      64.71       2.44       0.00       2.33       ----

> <Gold.Chemscore.Fitness>
13.4853

> <Gold.Chemscore.DG>
-15.8116

> <Gold.Chemscore.ZeroCoef>
-5.4800

> <Gold.Chemscore.Hbond>
2.6949

> <Gold.Chemscore.Metal>
0.0000

> <Gold.Chemscore.Lipo>
64.7076

> <Gold.Chemscore.Internal_Hbond>
0.0000

> <Gold.Chemscore.DEClash>
0.0000

> <Gold.Chemscore.DEInternal>
2.3264

> <Gold.Chemscore.Rot>
2.4376

> <Gold.Chemscore.Internal.Correction>
   9.000000E+99

> <Gold.Chemscore.Hbonds>
donor molecule, donor type, donor heavy atom, donor atom, acceptor molecule, acceptor atom, score
      P1  H  7997  8008       L1    28  0.90
      P1  H 11000 11005       L1    20  0.01

> <Gold.Chemscore.Hbond.Weighted>
-9.0010

> <Gold.Chemscore.Metal.Weighted>
-0.0000

> <Gold.Chemscore.Lipo.Weighted>
-7.5708

> <Gold.Chemscore.Internal_Hbond.Weighted>
0.0000

> <Gold.Chemscore.DEClash.Weighted>
0.0000

> <Gold.Chemscore.DEInternal.Weighted>
2.3264

> <Gold.Chemscore.Rot.Weighted>
6.2402

> <Gold.Chemscore.Internal.Correction.Weighted>
   9.000000E+99

> <Gold.Protein.RotatedTorsions>
[ 6907 6896 6895 6894 ] final -174.41 input  -60.11 | X-H torsion
[ 7974 7965 7964 7962 ] final   25.67 input  175.53 | X-H torsion
[ 8008 7997 7996 7995 ] final  -61.92 input   59.86 | X-H torsion
[ 10167 10162 10161 10158 ] final  -86.28 input  -65.29 | X-H torsion
[ 10718 10713 10712 10709 ] final   99.68 input   66.30 | X-H torsion
[ 10763 10752 10751 10750 ] final   81.26 input  -60.55 | X-H torsion
[ 11005 11000 10999 10996 ] final -107.35 input  -57.11 | X-H torsion

> <Gold.Protein.ActiveResidues>
 VAL166  LYS551  ARG553  GLY616  TRP617  ASP618  TYR619  PRO620  LYS621  CYS622 
 ASP623  PHE694  ASN695  SER759  ASP760  ASP761  ALA762  ILE779  LEU786  VAL792 
 PHE793  MET794  SER795  GLU796  ALA797  LYS798  CYS799  TRP800  GLU811  SER814 

> <Gold.Protein.RotatedAtoms>
  151.5719  133.3389  159.2991 H   0  0  0  0  0  0  0  0  0  0  0  0  # atno 6907 bound_to 6896
  150.8362  134.7639  159.6906 H   0  0  0  0  0  0  0  0  0  0  0  0  # atno 6908 bound_to 6896
  152.4438  134.5543  159.9927 H   0  0  0  0  0  0  0  0  0  0  0  0  # atno 6909 bound_to 6896
  146.1877  139.7434  142.8855 H   0  0  0  0  0  0  0  0  0  0  0  0  # atno 7974 bound_to 7965
  154.4473  140.1007  156.6507 H   0  0  0  0  0  0  0  0  0  0  0  0  # atno 8008 bound_to 7997
  155.5401  140.3483  155.4426 H   0  0  0  0  0  0  0  0  0  0  0  0  # atno 8009 bound_to 7997
  156.0603  140.1325  156.9938 H   0  0  0  0  0  0  0  0  0  0  0  0  # atno 8010 bound_to 7997
  140.3957  143.2685  151.9208 H   0  0  0  0  0  0  0  0  0  0  0  0  # atno 10167 bound_to 10162
  157.6871  131.0677  150.4985 H   0  0  0  0  0  0  0  0  0  0  0  0  # atno 10718 bound_to 10713
  153.1101  135.4772  154.9021 H   0  0  0  0  0  0  0  0  0  0  0  0  # atno 10763 bound_to 10752
  154.7472  135.3097  154.8626 H   0  0  0  0  0  0  0  0  0  0  0  0  # atno 10764 bound_to 10752
  153.9217  135.6854  153.4801 H   0  0  0  0  0  0  0  0  0  0  0  0  # atno 10765 bound_to 10752
  141.0958  133.8973  157.1965 H   0  0  0  0  0  0  0  0  0  0  0  0  # atno 11005 bound_to 11000
  145.3889  141.0369  143.3135 LP  0  0  0  0  0  0  0  0  0  0  0  0  # atno 17320 bound_to 7965
  144.8427  139.5446  143.6893 LP  0  0  0  0  0  0  0  0  0  0  0  0  # atno 17321 bound_to 7965
  139.4787  144.5684  151.8128 LP  0  0  0  0  0  0  0  0  0  0  0  0  # atno 17342 bound_to 10162
  140.4793  144.1472  150.5930 LP  0  0  0  0  0  0  0  0  0  0  0  0  # atno 17343 bound_to 10162
  156.5308  130.4184  149.6202 LP  0  0  0  0  0  0  0  0  0  0  0  0  # atno 17370 bound_to 10713
  156.3071  130.7208  151.2093 LP  0  0  0  0  0  0  0  0  0  0  0  0  # atno 17371 bound_to 10713
  139.9795  135.0103  156.9714 LP  0  0  0  0  0  0  0  0  0  0  0  0  # atno 17394 bound_to 11000
  140.5142  134.0971  155.7277 LP  0  0  0  0  0  0  0  0  0  0  0  0  # atno 17395 bound_to 11000

$$$$
