AV-unprocessed.smi:901|AV-procd|sdf|4093|dock6
  -GOLD-   22720 1583D 1   1.00000     0.00000
 Structure written by MMmdl.
 43 44  0  0  0  0  0  0  0  0  1 V2000
  153.8695  141.6128  162.9677 C   0  0  0  0  0  0  0  0  0  0  0  0
  153.6440  141.7716  161.4771 C   0  0  0  0  0  0  0  0  0  0  0  0
  154.3307  140.7262  160.6162 C   0  0  0  0  0  0  0  0  0  0  0  0
  152.8908  142.7705  160.9782 C   0  0  0  0  0  0  0  0  0  0  0  0
  152.5986  143.0319  159.5440 C   0  0  1  0  0  0  0  0  0  0  0  0
  151.1662  143.1632  159.0586 C   0  0  2  0  0  0  0  0  0  0  0  0
  150.7905  142.5547  157.7423 C   0  0  0  0  0  0  0  0  0  0  0  0
  150.1714  143.1688  156.8721 O   0  0  0  0  0  0  0  0  0  0  0  0
  151.2071  141.2818  157.6137 N   0  0  0  0  0  0  0  0  0  0  0  0
  151.0274  140.4150  156.5055 C   0  0  0  0  0  0  0  0  0  0  0  0
  150.2411  140.8179  155.3913 C   0  0  0  0  0  0  0  0  0  0  0  0
  150.3035  139.7389  154.5560 C   0  0  0  0  0  0  0  0  0  0  0  0
  151.0832  138.7796  155.1726 N   0  0  0  0  0  0  0  0  0  0  0  0
  151.4431  137.4583  154.6846 C   0  0  0  0  0  0  0  0  0  0  0  0
  150.7051  136.3430  155.4345 C   0  0  0  0  0  0  0  0  0  0  0  0
  149.8754  135.5820  154.7163 N   0  0  0  0  0  0  0  0  0  0  0  0
  150.8777  136.1626  156.6389 O   0  0  0  0  0  0  0  0  0  0  0  0
  151.5364  139.1975  156.3750 N   0  0  0  0  0  0  0  0  0  0  0  0
  152.0817  144.3826  159.0764 C   0  0  0  0  0  0  0  0  0  0  0  0
  151.7521  145.4908  160.0657 C   0  0  0  0  0  0  0  0  0  0  0  0
  152.6779  144.9954  157.8144 C   0  0  0  0  0  0  0  0  0  0  0  0
  153.4926  140.6471  163.3059 H   0  0  0  0  0  0  0  0  0  0  0  0
  153.3623  142.3927  163.5366 H   0  0  0  0  0  0  0  0  0  0  0  0
  154.9344  141.6644  163.1964 H   0  0  0  0  0  0  0  0  0  0  0  0
  155.4108  140.7802  160.7533 H   0  0  0  0  0  0  0  0  0  0  0  0
  154.1206  140.8547  159.5548 H   0  0  0  0  0  0  0  0  0  0  0  0
  154.0003  139.7277  160.9033 H   0  0  0  0  0  0  0  0  0  0  0  0
  152.4366  143.4652  161.6697 H   0  0  0  0  0  0  0  0  0  0  0  0
  153.3014  142.5131  158.8943 H   0  0  0  0  0  0  0  0  0  0  0  0
  150.3853  143.1466  159.8179 H   0  0  0  0  0  0  0  0  0  0  0  0
  151.7081  140.8912  158.3982 H   0  0  0  0  0  0  0  0  0  0  0  0
  149.7143  141.7467  155.2297 H   0  0  0  0  0  0  0  0  0  0  0  0
  149.8599  139.5729  153.5852 H   0  0  0  0  0  0  0  0  0  0  0  0
  151.2143  137.4137  153.6189 H   0  0  0  0  0  0  0  0  0  0  0  0
  152.5194  137.3108  154.7894 H   0  0  0  0  0  0  0  0  0  0  0  0
  149.3605  134.8357  155.1604 H   0  0  0  0  0  0  0  0  0  0  0  0
  149.7633  135.7602  153.7286 H   0  0  0  0  0  0  0  0  0  0  0  0
  151.0631  146.2065  159.6162 H   0  0  0  0  0  0  0  0  0  0  0  0
  152.6588  146.0187  160.3618 H   0  0  0  0  0  0  0  0  0  0  0  0
  151.2836  145.0895  160.9648 H   0  0  0  0  0  0  0  0  0  0  0  0
  151.9087  145.5240  157.2508 H   0  0  0  0  0  0  0  0  0  0  0  0
  153.1220  144.2373  157.1702 H   0  0  0  0  0  0  0  0  0  0  0  0
  153.4660  145.7036  158.0721 H   0  0  0  0  0  0  0  0  0  0  0  0
  1  2  1  0  0  0  0
  1 22  1  0  0  0  0
  1 23  1  0  0  0  0
  1 24  1  0  0  0  0
  2  3  1  0  0  0  0
  2  4  2  0  0  0  0
  3 25  1  0  0  0  0
  3 26  1  0  0  0  0
  3 27  1  0  0  0  0
  4  5  1  0  0  0  0
  4 28  1  0  0  0  0
  5 19  1  0  0  0  0
  5  6  1  0  0  0  0
  5 29  1  0  0  0  0
  6  7  1  0  0  0  0
  6 19  1  0  0  0  0
  6 30  1  0  0  0  0
  7  8  2  0  0  0  0
  7  9  1  0  0  0  0
  9 10  1  0  0  0  0
  9 31  1  0  0  0  0
 10 18  2  0  0  0  0
 10 11  1  0  0  0  0
 11 12  2  0  0  0  0
 11 32  1  0  0  0  0
 12 13  1  0  0  0  0
 12 33  1  0  0  0  0
 13 14  1  0  0  0  0
 13 18  1  0  0  0  0
 14 15  1  0  0  0  0
 14 34  1  0  0  0  0
 14 35  1  0  0  0  0
 15 16  1  0  0  0  0
 15 17  2  0  0  0  0
 16 36  1  0  0  0  0
 16 37  1  0  0  0  0
 19 20  1  0  0  0  0
 19 21  1  0  0  0  0
 20 38  1  0  0  0  0
 20 39  1  0  0  0  0
 20 40  1  0  0  0  0
 21 41  1  0  0  0  0
 21 42  1  0  0  0  0
 21 43  1  0  0  0  0
M  END
> <s_m_source_file>
AV-unprocessed.smi

> <i_m_source_file_index>
901

> <i_lp_mmshare_version>
43012

> <i_f3d_flags>
0

> <s_epik_input>
W0NIM11DKFtDSDNdKT1bQ0hdW0NAQEhdKEMxKFtDSDNdKVtDSDNdKVtDQEhdMUMoPU8pW05IXWMyW2NIXVtjSF1uKG4yKVtDSDJdQyg9TylbTkgyXQ==

> <s_epik_cmdline>
J2VwaWtfcHl0aG9uJywgJy1waCcsICc3LjAnLCAnLXRuJywgJzgnLCAnLW1hJywgJzIwMCcsICctbWV0YWxfYmluZGluZycsICctaW1hZScsICc8aW5maWxlLm1hZT4nLCAnLW9tYWUnLCAnPG91dGZpbGUubWFlPic=

> <r_lp_tautomer_probability>
1

> <r_epik_Ionization_Penalty>
1.01454e-05

> <r_epik_Ionization_Penalty_Charging>
0

> <r_epik_Ionization_Penalty_Neutral>
1.01454e-05

> <r_epik_State_Penalty>
-0

> <r_epik_Charging_Adjusted_Penalty>
0

> <i_epik_Tot_Q>
0

> <i_epik_Tot_abs_Q>
0

> <r_epik_Metal_State_Penalty>
-0

> <b_epik_Metal_Only>
0

> <s_lp_Force_Field>
OPLS_2005

> <r_lp_Energy>
18.0241

> <b_lp_Chiralities_Consistent>
1

> <s_lp_Variant>
AV-unprocessed.smi:901-4

> <Gold.Version>
5.8.1

> <Gold.Id.Protein>
6NUR|6NUR_protein|mol2

> <Gold.PLP.Fitness>
48.3967

> <Gold.PLP.PLP>
-43.0484

> <Gold.PLP.part.hbond>
-1.0000

> <Gold.PLP.part.metal>
0.0000

> <Gold.PLP.part.buried>
-4.5997

> <Gold.PLP.part.nonpolar>
-43.5875

> <Gold.PLP.part.repulsive>
5.4116

> <Gold.PLP.ligand.clash>
0.0000

> <Gold.PLP.ligand.torsion>
0.4125

> <Gold.PLP.Chemscore.Hbond>
1.0000

> <Gold.PLP.Chemscore.CHOScore>
1.0000

> <Gold.PLP.Chemscore.Metal>
0.0000

> <Gold.Chemscore.Hbonds>
donor molecule, donor type, donor heavy atom, donor atom, acceptor molecule, acceptor atom, score
      L1  H    16    37       P1  7948  0.77
      L1  C    12    33       P1  7957  1.00

> <Gold.PLP.Chemscore.Internal.Correction>
0.1731

> <Gold.Rescore>
     Score         DG    S(hbond)    S(metal)    S(lipo)     H(rot)  DE(clash)    DE(int)     intcor
     14.13     -17.97       0.97        0.00     125.62       2.13       1.91       1.93       ----

> <Gold.Chemscore.Fitness>
14.1349

> <Gold.Chemscore.DG>
-17.9743

> <Gold.Chemscore.ZeroCoef>
-5.4800

> <Gold.Chemscore.Hbond>
0.9736

> <Gold.Chemscore.Metal>
0.0000

> <Gold.Chemscore.Lipo>
125.6207

> <Gold.Chemscore.Internal_Hbond>
0.0000

> <Gold.Chemscore.DEClash>
1.9138

> <Gold.Chemscore.DEInternal>
1.9256

> <Gold.Chemscore.Rot>
2.1309

> <Gold.Chemscore.Internal.Correction>
   9.000000E+99

> <Gold.Chemscore.Hbonds>
donor molecule, donor type, donor heavy atom, donor atom, acceptor molecule, acceptor atom, score
      L1  H    16    37       P1  7948  0.11

> <Gold.Chemscore.Hbond.Weighted>
-3.2518

> <Gold.Chemscore.Metal.Weighted>
-0.0000

> <Gold.Chemscore.Lipo.Weighted>
-14.6976

> <Gold.Chemscore.Internal_Hbond.Weighted>
0.0000

> <Gold.Chemscore.DEClash.Weighted>
1.9138

> <Gold.Chemscore.DEInternal.Weighted>
1.9256

> <Gold.Chemscore.Rot.Weighted>
5.4552

> <Gold.Chemscore.Internal.Correction.Weighted>
   9.000000E+99

> <Gold.Protein.RotatedTorsions>
[ 6907 6896 6895 6894 ] final   -3.99 input  -60.11 | X-H torsion
[ 7974 7965 7964 7962 ] final  -31.11 input  175.53 | X-H torsion
[ 8008 7997 7996 7995 ] final -174.10 input   59.86 | X-H torsion
[ 10167 10162 10161 10158 ] final -142.40 input  -65.29 | X-H torsion
[ 10718 10713 10712 10709 ] final  -43.54 input   66.30 | X-H torsion
[ 10763 10752 10751 10750 ] final   81.22 input  -60.55 | X-H torsion
[ 11005 11000 10999 10996 ] final  -54.09 input  -57.11 | X-H torsion

> <Gold.Protein.ActiveResidues>
 VAL166  LYS551  ARG553  GLY616  TRP617  ASP618  TYR619  PRO620  LYS621  CYS622 
 ASP623  PHE694  ASN695  SER759  ASP760  ASP761  ALA762  ILE779  LEU786  VAL792 
 PHE793  MET794  SER795  GLU796  ALA797  LYS798  CYS799  TRP800  GLU811  SER814 

> <Gold.Protein.RotatedAtoms>
  151.5049  135.1063  159.9838 H   0  0  0  0  0  0  0  0  0  0  0  0  # atno 6907 bound_to 6896
  152.4686  133.7974  159.6945 H   0  0  0  0  0  0  0  0  0  0  0  0  # atno 6908 bound_to 6896
  150.8683  133.7479  159.2995 H   0  0  0  0  0  0  0  0  0  0  0  0  # atno 6909 bound_to 6896
  146.1092  140.5625  142.8785 H   0  0  0  0  0  0  0  0  0  0  0  0  # atno 7974 bound_to 7965
  155.9658  140.1153  157.0855 H   0  0  0  0  0  0  0  0  0  0  0  0  # atno 8008 bound_to 7997
  154.4143  140.1173  156.5308 H   0  0  0  0  0  0  0  0  0  0  0  0  # atno 8009 bound_to 7997
  155.6661  140.3473  155.4803 H   0  0  0  0  0  0  0  0  0  0  0  0  # atno 8010 bound_to 7997
  139.8092  143.7726  152.2662 H   0  0  0  0  0  0  0  0  0  0  0  0  # atno 10167 bound_to 10162
  156.2479  130.4185  149.8684 H   0  0  0  0  0  0  0  0  0  0  0  0  # atno 10718 bound_to 10713
  153.1098  135.4773  154.9015 H   0  0  0  0  0  0  0  0  0  0  0  0  # atno 10763 bound_to 10752
  154.7469  135.3096  154.8631 H   0  0  0  0  0  0  0  0  0  0  0  0  # atno 10764 bound_to 10752
  153.9223  135.6853  153.4801 H   0  0  0  0  0  0  0  0  0  0  0  0  # atno 10765 bound_to 10752
  141.1008  133.6618  156.4269 H   0  0  0  0  0  0  0  0  0  0  0  0  # atno 11005 bound_to 11000
  144.7497  140.5160  143.6810 LP  0  0  0  0  0  0  0  0  0  0  0  0  # atno 17320 bound_to 7965
  145.5698  139.1483  143.3295 LP  0  0  0  0  0  0  0  0  0  0  0  0  # atno 17321 bound_to 7965
  139.7870  144.7424  151.0008 LP  0  0  0  0  0  0  0  0  0  0  0  0  # atno 17342 bound_to 10162
  140.7818  143.4482  151.0451 LP  0  0  0  0  0  0  0  0  0  0  0  0  # atno 17343 bound_to 10162
  156.6242  130.8639  151.3482 LP  0  0  0  0  0  0  0  0  0  0  0  0  # atno 17370 bound_to 10713
  157.7202  130.9549  150.1411 LP  0  0  0  0  0  0  0  0  0  0  0  0  # atno 17371 bound_to 10713
  140.5026  134.6471  157.5254 LP  0  0  0  0  0  0  0  0  0  0  0  0  # atno 17394 bound_to 11000
  139.9860  134.7062  155.9774 LP  0  0  0  0  0  0  0  0  0  0  0  0  # atno 17395 bound_to 11000

$$$$
