AV-unprocessed.smi:107|AV-procd|sdf|1018|dock5
  -GOLD-   2262018 23D 1   1.00000     0.00000
 Structure written by MMmdl.
 31 32  0  0  0  0  0  0  0  0  1 V2000
  151.3695  144.4202  158.1628 C   0  0  0  0  0  0  0  0  0  0  0  0
  151.5862  142.9279  157.9750 C   0  0  0  0  0  0  0  0  0  0  0  0
  151.0109  142.2311  156.9619 C   0  0  0  0  0  0  0  0  0  0  0  0
  151.1892  140.8690  156.7637 N   0  0  0  0  0  0  0  0  0  0  0  0
  150.5159  140.1518  155.6155 C   0  0  1  0  0  0  0  0  0  0  0  0
  151.5446  139.4192  154.7530 C   0  0  0  0  0  0  0  0  0  0  0  0
  150.7978  138.1454  154.4174 C   0  0  1  0  0  0  0  0  0  0  0  0
  151.6956  137.0979  154.1126 O   0  0  0  0  0  0  0  0  0  0  0  0
  150.0120  137.8873  155.7054 C   0  0  2  0  0  0  0  0  0  0  0  0
  148.7581  137.0251  155.4956 C   0  0  0  0  0  0  0  0  0  0  0  0
  149.0782  135.8853  154.7269 O   0  0  0  0  0  0  0  0  0  0  0  0
  149.6331  139.1970  156.1288 O   0  0  0  0  0  0  0  0  0  0  0  0
  151.9966  140.1403  157.6620 C   0  0  0  0  0  0  0  0  0  0  0  0
  152.1822  138.9277  157.5676 O   0  0  0  0  0  0  0  0  0  0  0  0
  152.5902  140.8557  158.7008 N   0  0  0  0  0  0  0  0  0  0  0  0
  152.4462  142.2258  158.9317 C   0  0  0  0  0  0  0  0  0  0  0  0
  153.0225  142.7445  159.8864 O   0  0  0  0  0  0  0  0  0  0  0  0
  153.1716  140.3385  159.3441 H   0  0  0  0  0  0  0  0  0  0  0  0
  150.7297  144.8374  157.3846 H   0  0  0  0  0  0  0  0  0  0  0  0
  152.3217  144.9510  158.1314 H   0  0  0  0  0  0  0  0  0  0  0  0
  150.8977  144.6185  159.1258 H   0  0  0  0  0  0  0  0  0  0  0  0
  150.3762  142.7705  156.2755 H   0  0  0  0  0  0  0  0  0  0  0  0
  149.9223  140.8787  155.0594 H   0  0  0  0  0  0  0  0  0  0  0  0
  151.8282  140.0115  153.8825 H   0  0  0  0  0  0  0  0  0  0  0  0
  152.4364  139.2034  155.3445 H   0  0  0  0  0  0  0  0  0  0  0  0
  150.1209  138.3185  153.5793 H   0  0  0  0  0  0  0  0  0  0  0  0
  151.4264  136.6974  153.2999 H   0  0  0  0  0  0  0  0  0  0  0  0
  150.6737  137.4432  156.4518 H   0  0  0  0  0  0  0  0  0  0  0  0
  148.3144  136.7313  156.4474 H   0  0  0  0  0  0  0  0  0  0  0  0
  148.0032  137.5879  154.9455 H   0  0  0  0  0  0  0  0  0  0  0  0
  149.1808  136.1501  153.8255 H   0  0  0  0  0  0  0  0  0  0  0  0
  1  2  1  0  0  0  0
  1 19  1  0  0  0  0
  1 20  1  0  0  0  0
  1 21  1  0  0  0  0
  2 16  1  0  0  0  0
  2  3  2  0  0  0  0
  3  4  1  0  0  0  0
  3 22  1  0  0  0  0
  4  5  1  0  0  0  0
  4 13  1  0  0  0  0
  5 12  1  0  0  0  0
  5  6  1  0  0  0  0
  5 23  1  0  0  0  0
  6  7  1  0  0  0  0
  6 24  1  0  0  0  0
  6 25  1  0  0  0  0
  7  8  1  0  0  0  0
  7  9  1  0  0  0  0
  7 26  1  0  0  0  0
  8 27  1  0  0  0  0
  9 10  1  0  0  0  0
  9 12  1  0  0  0  0
  9 28  1  0  0  0  0
 10 11  1  0  0  0  0
 10 29  1  0  0  0  0
 10 30  1  0  0  0  0
 11 31  1  0  0  0  0
 13 14  2  0  0  0  0
 13 15  1  0  0  0  0
 15 18  1  0  0  0  0
 15 16  1  0  0  0  0
 16 17  2  0  0  0  0
M  END
> <s_m_source_file>
AV-unprocessed.smi

> <i_m_source_file_index>
107

> <i_lp_mmshare_version>
43012

> <i_f3d_flags>
0

> <s_epik_input>
Tz1jMVtuSF1jKD1PKW4oW2NIXWMxW0NIM10pW0NAQEhdMltDSDJdW0NAQEhdKFtPSF0pW0NASF0oTzIpW0NIMl1bT0hd

> <s_epik_cmdline>
J2VwaWtfcHl0aG9uJywgJy1waCcsICc3LjAnLCAnLXRuJywgJzgnLCAnLW1hJywgJzIwMCcsICctbWV0YWxfYmluZGluZycsICctaW1hZScsICc8aW5maWxlLm1hZT4nLCAnLW9tYWUnLCAnPG91dGZpbGUubWFlPic=

> <r_lp_tautomer_probability>
0.999537

> <r_epik_Ionization_Penalty>
0.00121888

> <r_epik_Ionization_Penalty_Charging>
0.00121876

> <r_epik_Ionization_Penalty_Neutral>
1.19946e-07

> <r_epik_State_Penalty>
0.000805124

> <r_epik_Charging_Adjusted_Penalty>
0.00202389

> <i_epik_Tot_Q>
0

> <i_epik_Tot_abs_Q>
0

> <r_epik_Metal_State_Penalty>
0.662472

> <b_epik_Metal_Only>
0

> <s_epik_Chemistry_Notes>
This compound contains an acetal/aminal-like group ( X-CH(R)-Y where X, Y are N, S, or O) that may be acid/base labile, releasing an aldehyde.

> <s_lp_Force_Field>
OPLS_2005

> <r_lp_Energy>
25.0544

> <b_lp_Chiralities_Consistent>
1

> <s_lp_Variant>
AV-unprocessed.smi:107-6

> <Gold.Version>
5.8.1

> <Gold.Id.Protein>
6NUR|6NUR_protein|mol2

> <Gold.PLP.Fitness>
39.5889

> <Gold.PLP.PLP>
-29.1058

> <Gold.PLP.part.hbond>
-3.0000

> <Gold.PLP.part.metal>
0.0000

> <Gold.PLP.part.buried>
-3.2072

> <Gold.PLP.part.nonpolar>
-23.4609

> <Gold.PLP.part.repulsive>
0.0993

> <Gold.PLP.ligand.clash>
0.0000

> <Gold.PLP.ligand.torsion>
0.1274

> <Gold.PLP.Chemscore.Hbond>
2.5760

> <Gold.PLP.Chemscore.CHOScore>
1.0000

> <Gold.PLP.Chemscore.Metal>
0.0000

> <Gold.Chemscore.Hbonds>
donor molecule, donor type, donor heavy atom, donor atom, acceptor molecule, acceptor atom, score
      L1  H     8    27       P1  7949  1.00
      L1  H    11    31       P1  7948  1.00
      P1  H 10752 10764       L1     8  0.58
      L1  C     3    22       P1  8028  1.00

> <Gold.PLP.Chemscore.Internal.Correction>
0.0098

> <Gold.Rescore>
     Score         DG    S(hbond)    S(metal)    S(lipo)     H(rot)  DE(clash)    DE(int)     intcor
      9.67     -12.13       2.28        0.00      51.48       2.73       0.54       1.92       ----

> <Gold.Chemscore.Fitness>
9.6709

> <Gold.Chemscore.DG>
-12.1302

> <Gold.Chemscore.ZeroCoef>
-5.4800

> <Gold.Chemscore.Hbond>
2.2767

> <Gold.Chemscore.Metal>
0.0000

> <Gold.Chemscore.Lipo>
51.4773

> <Gold.Chemscore.Internal_Hbond>
0.0000

> <Gold.Chemscore.DEClash>
0.5420

> <Gold.Chemscore.DEInternal>
1.9173

> <Gold.Chemscore.Rot>
2.7253

> <Gold.Chemscore.Internal.Correction>
   9.000000E+99

> <Gold.Chemscore.Hbonds>
donor molecule, donor type, donor heavy atom, donor atom, acceptor molecule, acceptor atom, score
      L1  H     8    27       P1  7949  0.81
      L1  H    11    31       P1  7948  0.91
      P1  H 10752 10764       L1     8  0.06

> <Gold.Chemscore.Hbond.Weighted>
-7.6042

> <Gold.Chemscore.Metal.Weighted>
-0.0000

> <Gold.Chemscore.Lipo.Weighted>
-6.0228

> <Gold.Chemscore.Internal_Hbond.Weighted>
0.0000

> <Gold.Chemscore.DEClash.Weighted>
0.5420

> <Gold.Chemscore.DEInternal.Weighted>
1.9173

> <Gold.Chemscore.Rot.Weighted>
6.9769

> <Gold.Chemscore.Internal.Correction.Weighted>
   9.000000E+99

> <Gold.Protein.RotatedTorsions>
[ 6907 6896 6895 6894 ] final    1.17 input  -60.11 | X-H torsion
[ 7974 7965 7964 7962 ] final -172.38 input  175.53 | X-H torsion
[ 8008 7997 7996 7995 ] final  156.87 input   59.86 | X-H torsion
[ 10167 10162 10161 10158 ] final   17.96 input  -65.29 | X-H torsion
[ 10718 10713 10712 10709 ] final  -63.68 input   66.30 | X-H torsion
[ 10763 10752 10751 10750 ] final  -58.05 input  -60.55 | X-H torsion
[ 11005 11000 10999 10996 ] final  -37.19 input  -57.11 | X-H torsion

> <Gold.Protein.ActiveResidues>
 VAL166  LYS551  ARG553  GLY616  TRP617  ASP618  TYR619  PRO620  LYS621  CYS622 
 ASP623  PHE694  ASN695  SER759  ASP760  ASP761  ALA762  ILE779  LEU786  VAL792 
 PHE793  MET794  SER795  GLU796  ALA797  LYS798  CYS799  TRP800  GLU811  SER814 

> <Gold.Protein.RotatedAtoms>
  151.5882  135.1055  160.0032 H   0  0  0  0  0  0  0  0  0  0  0  0  # atno 6907 bound_to 6896
  152.4320  133.7289  159.6587 H   0  0  0  0  0  0  0  0  0  0  0  0  # atno 6908 bound_to 6896
  150.8213  133.8177  159.3160 H   0  0  0  0  0  0  0  0  0  0  0  0  # atno 6909 bound_to 6896
  144.7147  140.1781  143.6361 H   0  0  0  0  0  0  0  0  0  0  0  0  # atno 7974 bound_to 7965
  156.2397  140.1901  156.7021 H   0  0  0  0  0  0  0  0  0  0  0  0  # atno 8008 bound_to 7997
  154.6174  140.0613  156.9599 H   0  0  0  0  0  0  0  0  0  0  0  0  # atno 8009 bound_to 7997
  155.1917  140.3285  155.4360 H   0  0  0  0  0  0  0  0  0  0  0  0  # atno 8010 bound_to 7997
  140.5688  143.9200  150.6697 H   0  0  0  0  0  0  0  0  0  0  0  0  # atno 10167 bound_to 10162
  156.0776  130.4224  150.1312 H   0  0  0  0  0  0  0  0  0  0  0  0  # atno 10718 bound_to 10713
  154.2321  135.6359  153.5179 H   0  0  0  0  0  0  0  0  0  0  0  0  # atno 10763 bound_to 10752
  152.9947  135.5522  154.6001 H   0  0  0  0  0  0  0  0  0  0  0  0  # atno 10764 bound_to 10752
  154.5487  135.2900  155.1003 H   0  0  0  0  0  0  0  0  0  0  0  0  # atno 10765 bound_to 10752
  140.9933  133.6993  156.1888 H   0  0  0  0  0  0  0  0  0  0  0  0  # atno 11005 bound_to 11000
  145.8881  139.2360  143.1565 LP  0  0  0  0  0  0  0  0  0  0  0  0  # atno 17320 bound_to 7965
  145.9930  140.8586  143.0057 LP  0  0  0  0  0  0  0  0  0  0  0  0  # atno 17321 bound_to 7965
  140.2670  143.3483  152.1272 LP  0  0  0  0  0  0  0  0  0  0  0  0  # atno 17342 bound_to 10162
  139.5106  144.6888  151.5816 LP  0  0  0  0  0  0  0  0  0  0  0  0  # atno 17343 bound_to 10162
  156.9350  130.9726  151.3526 LP  0  0  0  0  0  0  0  0  0  0  0  0  # atno 17370 bound_to 10713
  157.5878  130.8422  149.8615 LP  0  0  0  0  0  0  0  0  0  0  0  0  # atno 17371 bound_to 10713
  140.7006  134.4568  157.5586 LP  0  0  0  0  0  0  0  0  0  0  0  0  # atno 17394 bound_to 11000
  139.9002  134.8573  156.1928 LP  0  0  0  0  0  0  0  0  0  0  0  0  # atno 17395 bound_to 11000

$$$$
