AV-unprocessed.smi:2062|AV-procd|sdf|8401|dock8
  -GOLD-   2272011 83D 1   1.00000     0.00000
 Structure written by MMmdl.
 42 43  0  0  0  0  0  0  0  0  1 V2000
  151.0113  137.0771  154.4435 C   0  0  0  0  0  0  0  0  0  0  0  0
  151.6393  138.4576  154.1943 C   0  0  0  0  0  0  0  0  0  0  0  0
  153.1252  138.4342  154.5927 C   0  0  0  0  0  0  0  0  0  0  0  0
  150.8600  139.5648  154.9427 C   0  0  0  0  0  0  0  0  0  0  0  0
  149.6879  140.0961  154.2450 N   0  0  0  0  0  0  0  0  0  0  0  0
  149.1892  141.3354  154.8349 C   0  0  0  0  0  0  0  0  0  0  0  0
  147.9353  141.8538  154.1100 C   0  0  0  0  0  0  0  0  0  0  0  0
  146.9331  140.8434  154.1079 O   0  0  0  0  0  0  0  0  0  0  0  0
  147.3622  139.6383  153.4784 C   0  0  2  0  0  0  0  0  0  0  0  0
  146.2020  138.6286  153.5134 C   0  0  0  0  0  0  0  0  0  0  0  0
  146.5008  137.4375  152.7255 N   0  0  0  0  0  0  0  0  0  0  0  0
  145.5852  136.5905  152.2346 C   0  0  0  0  0  0  0  0  0  0  0  0
  144.3724  136.7480  152.3744 O   0  0  0  0  0  0  0  0  0  0  0  0
  146.1661  135.5674  151.5872 N   0  0  0  0  0  0  0  0  0  0  0  0
  145.5327  134.4629  150.9655 C   0  0  0  0  0  0  0  0  0  0  0  0
  144.1999  134.3971  150.9693 N   0  0  0  0  0  0  0  0  0  0  0  0
  143.7288  133.2557  150.3138 C   0  0  0  0  0  0  0  0  0  0  0  0
  144.7257  132.4555  149.8132 C   0  0  0  0  0  0  0  0  0  0  0  0
  146.3086  133.1055  150.1452 S   0  0  0  0  0  0  0  0  0  0  0  0
  148.6080  139.1143  154.2194 C   0  0  0  0  0  0  0  0  0  0  0  0
  151.0310  136.8174  155.5023 H   0  0  0  0  0  0  0  0  0  0  0  0
  151.5445  136.2973  153.8992 H   0  0  0  0  0  0  0  0  0  0  0  0
  149.9722  137.0526  154.1135 H   0  0  0  0  0  0  0  0  0  0  0  0
  151.5744  138.6432  153.1212 H   0  0  0  0  0  0  0  0  0  0  0  0
  153.2462  138.2116  155.6534 H   0  0  0  0  0  0  0  0  0  0  0  0
  153.6129  139.3891  154.3998 H   0  0  0  0  0  0  0  0  0  0  0  0
  153.6680  137.6731  154.0314 H   0  0  0  0  0  0  0  0  0  0  0  0
  150.5189  139.1503  155.8925 H   0  0  0  0  0  0  0  0  0  0  0  0
  151.5340  140.3786  155.2157 H   0  0  0  0  0  0  0  0  0  0  0  0
  148.9580  141.1775  155.8895 H   0  0  0  0  0  0  0  0  0  0  0  0
  149.9559  142.1079  154.7914 H   0  0  0  0  0  0  0  0  0  0  0  0
  147.5469  142.7405  154.6110 H   0  0  0  0  0  0  0  0  0  0  0  0
  148.1727  142.1427  153.0848 H   0  0  0  0  0  0  0  0  0  0  0  0
  147.6273  139.8506  152.4411 H   0  0  0  0  0  0  0  0  0  0  0  0
  145.9778  138.3428  154.5427 H   0  0  0  0  0  0  0  0  0  0  0  0
  145.2955  139.0856  153.1154 H   0  0  0  0  0  0  0  0  0  0  0  0
  147.4764  137.2314  152.5669 H   0  0  0  0  0  0  0  0  0  0  0  0
  147.1745  135.5703  151.5469 H   0  0  0  0  0  0  0  0  0  0  0  0
  142.6634  133.0906  150.2491 H   0  0  0  0  0  0  0  0  0  0  0  0
  144.6255  131.5271  149.2708 H   0  0  0  0  0  0  0  0  0  0  0  0
  148.9543  138.2003  153.7352 H   0  0  0  0  0  0  0  0  0  0  0  0
  148.3348  138.8409  155.2401 H   0  0  0  0  0  0  0  0  0  0  0  0
  1  2  1  0  0  0  0
  1 21  1  0  0  0  0
  1 22  1  0  0  0  0
  1 23  1  0  0  0  0
  2  3  1  0  0  0  0
  2  4  1  0  0  0  0
  2 24  1  0  0  0  0
  3 25  1  0  0  0  0
  3 26  1  0  0  0  0
  3 27  1  0  0  0  0
  4  5  1  0  0  0  0
  4 28  1  0  0  0  0
  4 29  1  0  0  0  0
  5 20  1  0  0  0  0
  5  6  1  0  0  0  0
  6  7  1  0  0  0  0
  6 30  1  0  0  0  0
  6 31  1  0  0  0  0
  7  8  1  0  0  0  0
  7 32  1  0  0  0  0
  7 33  1  0  0  0  0
  8  9  1  0  0  0  0
  9 10  1  0  0  0  0
  9 20  1  0  0  0  0
  9 34  1  0  0  0  0
 10 11  1  0  0  0  0
 10 35  1  0  0  0  0
 10 36  1  0  0  0  0
 11 12  1  0  0  0  0
 11 37  1  0  0  0  0
 12 13  2  0  0  0  0
 12 14  1  0  0  0  0
 14 15  1  0  0  0  0
 14 38  1  0  0  0  0
 15 19  1  0  0  0  0
 15 16  2  0  0  0  0
 16 17  1  0  0  0  0
 17 18  2  0  0  0  0
 17 39  1  0  0  0  0
 18 19  1  0  0  0  0
 18 40  1  0  0  0  0
 20 41  1  0  0  0  0
 20 42  1  0  0  0  0
M  END
> <s_m_source_file>
AV-unprocessed.smi

> <i_m_source_file_index>
2062

> <i_lp_mmshare_version>
43012

> <i_f3d_flags>
0

> <s_epik_input>
W0NIM11bQ0hdKFtDSDNdKVtDSDJdTjFbQ0gyXVtDSDJdT1tDQEhdKFtDSDJdMSlbQ0gyXVtOSF1DKD1PKVtOSF1jMm5bY0hdW2NIXXMy

> <s_epik_cmdline>
J2VwaWtfcHl0aG9uJywgJy1waCcsICc3LjAnLCAnLXRuJywgJzgnLCAnLW1hJywgJzIwMCcsICctbWV0YWxfYmluZGluZycsICctaW1hZScsICc8aW5maWxlLm1hZT4nLCAnLW9tYWUnLCAnPG91dGZpbGUubWFlPic=

> <r_lp_tautomer_probability>
0.999

> <r_epik_Ionization_Penalty>
1.11227

> <r_epik_Ionization_Penalty_Charging>
0

> <r_epik_Ionization_Penalty_Neutral>
1.11227

> <r_epik_State_Penalty>
1.17021

> <r_epik_Charging_Adjusted_Penalty>
1.17021

> <i_epik_Tot_Q>
0

> <i_epik_Tot_abs_Q>
0

> <r_epik_Metal_State_Penalty>
1.22349

> <b_epik_Metal_Only>
0

> <s_lp_Force_Field>
OPLS_2005

> <r_lp_Energy>
23.0648

> <b_lp_Chiralities_Consistent>
1

> <s_lp_Variant>
AV-unprocessed.smi:2062-6

> <Gold.Version>
5.8.1

> <Gold.Id.Protein>
6NUR|6NUR_protein|mol2

> <Gold.PLP.Fitness>
46.1752

> <Gold.PLP.PLP>
-38.2668

> <Gold.PLP.part.hbond>
-2.7242

> <Gold.PLP.part.metal>
0.0000

> <Gold.PLP.part.buried>
-5.8212

> <Gold.PLP.part.nonpolar>
-32.1426

> <Gold.PLP.part.repulsive>
0.6790

> <Gold.PLP.ligand.clash>
0.0000

> <Gold.PLP.ligand.torsion>
0.5610

> <Gold.PLP.Chemscore.Hbond>
2.0000

> <Gold.PLP.Chemscore.CHOScore>
0.9985

> <Gold.PLP.Chemscore.Metal>
0.0000

> <Gold.Chemscore.Hbonds>
donor molecule, donor type, donor heavy atom, donor atom, acceptor molecule, acceptor atom, score
      L1  H    11    37       P1  7948  1.00
      L1  H    14    38       P1  7948  1.00
      L1  C    17    39       P1 10186  1.00

> <Gold.PLP.Chemscore.Internal.Correction>
0.0348

> <Gold.Rescore>
     Score         DG    S(hbond)    S(metal)    S(lipo)     H(rot)  DE(clash)    DE(int)     intcor
     16.29     -18.33       1.95        0.00      91.79       1.72       0.08       1.97       ----

> <Gold.Chemscore.Fitness>
16.2885

> <Gold.Chemscore.DG>
-18.3330

> <Gold.Chemscore.ZeroCoef>
-5.4800

> <Gold.Chemscore.Hbond>
1.9506

> <Gold.Chemscore.Metal>
0.0000

> <Gold.Chemscore.Lipo>
91.7930

> <Gold.Chemscore.Internal_Hbond>
0.0000

> <Gold.Chemscore.DEClash>
0.0773

> <Gold.Chemscore.DEInternal>
1.9672

> <Gold.Chemscore.Rot>
1.7195

> <Gold.Chemscore.Internal.Correction>
   9.000000E+99

> <Gold.Chemscore.Hbonds>
donor molecule, donor type, donor heavy atom, donor atom, acceptor molecule, acceptor atom, score
      L1  H    11    37       P1  7948  0.98
      L1  H    14    38       P1  7948  0.98

> <Gold.Chemscore.Hbond.Weighted>
-6.5151

> <Gold.Chemscore.Metal.Weighted>
-0.0000

> <Gold.Chemscore.Lipo.Weighted>
-10.7398

> <Gold.Chemscore.Internal_Hbond.Weighted>
0.0000

> <Gold.Chemscore.DEClash.Weighted>
0.0773

> <Gold.Chemscore.DEInternal.Weighted>
1.9672

> <Gold.Chemscore.Rot.Weighted>
4.4019

> <Gold.Chemscore.Internal.Correction.Weighted>
   9.000000E+99

> <Gold.Protein.RotatedTorsions>
[ 6907 6896 6895 6894 ] final  144.03 input  -60.11 | X-H torsion
[ 7974 7965 7964 7962 ] final  161.36 input  175.53 | X-H torsion
[ 8008 7997 7996 7995 ] final  175.23 input   59.86 | X-H torsion
[ 10167 10162 10161 10158 ] final  -11.57 input  -65.29 | X-H torsion
[ 10718 10713 10712 10709 ] final   56.30 input   66.30 | X-H torsion
[ 10763 10752 10751 10750 ] final -177.24 input  -60.55 | X-H torsion
[ 11005 11000 10999 10996 ] final  -22.62 input  -57.11 | X-H torsion

> <Gold.Protein.ActiveResidues>
 VAL166  LYS551  ARG553  GLY616  TRP617  ASP618  TYR619  PRO620  LYS621  CYS622 
 ASP623  PHE694  ASN695  SER759  ASP760  ASP761  ALA762  ILE779  LEU786  VAL792 
 PHE793  MET794  SER795  GLU796  ALA797  LYS798  CYS799  TRP800  GLU811  SER814 

> <Gold.Protein.RotatedAtoms>
  152.1988  133.4825  159.5046 H   0  0  0  0  0  0  0  0  0  0  0  0  # atno 6907 bound_to 6896
  150.6965  134.1618  159.4188 H   0  0  0  0  0  0  0  0  0  0  0  0  # atno 6908 bound_to 6896
  151.9535  135.0158  160.0594 H   0  0  0  0  0  0  0  0  0  0  0  0  # atno 6909 bound_to 6896
  144.7690  139.7886  143.6304 H   0  0  0  0  0  0  0  0  0  0  0  0  # atno 7974 bound_to 7965
  156.0892  140.1414  156.9614 H   0  0  0  0  0  0  0  0  0  0  0  0  # atno 8008 bound_to 7997
  154.4631  140.0936  156.6996 H   0  0  0  0  0  0  0  0  0  0  0  0  # atno 8009 bound_to 7997
  155.4948  140.3449  155.4363 H   0  0  0  0  0  0  0  0  0  0  0  0  # atno 8010 bound_to 7997
  140.7141  143.5625  150.9180 H   0  0  0  0  0  0  0  0  0  0  0  0  # atno 10167 bound_to 10162
  157.5419  130.8703  149.8834 H   0  0  0  0  0  0  0  0  0  0  0  0  # atno 10718 bound_to 10713
  154.5625  135.2821  155.0905 H   0  0  0  0  0  0  0  0  0  0  0  0  # atno 10763 bound_to 10752
  154.2308  135.6374  153.5178 H   0  0  0  0  0  0  0  0  0  0  0  0  # atno 10764 bound_to 10752
  153.0033  135.5537  154.6224 H   0  0  0  0  0  0  0  0  0  0  0  0  # atno 10765 bound_to 10752
  140.8674  133.7744  156.0146 H   0  0  0  0  0  0  0  0  0  0  0  0  # atno 11005 bound_to 11000
  146.1821  139.5019  142.9860 LP  0  0  0  0  0  0  0  0  0  0  0  0  # atno 17320 bound_to 7965
  145.6382  141.0290  143.1826 LP  0  0  0  0  0  0  0  0  0  0  0  0  # atno 17321 bound_to 7965
  139.9350  143.6448  152.3067 LP  0  0  0  0  0  0  0  0  0  0  0  0  # atno 17342 bound_to 10162
  139.6913  144.7646  151.1434 LP  0  0  0  0  0  0  0  0  0  0  0  0  # atno 17343 bound_to 10162
  156.0503  130.3719  150.1216 LP  0  0  0  0  0  0  0  0  0  0  0  0  # atno 17370 bound_to 10713
  156.9395  130.9740  151.3518 LP  0  0  0  0  0  0  0  0  0  0  0  0  # atno 17371 bound_to 10713
  140.8612  134.2838  157.5233 LP  0  0  0  0  0  0  0  0  0  0  0  0  # atno 17394 bound_to 11000
  139.8710  134.9519  156.4099 LP  0  0  0  0  0  0  0  0  0  0  0  0  # atno 17395 bound_to 11000

$$$$
