AV-unprocessed.smi:649|AV-procd|sdf|3181|dock10
  -GOLD-   22720 0103D 1   1.00000     0.00000
 Structure written by MMmdl.
 34 35  0  0  0  0  0  0  0  0  2 V2000
  154.1210  140.6985  160.8288 C   0  0  0  0  0  0  0  0  0  0  0  0
  153.1861  141.8500  160.5231 C   0  0  0  0  0  0  0  0  0  0  0  0
  153.0747  142.9331  161.4134 C   0  0  0  0  0  0  0  0  0  0  0  0
  152.2160  144.0045  161.1099 C   0  0  0  0  0  0  0  0  0  0  0  0
  151.4621  144.0132  159.9162 C   0  0  0  0  0  0  0  0  0  0  0  0
  150.5685  145.2141  159.6507 C   0  0  0  0  0  0  0  0  0  0  0  0
  151.5669  142.9176  159.0129 C   0  0  0  0  0  0  0  0  0  0  0  0
  150.8211  142.8441  157.6753 C   0  0  1  0  0  0  0  0  0  0  0  0
  151.0521  143.9562  156.8352 O   0  0  0  0  0  0  0  0  0  0  0  0
  151.0678  141.5356  156.8854 C   0  0  0  0  0  0  0  0  0  0  0  0
  149.9797  141.2261  155.9442 N   0  0  0  0  0  0  0  0  0  0  0  0
  148.7600  141.9072  156.1025 C   0  0  0  0  0  0  0  0  0  0  0  0
  147.7227  141.7202  155.2642 C   0  0  0  0  0  0  0  0  0  0  0  0
  146.2420  142.5851  155.4737 Cl  0  0  0  0  0  0  0  0  0  0  0  0
  147.8905  140.7697  154.1669 C   0  0  0  0  0  0  0  0  0  0  0  0
  146.9627  140.5739  153.3832 O   0  0  0  0  0  0  0  0  0  0  0  0
  149.0923  140.1304  154.0598 N   0  5  0  0  0  0  0  0  0  0  0  0
  150.1381  140.3395  154.9176 C   0  0  0  0  0  0  0  0  0  0  0  0
  151.2183  139.7623  154.7923 O   0  0  0  0  0  0  0  0  0  0  0  0
  152.4318  141.8467  159.3348 C   0  0  0  0  0  0  0  0  0  0  0  0
  154.3687  140.6630  161.8899 H   0  0  0  0  0  0  0  0  0  0  0  0
  155.0464  140.8074  160.2627 H   0  0  0  0  0  0  0  0  0  0  0  0
  153.6614  139.7481  160.5562 H   0  0  0  0  0  0  0  0  0  0  0  0
  153.6494  142.9495  162.3278 H   0  0  0  0  0  0  0  0  0  0  0  0
  152.1444  144.8299  161.8028 H   0  0  0  0  0  0  0  0  0  0  0  0
  149.5185  144.9400  159.7507 H   0  0  0  0  0  0  0  0  0  0  0  0
  150.7326  145.6204  158.6549 H   0  0  0  0  0  0  0  0  0  0  0  0
  150.7669  146.0168  160.3612 H   0  0  0  0  0  0  0  0  0  0  0  0
  149.7549  142.8878  157.9004 H   0  0  0  0  0  0  0  0  0  0  0  0
  150.2534  144.1443  156.3668 H   0  0  0  0  0  0  0  0  0  0  0  0
  152.0198  141.5954  156.3551 H   0  0  0  0  0  0  0  0  0  0  0  0
  151.1929  140.6996  157.5722 H   0  0  0  0  0  0  0  0  0  0  0  0
  148.7252  142.5985  156.9317 H   0  0  0  0  0  0  0  0  0  0  0  0
  152.5347  141.0162  158.6512 H   0  0  0  0  0  0  0  0  0  0  0  0
  1  2  1  0  0  0  0
  1 21  1  0  0  0  0
  1 22  1  0  0  0  0
  1 23  1  0  0  0  0
  2 20  1  0  0  0  0
  2  3  2  0  0  0  0
  3  4  1  0  0  0  0
  3 24  1  0  0  0  0
  4  5  2  0  0  0  0
  4 25  1  0  0  0  0
  5  6  1  0  0  0  0
  5  7  1  0  0  0  0
  6 26  1  0  0  0  0
  6 27  1  0  0  0  0
  6 28  1  0  0  0  0
  7  8  1  0  0  0  0
  7 20  2  0  0  0  0
  8  9  1  0  0  0  0
  8 10  1  0  0  0  0
  8 29  1  0  0  0  0
  9 30  1  0  0  0  0
 10 11  1  0  0  0  0
 10 31  1  0  0  0  0
 10 32  1  0  0  0  0
 11 18  1  0  0  0  0
 11 12  1  0  0  0  0
 12 13  2  0  0  0  0
 12 33  1  0  0  0  0
 13 14  1  0  0  0  0
 13 15  1  0  0  0  0
 15 16  2  0  0  0  0
 15 17  1  0  0  0  0
 17 18  1  0  0  0  0
 18 19  2  0  0  0  0
 20 34  1  0  0  0  0
M  CHG  1  17  -1
M  END
> <s_m_source_file>
AV-unprocessed.smi

> <i_m_source_file_index>
649

> <i_lp_mmshare_version>
43012

> <i_f3d_flags>
0

> <s_epik_input>
W0NIM11jMVtjSF1bY0hdYyhbQ0gzXSljKFtjSF0xKVtDQEhdKFtPSF0pW0NIMl1uMltjSF1jKENsKWMoPU8pW25IXWMyPU8=

> <s_epik_cmdline>
J2VwaWtfcHl0aG9uJywgJy1waCcsICc3LjAnLCAnLXRuJywgJzgnLCAnLW1hJywgJzIwMCcsICctbWV0YWxfYmluZGluZycsICctaW1hZScsICc8aW5maWxlLm1hZT4nLCAnLW9tYWUnLCAnPG91dGZpbGUubWFlPic=

> <r_epik_Ionization_Penalty>
1.7979

> <r_epik_Ionization_Penalty_Charging>
3.23819e-08

> <r_epik_Ionization_Penalty_Neutral>
1.7979

> <r_epik_State_Penalty>
1.91135

> <r_epik_Charging_Adjusted_Penalty>
1.91135

> <i_epik_Tot_Q>
-1

> <i_epik_Tot_abs_Q>
1

> <r_epik_Metal_State_Penalty>
0.014155

> <b_epik_Metal_Only>
0

> <s_lp_Force_Field>
OPLS_2005

> <r_lp_Energy>
20.3663

> <b_lp_Chiralities_Consistent>
1

> <s_lp_Variant>
AV-unprocessed.smi:649-4

> <Gold.Version>
5.8.1

> <Gold.Id.Protein>
6NUR|6NUR_protein|mol2

> <Gold.PLP.Fitness>
48.2224

> <Gold.PLP.PLP>
-43.2137

> <Gold.PLP.part.hbond>
-2.0000

> <Gold.PLP.part.metal>
0.0000

> <Gold.PLP.part.buried>
-5.2486

> <Gold.PLP.part.nonpolar>
-37.0254

> <Gold.PLP.part.repulsive>
1.1935

> <Gold.PLP.ligand.clash>
0.0000

> <Gold.PLP.ligand.torsion>
0.4273

> <Gold.PLP.Chemscore.Hbond>
1.5500

> <Gold.PLP.Chemscore.CHOScore>
0.3804

> <Gold.PLP.Chemscore.Metal>
0.0000

> <Gold.Chemscore.Hbonds>
donor molecule, donor type, donor heavy atom, donor atom, acceptor molecule, acceptor atom, score
      L1  H     9    30       P1  8028  1.00
      P1  H  7989  7998       L1    19  0.50
      L1  C    12    33       P1  8028  0.38

> <Gold.PLP.Chemscore.Internal.Correction>
0.0719

> <Gold.Rescore>
     Score         DG    S(hbond)    S(metal)    S(lipo)     H(rot)  DE(clash)    DE(int)     intcor
     17.95     -18.67       1.85        0.00     105.57       2.09       0.17       0.54       ----

> <Gold.Chemscore.Fitness>
17.9524

> <Gold.Chemscore.DG>
-18.6651

> <Gold.Chemscore.ZeroCoef>
-5.4800

> <Gold.Chemscore.Hbond>
1.8488

> <Gold.Chemscore.Metal>
0.0000

> <Gold.Chemscore.Lipo>
105.5748

> <Gold.Chemscore.Internal_Hbond>
0.0000

> <Gold.Chemscore.DEClash>
0.1737

> <Gold.Chemscore.DEInternal>
0.5390

> <Gold.Chemscore.Rot>
2.0868

> <Gold.Chemscore.Internal.Correction>
   9.000000E+99

> <Gold.Chemscore.Hbonds>
donor molecule, donor type, donor heavy atom, donor atom, acceptor molecule, acceptor atom, score
      L1  H     9    30       P1  8028  0.99
      P1  H  7989  7998       L1    19  0.02

> <Gold.Chemscore.Hbond.Weighted>
-6.1751

> <Gold.Chemscore.Metal.Weighted>
-0.0000

> <Gold.Chemscore.Lipo.Weighted>
-12.3522

> <Gold.Chemscore.Internal_Hbond.Weighted>
0.0000

> <Gold.Chemscore.DEClash.Weighted>
0.1737

> <Gold.Chemscore.DEInternal.Weighted>
0.5390

> <Gold.Chemscore.Rot.Weighted>
5.3423

> <Gold.Chemscore.Internal.Correction.Weighted>
   9.000000E+99

> <Gold.Protein.RotatedTorsions>
[ 6907 6896 6895 6894 ] final  -52.40 input  -60.11 | X-H torsion
[ 7974 7965 7964 7962 ] final  -89.16 input  175.53 | X-H torsion
[ 8008 7997 7996 7995 ] final   45.22 input   59.86 | X-H torsion
[ 10167 10162 10161 10158 ] final  -63.14 input  -65.29 | X-H torsion
[ 10718 10713 10712 10709 ] final  -73.48 input   66.30 | X-H torsion
[ 10763 10752 10751 10750 ] final  -20.21 input  -60.55 | X-H torsion
[ 11005 11000 10999 10996 ] final  -65.25 input  -57.11 | X-H torsion

> <Gold.Protein.ActiveResidues>
 VAL166  LYS551  ARG553  GLY616  TRP617  ASP618  TYR619  PRO620  LYS621  CYS622 
 ASP623  PHE694  ASN695  SER759  ASP760  ASP761  ALA762  ILE779  LEU786  VAL792 
 PHE793  MET794  SER795  GLU796  ALA797  LYS798  CYS799  TRP800  GLU811  SER814 

> <Gold.Protein.RotatedAtoms>
  150.8521  134.7849  159.7016 H   0  0  0  0  0  0  0  0  0  0  0  0  # atno 6907 bound_to 6896
  152.4583  134.5239  159.9800 H   0  0  0  0  0  0  0  0  0  0  0  0  # atno 6908 bound_to 6896
  151.5358  133.3403  159.2962 H   0  0  0  0  0  0  0  0  0  0  0  0  # atno 6909 bound_to 6896
  145.4436  140.9559  143.2061 H   0  0  0  0  0  0  0  0  0  0  0  0  # atno 7974 bound_to 7965
  155.3322  140.3403  155.4239 H   0  0  0  0  0  0  0  0  0  0  0  0  # atno 8008 bound_to 7997
  156.1856  140.1679  156.8229 H   0  0  0  0  0  0  0  0  0  0  0  0  # atno 8009 bound_to 7997
  154.5382  140.0730  156.8447 H   0  0  0  0  0  0  0  0  0  0  0  0  # atno 8010 bound_to 7997
  140.5891  143.2338  151.6178 H   0  0  0  0  0  0  0  0  0  0  0  0  # atno 10167 bound_to 10162
  156.0279  130.4395  150.2748 H   0  0  0  0  0  0  0  0  0  0  0  0  # atno 10718 bound_to 10713
  153.6169  135.6994  153.5325 H   0  0  0  0  0  0  0  0  0  0  0  0  # atno 10763 bound_to 10752
  153.2970  135.4140  155.1218 H   0  0  0  0  0  0  0  0  0  0  0  0  # atno 10764 bound_to 10752
  154.8551  135.3639  154.5709 H   0  0  0  0  0  0  0  0  0  0  0  0  # atno 10765 bound_to 10752
  141.1449  133.6678  156.5957 H   0  0  0  0  0  0  0  0  0  0  0  0  # atno 11005 bound_to 11000
  144.8106  139.5969  143.7031 LP  0  0  0  0  0  0  0  0  0  0  0  0  # atno 17320 bound_to 7965
  146.2543  139.6268  142.9406 LP  0  0  0  0  0  0  0  0  0  0  0  0  # atno 17321 bound_to 7965
  139.5216  144.3187  152.0929 LP  0  0  0  0  0  0  0  0  0  0  0  0  # atno 17342 bound_to 10162
  140.2349  144.4330  150.6284 LP  0  0  0  0  0  0  0  0  0  0  0  0  # atno 17343 bound_to 10162
  157.0851  131.0154  151.3142 LP  0  0  0  0  0  0  0  0  0  0  0  0  # atno 17370 bound_to 10713
  157.4897  130.7814  149.7495 LP  0  0  0  0  0  0  0  0  0  0  0  0  # atno 17371 bound_to 10713
  140.3728  134.7591  157.4610 LP  0  0  0  0  0  0  0  0  0  0  0  0  # atno 17394 bound_to 11000
  140.0697  134.5879  155.8655 LP  0  0  0  0  0  0  0  0  0  0  0  0  # atno 17395 bound_to 11000

$$$$
