AV-unprocessed.smi:1536|AV-procd|sdf|6188|dock5
  -GOLD-   22720 6353D 1   1.00000     0.00000
 Structure written by MMmdl.
 48 49  0  0  0  0  0  0  0  0  2 V2000
  144.3160  134.2253  151.2129 C   0  0  0  0  0  0  0  0  0  0  0  0
  145.4425  133.5418  150.4178 C   0  0  2  0  0  0  0  0  0  0  0  0
  145.1148  132.0796  150.0601 C   0  0  0  0  0  0  0  0  0  0  0  0
  145.2092  131.1466  151.2803 C   0  0  0  0  0  0  0  0  0  0  0  0
  146.5444  131.2554  151.9255 N   0  3  2  0  0  0  0  0  0  0  0  0
  146.8569  130.1833  152.9236 C   0  0  2  0  0  0  0  0  0  0  0  0
  148.3639  130.0971  153.3131 C   0  0  0  0  0  0  0  0  0  0  0  0
  148.7728  131.0232  154.3656 N   0  0  0  0  0  0  0  0  0  0  0  0
  149.9443  130.9792  155.0182 C   0  0  0  0  0  0  0  0  0  0  0  0
  150.7929  130.1104  154.8135 O   0  0  0  0  0  0  0  0  0  0  0  0
  150.1638  132.0743  156.0686 C   0  0  0  0  0  0  0  0  0  0  0  0
  151.4136  131.9161  156.7913 N   0  0  0  0  0  0  0  0  0  0  0  0
  152.6463  131.6369  156.3626 C   0  0  0  0  0  0  0  0  0  0  0  0
  153.5127  131.5897  157.3628 N   0  0  0  0  0  0  0  0  0  0  0  0
  152.7285  131.8624  158.4712 N   0  0  0  0  0  0  0  0  0  0  0  0
  151.4819  132.0572  158.1383 N   0  0  0  0  0  0  0  0  0  0  0  0
  146.2903  128.8205  152.4283 C   0  0  0  0  0  0  0  0  0  0  0  0
  146.2074  127.7822  153.5655 C   0  0  0  0  0  0  0  0  0  0  0  0
  147.1037  128.2188  151.2662 C   0  0  0  0  0  0  0  0  0  0  0  0
  146.8648  132.6466  152.3426 C   0  0  0  0  0  0  0  0  0  0  0  0
  146.8021  133.6031  151.1392 C   0  0  0  0  0  0  0  0  0  0  0  0
  144.1305  133.7374  152.1696 H   0  0  0  0  0  0  0  0  0  0  0  0
  143.3815  134.2142  150.6515 H   0  0  0  0  0  0  0  0  0  0  0  0
  144.5602  135.2682  151.4171 H   0  0  0  0  0  0  0  0  0  0  0  0
  145.5407  134.0956  149.4832 H   0  0  0  0  0  0  0  0  0  0  0  0
  144.1220  132.0130  149.6137 H   0  0  0  0  0  0  0  0  0  0  0  0
  145.8125  131.7337  149.2961 H   0  0  0  0  0  0  0  0  0  0  0  0
  144.4189  131.3880  151.9882 H   0  0  0  0  0  0  0  0  0  0  0  0
  145.0368  130.1206  150.9533 H   0  0  0  0  0  0  0  0  0  0  0  0
  146.3030  130.4182  153.8337 H   0  0  0  0  0  0  0  0  0  0  0  0
  148.6167  129.0918  153.6500 H   0  0  0  0  0  0  0  0  0  0  0  0
  148.9917  130.2805  152.4408 H   0  0  0  0  0  0  0  0  0  0  0  0
  148.1322  131.7705  154.5919 H   0  0  0  0  0  0  0  0  0  0  0  0
  150.1530  133.0550  155.5904 H   0  0  0  0  0  0  0  0  0  0  0  0
  149.3426  132.0542  156.7861 H   0  0  0  0  0  0  0  0  0  0  0  0
  152.9068  131.4731  155.3274 H   0  0  0  0  0  0  0  0  0  0  0  0
  145.2767  128.9791  152.0591 H   0  0  0  0  0  0  0  0  0  0  0  0
  147.1860  127.6048  154.0125 H   0  0  0  0  0  0  0  0  0  0  0  0
  145.8363  126.8253  153.1972 H   0  0  0  0  0  0  0  0  0  0  0  0
  145.5284  128.0957  154.3586 H   0  0  0  0  0  0  0  0  0  0  0  0
  148.1594  128.1292  151.5242 H   0  0  0  0  0  0  0  0  0  0  0  0
  147.0260  128.8175  150.3593 H   0  0  0  0  0  0  0  0  0  0  0  0
  146.7428  127.2225  151.0084 H   0  0  0  0  0  0  0  0  0  0  0  0
  146.1746  132.9810  153.1169 H   0  0  0  0  0  0  0  0  0  0  0  0
  147.8647  132.6838  152.7748 H   0  0  0  0  0  0  0  0  0  0  0  0
  147.5922  133.3371  150.4353 H   0  0  0  0  0  0  0  0  0  0  0  0
  147.0150  134.6236  151.4598 H   0  0  0  0  0  0  0  0  0  0  0  0
  147.1859  131.0615  151.1697 H   0  0  0  0  0  0  0  0  0  0  0  0
  1  2  1  0  0  0  0
  1 22  1  0  0  0  0
  1 23  1  0  0  0  0
  1 24  1  0  0  0  0
  2 21  1  0  0  0  0
  2  3  1  0  0  0  0
  2 25  1  0  0  0  0
  3  4  1  0  0  0  0
  3 26  1  0  0  0  0
  3 27  1  0  0  0  0
  4  5  1  0  0  0  0
  4 28  1  0  0  0  0
  4 29  1  0  0  0  0
  5  6  1  0  0  0  0
  5 20  1  0  0  0  0
  5 48  1  0  0  0  0
  6  7  1  0  0  0  0
  6 17  1  0  0  0  0
  6 30  1  0  0  0  0
  7  8  1  0  0  0  0
  7 31  1  0  0  0  0
  7 32  1  0  0  0  0
  8  9  1  0  0  0  0
  8 33  1  0  0  0  0
  9 10  2  0  0  0  0
  9 11  1  0  0  0  0
 11 12  1  0  0  0  0
 11 34  1  0  0  0  0
 11 35  1  0  0  0  0
 12 16  1  0  0  0  0
 12 13  1  0  0  0  0
 13 14  2  0  0  0  0
 13 36  1  0  0  0  0
 14 15  1  0  0  0  0
 15 16  2  0  0  0  0
 17 18  1  0  0  0  0
 17 19  1  0  0  0  0
 17 37  1  0  0  0  0
 18 38  1  0  0  0  0
 18 39  1  0  0  0  0
 18 40  1  0  0  0  0
 19 41  1  0  0  0  0
 19 42  1  0  0  0  0
 19 43  1  0  0  0  0
 20 21  1  0  0  0  0
 20 44  1  0  0  0  0
 20 45  1  0  0  0  0
 21 46  1  0  0  0  0
 21 47  1  0  0  0  0
M  CHG  1   5   1
M  END
> <s_m_source_file>
AV-unprocessed.smi

> <i_m_source_file_index>
1536

> <i_lp_mmshare_version>
43012

> <i_f3d_flags>
0

> <s_epik_input>
W0NIM11bQ0hdMVtDSDJdW0NIMl1OKFtDSDJdW0NIMl0xKVtDQEBIXShbQ0hdKFtDSDNdKVtDSDNdKVtDSDJdW05IXUMoPU8pW0NIMl1uMltjSF1ubm4y

> <s_epik_cmdline>
J2VwaWtfcHl0aG9uJywgJy1waCcsICc3LjAnLCAnLXRuJywgJzgnLCAnLW1hJywgJzIwMCcsICctbWV0YWxfYmluZGluZycsICctaW1hZScsICc8aW5maWxlLm1hZT4nLCAnLW9tYWUnLCAnPG91dGZpbGUubWFlPic=

> <r_lp_tautomer_probability>
1

> <r_epik_Ionization_Penalty>
0.00109671

> <r_epik_Ionization_Penalty_Charging>
0.00109273

> <r_epik_Ionization_Penalty_Neutral>
3.97951e-06

> <r_epik_State_Penalty>
0.000716588

> <r_epik_Charging_Adjusted_Penalty>
0.00180932

> <i_epik_Tot_Q>
1

> <i_epik_Tot_abs_Q>
1

> <r_epik_Metal_State_Penalty>
-0

> <b_epik_Metal_Only>
0

> <s_lp_Force_Field>
OPLS_2005

> <r_lp_Energy>
37.5817

> <b_lp_Chiralities_Consistent>
1

> <s_lp_Variant>
AV-unprocessed.smi:1536-3

> <Gold.Version>
5.8.1

> <Gold.Id.Protein>
6NUR|6NUR_protein|mol2

> <Gold.PLP.Fitness>
41.2419

> <Gold.PLP.PLP>
-36.7981

> <Gold.PLP.part.hbond>
-3.0000

> <Gold.PLP.part.metal>
0.0000

> <Gold.PLP.part.buried>
-4.7743

> <Gold.PLP.part.nonpolar>
-28.1887

> <Gold.PLP.part.repulsive>
0.0565

> <Gold.PLP.ligand.clash>
0.0000

> <Gold.PLP.ligand.torsion>
0.9037

> <Gold.PLP.Chemscore.Hbond>
1.9600

> <Gold.PLP.Chemscore.CHOScore>
0.0000

> <Gold.PLP.Chemscore.Metal>
0.0000

> <Gold.Chemscore.Hbonds>
donor molecule, donor type, donor heavy atom, donor atom, acceptor molecule, acceptor atom, score
      L1  H     5    48       P1 10747  1.00
      P1  H  6896  6907       L1    16  0.80

> <Gold.PLP.Chemscore.Internal.Correction>
0.3712

> <Gold.Rescore>
     Score         DG    S(hbond)    S(metal)    S(lipo)     H(rot)  DE(clash)    DE(int)     intcor
     10.60     -12.80       1.18        0.00      89.58       2.77       0.01       2.20       ----

> <Gold.Chemscore.Fitness>
10.5978

> <Gold.Chemscore.DG>
-12.8037

> <Gold.Chemscore.ZeroCoef>
-5.4800

> <Gold.Chemscore.Hbond>
1.1787

> <Gold.Chemscore.Metal>
0.0000

> <Gold.Chemscore.Lipo>
89.5756

> <Gold.Chemscore.Internal_Hbond>
0.0000

> <Gold.Chemscore.DEClash>
0.0106

> <Gold.Chemscore.DEInternal>
2.1952

> <Gold.Chemscore.Rot>
2.7709

> <Gold.Chemscore.Internal.Correction>
   9.000000E+99

> <Gold.Chemscore.Hbonds>
donor molecule, donor type, donor heavy atom, donor atom, acceptor molecule, acceptor atom, score
      L1  H     5    48       P1 10747  0.94
      P1  H  6896  6907       L1    16  0.11

> <Gold.Chemscore.Hbond.Weighted>
-3.9368

> <Gold.Chemscore.Metal.Weighted>
-0.0000

> <Gold.Chemscore.Lipo.Weighted>
-10.4803

> <Gold.Chemscore.Internal_Hbond.Weighted>
0.0000

> <Gold.Chemscore.DEClash.Weighted>
0.0106

> <Gold.Chemscore.DEInternal.Weighted>
2.1952

> <Gold.Chemscore.Rot.Weighted>
7.0935

> <Gold.Chemscore.Internal.Correction.Weighted>
   9.000000E+99

> <Gold.Protein.RotatedTorsions>
[ 6907 6896 6895 6894 ] final -150.87 input  -60.11 | X-H torsion
[ 7974 7965 7964 7962 ] final   71.62 input  175.53 | X-H torsion
[ 8008 7997 7996 7995 ] final  -85.34 input   59.86 | X-H torsion
[ 10167 10162 10161 10158 ] final -179.50 input  -65.29 | X-H torsion
[ 10718 10713 10712 10709 ] final  138.58 input   66.30 | X-H torsion
[ 10763 10752 10751 10750 ] final -165.46 input  -60.55 | X-H torsion
[ 11005 11000 10999 10996 ] final  163.42 input  -57.11 | X-H torsion

> <Gold.Protein.ActiveResidues>
 VAL166  LYS551  ARG553  GLY616  TRP617  ASP618  TYR619  PRO620  LYS621  CYS622 
 ASP623  PHE694  ASN695  SER759  ASP760  ASP761  ALA762  ILE779  LEU786  VAL792 
 PHE793  MET794  SER795  GLU796  ALA797  LYS798  CYS799  TRP800  GLU811  SER814 

> <Gold.Protein.RotatedAtoms>
  151.2049  133.4589  159.2596 H   0  0  0  0  0  0  0  0  0  0  0  0  # atno 6907 bound_to 6896
  151.1033  134.9985  159.8469 H   0  0  0  0  0  0  0  0  0  0  0  0  # atno 6908 bound_to 6896
  152.5445  134.1974  159.8751 H   0  0  0  0  0  0  0  0  0  0  0  0  # atno 6909 bound_to 6896
  145.7635  139.2811  143.1362 H   0  0  0  0  0  0  0  0  0  0  0  0  # atno 7974 bound_to 7965
  154.6396  140.0593  156.9830 H   0  0  0  0  0  0  0  0  0  0  0  0  # atno 8008 bound_to 7997
  155.1537  140.3276  155.4407 H   0  0  0  0  0  0  0  0  0  0  0  0  # atno 8009 bound_to 7997
  156.2524  140.1943  156.6648 H   0  0  0  0  0  0  0  0  0  0  0  0  # atno 8010 bound_to 7997
  139.5383  144.2434  152.0842 H   0  0  0  0  0  0  0  0  0  0  0  0  # atno 10167 bound_to 10162
  157.4238  131.1041  151.0325 H   0  0  0  0  0  0  0  0  0  0  0  0  # atno 10718 bound_to 10713
  154.6929  135.2974  154.9453 H   0  0  0  0  0  0  0  0  0  0  0  0  # atno 10763 bound_to 10752
  154.0410  135.6657  153.4794 H   0  0  0  0  0  0  0  0  0  0  0  0  # atno 10764 bound_to 10752
  153.0625  135.5107  154.8031 H   0  0  0  0  0  0  0  0  0  0  0  0  # atno 10765 bound_to 10752
  140.2356  134.8090  157.3361 H   0  0  0  0  0  0  0  0  0  0  0  0  # atno 11005 bound_to 11000
  146.0240  140.8321  142.9909 LP  0  0  0  0  0  0  0  0  0  0  0  0  # atno 17320 bound_to 7965
  144.6826  140.2671  143.7311 LP  0  0  0  0  0  0  0  0  0  0  0  0  # atno 17321 bound_to 7965
  140.1908  144.4754  150.6480 LP  0  0  0  0  0  0  0  0  0  0  0  0  # atno 17342 bound_to 10162
  140.6601  143.2249  151.5875 LP  0  0  0  0  0  0  0  0  0  0  0  0  # atno 17343 bound_to 10162
  157.1245  130.6076  149.5513 LP  0  0  0  0  0  0  0  0  0  0  0  0  # atno 17370 bound_to 10713
  155.9889  130.4935  150.7192 LP  0  0  0  0  0  0  0  0  0  0  0  0  # atno 17371 bound_to 10713
  140.1705  134.4614  155.7835 LP  0  0  0  0  0  0  0  0  0  0  0  0  # atno 17394 bound_to 11000
  141.2214  133.6940  156.7700 LP  0  0  0  0  0  0  0  0  0  0  0  0  # atno 17395 bound_to 11000

$$$$
