AV-unprocessed.smi:2355|AV-procd|sdf|9387|dock9
  -GOLD-   2272013 23D 1   1.00000     0.00000
 Structure written by MMmdl.
 48 49  0  0  0  0  0  0  0  0  1 V2000
  153.8274  139.4536  159.8192 C   0  0  0  0  0  0  0  0  0  0  0  0
  153.0327  140.7424  159.7958 C   0  0  0  0  0  0  0  0  0  0  0  0
  153.1445  141.6796  160.8405 C   0  0  0  0  0  0  0  0  0  0  0  0
  152.3786  142.8590  160.7606 C   0  0  0  0  0  0  0  0  0  0  0  0
  152.4467  143.9064  161.8519 C   0  0  0  0  0  0  0  0  0  0  0  0
  151.5458  143.1283  159.7325 N   0  0  0  0  0  0  0  0  0  0  0  0
  151.4307  142.2333  158.7202 C   0  0  0  0  0  0  0  0  0  0  0  0
  150.5847  142.4216  157.5954 N   0  0  0  0  0  0  0  0  0  0  0  0
  150.0320  141.4843  156.8057 C   0  0  0  0  0  0  0  0  0  0  0  0
  150.1699  140.2676  156.9382 O   0  0  0  0  0  0  0  0  0  0  0  0
  149.2927  142.0433  155.8361 N   0  0  0  0  0  0  0  0  0  0  0  0
  148.5495  141.3129  154.8102 C   0  0  2  0  0  0  0  0  0  0  0  0
  147.7075  142.3133  153.9988 C   0  0  0  0  0  0  0  0  0  0  0  0
  147.7084  140.1434  155.4196 C   0  0  1  0  0  0  0  0  0  0  0  0
  146.4609  140.7108  156.1465 C   0  0  0  0  0  0  0  0  0  0  0  0
  147.3767  139.0717  154.4506 N   0  0  0  0  0  0  0  0  0  0  0  0
  146.7118  139.5851  153.2474 C   0  0  0  0  0  0  0  0  0  0  0  0
  146.3475  138.4739  152.2478 C   0  0  0  0  0  0  0  0  0  0  0  0
  145.5213  137.5095  152.8853 O   0  0  0  0  0  0  0  0  0  0  0  0
  146.1549  136.9288  154.0168 C   0  0  0  0  0  0  0  0  0  0  0  0
  146.5224  138.0278  155.0284 C   0  0  0  0  0  0  0  0  0  0  0  0
  152.1648  141.0259  158.7220 C   0  0  0  0  0  0  0  0  0  0  0  0
  154.3861  139.3497  160.7499 H   0  0  0  0  0  0  0  0  0  0  0  0
  154.5361  139.4319  158.9911 H   0  0  0  0  0  0  0  0  0  0  0  0
  153.1609  138.5961  159.7255 H   0  0  0  0  0  0  0  0  0  0  0  0
  153.7983  141.4992  161.6813 H   0  0  0  0  0  0  0  0  0  0  0  0
  153.3210  143.7569  162.4861 H   0  0  0  0  0  0  0  0  0  0  0  0
  151.5561  143.8552  162.4786 H   0  0  0  0  0  0  0  0  0  0  0  0
  152.5078  144.9067  161.4216 H   0  0  0  0  0  0  0  0  0  0  0  0
  150.3792  143.3820  157.3638 H   0  0  0  0  0  0  0  0  0  0  0  0
  149.2357  143.0506  155.8034 H   0  0  0  0  0  0  0  0  0  0  0  0
  149.3080  140.9138  154.1379 H   0  0  0  0  0  0  0  0  0  0  0  0
  147.1735  141.8166  153.1886 H   0  0  0  0  0  0  0  0  0  0  0  0
  148.3402  143.0787  153.5481 H   0  0  0  0  0  0  0  0  0  0  0  0
  146.9710  142.8229  154.6202 H   0  0  0  0  0  0  0  0  0  0  0  0
  148.3285  139.6915  156.1955 H   0  0  0  0  0  0  0  0  0  0  0  0
  146.6982  141.5610  156.7848 H   0  0  0  0  0  0  0  0  0  0  0  0
  146.0074  139.9738  156.8080 H   0  0  0  0  0  0  0  0  0  0  0  0
  145.6991  141.0353  155.4374 H   0  0  0  0  0  0  0  0  0  0  0  0
  145.8090  140.1300  153.5272 H   0  0  0  0  0  0  0  0  0  0  0  0
  147.3565  140.2887  152.7233 H   0  0  0  0  0  0  0  0  0  0  0  0
  145.8122  138.8922  151.3953 H   0  0  0  0  0  0  0  0  0  0  0  0
  147.2468  137.9945  151.8579 H   0  0  0  0  0  0  0  0  0  0  0  0
  145.4771  136.2071  154.4727 H   0  0  0  0  0  0  0  0  0  0  0  0
  147.0441  136.3791  153.7042 H   0  0  0  0  0  0  0  0  0  0  0  0
  147.0226  137.5343  155.8589 H   0  0  0  0  0  0  0  0  0  0  0  0
  145.6099  138.4747  155.4259 H   0  0  0  0  0  0  0  0  0  0  0  0
  152.0639  140.3213  157.9089 H   0  0  0  0  0  0  0  0  0  0  0  0
  1  2  1  0  0  0  0
  1 23  1  0  0  0  0
  1 24  1  0  0  0  0
  1 25  1  0  0  0  0
  2 22  1  0  0  0  0
  2  3  2  0  0  0  0
  3  4  1  0  0  0  0
  3 26  1  0  0  0  0
  4  5  1  0  0  0  0
  4  6  2  0  0  0  0
  5 27  1  0  0  0  0
  5 28  1  0  0  0  0
  5 29  1  0  0  0  0
  6  7  1  0  0  0  0
  7  8  1  0  0  0  0
  7 22  2  0  0  0  0
  8  9  1  0  0  0  0
  8 30  1  0  0  0  0
  9 10  2  0  0  0  0
  9 11  1  0  0  0  0
 11 12  1  0  0  0  0
 11 31  1  0  0  0  0
 12 13  1  0  0  0  0
 12 14  1  0  0  0  0
 12 32  1  0  0  0  0
 13 33  1  0  0  0  0
 13 34  1  0  0  0  0
 13 35  1  0  0  0  0
 14 15  1  0  0  0  0
 14 16  1  0  0  0  0
 14 36  1  0  0  0  0
 15 37  1  0  0  0  0
 15 38  1  0  0  0  0
 15 39  1  0  0  0  0
 16 21  1  0  0  0  0
 16 17  1  0  0  0  0
 17 18  1  0  0  0  0
 17 40  1  0  0  0  0
 17 41  1  0  0  0  0
 18 19  1  0  0  0  0
 18 42  1  0  0  0  0
 18 43  1  0  0  0  0
 19 20  1  0  0  0  0
 20 21  1  0  0  0  0
 20 44  1  0  0  0  0
 20 45  1  0  0  0  0
 21 46  1  0  0  0  0
 21 47  1  0  0  0  0
 22 48  1  0  0  0  0
M  END
> <s_m_source_file>
AV-unprocessed.smi

> <i_m_source_file_index>
2355

> <i_lp_mmshare_version>
43012

> <i_f3d_flags>
0

> <s_epik_input>
W0NIM11jMVtjSF1jKFtDSDNdKW5jKFtjSF0xKVtOSF1DKD1PKVtOSF1bQ0BIXShbQ0gzXSlbQ0BIXShbQ0gzXSlOMltDSDJdW0NIMl1PW0NIMl1bQ0gyXTI=

> <s_epik_cmdline>
J2VwaWtfcHl0aG9uJywgJy1waCcsICc3LjAnLCAnLXRuJywgJzgnLCAnLW1hJywgJzIwMCcsICctbWV0YWxfYmluZGluZycsICctaW1hZScsICc8aW5maWxlLm1hZT4nLCAnLW9tYWUnLCAnPG91dGZpbGUubWFlPic=

> <r_epik_Ionization_Penalty>
0.266238

> <r_epik_Ionization_Penalty_Charging>
0

> <r_epik_Ionization_Penalty_Neutral>
0.266238

> <r_epik_State_Penalty>
0.257924

> <r_epik_Charging_Adjusted_Penalty>
0.257924

> <i_epik_Tot_Q>
0

> <i_epik_Tot_abs_Q>
0

> <r_epik_Metal_State_Penalty>
0.257904

> <b_epik_Metal_Only>
0

> <s_lp_Force_Field>
OPLS_2005

> <r_lp_Energy>
33.2304

> <b_lp_Chiralities_Consistent>
1

> <s_lp_Variant>
AV-unprocessed.smi:2355-3

> <Gold.Version>
5.8.1

> <Gold.Id.Protein>
6NUR|6NUR_protein|mol2

> <Gold.PLP.Fitness>
37.8409

> <Gold.PLP.PLP>
-35.9389

> <Gold.PLP.part.hbond>
-1.0000

> <Gold.PLP.part.metal>
0.0000

> <Gold.PLP.part.buried>
-4.9728

> <Gold.PLP.part.nonpolar>
-30.0972

> <Gold.PLP.part.repulsive>
0.4932

> <Gold.PLP.ligand.clash>
0.0027

> <Gold.PLP.ligand.torsion>
0.5922

> <Gold.PLP.Chemscore.Hbond>
1.0000

> <Gold.PLP.Chemscore.CHOScore>
0.0000

> <Gold.PLP.Chemscore.Metal>
0.0000

> <Gold.Chemscore.Hbonds>
donor molecule, donor type, donor heavy atom, donor atom, acceptor molecule, acceptor atom, score
      L1  H    11    31       P1  8028  1.00

> <Gold.PLP.Chemscore.Internal.Correction>
0.0891

> <Gold.Rescore>
     Score         DG    S(hbond)    S(metal)    S(lipo)     H(rot)  DE(clash)    DE(int)     intcor
     14.84     -19.21       1.90        0.00      93.63       1.40       0.29       4.08       ----

> <Gold.Chemscore.Fitness>
14.8432

> <Gold.Chemscore.DG>
-19.2075

> <Gold.Chemscore.ZeroCoef>
-5.4800

> <Gold.Chemscore.Hbond>
1.9043

> <Gold.Chemscore.Metal>
0.0000

> <Gold.Chemscore.Lipo>
93.6336

> <Gold.Chemscore.Internal_Hbond>
0.0000

> <Gold.Chemscore.DEClash>
0.2884

> <Gold.Chemscore.DEInternal>
4.0760

> <Gold.Chemscore.Rot>
1.4015

> <Gold.Chemscore.Internal.Correction>
   9.000000E+99

> <Gold.Chemscore.Hbonds>
donor molecule, donor type, donor heavy atom, donor atom, acceptor molecule, acceptor atom, score
      L1  H    11    31       P1  8028  1.00

> <Gold.Chemscore.Hbond.Weighted>
-6.3602

> <Gold.Chemscore.Metal.Weighted>
-0.0000

> <Gold.Chemscore.Lipo.Weighted>
-10.9551

> <Gold.Chemscore.Internal_Hbond.Weighted>
0.0000

> <Gold.Chemscore.DEClash.Weighted>
0.2884

> <Gold.Chemscore.DEInternal.Weighted>
4.0760

> <Gold.Chemscore.Rot.Weighted>
3.5878

> <Gold.Chemscore.Internal.Correction.Weighted>
   9.000000E+99

> <Gold.Protein.RotatedTorsions>
[ 6907 6896 6895 6894 ] final   13.15 input  -60.11 | X-H torsion
[ 7974 7965 7964 7962 ] final    5.81 input  175.53 | X-H torsion
[ 8008 7997 7996 7995 ] final  109.16 input   59.86 | X-H torsion
[ 10167 10162 10161 10158 ] final  -99.60 input  -65.29 | X-H torsion
[ 10718 10713 10712 10709 ] final -143.88 input   66.30 | X-H torsion
[ 10763 10752 10751 10750 ] final  -34.74 input  -60.55 | X-H torsion
[ 11005 11000 10999 10996 ] final  106.27 input  -57.11 | X-H torsion

> <Gold.Protein.ActiveResidues>
 VAL166  LYS551  ARG553  GLY616  TRP617  ASP618  TYR619  PRO620  LYS621  CYS622 
 ASP623  PHE694  ASN695  SER759  ASP760  ASP761  ALA762  ILE779  LEU786  VAL792 
 PHE793  MET794  SER795  GLU796  ALA797  LYS798  CYS799  TRP800  GLU811  SER814 

> <Gold.Protein.RotatedAtoms>
  151.7818  135.0759  160.0374 H   0  0  0  0  0  0  0  0  0  0  0  0  # atno 6907 bound_to 6896
  152.3218  133.5857  159.5758 H   0  0  0  0  0  0  0  0  0  0  0  0  # atno 6908 bound_to 6896
  150.7374  133.9916  159.3651 H   0  0  0  0  0  0  0  0  0  0  0  0  # atno 6909 bound_to 6896
  146.2438  140.0328  142.8388 H   0  0  0  0  0  0  0  0  0  0  0  0  # atno 7974 bound_to 7965
  156.1958  140.3063  155.9424 H   0  0  0  0  0  0  0  0  0  0  0  0  # atno 8008 bound_to 7997
  155.3069  140.0449  157.3050 H   0  0  0  0  0  0  0  0  0  0  0  0  # atno 8009 bound_to 7997
  154.5508  140.2291  155.8497 H   0  0  0  0  0  0  0  0  0  0  0  0  # atno 8010 bound_to 7997
  140.2607  143.3409  152.0628 H   0  0  0  0  0  0  0  0  0  0  0  0  # atno 10167 bound_to 10162
  156.3633  130.7749  151.1920 H   0  0  0  0  0  0  0  0  0  0  0  0  # atno 10718 bound_to 10713
  153.8518  135.6848  153.4791 H   0  0  0  0  0  0  0  0  0  0  0  0  # atno 10763 bound_to 10752
  153.1393  135.4664  154.9469 H   0  0  0  0  0  0  0  0  0  0  0  0  # atno 10764 bound_to 10752
  154.7799  135.3265  154.7961 H   0  0  0  0  0  0  0  0  0  0  0  0  # atno 10765 bound_to 10752
  139.8812  134.9364  156.5641 H   0  0  0  0  0  0  0  0  0  0  0  0  # atno 11005 bound_to 11000
  145.1139  140.9422  143.4640 LP  0  0  0  0  0  0  0  0  0  0  0  0  # atno 17320 bound_to 7965
  145.0548  139.3152  143.5910 LP  0  0  0  0  0  0  0  0  0  0  0  0  # atno 17321 bound_to 7965
  139.5017  144.6720  151.6219 LP  0  0  0  0  0  0  0  0  0  0  0  0  # atno 17342 bound_to 10162
  140.5968  143.9682  150.6359 LP  0  0  0  0  0  0  0  0  0  0  0  0  # atno 17343 bound_to 10162
  157.7476  131.0393  150.4547 LP  0  0  0  0  0  0  0  0  0  0  0  0  # atno 17370 bound_to 10713
  156.4761  130.4063  149.6489 LP  0  0  0  0  0  0  0  0  0  0  0  0  # atno 17371 bound_to 10713
  140.8147  133.8401  155.8841 LP  0  0  0  0  0  0  0  0  0  0  0  0  # atno 17394 bound_to 11000
  140.9474  134.1823  157.4753 LP  0  0  0  0  0  0  0  0  0  0  0  0  # atno 17395 bound_to 11000

$$$$
