AV-unprocessed.smi:625|AV-procd|sdf|3108|dock2
  -GOLD-   22720 0 33D 1   1.00000     0.00000
 Structure written by MMmdl.
 49 51  0  0  0  0  0  0  0  0  1 V2000
  151.5189  144.1399  158.4131 C   0  0  0  0  0  0  0  0  0  0  0  0
  150.9128  143.1865  157.4961 N   0  0  0  0  0  0  0  0  0  0  0  0
  150.9484  141.8527  157.6505 C   0  0  0  0  0  0  0  0  0  0  0  0
  151.5138  141.3276  158.6111 O   0  0  0  0  0  0  0  0  0  0  0  0
  150.2635  141.1150  156.5859 C   0  0  0  0  0  0  0  0  0  0  0  0
  148.9715  141.5126  156.0465 C   0  0  0  0  0  0  0  0  0  0  0  0
  148.3798  140.7863  155.0779 C   0  0  0  0  0  0  0  0  0  0  0  0
  149.0026  139.5787  154.5295 C   0  0  0  0  0  0  0  0  0  0  0  0
  148.4580  138.9021  153.6571 O   0  0  0  0  0  0  0  0  0  0  0  0
  150.2214  139.2473  155.0545 N   0  0  0  0  0  0  0  0  0  0  0  0
  150.9375  138.0432  154.5930 C   0  0  0  0  0  0  0  0  0  0  0  0
  150.5924  136.7606  155.3694 C   0  0  0  0  0  0  0  0  0  0  0  0
  151.1756  136.5218  156.4261 O   0  0  0  0  0  0  0  0  0  0  0  0
  149.6691  135.9390  154.8421 N   0  0  0  0  0  0  0  0  0  0  0  0
  149.2682  134.6389  155.3695 C   0  0  1  0  0  0  0  0  0  0  0  0
  148.8629  134.7715  156.8478 C   0  0  0  0  0  0  0  0  0  0  0  0
  148.1208  134.0830  154.4938 C   0  0  1  0  0  0  0  0  0  0  0  0
  148.5706  133.1635  153.3342 C   0  0  0  0  0  0  0  0  0  0  0  0
  147.6395  131.9455  153.4781 C   0  0  1  0  0  0  0  0  0  0  0  0
  148.0955  131.1073  154.6859 C   0  0  0  0  0  0  0  0  0  0  0  0
  147.6644  131.9763  155.8814 C   0  0  0  0  0  0  0  0  0  0  0  0
  147.0491  133.2169  155.2009 C   0  0  2  0  0  0  0  0  0  0  0  0
  146.3547  132.5782  154.0018 C   0  0  0  0  0  0  0  0  0  0  0  0
  150.8331  140.0077  156.0707 C   0  0  0  0  0  0  0  0  0  0  0  0
  151.3575  145.1558  158.0529 H   0  0  0  0  0  0  0  0  0  0  0  0
  152.5939  143.9737  158.4930 H   0  0  0  0  0  0  0  0  0  0  0  0
  151.0781  144.0565  159.4073 H   0  0  0  0  0  0  0  0  0  0  0  0
  150.4350  143.5625  156.6899 H   0  0  0  0  0  0  0  0  0  0  0  0
  148.4582  142.3923  156.4058 H   0  0  0  0  0  0  0  0  0  0  0  0
  147.4205  141.1010  154.6940 H   0  0  0  0  0  0  0  0  0  0  0  0
  150.7442  137.8727  153.5324 H   0  0  0  0  0  0  0  0  0  0  0  0
  152.0154  138.1957  154.6599 H   0  0  0  0  0  0  0  0  0  0  0  0
  149.2355  136.2222  153.9753 H   0  0  0  0  0  0  0  0  0  0  0  0
  150.1287  133.9731  155.2987 H   0  0  0  0  0  0  0  0  0  0  0  0
  148.6002  133.8034  157.2740 H   0  0  0  0  0  0  0  0  0  0  0  0
  148.0034  135.4323  156.9660 H   0  0  0  0  0  0  0  0  0  0  0  0
  149.6781  135.1759  157.4483 H   0  0  0  0  0  0  0  0  0  0  0  0
  147.6042  134.9387  154.0544 H   0  0  0  0  0  0  0  0  0  0  0  0
  148.4245  133.6604  152.3743 H   0  0  0  0  0  0  0  0  0  0  0  0
  149.6210  132.8753  153.3980 H   0  0  0  0  0  0  0  0  0  0  0  0
  147.5304  131.3669  152.5604 H   0  0  0  0  0  0  0  0  0  0  0  0
  147.5843  130.1441  154.7080 H   0  0  0  0  0  0  0  0  0  0  0  0
  149.1692  130.9159  154.6757 H   0  0  0  0  0  0  0  0  0  0  0  0
  146.9089  131.4547  156.4706 H   0  0  0  0  0  0  0  0  0  0  0  0
  148.4882  132.2111  156.5538 H   0  0  0  0  0  0  0  0  0  0  0  0
  146.3856  133.7873  155.8516 H   0  0  0  0  0  0  0  0  0  0  0  0
  145.9174  133.3040  153.3138 H   0  0  0  0  0  0  0  0  0  0  0  0
  145.5936  131.8466  154.2797 H   0  0  0  0  0  0  0  0  0  0  0  0
  151.7857  139.6193  156.4035 H   0  0  0  0  0  0  0  0  0  0  0  0
  1  2  1  0  0  0  0
  1 25  1  0  0  0  0
  1 26  1  0  0  0  0
  1 27  1  0  0  0  0
  2  3  1  0  0  0  0
  2 28  1  0  0  0  0
  3  4  2  0  0  0  0
  3  5  1  0  0  0  0
  5 24  2  0  0  0  0
  5  6  1  0  0  0  0
  6  7  2  0  0  0  0
  6 29  1  0  0  0  0
  7  8  1  0  0  0  0
  7 30  1  0  0  0  0
  8  9  2  0  0  0  0
  8 10  1  0  0  0  0
 10 11  1  0  0  0  0
 10 24  1  0  0  0  0
 11 12  1  0  0  0  0
 11 31  1  0  0  0  0
 11 32  1  0  0  0  0
 12 13  2  0  0  0  0
 12 14  1  0  0  0  0
 14 15  1  0  0  0  0
 14 33  1  0  0  0  0
 15 16  1  0  0  0  0
 15 17  1  0  0  0  0
 15 34  1  0  0  0  0
 16 35  1  0  0  0  0
 16 36  1  0  0  0  0
 16 37  1  0  0  0  0
 17 22  1  0  0  0  0
 17 18  1  0  0  0  0
 17 38  1  0  0  0  0
 18 19  1  0  0  0  0
 18 39  1  0  0  0  0
 18 40  1  0  0  0  0
 19 23  1  0  0  0  0
 19 20  1  0  0  0  0
 19 41  1  0  0  0  0
 20 21  1  0  0  0  0
 20 42  1  0  0  0  0
 20 43  1  0  0  0  0
 21 22  1  0  0  0  0
 21 44  1  0  0  0  0
 21 45  1  0  0  0  0
 22 23  1  0  0  0  0
 22 46  1  0  0  0  0
 23 47  1  0  0  0  0
 23 48  1  0  0  0  0
 24 49  1  0  0  0  0
M  END
> <s_m_source_file>
AV-unprocessed.smi

> <i_m_source_file_index>
625

> <i_lp_mmshare_version>
43012

> <i_f3d_flags>
0

> <s_epik_input>
W0NIM11bTkhdQyg9TyljMVtjSF1bY0hdYyg9TyluKFtjSF0xKVtDSDJdQyg9TylbTkhdW0NASF0oW0NIM10pW0NASF0oW0NIMl1bQ0BIXTIzKVtDQEhdKFtDSDJdMylbQ0gyXVtDSDJdMg==

> <s_epik_cmdline>
J2VwaWtfcHl0aG9uJywgJy1waCcsICc3LjAnLCAnLXRuJywgJzgnLCAnLW1hJywgJzIwMCcsICctbWV0YWxfYmluZGluZycsICctaW1hZScsICc8aW5maWxlLm1hZT4nLCAnLW9tYWUnLCAnPG91dGZpbGUubWFlPic=

> <r_lp_tautomer_probability>
1

> <r_epik_Ionization_Penalty>
3.7129e-07

> <r_epik_Ionization_Penalty_Charging>
5.04114e-08

> <r_epik_Ionization_Penalty_Neutral>
3.20879e-07

> <r_epik_State_Penalty>
-0

> <r_epik_Charging_Adjusted_Penalty>
5.04114e-08

> <i_epik_Tot_Q>
0

> <i_epik_Tot_abs_Q>
0

> <r_epik_Metal_State_Penalty>
-0

> <b_epik_Metal_Only>
0

> <s_lp_Force_Field>
OPLS_2005

> <r_lp_Energy>
63.411

> <b_lp_Chiralities_Consistent>
1

> <s_lp_Variant>
AV-unprocessed.smi:625-8

> <Gold.Version>
5.8.1

> <Gold.Id.Protein>
6NUR|6NUR_protein|mol2

> <Gold.PLP.Fitness>
45.8493

> <Gold.PLP.PLP>
-41.4133

> <Gold.PLP.part.hbond>
-3.5018

> <Gold.PLP.part.metal>
0.0000

> <Gold.PLP.part.buried>
-5.2897

> <Gold.PLP.part.nonpolar>
-34.1913

> <Gold.PLP.part.repulsive>
0.9354

> <Gold.PLP.ligand.clash>
0.0000

> <Gold.PLP.ligand.torsion>
2.3303

> <Gold.PLP.Chemscore.Hbond>
3.0000

> <Gold.PLP.Chemscore.CHOScore>
0.0000

> <Gold.PLP.Chemscore.Metal>
0.0000

> <Gold.Chemscore.Hbonds>
donor molecule, donor type, donor heavy atom, donor atom, acceptor molecule, acceptor atom, score
      L1  H     2    28       P1  8028  0.63
      L1  H    14    33       P1  7948  0.80

> <Gold.PLP.Chemscore.Internal.Correction>
0.0966

> <Gold.Rescore>
     Score         DG    S(hbond)    S(metal)    S(lipo)     H(rot)  DE(clash)    DE(int)     intcor
     15.32     -19.45       2.49        0.00      84.87       1.67       0.06       4.07       ----

> <Gold.Chemscore.Fitness>
15.3215

> <Gold.Chemscore.DG>
-19.4487

> <Gold.Chemscore.ZeroCoef>
-5.4800

> <Gold.Chemscore.Hbond>
2.4899

> <Gold.Chemscore.Metal>
0.0000

> <Gold.Chemscore.Lipo>
84.8707

> <Gold.Chemscore.Internal_Hbond>
0.0000

> <Gold.Chemscore.DEClash>
0.0584

> <Gold.Chemscore.DEInternal>
4.0688

> <Gold.Chemscore.Rot>
1.6709

> <Gold.Chemscore.Internal.Correction>
   9.000000E+99

> <Gold.Chemscore.Hbonds>
donor molecule, donor type, donor heavy atom, donor atom, acceptor molecule, acceptor atom, score
      L1  H     2    28       P1  8028  0.61
      L1  H    14    33       P1  7948  0.71

> <Gold.Chemscore.Hbond.Weighted>
-8.3162

> <Gold.Chemscore.Metal.Weighted>
-0.0000

> <Gold.Chemscore.Lipo.Weighted>
-9.9299

> <Gold.Chemscore.Internal_Hbond.Weighted>
0.0000

> <Gold.Chemscore.DEClash.Weighted>
0.0584

> <Gold.Chemscore.DEInternal.Weighted>
4.0688

> <Gold.Chemscore.Rot.Weighted>
4.2774

> <Gold.Chemscore.Internal.Correction.Weighted>
   9.000000E+99

> <Gold.Protein.RotatedTorsions>
[ 6907 6896 6895 6894 ] final   90.49 input  -60.11 | X-H torsion
[ 7974 7965 7964 7962 ] final -125.26 input  175.53 | X-H torsion
[ 8008 7997 7996 7995 ] final  175.98 input   59.86 | X-H torsion
[ 10167 10162 10161 10158 ] final   92.64 input  -65.29 | X-H torsion
[ 10718 10713 10712 10709 ] final  141.89 input   66.30 | X-H torsion
[ 10763 10752 10751 10750 ] final  -29.11 input  -60.55 | X-H torsion
[ 11005 11000 10999 10996 ] final -107.61 input  -57.11 | X-H torsion

> <Gold.Protein.ActiveResidues>
 VAL166  LYS551  ARG553  GLY616  TRP617  ASP618  TYR619  PRO620  LYS621  CYS622 
 ASP623  PHE694  ASN695  SER759  ASP760  ASP761  ALA762  ILE779  LEU786  VAL792 
 PHE793  MET794  SER795  GLU796  ALA797  LYS798  CYS799  TRP800  GLU811  SER814 

> <Gold.Protein.RotatedAtoms>
  152.5445  134.1803  159.8632 H   0  0  0  0  0  0  0  0  0  0  0  0  # atno 6907 bound_to 6896
  151.1806  133.4720  159.2601 H   0  0  0  0  0  0  0  0  0  0  0  0  # atno 6908 bound_to 6896
  151.1182  135.0076  159.8581 H   0  0  0  0  0  0  0  0  0  0  0  0  # atno 6909 bound_to 6896
  144.9995  140.7807  143.4505 H   0  0  0  0  0  0  0  0  0  0  0  0  # atno 7974 bound_to 7965
  156.0813  140.1395  156.9708 H   0  0  0  0  0  0  0  0  0  0  0  0  # atno 8008 bound_to 7997
  154.4587  140.0951  156.6880 H   0  0  0  0  0  0  0  0  0  0  0  0  # atno 8009 bound_to 7997
  155.5070  140.3452  155.4383 H   0  0  0  0  0  0  0  0  0  0  0  0  # atno 8010 bound_to 7997
  139.8257  144.6710  150.9462 H   0  0  0  0  0  0  0  0  0  0  0  0  # atno 10167 bound_to 10162
  157.3868  131.0999  151.0685 H   0  0  0  0  0  0  0  0  0  0  0  0  # atno 10718 bound_to 10713
  153.7593  135.6920  153.4929 H   0  0  0  0  0  0  0  0  0  0  0  0  # atno 10763 bound_to 10752
  153.1949  135.4457  155.0194 H   0  0  0  0  0  0  0  0  0  0  0  0  # atno 10764 bound_to 10752
  154.8159  135.3398  154.7110 H   0  0  0  0  0  0  0  0  0  0  0  0  # atno 10765 bound_to 10752
  141.0945  133.8996  157.1996 H   0  0  0  0  0  0  0  0  0  0  0  0  # atno 11005 bound_to 11000
  145.2173  139.2176  143.5111 LP  0  0  0  0  0  0  0  0  0  0  0  0  # atno 17320 bound_to 7965
  146.3449  140.2023  142.8589 LP  0  0  0  0  0  0  0  0  0  0  0  0  # atno 17321 bound_to 7965
  140.7810  143.4048  151.1089 LP  0  0  0  0  0  0  0  0  0  0  0  0  # atno 17342 bound_to 10162
  139.7706  143.8500  152.3119 LP  0  0  0  0  0  0  0  0  0  0  0  0  # atno 17343 bound_to 10162
  157.1734  130.6277  149.5648 LP  0  0  0  0  0  0  0  0  0  0  0  0  # atno 17370 bound_to 10713
  155.9788  130.4777  150.6680 LP  0  0  0  0  0  0  0  0  0  0  0  0  # atno 17371 bound_to 10713
  139.9778  135.0108  156.9675 LP  0  0  0  0  0  0  0  0  0  0  0  0  # atno 17394 bound_to 11000
  140.5173  134.0942  155.7284 LP  0  0  0  0  0  0  0  0  0  0  0  0  # atno 17395 bound_to 11000

$$$$
