AV-unprocessed.smi:1669|AV-procd|sdf|6689|dock5
  -GOLD-   22720 7413D 1   1.00000     0.00000
 Structure written by MMmdl.
 49 51  0  0  0  0  0  0  0  0  3 V2000
  147.9674  140.8161  153.4986 C   0  0  0  0  0  0  0  0  0  0  0  0
  147.7149  139.3678  153.3149 N   0  3  1  0  0  0  0  0  0  0  0  0
  148.2465  138.5478  154.4338 C   0  0  0  0  0  0  0  0  0  0  0  0
  149.6838  138.9059  154.7635 C   0  0  0  0  0  0  0  0  0  0  0  0
  149.9585  139.9880  155.6264 C   0  0  0  0  0  0  0  0  0  0  0  0
  151.2903  140.3248  155.9370 C   0  0  0  0  0  0  0  0  0  0  0  0
  152.3520  139.5818  155.3852 C   0  0  0  0  0  0  0  0  0  0  0  0
  152.0816  138.5026  154.5217 C   0  0  0  0  0  0  0  0  0  0  0  0
  150.7500  138.1656  154.2100 C   0  0  0  0  0  0  0  0  0  0  0  0
  146.2889  139.0818  153.0170 C   0  0  0  0  0  0  0  0  0  0  0  0
  146.0295  137.5717  152.8192 C   0  0  2  0  0  0  0  0  0  0  0  0
  146.7195  137.1452  151.6632 O   0  0  0  0  0  0  0  0  0  0  0  0
  144.5394  137.2181  152.6351 C   0  0  0  0  0  0  0  0  0  0  0  0
  144.2741  135.7748  152.7380 N   0  0  0  0  0  0  0  0  0  0  0  0
  143.9871  134.9964  153.8231 C   0  0  0  0  0  0  0  0  0  0  0  0
  143.8657  135.4407  155.2462 C   0  0  0  0  0  0  0  0  0  0  0  0
  143.2949  134.4554  156.0802 O   0  0  0  0  0  0  0  0  0  0  0  0
  143.8299  133.7197  153.3699 N   0  3  0  0  0  0  0  0  0  0  0  0
  144.0149  133.6795  151.9881 C   0  0  0  0  0  0  0  0  0  0  0  0
  143.9598  132.6173  151.0912 C   0  0  0  0  0  0  0  0  0  0  0  0
  144.1979  132.9215  149.7346 C   0  0  0  0  0  0  0  0  0  0  0  0
  144.4747  134.2390  149.3153 C   0  0  0  0  0  0  0  0  0  0  0  0
  144.5272  135.3080  150.2342 C   0  0  0  0  0  0  0  0  0  0  0  0
  144.2950  134.9976  151.5740 C   0  0  0  0  0  0  0  0  0  0  0  0
  147.4363  141.1976  154.3715 H   0  0  0  0  0  0  0  0  0  0  0  0
  147.6373  141.3793  152.6250 H   0  0  0  0  0  0  0  0  0  0  0  0
  149.0303  141.0193  153.6281 H   0  0  0  0  0  0  0  0  0  0  0  0
  147.6118  138.6598  155.3145 H   0  0  0  0  0  0  0  0  0  0  0  0
  148.2242  137.4882  154.1795 H   0  0  0  0  0  0  0  0  0  0  0  0
  149.1488  140.5615  156.0539 H   0  0  0  0  0  0  0  0  0  0  0  0
  151.4982  141.1533  156.5982 H   0  0  0  0  0  0  0  0  0  0  0  0
  153.3733  139.8400  155.6235 H   0  0  0  0  0  0  0  0  0  0  0  0
  152.8960  137.9336  154.0977 H   0  0  0  0  0  0  0  0  0  0  0  0
  150.5512  137.3360  153.5471 H   0  0  0  0  0  0  0  0  0  0  0  0
  145.6788  139.4888  153.8242 H   0  0  0  0  0  0  0  0  0  0  0  0
  145.9788  139.6066  152.1118 H   0  0  0  0  0  0  0  0  0  0  0  0
  146.4216  137.0061  153.6635 H   0  0  0  0  0  0  0  0  0  0  0  0
  147.4306  136.5790  151.9245 H   0  0  0  0  0  0  0  0  0  0  0  0
  143.9315  137.7241  153.3858 H   0  0  0  0  0  0  0  0  0  0  0  0
  144.1735  137.5628  151.6667 H   0  0  0  0  0  0  0  0  0  0  0  0
  144.8489  135.6961  155.6409 H   0  0  0  0  0  0  0  0  0  0  0  0
  143.2542  136.3424  155.2866 H   0  0  0  0  0  0  0  0  0  0  0  0
  143.3745  133.6158  155.6526 H   0  0  0  0  0  0  0  0  0  0  0  0
  143.7454  131.6073  151.4094 H   0  0  0  0  0  0  0  0  0  0  0  0
  144.1659  132.1286  149.0011 H   0  0  0  0  0  0  0  0  0  0  0  0
  144.6497  134.4336  148.2668 H   0  0  0  0  0  0  0  0  0  0  0  0
  144.7375  136.3135  149.9009 H   0  0  0  0  0  0  0  0  0  0  0  0
  148.2260  139.0973  152.4863 H   0  0  0  0  0  0  0  0  0  0  0  0
  143.6134  132.9342  153.9705 H   0  0  0  0  0  0  0  0  0  0  0  0
  1  2  1  0  0  0  0
  1 25  1  0  0  0  0
  1 26  1  0  0  0  0
  1 27  1  0  0  0  0
  2  3  1  0  0  0  0
  2 10  1  0  0  0  0
  2 48  1  0  0  0  0
  3  4  1  0  0  0  0
  3 28  1  0  0  0  0
  3 29  1  0  0  0  0
  4  9  1  0  0  0  0
  4  5  2  0  0  0  0
  5  6  1  0  0  0  0
  5 30  1  0  0  0  0
  6  7  2  0  0  0  0
  6 31  1  0  0  0  0
  7  8  1  0  0  0  0
  7 32  1  0  0  0  0
  8  9  2  0  0  0  0
  8 33  1  0  0  0  0
  9 34  1  0  0  0  0
 10 11  1  0  0  0  0
 10 35  1  0  0  0  0
 10 36  1  0  0  0  0
 11 12  1  0  0  0  0
 11 13  1  0  0  0  0
 11 37  1  0  0  0  0
 12 38  1  0  0  0  0
 13 14  1  0  0  0  0
 13 39  1  0  0  0  0
 13 40  1  0  0  0  0
 14 24  1  0  0  0  0
 14 15  1  0  0  0  0
 15 16  1  0  0  0  0
 15 18  2  0  0  0  0
 16 17  1  0  0  0  0
 16 41  1  0  0  0  0
 16 42  1  0  0  0  0
 17 43  1  0  0  0  0
 18 19  1  0  0  0  0
 18 49  1  0  0  0  0
 19 24  2  0  0  0  0
 19 20  1  0  0  0  0
 20 21  2  0  0  0  0
 20 44  1  0  0  0  0
 21 22  1  0  0  0  0
 21 45  1  0  0  0  0
 22 23  2  0  0  0  0
 22 46  1  0  0  0  0
 23 24  1  0  0  0  0
 23 47  1  0  0  0  0
M  CHG  1   2   1
M  CHG  1  18   1
M  END
> <s_m_source_file>
AV-unprocessed.smi

> <i_m_source_file_index>
1669

> <i_lp_mmshare_version>
43012

> <i_f3d_flags>
0

> <s_epik_input>
W2NIXTFbY0hdW2NIXVtjSF1bY0hdYzFbQ0gyXU4oW0NIM10pW0NIMl1bQ0BIXShbT0hdKVtDSDJdbihjKG4yKVtDSDJdW09IXSljKGMyMylbY0hdW2NIXVtjSF1bY0hdMw==

> <s_epik_cmdline>
J2VwaWtfcHl0aG9uJywgJy1waCcsICc3LjAnLCAnLXRuJywgJzgnLCAnLW1hJywgJzIwMCcsICctbWV0YWxfYmluZGluZycsICctaW1hZScsICc8aW5maWxlLm1hZT4nLCAnLW9tYWUnLCAnPG91dGZpbGUubWFlPic=

> <r_epik_Ionization_Penalty>
1.57484

> <r_epik_Ionization_Penalty_Charging>
1.57398

> <r_epik_Ionization_Penalty_Neutral>
0.000858917

> <r_epik_State_Penalty>
1.64997

> <r_epik_Charging_Adjusted_Penalty>
3.22395

> <i_epik_Tot_Q>
2

> <i_epik_Tot_abs_Q>
2

> <r_epik_Metal_State_Penalty>
5.70481

> <b_epik_Metal_Only>
0

> <s_lp_Force_Field>
OPLS_2005

> <r_lp_Energy>
24.1241

> <b_lp_Chiralities_Consistent>
1

> <s_lp_Variant>
AV-unprocessed.smi:1669-7

> <Gold.Version>
5.8.1

> <Gold.Id.Protein>
6NUR|6NUR_protein|mol2

> <Gold.PLP.Fitness>
54.0554

> <Gold.PLP.PLP>
-41.9003

> <Gold.PLP.part.hbond>
-4.6823

> <Gold.PLP.part.metal>
0.0000

> <Gold.PLP.part.buried>
4.3248

> <Gold.PLP.part.nonpolar>
-40.6425

> <Gold.PLP.part.repulsive>
0.0339

> <Gold.PLP.ligand.clash>
0.0000

> <Gold.PLP.ligand.torsion>
0.9897

> <Gold.PLP.Chemscore.Hbond>
4.6536

> <Gold.PLP.Chemscore.CHOScore>
0.0000

> <Gold.PLP.Chemscore.Metal>
0.0000

> <Gold.Chemscore.Hbonds>
donor molecule, donor type, donor heavy atom, donor atom, acceptor molecule, acceptor atom, score
      L1  H     2    48       P1  7957  0.57
      L1  H    12    38       P1  7948  0.96
      L1  H    17    43       P1 10957  0.70
      L1  H    18    49       P1 10957  2.00
      P1  H  7954  7966       L1    12  0.03
      P1  H 11000 11005       L1    17  0.04

> <Gold.PLP.Chemscore.Internal.Correction>
0.1735

> <Gold.Rescore>
     Score         DG    S(hbond)    S(metal)    S(lipo)     H(rot)  DE(clash)    DE(int)     intcor
     18.43     -22.34       3.44        0.00     117.53       3.27       2.88       1.03       ----

> <Gold.Chemscore.Fitness>
18.4346

> <Gold.Chemscore.DG>
-22.3411

> <Gold.Chemscore.ZeroCoef>
-5.4800

> <Gold.Chemscore.Hbond>
3.4390

> <Gold.Chemscore.Metal>
0.0000

> <Gold.Chemscore.Lipo>
117.5274

> <Gold.Chemscore.Internal_Hbond>
0.0000

> <Gold.Chemscore.DEClash>
2.8814

> <Gold.Chemscore.DEInternal>
1.0251

> <Gold.Chemscore.Rot>
3.2718

> <Gold.Chemscore.Internal.Correction>
   9.000000E+99

> <Gold.Chemscore.Hbonds>
donor molecule, donor type, donor heavy atom, donor atom, acceptor molecule, acceptor atom, score
      L1  H     2    48       P1  7957  0.57
      L1  H    12    38       P1  7948  0.87
      L1  H    17    43       P1 10957  0.70
      L1  H    18    49       P1 10957  0.98

> <Gold.Chemscore.Hbond.Weighted>
-11.4863

> <Gold.Chemscore.Metal.Weighted>
-0.0000

> <Gold.Chemscore.Lipo.Weighted>
-13.7507

> <Gold.Chemscore.Internal_Hbond.Weighted>
0.0000

> <Gold.Chemscore.DEClash.Weighted>
2.8814

> <Gold.Chemscore.DEInternal.Weighted>
1.0251

> <Gold.Chemscore.Rot.Weighted>
8.3759

> <Gold.Chemscore.Internal.Correction.Weighted>
   9.000000E+99

> <Gold.Protein.RotatedTorsions>
[ 6907 6896 6895 6894 ] final -157.55 input  -60.11 | X-H torsion
[ 7974 7965 7964 7962 ] final  103.76 input  175.53 | X-H torsion
[ 8008 7997 7996 7995 ] final -156.50 input   59.86 | X-H torsion
[ 10167 10162 10161 10158 ] final  -60.80 input  -65.29 | X-H torsion
[ 10718 10713 10712 10709 ] final -155.16 input   66.30 | X-H torsion
[ 10763 10752 10751 10750 ] final   65.98 input  -60.55 | X-H torsion
[ 11005 11000 10999 10996 ] final  -94.19 input  -57.11 | X-H torsion

> <Gold.Protein.ActiveResidues>
 VAL166  LYS551  ARG553  GLY616  TRP617  ASP618  TYR619  PRO620  LYS621  CYS622 
 ASP623  PHE694  ASN695  SER759  ASP760  ASP761  ALA762  ILE779  LEU786  VAL792 
 PHE793  MET794  SER795  GLU796  ALA797  LYS798  CYS799  TRP800  GLU811  SER814 

> <Gold.Protein.RotatedAtoms>
  151.3046  133.4107  159.2642 H   0  0  0  0  0  0  0  0  0  0  0  0  # atno 6907 bound_to 6896
  151.0166  134.9438  159.8047 H   0  0  0  0  0  0  0  0  0  0  0  0  # atno 6908 bound_to 6896
  152.5314  134.3010  159.9131 H   0  0  0  0  0  0  0  0  0  0  0  0  # atno 6909 bound_to 6896
  145.3417  139.2460  143.3606 H   0  0  0  0  0  0  0  0  0  0  0  0  # atno 7974 bound_to 7965
  155.7182  140.0787  157.2342 H   0  0  0  0  0  0  0  0  0  0  0  0  # atno 8008 bound_to 7997
  154.4049  140.1617  156.2426 H   0  0  0  0  0  0  0  0  0  0  0  0  # atno 8009 bound_to 7997
  155.9221  140.3397  155.6184 H   0  0  0  0  0  0  0  0  0  0  0  0  # atno 8010 bound_to 7997
  140.6047  143.2370  151.5847 H   0  0  0  0  0  0  0  0  0  0  0  0  # atno 10167 bound_to 10162
  156.5090  130.8426  151.2639 H   0  0  0  0  0  0  0  0  0  0  0  0  # atno 10718 bound_to 10713
  153.0120  135.5337  154.6752 H   0  0  0  0  0  0  0  0  0  0  0  0  # atno 10763 bound_to 10752
  154.5926  135.2860  155.0622 H   0  0  0  0  0  0  0  0  0  0  0  0  # atno 10764 bound_to 10752
  154.1709  135.6532  153.5061 H   0  0  0  0  0  0  0  0  0  0  0  0  # atno 10765 bound_to 10752
  141.1477  133.7939  157.0264 H   0  0  0  0  0  0  0  0  0  0  0  0  # atno 11005 bound_to 11000
  146.3004  140.4016  142.8706 LP  0  0  0  0  0  0  0  0  0  0  0  0  # atno 17320 bound_to 7965
  144.8785  140.7368  143.6002 LP  0  0  0  0  0  0  0  0  0  0  0  0  # atno 17321 bound_to 7965
  139.5316  144.2898  152.1161 LP  0  0  0  0  0  0  0  0  0  0  0  0  # atno 17342 bound_to 10162
  140.2086  144.4586  150.6396 LP  0  0  0  0  0  0  0  0  0  0  0  0  # atno 17343 bound_to 10162
  157.7453  130.9956  150.2749 LP  0  0  0  0  0  0  0  0  0  0  0  0  # atno 17370 bound_to 10713
  156.3259  130.3793  149.7534 LP  0  0  0  0  0  0  0  0  0  0  0  0  # atno 17371 bound_to 10713
  140.0782  134.9663  157.1581 LP  0  0  0  0  0  0  0  0  0  0  0  0  # atno 17394 bound_to 11000
  140.3613  134.2491  155.7187 LP  0  0  0  0  0  0  0  0  0  0  0  0  # atno 17395 bound_to 11000

$$$$
