AV-unprocessed.smi:127|AV-procd|sdf|1153|dock5
  -GOLD-   2262018293D 1   1.00000     0.00000
 Structure written by MMmdl.
 28 29  0  0  0  0  0  0  0  0  2 V2000
  153.5313  136.6786  156.8601 O   0  0  0  0  0  0  0  0  0  0  0  0
  153.2910  137.8912  157.0486 C   0  0  0  0  0  0  0  0  0  0  0  0
  153.1002  138.7431  156.1537 O   0  5  0  0  0  0  0  0  0  0  0  0
  153.2207  138.3737  158.5007 C   0  0  0  0  0  0  0  0  0  0  0  0
  152.4145  139.5765  158.6554 N   0  0  0  0  0  0  0  0  0  0  0  0
  151.1119  139.5747  158.0942 C   0  0  0  0  0  0  0  0  0  0  0  0
  150.6084  138.5622  157.6044 O   0  0  0  0  0  0  0  0  0  0  0  0
  150.4222  140.8590  158.1526 C   0  0  0  0  0  0  0  0  0  0  0  0
  149.1695  140.9636  157.6769 F   0  0  0  0  0  0  0  0  0  0  0  0
  151.0197  141.9489  158.6793 C   0  0  0  0  0  0  0  0  0  0  0  0
  152.3071  141.9325  159.1877 N   0  0  0  0  0  0  0  0  0  0  0  0
  152.9404  143.1764  159.7707 C   0  0  2  0  0  0  0  0  0  0  0  0
  152.1240  143.6745  160.9687 C   0  0  0  0  0  0  0  0  0  0  0  0
  151.2069  144.6878  160.3194 C   0  0  0  0  0  0  0  0  0  0  0  0
  152.1114  145.2723  159.2404 C   0  0  0  0  0  0  0  0  0  0  0  0
  152.9329  144.1906  158.8068 O   0  0  0  0  0  0  0  0  0  0  0  0
  153.0438  140.7275  159.1903 C   0  0  0  0  0  0  0  0  0  0  0  0
  154.1862  140.6910  159.6541 O   0  0  0  0  0  0  0  0  0  0  0  0
  152.8134  137.5974  159.1502 H   0  0  0  0  0  0  0  0  0  0  0  0
  154.2179  138.5726  158.8963 H   0  0  0  0  0  0  0  0  0  0  0  0
  150.4539  142.8684  158.6991 H   0  0  0  0  0  0  0  0  0  0  0  0
  153.9698  142.9090  160.0142 H   0  0  0  0  0  0  0  0  0  0  0  0
  151.6027  142.8667  161.4840 H   0  0  0  0  0  0  0  0  0  0  0  0
  152.7998  144.1644  161.6707 H   0  0  0  0  0  0  0  0  0  0  0  0
  150.3509  144.1862  159.8665 H   0  0  0  0  0  0  0  0  0  0  0  0
  150.8339  145.4380  161.0170 H   0  0  0  0  0  0  0  0  0  0  0  0
  151.5510  145.7064  158.4121 H   0  0  0  0  0  0  0  0  0  0  0  0
  152.7520  146.0481  159.6616 H   0  0  0  0  0  0  0  0  0  0  0  0
  1  2  2  0  0  0  0
  2  3  1  0  0  0  0
  2  4  1  0  0  0  0
  4  5  1  0  0  0  0
  4 19  1  0  0  0  0
  4 20  1  0  0  0  0
  5 17  1  0  0  0  0
  5  6  1  0  0  0  0
  6  7  2  0  0  0  0
  6  8  1  0  0  0  0
  8  9  1  0  0  0  0
  8 10  2  0  0  0  0
 10 11  1  0  0  0  0
 10 21  1  0  0  0  0
 11 12  1  0  0  0  0
 11 17  1  0  0  0  0
 12 16  1  0  0  0  0
 12 13  1  0  0  0  0
 12 22  1  0  0  0  0
 13 14  1  0  0  0  0
 13 23  1  0  0  0  0
 13 24  1  0  0  0  0
 14 15  1  0  0  0  0
 14 25  1  0  0  0  0
 14 26  1  0  0  0  0
 15 16  1  0  0  0  0
 15 27  1  0  0  0  0
 15 28  1  0  0  0  0
 17 18  2  0  0  0  0
M  CHG  1   3  -1
M  END
> <s_m_source_file>
AV-unprocessed.smi

> <i_m_source_file_index>
127

> <i_lp_mmshare_version>
43012

> <i_f3d_flags>
0

> <s_epik_input>
Tz1DKFtPSF0pW0NIMl1uMWMoPU8pYyhGKVtjSF1uKGMxPU8pW0NAQEhdMltDSDJdW0NIMl1bQ0gyXU8y

> <s_epik_cmdline>
J2VwaWtfcHl0aG9uJywgJy1waCcsICc3LjAnLCAnLXRuJywgJzgnLCAnLW1hJywgJzIwMCcsICctbWV0YWxfYmluZGluZycsICctaW1hZScsICc8aW5maWxlLm1hZT4nLCAnLW9tYWUnLCAnPG91dGZpbGUubWFlPic=

> <r_lp_tautomer_probability>
1

> <r_epik_Ionization_Penalty>
0.00125813

> <r_epik_Ionization_Penalty_Charging>
0.00125813

> <r_epik_Ionization_Penalty_Neutral>
6.20402e-12

> <r_epik_State_Penalty>
0.000832915

> <r_epik_Charging_Adjusted_Penalty>
0.00209104

> <i_epik_Tot_Q>
-1

> <i_epik_Tot_abs_Q>
1

> <r_epik_Metal_State_Penalty>
-0

> <b_epik_Metal_Only>
0

> <s_epik_Chemistry_Notes>
This compound contains an acetal/aminal-like group ( X-CH(R)-Y where X, Y are N, S, or O) that may be acid/base labile, releasing an aldehyde.

> <s_lp_Force_Field>
OPLS_2005

> <r_lp_Energy>
23.3893

> <b_lp_Chiralities_Consistent>
1

> <s_lp_Variant>
AV-unprocessed.smi:127-1

> <Gold.Version>
5.8.1

> <Gold.Id.Protein>
6NUR|6NUR_protein|mol2

> <Gold.PLP.Fitness>
44.2745

> <Gold.PLP.PLP>
-33.0209

> <Gold.PLP.part.hbond>
-2.0000

> <Gold.PLP.part.metal>
0.0000

> <Gold.PLP.part.buried>
-6.1614

> <Gold.PLP.part.nonpolar>
-24.9610

> <Gold.PLP.part.repulsive>
0.0000

> <Gold.PLP.ligand.clash>
0.0000

> <Gold.PLP.ligand.torsion>
0.3963

> <Gold.PLP.Chemscore.Hbond>
4.0000

> <Gold.PLP.Chemscore.CHOScore>
0.0000

> <Gold.PLP.Chemscore.Metal>
0.0000

> <Gold.Chemscore.Hbonds>
donor molecule, donor type, donor heavy atom, donor atom, acceptor molecule, acceptor atom, score
      P1  H  7997  8010       L1     3  2.00
      P1  H 10752 10764       L1     1  1.92

> <Gold.PLP.Chemscore.Internal.Correction>
0.0461

> <Gold.Rescore>
     Score         DG    S(hbond)    S(metal)    S(lipo)     H(rot)  DE(clash)    DE(int)     intcor
     11.40     -12.74       1.92        0.00      52.57       2.08       0.01       1.33       ----

> <Gold.Chemscore.Fitness>
11.4016

> <Gold.Chemscore.DG>
-12.7370

> <Gold.Chemscore.ZeroCoef>
-5.4800

> <Gold.Chemscore.Hbond>
1.9227

> <Gold.Chemscore.Metal>
0.0000

> <Gold.Chemscore.Lipo>
52.5746

> <Gold.Chemscore.Internal_Hbond>
0.0000

> <Gold.Chemscore.DEClash>
0.0089

> <Gold.Chemscore.DEInternal>
1.3265

> <Gold.Chemscore.Rot>
2.0765

> <Gold.Chemscore.Internal.Correction>
   9.000000E+99

> <Gold.Chemscore.Hbonds>
donor molecule, donor type, donor heavy atom, donor atom, acceptor molecule, acceptor atom, score
      P1  H  7997  8010       L1     3  0.54
      P1  H 10752 10764       L1     1  0.90

> <Gold.Chemscore.Hbond.Weighted>
-6.4217

> <Gold.Chemscore.Metal.Weighted>
-0.0000

> <Gold.Chemscore.Lipo.Weighted>
-6.1512

> <Gold.Chemscore.Internal_Hbond.Weighted>
0.0000

> <Gold.Chemscore.DEClash.Weighted>
0.0089

> <Gold.Chemscore.DEInternal.Weighted>
1.3265

> <Gold.Chemscore.Rot.Weighted>
5.3159

> <Gold.Chemscore.Internal.Correction.Weighted>
   9.000000E+99

> <Gold.Protein.RotatedTorsions>
[ 6907 6896 6895 6894 ] final  139.60 input  -60.11 | X-H torsion
[ 7974 7965 7964 7962 ] final  145.14 input  175.53 | X-H torsion
[ 8008 7997 7996 7995 ] final   71.28 input   59.86 | X-H torsion
[ 10167 10162 10161 10158 ] final   53.62 input  -65.29 | X-H torsion
[ 10718 10713 10712 10709 ] final  163.18 input   66.30 | X-H torsion
[ 10763 10752 10751 10750 ] final    5.75 input  -60.55 | X-H torsion
[ 11005 11000 10999 10996 ] final   -7.81 input  -57.11 | X-H torsion

> <Gold.Protein.ActiveResidues>
 VAL166  LYS551  ARG553  GLY616  TRP617  ASP618  TYR619  PRO620  LYS621  CYS622 
 ASP623  PHE694  ASN695  SER759  ASP760  ASP761  ALA762  ILE779  LEU786  VAL792 
 PHE793  MET794  SER795  GLU796  ALA797  LYS798  CYS799  TRP800  GLU811  SER814 

> <Gold.Protein.RotatedAtoms>
  152.2530  133.5231  159.5336 H   0  0  0  0  0  0  0  0  0  0  0  0  # atno 6907 bound_to 6896
  150.7100  134.0934  159.3949 H   0  0  0  0  0  0  0  0  0  0  0  0  # atno 6908 bound_to 6896
  151.8853  135.0438  160.0543 H   0  0  0  0  0  0  0  0  0  0  0  0  # atno 6909 bound_to 6896
  144.8777  139.5747  143.5857 H   0  0  0  0  0  0  0  0  0  0  0  0  # atno 7974 bound_to 7965
  155.7515  140.3488  155.5153 H   0  0  0  0  0  0  0  0  0  0  0  0  # atno 8008 bound_to 7997
  155.9000  140.1032  157.1378 H   0  0  0  0  0  0  0  0  0  0  0  0  # atno 8009 bound_to 7997
  154.4043  140.1288  156.4410 H   0  0  0  0  0  0  0  0  0  0  0  0  # atno 8010 bound_to 7997
  140.2389  144.3606  150.6387 H   0  0  0  0  0  0  0  0  0  0  0  0  # atno 10167 bound_to 10162
  157.1121  131.0470  151.2453 H   0  0  0  0  0  0  0  0  0  0  0  0  # atno 10718 bound_to 10713
  153.2557  135.6918  153.7631 H   0  0  0  0  0  0  0  0  0  0  0  0  # atno 10763 bound_to 10752
  153.6709  135.3344  155.3154 H   0  0  0  0  0  0  0  0  0  0  0  0  # atno 10764 bound_to 10752
  154.8411  135.4499  154.1530 H   0  0  0  0  0  0  0  0  0  0  0  0  # atno 10765 bound_to 10752
  140.7168  133.8862  155.8791 H   0  0  0  0  0  0  0  0  0  0  0  0  # atno 11005 bound_to 11000
  146.2973  139.7318  142.9117 LP  0  0  0  0  0  0  0  0  0  0  0  0  # atno 17320 bound_to 7965
  145.4012  141.0385  143.3069 LP  0  0  0  0  0  0  0  0  0  0  0  0  # atno 17321 bound_to 7965
  140.6129  143.2170  151.6850 LP  0  0  0  0  0  0  0  0  0  0  0  0  # atno 17342 bound_to 10162
  139.5084  144.3612  152.0560 LP  0  0  0  0  0  0  0  0  0  0  0  0  # atno 17343 bound_to 10162
  157.4550  130.7620  149.7185 LP  0  0  0  0  0  0  0  0  0  0  0  0  # atno 17370 bound_to 10713
  155.9848  130.3988  150.3293 LP  0  0  0  0  0  0  0  0  0  0  0  0  # atno 17371 bound_to 10713
  141.0038  134.1114  157.4291 LP  0  0  0  0  0  0  0  0  0  0  0  0  # atno 17394 bound_to 11000
  139.8858  135.0075  156.6457 LP  0  0  0  0  0  0  0  0  0  0  0  0  # atno 17395 bound_to 11000

$$$$
