AV-unprocessed.smi:1809|AV-procd|sdf|7332|dock4
  -GOLD-   22720 8593D 1   1.00000     0.00000
 Structure written by MMmdl.
 38 40  0  0  0  0  0  0  0  0  2 V2000
  155.2366  142.4653  168.1535 C   0  0  0  0  0  0  0  0  0  0  0  0
  155.4939  141.8364  166.8270 C   0  0  0  0  0  0  0  0  0  0  0  0
  155.5188  142.5351  165.6894 N   0  0  0  0  0  0  0  0  0  0  0  0
  155.7764  141.7315  164.5879 N   0  0  0  0  0  0  0  0  0  0  0  0
  155.9530  140.4415  164.9081 C   0  0  0  0  0  0  0  0  0  0  0  0
  156.2077  139.4979  163.9866 N   0  5  0  0  0  0  0  0  0  0  0  0
  155.3922  139.3602  162.9163 C   0  0  0  0  0  0  0  0  0  0  0  0
  154.8510  138.3184  162.5384 O   0  0  0  0  0  0  0  0  0  0  0  0
  155.1885  140.4993  162.2419 N   0  0  0  0  0  0  0  0  0  0  0  0
  154.3531  140.6335  161.0555 C   0  0  0  0  0  0  0  0  0  0  0  0
  153.9132  142.0909  160.8603 C   0  0  1  0  0  0  0  0  0  0  0  0
  153.2207  142.3037  159.4941 C   0  0  0  0  0  0  0  0  0  0  0  0
  152.7079  143.6576  159.4041 N   0  0  0  0  0  0  0  0  0  0  0  0
  151.9584  143.9959  158.2167 C   0  0  0  0  0  0  0  0  0  0  0  0
  151.2217  145.2943  158.5911 C   0  0  0  0  0  0  0  0  0  0  0  0
  151.2132  145.3009  160.1363 C   0  0  0  0  0  0  0  0  0  0  0  0
  151.7969  143.9302  160.4828 C   0  0  2  0  0  0  0  0  0  0  0  0
  152.4995  143.7756  161.8388 C   0  0  0  0  0  0  0  0  0  0  0  0
  153.0106  142.4430  161.9177 O   0  0  0  0  0  0  0  0  0  0  0  0
  155.7910  140.1171  166.6340 S   0  0  0  0  0  0  0  0  0  0  0  0
  156.1251  142.9991  168.4909 H   0  0  0  0  0  0  0  0  0  0  0  0
  154.9842  141.7036  168.8913 H   0  0  0  0  0  0  0  0  0  0  0  0
  154.4076  143.1699  168.0829 H   0  0  0  0  0  0  0  0  0  0  0  0
  155.6428  141.3343  162.5817 H   0  0  0  0  0  0  0  0  0  0  0  0
  154.9213  140.2964  160.1872 H   0  0  0  0  0  0  0  0  0  0  0  0
  153.4799  139.9851  161.1420 H   0  0  0  0  0  0  0  0  0  0  0  0
  154.7889  142.7399  160.9192 H   0  0  0  0  0  0  0  0  0  0  0  0
  153.9245  142.1183  158.6821 H   0  0  0  0  0  0  0  0  0  0  0  0
  152.4051  141.5883  159.3772 H   0  0  0  0  0  0  0  0  0  0  0  0
  152.6087  144.1156  157.3499 H   0  0  0  0  0  0  0  0  0  0  0  0
  151.2349  143.2104  157.9919 H   0  0  0  0  0  0  0  0  0  0  0  0
  151.7529  146.1679  158.2117 H   0  0  0  0  0  0  0  0  0  0  0  0
  150.2137  145.3083  158.1754 H   0  0  0  0  0  0  0  0  0  0  0  0
  151.8533  146.1000  160.5129 H   0  0  0  0  0  0  0  0  0  0  0  0
  150.2150  145.4404  160.5523 H   0  0  0  0  0  0  0  0  0  0  0  0
  150.9806  143.2056  160.4450 H   0  0  0  0  0  0  0  0  0  0  0  0
  153.3132  144.4944  161.9480 H   0  0  0  0  0  0  0  0  0  0  0  0
  151.8007  143.9442  162.6584 H   0  0  0  0  0  0  0  0  0  0  0  0
  1  2  1  0  0  0  0
  1 21  1  0  0  0  0
  1 22  1  0  0  0  0
  1 23  1  0  0  0  0
  2 20  1  0  0  0  0
  2  3  2  0  0  0  0
  3  4  1  0  0  0  0
  4  5  2  0  0  0  0
  5  6  1  0  0  0  0
  5 20  1  0  0  0  0
  6  7  1  0  0  0  0
  7  8  2  0  0  0  0
  7  9  1  0  0  0  0
  9 10  1  0  0  0  0
  9 24  1  0  0  0  0
 10 11  1  0  0  0  0
 10 25  1  0  0  0  0
 10 26  1  0  0  0  0
 11 19  1  0  0  0  0
 11 12  1  0  0  0  0
 11 27  1  0  0  0  0
 12 13  1  0  0  0  0
 12 28  1  0  0  0  0
 12 29  1  0  0  0  0
 13 17  1  0  0  0  0
 13 14  1  0  0  0  0
 14 15  1  0  0  0  0
 14 30  1  0  0  0  0
 14 31  1  0  0  0  0
 15 16  1  0  0  0  0
 15 32  1  0  0  0  0
 15 33  1  0  0  0  0
 16 17  1  0  0  0  0
 16 34  1  0  0  0  0
 16 35  1  0  0  0  0
 17 18  1  0  0  0  0
 17 36  1  0  0  0  0
 18 19  1  0  0  0  0
 18 37  1  0  0  0  0
 18 38  1  0  0  0  0
M  CHG  1   6  -1
M  END
> <s_m_source_file>
AV-unprocessed.smi

> <i_m_source_file_index>
1809

> <i_lp_mmshare_version>
43012

> <i_f3d_flags>
0

> <s_epik_input>
W0NIM11jMW5uYyhzMSlbTkhdQyg9TylbTkhdW0NIMl1bQ0BIXShbQ0gyXTIpT1tDSDJdW0NAQEhdKE4yMylbQ0gyXVtDSDJdW0NIMl0z

> <s_epik_cmdline>
J2VwaWtfcHl0aG9uJywgJy1waCcsICc3LjAnLCAnLXRuJywgJzgnLCAnLW1hJywgJzIwMCcsICctbWV0YWxfYmluZGluZycsICctaW1hZScsICc8aW5maWxlLm1hZT4nLCAnLW9tYWUnLCAnPG91dGZpbGUubWFlPic=

> <r_lp_tautomer_probability>
1

> <r_epik_Ionization_Penalty>
4.48809

> <r_epik_Ionization_Penalty_Charging>
3.27284

> <r_epik_Ionization_Penalty_Neutral>
1.21525

> <r_epik_State_Penalty>
4.69427

> <r_epik_Charging_Adjusted_Penalty>
7.96711

> <i_epik_Tot_Q>
-1

> <i_epik_Tot_abs_Q>
1

> <r_epik_Metal_State_Penalty>
1.91976

> <b_epik_Metal_Only>
1

> <s_lp_Force_Field>
OPLS_2005

> <r_lp_Energy>
45.7242

> <b_lp_Chiralities_Consistent>
1

> <s_lp_Variant>
AV-unprocessed.smi:1809-24

> <Gold.Version>
5.8.1

> <Gold.Id.Protein>
6NUR|6NUR_protein|mol2

> <Gold.PLP.Fitness>
42.3461

> <Gold.PLP.PLP>
-44.6181

> <Gold.PLP.part.hbond>
-2.0000

> <Gold.PLP.part.metal>
0.0000

> <Gold.PLP.part.buried>
-8.1060

> <Gold.PLP.part.nonpolar>
-32.9127

> <Gold.PLP.part.repulsive>
0.0566

> <Gold.PLP.ligand.clash>
0.0000

> <Gold.PLP.ligand.torsion>
1.1485

> <Gold.PLP.Chemscore.Hbond>
0.0000

> <Gold.PLP.Chemscore.CHOScore>
0.0000

> <Gold.PLP.Chemscore.Metal>
0.0000

> <Gold.PLP.Chemscore.Internal.Correction>
0.0250

> <Gold.Rescore>
     Score         DG    S(hbond)    S(metal)    S(lipo)     H(rot)  DE(clash)    DE(int)     intcor
     13.52     -14.79       0.00        0.00     108.15       1.31       0.08       1.19       ----

> <Gold.Chemscore.Fitness>
13.5173

> <Gold.Chemscore.DG>
-14.7929

> <Gold.Chemscore.ZeroCoef>
-5.4800

> <Gold.Chemscore.Hbond>
0.0000

> <Gold.Chemscore.Metal>
0.0000

> <Gold.Chemscore.Lipo>
108.1544

> <Gold.Chemscore.Internal_Hbond>
0.0000

> <Gold.Chemscore.DEClash>
0.0810

> <Gold.Chemscore.DEInternal>
1.1947

> <Gold.Chemscore.Rot>
1.3051

> <Gold.Chemscore.Internal.Correction>
   9.000000E+99

> <Gold.Chemscore.Hbond.Weighted>
-0.0000

> <Gold.Chemscore.Metal.Weighted>
-0.0000

> <Gold.Chemscore.Lipo.Weighted>
-12.6541

> <Gold.Chemscore.Internal_Hbond.Weighted>
0.0000

> <Gold.Chemscore.DEClash.Weighted>
0.0810

> <Gold.Chemscore.DEInternal.Weighted>
1.1947

> <Gold.Chemscore.Rot.Weighted>
3.3412

> <Gold.Chemscore.Internal.Correction.Weighted>
   9.000000E+99

> <Gold.Protein.RotatedTorsions>
[ 6907 6896 6895 6894 ] final   73.35 input  -60.11 | X-H torsion
[ 7974 7965 7964 7962 ] final  112.64 input  175.53 | X-H torsion
[ 8008 7997 7996 7995 ] final   13.14 input   59.86 | X-H torsion
[ 10167 10162 10161 10158 ] final  113.24 input  -65.29 | X-H torsion
[ 10718 10713 10712 10709 ] final   89.10 input   66.30 | X-H torsion
[ 10763 10752 10751 10750 ] final  -45.73 input  -60.55 | X-H torsion
[ 11005 11000 10999 10996 ] final   43.74 input  -57.11 | X-H torsion

> <Gold.Protein.ActiveResidues>
 VAL166  LYS551  ARG553  GLY616  TRP617  ASP618  TYR619  PRO620  LYS621  CYS622 
 ASP623  PHE694  ASN695  SER759  ASP760  ASP761  ALA762  ILE779  LEU786  VAL792 
 PHE793  MET794  SER795  GLU796  ALA797  LYS798  CYS799  TRP800  GLU811  SER814 

> <Gold.Protein.RotatedAtoms>
  152.4918  134.4435  159.9550 H   0  0  0  0  0  0  0  0  0  0  0  0  # atno 6907 bound_to 6896
  151.4421  133.3634  159.2791 H   0  0  0  0  0  0  0  0  0  0  0  0  # atno 6908 bound_to 6896
  150.9080  134.8520  159.7466 H   0  0  0  0  0  0  0  0  0  0  0  0  # atno 6909 bound_to 6896
  145.2269  139.2836  143.4188 H   0  0  0  0  0  0  0  0  0  0  0  0  # atno 7974 bound_to 7965
  154.8303  140.2898  155.5726 H   0  0  0  0  0  0  0  0  0  0  0  0  # atno 8008 bound_to 7997
  156.3005  140.2533  156.3158 H   0  0  0  0  0  0  0  0  0  0  0  0  # atno 8009 bound_to 7997
  154.9238  140.0385  157.2001 H   0  0  0  0  0  0  0  0  0  0  0  0  # atno 8010 bound_to 7997
  139.6476  144.7127  151.2112 H   0  0  0  0  0  0  0  0  0  0  0  0  # atno 10167 bound_to 10162
  157.6953  131.0320  150.3375 H   0  0  0  0  0  0  0  0  0  0  0  0  # atno 10718 bound_to 10713
  154.0333  135.6654  153.4783 H   0  0  0  0  0  0  0  0  0  0  0  0  # atno 10763 bound_to 10752
  153.0531  135.5072  154.7912 H   0  0  0  0  0  0  0  0  0  0  0  0  # atno 10764 bound_to 10752
  154.6864  135.3054  154.9506 H   0  0  0  0  0  0  0  0  0  0  0  0  # atno 10765 bound_to 10752
  140.1617  134.4333  155.8313 H   0  0  0  0  0  0  0  0  0  0  0  0  # atno 11005 bound_to 11000
  146.3362  140.2592  142.8601 LP  0  0  0  0  0  0  0  0  0  0  0  0  # atno 17320 bound_to 7965
  144.9712  140.8371  143.5454 LP  0  0  0  0  0  0  0  0  0  0  0  0  # atno 17321 bound_to 7965
  140.7522  143.6205  150.8518 LP  0  0  0  0  0  0  0  0  0  0  0  0  # atno 17342 bound_to 10162
  139.9849  143.5910  152.2930 LP  0  0  0  0  0  0  0  0  0  0  0  0  # atno 17343 bound_to 10162
  156.3841  130.3886  149.7079 LP  0  0  0  0  0  0  0  0  0  0  0  0  # atno 17370 bound_to 10713
  156.4452  130.7880  151.2901 LP  0  0  0  0  0  0  0  0  0  0  0  0  # atno 17371 bound_to 10713
  141.2210  133.6916  156.7606 LP  0  0  0  0  0  0  0  0  0  0  0  0  # atno 17394 bound_to 11000
  140.2482  134.8561  157.3641 LP  0  0  0  0  0  0  0  0  0  0  0  0  # atno 17395 bound_to 11000

$$$$
