AV-unprocessed.smi:90|AV-procd|sdf|831|dock7
  -GOLD-   2262017253D 1   1.00000     0.00000
 Structure written by MMmdl.
 64 67  0  0  0  0  0  0  0  0  2 V2000
  150.6532  139.8501  155.3525 C   0  0  0  0  0  0  0  0  0  0  0  0
  150.8314  140.0670  156.7855 N   0  0  0  0  0  0  0  0  0  0  0  0
  151.7171  141.1280  157.2603 C   0  0  0  0  0  0  0  0  0  0  0  0
  151.0677  142.0045  158.3482 C   0  0  0  0  0  0  0  0  0  0  0  0
  150.6115  143.3976  157.8353 C   0  0  2  0  0  0  0  0  0  0  0  0
  151.7827  144.3631  157.5366 C   0  0  0  0  0  0  0  0  0  0  0  0
  152.4708  144.8493  158.8223 C   0  0  0  0  0  0  0  0  0  0  0  0
  151.4388  145.4771  159.7693 C   0  0  0  0  0  0  0  0  0  0  0  0
  150.2610  144.5230  160.0295 C   0  0  0  0  0  0  0  0  0  0  0  0
  149.6482  144.0789  158.7513 N   0  3  2  0  0  0  0  0  0  0  0  0
  148.3640  143.3666  158.9416 C   0  0  0  0  0  0  0  0  0  0  0  0
  150.5659  139.0032  157.5875 C   0  0  0  0  0  0  0  0  0  0  0  0
  151.4646  138.7187  158.5661 N   0  0  0  0  0  0  0  0  0  0  0  0
  151.2667  137.6848  159.3881 C   0  0  0  0  0  0  0  0  0  0  0  0
  150.2490  136.8239  159.4138 N   0  0  0  0  0  0  0  0  0  0  0  0
  149.3325  137.1090  158.4457 C   0  0  0  0  0  0  0  0  0  0  0  0
  149.4128  138.1666  157.4936 C   0  0  0  0  0  0  0  0  0  0  0  0
  148.2901  138.1387  156.6728 N   0  0  0  0  0  0  0  0  0  0  0  0
  147.5986  137.1205  157.1038 C   0  0  0  0  0  0  0  0  0  0  0  0
  148.1399  136.4563  158.1808 N   0  0  0  0  0  0  0  0  0  0  0  0
  147.5768  135.2975  158.8617 C   0  0  0  0  0  0  0  0  0  0  0  0
  146.9656  135.5918  160.2650 C   0  0  0  0  0  0  0  0  0  0  0  0
  145.7514  136.5565  160.1430 C   0  0  0  0  0  0  0  0  0  0  0  0
  146.1376  137.8558  159.7423 O   0  0  0  0  0  0  0  0  0  0  0  0
  146.5091  134.2686  160.9319 C   0  0  0  0  0  0  0  0  0  0  0  0
  146.2037  134.4192  162.4342 C   0  0  0  0  0  0  0  0  0  0  0  0
  147.3287  134.9615  163.1124 O   0  0  0  0  0  0  0  0  0  0  0  0
  147.6758  136.2594  162.6487 C   0  0  0  0  0  0  0  0  0  0  0  0
  148.0763  136.1915  161.1647 C   0  0  0  0  0  0  0  0  0  0  0  0
  150.7391  138.7945  155.0909 H   0  0  0  0  0  0  0  0  0  0  0  0
  151.4070  140.3875  154.7776 H   0  0  0  0  0  0  0  0  0  0  0  0
  149.6698  140.2015  155.0399 H   0  0  0  0  0  0  0  0  0  0  0  0
  152.6152  140.6749  157.6764 H   0  0  0  0  0  0  0  0  0  0  0  0
  152.0256  141.7401  156.4121 H   0  0  0  0  0  0  0  0  0  0  0  0
  150.2071  141.4675  158.7421 H   0  0  0  0  0  0  0  0  0  0  0  0
  151.7604  142.1082  159.1828 H   0  0  0  0  0  0  0  0  0  0  0  0
  150.0827  143.2366  156.8946 H   0  0  0  0  0  0  0  0  0  0  0  0
  152.5127  143.9110  156.8667 H   0  0  0  0  0  0  0  0  0  0  0  0
  151.3957  145.2299  156.9990 H   0  0  0  0  0  0  0  0  0  0  0  0
  152.9760  144.0198  159.3178 H   0  0  0  0  0  0  0  0  0  0  0  0
  153.2447  145.5780  158.5792 H   0  0  0  0  0  0  0  0  0  0  0  0
  151.9142  145.7505  160.7119 H   0  0  0  0  0  0  0  0  0  0  0  0
  151.0645  146.4040  159.3328 H   0  0  0  0  0  0  0  0  0  0  0  0
  150.5868  143.6604  160.6116 H   0  0  0  0  0  0  0  0  0  0  0  0
  149.5105  145.0375  160.6310 H   0  0  0  0  0  0  0  0  0  0  0  0
  148.4771  142.4920  159.5822 H   0  0  0  0  0  0  0  0  0  0  0  0
  147.9495  143.0465  157.9853 H   0  0  0  0  0  0  0  0  0  0  0  0
  147.6356  144.0279  159.4118 H   0  0  0  0  0  0  0  0  0  0  0  0
  152.0325  137.5255  160.1330 H   0  0  0  0  0  0  0  0  0  0  0  0
  146.6612  136.8313  156.6515 H   0  0  0  0  0  0  0  0  0  0  0  0
  146.8159  134.8726  158.2053 H   0  0  0  0  0  0  0  0  0  0  0  0
  148.3533  134.5355  158.9372 H   0  0  0  0  0  0  0  0  0  0  0  0
  145.0237  136.1759  159.4261 H   0  0  0  0  0  0  0  0  0  0  0  0
  145.2173  136.6536  161.0867 H   0  0  0  0  0  0  0  0  0  0  0  0
  145.9298  137.9626  158.8267 H   0  0  0  0  0  0  0  0  0  0  0  0
  145.6295  133.8666  160.4284 H   0  0  0  0  0  0  0  0  0  0  0  0
  147.2932  133.5186  160.8210 H   0  0  0  0  0  0  0  0  0  0  0  0
  145.3248  135.0407  162.6063 H   0  0  0  0  0  0  0  0  0  0  0  0
  145.9791  133.4427  162.8635 H   0  0  0  0  0  0  0  0  0  0  0  0
  146.8519  136.9549  162.8120 H   0  0  0  0  0  0  0  0  0  0  0  0
  148.5143  136.6257  163.2412 H   0  0  0  0  0  0  0  0  0  0  0  0
  148.9743  135.5767  161.0893 H   0  0  0  0  0  0  0  0  0  0  0  0
  148.3682  137.1819  160.8142 H   0  0  0  0  0  0  0  0  0  0  0  0
  149.3988  144.9315  158.2704 H   0  0  0  0  0  0  0  0  0  0  0  0
  1  2  1  0  0  0  0
  1 30  1  0  0  0  0
  1 31  1  0  0  0  0
  1 32  1  0  0  0  0
  2  3  1  0  0  0  0
  2 12  1  0  0  0  0
  3  4  1  0  0  0  0
  3 33  1  0  0  0  0
  3 34  1  0  0  0  0
  4  5  1  0  0  0  0
  4 35  1  0  0  0  0
  4 36  1  0  0  0  0
  5 10  1  0  0  0  0
  5  6  1  0  0  0  0
  5 37  1  0  0  0  0
  6  7  1  0  0  0  0
  6 38  1  0  0  0  0
  6 39  1  0  0  0  0
  7  8  1  0  0  0  0
  7 40  1  0  0  0  0
  7 41  1  0  0  0  0
  8  9  1  0  0  0  0
  8 42  1  0  0  0  0
  8 43  1  0  0  0  0
  9 10  1  0  0  0  0
  9 44  1  0  0  0  0
  9 45  1  0  0  0  0
 10 11  1  0  0  0  0
 10 64  1  0  0  0  0
 11 46  1  0  0  0  0
 11 47  1  0  0  0  0
 11 48  1  0  0  0  0
 12 17  1  0  0  0  0
 12 13  2  0  0  0  0
 13 14  1  0  0  0  0
 14 15  2  0  0  0  0
 14 49  1  0  0  0  0
 15 16  1  0  0  0  0
 16 20  1  0  0  0  0
 16 17  2  0  0  0  0
 17 18  1  0  0  0  0
 18 19  2  0  0  0  0
 19 20  1  0  0  0  0
 19 50  1  0  0  0  0
 20 21  1  0  0  0  0
 21 22  1  0  0  0  0
 21 51  1  0  0  0  0
 21 52  1  0  0  0  0
 22 29  1  0  0  0  0
 22 23  1  0  0  0  0
 22 25  1  0  0  0  0
 23 24  1  0  0  0  0
 23 53  1  0  0  0  0
 23 54  1  0  0  0  0
 24 55  1  0  0  0  0
 25 26  1  0  0  0  0
 25 56  1  0  0  0  0
 25 57  1  0  0  0  0
 26 27  1  0  0  0  0
 26 58  1  0  0  0  0
 26 59  1  0  0  0  0
 27 28  1  0  0  0  0
 28 29  1  0  0  0  0
 28 60  1  0  0  0  0
 28 61  1  0  0  0  0
 29 62  1  0  0  0  0
 29 63  1  0  0  0  0
M  CHG  1  10   1
M  END
> <s_m_source_file>
AV-unprocessed.smi

> <i_m_source_file_index>
90

> <i_lp_mmshare_version>
43012

> <i_f3d_flags>
0

> <s_epik_input>
W0NIM11OMVtDSDJdW0NIMl1bQ0gyXVtDSDJdW0NASF0xW0NIMl1bQ0gyXU4oW0NIM10pYyhuW2NIXW4yKWMoYzIzKW5bY0hdbjNbQ0gyXUM0KFtDSDJdW09IXSlbQ0gyXVtDSDJdT1tDSDJdW0NIMl00

> <s_epik_cmdline>
J2VwaWtfcHl0aG9uJywgJy1waCcsICc3LjAnLCAnLXRuJywgJzgnLCAnLW1hJywgJzIwMCcsICctbWV0YWxfYmluZGluZycsICctaW1hZScsICc8aW5maWxlLm1hZT4nLCAnLW9tYWUnLCAnPG91dGZpbGUubWFlPic=

> <r_lp_tautomer_probability>
1

> <r_epik_Ionization_Penalty>
0.00234895

> <r_epik_Ionization_Penalty_Charging>
0.00106647

> <r_epik_Ionization_Penalty_Neutral>
0.00128248

> <r_epik_State_Penalty>
-0

> <r_epik_Charging_Adjusted_Penalty>
0.00106647

> <i_epik_Tot_Q>
1

> <i_epik_Tot_abs_Q>
1

> <r_epik_Metal_State_Penalty>
-0

> <b_epik_Metal_Only>
0

> <s_lp_Force_Field>
OPLS_2005

> <r_lp_Energy>
45.3808

> <b_lp_Chiralities_Consistent>
1

> <s_lp_Variant>
AV-unprocessed.smi:90-3

> <Gold.Version>
5.8.1

> <Gold.Id.Protein>
6NUR|6NUR_protein|mol2

> <Gold.PLP.Fitness>
59.7509

> <Gold.PLP.PLP>
-49.8611

> <Gold.PLP.part.hbond>
-3.5878

> <Gold.PLP.part.metal>
0.0000

> <Gold.PLP.part.buried>
-6.2490

> <Gold.PLP.part.nonpolar>
-40.6117

> <Gold.PLP.part.repulsive>
0.1060

> <Gold.PLP.ligand.clash>
0.0000

> <Gold.PLP.ligand.torsion>
1.2900

> <Gold.PLP.Chemscore.Hbond>
3.9600

> <Gold.PLP.Chemscore.CHOScore>
0.0000

> <Gold.PLP.Chemscore.Metal>
0.0000

> <Gold.Chemscore.Hbonds>
donor molecule, donor type, donor heavy atom, donor atom, acceptor molecule, acceptor atom, score
      L1  H    10    64       P1  8029  1.72
      P1  H  6896  6909       L1    15  1.00
      P1  H  6934  6947       L1    24  0.91

> <Gold.PLP.Chemscore.Internal.Correction>
0.5897

> <Gold.Rescore>
     Score         DG    S(hbond)    S(metal)    S(lipo)     H(rot)  DE(clash)    DE(int)     intcor
     17.36     -21.33       2.42        0.00     126.17       2.73       0.16       3.82       ----

> <Gold.Chemscore.Fitness>
17.3552

> <Gold.Chemscore.DG>
-21.3286

> <Gold.Chemscore.ZeroCoef>
-5.4800

> <Gold.Chemscore.Hbond>
2.4213

> <Gold.Chemscore.Metal>
0.0000

> <Gold.Chemscore.Lipo>
126.1745

> <Gold.Chemscore.Internal_Hbond>
0.0000

> <Gold.Chemscore.DEClash>
0.1575

> <Gold.Chemscore.DEInternal>
3.8159

> <Gold.Chemscore.Rot>
2.7347

> <Gold.Chemscore.Internal.Correction>
   9.000000E+99

> <Gold.Chemscore.Hbonds>
donor molecule, donor type, donor heavy atom, donor atom, acceptor molecule, acceptor atom, score
      L1  H    10    64       P1  8029  0.36
      P1  H  6896  6909       L1    15  0.33
      P1  H  6934  6947       L1    24  0.87

> <Gold.Chemscore.Hbond.Weighted>
-8.0871

> <Gold.Chemscore.Metal.Weighted>
-0.0000

> <Gold.Chemscore.Lipo.Weighted>
-14.7624

> <Gold.Chemscore.Internal_Hbond.Weighted>
0.0000

> <Gold.Chemscore.DEClash.Weighted>
0.1575

> <Gold.Chemscore.DEInternal.Weighted>
3.8159

> <Gold.Chemscore.Rot.Weighted>
7.0009

> <Gold.Chemscore.Internal.Correction.Weighted>
   9.000000E+99

> <Gold.Protein.RotatedTorsions>
[ 6907 6896 6895 6894 ] final   95.56 input  -60.11 | X-H torsion
[ 7974 7965 7964 7962 ] final   41.38 input  175.53 | X-H torsion
[ 8008 7997 7996 7995 ] final  -30.73 input   59.86 | X-H torsion
[ 10167 10162 10161 10158 ] final  -15.17 input  -65.29 | X-H torsion
[ 10718 10713 10712 10709 ] final   83.62 input   66.30 | X-H torsion
[ 10763 10752 10751 10750 ] final    9.76 input  -60.55 | X-H torsion
[ 11005 11000 10999 10996 ] final  -98.88 input  -57.11 | X-H torsion

> <Gold.Protein.ActiveResidues>
 VAL166  LYS551  ARG553  GLY616  TRP617  ASP618  TYR619  PRO620  LYS621  CYS622 
 ASP623  PHE694  ASN695  SER759  ASP760  ASP761  ALA762  ILE779  LEU786  VAL792 
 PHE793  MET794  SER795  GLU796  ALA797  LYS798  CYS799  TRP800  GLU811  SER814 

> <Gold.Protein.RotatedAtoms>
  152.5442  134.1021  159.8321 H   0  0  0  0  0  0  0  0  0  0  0  0  # atno 6907 bound_to 6896
  151.1097  133.5174  159.2613 H   0  0  0  0  0  0  0  0  0  0  0  0  # atno 6908 bound_to 6896
  151.1898  135.0407  159.8882 H   0  0  0  0  0  0  0  0  0  0  0  0  # atno 6909 bound_to 6896
  146.0828  139.5423  142.9526 H   0  0  0  0  0  0  0  0  0  0  0  0  # atno 7974 bound_to 7965
  154.4239  140.1783  156.1453 H   0  0  0  0  0  0  0  0  0  0  0  0  # atno 8008 bound_to 7997
  155.9959  140.3364  155.6773 H   0  0  0  0  0  0  0  0  0  0  0  0  # atno 8009 bound_to 7997
  155.6309  140.0670  157.2640 H   0  0  0  0  0  0  0  0  0  0  0  0  # atno 8010 bound_to 7997
  140.7214  143.5246  150.9592 H   0  0  0  0  0  0  0  0  0  0  0  0  # atno 10167 bound_to 10162
  157.6882  131.0098  150.2550 H   0  0  0  0  0  0  0  0  0  0  0  0  # atno 10718 bound_to 10713
  153.2105  135.6868  153.8119 H   0  0  0  0  0  0  0  0  0  0  0  0  # atno 10763 bound_to 10752
  153.7353  135.3246  155.3295 H   0  0  0  0  0  0  0  0  0  0  0  0  # atno 10764 bound_to 10752
  154.8220  135.4645  154.0911 H   0  0  0  0  0  0  0  0  0  0  0  0  # atno 10765 bound_to 10752
  141.1329  133.8279  157.0898 H   0  0  0  0  0  0  0  0  0  0  0  0  # atno 11005 bound_to 11000
  145.6186  141.0327  143.1927 LP  0  0  0  0  0  0  0  0  0  0  0  0  # atno 17320 bound_to 7965
  144.7305  139.7741  143.7349 LP  0  0  0  0  0  0  0  0  0  0  0  0  # atno 17321 bound_to 7965
  139.8964  143.6889  152.3138 LP  0  0  0  0  0  0  0  0  0  0  0  0  # atno 17342 bound_to 10162
  139.7223  144.7600  151.0935 LP  0  0  0  0  0  0  0  0  0  0  0  0  # atno 17343 bound_to 10162
  156.3140  130.3776  149.7636 LP  0  0  0  0  0  0  0  0  0  0  0  0  # atno 17370 bound_to 10713
  156.5227  130.8222  151.3209 LP  0  0  0  0  0  0  0  0  0  0  0  0  # atno 17371 bound_to 10713
  140.0399  134.9859  157.0943 LP  0  0  0  0  0  0  0  0  0  0  0  0  # atno 17394 bound_to 11000
  140.4151  134.1940  155.7163 LP  0  0  0  0  0  0  0  0  0  0  0  0  # atno 17395 bound_to 11000

$$$$
