AV-unprocessed.smi:2476|AV-procd|sdf|9757|dock3
  -GOLD-   2272013393D 1   1.00000     0.00000
 Structure written by MMmdl.
 34 35  0  0  0  0  0  0  0  0  1 V2000
  145.6848  143.3360  155.5415 C   0  0  0  0  0  0  0  0  0  0  0  0
  146.4604  142.2086  154.8687 C   0  0  0  0  0  0  0  0  0  0  0  0
  145.8874  141.1640  154.5606 O   0  0  0  0  0  0  0  0  0  0  0  0
  147.7643  142.4325  154.6474 N   0  0  0  0  0  0  0  0  0  0  0  0
  148.6806  141.4937  154.0089 C   0  0  0  0  0  0  0  0  0  0  0  0
  149.5484  140.7512  155.0393 C   0  0  2  0  0  0  0  0  0  0  0  0
  150.2591  141.7267  155.9970 C   0  0  0  0  0  0  0  0  0  0  0  0
  151.1431  140.9951  156.9009 N   0  0  0  0  0  0  0  0  0  0  0  0
  151.6936  141.7018  157.9894 C   0  0  0  0  0  0  0  0  0  0  0  0
  151.7007  143.0575  157.9352 N   0  0  0  0  0  0  0  0  0  0  0  0
  152.2333  143.7479  158.9658 C   0  0  0  0  0  0  0  0  0  0  0  0
  152.7860  143.1314  160.1040 C   0  0  0  0  0  0  0  0  0  0  0  0
  152.7768  141.7262  160.1698 C   0  0  0  0  0  0  0  0  0  0  0  0
  152.2219  140.9977  159.0998 C   0  0  0  0  0  0  0  0  0  0  0  0
  152.1836  139.6442  159.1570 F   0  0  0  0  0  0  0  0  0  0  0  0
  152.0872  140.1326  156.1983 C   0  0  0  0  0  0  0  0  0  0  0  0
  151.3366  139.2114  155.2222 C   0  0  0  0  0  0  0  0  0  0  0  0
  150.5372  139.9954  154.3420 O   0  0  0  0  0  0  0  0  0  0  0  0
  145.9932  144.3062  155.1504 H   0  0  0  0  0  0  0  0  0  0  0  0
  145.8598  143.3249  156.6176 H   0  0  0  0  0  0  0  0  0  0  0  0
  144.6140  143.2253  155.3668 H   0  0  0  0  0  0  0  0  0  0  0  0
  148.1488  143.3222  154.9308 H   0  0  0  0  0  0  0  0  0  0  0  0
  148.0933  140.7799  153.4306 H   0  0  0  0  0  0  0  0  0  0  0  0
  149.3114  142.0251  153.2944 H   0  0  0  0  0  0  0  0  0  0  0  0
  148.9183  140.0744  155.6197 H   0  0  0  0  0  0  0  0  0  0  0  0
  150.8414  142.4520  155.4266 H   0  0  0  0  0  0  0  0  0  0  0  0
  149.5186  142.2829  156.5736 H   0  0  0  0  0  0  0  0  0  0  0  0
  152.2183  144.8242  158.8797 H   0  0  0  0  0  0  0  0  0  0  0  0
  153.2023  143.7213  160.9071 H   0  0  0  0  0  0  0  0  0  0  0  0
  153.1846  141.2145  161.0292 H   0  0  0  0  0  0  0  0  0  0  0  0
  152.7948  140.7568  155.6510 H   0  0  0  0  0  0  0  0  0  0  0  0
  152.6703  139.5292  156.8932 H   0  0  0  0  0  0  0  0  0  0  0  0
  152.0461  138.6295  154.6342 H   0  0  0  0  0  0  0  0  0  0  0  0
  150.7107  138.4991  155.7621 H   0  0  0  0  0  0  0  0  0  0  0  0
  1  2  1  0  0  0  0
  1 19  1  0  0  0  0
  1 20  1  0  0  0  0
  1 21  1  0  0  0  0
  2  3  2  0  0  0  0
  2  4  1  0  0  0  0
  4  5  1  0  0  0  0
  4 22  1  0  0  0  0
  5  6  1  0  0  0  0
  5 23  1  0  0  0  0
  5 24  1  0  0  0  0
  6 18  1  0  0  0  0
  6  7  1  0  0  0  0
  6 25  1  0  0  0  0
  7  8  1  0  0  0  0
  7 26  1  0  0  0  0
  7 27  1  0  0  0  0
  8  9  1  0  0  0  0
  8 16  1  0  0  0  0
  9 14  1  0  0  0  0
  9 10  2  0  0  0  0
 10 11  1  0  0  0  0
 11 12  2  0  0  0  0
 11 28  1  0  0  0  0
 12 13  1  0  0  0  0
 12 29  1  0  0  0  0
 13 14  2  0  0  0  0
 13 30  1  0  0  0  0
 14 15  1  0  0  0  0
 16 17  1  0  0  0  0
 16 31  1  0  0  0  0
 16 32  1  0  0  0  0
 17 18  1  0  0  0  0
 17 33  1  0  0  0  0
 17 34  1  0  0  0  0
M  END
> <s_m_source_file>
AV-unprocessed.smi

> <i_m_source_file_index>
2476

> <i_lp_mmshare_version>
43012

> <i_f3d_flags>
0

> <s_epik_input>
W0NIM11DKD1PKVtOSF1bQ0gyXVtDQEBIXTFbQ0gyXU4oW0NIMl1bQ0gyXU8xKWMybltjSF1bY0hdW2NIXWMyRg==

> <s_epik_cmdline>
J2VwaWtfcHl0aG9uJywgJy1waCcsICc3LjAnLCAnLXRuJywgJzgnLCAnLW1hJywgJzIwMCcsICctbWV0YWxfYmluZGluZycsICctaW1hZScsICc8aW5maWxlLm1hZT4nLCAnLW9tYWUnLCAnPG91dGZpbGUubWFlPic=

> <r_lp_tautomer_probability>
1

> <r_epik_Ionization_Penalty>
1.69306e-05

> <r_epik_Ionization_Penalty_Charging>
0

> <r_epik_Ionization_Penalty_Neutral>
1.69306e-05

> <r_epik_State_Penalty>
-0

> <r_epik_Charging_Adjusted_Penalty>
0

> <i_epik_Tot_Q>
0

> <i_epik_Tot_abs_Q>
0

> <r_epik_Metal_State_Penalty>
-0

> <b_epik_Metal_Only>
0

> <s_lp_Force_Field>
OPLS_2005

> <r_lp_Energy>
18.0017

> <b_lp_Chiralities_Consistent>
1

> <s_lp_Variant>
AV-unprocessed.smi:2476-1

> <Gold.Version>
5.8.1

> <Gold.Id.Protein>
6NUR|6NUR_protein|mol2

> <Gold.PLP.Fitness>
43.0825

> <Gold.PLP.PLP>
-37.6795

> <Gold.PLP.part.hbond>
-2.0000

> <Gold.PLP.part.metal>
0.0000

> <Gold.PLP.part.buried>
-5.0749

> <Gold.PLP.part.nonpolar>
-31.6177

> <Gold.PLP.part.repulsive>
0.4771

> <Gold.PLP.ligand.clash>
0.0000

> <Gold.PLP.ligand.torsion>
0.4274

> <Gold.PLP.Chemscore.Hbond>
2.0000

> <Gold.PLP.Chemscore.CHOScore>
0.0000

> <Gold.PLP.Chemscore.Metal>
0.0000

> <Gold.Chemscore.Hbonds>
donor molecule, donor type, donor heavy atom, donor atom, acceptor molecule, acceptor atom, score
      L1  H     4    22       P1  8028  1.00
      P1  H  7989  7998       L1    18  1.00

> <Gold.PLP.Chemscore.Internal.Correction>
0.2577

> <Gold.Rescore>
     Score         DG    S(hbond)    S(metal)    S(lipo)     H(rot)  DE(clash)    DE(int)     intcor
     15.25     -16.77       1.79        0.00      80.66       1.61       0.15       1.38       ----

> <Gold.Chemscore.Fitness>
15.2491

> <Gold.Chemscore.DG>
-16.7743

> <Gold.Chemscore.ZeroCoef>
-5.4800

> <Gold.Chemscore.Hbond>
1.7881

> <Gold.Chemscore.Metal>
0.0000

> <Gold.Chemscore.Lipo>
80.6649

> <Gold.Chemscore.Internal_Hbond>
0.0000

> <Gold.Chemscore.DEClash>
0.1483

> <Gold.Chemscore.DEInternal>
1.3769

> <Gold.Chemscore.Rot>
1.6078

> <Gold.Chemscore.Internal.Correction>
   9.000000E+99

> <Gold.Chemscore.Hbonds>
donor molecule, donor type, donor heavy atom, donor atom, acceptor molecule, acceptor atom, score
      L1  H     4    22       P1  8028  0.93
      P1  H  7989  7998       L1    18  0.41

> <Gold.Chemscore.Hbond.Weighted>
-5.9724

> <Gold.Chemscore.Metal.Weighted>
-0.0000

> <Gold.Chemscore.Lipo.Weighted>
-9.4378

> <Gold.Chemscore.Internal_Hbond.Weighted>
0.0000

> <Gold.Chemscore.DEClash.Weighted>
0.1483

> <Gold.Chemscore.DEInternal.Weighted>
1.3769

> <Gold.Chemscore.Rot.Weighted>
4.1159

> <Gold.Chemscore.Internal.Correction.Weighted>
   9.000000E+99

> <Gold.Protein.RotatedTorsions>
[ 6907 6896 6895 6894 ] final  -52.98 input  -60.11 | X-H torsion
[ 7974 7965 7964 7962 ] final    7.43 input  175.53 | X-H torsion
[ 8008 7997 7996 7995 ] final -101.28 input   59.86 | X-H torsion
[ 10167 10162 10161 10158 ] final -154.67 input  -65.29 | X-H torsion
[ 10718 10713 10712 10709 ] final  -11.82 input   66.30 | X-H torsion
[ 10763 10752 10751 10750 ] final  -26.97 input  -60.55 | X-H torsion
[ 11005 11000 10999 10996 ] final  120.75 input  -57.11 | X-H torsion

> <Gold.Protein.ActiveResidues>
 VAL166  LYS551  ARG553  GLY616  TRP617  ASP618  TYR619  PRO620  LYS621  CYS622 
 ASP623  PHE694  ASN695  SER759  ASP760  ASP761  ALA762  ILE779  LEU786  VAL792 
 PHE793  MET794  SER795  GLU796  ALA797  LYS798  CYS799  TRP800  GLU811  SER814 

> <Gold.Protein.RotatedAtoms>
  150.8468  134.7779  159.6976 H   0  0  0  0  0  0  0  0  0  0  0  0  # atno 6907 bound_to 6896
  152.4543  134.5323  159.9824 H   0  0  0  0  0  0  0  0  0  0  0  0  # atno 6908 bound_to 6896
  151.5452  133.3388  159.2978 H   0  0  0  0  0  0  0  0  0  0  0  0  # atno 6909 bound_to 6896
  146.2426  140.0084  142.8409 H   0  0  0  0  0  0  0  0  0  0  0  0  # atno 7974 bound_to 7965
  154.8404  140.0435  157.1537 H   0  0  0  0  0  0  0  0  0  0  0  0  # atno 8008 bound_to 7997
  154.9053  140.3006  155.5275 H   0  0  0  0  0  0  0  0  0  0  0  0  # atno 8009 bound_to 7997
  156.2992  140.2368  156.4086 H   0  0  0  0  0  0  0  0  0  0  0  0  # atno 8010 bound_to 7997
  139.6994  143.9287  152.2422 H   0  0  0  0  0  0  0  0  0  0  0  0  # atno 10167 bound_to 10162
  156.6536  130.4962  149.6054 H   0  0  0  0  0  0  0  0  0  0  0  0  # atno 10718 bound_to 10713
  153.7245  135.6943  153.5004 H   0  0  0  0  0  0  0  0  0  0  0  0  # atno 10763 bound_to 10752
  153.2180  135.4380  155.0455 H   0  0  0  0  0  0  0  0  0  0  0  0  # atno 10764 bound_to 10752
  154.8273  135.3453  154.6778 H   0  0  0  0  0  0  0  0  0  0  0  0  # atno 10765 bound_to 10752
  139.9198  134.9636  156.7855 H   0  0  0  0  0  0  0  0  0  0  0  0  # atno 11005 bound_to 11000
  145.1351  140.9540  143.4522 LP  0  0  0  0  0  0  0  0  0  0  0  0  # atno 17320 bound_to 7965
  145.0350  139.3308  143.6005 LP  0  0  0  0  0  0  0  0  0  0  0  0  # atno 17321 bound_to 7965
  139.9126  144.6847  150.8546 LP  0  0  0  0  0  0  0  0  0  0  0  0  # atno 17342 bound_to 10162
  140.7705  143.3432  151.2164 LP  0  0  0  0  0  0  0  0  0  0  0  0  # atno 17343 bound_to 10162
  156.2065  130.6652  151.1224 LP  0  0  0  0  0  0  0  0  0  0  0  0  # atno 17370 bound_to 10713
  157.7133  131.0723  150.6421 LP  0  0  0  0  0  0  0  0  0  0  0  0  # atno 17371 bound_to 10713
  140.6510  133.9732  155.7755 LP  0  0  0  0  0  0  0  0  0  0  0  0  # atno 17394 bound_to 11000
  141.0708  134.0208  157.3528 LP  0  0  0  0  0  0  0  0  0  0  0  0  # atno 17395 bound_to 11000

$$$$
