AV-unprocessed.smi:1287|AV-procd|sdf|5380|dock1
  -GOLD-   22720 4523D 1   1.00000     0.00000
 Structure written by MMmdl.
 44 45  0  0  0  0  0  0  0  0  1 V2000
  151.1133  131.4439  155.5227 C   0  0  0  0  0  0  0  0  0  0  0  0
  150.7181  132.8710  155.8858 C   0  0  0  0  0  0  0  0  0  0  0  0
  151.0180  133.3354  156.9854 O   0  0  0  0  0  0  0  0  0  0  0  0
  150.0431  133.5563  154.9494 N   0  0  0  0  0  0  0  0  0  0  0  0
  149.5537  134.9266  155.0952 C   0  0  1  0  0  0  0  0  0  0  0  0
  148.8652  135.0436  156.4654 C   0  0  0  0  0  0  0  0  0  0  0  0
  150.7195  135.9281  155.0661 C   0  0  0  0  0  0  0  0  0  0  0  0
  151.6333  135.8543  155.8894 O   0  0  0  0  0  0  0  0  0  0  0  0
  150.6584  136.8787  154.1212 N   0  0  0  0  0  0  0  0  0  0  0  0
  151.6438  137.9393  153.9392 C   0  0  0  0  0  0  0  0  0  0  0  0
  151.6972  138.9435  155.0819 C   0  0  0  0  0  0  0  0  0  0  0  0
  150.7172  139.9449  155.2434 C   0  0  0  0  0  0  0  0  0  0  0  0
  150.8285  140.8429  156.3219 C   0  0  0  0  0  0  0  0  0  0  0  0
  151.9222  140.7219  157.2120 C   0  0  0  0  0  0  0  0  0  0  0  0
  152.0531  141.6098  158.3021 N   0  0  0  0  0  0  0  0  0  0  0  0
  151.6914  143.0000  158.0356 C   0  0  0  0  0  0  0  0  0  0  0  0
  151.5763  143.7860  159.3532 C   0  0  0  0  0  0  0  0  0  0  0  0
  152.7838  143.6613  160.0974 O   0  0  0  0  0  0  0  0  0  0  0  0
  153.0552  142.3069  160.4421 C   0  0  0  0  0  0  0  0  0  0  0  0
  153.2268  141.4714  159.1623 C   0  0  0  0  0  0  0  0  0  0  0  0
  152.8627  139.7582  157.0514 N   0  0  0  0  0  0  0  0  0  0  0  0
  152.7516  138.9005  156.0155 C   0  0  0  0  0  0  0  0  0  0  0  0
  150.2423  130.8787  155.1897 H   0  0  0  0  0  0  0  0  0  0  0  0
  151.5438  130.9301  156.3828 H   0  0  0  0  0  0  0  0  0  0  0  0
  151.8518  131.4465  154.7204 H   0  0  0  0  0  0  0  0  0  0  0  0
  149.8342  133.0894  154.0787 H   0  0  0  0  0  0  0  0  0  0  0  0
  148.8372  135.1553  154.3037 H   0  0  0  0  0  0  0  0  0  0  0  0
  148.4758  136.0496  156.6285 H   0  0  0  0  0  0  0  0  0  0  0  0
  149.5481  134.8146  157.2852 H   0  0  0  0  0  0  0  0  0  0  0  0
  148.0225  134.3553  156.5369 H   0  0  0  0  0  0  0  0  0  0  0  0
  149.8739  136.8680  153.4856 H   0  0  0  0  0  0  0  0  0  0  0  0
  152.6305  137.4990  153.7843 H   0  0  0  0  0  0  0  0  0  0  0  0
  151.3993  138.4773  153.0234 H   0  0  0  0  0  0  0  0  0  0  0  0
  149.8873  140.0283  154.5571 H   0  0  0  0  0  0  0  0  0  0  0  0
  150.0699  141.5984  156.4608 H   0  0  0  0  0  0  0  0  0  0  0  0
  152.4583  143.4464  157.4013 H   0  0  0  0  0  0  0  0  0  0  0  0
  150.7491  143.0773  157.4951 H   0  0  0  0  0  0  0  0  0  0  0  0
  151.3953  144.8407  159.1457 H   0  0  0  0  0  0  0  0  0  0  0  0
  150.7324  143.4291  159.9458 H   0  0  0  0  0  0  0  0  0  0  0  0
  153.9655  142.2680  161.0400 H   0  0  0  0  0  0  0  0  0  0  0  0
  152.2498  141.9090  161.0615 H   0  0  0  0  0  0  0  0  0  0  0  0
  153.3772  140.4254  159.4320 H   0  0  0  0  0  0  0  0  0  0  0  0
  154.1138  141.7998  158.6187 H   0  0  0  0  0  0  0  0  0  0  0  0
  153.5287  138.1548  155.9334 H   0  0  0  0  0  0  0  0  0  0  0  0
  1  2  1  0  0  0  0
  1 23  1  0  0  0  0
  1 24  1  0  0  0  0
  1 25  1  0  0  0  0
  2  3  2  0  0  0  0
  2  4  1  0  0  0  0
  4  5  1  0  0  0  0
  4 26  1  0  0  0  0
  5  6  1  0  0  0  0
  5  7  1  0  0  0  0
  5 27  1  0  0  0  0
  6 28  1  0  0  0  0
  6 29  1  0  0  0  0
  6 30  1  0  0  0  0
  7  8  2  0  0  0  0
  7  9  1  0  0  0  0
  9 10  1  0  0  0  0
  9 31  1  0  0  0  0
 10 11  1  0  0  0  0
 10 32  1  0  0  0  0
 10 33  1  0  0  0  0
 11 22  1  0  0  0  0
 11 12  2  0  0  0  0
 12 13  1  0  0  0  0
 12 34  1  0  0  0  0
 13 14  2  0  0  0  0
 13 35  1  0  0  0  0
 14 15  1  0  0  0  0
 14 21  1  0  0  0  0
 15 20  1  0  0  0  0
 15 16  1  0  0  0  0
 16 17  1  0  0  0  0
 16 36  1  0  0  0  0
 16 37  1  0  0  0  0
 17 18  1  0  0  0  0
 17 38  1  0  0  0  0
 17 39  1  0  0  0  0
 18 19  1  0  0  0  0
 19 20  1  0  0  0  0
 19 40  1  0  0  0  0
 19 41  1  0  0  0  0
 20 42  1  0  0  0  0
 20 43  1  0  0  0  0
 21 22  2  0  0  0  0
 22 44  1  0  0  0  0
M  END
> <s_m_source_file>
AV-unprocessed.smi

> <i_m_source_file_index>
1287

> <i_lp_mmshare_version>
43012

> <i_f3d_flags>
0

> <s_epik_input>
W0NIM11DKD1PKVtOSF1bQ0BIXShbQ0gzXSlDKD1PKVtOSF1bQ0gyXWMxW2NIXVtjSF1jKG5bY0hdMSlOMltDSDJdW0NIMl1PW0NIMl1bQ0gyXTI=

> <s_epik_cmdline>
J2VwaWtfcHl0aG9uJywgJy1waCcsICc3LjAnLCAnLXRuJywgJzgnLCAnLW1hJywgJzIwMCcsICctbWV0YWxfYmluZGluZycsICctaW1hZScsICc8aW5maWxlLm1hZT4nLCAnLW9tYWUnLCAnPG91dGZpbGUubWFlPic=

> <r_lp_tautomer_probability>
1

> <r_epik_Ionization_Penalty>
0.00481935

> <r_epik_Ionization_Penalty_Charging>
0

> <r_epik_Ionization_Penalty_Neutral>
0.00481935

> <r_epik_State_Penalty>
0.00349439

> <r_epik_Charging_Adjusted_Penalty>
0.00349439

> <i_epik_Tot_Q>
0

> <i_epik_Tot_abs_Q>
0

> <r_epik_Metal_State_Penalty>
-0

> <b_epik_Metal_Only>
0

> <s_lp_Force_Field>
OPLS_2005

> <r_lp_Energy>
13.9902

> <b_lp_Chiralities_Consistent>
1

> <s_lp_Variant>
AV-unprocessed.smi:1287-2

> <Gold.Version>
5.8.1

> <Gold.Id.Protein>
6NUR|6NUR_protein|mol2

> <Gold.PLP.Fitness>
49.5433

> <Gold.PLP.PLP>
-39.1944

> <Gold.PLP.part.hbond>
-5.0000

> <Gold.PLP.part.metal>
0.0000

> <Gold.PLP.part.buried>
-4.0166

> <Gold.PLP.part.nonpolar>
-30.5660

> <Gold.PLP.part.repulsive>
0.1312

> <Gold.PLP.ligand.clash>
0.0000

> <Gold.PLP.ligand.torsion>
0.6810

> <Gold.PLP.Chemscore.Hbond>
3.7728

> <Gold.PLP.Chemscore.CHOScore>
0.0000

> <Gold.PLP.Chemscore.Metal>
0.0000

> <Gold.Chemscore.Hbonds>
donor molecule, donor type, donor heavy atom, donor atom, acceptor molecule, acceptor atom, score
      L1  H     9    31       P1  7948  1.00
      P1  H  6896  6909       L1     3  0.40
      P1  H  7997  8009       L1    21  0.82
      P1  H 10752 10764       L1     8  1.00

> <Gold.PLP.Chemscore.Internal.Correction>
0.3925

> <Gold.Rescore>
     Score         DG    S(hbond)    S(metal)    S(lipo)     H(rot)  DE(clash)    DE(int)     intcor
     17.37     -20.32       2.92        0.00      90.83       2.16       0.40       2.55       ----

> <Gold.Chemscore.Fitness>
17.3682

> <Gold.Chemscore.DG>
-20.3193

> <Gold.Chemscore.ZeroCoef>
-5.4800

> <Gold.Chemscore.Hbond>
2.9180

> <Gold.Chemscore.Metal>
0.0000

> <Gold.Chemscore.Lipo>
90.8277

> <Gold.Chemscore.Internal_Hbond>
0.0000

> <Gold.Chemscore.DEClash>
0.3965

> <Gold.Chemscore.DEInternal>
2.5546

> <Gold.Chemscore.Rot>
2.1616

> <Gold.Chemscore.Internal.Correction>
   9.000000E+99

> <Gold.Chemscore.Hbonds>
donor molecule, donor type, donor heavy atom, donor atom, acceptor molecule, acceptor atom, score
      L1  H     9    31       P1  7948  0.33
      P1  H  6896  6909       L1     3  0.39
      P1  H  7997  8009       L1    21  0.16
      P1  H 10752 10764       L1     8  0.83

> <Gold.Chemscore.Hbond.Weighted>
-9.7461

> <Gold.Chemscore.Metal.Weighted>
-0.0000

> <Gold.Chemscore.Lipo.Weighted>
-10.6268

> <Gold.Chemscore.Internal_Hbond.Weighted>
0.0000

> <Gold.Chemscore.DEClash.Weighted>
0.3965

> <Gold.Chemscore.DEInternal.Weighted>
2.5546

> <Gold.Chemscore.Rot.Weighted>
5.5336

> <Gold.Chemscore.Internal.Correction.Weighted>
   9.000000E+99

> <Gold.Protein.RotatedTorsions>
[ 6907 6896 6895 6894 ] final  -20.77 input  -60.11 | X-H torsion
[ 7974 7965 7964 7962 ] final -101.39 input  175.53 | X-H torsion
[ 8008 7997 7996 7995 ] final  158.75 input   59.86 | X-H torsion
[ 10167 10162 10161 10158 ] final   48.45 input  -65.29 | X-H torsion
[ 10718 10713 10712 10709 ] final   -6.76 input   66.30 | X-H torsion
[ 10763 10752 10751 10750 ] final  -21.11 input  -60.55 | X-H torsion
[ 11005 11000 10999 10996 ] final  150.41 input  -57.11 | X-H torsion

> <Gold.Protein.ActiveResidues>
 VAL166  LYS551  ARG553  GLY616  TRP617  ASP618  TYR619  PRO620  LYS621  CYS622 
 ASP623  PHE694  ASN695  SER759  ASP760  ASP761  ALA762  ILE779  LEU786  VAL792 
 PHE793  MET794  SER795  GLU796  ALA797  LYS798  CYS799  TRP800  GLU811  SER814 

> <Gold.Protein.RotatedAtoms>
  151.2432  135.0596  159.9032 H   0  0  0  0  0  0  0  0  0  0  0  0  # atno 6907 bound_to 6896
  152.5390  134.0412  159.8078 H   0  0  0  0  0  0  0  0  0  0  0  0  # atno 6908 bound_to 6896
  151.0609  133.5496  159.2666 H   0  0  0  0  0  0  0  0  0  0  0  0  # atno 6909 bound_to 6896
  145.2822  140.9330  143.2925 H   0  0  0  0  0  0  0  0  0  0  0  0  # atno 7974 bound_to 7965
  156.2283  140.1850  156.7307 H   0  0  0  0  0  0  0  0  0  0  0  0  # atno 8008 bound_to 7997
  154.5979  140.0640  156.9356 H   0  0  0  0  0  0  0  0  0  0  0  0  # atno 8009 bound_to 7997
  155.2225  140.3308  155.4316 H   0  0  0  0  0  0  0  0  0  0  0  0  # atno 8010 bound_to 7997
  140.2932  144.3022  150.6236 H   0  0  0  0  0  0  0  0  0  0  0  0  # atno 10167 bound_to 10162
  156.7272  130.5169  149.5854 H   0  0  0  0  0  0  0  0  0  0  0  0  # atno 10718 bound_to 10713
  153.6310  135.6989  153.5275 H   0  0  0  0  0  0  0  0  0  0  0  0  # atno 10763 bound_to 10752
  153.2859  135.4171  155.1122 H   0  0  0  0  0  0  0  0  0  0  0  0  # atno 10764 bound_to 10752
  154.8522  135.3613  154.5853 H   0  0  0  0  0  0  0  0  0  0  0  0  # atno 10765 bound_to 10752
  140.1129  134.8913  157.1962 H   0  0  0  0  0  0  0  0  0  0  0  0  # atno 11005 bound_to 11000
  144.9243  139.4374  143.6526 LP  0  0  0  0  0  0  0  0  0  0  0  0  # atno 17320 bound_to 7965
  146.3212  139.8120  142.8944 LP  0  0  0  0  0  0  0  0  0  0  0  0  # atno 17321 bound_to 7965
  140.5715  143.2180  151.7591 LP  0  0  0  0  0  0  0  0  0  0  0  0  # atno 17342 bound_to 10162
  139.4933  144.4210  151.9977 LP  0  0  0  0  0  0  0  0  0  0  0  0  # atno 17343 bound_to 10162
  156.1554  130.6338  151.0650 LP  0  0  0  0  0  0  0  0  0  0  0  0  # atno 17370 bound_to 10713
  157.6874  131.0821  150.7205 LP  0  0  0  0  0  0  0  0  0  0  0  0  # atno 17371 bound_to 10713
  140.3067  134.3070  155.7276 LP  0  0  0  0  0  0  0  0  0  0  0  0  # atno 17394 bound_to 11000
  141.2134  133.7625  156.9719 LP  0  0  0  0  0  0  0  0  0  0  0  0  # atno 17395 bound_to 11000

$$$$
