AV-unprocessed.smi:155|AV-procd|sdf|1285|dock2
  -GOLD-   2262018563D 1   1.00000     0.00000
 Structure written by MMmdl.
 64 67  0  0  0  0  0  0  0  0  3 V2000
  145.8394  131.9554  149.5370 C   0  0  0  0  0  0  0  0  0  0  0  0
  145.5801  132.7250  150.7759 N   0  3  0  0  0  0  0  0  0  0  0  0
  144.6021  132.0364  151.6474 C   0  0  0  0  0  0  0  0  0  0  0  0
  146.8177  133.0934  151.5098 C   0  0  0  0  0  0  0  0  0  0  0  0
  146.5516  134.0651  152.6797 C   0  0  0  0  0  0  0  0  0  0  0  0
  147.7926  134.4777  153.3889 N   0  3  2  0  0  0  0  0  0  0  0  0
  148.6750  133.3259  153.7155 C   0  0  0  0  0  0  0  0  0  0  0  0
  150.1459  133.6781  153.4385 C   0  0  0  0  0  0  0  0  0  0  0  0
  150.7861  134.6240  154.4658 C   0  0  0  0  0  0  0  0  0  0  0  0
  150.0020  135.8447  154.6635 N   0  0  0  0  0  0  0  0  0  0  0  0
  150.6150  137.0571  154.6866 C   0  0  0  0  0  0  0  0  0  0  0  0
  151.6225  137.3185  153.8121 N   0  0  0  0  0  0  0  0  0  0  0  0
  152.2455  138.5006  153.8286 C   0  0  0  0  0  0  0  0  0  0  0  0
  152.0245  139.5484  154.6240 N   0  0  0  0  0  0  0  0  0  0  0  0
  151.0117  139.2963  155.5010 C   0  0  0  0  0  0  0  0  0  0  0  0
  150.2605  138.0908  155.6009 C   0  0  0  0  0  0  0  0  0  0  0  0
  149.3052  138.2140  156.6044 N   0  0  0  0  0  0  0  0  0  0  0  0
  149.4893  139.4171  157.0765 C   0  0  0  0  0  0  0  0  0  0  0  0
  150.4926  140.1363  156.4689 N   0  0  0  0  0  0  0  0  0  0  0  0
  150.9102  141.4916  156.7817 C   0  0  0  0  0  0  0  0  0  0  0  0
  151.2024  141.6835  158.2856 C   0  0  1  0  0  0  0  0  0  0  0  0
  151.9316  140.5576  158.7367 O   0  0  0  0  0  0  0  0  0  0  0  0
  152.0424  142.9417  158.5829 C   0  0  1  0  0  0  0  0  0  0  0  0
  151.4074  144.2584  158.1276 C   0  0  0  0  0  0  0  0  0  0  0  0
  152.0149  145.2984  159.0556 C   0  0  0  0  0  0  0  0  0  0  0  0
  152.6123  144.4705  160.1948 C   0  0  0  0  0  0  0  0  0  0  0  0
  152.1234  143.1539  159.9846 O   0  0  0  0  0  0  0  0  0  0  0  0
  148.7545  135.7172  155.4150 C   0  0  0  0  0  0  0  0  0  0  0  0
  147.5258  135.3784  154.5453 C   0  0  0  0  0  0  0  0  0  0  0  0
  146.3500  131.0170  149.7578 H   0  0  0  0  0  0  0  0  0  0  0  0
  146.4512  132.5230  148.8366 H   0  0  0  0  0  0  0  0  0  0  0  0
  144.9036  131.7199  149.0287 H   0  0  0  0  0  0  0  0  0  0  0  0
  145.0004  131.0871  152.0085 H   0  0  0  0  0  0  0  0  0  0  0  0
  143.6769  131.8348  151.1060 H   0  0  0  0  0  0  0  0  0  0  0  0
  144.3491  132.6524  152.5111 H   0  0  0  0  0  0  0  0  0  0  0  0
  147.2572  132.1807  151.9159 H   0  0  0  0  0  0  0  0  0  0  0  0
  147.5457  133.5073  150.8107 H   0  0  0  0  0  0  0  0  0  0  0  0
  146.0146  134.9517  152.3407 H   0  0  0  0  0  0  0  0  0  0  0  0
  145.9016  133.5555  153.3926 H   0  0  0  0  0  0  0  0  0  0  0  0
  148.5237  132.9851  154.7408 H   0  0  0  0  0  0  0  0  0  0  0  0
  148.4254  132.4727  153.0838 H   0  0  0  0  0  0  0  0  0  0  0  0
  150.7305  132.7577  153.4172 H   0  0  0  0  0  0  0  0  0  0  0  0
  150.2352  134.1084  152.4400 H   0  0  0  0  0  0  0  0  0  0  0  0
  150.8896  134.1143  155.4244 H   0  0  0  0  0  0  0  0  0  0  0  0
  151.7988  134.8443  154.1277 H   0  0  0  0  0  0  0  0  0  0  0  0
  153.0347  138.6240  153.1014 H   0  0  0  0  0  0  0  0  0  0  0  0
  148.8911  139.8187  157.8815 H   0  0  0  0  0  0  0  0  0  0  0  0
  151.7914  141.7343  156.1860 H   0  0  0  0  0  0  0  0  0  0  0  0
  150.1178  142.1643  156.4526 H   0  0  0  0  0  0  0  0  0  0  0  0
  150.2597  141.7347  158.8324 H   0  0  0  0  0  0  0  0  0  0  0  0
  151.9781  140.5889  159.6798 H   0  0  0  0  0  0  0  0  0  0  0  0
  153.0470  142.8525  158.1636 H   0  0  0  0  0  0  0  0  0  0  0  0
  151.5922  144.4742  157.0749 H   0  0  0  0  0  0  0  0  0  0  0  0
  150.3274  144.2262  158.2795 H   0  0  0  0  0  0  0  0  0  0  0  0
  152.7908  145.8789  158.5552 H   0  0  0  0  0  0  0  0  0  0  0  0
  151.2537  145.9914  159.4151 H   0  0  0  0  0  0  0  0  0  0  0  0
  153.7015  144.4636  160.1343 H   0  0  0  0  0  0  0  0  0  0  0  0
  152.3276  144.8425  161.1791 H   0  0  0  0  0  0  0  0  0  0  0  0
  148.8915  134.9223  156.1491 H   0  0  0  0  0  0  0  0  0  0  0  0
  148.5537  136.6107  156.0077 H   0  0  0  0  0  0  0  0  0  0  0  0
  147.1196  136.3118  154.1587 H   0  0  0  0  0  0  0  0  0  0  0  0
  146.7505  134.9475  155.1802 H   0  0  0  0  0  0  0  0  0  0  0  0
  145.1397  133.5895  150.4941 H   0  0  0  0  0  0  0  0  0  0  0  0
  148.3192  135.0253  152.7230 H   0  0  0  0  0  0  0  0  0  0  0  0
  1  2  1  0  0  0  0
  1 30  1  0  0  0  0
  1 31  1  0  0  0  0
  1 32  1  0  0  0  0
  2  3  1  0  0  0  0
  2  4  1  0  0  0  0
  2 63  1  0  0  0  0
  3 33  1  0  0  0  0
  3 34  1  0  0  0  0
  3 35  1  0  0  0  0
  4  5  1  0  0  0  0
  4 36  1  0  0  0  0
  4 37  1  0  0  0  0
  5  6  1  0  0  0  0
  5 38  1  0  0  0  0
  5 39  1  0  0  0  0
  6 29  1  0  0  0  0
  6  7  1  0  0  0  0
  6 64  1  0  0  0  0
  7  8  1  0  0  0  0
  7 40  1  0  0  0  0
  7 41  1  0  0  0  0
  8  9  1  0  0  0  0
  8 42  1  0  0  0  0
  8 43  1  0  0  0  0
  9 10  1  0  0  0  0
  9 44  1  0  0  0  0
  9 45  1  0  0  0  0
 10 11  1  0  0  0  0
 10 28  1  0  0  0  0
 11 16  1  0  0  0  0
 11 12  2  0  0  0  0
 12 13  1  0  0  0  0
 13 14  2  0  0  0  0
 13 46  1  0  0  0  0
 14 15  1  0  0  0  0
 15 19  1  0  0  0  0
 15 16  2  0  0  0  0
 16 17  1  0  0  0  0
 17 18  2  0  0  0  0
 18 19  1  0  0  0  0
 18 47  1  0  0  0  0
 19 20  1  0  0  0  0
 20 21  1  0  0  0  0
 20 48  1  0  0  0  0
 20 49  1  0  0  0  0
 21 22  1  0  0  0  0
 21 23  1  0  0  0  0
 21 50  1  0  0  0  0
 22 51  1  0  0  0  0
 23 27  1  0  0  0  0
 23 24  1  0  0  0  0
 23 52  1  0  0  0  0
 24 25  1  0  0  0  0
 24 53  1  0  0  0  0
 24 54  1  0  0  0  0
 25 26  1  0  0  0  0
 25 55  1  0  0  0  0
 25 56  1  0  0  0  0
 26 27  1  0  0  0  0
 26 57  1  0  0  0  0
 26 58  1  0  0  0  0
 28 29  1  0  0  0  0
 28 59  1  0  0  0  0
 28 60  1  0  0  0  0
 29 61  1  0  0  0  0
 29 62  1  0  0  0  0
M  CHG  1   2   1
M  CHG  1   6   1
M  END
> <s_m_source_file>
AV-unprocessed.smi

> <i_m_source_file_index>
155

> <i_lp_mmshare_version>
43012

> <i_f3d_flags>
0

> <s_epik_input>
W0NIM11OKFtDSDNdKVtDSDJdW0NIMl1OMVtDSDJdW0NIMl1bQ0gyXU4oW0NIMl1bQ0gyXTEpYyhuW2NIXW4yKWMoYzIzKW5bY0hdbjNbQ0gyXVtDQEhdKFtPSF0pW0NAQEhdNFtDSDJdW0NIMl1bQ0gyXU80

> <s_epik_cmdline>
J2VwaWtfcHl0aG9uJywgJy1waCcsICc3LjAnLCAnLXRuJywgJzgnLCAnLW1hJywgJzIwMCcsICctbWV0YWxfYmluZGluZycsICctaW1hZScsICc8aW5maWxlLm1hZT4nLCAnLW9tYWUnLCAnPG91dGZpbGUubWFlPic=

> <r_lp_tautomer_probability>
1

> <r_epik_Ionization_Penalty>
3.0333

> <r_epik_Ionization_Penalty_Charging>
3.03317

> <r_epik_Ionization_Penalty_Neutral>
0.000131872

> <r_epik_State_Penalty>
1.99939

> <r_epik_Charging_Adjusted_Penalty>
5.03256

> <i_epik_Tot_Q>
2

> <i_epik_Tot_abs_Q>
2

> <r_epik_Metal_State_Penalty>
2.00021

> <b_epik_Metal_Only>
0

> <s_lp_Force_Field>
OPLS_2005

> <r_lp_Energy>
63.1179

> <b_lp_Chiralities_Consistent>
1

> <s_lp_Variant>
AV-unprocessed.smi:155-19

> <Gold.Version>
5.8.1

> <Gold.Id.Protein>
6NUR|6NUR_protein|mol2

> <Gold.PLP.Fitness>
59.7026

> <Gold.PLP.PLP>
-50.2845

> <Gold.PLP.part.hbond>
-2.6343

> <Gold.PLP.part.metal>
0.0000

> <Gold.PLP.part.buried>
-9.2785

> <Gold.PLP.part.nonpolar>
-40.2262

> <Gold.PLP.part.repulsive>
0.7759

> <Gold.PLP.ligand.clash>
0.0000

> <Gold.PLP.ligand.torsion>
0.6580

> <Gold.PLP.Chemscore.Hbond>
3.4680

> <Gold.PLP.Chemscore.CHOScore>
0.0000

> <Gold.PLP.Chemscore.Metal>
0.0000

> <Gold.Chemscore.Hbonds>
donor molecule, donor type, donor heavy atom, donor atom, acceptor molecule, acceptor atom, score
      L1  H     6    64       P1  7948  2.00
      P1  H  7989  7998       L1    14  0.90
      P1  H 10752 10764       L1    12  0.49

> <Gold.PLP.Chemscore.Internal.Correction>
0.3302

> <Gold.Rescore>
     Score         DG    S(hbond)    S(metal)    S(lipo)     H(rot)  DE(clash)    DE(int)     intcor
     14.37     -16.42       1.43        0.00     112.90       2.75       0.14       1.91       ----

> <Gold.Chemscore.Fitness>
14.3670

> <Gold.Chemscore.DG>
-16.4166

> <Gold.Chemscore.ZeroCoef>
-5.4800

> <Gold.Chemscore.Hbond>
1.4267

> <Gold.Chemscore.Metal>
0.0000

> <Gold.Chemscore.Lipo>
112.9016

> <Gold.Chemscore.Internal_Hbond>
0.0000

> <Gold.Chemscore.DEClash>
0.1355

> <Gold.Chemscore.DEInternal>
1.9141

> <Gold.Chemscore.Rot>
2.7493

> <Gold.Chemscore.Internal.Correction>
   9.000000E+99

> <Gold.Chemscore.Hbonds>
donor molecule, donor type, donor heavy atom, donor atom, acceptor molecule, acceptor atom, score
      L1  H     6    64       P1  7948  0.72
      P1  H  7989  7998       L1    14  0.30
      P1  H 10752 10764       L1    12  0.08

> <Gold.Chemscore.Hbond.Weighted>
-4.7653

> <Gold.Chemscore.Metal.Weighted>
-0.0000

> <Gold.Chemscore.Lipo.Weighted>
-13.2095

> <Gold.Chemscore.Internal_Hbond.Weighted>
0.0000

> <Gold.Chemscore.DEClash.Weighted>
0.1355

> <Gold.Chemscore.DEInternal.Weighted>
1.9141

> <Gold.Chemscore.Rot.Weighted>
7.0383

> <Gold.Chemscore.Internal.Correction.Weighted>
   9.000000E+99

> <Gold.Protein.RotatedTorsions>
[ 6907 6896 6895 6894 ] final  127.07 input  -60.11 | X-H torsion
[ 7974 7965 7964 7962 ] final -121.35 input  175.53 | X-H torsion
[ 8008 7997 7996 7995 ] final  -46.96 input   59.86 | X-H torsion
[ 10167 10162 10161 10158 ] final  179.47 input  -65.29 | X-H torsion
[ 10718 10713 10712 10709 ] final   57.73 input   66.30 | X-H torsion
[ 10763 10752 10751 10750 ] final  -70.50 input  -60.55 | X-H torsion
[ 11005 11000 10999 10996 ] final   83.07 input  -57.11 | X-H torsion

> <Gold.Protein.ActiveResidues>
 VAL166  LYS551  ARG553  GLY616  TRP617  ASP618  TYR619  PRO620  LYS621  CYS622 
 ASP623  PHE694  ASN695  SER759  ASP760  ASP761  ALA762  ILE779  LEU786  VAL792 
 PHE793  MET794  SER795  GLU796  ALA797  LYS798  CYS799  TRP800  GLU811  SER814 

> <Gold.Protein.RotatedAtoms>
  152.3846  133.6594  159.6188 H   0  0  0  0  0  0  0  0  0  0  0  0  # atno 6907 bound_to 6896
  150.7768  133.9056  159.3363 H   0  0  0  0  0  0  0  0  0  0  0  0  # atno 6908 bound_to 6896
  151.6855  135.0956  160.0275 H   0  0  0  0  0  0  0  0  0  0  0  0  # atno 6909 bound_to 6896
  145.0413  140.8147  143.4264 H   0  0  0  0  0  0  0  0  0  0  0  0  # atno 7974 bound_to 7965
  154.4012  140.1358  156.4097 H   0  0  0  0  0  0  0  0  0  0  0  0  # atno 8008 bound_to 7997
  155.7745  140.3483  155.5244 H   0  0  0  0  0  0  0  0  0  0  0  0  # atno 8009 bound_to 7997
  155.8734  140.0975  157.1525 H   0  0  0  0  0  0  0  0  0  0  0  0  # atno 8010 bound_to 7997
  139.5338  144.2557  152.0749 H   0  0  0  0  0  0  0  0  0  0  0  0  # atno 10167 bound_to 10162
  157.5539  130.8785  149.9005 H   0  0  0  0  0  0  0  0  0  0  0  0  # atno 10718 bound_to 10713
  154.4185  135.5992  153.5995 H   0  0  0  0  0  0  0  0  0  0  0  0  # atno 10763 bound_to 10752
  152.9793  135.5946  154.3984 H   0  0  0  0  0  0  0  0  0  0  0  0  # atno 10764 bound_to 10752
  154.3806  135.2841  155.2192 H   0  0  0  0  0  0  0  0  0  0  0  0  # atno 10765 bound_to 10752
  139.9043  134.8118  156.2260 H   0  0  0  0  0  0  0  0  0  0  0  0  # atno 11005 bound_to 11000
  145.1644  139.2440  143.5375 LP  0  0  0  0  0  0  0  0  0  0  0  0  # atno 17320 bound_to 7965
  146.3509  140.1379  142.8595 LP  0  0  0  0  0  0  0  0  0  0  0  0  # atno 17321 bound_to 7965
  140.2024  144.4645  150.6425 LP  0  0  0  0  0  0  0  0  0  0  0  0  # atno 17342 bound_to 10162
  140.6532  143.2230  151.6028 LP  0  0  0  0  0  0  0  0  0  0  0  0  # atno 17343 bound_to 10162
  156.0601  130.3701  150.1002 LP  0  0  0  0  0  0  0  0  0  0  0  0  # atno 17370 bound_to 10713
  156.9173  130.9671  151.3554 LP  0  0  0  0  0  0  0  0  0  0  0  0  # atno 17371 bound_to 10713
  141.0376  133.6955  156.1540 LP  0  0  0  0  0  0  0  0  0  0  0  0  # atno 17394 bound_to 11000
  140.7004  134.4570  157.5586 LP  0  0  0  0  0  0  0  0  0  0  0  0  # atno 17395 bound_to 11000

$$$$
