AV-unprocessed.smi:1137|AV-procd|sdf|4864|dock1
  -GOLD-   22720 3433D 1   1.00000     0.00000
 Structure written by MMmdl.
 17 17  0  0  0  0  0  0  0  0  2 V2000
  151.1325  140.2448  154.6791 O   0  0  0  0  0  0  0  0  0  0  0  0
  151.4913  140.7431  155.7690 C   0  0  0  0  0  0  0  0  0  0  0  0
  152.3492  140.2526  156.5379 O   0  5  0  0  0  0  0  0  0  0  0  0
  150.8325  142.0717  156.1695 C   0  0  1  0  0  0  0  0  0  0  0  0
  149.4203  141.9731  156.1156 O   0  0  0  0  0  0  0  0  0  0  0  0
  151.3538  142.4378  157.5528 C   0  0  0  0  0  0  0  0  0  0  0  0
  152.0270  143.6564  157.7916 C   0  0  0  0  0  0  0  0  0  0  0  0
  152.4808  143.9400  159.0943 C   0  0  0  0  0  0  0  0  0  0  0  0
  152.2398  142.9929  160.1086 C   0  0  0  0  0  0  0  0  0  0  0  0
  151.5950  141.8258  159.8961 N   0  0  0  0  0  0  0  0  0  0  0  0
  151.1615  141.5627  158.6441 C   0  0  0  0  0  0  0  0  0  0  0  0
  151.1320  142.8415  155.4568 H   0  0  0  0  0  0  0  0  0  0  0  0
  149.0621  142.8460  156.0777 H   0  0  0  0  0  0  0  0  0  0  0  0
  152.1909  144.3650  156.9929 H   0  0  0  0  0  0  0  0  0  0  0  0
  152.9985  144.8626  159.3104 H   0  0  0  0  0  0  0  0  0  0  0  0
  152.5736  143.1780  161.1188 H   0  0  0  0  0  0  0  0  0  0  0  0
  150.6461  140.6230  158.5101 H   0  0  0  0  0  0  0  0  0  0  0  0
  1  2  2  0  0  0  0
  2  3  1  0  0  0  0
  2  4  1  0  0  0  0
  4  5  1  0  0  0  0
  4  6  1  0  0  0  0
  4 12  1  0  0  0  0
  5 13  1  0  0  0  0
  6 11  1  0  0  0  0
  6  7  2  0  0  0  0
  7  8  1  0  0  0  0
  7 14  1  0  0  0  0
  8  9  2  0  0  0  0
  8 15  1  0  0  0  0
  9 10  1  0  0  0  0
  9 16  1  0  0  0  0
 10 11  2  0  0  0  0
 11 17  1  0  0  0  0
M  CHG  1   3  -1
M  END
> <s_m_source_file>
AV-unprocessed.smi

> <i_m_source_file_index>
1137

> <i_lp_mmshare_version>
43012

> <i_f3d_flags>
0

> <s_epik_input>
Tz1DKFtPSF0pW0NASF0oW09IXSljMVtjSF1bY0hdW2NIXW5bY0hdMQ==

> <s_epik_cmdline>
J2VwaWtfcHl0aG9uJywgJy1waCcsICc3LjAnLCAnLXRuJywgJzgnLCAnLW1hJywgJzIwMCcsICctbWV0YWxfYmluZGluZycsICctaW1hZScsICc8aW5maWxlLm1hZT4nLCAnLW9tYWUnLCAnPG91dGZpbGUubWFlPic=

> <r_epik_Ionization_Penalty>
0.0193563

> <r_epik_Ionization_Penalty_Charging>
9.29916e-05

> <r_epik_Ionization_Penalty_Neutral>
0.0192633

> <r_epik_State_Penalty>
0.0153745

> <r_epik_Charging_Adjusted_Penalty>
0.0154675

> <i_epik_Tot_Q>
-1

> <i_epik_Tot_abs_Q>
1

> <r_epik_Metal_State_Penalty>
1.55756e-05

> <b_epik_Metal_Only>
0

> <s_lp_Force_Field>
OPLS_2005

> <r_lp_Energy>
6.08913

> <b_lp_Chiralities_Consistent>
1

> <s_lp_Variant>
AV-unprocessed.smi:1137-2

> <Gold.Version>
5.8.1

> <Gold.Id.Protein>
6NUR|6NUR_protein|mol2

> <Gold.PLP.Fitness>
37.0645

> <Gold.PLP.PLP>
-25.2294

> <Gold.PLP.part.hbond>
-4.0000

> <Gold.PLP.part.metal>
0.0000

> <Gold.PLP.part.buried>
-2.3439

> <Gold.PLP.part.nonpolar>
-17.8627

> <Gold.PLP.part.repulsive>
0.0691

> <Gold.PLP.ligand.clash>
0.0000

> <Gold.PLP.ligand.torsion>
0.0952

> <Gold.PLP.Chemscore.Hbond>
4.0000

> <Gold.PLP.Chemscore.CHOScore>
0.0000

> <Gold.PLP.Chemscore.Metal>
0.0000

> <Gold.Chemscore.Hbonds>
donor molecule, donor type, donor heavy atom, donor atom, acceptor molecule, acceptor atom, score
      L1  H     5    13       P1  8028  1.00
      P1  H  7989  7998       L1     1  0.73
      P1  H  7997  8010       L1     3  2.00

> <Gold.PLP.Chemscore.Internal.Correction>
0.0256

> <Gold.Rescore>
     Score         DG    S(hbond)    S(metal)    S(lipo)     H(rot)  DE(clash)    DE(int)     intcor
     15.51     -17.14       2.93        0.00      61.99       2.10       0.11       1.52       ----

> <Gold.Chemscore.Fitness>
15.5111

> <Gold.Chemscore.DG>
-17.1446

> <Gold.Chemscore.ZeroCoef>
-5.4800

> <Gold.Chemscore.Hbond>
2.9292

> <Gold.Chemscore.Metal>
0.0000

> <Gold.Chemscore.Lipo>
61.9906

> <Gold.Chemscore.Internal_Hbond>
0.0000

> <Gold.Chemscore.DEClash>
0.1140

> <Gold.Chemscore.DEInternal>
1.5195

> <Gold.Chemscore.Rot>
2.0984

> <Gold.Chemscore.Internal.Correction>
   9.000000E+99

> <Gold.Chemscore.Hbonds>
donor molecule, donor type, donor heavy atom, donor atom, acceptor molecule, acceptor atom, score
      L1  H     5    13       P1  8028  0.99
      P1  H  7989  7998       L1     1  0.67
      P1  H  7997  8010       L1     3  0.92

> <Gold.Chemscore.Hbond.Weighted>
-9.7837

> <Gold.Chemscore.Metal.Weighted>
-0.0000

> <Gold.Chemscore.Lipo.Weighted>
-7.2529

> <Gold.Chemscore.Internal_Hbond.Weighted>
0.0000

> <Gold.Chemscore.DEClash.Weighted>
0.1140

> <Gold.Chemscore.DEInternal.Weighted>
1.5195

> <Gold.Chemscore.Rot.Weighted>
5.3719

> <Gold.Chemscore.Internal.Correction.Weighted>
   9.000000E+99

> <Gold.Protein.RotatedTorsions>
[ 6907 6896 6895 6894 ] final -120.30 input  -60.11 | X-H torsion
[ 7974 7965 7964 7962 ] final   98.36 input  175.53 | X-H torsion
[ 8008 7997 7996 7995 ] final   80.70 input   59.86 | X-H torsion
[ 10167 10162 10161 10158 ] final -126.77 input  -65.29 | X-H torsion
[ 10718 10713 10712 10709 ] final  116.97 input   66.30 | X-H torsion
[ 10763 10752 10751 10750 ] final   24.15 input  -60.55 | X-H torsion
[ 11005 11000 10999 10996 ] final   33.51 input  -57.11 | X-H torsion

> <Gold.Protein.ActiveResidues>
 VAL166  LYS551  ARG553  GLY616  TRP617  ASP618  TYR619  PRO620  LYS621  CYS622 
 ASP623  PHE694  ASN695  SER759  ASP760  ASP761  ALA762  ILE779  LEU786  VAL792 
 PHE793  MET794  SER795  GLU796  ALA797  LYS798  CYS799  TRP800  GLU811  SER814 

> <Gold.Protein.RotatedAtoms>
  150.8381  133.7980  159.3071 H   0  0  0  0  0  0  0  0  0  0  0  0  # atno 6907 bound_to 6896
  151.5690  135.1061  160.0000 H   0  0  0  0  0  0  0  0  0  0  0  0  # atno 6908 bound_to 6896
  152.4450  133.7477  159.6732 H   0  0  0  0  0  0  0  0  0  0  0  0  # atno 6909 bound_to 6896
  145.4133  139.2331  143.3236 H   0  0  0  0  0  0  0  0  0  0  0  0  # atno 7974 bound_to 7965
  155.8871  140.3441  155.5929 H   0  0  0  0  0  0  0  0  0  0  0  0  # atno 8008 bound_to 7997
  155.7653  140.0838  157.2154 H   0  0  0  0  0  0  0  0  0  0  0  0  # atno 8009 bound_to 7997
  154.4030  140.1528  156.2867 H   0  0  0  0  0  0  0  0  0  0  0  0  # atno 8010 bound_to 7997
  139.9679  143.5877  152.2423 H   0  0  0  0  0  0  0  0  0  0  0  0  # atno 10167 bound_to 10162
  157.6126  131.1032  150.7549 H   0  0  0  0  0  0  0  0  0  0  0  0  # atno 10718 bound_to 10713
  153.0785  135.6611  154.0095 H   0  0  0  0  0  0  0  0  0  0  0  0  # atno 10763 bound_to 10752
  153.9723  135.2963  155.3428 H   0  0  0  0  0  0  0  0  0  0  0  0  # atno 10764 bound_to 10752
  154.7179  135.5177  153.8837 H   0  0  0  0  0  0  0  0  0  0  0  0  # atno 10765 bound_to 10752
  140.2623  134.3177  155.7853 H   0  0  0  0  0  0  0  0  0  0  0  0  # atno 11005 bound_to 11000
  146.2694  140.4847  142.8821 LP  0  0  0  0  0  0  0  0  0  0  0  0  # atno 17320 bound_to 7965
  144.8294  140.6683  143.6300 LP  0  0  0  0  0  0  0  0  0  0  0  0  # atno 17321 bound_to 7965
  139.6503  144.7660  151.2161 LP  0  0  0  0  0  0  0  0  0  0  0  0  # atno 17342 bound_to 10162
  140.7532  143.6171  150.8549 LP  0  0  0  0  0  0  0  0  0  0  0  0  # atno 17343 bound_to 10162
  156.7923  130.4894  149.5383 LP  0  0  0  0  0  0  0  0  0  0  0  0  # atno 17370 bound_to 10713
  156.1235  130.6127  151.0229 LP  0  0  0  0  0  0  0  0  0  0  0  0  # atno 17371 bound_to 10713
  141.2188  133.7417  156.9206 LP  0  0  0  0  0  0  0  0  0  0  0  0  # atno 17394 bound_to 11000
  140.1452  134.9267  157.2520 LP  0  0  0  0  0  0  0  0  0  0  0  0  # atno 17395 bound_to 11000

$$$$
