AV-unprocessed.smi:893|AV-procd|sdf|4068|dock5
  -GOLD-   22720 1553D 1   1.00000     0.00000
 Structure written by MMmdl.
 26 27  0  0  0  0  0  0  0  0  2 V2000
  148.8660  140.5923  154.5202 C   0  0  0  0  0  0  0  0  0  0  0  0
  149.7374  141.5208  155.3811 C   0  0  0  0  0  0  0  0  0  0  0  0
  150.4488  140.8114  156.5596 C   0  0  1  0  0  0  0  0  0  0  0  0
  151.1826  141.7848  157.4659 C   0  0  0  0  0  0  0  0  0  0  0  0
  151.9424  141.5047  158.6405 C   0  0  0  0  0  0  0  0  0  0  0  0
  152.4539  142.5887  159.2005 N   0  0  0  0  0  0  0  0  0  0  0  0
  152.0457  143.5984  158.4068 N   0  0  0  0  0  0  0  0  0  0  0  0
  152.4350  144.9560  158.7222 C   0  0  0  0  0  0  0  0  0  0  0  0
  151.2774  143.1456  157.3570 C   0  0  0  0  0  0  0  0  0  0  0  0
  149.5160  139.9762  157.2900 N   0  0  0  0  0  0  0  0  0  0  0  0
  149.8749  138.6942  157.2539 C   0  0  0  0  0  0  0  0  0  0  0  0
  149.2202  137.8241  157.8233 O   0  0  0  0  0  0  0  0  0  0  0  0
  151.0013  138.5476  156.5293 N   0  5  0  0  0  0  0  0  0  0  0  0
  151.4270  139.7402  156.0584 C   0  0  0  0  0  0  0  0  0  0  0  0
  152.3967  140.0110  155.3500 O   0  0  0  0  0  0  0  0  0  0  0  0
  148.3899  141.1506  153.7141 H   0  0  0  0  0  0  0  0  0  0  0  0
  148.0756  140.1263  155.1087 H   0  0  0  0  0  0  0  0  0  0  0  0
  149.4584  139.7984  154.0651 H   0  0  0  0  0  0  0  0  0  0  0  0
  150.4781  141.9966  154.7360 H   0  0  0  0  0  0  0  0  0  0  0  0
  149.1139  142.3307  155.7630 H   0  0  0  0  0  0  0  0  0  0  0  0
  152.1363  140.5474  159.1017 H   0  0  0  0  0  0  0  0  0  0  0  0
  152.0374  145.6426  157.9743 H   0  0  0  0  0  0  0  0  0  0  0  0
  153.5226  145.0349  158.7328 H   0  0  0  0  0  0  0  0  0  0  0  0
  152.0453  145.2335  159.7020 H   0  0  0  0  0  0  0  0  0  0  0  0
  150.8661  143.8200  156.6203 H   0  0  0  0  0  0  0  0  0  0  0  0
  148.7039  140.3358  157.7692 H   0  0  0  0  0  0  0  0  0  0  0  0
  1  2  1  0  0  0  0
  1 16  1  0  0  0  0
  1 17  1  0  0  0  0
  1 18  1  0  0  0  0
  2  3  1  0  0  0  0
  2 19  1  0  0  0  0
  2 20  1  0  0  0  0
  3 14  1  0  0  0  0
  3  4  1  0  0  0  0
  3 10  1  0  0  0  0
  4  9  2  0  0  0  0
  4  5  1  0  0  0  0
  5  6  2  0  0  0  0
  5 21  1  0  0  0  0
  6  7  1  0  0  0  0
  7  8  1  0  0  0  0
  7  9  1  0  0  0  0
  8 22  1  0  0  0  0
  8 23  1  0  0  0  0
  8 24  1  0  0  0  0
  9 25  1  0  0  0  0
 10 11  1  0  0  0  0
 10 26  1  0  0  0  0
 11 12  2  0  0  0  0
 11 13  1  0  0  0  0
 13 14  1  0  0  0  0
 14 15  2  0  0  0  0
M  CHG  1  13  -1
M  END
> <s_m_source_file>
AV-unprocessed.smi

> <i_m_source_file_index>
893

> <i_lp_mmshare_version>
43012

> <i_f3d_flags>
0

> <s_epik_input>
Tz1DMVtOSF1DKD1PKVtOSF1bQ0BAXTEoW0NIMl1bQ0gzXSljMltjSF1ubihbQ0gzXSlbY0hdMg==

> <s_epik_cmdline>
J2VwaWtfcHl0aG9uJywgJy1waCcsICc3LjAnLCAnLXRuJywgJzgnLCAnLW1hJywgJzIwMCcsICctbWV0YWxfYmluZGluZycsICctaW1hZScsICc8aW5maWxlLm1hZT4nLCAnLW9tYWUnLCAnPG91dGZpbGUubWFlPic=

> <r_lp_tautomer_probability>
1

> <r_epik_Ionization_Penalty>
1.92579

> <r_epik_Ionization_Penalty_Charging>
1.92573

> <r_epik_Ionization_Penalty_Neutral>
5.85665e-05

> <r_epik_State_Penalty>
2.04887

> <r_epik_Charging_Adjusted_Penalty>
3.97461

> <i_epik_Tot_Q>
-1

> <i_epik_Tot_abs_Q>
1

> <r_epik_Metal_State_Penalty>
0.530533

> <b_epik_Metal_Only>
0

> <s_lp_Force_Field>
OPLS_2005

> <r_lp_Energy>
5.94643

> <b_lp_Chiralities_Consistent>
1

> <s_lp_Variant>
AV-unprocessed.smi:893-3

> <Gold.Version>
5.8.1

> <Gold.Id.Protein>
6NUR|6NUR_protein|mol2

> <Gold.PLP.Fitness>
35.4466

> <Gold.PLP.PLP>
-28.0586

> <Gold.PLP.part.hbond>
-2.0000

> <Gold.PLP.part.metal>
0.0000

> <Gold.PLP.part.buried>
-2.7094

> <Gold.PLP.part.nonpolar>
-23.8359

> <Gold.PLP.part.repulsive>
0.0481

> <Gold.PLP.ligand.clash>
0.0000

> <Gold.PLP.ligand.torsion>
0.0995

> <Gold.PLP.Chemscore.Hbond>
1.4873

> <Gold.PLP.Chemscore.CHOScore>
1.0000

> <Gold.PLP.Chemscore.Metal>
0.0000

> <Gold.Chemscore.Hbonds>
donor molecule, donor type, donor heavy atom, donor atom, acceptor molecule, acceptor atom, score
      P1  H  7989  7998       L1    15  0.44
      P1  H  7997  8010       L1    15  0.80
      L1  C     9    25       P1  8028  1.00

> <Gold.PLP.Chemscore.Internal.Correction>
0.1250

> <Gold.Rescore>
     Score         DG    S(hbond)    S(metal)    S(lipo)     H(rot)  DE(clash)    DE(int)     intcor
     13.18     -13.33       1.18        0.00      61.46       1.28       0.06       0.10       ----

> <Gold.Chemscore.Fitness>
13.1778

> <Gold.Chemscore.DG>
-13.3341

> <Gold.Chemscore.ZeroCoef>
-5.4800

> <Gold.Chemscore.Hbond>
1.1802

> <Gold.Chemscore.Metal>
0.0000

> <Gold.Chemscore.Lipo>
61.4556

> <Gold.Chemscore.Internal_Hbond>
0.0000

> <Gold.Chemscore.DEClash>
0.0556

> <Gold.Chemscore.DEInternal>
0.1007

> <Gold.Chemscore.Rot>
1.2805

> <Gold.Chemscore.Internal.Correction>
   9.000000E+99

> <Gold.Chemscore.Hbonds>
donor molecule, donor type, donor heavy atom, donor atom, acceptor molecule, acceptor atom, score
      P1  H  7989  7998       L1    15  0.31
      P1  H  7997  8010       L1    15  0.78

> <Gold.Chemscore.Hbond.Weighted>
-3.9420

> <Gold.Chemscore.Metal.Weighted>
-0.0000

> <Gold.Chemscore.Lipo.Weighted>
-7.1903

> <Gold.Chemscore.Internal_Hbond.Weighted>
0.0000

> <Gold.Chemscore.DEClash.Weighted>
0.0556

> <Gold.Chemscore.DEInternal.Weighted>
0.1007

> <Gold.Chemscore.Rot.Weighted>
3.2782

> <Gold.Chemscore.Internal.Correction.Weighted>
   9.000000E+99

> <Gold.Protein.RotatedTorsions>
[ 6907 6896 6895 6894 ] final    5.48 input  -60.11 | X-H torsion
[ 7974 7965 7964 7962 ] final  168.16 input  175.53 | X-H torsion
[ 8008 7997 7996 7995 ] final   98.68 input   59.86 | X-H torsion
[ 10167 10162 10161 10158 ] final   93.36 input  -65.29 | X-H torsion
[ 10718 10713 10712 10709 ] final  159.40 input   66.30 | X-H torsion
[ 10763 10752 10751 10750 ] final -121.52 input  -60.55 | X-H torsion
[ 11005 11000 10999 10996 ] final -120.91 input  -57.11 | X-H torsion

> <Gold.Protein.ActiveResidues>
 VAL166  LYS551  ARG553  GLY616  TRP617  ASP618  TYR619  PRO620  LYS621  CYS622 
 ASP623  PHE694  ASN695  SER759  ASP760  ASP761  ALA762  ILE779  LEU786  VAL792 
 PHE793  MET794  SER795  GLU796  ALA797  LYS798  CYS799  TRP800  GLU811  SER814 

> <Gold.Protein.RotatedAtoms>
  151.6581  135.0993  160.0173 H   0  0  0  0  0  0  0  0  0  0  0  0  # atno 6907 bound_to 6896
  152.3962  133.6746  159.6287 H   0  0  0  0  0  0  0  0  0  0  0  0  # atno 6908 bound_to 6896
  150.7869  133.8786  159.3320 H   0  0  0  0  0  0  0  0  0  0  0  0  # atno 6909 bound_to 6896
  144.7398  139.8867  143.6400 H   0  0  0  0  0  0  0  0  0  0  0  0  # atno 7974 bound_to 7965
  156.1028  140.3240  155.7965 H   0  0  0  0  0  0  0  0  0  0  0  0  # atno 8008 bound_to 7997
  155.4807  140.0554  157.2985 H   0  0  0  0  0  0  0  0  0  0  0  0  # atno 8009 bound_to 7997
  154.4708  140.2010  156.0015 H   0  0  0  0  0  0  0  0  0  0  0  0  # atno 8010 bound_to 7997
  139.8187  144.6741  150.9547 H   0  0  0  0  0  0  0  0  0  0  0  0  # atno 10167 bound_to 10162
  157.1647  131.0595  151.2214 H   0  0  0  0  0  0  0  0  0  0  0  0  # atno 10718 bound_to 10713
  154.8670  135.4165  154.2633 H   0  0  0  0  0  0  0  0  0  0  0  0  # atno 10763 bound_to 10752
  153.3557  135.7001  153.6758 H   0  0  0  0  0  0  0  0  0  0  0  0  # atno 10764 bound_to 10752
  153.5679  135.3597  155.2798 H   0  0  0  0  0  0  0  0  0  0  0  0  # atno 10765 bound_to 10752
  141.0109  134.0266  157.3415 H   0  0  0  0  0  0  0  0  0  0  0  0  # atno 11005 bound_to 11000
  146.1172  139.4184  143.0251 LP  0  0  0  0  0  0  0  0  0  0  0  0  # atno 17320 bound_to 7965
  145.7358  141.0026  143.1327 LP  0  0  0  0  0  0  0  0  0  0  0  0  # atno 17321 bound_to 7965
  140.7814  143.4113  151.0988 LP  0  0  0  0  0  0  0  0  0  0  0  0  # atno 17342 bound_to 10162
  139.7775  143.8404  152.3132 LP  0  0  0  0  0  0  0  0  0  0  0  0  # atno 17343 bound_to 10162
  157.4100  130.7380  149.6831 LP  0  0  0  0  0  0  0  0  0  0  0  0  # atno 17370 bound_to 10713
  155.9748  130.4098  150.3897 LP  0  0  0  0  0  0  0  0  0  0  0  0  # atno 17371 bound_to 10713
  139.9089  135.0186  156.7607 LP  0  0  0  0  0  0  0  0  0  0  0  0  # atno 17394 bound_to 11000
  140.6735  133.9538  155.7870 LP  0  0  0  0  0  0  0  0  0  0  0  0  # atno 17395 bound_to 11000

$$$$
