AV-unprocessed.smi:2597|AV-procd|sdf|10170|dock3
  -GOLD-   2272014183D 1   1.00000     0.00000
 Structure written by MMmdl.
 31 32  0  0  0  0  0  0  0  0  2 V2000
  147.4045  133.9819  152.9797 N   0  3  0  0  0  0  0  0  0  0  0  0
  146.8636  133.0150  152.0055 C   0  0  1  0  0  0  0  0  0  0  0  0
  146.3002  131.7682  152.7176 C   0  0  0  0  0  0  0  0  0  0  0  0
  145.7413  130.7540  151.7071 C   0  0  0  0  0  0  0  0  0  0  0  0
  144.6805  131.3879  150.7939 C   0  0  0  0  0  0  0  0  0  0  0  0
  145.2270  132.6374  150.0780 C   0  0  0  0  0  0  0  0  0  0  0  0
  145.8481  133.6803  151.0367 C   0  0  1  0  0  0  0  0  0  0  0  0
  144.8403  134.5072  151.7028 N   0  0  0  0  0  0  0  0  0  0  0  0
  143.8341  134.0818  152.5474 C   0  0  0  0  0  0  0  0  0  0  0  0
  143.1716  135.2316  152.8708 C   0  0  0  0  0  0  0  0  0  0  0  0
  141.9737  135.4228  153.7498 C   0  0  0  0  0  0  0  0  0  0  0  0
  141.3699  134.1551  153.8926 O   0  0  0  0  0  0  0  0  0  0  0  0
  143.7936  136.2980  152.2261 N   0  0  0  0  0  0  0  0  0  0  0  0
  144.7929  135.8524  151.5339 N   0  0  0  0  0  0  0  0  0  0  0  0
  147.7140  132.6849  151.4073 H   0  0  0  0  0  0  0  0  0  0  0  0
  146.4186  134.3689  150.4112 H   0  0  0  0  0  0  0  0  0  0  0  0
  146.6470  134.3684  153.5251 H   0  0  0  0  0  0  0  0  0  0  0  0
  147.8780  134.7271  152.4892 H   0  0  0  0  0  0  0  0  0  0  0  0
  147.0864  131.2923  153.3048 H   0  0  0  0  0  0  0  0  0  0  0  0
  145.5234  132.0443  153.4300 H   0  0  0  0  0  0  0  0  0  0  0  0
  146.5563  130.3615  151.0976 H   0  0  0  0  0  0  0  0  0  0  0  0
  145.3139  129.9008  152.2348 H   0  0  0  0  0  0  0  0  0  0  0  0
  144.3534  130.6579  150.0529 H   0  0  0  0  0  0  0  0  0  0  0  0
  143.7934  131.6373  151.3748 H   0  0  0  0  0  0  0  0  0  0  0  0
  145.9934  132.3179  149.3705 H   0  0  0  0  0  0  0  0  0  0  0  0
  144.4412  133.0975  149.4774 H   0  0  0  0  0  0  0  0  0  0  0  0
  143.6778  133.0506  152.8284 H   0  0  0  0  0  0  0  0  0  0  0  0
  142.2595  135.8058  154.7294 H   0  0  0  0  0  0  0  0  0  0  0  0
  141.2590  136.1216  153.3138 H   0  0  0  0  0  0  0  0  0  0  0  0
  142.0517  133.5089  153.9960 H   0  0  0  0  0  0  0  0  0  0  0  0
  148.0567  133.5151  153.5936 H   0  0  0  0  0  0  0  0  0  0  0  0
  1  2  1  0  0  0  0
  1 17  1  0  0  0  0
  1 18  1  0  0  0  0
  1 31  1  0  0  0  0
  2 15  1  0  0  0  0
  2  7  1  0  0  0  0
  2  3  1  0  0  0  0
  3  4  1  0  0  0  0
  3 19  1  0  0  0  0
  3 20  1  0  0  0  0
  4  5  1  0  0  0  0
  4 21  1  0  0  0  0
  4 22  1  0  0  0  0
  5  6  1  0  0  0  0
  5 23  1  0  0  0  0
  5 24  1  0  0  0  0
  6  7  1  0  0  0  0
  6 25  1  0  0  0  0
  6 26  1  0  0  0  0
  7 16  1  0  0  0  0
  7  8  1  0  0  0  0
  8 14  1  0  0  0  0
  8  9  1  0  0  0  0
  9 10  2  0  0  0  0
  9 27  1  0  0  0  0
 10 11  1  0  0  0  0
 10 13  1  0  0  0  0
 11 12  1  0  0  0  0
 11 28  1  0  0  0  0
 11 29  1  0  0  0  0
 12 30  1  0  0  0  0
 13 14  2  0  0  0  0
M  CHG  1   1   1
M  END
> <s_m_source_file>
AV-unprocessed.smi

> <i_m_source_file_index>
2597

> <i_lp_mmshare_version>
43012

> <i_f3d_flags>
0

> <s_epik_input>
W05IMl1bQ0BIXTFbQ0gyXVtDSDJdW0NIMl1bQ0gyXVtDQEhdMW4yW2NIXWMobm4yKVtDSDJdW09IXQ==

> <s_epik_cmdline>
J2VwaWtfcHl0aG9uJywgJy1waCcsICc3LjAnLCAnLXRuJywgJzgnLCAnLW1hJywgJzIwMCcsICctbWV0YWxfYmluZGluZycsICctaW1hZScsICc8aW5maWxlLm1hZT4nLCAnLW9tYWUnLCAnPG91dGZpbGUubWFlPic=

> <r_lp_tautomer_probability>
1

> <r_epik_Ionization_Penalty>
0.014346

> <r_epik_Ionization_Penalty_Charging>
0.014316

> <r_epik_Ionization_Penalty_Neutral>
3.00097e-05

> <r_epik_State_Penalty>
0.0111909

> <r_epik_Charging_Adjusted_Penalty>
0.0255069

> <i_epik_Tot_Q>
1

> <i_epik_Tot_abs_Q>
1

> <r_epik_Metal_State_Penalty>
0.011192

> <b_epik_Metal_Only>
0

> <s_lp_Force_Field>
OPLS_2005

> <r_lp_Energy>
16.1833

> <b_lp_Chiralities_Consistent>
1

> <s_lp_Variant>
AV-unprocessed.smi:2597-1

> <Gold.Version>
5.8.1

> <Gold.Id.Protein>
6NUR|6NUR_protein|mol2

> <Gold.PLP.Fitness>
41.3181

> <Gold.PLP.PLP>
-27.0383

> <Gold.PLP.part.hbond>
-3.4653

> <Gold.PLP.part.metal>
0.0000

> <Gold.PLP.part.buried>
-6.6937

> <Gold.PLP.part.nonpolar>
-18.1400

> <Gold.PLP.part.repulsive>
0.3684

> <Gold.PLP.ligand.clash>
0.0000

> <Gold.PLP.ligand.torsion>
0.2844

> <Gold.PLP.Chemscore.Hbond>
3.9600

> <Gold.PLP.Chemscore.CHOScore>
0.9678

> <Gold.PLP.Chemscore.Metal>
0.0000

> <Gold.Chemscore.Hbonds>
donor molecule, donor type, donor heavy atom, donor atom, acceptor molecule, acceptor atom, score
      L1  H     1    18       P1  7948  2.00
      L1  H    12    30       P1 10957  0.96
      P1  H 11000 11005       L1    12  1.00
      L1  C     9    27       P1 10957  0.98

> <Gold.PLP.Chemscore.Internal.Correction>
0.0650

> <Gold.Rescore>
     Score         DG    S(hbond)    S(metal)    S(lipo)     H(rot)  DE(clash)    DE(int)     intcor
     15.59     -15.73       2.45        0.00      58.20       1.86       0.00       0.14       ----

> <Gold.Chemscore.Fitness>
15.5911

> <Gold.Chemscore.DG>
-15.7327

> <Gold.Chemscore.ZeroCoef>
-5.4800

> <Gold.Chemscore.Hbond>
2.4528

> <Gold.Chemscore.Metal>
0.0000

> <Gold.Chemscore.Lipo>
58.1992

> <Gold.Chemscore.Internal_Hbond>
0.0000

> <Gold.Chemscore.DEClash>
0.0009

> <Gold.Chemscore.DEInternal>
0.1407

> <Gold.Chemscore.Rot>
1.8551

> <Gold.Chemscore.Internal.Correction>
   9.000000E+99

> <Gold.Chemscore.Hbonds>
donor molecule, donor type, donor heavy atom, donor atom, acceptor molecule, acceptor atom, score
      L1  H     1    18       P1  7948  0.74
      L1  H    12    30       P1 10957  0.89
      P1  H 11000 11005       L1    12  0.16

> <Gold.Chemscore.Hbond.Weighted>
-8.1923

> <Gold.Chemscore.Metal.Weighted>
-0.0000

> <Gold.Chemscore.Lipo.Weighted>
-6.8093

> <Gold.Chemscore.Internal_Hbond.Weighted>
0.0000

> <Gold.Chemscore.DEClash.Weighted>
0.0009

> <Gold.Chemscore.DEInternal.Weighted>
0.1407

> <Gold.Chemscore.Rot.Weighted>
4.7489

> <Gold.Chemscore.Internal.Correction.Weighted>
   9.000000E+99

> <Gold.Protein.RotatedTorsions>
[ 6907 6896 6895 6894 ] final  105.26 input  -60.11 | X-H torsion
[ 7974 7965 7964 7962 ] final   -8.58 input  175.53 | X-H torsion
[ 8008 7997 7996 7995 ] final -163.55 input   59.86 | X-H torsion
[ 10167 10162 10161 10158 ] final   -0.67 input  -65.29 | X-H torsion
[ 10718 10713 10712 10709 ] final  157.48 input   66.30 | X-H torsion
[ 10763 10752 10751 10750 ] final    9.36 input  -60.55 | X-H torsion
[ 11005 11000 10999 10996 ] final   10.37 input  -57.11 | X-H torsion

> <Gold.Protein.ActiveResidues>
 VAL166  LYS551  ARG553  GLY616  TRP617  ASP618  TYR619  PRO620  LYS621  CYS622 
 ASP623  PHE694  ASN695  SER759  ASP760  ASP761  ALA762  ILE779  LEU786  VAL792 
 PHE793  MET794  SER795  GLU796  ALA797  LYS798  CYS799  TRP800  GLU811  SER814 

> <Gold.Protein.RotatedAtoms>
  152.5236  133.9555  159.7692 H   0  0  0  0  0  0  0  0  0  0  0  0  # atno 6907 bound_to 6896
  150.9856  133.6192  159.2723 H   0  0  0  0  0  0  0  0  0  0  0  0  # atno 6908 bound_to 6896
  151.3354  135.0857  159.9406 H   0  0  0  0  0  0  0  0  0  0  0  0  # atno 6909 bound_to 6896
  146.2276  140.2489  142.8346 H   0  0  0  0  0  0  0  0  0  0  0  0  # atno 7974 bound_to 7965
  155.8230  140.0922  157.1838 H   0  0  0  0  0  0  0  0  0  0  0  0  # atno 8008 bound_to 7997
  154.3979  140.1433  156.3582 H   0  0  0  0  0  0  0  0  0  0  0  0  # atno 8009 bound_to 7997
  155.8247  140.3445  155.5538 H   0  0  0  0  0  0  0  0  0  0  0  0  # atno 8010 bound_to 7997
  140.6777  143.6867  150.8061 H   0  0  0  0  0  0  0  0  0  0  0  0  # atno 10167 bound_to 10162
  157.1909  131.0654  151.2079 H   0  0  0  0  0  0  0  0  0  0  0  0  # atno 10718 bound_to 10713
  153.2149  135.6874  153.8069 H   0  0  0  0  0  0  0  0  0  0  0  0  # atno 10763 bound_to 10752
  153.7289  135.3255  155.3283 H   0  0  0  0  0  0  0  0  0  0  0  0  # atno 10764 bound_to 10752
  154.8241  135.4631  154.0972 H   0  0  0  0  0  0  0  0  0  0  0  0  # atno 10765 bound_to 10752
  140.5152  134.0613  155.7829 H   0  0  0  0  0  0  0  0  0  0  0  0  # atno 11005 bound_to 11000
  144.9426  140.8095  143.5621 LP  0  0  0  0  0  0  0  0  0  0  0  0  # atno 17320 bound_to 7965
  145.2443  139.2059  143.4976 LP  0  0  0  0  0  0  0  0  0  0  0  0  # atno 17321 bound_to 7965
  140.0563  143.5199  152.2649 LP  0  0  0  0  0  0  0  0  0  0  0  0  # atno 17342 bound_to 10162
  139.6080  144.7601  151.3018 LP  0  0  0  0  0  0  0  0  0  0  0  0  # atno 17343 bound_to 10162
  157.3861  130.7257  149.6664 LP  0  0  0  0  0  0  0  0  0  0  0  0  # atno 17370 bound_to 10713
  155.9712  130.4159  150.4205 LP  0  0  0  0  0  0  0  0  0  0  0  0  # atno 17371 bound_to 10713
  141.1364  133.9214  157.2424 LP  0  0  0  0  0  0  0  0  0  0  0  0  # atno 17394 bound_to 11000
  139.9636  135.0148  156.9328 LP  0  0  0  0  0  0  0  0  0  0  0  0  # atno 17395 bound_to 11000

$$$$
