AV-unprocessed.smi:2547|AV-procd|sdf|10004|dock5
  -GOLD-   2272014 53D 1   1.00000     0.00000
 Structure written by MMmdl.
 45 46  0  0  0  0  0  0  0  0  3 V2000
  148.0867  135.5844  155.0569 C   0  0  0  0  0  0  0  0  0  0  0  0
  148.8412  136.7229  154.4903 N   0  3  2  0  0  0  0  0  0  0  0  0
  150.2241  136.8051  155.0222 C   0  0  0  0  0  0  0  0  0  0  0  0
  151.0236  137.9126  154.3133 C   0  0  0  0  0  0  0  0  0  0  0  0
  150.3179  139.2813  154.3993 C   0  0  2  0  0  0  0  0  0  0  0  0
  150.3636  139.8342  155.7532 N   0  0  0  0  0  0  0  0  0  0  0  0
  151.4676  139.9417  156.5071 C   0  0  0  0  0  0  0  0  0  0  0  0
  152.5785  139.5595  156.1403 O   0  0  0  0  0  0  0  0  0  0  0  0
  151.1926  140.4936  157.7019 N   0  0  0  0  0  0  0  0  0  0  0  0
  152.0907  140.7795  158.7648 C   0  0  0  0  0  0  0  0  0  0  0  0
  153.1653  139.9411  159.1478 C   0  0  0  0  0  0  0  0  0  0  0  0
  154.0042  140.3343  160.2081 C   0  0  0  0  0  0  0  0  0  0  0  0
  153.7662  141.5575  160.8648 C   0  0  0  0  0  0  0  0  0  0  0  0
  152.6906  142.3790  160.4482 C   0  0  0  0  0  0  0  0  0  0  0  0
  152.3886  143.6202  161.0496 N   0  0  0  0  0  0  0  0  0  0  0  0
  152.4422  143.7528  162.4998 C   0  0  0  0  0  0  0  0  0  0  0  0
  151.8633  144.7092  160.2334 C   0  0  0  0  0  0  0  0  0  0  0  0
  151.9167  141.9497  159.4199 N   0  3  0  0  0  0  0  0  0  0  0  0
  148.8621  139.1502  153.9165 C   0  0  0  0  0  0  0  0  0  0  0  0
  148.1140  138.0088  154.6300 C   0  0  0  0  0  0  0  0  0  0  0  0
  147.9495  135.7021  156.1326 H   0  0  0  0  0  0  0  0  0  0  0  0
  148.6139  134.6465  154.8798 H   0  0  0  0  0  0  0  0  0  0  0  0
  147.1033  135.5048  154.5923 H   0  0  0  0  0  0  0  0  0  0  0  0
  150.1940  136.9877  156.0975 H   0  0  0  0  0  0  0  0  0  0  0  0
  150.7275  135.8481  154.8786 H   0  0  0  0  0  0  0  0  0  0  0  0
  152.0311  137.9702  154.7271 H   0  0  0  0  0  0  0  0  0  0  0  0
  151.1473  137.6424  153.2637 H   0  0  0  0  0  0  0  0  0  0  0  0
  150.8289  139.9808  153.7348 H   0  0  0  0  0  0  0  0  0  0  0  0
  149.4937  140.1746  156.1359 H   0  0  0  0  0  0  0  0  0  0  0  0
  150.2190  140.6789  157.8931 H   0  0  0  0  0  0  0  0  0  0  0  0
  153.3702  139.0102  158.6412 H   0  0  0  0  0  0  0  0  0  0  0  0
  154.8267  139.7040  160.5122 H   0  0  0  0  0  0  0  0  0  0  0  0
  154.4177  141.8461  161.6762 H   0  0  0  0  0  0  0  0  0  0  0  0
  153.4410  143.5223  162.8717 H   0  0  0  0  0  0  0  0  0  0  0  0
  151.7285  143.0769  162.9719 H   0  0  0  0  0  0  0  0  0  0  0  0
  152.1990  144.7680  162.8139 H   0  0  0  0  0  0  0  0  0  0  0  0
  152.5987  145.0195  159.4905 H   0  0  0  0  0  0  0  0  0  0  0  0
  151.6179  145.5793  160.8427 H   0  0  0  0  0  0  0  0  0  0  0  0
  150.9549  144.3987  159.7158 H   0  0  0  0  0  0  0  0  0  0  0  0
  148.3301  140.0923  154.0548 H   0  0  0  0  0  0  0  0  0  0  0  0
  148.8594  138.9577  152.8427 H   0  0  0  0  0  0  0  0  0  0  0  0
  147.1145  137.9104  154.2049 H   0  0  0  0  0  0  0  0  0  0  0  0
  147.9845  138.2431  155.6879 H   0  0  0  0  0  0  0  0  0  0  0  0
  148.9247  136.5450  153.4994 H   0  0  0  0  0  0  0  0  0  0  0  0
  151.1465  142.5499  159.1260 H   0  0  0  0  0  0  0  0  0  0  0  0
  1  2  1  0  0  0  0
  1 21  1  0  0  0  0
  1 22  1  0  0  0  0
  1 23  1  0  0  0  0
  2 20  1  0  0  0  0
  2  3  1  0  0  0  0
  2 44  1  0  0  0  0
  3  4  1  0  0  0  0
  3 24  1  0  0  0  0
  3 25  1  0  0  0  0
  4  5  1  0  0  0  0
  4 26  1  0  0  0  0
  4 27  1  0  0  0  0
  5  6  1  0  0  0  0
  5 19  1  0  0  0  0
  5 28  1  0  0  0  0
  6  7  1  0  0  0  0
  6 29  1  0  0  0  0
  7  8  2  0  0  0  0
  7  9  1  0  0  0  0
  9 10  1  0  0  0  0
  9 30  1  0  0  0  0
 10 18  1  0  0  0  0
 10 11  2  0  0  0  0
 11 12  1  0  0  0  0
 11 31  1  0  0  0  0
 12 13  2  0  0  0  0
 12 32  1  0  0  0  0
 13 14  1  0  0  0  0
 13 33  1  0  0  0  0
 14 15  1  0  0  0  0
 14 18  2  0  0  0  0
 15 16  1  0  0  0  0
 15 17  1  0  0  0  0
 16 34  1  0  0  0  0
 16 35  1  0  0  0  0
 16 36  1  0  0  0  0
 17 37  1  0  0  0  0
 17 38  1  0  0  0  0
 17 39  1  0  0  0  0
 18 45  1  0  0  0  0
 19 20  1  0  0  0  0
 19 40  1  0  0  0  0
 19 41  1  0  0  0  0
 20 42  1  0  0  0  0
 20 43  1  0  0  0  0
M  CHG  1   2   1
M  CHG  1  18   1
M  END
> <s_m_source_file>
AV-unprocessed.smi

> <i_m_source_file_index>
2547

> <i_lp_mmshare_version>
43012

> <i_f3d_flags>
0

> <s_epik_input>
W0NIM11OMVtDSDJdW0NIMl1bQ0hdKFtDSDJdW0NIMl0xKVtOSF1DKD1PKVtOSF1jMltjSF1bY0hdW2NIXWMobjIpTihbQ0gzXSlbQ0gzXQ==

> <s_epik_cmdline>
J2VwaWtfcHl0aG9uJywgJy1waCcsICc3LjAnLCAnLXRuJywgJzgnLCAnLW1hJywgJzIwMCcsICctbWV0YWxfYmluZGluZycsICctaW1hZScsICc8aW5maWxlLm1hZT4nLCAnLW9tYWUnLCAnPG91dGZpbGUubWFlPic=

> <r_lp_tautomer_probability>
0.999994

> <r_epik_Ionization_Penalty>
2.17028

> <r_epik_Ionization_Penalty_Charging>
2.10368

> <r_epik_Ionization_Penalty_Neutral>
0.0666017

> <r_epik_State_Penalty>
2.2357

> <r_epik_Charging_Adjusted_Penalty>
4.33938

> <i_epik_Tot_Q>
2

> <i_epik_Tot_abs_Q>
2

> <r_epik_Metal_State_Penalty>
2.25749

> <b_epik_Metal_Only>
0

> <s_lp_Force_Field>
OPLS_2005

> <r_lp_Energy>
27.0899

> <b_lp_Chiralities_Consistent>
1

> <s_lp_Variant>
AV-unprocessed.smi:2547-4

> <Gold.Version>
5.8.1

> <Gold.Id.Protein>
6NUR|6NUR_protein|mol2

> <Gold.PLP.Fitness>
47.9029

> <Gold.PLP.PLP>
-40.7960

> <Gold.PLP.part.hbond>
-2.0000

> <Gold.PLP.part.metal>
0.0000

> <Gold.PLP.part.buried>
-3.5694

> <Gold.PLP.part.nonpolar>
-35.3322

> <Gold.PLP.part.repulsive>
0.2418

> <Gold.PLP.ligand.clash>
0.0000

> <Gold.PLP.ligand.torsion>
0.9568

> <Gold.PLP.Chemscore.Hbond>
3.0000

> <Gold.PLP.Chemscore.CHOScore>
0.0000

> <Gold.PLP.Chemscore.Metal>
0.0000

> <Gold.Chemscore.Hbonds>
donor molecule, donor type, donor heavy atom, donor atom, acceptor molecule, acceptor atom, score
      L1  H     2    44       P1  7948  2.00
      P1  H  7997  8010       L1     8  1.00

> <Gold.PLP.Chemscore.Internal.Correction>
0.0205

> <Gold.Rescore>
     Score         DG    S(hbond)    S(metal)    S(lipo)     H(rot)  DE(clash)    DE(int)     intcor
     16.10     -19.51       2.00        0.00      84.88       1.00       1.08       2.34       ----

> <Gold.Chemscore.Fitness>
16.0971

> <Gold.Chemscore.DG>
-19.5149

> <Gold.Chemscore.ZeroCoef>
-5.4800

> <Gold.Chemscore.Hbond>
1.9952

> <Gold.Chemscore.Metal>
0.0000

> <Gold.Chemscore.Lipo>
84.8801

> <Gold.Chemscore.Internal_Hbond>
0.0000

> <Gold.Chemscore.DEClash>
1.0767

> <Gold.Chemscore.DEInternal>
2.3411

> <Gold.Chemscore.Rot>
1.0000

> <Gold.Chemscore.Internal.Correction>
   9.000000E+99

> <Gold.Chemscore.Hbonds>
donor molecule, donor type, donor heavy atom, donor atom, acceptor molecule, acceptor atom, score
      L1  H     2    44       P1  7948  1.00
      P1  H  7997  8010       L1     8  1.00

> <Gold.Chemscore.Hbond.Weighted>
-6.6639

> <Gold.Chemscore.Metal.Weighted>
-0.0000

> <Gold.Chemscore.Lipo.Weighted>
-9.9310

> <Gold.Chemscore.Internal_Hbond.Weighted>
0.0000

> <Gold.Chemscore.DEClash.Weighted>
1.0767

> <Gold.Chemscore.DEInternal.Weighted>
2.3411

> <Gold.Chemscore.Rot.Weighted>
2.5600

> <Gold.Chemscore.Internal.Correction.Weighted>
   9.000000E+99

> <Gold.Protein.RotatedTorsions>
[ 6907 6896 6895 6894 ] final  -47.83 input  -60.11 | X-H torsion
[ 7974 7965 7964 7962 ] final  168.82 input  175.53 | X-H torsion
[ 8008 7997 7996 7995 ] final   87.01 input   59.86 | X-H torsion
[ 10167 10162 10161 10158 ] final  155.30 input  -65.29 | X-H torsion
[ 10718 10713 10712 10709 ] final  100.10 input   66.30 | X-H torsion
[ 10763 10752 10751 10750 ] final  126.09 input  -60.55 | X-H torsion
[ 11005 11000 10999 10996 ] final  -53.31 input  -57.11 | X-H torsion

> <Gold.Protein.ActiveResidues>
 VAL166  LYS551  ARG553  GLY616  TRP617  ASP618  TYR619  PRO620  LYS621  CYS622 
 ASP623  PHE694  ASN695  SER759  ASP760  ASP761  ALA762  ILE779  LEU786  VAL792 
 PHE793  MET794  SER795  GLU796  ALA797  LYS798  CYS799  TRP800  GLU811  SER814 

> <Gold.Protein.RotatedAtoms>
  150.8968  134.8377  159.7331 H   0  0  0  0  0  0  0  0  0  0  0  0  # atno 6907 bound_to 6896
  152.4869  134.4564  159.9601 H   0  0  0  0  0  0  0  0  0  0  0  0  # atno 6908 bound_to 6896
  151.4620  133.3551  159.2846 H   0  0  0  0  0  0  0  0  0  0  0  0  # atno 6909 bound_to 6896
  144.7375  139.8964  143.6406 H   0  0  0  0  0  0  0  0  0  0  0  0  # atno 7974 bound_to 7965
  155.9700  140.3386  155.6567 H   0  0  0  0  0  0  0  0  0  0  0  0  # atno 8008 bound_to 7997
  155.6686  140.0724  157.2546 H   0  0  0  0  0  0  0  0  0  0  0  0  # atno 8009 bound_to 7997
  154.4164  140.1695  156.1842 H   0  0  0  0  0  0  0  0  0  0  0  0  # atno 8010 bound_to 7997
  139.4821  144.5110  151.8024 H   0  0  0  0  0  0  0  0  0  0  0  0  # atno 10167 bound_to 10162
  157.6861  131.0689  150.5050 H   0  0  0  0  0  0  0  0  0  0  0  0  # atno 10718 bound_to 10713
  153.6878  135.3304  155.3194 H   0  0  0  0  0  0  0  0  0  0  0  0  # atno 10763 bound_to 10752
  154.8448  135.4424  154.1540 H   0  0  0  0  0  0  0  0  0  0  0  0  # atno 10764 bound_to 10752
  153.2573  135.6987  153.7692 H   0  0  0  0  0  0  0  0  0  0  0  0  # atno 10765 bound_to 10752
  141.0969  133.6623  156.4153 H   0  0  0  0  0  0  0  0  0  0  0  0  # atno 11005 bound_to 11000
  146.1104  139.4108  143.0291 LP  0  0  0  0  0  0  0  0  0  0  0  0  # atno 17320 bound_to 7965
  145.7451  140.9993  143.1280 LP  0  0  0  0  0  0  0  0  0  0  0  0  # atno 17321 bound_to 7965
  140.4613  144.1717  150.5906 LP  0  0  0  0  0  0  0  0  0  0  0  0  # atno 17342 bound_to 10162
  140.4481  143.2498  151.9384 LP  0  0  0  0  0  0  0  0  0  0  0  0  # atno 17343 bound_to 10162
  156.5370  130.4198  149.6173 LP  0  0  0  0  0  0  0  0  0  0  0  0  # atno 17370 bound_to 10713
  156.3019  130.7181  151.2055 LP  0  0  0  0  0  0  0  0  0  0  0  0  # atno 17371 bound_to 10713
  140.5117  134.6389  157.5286 LP  0  0  0  0  0  0  0  0  0  0  0  0  # atno 17394 bound_to 11000
  139.9809  134.7139  155.9862 LP  0  0  0  0  0  0  0  0  0  0  0  0  # atno 17395 bound_to 11000

$$$$
