AV-unprocessed.smi:1032|AV-procd|sdf|4484|dock1
  -GOLD-   22720 2463D 1   1.00000     0.00000
 Structure written by MMmdl.
 46 47  0  0  0  0  0  0  0  0  2 V2000
  150.5342  140.1922  158.1559 C   0  0  0  0  0  0  0  0  0  0  0  0
  150.1603  141.6360  157.7773 C   0  0  2  0  0  0  0  0  0  0  0  0
  148.6388  141.8561  157.6947 C   0  0  0  0  0  0  0  0  0  0  0  0
  148.0265  141.2316  156.4282 C   0  0  0  0  0  0  0  0  0  0  0  0
  148.6936  141.7391  155.2018 N   0  3  2  0  0  0  0  0  0  0  0  0
  148.0225  141.2692  153.9619 C   0  0  0  0  0  0  0  0  0  0  0  0
  147.8465  139.7370  153.9209 C   0  0  2  0  0  0  0  0  0  0  0  0
  149.1032  139.1654  153.6112 O   0  0  0  0  0  0  0  0  0  0  0  0
  146.8443  139.3096  152.8288 C   0  0  0  0  0  0  0  0  0  0  0  0
  147.0547  137.9284  152.4063 N   0  0  0  0  0  0  0  0  0  0  0  0
  146.0766  137.0436  152.1636 C   0  0  0  0  0  0  0  0  0  0  0  0
  144.8812  137.3066  152.2952 O   0  0  0  0  0  0  0  0  0  0  0  0
  146.5760  135.8524  151.7908 N   0  0  0  0  0  0  0  0  0  0  0  0
  145.8729  134.6849  151.3858 C   0  0  0  0  0  0  0  0  0  0  0  0
  146.6306  133.5681  150.9760 C   0  0  0  0  0  0  0  0  0  0  0  0
  145.9544  132.4081  150.5482 C   0  0  0  0  0  0  0  0  0  0  0  0
  144.6093  132.3090  150.4998 N   0  0  0  0  0  0  0  0  0  0  0  0
  143.8858  133.3837  150.8787 C   0  0  0  0  0  0  0  0  0  0  0  0
  144.4617  134.5907  151.3235 C   0  0  0  0  0  0  0  0  0  0  0  0
  150.1558  141.4670  155.2251 C   0  0  0  0  0  0  0  0  0  0  0  0
  150.8177  142.0974  156.4638 C   0  0  0  0  0  0  0  0  0  0  0  0
  150.1958  139.4701  157.4133 H   0  0  0  0  0  0  0  0  0  0  0  0
  150.0909  139.9128  159.1121 H   0  0  0  0  0  0  0  0  0  0  0  0
  151.6145  140.0821  158.2535 H   0  0  0  0  0  0  0  0  0  0  0  0
  150.5415  142.2722  158.5771 H   0  0  0  0  0  0  0  0  0  0  0  0
  148.1504  141.4567  158.5842 H   0  0  0  0  0  0  0  0  0  0  0  0
  148.4330  142.9273  157.6935 H   0  0  0  0  0  0  0  0  0  0  0  0
  148.0988  140.1435  156.4619 H   0  0  0  0  0  0  0  0  0  0  0  0
  146.9636  141.4741  156.3955 H   0  0  0  0  0  0  0  0  0  0  0  0
  147.0565  141.7686  153.8712 H   0  0  0  0  0  0  0  0  0  0  0  0
  148.6027  141.5731  153.0890 H   0  0  0  0  0  0  0  0  0  0  0  0
  147.5162  139.3696  154.8918 H   0  0  0  0  0  0  0  0  0  0  0  0
  149.3254  139.3841  152.7187 H   0  0  0  0  0  0  0  0  0  0  0  0
  145.8225  139.4009  153.2021 H   0  0  0  0  0  0  0  0  0  0  0  0
  146.9023  139.9684  151.9615 H   0  0  0  0  0  0  0  0  0  0  0  0
  148.0113  137.6290  152.2835 H   0  0  0  0  0  0  0  0  0  0  0  0
  147.5804  135.7591  151.8298 H   0  0  0  0  0  0  0  0  0  0  0  0
  147.7105  133.5921  150.9915 H   0  0  0  0  0  0  0  0  0  0  0  0
  146.5100  131.5371  150.2337 H   0  0  0  0  0  0  0  0  0  0  0  0
  142.8125  133.2816  150.8187 H   0  0  0  0  0  0  0  0  0  0  0  0
  143.8167  135.4134  151.5901 H   0  0  0  0  0  0  0  0  0  0  0  0
  150.3301  140.3904  155.2053 H   0  0  0  0  0  0  0  0  0  0  0  0
  150.6333  141.8736  154.3348 H   0  0  0  0  0  0  0  0  0  0  0  0
  150.7419  143.1831  156.3890 H   0  0  0  0  0  0  0  0  0  0  0  0
  151.8843  141.8706  156.4753 H   0  0  0  0  0  0  0  0  0  0  0  0
  148.5815  142.7432  155.2167 H   0  0  0  0  0  0  0  0  0  0  0  0
  1  2  1  0  0  0  0
  1 22  1  0  0  0  0
  1 23  1  0  0  0  0
  1 24  1  0  0  0  0
  2 21  1  0  0  0  0
  2  3  1  0  0  0  0
  2 25  1  0  0  0  0
  3  4  1  0  0  0  0
  3 26  1  0  0  0  0
  3 27  1  0  0  0  0
  4  5  1  0  0  0  0
  4 28  1  0  0  0  0
  4 29  1  0  0  0  0
  5  6  1  0  0  0  0
  5 20  1  0  0  0  0
  5 46  1  0  0  0  0
  6  7  1  0  0  0  0
  6 30  1  0  0  0  0
  6 31  1  0  0  0  0
  7  8  1  0  0  0  0
  7  9  1  0  0  0  0
  7 32  1  0  0  0  0
  8 33  1  0  0  0  0
  9 10  1  0  0  0  0
  9 34  1  0  0  0  0
  9 35  1  0  0  0  0
 10 11  1  0  0  0  0
 10 36  1  0  0  0  0
 11 12  2  0  0  0  0
 11 13  1  0  0  0  0
 13 14  1  0  0  0  0
 13 37  1  0  0  0  0
 14 19  1  0  0  0  0
 14 15  2  0  0  0  0
 15 16  1  0  0  0  0
 15 38  1  0  0  0  0
 16 17  2  0  0  0  0
 16 39  1  0  0  0  0
 17 18  1  0  0  0  0
 18 19  2  0  0  0  0
 18 40  1  0  0  0  0
 19 41  1  0  0  0  0
 20 21  1  0  0  0  0
 20 42  1  0  0  0  0
 20 43  1  0  0  0  0
 21 44  1  0  0  0  0
 21 45  1  0  0  0  0
M  CHG  1   5   1
M  END
> <s_m_source_file>
AV-unprocessed.smi

> <i_m_source_file_index>
1032

> <i_lp_mmshare_version>
43012

> <i_f3d_flags>
0

> <s_epik_input>
W0NIM11bQ0hdMVtDSDJdW0NIMl1OKFtDSDJdW0NIMl0xKVtDSDJdW0NASF0oW09IXSlbQ0gyXVtOSF1DKD1PKVtOSF1jMltjSF1bY0hdbltjSF1bY0hdMg==

> <s_epik_cmdline>
J2VwaWtfcHl0aG9uJywgJy1waCcsICc3LjAnLCAnLXRuJywgJzgnLCAnLW1hJywgJzIwMCcsICctbWV0YWxfYmluZGluZycsICctaW1hZScsICc8aW5maWxlLm1hZT4nLCAnLW9tYWUnLCAnPG91dGZpbGUubWFlPic=

> <r_epik_Ionization_Penalty>
0.11743

> <r_epik_Ionization_Penalty_Charging>
0.00147689

> <r_epik_Ionization_Penalty_Neutral>
0.115954

> <r_epik_State_Penalty>
0.105552

> <r_epik_Charging_Adjusted_Penalty>
0.107029

> <i_epik_Tot_Q>
1

> <i_epik_Tot_abs_Q>
1

> <r_epik_Metal_State_Penalty>
0.0881315

> <b_epik_Metal_Only>
0

> <s_lp_Force_Field>
OPLS_2005

> <r_lp_Energy>
27.8134

> <b_lp_Chiralities_Consistent>
1

> <s_lp_Variant>
AV-unprocessed.smi:1032-3

> <Gold.Version>
5.8.1

> <Gold.Id.Protein>
6NUR|6NUR_protein|mol2

> <Gold.PLP.Fitness>
54.0780

> <Gold.PLP.PLP>
-35.2177

> <Gold.PLP.part.hbond>
-3.7205

> <Gold.PLP.part.metal>
0.0000

> <Gold.PLP.part.buried>
-6.6025

> <Gold.PLP.part.nonpolar>
-26.9234

> <Gold.PLP.part.repulsive>
1.3360

> <Gold.PLP.ligand.clash>
0.0000

> <Gold.PLP.ligand.torsion>
0.5385

> <Gold.PLP.Chemscore.Hbond>
4.7888

> <Gold.PLP.Chemscore.CHOScore>
1.8382

> <Gold.PLP.Chemscore.Metal>
0.0000

> <Gold.Chemscore.Hbonds>
donor molecule, donor type, donor heavy atom, donor atom, acceptor molecule, acceptor atom, score
      L1  H     5    46       P1  8028  1.98
      L1  H     8    33       P1  7957  1.00
      L1  H    10    36       P1  7948  0.85
      L1  H    13    37       P1  7948  0.71
      L1  C    16    39       P1 10747  0.95
      L1  C    18    40       P1 10186  1.00

> <Gold.PLP.Chemscore.Internal.Correction>
0.0564

> <Gold.Rescore>
     Score         DG    S(hbond)    S(metal)    S(lipo)     H(rot)  DE(clash)    DE(int)     intcor
     19.84     -21.81       3.92        0.00      77.62       2.29       0.18       1.79       ----

> <Gold.Chemscore.Fitness>
19.8351

> <Gold.Chemscore.DG>
-21.8086

> <Gold.Chemscore.ZeroCoef>
-5.4800

> <Gold.Chemscore.Hbond>
3.9224

> <Gold.Chemscore.Metal>
0.0000

> <Gold.Chemscore.Lipo>
77.6180

> <Gold.Chemscore.Internal_Hbond>
0.0000

> <Gold.Chemscore.DEClash>
0.1830

> <Gold.Chemscore.DEInternal>
1.7904

> <Gold.Chemscore.Rot>
2.2865

> <Gold.Chemscore.Internal.Correction>
   9.000000E+99

> <Gold.Chemscore.Hbonds>
donor molecule, donor type, donor heavy atom, donor atom, acceptor molecule, acceptor atom, score
      L1  H     5    46       P1  8028  0.92
      L1  H     8    33       P1  7957  1.00
      L1  H    10    36       P1  7948  0.83
      L1  H    13    37       P1  7948  0.70

> <Gold.Chemscore.Hbond.Weighted>
-13.1008

> <Gold.Chemscore.Metal.Weighted>
-0.0000

> <Gold.Chemscore.Lipo.Weighted>
-9.0813

> <Gold.Chemscore.Internal_Hbond.Weighted>
0.0000

> <Gold.Chemscore.DEClash.Weighted>
0.1830

> <Gold.Chemscore.DEInternal.Weighted>
1.7904

> <Gold.Chemscore.Rot.Weighted>
5.8536

> <Gold.Chemscore.Internal.Correction.Weighted>
   9.000000E+99

> <Gold.Protein.RotatedTorsions>
[ 6907 6896 6895 6894 ] final  174.46 input  -60.11 | X-H torsion
[ 7974 7965 7964 7962 ] final   -2.38 input  175.53 | X-H torsion
[ 8008 7997 7996 7995 ] final -142.01 input   59.86 | X-H torsion
[ 10167 10162 10161 10158 ] final  142.88 input  -65.29 | X-H torsion
[ 10718 10713 10712 10709 ] final  -20.93 input   66.30 | X-H torsion
[ 10763 10752 10751 10750 ] final   26.42 input  -60.55 | X-H torsion
[ 11005 11000 10999 10996 ] final  123.38 input  -57.11 | X-H torsion

> <Gold.Protein.ActiveResidues>
 VAL166  LYS551  ARG553  GLY616  TRP617  ASP618  TYR619  PRO620  LYS621  CYS622 
 ASP623  PHE694  ASN695  SER759  ASP760  ASP761  ALA762  ILE779  LEU786  VAL792 
 PHE793  MET794  SER795  GLU796  ALA797  LYS798  CYS799  TRP800  GLU811  SER814 

> <Gold.Protein.RotatedAtoms>
  151.7519  133.3328  159.3393 H   0  0  0  0  0  0  0  0  0  0  0  0  # atno 6907 bound_to 6896
  150.7532  134.6184  159.6132 H   0  0  0  0  0  0  0  0  0  0  0  0  # atno 6908 bound_to 6896
  152.3462  134.7069  160.0301 H   0  0  0  0  0  0  0  0  0  0  0  0  # atno 6909 bound_to 6896
  146.2405  140.1562  142.8333 H   0  0  0  0  0  0  0  0  0  0  0  0  # atno 7974 bound_to 7965
  155.4871  140.0565  157.2959 H   0  0  0  0  0  0  0  0  0  0  0  0  # atno 8008 bound_to 7997
  154.4637  140.2008  156.0126 H   0  0  0  0  0  0  0  0  0  0  0  0  # atno 8009 bound_to 7997
  156.0937  140.3229  155.7853 H   0  0  0  0  0  0  0  0  0  0  0  0  # atno 8010 bound_to 7997
  139.4983  144.6078  151.6340 H   0  0  0  0  0  0  0  0  0  0  0  0  # atno 10167 bound_to 10162
  156.5251  130.4641  149.6576 H   0  0  0  0  0  0  0  0  0  0  0  0  # atno 10718 bound_to 10713
  153.0624  135.6560  154.0433 H   0  0  0  0  0  0  0  0  0  0  0  0  # atno 10763 bound_to 10752
  154.0097  135.2929  155.3395 H   0  0  0  0  0  0  0  0  0  0  0  0  # atno 10764 bound_to 10752
  154.6967  135.5261  153.8537 H   0  0  0  0  0  0  0  0  0  0  0  0  # atno 10765 bound_to 10752
  139.9310  134.9641  156.8250 H   0  0  0  0  0  0  0  0  0  0  0  0  # atno 11005 bound_to 11000
  145.0127  140.8727  143.5214 LP  0  0  0  0  0  0  0  0  0  0  0  0  # atno 17320 bound_to 7965
  145.1598  139.2465  143.5397 LP  0  0  0  0  0  0  0  0  0  0  0  0  # atno 17321 bound_to 7965
  140.5744  144.0053  150.6234 LP  0  0  0  0  0  0  0  0  0  0  0  0  # atno 17342 bound_to 10162
  140.3182  143.3154  152.0811 LP  0  0  0  0  0  0  0  0  0  0  0  0  # atno 17343 bound_to 10162
  156.3113  130.7230  151.2123 LP  0  0  0  0  0  0  0  0  0  0  0  0  # atno 17370 bound_to 10713
  157.7431  131.0480  150.4975 LP  0  0  0  0  0  0  0  0  0  0  0  0  # atno 17371 bound_to 10713
  140.6203  134.0000  155.7615 LP  0  0  0  0  0  0  0  0  0  0  0  0  # atno 17394 bound_to 11000
  141.0898  133.9934  157.3255 LP  0  0  0  0  0  0  0  0  0  0  0  0  # atno 17395 bound_to 11000

$$$$
