AV-unprocessed.smi:2057|AV-procd|sdf|8340|dock5
  -GOLD-   2272011 03D 1   1.00000     0.00000
 Structure written by MMmdl.
 44 46  0  0  0  0  0  0  0  0  1 V2000
  147.0843  136.8681  159.7162 C   0  0  0  0  0  0  0  0  0  0  0  0
  147.4677  138.1846  159.3465 O   0  0  0  0  0  0  0  0  0  0  0  0
  147.4425  138.5156  158.0089 C   0  0  0  0  0  0  0  0  0  0  0  0
  146.9368  137.6751  156.9896 C   0  0  0  0  0  0  0  0  0  0  0  0
  146.9395  138.0995  155.6481 C   0  0  0  0  0  0  0  0  0  0  0  0
  147.4519  139.3711  155.2897 C   0  0  0  0  0  0  0  0  0  0  0  0
  147.4636  139.8473  153.9938 O   0  0  0  0  0  0  0  0  0  0  0  0
  146.9119  139.0351  152.9685 C   0  0  0  0  0  0  0  0  0  0  0  0
  147.9737  140.2082  156.3056 C   0  0  0  0  0  0  0  0  0  0  0  0
  148.5247  141.5863  155.9504 C   0  0  2  0  0  0  0  0  0  0  0  0
  147.6648  142.3252  155.1027 O   0  0  0  0  0  0  0  0  0  0  0  0
  149.9224  141.4717  155.3095 C   0  0  0  0  0  0  0  0  0  0  0  0
  150.9569  141.1106  156.2688 N   0  0  0  0  0  0  0  0  0  0  0  0
  151.7624  140.0190  156.2538 C   0  0  0  0  0  0  0  0  0  0  0  0
  151.6668  138.9929  155.1595 C   0  0  0  0  0  0  0  0  0  0  0  0
  152.5770  137.9202  155.2953 O   0  0  0  0  0  0  0  0  0  0  0  0
  152.6357  139.9343  157.2602 N   0  0  0  0  0  0  0  0  0  0  0  0
  152.3700  141.0735  157.9939 C   0  0  0  0  0  0  0  0  0  0  0  0
  152.9608  141.5595  159.1823 C   0  0  0  0  0  0  0  0  0  0  0  0
  152.5165  142.7677  159.7584 C   0  0  0  0  0  0  0  0  0  0  0  0
  151.4774  143.5060  159.1555 C   0  0  0  0  0  0  0  0  0  0  0  0
  150.8765  143.0404  157.9703 C   0  0  0  0  0  0  0  0  0  0  0  0
  151.3235  141.8336  157.3997 C   0  0  0  0  0  0  0  0  0  0  0  0
  147.9548  139.7770  157.6514 C   0  0  0  0  0  0  0  0  0  0  0  0
  147.1514  136.7643  160.7990 H   0  0  0  0  0  0  0  0  0  0  0  0
  147.7443  136.1217  159.2720 H   0  0  0  0  0  0  0  0  0  0  0  0
  146.0535  136.6571  159.4284 H   0  0  0  0  0  0  0  0  0  0  0  0
  146.5342  136.6984  157.2110 H   0  0  0  0  0  0  0  0  0  0  0  0
  146.5360  137.4250  154.9086 H   0  0  0  0  0  0  0  0  0  0  0  0
  146.9853  139.5613  152.0170 H   0  0  0  0  0  0  0  0  0  0  0  0
  145.8563  138.8270  153.1488 H   0  0  0  0  0  0  0  0  0  0  0  0
  147.4549  138.0946  152.8677 H   0  0  0  0  0  0  0  0  0  0  0  0
  148.5967  142.1722  156.8666 H   0  0  0  0  0  0  0  0  0  0  0  0
  148.0444  143.1791  154.9622 H   0  0  0  0  0  0  0  0  0  0  0  0
  149.9134  140.7271  154.5131 H   0  0  0  0  0  0  0  0  0  0  0  0
  150.1990  142.4137  154.8343 H   0  0  0  0  0  0  0  0  0  0  0  0
  150.6586  138.5808  155.1353 H   0  0  0  0  0  0  0  0  0  0  0  0
  151.8446  139.4795  154.2003 H   0  0  0  0  0  0  0  0  0  0  0  0
  152.1958  137.1506  154.9016 H   0  0  0  0  0  0  0  0  0  0  0  0
  153.7574  141.0012  159.6512 H   0  0  0  0  0  0  0  0  0  0  0  0
  152.9744  143.1294  160.6672 H   0  0  0  0  0  0  0  0  0  0  0  0
  151.1411  144.4293  159.6038 H   0  0  0  0  0  0  0  0  0  0  0  0
  150.0788  143.6018  157.5067 H   0  0  0  0  0  0  0  0  0  0  0  0
  148.3328  140.4212  158.4317 H   0  0  0  0  0  0  0  0  0  0  0  0
  1  2  1  0  0  0  0
  1 25  1  0  0  0  0
  1 26  1  0  0  0  0
  1 27  1  0  0  0  0
  2  3  1  0  0  0  0
  3 24  1  0  0  0  0
  3  4  2  0  0  0  0
  4  5  1  0  0  0  0
  4 28  1  0  0  0  0
  5  6  2  0  0  0  0
  5 29  1  0  0  0  0
  6  7  1  0  0  0  0
  6  9  1  0  0  0  0
  7  8  1  0  0  0  0
  8 30  1  0  0  0  0
  8 31  1  0  0  0  0
  8 32  1  0  0  0  0
  9 10  1  0  0  0  0
  9 24  2  0  0  0  0
 10 11  1  0  0  0  0
 10 12  1  0  0  0  0
 10 33  1  0  0  0  0
 11 34  1  0  0  0  0
 12 13  1  0  0  0  0
 12 35  1  0  0  0  0
 12 36  1  0  0  0  0
 13 23  1  0  0  0  0
 13 14  1  0  0  0  0
 14 15  1  0  0  0  0
 14 17  2  0  0  0  0
 15 16  1  0  0  0  0
 15 37  1  0  0  0  0
 15 38  1  0  0  0  0
 16 39  1  0  0  0  0
 17 18  1  0  0  0  0
 18 23  2  0  0  0  0
 18 19  1  0  0  0  0
 19 20  2  0  0  0  0
 19 40  1  0  0  0  0
 20 21  1  0  0  0  0
 20 41  1  0  0  0  0
 21 22  2  0  0  0  0
 21 42  1  0  0  0  0
 22 23  1  0  0  0  0
 22 43  1  0  0  0  0
 24 44  1  0  0  0  0
M  END
> <s_m_source_file>
AV-unprocessed.smi

> <i_m_source_file_index>
2057

> <i_lp_mmshare_version>
43012

> <i_f3d_flags>
0

> <s_epik_input>
W0NIM11PYzFbY0hdW2NIXWMoT1tDSDNdKWMoW2NIXTEpW0NASF0oW09IXSlbQ0gyXW4oYyhuMilbQ0gyXVtPSF0pYyhjMjMpW2NIXVtjSF1bY0hdW2NIXTM=

> <s_epik_cmdline>
J2VwaWtfcHl0aG9uJywgJy1waCcsICc3LjAnLCAnLXRuJywgJzgnLCAnLW1hJywgJzIwMCcsICctbWV0YWxfYmluZGluZycsICctaW1hZScsICc8aW5maWxlLm1hZT4nLCAnLW9tYWUnLCAnPG91dGZpbGUubWFlPic=

> <r_lp_tautomer_probability>
1

> <r_epik_Ionization_Penalty>
0.0634722

> <r_epik_Ionization_Penalty_Charging>
0

> <r_epik_Ionization_Penalty_Neutral>
0.0634722

> <r_epik_State_Penalty>
0.0551572

> <r_epik_Charging_Adjusted_Penalty>
0.0551572

> <i_epik_Tot_Q>
0

> <i_epik_Tot_abs_Q>
0

> <r_epik_Metal_State_Penalty>
5.78034e-05

> <b_epik_Metal_Only>
0

> <s_lp_Force_Field>
OPLS_2005

> <r_lp_Energy>
18.6198

> <b_lp_Chiralities_Consistent>
1

> <s_lp_Variant>
AV-unprocessed.smi:2057-1

> <Gold.Version>
5.8.1

> <Gold.Id.Protein>
6NUR|6NUR_protein|mol2

> <Gold.PLP.Fitness>
42.6945

> <Gold.PLP.PLP>
-36.1561

> <Gold.PLP.part.hbond>
-3.9362

> <Gold.PLP.part.metal>
0.0000

> <Gold.PLP.part.buried>
-4.7240

> <Gold.PLP.part.nonpolar>
-27.2448

> <Gold.PLP.part.repulsive>
0.1584

> <Gold.PLP.ligand.clash>
0.0000

> <Gold.PLP.ligand.torsion>
0.4943

> <Gold.PLP.Chemscore.Hbond>
2.4960

> <Gold.PLP.Chemscore.CHOScore>
0.0000

> <Gold.PLP.Chemscore.Metal>
0.0000

> <Gold.Chemscore.Hbonds>
donor molecule, donor type, donor heavy atom, donor atom, acceptor molecule, acceptor atom, score
      L1  H    11    34       P1  8028  1.00
      P1  H  6934  6947       L1     2  0.43
      P1  H  7997  8008       L1    17  1.00

> <Gold.PLP.Chemscore.Internal.Correction>
0.0390

> <Gold.Rescore>
     Score         DG    S(hbond)    S(metal)    S(lipo)     H(rot)  DE(clash)    DE(int)     intcor
     13.96     -14.71       1.96        0.00      92.27       3.17       0.07       0.68       ----

> <Gold.Chemscore.Fitness>
13.9617

> <Gold.Chemscore.DG>
-14.7133

> <Gold.Chemscore.ZeroCoef>
-5.4800

> <Gold.Chemscore.Hbond>
1.9592

> <Gold.Chemscore.Metal>
0.0000

> <Gold.Chemscore.Lipo>
92.2720

> <Gold.Chemscore.Internal_Hbond>
0.0000

> <Gold.Chemscore.DEClash>
0.0704

> <Gold.Chemscore.DEInternal>
0.6812

> <Gold.Chemscore.Rot>
3.1665

> <Gold.Chemscore.Internal.Correction>
   9.000000E+99

> <Gold.Chemscore.Hbonds>
donor molecule, donor type, donor heavy atom, donor atom, acceptor molecule, acceptor atom, score
      L1  H    11    34       P1  8028  0.86
      P1  H  6934  6947       L1     2  0.13
      P1  H  7997  8008       L1    17  0.39

> <Gold.Chemscore.Hbond.Weighted>
-6.5437

> <Gold.Chemscore.Metal.Weighted>
-0.0000

> <Gold.Chemscore.Lipo.Weighted>
-10.7958

> <Gold.Chemscore.Internal_Hbond.Weighted>
0.0000

> <Gold.Chemscore.DEClash.Weighted>
0.0704

> <Gold.Chemscore.DEInternal.Weighted>
0.6812

> <Gold.Chemscore.Rot.Weighted>
8.1062

> <Gold.Chemscore.Internal.Correction.Weighted>
   9.000000E+99

> <Gold.Protein.RotatedTorsions>
[ 6907 6896 6895 6894 ] final  120.17 input  -60.11 | X-H torsion
[ 7974 7965 7964 7962 ] final   -5.59 input  175.53 | X-H torsion
[ 8008 7997 7996 7995 ] final  -52.55 input   59.86 | X-H torsion
[ 10167 10162 10161 10158 ] final  127.96 input  -65.29 | X-H torsion
[ 10718 10713 10712 10709 ] final  -62.67 input   66.30 | X-H torsion
[ 10763 10752 10751 10750 ] final   62.11 input  -60.55 | X-H torsion
[ 11005 11000 10999 10996 ] final   41.29 input  -57.11 | X-H torsion

> <Gold.Protein.ActiveResidues>
 VAL166  LYS551  ARG553  GLY616  TRP617  ASP618  TYR619  PRO620  LYS621  CYS622 
 ASP623  PHE694  ASN695  SER759  ASP760  ASP761  ALA762  ILE779  LEU786  VAL792 
 PHE793  MET794  SER795  GLU796  ALA797  LYS798  CYS799  TRP800  GLU811  SER814 

> <Gold.Protein.RotatedAtoms>
  152.4418  133.7462  159.6668 H   0  0  0  0  0  0  0  0  0  0  0  0  # atno 6907 bound_to 6896
  150.8310  133.8080  159.3104 H   0  0  0  0  0  0  0  0  0  0  0  0  # atno 6908 bound_to 6896
  151.5734  135.1064  160.0052 H   0  0  0  0  0  0  0  0  0  0  0  0  # atno 6909 bound_to 6896
  146.2349  140.2044  142.8334 H   0  0  0  0  0  0  0  0  0  0  0  0  # atno 7974 bound_to 7965
  154.4109  140.1221  156.5009 H   0  0  0  0  0  0  0  0  0  0  0  0  # atno 8008 bound_to 7997
  155.6896  140.3495  155.4868 H   0  0  0  0  0  0  0  0  0  0  0  0  # atno 8009 bound_to 7997
  155.9481  140.1099  157.0990 H   0  0  0  0  0  0  0  0  0  0  0  0  # atno 8010 bound_to 7997
  139.5551  144.6843  151.4206 H   0  0  0  0  0  0  0  0  0  0  0  0  # atno 10167 bound_to 10162
  156.0840  130.4211  150.1168 H   0  0  0  0  0  0  0  0  0  0  0  0  # atno 10718 bound_to 10713
  152.9972  135.5477  154.6140 H   0  0  0  0  0  0  0  0  0  0  0  0  # atno 10763 bound_to 10752
  154.5455  135.2823  155.1059 H   0  0  0  0  0  0  0  0  0  0  0  0  # atno 10764 bound_to 10752
  154.2320  135.6432  153.5231 H   0  0  0  0  0  0  0  0  0  0  0  0  # atno 10765 bound_to 10752
  140.1848  134.4059  155.8179 H   0  0  0  0  0  0  0  0  0  0  0  0  # atno 11005 bound_to 11000
  144.9756  140.8411  143.5428 LP  0  0  0  0  0  0  0  0  0  0  0  0  # atno 17320 bound_to 7965
  145.2031  139.2242  143.5182 LP  0  0  0  0  0  0  0  0  0  0  0  0  # atno 17321 bound_to 7965
  140.6822  143.8055  150.7137 LP  0  0  0  0  0  0  0  0  0  0  0  0  # atno 17342 bound_to 10162
  140.1512  143.4356  152.2130 LP  0  0  0  0  0  0  0  0  0  0  0  0  # atno 17343 bound_to 10162
  156.9193  130.9677  151.3551 LP  0  0  0  0  0  0  0  0  0  0  0  0  # atno 17370 bound_to 10713
  157.5968  130.8483  149.8741 LP  0  0  0  0  0  0  0  0  0  0  0  0  # atno 17371 bound_to 10713
  141.2224  133.7018  156.7993 LP  0  0  0  0  0  0  0  0  0  0  0  0  # atno 17394 bound_to 11000
  140.2226  134.8745  157.3393 LP  0  0  0  0  0  0  0  0  0  0  0  0  # atno 17395 bound_to 11000

$$$$
