AV-unprocessed.smi:102|AV-procd|sdf|965|dock8
  -GOLD-   2262017513D 1   1.00000     0.00000
 Structure written by MMmdl.
 43 44  0  0  0  0  0  0  0  0  2 V2000
  146.4494  134.8771  161.8045 C   0  0  0  0  0  0  0  0  0  0  0  0
  146.9499  136.0988  161.0442 C   0  0  0  0  0  0  0  0  0  0  0  0
  146.7987  137.2363  161.4899 O   0  0  0  0  0  0  0  0  0  0  0  0
  147.5450  135.7780  159.8853 O   0  0  0  0  0  0  0  0  0  0  0  0
  147.9592  136.8077  159.0026 C   0  0  0  0  0  0  0  0  0  0  0  0
  149.1577  136.3206  158.1738 C   0  0  2  0  0  0  0  0  0  0  0  0
  150.3508  136.4649  158.9322 O   0  0  0  0  0  0  0  0  0  0  0  0
  150.8885  137.7264  158.6971 C   0  0  1  0  0  0  0  0  0  0  0  0
  152.3822  137.6734  158.8959 N   0  0  0  0  0  0  0  0  0  0  0  0
  152.9919  136.5074  159.3252 C   0  0  0  0  0  0  0  0  0  0  0  0
  154.3295  136.4358  159.4812 C   0  0  0  0  0  0  0  0  0  0  0  0
  154.8946  135.2903  159.8997 F   0  0  0  0  0  0  0  0  0  0  0  0
  155.1551  137.6056  159.1865 C   0  0  0  0  0  0  0  0  0  0  0  0
  156.3733  137.5382  159.3413 O   0  0  0  0  0  0  0  0  0  0  0  0
  154.5280  138.7339  158.7435 N   0  5  0  0  0  0  0  0  0  0  0  0
  153.1749  138.8083  158.5756 C   0  0  0  0  0  0  0  0  0  0  0  0
  152.6038  139.8125  158.1503 O   0  0  0  0  0  0  0  0  0  0  0  0
  150.5561  138.0959  157.2518 C   0  0  2  0  0  0  0  0  0  0  0  0
  150.1954  139.4671  157.1663 O   0  0  0  0  0  0  0  0  0  0  0  0
  150.3025  140.1188  155.9967 C   0  0  0  0  0  0  0  0  0  0  0  0
  149.7749  141.5451  156.0761 C   0  0  0  0  0  0  0  0  0  0  0  0
  150.7587  139.6594  154.9495 O   0  0  0  0  0  0  0  0  0  0  0  0
  149.3801  137.1818  156.9197 C   0  0  1  0  0  0  0  0  0  0  0  0
  149.7186  136.3883  155.7892 O   0  0  0  0  0  0  0  0  0  0  0  0
  148.8562  135.4696  155.3218 C   0  0  0  0  0  0  0  0  0  0  0  0
  149.4122  134.7061  154.1272 C   0  0  0  0  0  0  0  0  0  0  0  0
  147.7372  135.2283  155.7749 O   0  0  0  0  0  0  0  0  0  0  0  0
  146.6162  133.9643  161.2319 H   0  0  0  0  0  0  0  0  0  0  0  0
  145.3816  134.9688  162.0034 H   0  0  0  0  0  0  0  0  0  0  0  0
  146.9717  134.7867  162.7569 H   0  0  0  0  0  0  0  0  0  0  0  0
  147.1304  137.0517  158.3364 H   0  0  0  0  0  0  0  0  0  0  0  0
  148.2081  137.7129  159.5580 H   0  0  0  0  0  0  0  0  0  0  0  0
  149.0115  135.2718  157.9119 H   0  0  0  0  0  0  0  0  0  0  0  0
  150.4801  138.4151  159.4393 H   0  0  0  0  0  0  0  0  0  0  0  0
  152.3943  135.6327  159.5346 H   0  0  0  0  0  0  0  0  0  0  0  0
  151.4189  137.8646  156.6241 H   0  0  0  0  0  0  0  0  0  0  0  0
  150.0290  141.9932  157.0368 H   0  0  0  0  0  0  0  0  0  0  0  0
  148.6907  141.5533  155.9644 H   0  0  0  0  0  0  0  0  0  0  0  0
  150.2099  142.1567  155.2855 H   0  0  0  0  0  0  0  0  0  0  0  0
  148.4922  137.7780  156.7020 H   0  0  0  0  0  0  0  0  0  0  0  0
  149.9497  135.3797  153.4596 H   0  0  0  0  0  0  0  0  0  0  0  0
  148.6050  134.2362  153.5650 H   0  0  0  0  0  0  0  0  0  0  0  0
  150.0984  133.9289  154.4630 H   0  0  0  0  0  0  0  0  0  0  0  0
  1  2  1  0  0  0  0
  1 28  1  0  0  0  0
  1 29  1  0  0  0  0
  1 30  1  0  0  0  0
  2  3  2  0  0  0  0
  2  4  1  0  0  0  0
  4  5  1  0  0  0  0
  5  6  1  0  0  0  0
  5 31  1  0  0  0  0
  5 32  1  0  0  0  0
  6 23  1  0  0  0  0
  6  7  1  0  0  0  0
  6 33  1  0  0  0  0
  7  8  1  0  0  0  0
  8  9  1  0  0  0  0
  8 18  1  0  0  0  0
  8 34  1  0  0  0  0
  9 16  1  0  0  0  0
  9 10  1  0  0  0  0
 10 11  2  0  0  0  0
 10 35  1  0  0  0  0
 11 12  1  0  0  0  0
 11 13  1  0  0  0  0
 13 14  2  0  0  0  0
 13 15  1  0  0  0  0
 15 16  1  0  0  0  0
 16 17  2  0  0  0  0
 18 19  1  0  0  0  0
 18 23  1  0  0  0  0
 18 36  1  0  0  0  0
 19 20  1  0  0  0  0
 20 21  1  0  0  0  0
 20 22  2  0  0  0  0
 21 37  1  0  0  0  0
 21 38  1  0  0  0  0
 21 39  1  0  0  0  0
 23 24  1  0  0  0  0
 23 40  1  0  0  0  0
 24 25  1  0  0  0  0
 25 26  1  0  0  0  0
 25 27  2  0  0  0  0
 26 41  1  0  0  0  0
 26 42  1  0  0  0  0
 26 43  1  0  0  0  0
M  CHG  1  15  -1
M  END
> <s_m_source_file>
AV-unprocessed.smi

> <i_m_source_file_index>
102

> <i_lp_mmshare_version>
43012

> <i_f3d_flags>
0

> <s_epik_input>
W0NIM11DKD1PKU9bQ0gyXVtDQEBIXTFPW0NASF0oW0NAQEhdKE9DKD1PKVtDSDNdKVtDQEhdMU9DKD1PKVtDSDNdKW4yW2NIXWMoRiljKD1PKVtuSF1jMj1P

> <s_epik_cmdline>
J2VwaWtfcHl0aG9uJywgJy1waCcsICc3LjAnLCAnLXRuJywgJzgnLCAnLW1hJywgJzIwMCcsICctbWV0YWxfYmluZGluZycsICctaW1hZScsICc8aW5maWxlLm1hZT4nLCAnLW9tYWUnLCAnPG91dGZpbGUubWFlPic=

> <r_epik_Ionization_Penalty>
1.40304

> <r_epik_Ionization_Penalty_Charging>
1.43915e-08

> <r_epik_Ionization_Penalty_Neutral>
1.40304

> <r_epik_State_Penalty>
1.48536

> <r_epik_Charging_Adjusted_Penalty>
1.48536

> <i_epik_Tot_Q>
-1

> <i_epik_Tot_abs_Q>
1

> <r_epik_Metal_State_Penalty>
0.00663881

> <b_epik_Metal_Only>
0

> <s_epik_Chemistry_Notes>
This compound has an ester and may undergo hydrolysis at high or low pH. This compound contains an acetal/aminal-like group ( X-CH(R)-Y where X, Y are N, S, or O) that may be acid/base labile, releasing an aldehyde.

> <s_lp_Force_Field>
OPLS_2005

> <r_lp_Energy>
22.1455

> <b_lp_Chiralities_Consistent>
1

> <s_lp_Variant>
AV-unprocessed.smi:102-21

> <Gold.Version>
5.8.1

> <Gold.Id.Protein>
6NUR|6NUR_protein|mol2

> <Gold.PLP.Fitness>
45.6771

> <Gold.PLP.PLP>
-30.4357

> <Gold.PLP.part.hbond>
-5.7773

> <Gold.PLP.part.metal>
0.0000

> <Gold.PLP.part.buried>
-4.1289

> <Gold.PLP.part.nonpolar>
-20.7743

> <Gold.PLP.part.repulsive>
0.1547

> <Gold.PLP.ligand.clash>
0.0000

> <Gold.PLP.ligand.torsion>
0.7300

> <Gold.PLP.Chemscore.Hbond>
5.5360

> <Gold.PLP.Chemscore.CHOScore>
0.0000

> <Gold.PLP.Chemscore.Metal>
0.0000

> <Gold.Chemscore.Hbonds>
donor molecule, donor type, donor heavy atom, donor atom, acceptor molecule, acceptor atom, score
      P1  H  6896  6907       L1     7  0.96
      P1  H  6934  6947       L1     3  1.00
      P1  H  7989  7998       L1    22  0.88
      P1  H  7997  8010       L1    15  2.00

> <Gold.PLP.Chemscore.Internal.Correction>
0.0935

> <Gold.Rescore>
     Score         DG    S(hbond)    S(metal)    S(lipo)     H(rot)  DE(clash)    DE(int)     intcor
      6.65     -10.32       3.15        0.00      38.88       4.00       0.05       3.62       ----

> <Gold.Chemscore.Fitness>
6.6536

> <Gold.Chemscore.DG>
-10.3210

> <Gold.Chemscore.ZeroCoef>
-5.4800

> <Gold.Chemscore.Hbond>
3.1496

> <Gold.Chemscore.Metal>
0.0000

> <Gold.Chemscore.Lipo>
38.8790

> <Gold.Chemscore.Internal_Hbond>
0.0000

> <Gold.Chemscore.DEClash>
0.0456

> <Gold.Chemscore.DEInternal>
3.6218

> <Gold.Chemscore.Rot>
3.9951

> <Gold.Chemscore.Internal.Correction>
   9.000000E+99

> <Gold.Chemscore.Hbonds>
donor molecule, donor type, donor heavy atom, donor atom, acceptor molecule, acceptor atom, score
      P1  H  6896  6907       L1     7  0.92
      P1  H  6931  6943       L1     3  0.01
      P1  H  6934  6947       L1     3  0.98
      P1  H  7989  7998       L1    22  0.85
      P1  H  7997  8010       L1    15  0.33

> <Gold.Chemscore.Hbond.Weighted>
-10.5196

> <Gold.Chemscore.Metal.Weighted>
-0.0000

> <Gold.Chemscore.Lipo.Weighted>
-4.5488

> <Gold.Chemscore.Internal_Hbond.Weighted>
0.0000

> <Gold.Chemscore.DEClash.Weighted>
0.0456

> <Gold.Chemscore.DEInternal.Weighted>
3.6218

> <Gold.Chemscore.Rot.Weighted>
10.2274

> <Gold.Chemscore.Internal.Correction.Weighted>
   9.000000E+99

> <Gold.Protein.RotatedTorsions>
[ 6907 6896 6895 6894 ] final  -19.42 input  -60.11 | X-H torsion
[ 7974 7965 7964 7962 ] final   77.02 input  175.53 | X-H torsion
[ 8008 7997 7996 7995 ] final   -6.17 input   59.86 | X-H torsion
[ 10167 10162 10161 10158 ] final  132.05 input  -65.29 | X-H torsion
[ 10718 10713 10712 10709 ] final  178.22 input   66.30 | X-H torsion
[ 10763 10752 10751 10750 ] final -161.08 input  -60.55 | X-H torsion
[ 11005 11000 10999 10996 ] final -162.96 input  -57.11 | X-H torsion

> <Gold.Protein.ActiveResidues>
 VAL166  LYS551  ARG553  GLY616  TRP617  ASP618  TYR619  PRO620  LYS621  CYS622 
 ASP623  PHE694  ASN695  SER759  ASP760  ASP761  ALA762  ILE779  LEU786  VAL792 
 PHE793  MET794  SER795  GLU796  ALA797  LYS798  CYS799  TRP800  GLU811  SER814 

> <Gold.Protein.RotatedAtoms>
  151.2633  135.0661  159.9106 H   0  0  0  0  0  0  0  0  0  0  0  0  # atno 6907 bound_to 6896
  152.5362  134.0208  159.7991 H   0  0  0  0  0  0  0  0  0  0  0  0  # atno 6908 bound_to 6896
  151.0434  133.5636  159.2680 H   0  0  0  0  0  0  0  0  0  0  0  0  # atno 6909 bound_to 6896
  145.6954  139.2565  143.1735 H   0  0  0  0  0  0  0  0  0  0  0  0  # atno 7974 bound_to 7965
  154.5964  140.2439  155.7851 H   0  0  0  0  0  0  0  0  0  0  0  0  # atno 8008 bound_to 7997
  156.2282  140.2975  156.0074 H   0  0  0  0  0  0  0  0  0  0  0  0  # atno 8009 bound_to 7997
  155.2285  140.0403  157.2949 H   0  0  0  0  0  0  0  0  0  0  0  0  # atno 8010 bound_to 7997
  139.5357  144.6679  151.4795 H   0  0  0  0  0  0  0  0  0  0  0  0  # atno 10167 bound_to 10162
  156.8938  130.9856  151.3045 H   0  0  0  0  0  0  0  0  0  0  0  0  # atno 10718 bound_to 10713
  154.7334  135.3052  154.8852 H   0  0  0  0  0  0  0  0  0  0  0  0  # atno 10763 bound_to 10752
  153.9688  135.6744  153.4750 H   0  0  0  0  0  0  0  0  0  0  0  0  # atno 10764 bound_to 10752
  153.0940  135.4945  154.8665 H   0  0  0  0  0  0  0  0  0  0  0  0  # atno 10765 bound_to 10752
  140.6034  134.4924  157.5208 H   0  0  0  0  0  0  0  0  0  0  0  0  # atno 11005 bound_to 11000
  146.0845  140.7727  142.9625 LP  0  0  0  0  0  0  0  0  0  0  0  0  # atno 17320 bound_to 7965
  144.6984  140.3540  143.7176 LP  0  0  0  0  0  0  0  0  0  0  0  0  # atno 17321 bound_to 7965
  140.6561  143.8595  150.6837 LP  0  0  0  0  0  0  0  0  0  0  0  0  # atno 17342 bound_to 10162
  140.1975  143.3986  152.1816 LP  0  0  0  0  0  0  0  0  0  0  0  0  # atno 17343 bound_to 10162
  157.6068  130.8553  149.8887 LP  0  0  0  0  0  0  0  0  0  0  0  0  # atno 17370 bound_to 10713
  156.0616  130.3699  150.0970 LP  0  0  0  0  0  0  0  0  0  0  0  0  # atno 17371 bound_to 10713
  139.9223  134.8125  156.1175 LP  0  0  0  0  0  0  0  0  0  0  0  0  # atno 17394 bound_to 11000
  141.0857  133.6735  156.2431 LP  0  0  0  0  0  0  0  0  0  0  0  0  # atno 17395 bound_to 11000

$$$$
