AV-unprocessed.smi:195|AV-procd|sdf|1527|dock10
  -GOLD-   2262019373D 1   1.00000     0.00000
 Structure written by MMmdl.
 45 48  0  0  0  0  0  0  0  0  1 V2000
  142.0241  142.5559  162.2225 N   0  0  0  0  0  0  0  0  0  0  0  0
  142.4494  143.5082  161.7216 C   0  0  0  0  0  0  0  0  0  0  0  0
  142.9912  144.7189  161.0844 C   0  0  0  0  0  0  0  0  0  0  0  0
  142.5973  144.8596  159.6113 C   0  0  0  0  0  0  0  0  0  0  0  0
  141.3043  145.4268  159.6359 O   0  0  0  0  0  0  0  0  0  0  0  0
  143.5935  145.5548  158.6786 C   0  0  0  0  0  0  0  0  0  0  0  0
  143.9862  144.2323  158.1991 N   0  0  0  0  0  0  0  0  0  0  0  0
  145.2226  143.7658  158.7464 C   0  0  0  0  0  0  0  0  0  0  0  0
  145.5544  144.0199  160.0415 N   0  0  0  0  0  0  0  0  0  0  0  0
  146.7033  143.5789  160.5622 C   0  0  0  0  0  0  0  0  0  0  0  0
  147.6602  142.8582  159.9774 N   0  0  0  0  0  0  0  0  0  0  0  0
  147.3352  142.5770  158.6847 C   0  0  0  0  0  0  0  0  0  0  0  0
  146.1531  142.9839  158.0027 C   0  0  0  0  0  0  0  0  0  0  0  0
  146.1724  142.4998  156.6995 N   0  0  0  0  0  0  0  0  0  0  0  0
  147.3006  141.8489  156.6152 C   0  0  0  0  0  0  0  0  0  0  0  0
  148.0600  141.8447  157.7625 N   0  0  0  0  0  0  0  0  0  0  0  0
  149.3467  141.2004  157.9545 C   0  0  0  0  0  0  0  0  0  0  0  0
  150.5005  141.9946  157.3126 C   0  0  1  0  0  0  0  0  0  0  0  0
  150.2068  142.2964  155.9617 O   0  0  0  0  0  0  0  0  0  0  0  0
  150.8456  143.2798  158.0912 C   0  0  1  0  0  0  0  0  0  0  0  0
  151.6321  143.0994  159.3923 C   0  0  0  0  0  0  0  0  0  0  0  0
  152.2619  144.4656  159.5455 C   0  0  0  0  0  0  0  0  0  0  0  0
  152.5980  144.8191  158.0986 C   0  0  0  0  0  0  0  0  0  0  0  0
  151.5948  144.1980  157.2990 O   0  0  0  0  0  0  0  0  0  0  0  0
  142.7497  143.6345  158.7036 C   0  0  0  0  0  0  0  0  0  0  0  0
  142.6614  145.5814  161.6646 H   0  0  0  0  0  0  0  0  0  0  0  0
  144.0745  144.6732  161.1949 H   0  0  0  0  0  0  0  0  0  0  0  0
  140.8265  144.9954  160.3277 H   0  0  0  0  0  0  0  0  0  0  0  0
  143.1171  146.1450  157.8947 H   0  0  0  0  0  0  0  0  0  0  0  0
  144.3682  146.1201  159.1980 H   0  0  0  0  0  0  0  0  0  0  0  0
  146.8787  143.8398  161.5956 H   0  0  0  0  0  0  0  0  0  0  0  0
  147.6094  141.3468  155.7097 H   0  0  0  0  0  0  0  0  0  0  0  0
  149.5153  141.0726  159.0245 H   0  0  0  0  0  0  0  0  0  0  0  0
  149.2929  140.1991  157.5253 H   0  0  0  0  0  0  0  0  0  0  0  0
  151.3902  141.3638  157.3018 H   0  0  0  0  0  0  0  0  0  0  0  0
  149.9557  143.2059  155.9085 H   0  0  0  0  0  0  0  0  0  0  0  0
  149.9133  143.7910  158.3369 H   0  0  0  0  0  0  0  0  0  0  0  0
  150.9998  142.8217  160.2359 H   0  0  0  0  0  0  0  0  0  0  0  0
  152.4145  142.3466  159.2904 H   0  0  0  0  0  0  0  0  0  0  0  0
  151.5330  145.1716  159.9460 H   0  0  0  0  0  0  0  0  0  0  0  0
  153.1345  144.4664  160.1990 H   0  0  0  0  0  0  0  0  0  0  0  0
  152.6330  145.8955  157.9301 H   0  0  0  0  0  0  0  0  0  0  0  0
  153.5667  144.4017  157.8218 H   0  0  0  0  0  0  0  0  0  0  0  0
  142.8340  142.6823  159.2268 H   0  0  0  0  0  0  0  0  0  0  0  0
  141.9882  143.5855  157.9242 H   0  0  0  0  0  0  0  0  0  0  0  0
  1  2  3  0  0  0  0
  2  3  1  0  0  0  0
  3  4  1  0  0  0  0
  3 26  1  0  0  0  0
  3 27  1  0  0  0  0
  4 25  1  0  0  0  0
  4  5  1  0  0  0  0
  4  6  1  0  0  0  0
  5 28  1  0  0  0  0
  6  7  1  0  0  0  0
  6 29  1  0  0  0  0
  6 30  1  0  0  0  0
  7  8  1  0  0  0  0
  7 25  1  0  0  0  0
  8 13  1  0  0  0  0
  8  9  2  0  0  0  0
  9 10  1  0  0  0  0
 10 11  2  0  0  0  0
 10 31  1  0  0  0  0
 11 12  1  0  0  0  0
 12 16  1  0  0  0  0
 12 13  2  0  0  0  0
 13 14  1  0  0  0  0
 14 15  2  0  0  0  0
 15 16  1  0  0  0  0
 15 32  1  0  0  0  0
 16 17  1  0  0  0  0
 17 18  1  0  0  0  0
 17 33  1  0  0  0  0
 17 34  1  0  0  0  0
 18 19  1  0  0  0  0
 18 20  1  0  0  0  0
 18 35  1  0  0  0  0
 19 36  1  0  0  0  0
 20 24  1  0  0  0  0
 20 21  1  0  0  0  0
 20 37  1  0  0  0  0
 21 22  1  0  0  0  0
 21 38  1  0  0  0  0
 21 39  1  0  0  0  0
 22 23  1  0  0  0  0
 22 40  1  0  0  0  0
 22 41  1  0  0  0  0
 23 24  1  0  0  0  0
 23 42  1  0  0  0  0
 23 43  1  0  0  0  0
 25 44  1  0  0  0  0
 25 45  1  0  0  0  0
M  END
> <s_m_source_file>
AV-unprocessed.smi

> <i_m_source_file_index>
195

> <i_lp_mmshare_version>
43012

> <i_f3d_flags>
0

> <s_epik_input>
TiNDW0NIMl1DMShbT0hdKVtDSDJdTihbQ0gyXTEpYyhuW2NIXW4yKWMoYzIzKW5bY0hdbjNbQ0gyXVtDQEhdKFtPSF0pW0NAQEhdNFtDSDJdW0NIMl1bQ0gyXU80

> <s_epik_cmdline>
J2VwaWtfcHl0aG9uJywgJy1waCcsICc3LjAnLCAnLXRuJywgJzgnLCAnLW1hJywgJzIwMCcsICctbWV0YWxfYmluZGluZycsICctaW1hZScsICc8aW5maWxlLm1hZT4nLCAnLW9tYWUnLCAnPG91dGZpbGUubWFlPic=

> <r_lp_tautomer_probability>
1

> <r_epik_Ionization_Penalty>
0.00307146

> <r_epik_Ionization_Penalty_Charging>
0

> <r_epik_Ionization_Penalty_Neutral>
0.00307146

> <r_epik_State_Penalty>
0.0020279

> <r_epik_Charging_Adjusted_Penalty>
0.0020279

> <i_epik_Tot_Q>
0

> <i_epik_Tot_abs_Q>
0

> <r_epik_Metal_State_Penalty>
-0

> <b_epik_Metal_Only>
0

> <s_lp_Force_Field>
OPLS_2005

> <r_lp_Energy>
44.2023

> <b_lp_Chiralities_Consistent>
1

> <s_lp_Variant>
AV-unprocessed.smi:195-4

> <Gold.Version>
5.8.1

> <Gold.Id.Protein>
6NUR|6NUR_protein|mol2

> <Gold.PLP.Fitness>
37.5596

> <Gold.PLP.PLP>
-34.0926

> <Gold.PLP.part.hbond>
-4.4505

> <Gold.PLP.part.metal>
0.0000

> <Gold.PLP.part.buried>
-6.7717

> <Gold.PLP.part.nonpolar>
-24.6364

> <Gold.PLP.part.repulsive>
0.4704

> <Gold.PLP.ligand.clash>
0.0000

> <Gold.PLP.ligand.torsion>
1.4077

> <Gold.PLP.Chemscore.Hbond>
1.9774

> <Gold.PLP.Chemscore.CHOScore>
0.0000

> <Gold.PLP.Chemscore.Metal>
0.0000

> <Gold.Chemscore.Hbonds>
donor molecule, donor type, donor heavy atom, donor atom, acceptor molecule, acceptor atom, score
      L1  H    19    36       P1  8028  1.00
      P1  H  6933  6944       L1    11  0.71
      P1  H  6934  6946       L1    11  0.13

> <Gold.PLP.Chemscore.Internal.Correction>
0.3502

> <Gold.Rescore>
     Score         DG    S(hbond)    S(metal)    S(lipo)     H(rot)  DE(clash)    DE(int)     intcor
      7.91      -9.12       1.74        0.00      62.95       3.72       0.01       1.20       ----

> <Gold.Chemscore.Fitness>
7.9054

> <Gold.Chemscore.DG>
-9.1161

> <Gold.Chemscore.ZeroCoef>
-5.4800

> <Gold.Chemscore.Hbond>
1.7353

> <Gold.Chemscore.Metal>
0.0000

> <Gold.Chemscore.Lipo>
62.9550

> <Gold.Chemscore.Internal_Hbond>
0.0000

> <Gold.Chemscore.DEClash>
0.0103

> <Gold.Chemscore.DEInternal>
1.2004

> <Gold.Chemscore.Rot>
3.7210

> <Gold.Chemscore.Internal.Correction>
   9.000000E+99

> <Gold.Chemscore.Hbonds>
donor molecule, donor type, donor heavy atom, donor atom, acceptor molecule, acceptor atom, score
      L1  H    19    36       P1  8028  1.00
      P1  H  6933  6944       L1    11  0.14

> <Gold.Chemscore.Hbond.Weighted>
-5.7960

> <Gold.Chemscore.Metal.Weighted>
-0.0000

> <Gold.Chemscore.Lipo.Weighted>
-7.3657

> <Gold.Chemscore.Internal_Hbond.Weighted>
0.0000

> <Gold.Chemscore.DEClash.Weighted>
0.0103

> <Gold.Chemscore.DEInternal.Weighted>
1.2004

> <Gold.Chemscore.Rot.Weighted>
9.5256

> <Gold.Chemscore.Internal.Correction.Weighted>
   9.000000E+99

> <Gold.Protein.RotatedTorsions>
[ 6907 6896 6895 6894 ] final  142.78 input  -60.11 | X-H torsion
[ 7974 7965 7964 7962 ] final   75.89 input  175.53 | X-H torsion
[ 8008 7997 7996 7995 ] final  177.30 input   59.86 | X-H torsion
[ 10167 10162 10161 10158 ] final -179.08 input  -65.29 | X-H torsion
[ 10718 10713 10712 10709 ] final -101.48 input   66.30 | X-H torsion
[ 10763 10752 10751 10750 ] final   -7.40 input  -60.55 | X-H torsion
[ 11005 11000 10999 10996 ] final   51.45 input  -57.11 | X-H torsion

> <Gold.Protein.ActiveResidues>
 VAL166  LYS551  ARG553  GLY616  TRP617  ASP618  TYR619  PRO620  LYS621  CYS622 
 ASP623  PHE694  ASN695  SER759  ASP760  ASP761  ALA762  ILE779  LEU786  VAL792 
 PHE793  MET794  SER795  GLU796  ALA797  LYS798  CYS799  TRP800  GLU811  SER814 

> <Gold.Protein.RotatedAtoms>
  152.2144  133.4936  159.5127 H   0  0  0  0  0  0  0  0  0  0  0  0  # atno 6907 bound_to 6896
  150.6998  134.1424  159.4119 H   0  0  0  0  0  0  0  0  0  0  0  0  # atno 6908 bound_to 6896
  151.9344  135.0241  160.0582 H   0  0  0  0  0  0  0  0  0  0  0  0  # atno 6909 bound_to 6896
  145.7098  139.2611  143.1657 H   0  0  0  0  0  0  0  0  0  0  0  0  # atno 7974 bound_to 7965
  156.0672  140.1362  156.9872 H   0  0  0  0  0  0  0  0  0  0  0  0  # atno 8008 bound_to 7997
  154.4512  140.0979  156.6676 H   0  0  0  0  0  0  0  0  0  0  0  0  # atno 8009 bound_to 7997
  155.5285  140.3458  155.4423 H   0  0  0  0  0  0  0  0  0  0  0  0  # atno 8010 bound_to 7997
  139.5403  144.2383  152.0880 H   0  0  0  0  0  0  0  0  0  0  0  0  # atno 10167 bound_to 10162
  156.0196  130.5375  150.6969 H   0  0  0  0  0  0  0  0  0  0  0  0  # atno 10718 bound_to 10713
  153.4258  135.7011  153.6263 H   0  0  0  0  0  0  0  0  0  0  0  0  # atno 10763 bound_to 10752
  153.4699  135.3717  155.2385 H   0  0  0  0  0  0  0  0  0  0  0  0  # atno 10764 bound_to 10752
  154.8724  135.4040  154.3634 H   0  0  0  0  0  0  0  0  0  0  0  0  # atno 10765 bound_to 10752
  140.0932  134.5181  155.8832 H   0  0  0  0  0  0  0  0  0  0  0  0  # atno 11005 bound_to 11000
  146.0723  140.7856  142.9682 LP  0  0  0  0  0  0  0  0  0  0  0  0  # atno 17320 bound_to 7965
  144.6945  140.3361  143.7207 LP  0  0  0  0  0  0  0  0  0  0  0  0  # atno 17321 bound_to 7965
  140.1860  144.4798  150.6503 LP  0  0  0  0  0  0  0  0  0  0  0  0  # atno 17342 bound_to 10162
  140.6629  143.2258  151.5812 LP  0  0  0  0  0  0  0  0  0  0  0  0  # atno 17343 bound_to 10162
  157.4638  131.0886  151.0717 LP  0  0  0  0  0  0  0  0  0  0  0  0  # atno 17370 bound_to 10713
  157.1197  130.6056  149.5502 LP  0  0  0  0  0  0  0  0  0  0  0  0  # atno 17371 bound_to 10713
  141.2084  133.6673  156.6369 LP  0  0  0  0  0  0  0  0  0  0  0  0  # atno 17394 bound_to 11000
  140.3323  134.7918  157.4336 LP  0  0  0  0  0  0  0  0  0  0  0  0  # atno 17395 bound_to 11000

$$$$
