AV-unprocessed.smi:1830|AV-procd|sdf|7447|dock3
  -GOLD-   22720 9133D 1   1.00000     0.00000
 Structure written by MMmdl.
 54 57  0  0  0  0  0  0  0  0  3 V2000
  154.4142  141.7733  160.9528 O   0  0  0  0  0  0  0  0  0  0  0  0
  153.7730  140.9504  160.3003 C   0  0  0  0  0  0  0  0  0  0  0  0
  153.9949  139.6298  160.3519 N   0  0  0  0  0  0  0  0  0  0  0  0
  155.0346  138.9864  161.1500 C   0  0  0  0  0  0  0  0  0  0  0  0
  154.4732  137.9651  162.1591 C   0  0  1  0  0  0  0  0  0  0  0  0
  154.7873  136.5050  161.7844 C   0  0  0  0  0  0  0  0  0  0  0  0
  154.2851  135.5586  162.8130 N   0  3  1  0  0  0  0  0  0  0  0  0
  154.8295  134.1942  162.6324 C   0  0  0  0  0  0  0  0  0  0  0  0
  156.0120  134.0564  163.6090 C   0  0  0  0  0  0  0  0  0  0  0  0
  156.0481  135.3663  164.4039 C   0  0  0  0  0  0  0  0  0  0  0  0
  154.6514  135.9497  164.1919 C   0  0  1  0  0  0  0  0  0  0  0  0
  154.5008  137.4608  164.4596 C   0  0  0  0  0  0  0  0  0  0  0  0
  155.0821  138.2287  163.4156 O   0  0  0  0  0  0  0  0  0  0  0  0
  152.7578  141.2441  159.4711 N   0  0  0  0  0  0  0  0  0  0  0  0
  152.1994  142.5245  159.1950 C   0  0  0  0  0  0  0  0  0  0  0  0
  152.7507  143.7134  159.7382 C   0  0  0  0  0  0  0  0  0  0  0  0
  152.1900  144.9611  159.4046 C   0  0  0  0  0  0  0  0  0  0  0  0
  151.0942  145.0031  158.5244 C   0  0  0  0  0  0  0  0  0  0  0  0
  150.6034  143.8554  158.0122 N   0  3  0  0  0  0  0  0  0  0  0  0
  151.1018  142.6267  158.2963 C   0  0  0  0  0  0  0  0  0  0  0  0
  150.4914  141.4927  157.7187 N   0  0  0  0  0  0  0  0  0  0  0  0
  149.0937  141.3012  158.0965 C   0  0  0  0  0  0  0  0  0  0  0  0
  148.3962  140.6949  156.8777 C   0  0  0  0  0  0  0  0  0  0  0  0
  149.2253  141.2188  155.7118 C   0  0  0  0  0  0  0  0  0  0  0  0
  150.6404  141.2293  156.2877 C   0  0  0  0  0  0  0  0  0  0  0  0
  153.4204  139.0253  159.7825 H   0  0  0  0  0  0  0  0  0  0  0  0
  155.7249  138.4907  160.4667 H   0  0  0  0  0  0  0  0  0  0  0  0
  155.6153  139.7488  161.6720 H   0  0  0  0  0  0  0  0  0  0  0  0
  153.3939  138.1034  162.2445 H   0  0  0  0  0  0  0  0  0  0  0  0
  154.3358  136.2478  160.8257 H   0  0  0  0  0  0  0  0  0  0  0  0
  155.8661  136.3871  161.6677 H   0  0  0  0  0  0  0  0  0  0  0  0
  154.0515  133.4772  162.8972 H   0  0  0  0  0  0  0  0  0  0  0  0
  155.1159  133.9916  161.5993 H   0  0  0  0  0  0  0  0  0  0  0  0
  155.8526  133.2062  164.2729 H   0  0  0  0  0  0  0  0  0  0  0  0
  156.9534  133.8911  163.0844 H   0  0  0  0  0  0  0  0  0  0  0  0
  156.2844  135.2134  165.4574 H   0  0  0  0  0  0  0  0  0  0  0  0
  156.8037  136.0333  163.9865 H   0  0  0  0  0  0  0  0  0  0  0  0
  153.9743  135.4202  164.8646 H   0  0  0  0  0  0  0  0  0  0  0  0
  153.4463  137.7240  164.5552 H   0  0  0  0  0  0  0  0  0  0  0  0
  154.9727  137.7259  165.4059 H   0  0  0  0  0  0  0  0  0  0  0  0
  152.2656  140.4585  159.0711 H   0  0  0  0  0  0  0  0  0  0  0  0
  153.6078  143.6895  160.3941 H   0  0  0  0  0  0  0  0  0  0  0  0
  152.6002  145.8731  159.8131 H   0  0  0  0  0  0  0  0  0  0  0  0
  150.6015  145.9126  158.2130 H   0  0  0  0  0  0  0  0  0  0  0  0
  149.0025  140.6500  158.9659 H   0  0  0  0  0  0  0  0  0  0  0  0
  148.6397  142.2613  158.3474 H   0  0  0  0  0  0  0  0  0  0  0  0
  148.4612  139.6066  156.9156 H   0  0  0  0  0  0  0  0  0  0  0  0
  147.3428  140.9684  156.8112 H   0  0  0  0  0  0  0  0  0  0  0  0
  149.1367  140.6069  154.8138 H   0  0  0  0  0  0  0  0  0  0  0  0
  148.9164  142.2350  155.4632 H   0  0  0  0  0  0  0  0  0  0  0  0
  151.2847  141.9297  155.7568 H   0  0  0  0  0  0  0  0  0  0  0  0
  151.0913  140.2425  156.1791 H   0  0  0  0  0  0  0  0  0  0  0  0
  153.2781  135.5349  162.7376 H   0  0  0  0  0  0  0  0  0  0  0  0
  149.8080  143.9171  157.3763 H   0  0  0  0  0  0  0  0  0  0  0  0
  1  2  2  0  0  0  0
  2  3  1  0  0  0  0
  2 14  1  0  0  0  0
  3  4  1  0  0  0  0
  3 26  1  0  0  0  0
  4  5  1  0  0  0  0
  4 27  1  0  0  0  0
  4 28  1  0  0  0  0
  5 13  1  0  0  0  0
  5  6  1  0  0  0  0
  5 29  1  0  0  0  0
  6  7  1  0  0  0  0
  6 30  1  0  0  0  0
  6 31  1  0  0  0  0
  7 11  1  0  0  0  0
  7  8  1  0  0  0  0
  7 53  1  0  0  0  0
  8  9  1  0  0  0  0
  8 32  1  0  0  0  0
  8 33  1  0  0  0  0
  9 10  1  0  0  0  0
  9 34  1  0  0  0  0
  9 35  1  0  0  0  0
 10 11  1  0  0  0  0
 10 36  1  0  0  0  0
 10 37  1  0  0  0  0
 11 12  1  0  0  0  0
 11 38  1  0  0  0  0
 12 13  1  0  0  0  0
 12 39  1  0  0  0  0
 12 40  1  0  0  0  0
 14 15  1  0  0  0  0
 14 41  1  0  0  0  0
 15 20  1  0  0  0  0
 15 16  2  0  0  0  0
 16 17  1  0  0  0  0
 16 42  1  0  0  0  0
 17 18  2  0  0  0  0
 17 43  1  0  0  0  0
 18 19  1  0  0  0  0
 18 44  1  0  0  0  0
 19 20  2  0  0  0  0
 19 54  1  0  0  0  0
 20 21  1  0  0  0  0
 21 25  1  0  0  0  0
 21 22  1  0  0  0  0
 22 23  1  0  0  0  0
 22 45  1  0  0  0  0
 22 46  1  0  0  0  0
 23 24  1  0  0  0  0
 23 47  1  0  0  0  0
 23 48  1  0  0  0  0
 24 25  1  0  0  0  0
 24 49  1  0  0  0  0
 24 50  1  0  0  0  0
 25 51  1  0  0  0  0
 25 52  1  0  0  0  0
M  CHG  1   7   1
M  CHG  1  19   1
M  END
> <s_m_source_file>
AV-unprocessed.smi

> <i_m_source_file_index>
1830

> <i_lp_mmshare_version>
43012

> <i_f3d_flags>
0

> <s_epik_input>
W0NIMl0xW0NIMl1bQ0gyXVtDQEhdKE4xMilbQ0gyXU9bQ0BASF0oW0NIMl0yKVtDSDJdW05IXUMoPU8pW05IXWMzW2NIXVtjSF1bY0hdbmMzTjRbQ0gyXVtDSDJdW0NIMl1bQ0gyXTQ=

> <s_epik_cmdline>
J2VwaWtfcHl0aG9uJywgJy1waCcsICc3LjAnLCAnLXRuJywgJzgnLCAnLW1hJywgJzIwMCcsICctbWV0YWxfYmluZGluZycsICctaW1hZScsICc8aW5maWxlLm1hZT4nLCAnLW9tYWUnLCAnPG91dGZpbGUubWFlPic=

> <r_lp_tautomer_probability>
0.999994

> <r_epik_Ionization_Penalty>
1.29113

> <r_epik_Ionization_Penalty_Charging>
1.29111

> <r_epik_Ionization_Penalty_Neutral>
1.88144e-05

> <r_epik_State_Penalty>
1.32676

> <r_epik_Charging_Adjusted_Penalty>
2.61787

> <i_epik_Tot_Q>
2

> <i_epik_Tot_abs_Q>
2

> <r_epik_Metal_State_Penalty>
1.40425

> <b_epik_Metal_Only>
0

> <s_lp_Force_Field>
OPLS_2005

> <r_lp_Energy>
75.2676

> <b_lp_Chiralities_Consistent>
1

> <s_lp_Variant>
AV-unprocessed.smi:1830-16

> <Gold.Version>
5.8.1

> <Gold.Id.Protein>
6NUR|6NUR_protein|mol2

> <Gold.PLP.Fitness>
48.9982

> <Gold.PLP.PLP>
-44.3939

> <Gold.PLP.part.hbond>
-2.0000

> <Gold.PLP.part.metal>
0.0000

> <Gold.PLP.part.buried>
-6.3950

> <Gold.PLP.part.nonpolar>
-35.9661

> <Gold.PLP.part.repulsive>
0.2830

> <Gold.PLP.ligand.clash>
0.0000

> <Gold.PLP.ligand.torsion>
0.7897

> <Gold.PLP.Chemscore.Hbond>
2.0000

> <Gold.PLP.Chemscore.CHOScore>
0.0000

> <Gold.PLP.Chemscore.Metal>
0.0000

> <Gold.Chemscore.Hbonds>
donor molecule, donor type, donor heavy atom, donor atom, acceptor molecule, acceptor atom, score
      L1  H    19    54       P1  8028  1.72

> <Gold.PLP.Chemscore.Internal.Correction>
0.1838

> <Gold.Rescore>
     Score         DG    S(hbond)    S(metal)    S(lipo)     H(rot)  DE(clash)    DE(int)     intcor
     15.80     -19.17       0.98        0.00     120.29       1.43       1.02       2.35       ----

> <Gold.Chemscore.Fitness>
15.8033

> <Gold.Chemscore.DG>
-19.1736

> <Gold.Chemscore.ZeroCoef>
-5.4800

> <Gold.Chemscore.Hbond>
0.9804

> <Gold.Chemscore.Metal>
0.0000

> <Gold.Chemscore.Lipo>
120.2903

> <Gold.Chemscore.Internal_Hbond>
0.0000

> <Gold.Chemscore.DEClash>
1.0241

> <Gold.Chemscore.DEInternal>
2.3462

> <Gold.Chemscore.Rot>
1.4278

> <Gold.Chemscore.Internal.Correction>
   9.000000E+99

> <Gold.Chemscore.Hbonds>
donor molecule, donor type, donor heavy atom, donor atom, acceptor molecule, acceptor atom, score
      L1  H    19    54       P1  8028  0.52

> <Gold.Chemscore.Hbond.Weighted>
-3.2747

> <Gold.Chemscore.Metal.Weighted>
-0.0000

> <Gold.Chemscore.Lipo.Weighted>
-14.0740

> <Gold.Chemscore.Internal_Hbond.Weighted>
0.0000

> <Gold.Chemscore.DEClash.Weighted>
1.0241

> <Gold.Chemscore.DEInternal.Weighted>
2.3462

> <Gold.Chemscore.Rot.Weighted>
3.6551

> <Gold.Chemscore.Internal.Correction.Weighted>
   9.000000E+99

> <Gold.Protein.RotatedTorsions>
[ 6907 6896 6895 6894 ] final   35.08 input  -60.11 | X-H torsion
[ 7974 7965 7964 7962 ] final -148.53 input  175.53 | X-H torsion
[ 8008 7997 7996 7995 ] final -101.68 input   59.86 | X-H torsion
[ 10167 10162 10161 10158 ] final   67.88 input  -65.29 | X-H torsion
[ 10718 10713 10712 10709 ] final -145.15 input   66.30 | X-H torsion
[ 10763 10752 10751 10750 ] final   92.34 input  -60.55 | X-H torsion
[ 11005 11000 10999 10996 ] final  -69.47 input  -57.11 | X-H torsion

> <Gold.Protein.ActiveResidues>
 VAL166  LYS551  ARG553  GLY616  TRP617  ASP618  TYR619  PRO620  LYS621  CYS622 
 ASP623  PHE694  ASN695  SER759  ASP760  ASP761  ALA762  ILE779  LEU786  VAL792 
 PHE793  MET794  SER795  GLU796  ALA797  LYS798  CYS799  TRP800  GLU811  SER814 

> <Gold.Protein.RotatedAtoms>
  152.1112  134.9273  160.0566 H   0  0  0  0  0  0  0  0  0  0  0  0  # atno 6907 bound_to 6896
  152.0449  133.3989  159.4361 H   0  0  0  0  0  0  0  0  0  0  0  0  # atno 6908 bound_to 6896
  150.6843  134.3293  159.4864 H   0  0  0  0  0  0  0  0  0  0  0  0  # atno 6909 bound_to 6896
  144.8023  140.5184  143.5698 H   0  0  0  0  0  0  0  0  0  0  0  0  # atno 7974 bound_to 7965
  154.8460  140.0433  157.1573 H   0  0  0  0  0  0  0  0  0  0  0  0  # atno 8008 bound_to 7997
  154.8994  140.2998  155.5305 H   0  0  0  0  0  0  0  0  0  0  0  0  # atno 8009 bound_to 7997
  156.2994  140.2378  156.4020 H   0  0  0  0  0  0  0  0  0  0  0  0  # atno 8010 bound_to 7997
  140.0847  144.5040  150.7138 H   0  0  0  0  0  0  0  0  0  0  0  0  # atno 10167 bound_to 10162
  156.3789  130.7827  151.2016 H   0  0  0  0  0  0  0  0  0  0  0  0  # atno 10718 bound_to 10713
  153.2181  135.4365  155.0457 H   0  0  0  0  0  0  0  0  0  0  0  0  # atno 10763 bound_to 10752
  154.8235  135.3349  154.6969 H   0  0  0  0  0  0  0  0  0  0  0  0  # atno 10764 bound_to 10752
  153.7402  135.7005  153.5024 H   0  0  0  0  0  0  0  0  0  0  0  0  # atno 10765 bound_to 10752
  141.1554  133.6765  156.6604 H   0  0  0  0  0  0  0  0  0  0  0  0  # atno 11005 bound_to 11000
  145.5522  139.1477  143.3388 LP  0  0  0  0  0  0  0  0  0  0  0  0  # atno 17320 bound_to 7965
  146.2308  140.5660  142.8976 LP  0  0  0  0  0  0  0  0  0  0  0  0  # atno 17321 bound_to 7965
  140.7059  143.2468  151.4726 LP  0  0  0  0  0  0  0  0  0  0  0  0  # atno 17342 bound_to 10162
  139.5759  144.1820  152.1902 LP  0  0  0  0  0  0  0  0  0  0  0  0  # atno 17343 bound_to 10162
  157.7490  131.0350  150.4343 LP  0  0  0  0  0  0  0  0  0  0  0  0  # atno 17370 bound_to 10713
  156.4583  130.4026  149.6592 LP  0  0  0  0  0  0  0  0  0  0  0  0  # atno 17371 bound_to 10713
  140.3252  134.7975  157.4283 LP  0  0  0  0  0  0  0  0  0  0  0  0  # atno 17394 bound_to 11000
  140.1063  134.5405  155.8306 LP  0  0  0  0  0  0  0  0  0  0  0  0  # atno 17395 bound_to 11000

$$$$
