AV-unprocessed.smi:3335|AV-procd|sdf|12839|dock10
  -GOLD-   2272019223D 1   1.00000     0.00000
 Structure written by MMmdl.
 47 48  0  0  0  0  0  0  0  0  2 V2000
  152.9884  144.1757  158.6439 C   0  0  0  0  0  0  0  0  0  0  0  0
  152.1087  143.0057  158.3105 C   0  0  0  0  0  0  0  0  0  0  0  0
  152.1481  141.6958  158.8662 C   0  0  0  0  0  0  0  0  0  0  0  0
  151.2356  140.8912  158.3474 N   0  0  0  0  0  0  0  0  0  0  0  0
  150.5749  141.6573  157.4502 N   0  0  0  0  0  0  0  0  0  0  0  0
  149.4941  141.0898  156.6530 C   0  0  2  0  0  0  0  0  0  0  0  0
  149.2364  139.6343  157.0918 C   0  0  0  0  0  0  0  0  0  0  0  0
  149.7657  141.2372  155.1280 C   0  0  1  0  0  0  0  0  0  0  0  0
  149.6749  139.8958  154.3810 C   0  0  0  0  0  0  0  0  0  0  0  0
  148.8008  142.1756  154.4984 N   0  3  0  0  0  0  0  0  0  0  0  0
  147.3653  141.8125  154.5852 C   0  0  2  0  0  0  0  0  0  0  0  0
  147.0033  140.8752  153.4234 C   0  0  0  0  0  0  0  0  0  0  0  0
  146.4606  143.0602  154.5592 C   0  0  0  0  0  0  0  0  0  0  0  0
  146.4524  143.7653  153.5487 O   0  0  0  0  0  0  0  0  0  0  0  0
  145.6959  143.3442  155.6356 N   0  0  0  0  0  0  0  0  0  0  0  0
  145.6210  142.5698  156.8750 C   0  0  0  0  0  0  0  0  0  0  0  0
  144.4578  143.1650  157.6681 C   0  0  0  0  0  0  0  0  0  0  0  0
  144.3592  144.5973  157.1636 C   0  0  0  0  0  0  0  0  0  0  0  0
  144.8187  144.5117  155.7082 C   0  0  0  0  0  0  0  0  0  0  0  0
  151.0834  142.9392  157.4101 C   0  0  0  0  0  0  0  0  0  0  0  0
  153.8290  143.8846  159.2743 H   0  0  0  0  0  0  0  0  0  0  0  0
  152.4392  144.9509  159.1783 H   0  0  0  0  0  0  0  0  0  0  0  0
  153.4043  144.6353  157.7471 H   0  0  0  0  0  0  0  0  0  0  0  0
  152.8130  141.3065  159.6233 H   0  0  0  0  0  0  0  0  0  0  0  0
  148.5938  141.6584  156.8918 H   0  0  0  0  0  0  0  0  0  0  0  0
  148.3088  139.2450  156.6728 H   0  0  0  0  0  0  0  0  0  0  0  0
  149.1458  139.5637  158.1765 H   0  0  0  0  0  0  0  0  0  0  0  0
  150.0464  138.9723  156.7836 H   0  0  0  0  0  0  0  0  0  0  0  0
  150.7806  141.6101  154.9826 H   0  0  0  0  0  0  0  0  0  0  0  0
  150.4541  139.2029  154.6979 H   0  0  0  0  0  0  0  0  0  0  0  0
  149.8009  140.0385  153.3071 H   0  0  0  0  0  0  0  0  0  0  0  0
  148.7097  139.4140  154.5408 H   0  0  0  0  0  0  0  0  0  0  0  0
  148.9014  143.0737  154.9499 H   0  0  0  0  0  0  0  0  0  0  0  0
  147.2173  141.2604  155.5083 H   0  0  0  0  0  0  0  0  0  0  0  0
  145.9571  140.5705  153.4676 H   0  0  0  0  0  0  0  0  0  0  0  0
  147.6069  139.9674  153.4539 H   0  0  0  0  0  0  0  0  0  0  0  0
  147.1696  141.3514  152.4560 H   0  0  0  0  0  0  0  0  0  0  0  0
  145.4648  141.5058  156.6934 H   0  0  0  0  0  0  0  0  0  0  0  0
  146.5545  142.6897  157.4268 H   0  0  0  0  0  0  0  0  0  0  0  0
  143.5384  142.6295  157.4274 H   0  0  0  0  0  0  0  0  0  0  0  0
  144.6065  143.1052  158.7466 H   0  0  0  0  0  0  0  0  0  0  0  0
  143.3574  145.0152  157.2673 H   0  0  0  0  0  0  0  0  0  0  0  0
  145.0456  145.2304  157.7274 H   0  0  0  0  0  0  0  0  0  0  0  0
  145.3248  145.4277  155.3991 H   0  0  0  0  0  0  0  0  0  0  0  0
  143.9658  144.3560  155.0459 H   0  0  0  0  0  0  0  0  0  0  0  0
  150.6821  143.6911  156.7465 H   0  0  0  0  0  0  0  0  0  0  0  0
  149.0547  142.2789  153.5267 H   0  0  0  0  0  0  0  0  0  0  0  0
  1  2  1  0  0  0  0
  1 21  1  0  0  0  0
  1 22  1  0  0  0  0
  1 23  1  0  0  0  0
  2 20  2  0  0  0  0
  2  3  1  0  0  0  0
  3  4  2  0  0  0  0
  3 24  1  0  0  0  0
  4  5  1  0  0  0  0
  5  6  1  0  0  0  0
  5 20  1  0  0  0  0
  6  7  1  0  0  0  0
  6  8  1  0  0  0  0
  6 25  1  0  0  0  0
  7 26  1  0  0  0  0
  7 27  1  0  0  0  0
  7 28  1  0  0  0  0
  8  9  1  0  0  0  0
  8 10  1  0  0  0  0
  8 29  1  0  0  0  0
  9 30  1  0  0  0  0
  9 31  1  0  0  0  0
  9 32  1  0  0  0  0
 10 11  1  0  0  0  0
 10 33  1  0  0  0  0
 10 47  1  0  0  0  0
 11 12  1  0  0  0  0
 11 13  1  0  0  0  0
 11 34  1  0  0  0  0
 12 35  1  0  0  0  0
 12 36  1  0  0  0  0
 12 37  1  0  0  0  0
 13 14  2  0  0  0  0
 13 15  1  0  0  0  0
 15 19  1  0  0  0  0
 15 16  1  0  0  0  0
 16 17  1  0  0  0  0
 16 38  1  0  0  0  0
 16 39  1  0  0  0  0
 17 18  1  0  0  0  0
 17 40  1  0  0  0  0
 17 41  1  0  0  0  0
 18 19  1  0  0  0  0
 18 42  1  0  0  0  0
 18 43  1  0  0  0  0
 19 44  1  0  0  0  0
 19 45  1  0  0  0  0
 20 46  1  0  0  0  0
M  CHG  1  10   1
M  END
> <s_m_source_file>
AV-unprocessed.smi

> <i_m_source_file_index>
3335

> <i_lp_mmshare_version>
43012

> <i_f3d_flags>
0

> <s_epik_input>
W0NIM11jMVtjSF1ubihbY0hdMSlbQ0BIXShbQ0gzXSlbQ0BIXShbQ0gzXSlbTkhdW0NASF0oW0NIM10pQyg9TylOMltDSDJdW0NIMl1bQ0gyXVtDSDJdMg==

> <s_epik_cmdline>
J2VwaWtfcHl0aG9uJywgJy1waCcsICc3LjAnLCAnLXRuJywgJzgnLCAnLW1hJywgJzIwMCcsICctbWV0YWxfYmluZGluZycsICctaW1hZScsICc8aW5maWxlLm1hZT4nLCAnLW9tYWUnLCAnPG91dGZpbGUubWFlPic=

> <r_lp_tautomer_probability>
1

> <r_epik_Ionization_Penalty>
0.14175

> <r_epik_Ionization_Penalty_Charging>
0.141731

> <r_epik_Ionization_Penalty_Neutral>
1.91261e-05

> <r_epik_State_Penalty>
0.131043

> <r_epik_Charging_Adjusted_Penalty>
0.272773

> <i_epik_Tot_Q>
1

> <i_epik_Tot_abs_Q>
1

> <r_epik_Metal_State_Penalty>
0.131408

> <b_epik_Metal_Only>
0

> <s_lp_Force_Field>
OPLS_2005

> <r_lp_Energy>
35.8146

> <b_lp_Chiralities_Consistent>
1

> <s_lp_Variant>
AV-unprocessed.smi:3335-3

> <Gold.Version>
5.8.1

> <Gold.Id.Protein>
6NUR|6NUR_protein|mol2

> <Gold.PLP.Fitness>
41.6192

> <Gold.PLP.PLP>
-36.1731

> <Gold.PLP.part.hbond>
-2.0000

> <Gold.PLP.part.metal>
0.0000

> <Gold.PLP.part.buried>
-1.5000

> <Gold.PLP.part.nonpolar>
-33.2568

> <Gold.PLP.part.repulsive>
1.7625

> <Gold.PLP.ligand.clash>
0.0000

> <Gold.PLP.ligand.torsion>
1.8300

> <Gold.PLP.Chemscore.Hbond>
2.0000

> <Gold.PLP.Chemscore.CHOScore>
1.0000

> <Gold.PLP.Chemscore.Metal>
0.0000

> <Gold.Chemscore.Hbonds>
donor molecule, donor type, donor heavy atom, donor atom, acceptor molecule, acceptor atom, score
      L1  H    10    33       P1  8028  2.00
      L1  C    20    46       P1  8028  1.00

> <Gold.PLP.Chemscore.Internal.Correction>
0.1061

> <Gold.Rescore>
     Score         DG    S(hbond)    S(metal)    S(lipo)     H(rot)  DE(clash)    DE(int)     intcor
     12.16     -14.79       1.00        0.00      87.74       1.68       0.34       2.29       ----

> <Gold.Chemscore.Fitness>
12.1640

> <Gold.Chemscore.DG>
-14.7900

> <Gold.Chemscore.ZeroCoef>
-5.4800

> <Gold.Chemscore.Hbond>
0.9999

> <Gold.Chemscore.Metal>
0.0000

> <Gold.Chemscore.Lipo>
87.7381

> <Gold.Chemscore.Internal_Hbond>
0.0000

> <Gold.Chemscore.DEClash>
0.3354

> <Gold.Chemscore.DEInternal>
2.2906

> <Gold.Chemscore.Rot>
1.6778

> <Gold.Chemscore.Internal.Correction>
   9.000000E+99

> <Gold.Chemscore.Hbonds>
donor molecule, donor type, donor heavy atom, donor atom, acceptor molecule, acceptor atom, score
      L1  H    10    33       P1  8028  1.00
      P1  H  8022  8030       L1    14  0.01

> <Gold.Chemscore.Hbond.Weighted>
-3.3398

> <Gold.Chemscore.Metal.Weighted>
-0.0000

> <Gold.Chemscore.Lipo.Weighted>
-10.2654

> <Gold.Chemscore.Internal_Hbond.Weighted>
0.0000

> <Gold.Chemscore.DEClash.Weighted>
0.3354

> <Gold.Chemscore.DEInternal.Weighted>
2.2906

> <Gold.Chemscore.Rot.Weighted>
4.2952

> <Gold.Chemscore.Internal.Correction.Weighted>
   9.000000E+99

> <Gold.Protein.RotatedTorsions>
[ 6907 6896 6895 6894 ] final -161.47 input  -60.11 | X-H torsion
[ 7974 7965 7964 7962 ] final -179.77 input  175.53 | X-H torsion
[ 8008 7997 7996 7995 ] final   -6.89 input   59.86 | X-H torsion
[ 10167 10162 10161 10158 ] final  -57.49 input  -65.29 | X-H torsion
[ 10718 10713 10712 10709 ] final -143.63 input   66.30 | X-H torsion
[ 10763 10752 10751 10750 ] final   15.51 input  -60.55 | X-H torsion
[ 11005 11000 10999 10996 ] final  -68.54 input  -57.11 | X-H torsion

> <Gold.Protein.ActiveResidues>
 VAL166  LYS551  ARG553  GLY616  TRP617  ASP618  TYR619  PRO620  LYS621  CYS622 
 ASP623  PHE694  ASN695  SER759  ASP760  ASP761  ALA762  ILE779  LEU786  VAL792 
 PHE793  MET794  SER795  GLU796  ALA797  LYS798  CYS799  TRP800  GLU811  SER814 

> <Gold.Protein.RotatedAtoms>
  151.3651  133.3875  159.2693 H   0  0  0  0  0  0  0  0  0  0  0  0  # atno 6907 bound_to 6896
  150.9695  134.9071  159.7790 H   0  0  0  0  0  0  0  0  0  0  0  0  # atno 6908 bound_to 6896
  152.5179  134.3613  159.9338 H   0  0  0  0  0  0  0  0  0  0  0  0  # atno 6909 bound_to 6896
  144.7139  140.0667  143.6431 H   0  0  0  0  0  0  0  0  0  0  0  0  # atno 7974 bound_to 7965
  154.5892  140.2421  155.7944 H   0  0  0  0  0  0  0  0  0  0  0  0  # atno 8008 bound_to 7997
  156.2235  140.2990  155.9964 H   0  0  0  0  0  0  0  0  0  0  0  0  # atno 8009 bound_to 7997
  155.2404  140.0407  157.2964 H   0  0  0  0  0  0  0  0  0  0  0  0  # atno 8010 bound_to 7997
  140.6255  143.2436  151.5374 H   0  0  0  0  0  0  0  0  0  0  0  0  # atno 10167 bound_to 10162
  156.3602  130.7734  151.1901 H   0  0  0  0  0  0  0  0  0  0  0  0  # atno 10718 bound_to 10713
  153.1518  135.6780  153.8870 H   0  0  0  0  0  0  0  0  0  0  0  0  # atno 10763 bound_to 10752
  153.8294  135.3119  155.3418 H   0  0  0  0  0  0  0  0  0  0  0  0  # atno 10764 bound_to 10752
  154.7868  135.4857  154.0050 H   0  0  0  0  0  0  0  0  0  0  0  0  # atno 10765 bound_to 10752
  141.1534  133.6743  156.6461 H   0  0  0  0  0  0  0  0  0  0  0  0  # atno 11005 bound_to 11000
  145.9818  139.2947  143.1037 LP  0  0  0  0  0  0  0  0  0  0  0  0  # atno 17320 bound_to 7965
  145.9002  140.9248  143.0507 LP  0  0  0  0  0  0  0  0  0  0  0  0  # atno 17321 bound_to 7965
  139.5476  144.2480  152.1471 LP  0  0  0  0  0  0  0  0  0  0  0  0  # atno 17342 bound_to 10162
  140.1710  144.4935  150.6579 LP  0  0  0  0  0  0  0  0  0  0  0  0  # atno 17343 bound_to 10162
  157.7472  131.0402  150.4587 LP  0  0  0  0  0  0  0  0  0  0  0  0  # atno 17370 bound_to 10713
  156.4796  130.4071  149.6469 LP  0  0  0  0  0  0  0  0  0  0  0  0  # atno 17371 bound_to 10713
  140.3356  134.7892  157.4359 LP  0  0  0  0  0  0  0  0  0  0  0  0  # atno 17394 bound_to 11000
  140.0981  134.5510  155.8379 LP  0  0  0  0  0  0  0  0  0  0  0  0  # atno 17395 bound_to 11000

$$$$
