AV-unprocessed.smi:1|AV-procd|sdf|22|dock2
  -GOLD-   2262015123D 1   1.00000     0.00000
 Structure written by MMmdl.
 56 61  0  0  0  0  0  0  0  0  2 V2000
  153.7095  140.1302  160.3832 O   0  0  0  0  0  0  0  0  0  0  0  0
  153.2512  140.7847  159.4443 C   0  0  0  0  0  0  0  0  0  0  0  0
  153.1128  140.4013  158.1499 N   0  5  0  0  0  0  0  0  0  0  0  0
  151.9579  139.8665  157.7251 C   0  0  0  0  0  0  0  0  0  0  0  0
  151.0436  140.6351  157.0806 N   0  0  0  0  0  0  0  0  0  0  0  0
  149.8815  140.1084  156.6777 C   0  0  0  0  0  0  0  0  0  0  0  0
  149.4312  138.8583  156.8205 N   0  0  0  0  0  0  0  0  0  0  0  0
  150.3416  138.0738  157.4684 C   0  0  0  0  0  0  0  0  0  0  0  0
  151.6132  138.5049  157.9474 C   0  0  0  0  0  0  0  0  0  0  0  0
  152.2877  137.4610  158.5635 N   0  0  0  0  0  0  0  0  0  0  0  0
  151.4174  136.4631  158.4300 C   0  0  0  0  0  0  0  0  0  0  0  0
  150.2541  136.7314  157.8048 N   0  0  0  0  0  0  0  0  0  0  0  0
  149.1327  135.7790  157.5392 C   0  0  1  0  0  0  0  0  0  0  0  0
  149.5037  134.5144  157.9896 O   0  0  0  0  0  0  0  0  0  0  0  0
  148.3345  133.8128  158.3793 C   0  0  1  0  0  0  0  0  0  0  0  0
  148.6842  132.6159  159.2731 C   0  0  0  0  0  0  0  0  0  0  0  0
  149.1661  131.5559  158.4582 O   0  0  0  0  0  0  0  0  0  0  0  0
  150.3592  131.6431  157.8326 C   0  0  0  0  0  0  0  0  0  0  0  0
  151.2634  132.4059  158.1784 O   0  0  0  0  0  0  0  0  0  0  0  0
  150.4689  130.7161  156.6690 C   0  0  0  0  0  0  0  0  0  0  0  0
  149.2958  130.1367  156.1314 C   0  0  0  0  0  0  0  0  0  0  0  0
  149.3673  129.2598  155.0315 C   0  0  0  0  0  0  0  0  0  0  0  0
  150.6131  128.9530  154.4541 C   0  0  0  0  0  0  0  0  0  0  0  0
  151.7874  129.5234  154.9787 C   0  0  0  0  0  0  0  0  0  0  0  0
  151.7180  130.3994  156.0797 C   0  0  0  0  0  0  0  0  0  0  0  0
  147.4670  134.8896  159.0351 C   0  0  1  0  0  0  0  0  0  0  0  0
  147.7979  135.0654  160.4016 O   0  0  0  0  0  0  0  0  0  0  0  0
  147.7958  136.7001  160.7307 S   0  0  0  0  0  0  0  0  0  0  0  0
  146.4420  137.0736  161.1685 O   0  0  0  0  0  0  0  0  0  0  0  0
  148.9960  137.0262  161.5149 O   0  0  0  0  0  0  0  0  0  0  0  0
  148.0043  137.2569  159.1702 O   0  0  0  0  0  0  0  0  0  0  0  0
  147.8323  136.1720  158.2679 C   0  0  1  0  0  0  0  0  0  0  0  0
  152.8343  142.2111  159.6882 C   0  0  0  0  0  0  0  0  0  0  0  0
  152.6989  142.6852  161.0132 C   0  0  0  0  0  0  0  0  0  0  0  0
  152.2862  144.0088  161.2622 C   0  0  0  0  0  0  0  0  0  0  0  0
  151.9956  144.8710  160.1885 C   0  0  0  0  0  0  0  0  0  0  0  0
  152.1128  144.4066  158.8652 C   0  0  0  0  0  0  0  0  0  0  0  0
  152.5253  143.0831  158.6154 C   0  0  0  0  0  0  0  0  0  0  0  0
  149.2132  140.7887  156.1711 H   0  0  0  0  0  0  0  0  0  0  0  0
  151.6391  135.4762  158.8090 H   0  0  0  0  0  0  0  0  0  0  0  0
  149.0220  135.7696  156.4539 H   0  0  0  0  0  0  0  0  0  0  0  0
  147.8450  133.4621  157.4688 H   0  0  0  0  0  0  0  0  0  0  0  0
  149.4674  132.8931  159.9790 H   0  0  0  0  0  0  0  0  0  0  0  0
  147.8134  132.3303  159.8646 H   0  0  0  0  0  0  0  0  0  0  0  0
  148.3277  130.3573  156.5577 H   0  0  0  0  0  0  0  0  0  0  0  0
  148.4647  128.8223  154.6308 H   0  0  0  0  0  0  0  0  0  0  0  0
  150.6678  128.2814  153.6102 H   0  0  0  0  0  0  0  0  0  0  0  0
  152.7444  129.2890  154.5360 H   0  0  0  0  0  0  0  0  0  0  0  0
  152.6386  130.8210  156.4557 H   0  0  0  0  0  0  0  0  0  0  0  0
  146.4045  134.6550  158.9626 H   0  0  0  0  0  0  0  0  0  0  0  0
  147.0759  136.4193  157.5226 H   0  0  0  0  0  0  0  0  0  0  0  0
  152.9168  142.0361  161.8490 H   0  0  0  0  0  0  0  0  0  0  0  0
  152.1924  144.3621  162.2784 H   0  0  0  0  0  0  0  0  0  0  0  0
  151.6792  145.8857  160.3794 H   0  0  0  0  0  0  0  0  0  0  0  0
  151.8838  145.0643  158.0399 H   0  0  0  0  0  0  0  0  0  0  0  0
  152.5988  142.7439  157.5921 H   0  0  0  0  0  0  0  0  0  0  0  0
  1  2  2  0  0  0  0
  2  3  1  0  0  0  0
  2 33  1  0  0  0  0
  3  4  1  0  0  0  0
  4  9  1  0  0  0  0
  4  5  2  0  0  0  0
  5  6  1  0  0  0  0
  6  7  2  0  0  0  0
  6 39  1  0  0  0  0
  7  8  1  0  0  0  0
  8 12  1  0  0  0  0
  8  9  2  0  0  0  0
  9 10  1  0  0  0  0
 10 11  2  0  0  0  0
 11 12  1  0  0  0  0
 11 40  1  0  0  0  0
 12 13  1  0  0  0  0
 13 32  1  0  0  0  0
 13 14  1  0  0  0  0
 13 41  1  0  0  0  0
 14 15  1  0  0  0  0
 15 16  1  0  0  0  0
 15 26  1  0  0  0  0
 15 42  1  0  0  0  0
 16 17  1  0  0  0  0
 16 43  1  0  0  0  0
 16 44  1  0  0  0  0
 17 18  1  0  0  0  0
 18 19  2  0  0  0  0
 18 20  1  0  0  0  0
 20 25  1  0  0  0  0
 20 21  2  0  0  0  0
 21 22  1  0  0  0  0
 21 45  1  0  0  0  0
 22 23  2  0  0  0  0
 22 46  1  0  0  0  0
 23 24  1  0  0  0  0
 23 47  1  0  0  0  0
 24 25  2  0  0  0  0
 24 48  1  0  0  0  0
 25 49  1  0  0  0  0
 26 32  1  0  0  0  0
 26 27  1  0  0  0  0
 26 50  1  0  0  0  0
 27 28  1  0  0  0  0
 28 29  2  0  0  0  0
 28 30  2  0  0  0  0
 28 31  1  0  0  0  0
 31 32  1  0  0  0  0
 32 51  1  0  0  0  0
 33 38  1  0  0  0  0
 33 34  2  0  0  0  0
 34 35  1  0  0  0  0
 34 52  1  0  0  0  0
 35 36  2  0  0  0  0
 35 53  1  0  0  0  0
 36 37  1  0  0  0  0
 36 54  1  0  0  0  0
 37 38  2  0  0  0  0
 37 55  1  0  0  0  0
 38 56  1  0  0  0  0
M  CHG  1   3  -1
M  END
> <s_m_source_file>
AV-unprocessed.smi

> <i_m_source_file_index>
1

> <i_lp_mmshare_version>
43012

> <i_f3d_flags>
0

> <s_epik_input>
W2NIXTFbY0hdW2NIXVtjSF1bY0hdYzFDKD1PKVtOSF1jKG5bY0hdbjIpYyhjMjMpbltjSF1uM1tDQEBIXShbQ0BIXShbQ0BIXTQ1KU9TKE81KSg9Tyk9TylPW0NASF00W0NIMl1PQyg9TyljNltjSF1bY0hdW2NIXVtjSF1bY0hdNg==

> <s_epik_cmdline>
J2VwaWtfcHl0aG9uJywgJy1waCcsICc3LjAnLCAnLXRuJywgJzgnLCAnLW1hJywgJzIwMCcsICctbWV0YWxfYmluZGluZycsICctaW1hZScsICc8aW5maWxlLm1hZT4nLCAnLW9tYWUnLCAnPG91dGZpbGUubWFlPic=

> <r_lp_tautomer_probability>
1

> <r_epik_Ionization_Penalty>
4.39121

> <r_epik_Ionization_Penalty_Charging>
3.39398

> <r_epik_Ionization_Penalty_Neutral>
0.997232

> <r_epik_State_Penalty>
3.39839

> <r_epik_Charging_Adjusted_Penalty>
6.79237

> <i_epik_Tot_Q>
-1

> <i_epik_Tot_abs_Q>
1

> <r_epik_Metal_State_Penalty>
0.497663

> <b_epik_Metal_Only>
1

> <s_epik_Chemistry_Notes>
This compound has an ester and may undergo hydrolysis at high or low pH. This compound contains an acetal/aminal-like group ( X-CH(R)-Y where X, Y are N, S, or O) that may be acid/base labile, releasing an aldehyde.

> <s_lp_Force_Field>
OPLS_2005

> <r_lp_Energy>
46.5931

> <b_lp_Chiralities_Consistent>
1

> <s_lp_Variant>
AV-unprocessed.smi:1-22

> <Gold.Version>
5.8.1

> <Gold.Id.Protein>
6NUR|6NUR_protein|mol2

> <Gold.PLP.Fitness>
55.6574

> <Gold.PLP.PLP>
-46.3799

> <Gold.PLP.part.hbond>
-3.9326

> <Gold.PLP.part.metal>
0.0000

> <Gold.PLP.part.buried>
-0.6871

> <Gold.PLP.part.nonpolar>
-41.6300

> <Gold.PLP.part.repulsive>
0.0052

> <Gold.PLP.ligand.clash>
0.0000

> <Gold.PLP.ligand.torsion>
2.1301

> <Gold.PLP.Chemscore.Hbond>
4.1450

> <Gold.PLP.Chemscore.CHOScore>
0.0000

> <Gold.PLP.Chemscore.Metal>
0.0000

> <Gold.Chemscore.Hbonds>
donor molecule, donor type, donor heavy atom, donor atom, acceptor molecule, acceptor atom, score
      P1  H  6896  6907       L1    14  1.00
      P1  H  6896  6909       L1    19  0.62
      P1  H  6931  6943       L1    30  0.36
      P1  H  6934  6947       L1    29  0.17
      P1  H  7997  8009       L1     3  1.70

> <Gold.PLP.Chemscore.Internal.Correction>
1.1028

> <Gold.Rescore>
     Score         DG    S(hbond)    S(metal)    S(lipo)     H(rot)  DE(clash)    DE(int)     intcor
     17.86     -22.58       2.83        0.00     111.55       2.11       1.55       3.16       ----

> <Gold.Chemscore.Fitness>
17.8635

> <Gold.Chemscore.DG>
-22.5783

> <Gold.Chemscore.ZeroCoef>
-5.4800

> <Gold.Chemscore.Hbond>
2.8316

> <Gold.Chemscore.Metal>
0.0000

> <Gold.Chemscore.Lipo>
111.5515

> <Gold.Chemscore.Internal_Hbond>
0.0000

> <Gold.Chemscore.DEClash>
1.5506

> <Gold.Chemscore.DEInternal>
3.1643

> <Gold.Chemscore.Rot>
2.1136

> <Gold.Chemscore.Internal.Correction>
   9.000000E+99

> <Gold.Chemscore.Hbonds>
donor molecule, donor type, donor heavy atom, donor atom, acceptor molecule, acceptor atom, score
      P1  H  6896  6907       L1    14  0.49
      P1  H  6896  6909       L1    19  0.61
      P1  H  6931  6943       L1    30  0.32
      P1  H  7997  8009       L1     3  0.73

> <Gold.Chemscore.Hbond.Weighted>
-9.4576

> <Gold.Chemscore.Metal.Weighted>
-0.0000

> <Gold.Chemscore.Lipo.Weighted>
-13.0515

> <Gold.Chemscore.Internal_Hbond.Weighted>
0.0000

> <Gold.Chemscore.DEClash.Weighted>
1.5506

> <Gold.Chemscore.DEInternal.Weighted>
3.1643

> <Gold.Chemscore.Rot.Weighted>
5.4107

> <Gold.Chemscore.Internal.Correction.Weighted>
   9.000000E+99

> <Gold.Protein.RotatedTorsions>
[ 6907 6896 6895 6894 ] final  -77.65 input  -60.11 | X-H torsion
[ 7974 7965 7964 7962 ] final    6.99 input  175.53 | X-H torsion
[ 8008 7997 7996 7995 ] final  155.86 input   59.86 | X-H torsion
[ 10167 10162 10161 10158 ] final  140.40 input  -65.29 | X-H torsion
[ 10718 10713 10712 10709 ] final -119.84 input   66.30 | X-H torsion
[ 10763 10752 10751 10750 ] final -136.42 input  -60.55 | X-H torsion
[ 11005 11000 10999 10996 ] final   41.31 input  -57.11 | X-H torsion

> <Gold.Protein.ActiveResidues>
 VAL166  LYS551  ARG553  GLY616  TRP617  ASP618  TYR619  PRO620  LYS621  CYS622 
 ASP623  PHE694  ASN695  SER759  ASP760  ASP761  ALA762  ILE779  LEU786  VAL792 
 PHE793  MET794  SER795  GLU796  ALA797  LYS798  CYS799  TRP800  GLU811  SER814 

> <Gold.Protein.RotatedAtoms>
  150.6993  134.4391  159.5283 H   0  0  0  0  0  0  0  0  0  0  0  0  # atno 6907 bound_to 6896
  152.2104  134.8504  160.0507 H   0  0  0  0  0  0  0  0  0  0  0  0  # atno 6908 bound_to 6896
  151.9391  133.3598  159.3995 H   0  0  0  0  0  0  0  0  0  0  0  0  # atno 6909 bound_to 6896
  146.2430  140.0151  142.8403 H   0  0  0  0  0  0  0  0  0  0  0  0  # atno 7974 bound_to 7965
  156.2455  140.1928  156.6867 H   0  0  0  0  0  0  0  0  0  0  0  0  # atno 8008 bound_to 7997
  154.6282  140.0599  156.9725 H   0  0  0  0  0  0  0  0  0  0  0  0  # atno 8009 bound_to 7997
  155.1753  140.3271  155.4387 H   0  0  0  0  0  0  0  0  0  0  0  0  # atno 8010 bound_to 7997
  139.5050  144.6236  151.5991 H   0  0  0  0  0  0  0  0  0  0  0  0  # atno 10167 bound_to 10162
  156.1212  130.6324  150.9466 H   0  0  0  0  0  0  0  0  0  0  0  0  # atno 10718 bound_to 10713
  154.8684  135.3673  154.5058 H   0  0  0  0  0  0  0  0  0  0  0  0  # atno 10763 bound_to 10752
  153.5696  135.7021  153.5515 H   0  0  0  0  0  0  0  0  0  0  0  0  # atno 10764 bound_to 10752
  153.3554  135.4061  155.1641 H   0  0  0  0  0  0  0  0  0  0  0  0  # atno 10765 bound_to 10752
  140.1846  134.4061  155.8180 H   0  0  0  0  0  0  0  0  0  0  0  0  # atno 11005 bound_to 11000
  145.1292  140.9508  143.4554 LP  0  0  0  0  0  0  0  0  0  0  0  0  # atno 17320 bound_to 7965
  145.0404  139.3265  143.5979 LP  0  0  0  0  0  0  0  0  0  0  0  0  # atno 17321 bound_to 7965
  140.5946  143.9719  150.6346 LP  0  0  0  0  0  0  0  0  0  0  0  0  # atno 17342 bound_to 10162
  140.2911  143.3324  152.1062 LP  0  0  0  0  0  0  0  0  0  0  0  0  # atno 17343 bound_to 10162
  157.6395  131.0912  150.8280 LP  0  0  0  0  0  0  0  0  0  0  0  0  # atno 17370 bound_to 10713
  156.8377  130.5037  149.5324 LP  0  0  0  0  0  0  0  0  0  0  0  0  # atno 17371 bound_to 10713
  141.2224  133.7017  156.7990 LP  0  0  0  0  0  0  0  0  0  0  0  0  # atno 17394 bound_to 11000
  140.2228  134.8744  157.3395 LP  0  0  0  0  0  0  0  0  0  0  0  0  # atno 17395 bound_to 11000

$$$$
