AV-unprocessed.smi:2003|AV-procd|sdf|8119|dock10
  -GOLD-   2272010353D 1   1.00000     0.00000
 Structure written by MMmdl.
 44 45  0  0  0  0  0  0  0  0  2 V2000
  153.2268  141.8573  160.9846 C   0  0  0  0  0  0  0  0  0  0  0  0
  152.5768  142.4255  159.7577 C   0  0  0  0  0  0  0  0  0  0  0  0
  151.5987  141.8153  158.9195 C   0  0  0  0  0  0  0  0  0  0  0  0
  151.3746  142.7751  157.9704 C   0  0  0  0  0  0  0  0  0  0  0  0
  150.5353  142.7417  156.9014 N   0  0  0  0  0  0  0  0  0  0  0  0
  150.1224  141.6780  156.1908 C   0  0  0  0  0  0  0  0  0  0  0  0
  150.4249  140.5066  156.4163 O   0  0  0  0  0  0  0  0  0  0  0  0
  149.3248  142.0528  155.1805 N   0  0  0  0  0  0  0  0  0  0  0  0
  148.6996  141.1520  154.2128 C   0  0  0  0  0  0  0  0  0  0  0  0
  147.2027  141.4696  153.9487 C   0  0  2  0  0  0  0  0  0  0  0  0
  146.5742  142.1226  155.1992 C   0  0  0  0  0  0  0  0  0  0  0  0
  146.4361  140.2717  153.4737 N   0  3  0  0  0  0  0  0  0  0  0  0
  147.0872  139.5250  152.3625 C   0  0  0  0  0  0  0  0  0  0  0  0
  146.2276  138.3290  151.9185 C   0  0  0  0  0  0  0  0  0  0  0  0
  145.9786  137.4761  153.0256 O   0  0  0  0  0  0  0  0  0  0  0  0
  145.2570  138.1477  154.0469 C   0  0  0  0  0  0  0  0  0  0  0  0
  146.0881  139.3294  154.5723 C   0  0  0  0  0  0  0  0  0  0  0  0
  152.1712  143.8648  158.2426 N   0  0  0  0  0  0  0  0  0  0  0  0
  152.2927  145.1194  157.5263 C   0  0  0  0  0  0  0  0  0  0  0  0
  152.9142  143.6433  159.3482 N   0  0  0  0  0  0  0  0  0  0  0  0
  152.8138  140.8792  161.2326 H   0  0  0  0  0  0  0  0  0  0  0  0
  153.0768  142.5080  161.8466 H   0  0  0  0  0  0  0  0  0  0  0  0
  154.3005  141.7367  160.8392 H   0  0  0  0  0  0  0  0  0  0  0  0
  151.1525  140.8373  159.0171 H   0  0  0  0  0  0  0  0  0  0  0  0
  150.1839  143.6403  156.6054 H   0  0  0  0  0  0  0  0  0  0  0  0
  149.1186  143.0362  155.0827 H   0  0  0  0  0  0  0  0  0  0  0  0
  149.2631  141.1424  153.2782 H   0  0  0  0  0  0  0  0  0  0  0  0
  148.7994  140.1394  154.6033 H   0  0  0  0  0  0  0  0  0  0  0  0
  147.1656  142.2193  153.1565 H   0  0  0  0  0  0  0  0  0  0  0  0
  147.2210  142.9020  155.6034 H   0  0  0  0  0  0  0  0  0  0  0  0
  146.4020  141.3941  155.9918 H   0  0  0  0  0  0  0  0  0  0  0  0
  145.6239  142.6054  154.9725 H   0  0  0  0  0  0  0  0  0  0  0  0
  147.2309  140.1648  151.4930 H   0  0  0  0  0  0  0  0  0  0  0  0
  148.0728  139.1815  152.6806 H   0  0  0  0  0  0  0  0  0  0  0  0
  145.2854  138.6665  151.4835 H   0  0  0  0  0  0  0  0  0  0  0  0
  146.7471  137.7609  151.1466 H   0  0  0  0  0  0  0  0  0  0  0  0
  144.2908  138.4866  153.6688 H   0  0  0  0  0  0  0  0  0  0  0  0
  145.0534  137.4442  154.8543 H   0  0  0  0  0  0  0  0  0  0  0  0
  147.0022  138.9611  155.0407 H   0  0  0  0  0  0  0  0  0  0  0  0
  145.5115  139.8300  155.3486 H   0  0  0  0  0  0  0  0  0  0  0  0
  151.3029  145.5453  157.3592 H   0  0  0  0  0  0  0  0  0  0  0  0
  152.7735  144.9448  156.5637 H   0  0  0  0  0  0  0  0  0  0  0  0
  152.8895  145.8319  158.0977 H   0  0  0  0  0  0  0  0  0  0  0  0
  145.5642  140.6224  153.1039 H   0  0  0  0  0  0  0  0  0  0  0  0
  1  2  1  0  0  0  0
  1 21  1  0  0  0  0
  1 22  1  0  0  0  0
  1 23  1  0  0  0  0
  2 20  2  0  0  0  0
  2  3  1  0  0  0  0
  3  4  2  0  0  0  0
  3 24  1  0  0  0  0
  4  5  1  0  0  0  0
  4 18  1  0  0  0  0
  5  6  1  0  0  0  0
  5 25  1  0  0  0  0
  6  7  2  0  0  0  0
  6  8  1  0  0  0  0
  8  9  1  0  0  0  0
  8 26  1  0  0  0  0
  9 10  1  0  0  0  0
  9 27  1  0  0  0  0
  9 28  1  0  0  0  0
 10 11  1  0  0  0  0
 10 12  1  0  0  0  0
 10 29  1  0  0  0  0
 11 30  1  0  0  0  0
 11 31  1  0  0  0  0
 11 32  1  0  0  0  0
 12 17  1  0  0  0  0
 12 13  1  0  0  0  0
 12 44  1  0  0  0  0
 13 14  1  0  0  0  0
 13 33  1  0  0  0  0
 13 34  1  0  0  0  0
 14 15  1  0  0  0  0
 14 35  1  0  0  0  0
 14 36  1  0  0  0  0
 15 16  1  0  0  0  0
 16 17  1  0  0  0  0
 16 37  1  0  0  0  0
 16 38  1  0  0  0  0
 17 39  1  0  0  0  0
 17 40  1  0  0  0  0
 18 19  1  0  0  0  0
 18 20  1  0  0  0  0
 19 41  1  0  0  0  0
 19 42  1  0  0  0  0
 19 43  1  0  0  0  0
M  CHG  1  12   1
M  END
> <s_m_source_file>
AV-unprocessed.smi

> <i_m_source_file_index>
2003

> <i_lp_mmshare_version>
43012

> <i_f3d_flags>
0

> <s_epik_input>
W0NIM11jMVtjSF1jKG4objEpW0NIM10pW05IXUMoPU8pW05IXVtDSDJdW0NASF0oW0NIM10pTjJbQ0gyXVtDSDJdT1tDSDJdW0NIMl0y

> <s_epik_cmdline>
J2VwaWtfcHl0aG9uJywgJy1waCcsICc3LjAnLCAnLXRuJywgJzgnLCAnLW1hJywgJzIwMCcsICctbWV0YWxfYmluZGluZycsICctaW1hZScsICc8aW5maWxlLm1hZT4nLCAnLW9tYWUnLCAnPG91dGZpbGUubWFlPic=

> <r_lp_tautomer_probability>
1

> <r_epik_Ionization_Penalty>
0.663903

> <r_epik_Ionization_Penalty_Charging>
0.663826

> <r_epik_Ionization_Penalty_Neutral>
7.78239e-05

> <r_epik_State_Penalty>
0.683414

> <r_epik_Charging_Adjusted_Penalty>
1.34724

> <i_epik_Tot_Q>
1

> <i_epik_Tot_abs_Q>
1

> <r_epik_Metal_State_Penalty>
0.683419

> <b_epik_Metal_Only>
0

> <s_lp_Force_Field>
OPLS_2005

> <r_lp_Energy>
28.7948

> <b_lp_Chiralities_Consistent>
1

> <s_lp_Variant>
AV-unprocessed.smi:2003-3

> <Gold.Version>
5.8.1

> <Gold.Id.Protein>
6NUR|6NUR_protein|mol2

> <Gold.PLP.Fitness>
50.6677

> <Gold.PLP.PLP>
-40.1600

> <Gold.PLP.part.hbond>
-3.0000

> <Gold.PLP.part.metal>
0.0000

> <Gold.PLP.part.buried>
-2.3877

> <Gold.PLP.part.nonpolar>
-36.2493

> <Gold.PLP.part.repulsive>
0.5085

> <Gold.PLP.ligand.clash>
0.0000

> <Gold.PLP.ligand.torsion>
0.7699

> <Gold.PLP.Chemscore.Hbond>
4.0000

> <Gold.PLP.Chemscore.CHOScore>
0.0000

> <Gold.PLP.Chemscore.Metal>
0.0000

> <Gold.Chemscore.Hbonds>
donor molecule, donor type, donor heavy atom, donor atom, acceptor molecule, acceptor atom, score
      L1  H     5    25       P1  8028  1.00
      L1  H     8    26       P1  8028  1.00
      L1  H    12    44       P1 10175  2.00

> <Gold.PLP.Chemscore.Internal.Correction>
0.0475

> <Gold.Rescore>
     Score         DG    S(hbond)    S(metal)    S(lipo)     H(rot)  DE(clash)    DE(int)     intcor
     18.64     -21.23       2.91        0.00      85.30       1.54       2.00       0.59       ----

> <Gold.Chemscore.Fitness>
18.6395

> <Gold.Chemscore.DG>
-21.2284

> <Gold.Chemscore.ZeroCoef>
-5.4800

> <Gold.Chemscore.Hbond>
2.9074

> <Gold.Chemscore.Metal>
0.0000

> <Gold.Chemscore.Lipo>
85.2953

> <Gold.Chemscore.Internal_Hbond>
0.0000

> <Gold.Chemscore.DEClash>
2.0022

> <Gold.Chemscore.DEInternal>
0.5867

> <Gold.Chemscore.Rot>
1.5398

> <Gold.Chemscore.Internal.Correction>
   9.000000E+99

> <Gold.Chemscore.Hbonds>
donor molecule, donor type, donor heavy atom, donor atom, acceptor molecule, acceptor atom, score
      L1  H     5    25       P1  8028  0.96
      L1  H     8    26       P1  8028  0.99
      L1  H    12    44       P1 10175  0.79

> <Gold.Chemscore.Hbond.Weighted>
-9.7108

> <Gold.Chemscore.Metal.Weighted>
-0.0000

> <Gold.Chemscore.Lipo.Weighted>
-9.9796

> <Gold.Chemscore.Internal_Hbond.Weighted>
0.0000

> <Gold.Chemscore.DEClash.Weighted>
2.0022

> <Gold.Chemscore.DEInternal.Weighted>
0.5867

> <Gold.Chemscore.Rot.Weighted>
3.9420

> <Gold.Chemscore.Internal.Correction.Weighted>
   9.000000E+99

> <Gold.Protein.RotatedTorsions>
[ 6907 6896 6895 6894 ] final  -44.40 input  -60.11 | X-H torsion
[ 7974 7965 7964 7962 ] final -154.22 input  175.53 | X-H torsion
[ 8008 7997 7996 7995 ] final -168.78 input   59.86 | X-H torsion
[ 10167 10162 10161 10158 ] final  159.71 input  -65.29 | X-H torsion
[ 10718 10713 10712 10709 ] final -167.95 input   66.30 | X-H torsion
[ 10763 10752 10751 10750 ] final   19.42 input  -60.55 | X-H torsion
[ 11005 11000 10999 10996 ] final  -45.82 input  -57.11 | X-H torsion

> <Gold.Protein.ActiveResidues>
 VAL166  LYS551  ARG553  GLY616  TRP617  ASP618  TYR619  PRO620  LYS621  CYS622 
 ASP623  PHE694  ASN695  SER759  ASP760  ASP761  ALA762  ILE779  LEU786  VAL792 
 PHE793  MET794  SER795  GLU796  ALA797  LYS798  CYS799  TRP800  GLU811  SER814 

> <Gold.Protein.RotatedAtoms>
  150.9333  134.8747  159.7564 H   0  0  0  0  0  0  0  0  0  0  0  0  # atno 6907 bound_to 6896
  152.5047  134.4048  159.9438 H   0  0  0  0  0  0  0  0  0  0  0  0  # atno 6908 bound_to 6896
  151.4073  133.3698  159.2774 H   0  0  0  0  0  0  0  0  0  0  0  0  # atno 6909 bound_to 6896
  144.7700  140.4418  143.5914 H   0  0  0  0  0  0  0  0  0  0  0  0  # atno 7974 bound_to 7965
  155.8960  140.1033  157.1384 H   0  0  0  0  0  0  0  0  0  0  0  0  # atno 8008 bound_to 7997
  154.4020  140.1301  156.4440 H   0  0  0  0  0  0  0  0  0  0  0  0  # atno 8009 bound_to 7997
  155.7478  140.3465  155.5138 H   0  0  0  0  0  0  0  0  0  0  0  0  # atno 8010 bound_to 7997
  139.4834  144.4703  151.8585 H   0  0  0  0  0  0  0  0  0  0  0  0  # atno 10167 bound_to 10162
  156.6898  130.9155  151.3067 H   0  0  0  0  0  0  0  0  0  0  0  0  # atno 10718 bound_to 10713
  153.1164  135.6709  153.9411 H   0  0  0  0  0  0  0  0  0  0  0  0  # atno 10763 bound_to 10752
  153.8939  135.3044  155.3449 H   0  0  0  0  0  0  0  0  0  0  0  0  # atno 10764 bound_to 10752
  154.7580  135.5002  153.9489 H   0  0  0  0  0  0  0  0  0  0  0  0  # atno 10765 bound_to 10752
  141.0540  133.6732  156.3067 H   0  0  0  0  0  0  0  0  0  0  0  0  # atno 11005 bound_to 11000
  145.6352  139.1542  143.2946 LP  0  0  0  0  0  0  0  0  0  0  0  0  # atno 17320 bound_to 7965
  146.1839  140.6453  142.9176 LP  0  0  0  0  0  0  0  0  0  0  0  0  # atno 17321 bound_to 7965
  140.4172  144.2291  150.5887 LP  0  0  0  0  0  0  0  0  0  0  0  0  # atno 17342 bound_to 10162
  140.4909  143.2348  151.8820 LP  0  0  0  0  0  0  0  0  0  0  0  0  # atno 17343 bound_to 10162
  157.7013  130.9336  150.0794 LP  0  0  0  0  0  0  0  0  0  0  0  0  # atno 17370 bound_to 10713
  156.1806  130.3650  149.9041 LP  0  0  0  0  0  0  0  0  0  0  0  0  # atno 17371 bound_to 10713
  140.6000  134.5564  157.5516 LP  0  0  0  0  0  0  0  0  0  0  0  0  # atno 17394 bound_to 11000
  139.9374  134.7850  156.0767 LP  0  0  0  0  0  0  0  0  0  0  0  0  # atno 17395 bound_to 11000

$$$$
