AV-unprocessed.smi:2052|AV-procd|sdf|8328|dock1
  -GOLD-   2272010593D 1   1.00000     0.00000
 Structure written by MMmdl.
 41 42  0  0  0  0  0  0  0  0  1 V2000
  148.3785  133.0980  154.1997 C   0  0  0  0  0  0  0  0  0  0  0  0
  147.9734  134.8334  154.5357 S   0  0  0  0  0  0  0  0  0  0  0  0
  146.3417  134.9628  153.7457 C   0  0  2  0  0  0  0  0  0  0  0  0
  146.3416  134.2262  152.3968 C   0  0  0  0  0  0  0  0  0  0  0  0
  145.9007  136.4215  153.5760 C   0  0  0  0  0  0  0  0  0  0  0  0
  144.8771  136.8309  154.1247 O   0  0  0  0  0  0  0  0  0  0  0  0
  146.6869  137.1998  152.8159 N   0  0  0  0  0  0  0  0  0  0  0  0
  146.4716  138.6235  152.5769 C   0  0  0  0  0  0  0  0  0  0  0  0
  147.4104  139.5421  153.3487 C   0  0  0  0  0  0  0  0  0  0  0  0
  147.1393  140.9225  153.4163 C   0  0  0  0  0  0  0  0  0  0  0  0
  148.0272  141.7469  154.1316 C   0  0  0  0  0  0  0  0  0  0  0  0
  149.1271  141.2814  154.7593 N   0  0  0  0  0  0  0  0  0  0  0  0
  149.4001  139.9544  154.7043 C   0  0  0  0  0  0  0  0  0  0  0  0
  150.5468  139.4760  155.3741 N   0  0  0  0  0  0  0  0  0  0  0  0
  151.5281  138.7193  154.5989 C   0  0  0  0  0  0  0  0  0  0  0  0
  152.5447  138.0451  155.5356 C   0  0  0  0  0  0  0  0  0  0  0  0
  153.1461  139.0250  156.3753 O   0  0  0  0  0  0  0  0  0  0  0  0
  152.1863  139.6761  157.2010 C   0  0  0  0  0  0  0  0  0  0  0  0
  151.1535  140.4053  156.3245 C   0  0  0  0  0  0  0  0  0  0  0  0
  148.5688  139.0553  153.9954 C   0  0  0  0  0  0  0  0  0  0  0  0
  149.3722  132.8656  154.5827 H   0  0  0  0  0  0  0  0  0  0  0  0
  148.3685  132.9047  153.1271 H   0  0  0  0  0  0  0  0  0  0  0  0
  147.6620  132.4330  154.6817 H   0  0  0  0  0  0  0  0  0  0  0  0
  145.6275  134.4546  154.3955 H   0  0  0  0  0  0  0  0  0  0  0  0
  145.3726  134.3043  151.9017 H   0  0  0  0  0  0  0  0  0  0  0  0
  146.5536  133.1656  152.5336 H   0  0  0  0  0  0  0  0  0  0  0  0
  147.0963  134.6277  151.7192 H   0  0  0  0  0  0  0  0  0  0  0  0
  147.5067  136.7850  152.3975 H   0  0  0  0  0  0  0  0  0  0  0  0
  146.6082  138.8133  151.5122 H   0  0  0  0  0  0  0  0  0  0  0  0
  145.4357  138.8799  152.8062 H   0  0  0  0  0  0  0  0  0  0  0  0
  146.2702  141.3435  152.9322 H   0  0  0  0  0  0  0  0  0  0  0  0
  147.8492  142.8096  154.2028 H   0  0  0  0  0  0  0  0  0  0  0  0
  151.0290  137.9576  153.9983 H   0  0  0  0  0  0  0  0  0  0  0  0
  152.0431  139.3922  153.9119 H   0  0  0  0  0  0  0  0  0  0  0  0
  152.0647  137.2756  156.1423 H   0  0  0  0  0  0  0  0  0  0  0  0
  153.3220  137.5514  154.9523 H   0  0  0  0  0  0  0  0  0  0  0  0
  151.6984  138.9499  157.8533 H   0  0  0  0  0  0  0  0  0  0  0  0
  152.6994  140.3887  157.8467 H   0  0  0  0  0  0  0  0  0  0  0  0
  151.6382  141.2089  155.7687 H   0  0  0  0  0  0  0  0  0  0  0  0
  150.4090  140.8715  156.9683 H   0  0  0  0  0  0  0  0  0  0  0  0
  148.8202  138.0070  153.9397 H   0  0  0  0  0  0  0  0  0  0  0  0
  1  2  1  0  0  0  0
  1 21  1  0  0  0  0
  1 22  1  0  0  0  0
  1 23  1  0  0  0  0
  2  3  1  0  0  0  0
  3  4  1  0  0  0  0
  3  5  1  0  0  0  0
  3 24  1  0  0  0  0
  4 25  1  0  0  0  0
  4 26  1  0  0  0  0
  4 27  1  0  0  0  0
  5  6  2  0  0  0  0
  5  7  1  0  0  0  0
  7  8  1  0  0  0  0
  7 28  1  0  0  0  0
  8  9  1  0  0  0  0
  8 29  1  0  0  0  0
  8 30  1  0  0  0  0
  9 20  1  0  0  0  0
  9 10  2  0  0  0  0
 10 11  1  0  0  0  0
 10 31  1  0  0  0  0
 11 12  2  0  0  0  0
 11 32  1  0  0  0  0
 12 13  1  0  0  0  0
 13 14  1  0  0  0  0
 13 20  2  0  0  0  0
 14 19  1  0  0  0  0
 14 15  1  0  0  0  0
 15 16  1  0  0  0  0
 15 33  1  0  0  0  0
 15 34  1  0  0  0  0
 16 17  1  0  0  0  0
 16 35  1  0  0  0  0
 16 36  1  0  0  0  0
 17 18  1  0  0  0  0
 18 19  1  0  0  0  0
 18 37  1  0  0  0  0
 18 38  1  0  0  0  0
 19 39  1  0  0  0  0
 19 40  1  0  0  0  0
 20 41  1  0  0  0  0
M  END
> <s_m_source_file>
AV-unprocessed.smi

> <i_m_source_file_index>
2052

> <i_lp_mmshare_version>
43012

> <i_f3d_flags>
0

> <s_epik_input>
W0NIM11TW0NASF0oW0NIM10pQyg9TylbTkhdW0NIMl1jMVtjSF1bY0hdbmMoW2NIXTEpTjJbQ0gyXVtDSDJdT1tDSDJdW0NIMl0y

> <s_epik_cmdline>
J2VwaWtfcHl0aG9uJywgJy1waCcsICc3LjAnLCAnLXRuJywgJzgnLCAnLW1hJywgJzIwMCcsICctbWV0YWxfYmluZGluZycsICctaW1hZScsICc8aW5maWxlLm1hZT4nLCAnLW9tYWUnLCAnPG91dGZpbGUubWFlPic=

> <r_lp_tautomer_probability>
1

> <r_epik_Ionization_Penalty>
0.00463955

> <r_epik_Ionization_Penalty_Charging>
0

> <r_epik_Ionization_Penalty_Neutral>
0.00463955

> <r_epik_State_Penalty>
0.00335544

> <r_epik_Charging_Adjusted_Penalty>
0.00335544

> <i_epik_Tot_Q>
0

> <i_epik_Tot_abs_Q>
0

> <r_epik_Metal_State_Penalty>
-0

> <b_epik_Metal_Only>
0

> <s_lp_Force_Field>
OPLS_2005

> <r_lp_Energy>
14.3355

> <b_lp_Chiralities_Consistent>
1

> <s_lp_Variant>
AV-unprocessed.smi:2052-1

> <Gold.Version>
5.8.1

> <Gold.Id.Protein>
6NUR|6NUR_protein|mol2

> <Gold.PLP.Fitness>
39.7395

> <Gold.PLP.PLP>
-31.5752

> <Gold.PLP.part.hbond>
-1.9222

> <Gold.PLP.part.metal>
0.0000

> <Gold.PLP.part.buried>
-0.9466

> <Gold.PLP.part.nonpolar>
-28.9123

> <Gold.PLP.part.repulsive>
0.2715

> <Gold.PLP.ligand.clash>
0.0000

> <Gold.PLP.ligand.torsion>
0.5735

> <Gold.PLP.Chemscore.Hbond>
2.0000

> <Gold.PLP.Chemscore.CHOScore>
0.9770

> <Gold.PLP.Chemscore.Metal>
0.0000

> <Gold.Chemscore.Hbonds>
donor molecule, donor type, donor heavy atom, donor atom, acceptor molecule, acceptor atom, score
      L1  H     7    28       P1  7948  1.00
      P1  H  7997  8008       L1    17  1.00
      L1  C    11    32       P1  8028  0.89

> <Gold.PLP.Chemscore.Internal.Correction>
0.3804

> <Gold.Rescore>
     Score         DG    S(hbond)    S(metal)    S(lipo)     H(rot)  DE(clash)    DE(int)     intcor
     16.10     -16.77       1.98        0.00      76.50       1.67       0.05       0.62       ----

> <Gold.Chemscore.Fitness>
16.0982

> <Gold.Chemscore.DG>
-16.7730

> <Gold.Chemscore.ZeroCoef>
-5.4800

> <Gold.Chemscore.Hbond>
1.9799

> <Gold.Chemscore.Metal>
0.0000

> <Gold.Chemscore.Lipo>
76.5027

> <Gold.Chemscore.Internal_Hbond>
0.0000

> <Gold.Chemscore.DEClash>
0.0512

> <Gold.Chemscore.DEInternal>
0.6236

> <Gold.Chemscore.Rot>
1.6682

> <Gold.Chemscore.Internal.Correction>
   9.000000E+99

> <Gold.Chemscore.Hbonds>
donor molecule, donor type, donor heavy atom, donor atom, acceptor molecule, acceptor atom, score
      L1  H     7    28       P1  7948  0.99
      P1  H  7997  8008       L1    17  0.34

> <Gold.Chemscore.Hbond.Weighted>
-6.6129

> <Gold.Chemscore.Metal.Weighted>
-0.0000

> <Gold.Chemscore.Lipo.Weighted>
-8.9508

> <Gold.Chemscore.Internal_Hbond.Weighted>
0.0000

> <Gold.Chemscore.DEClash.Weighted>
0.0512

> <Gold.Chemscore.DEInternal.Weighted>
0.6236

> <Gold.Chemscore.Rot.Weighted>
4.2707

> <Gold.Chemscore.Internal.Correction.Weighted>
   9.000000E+99

> <Gold.Protein.RotatedTorsions>
[ 6907 6896 6895 6894 ] final   56.97 input  -60.11 | X-H torsion
[ 7974 7965 7964 7962 ] final  -17.09 input  175.53 | X-H torsion
[ 8008 7997 7996 7995 ] final  -43.28 input   59.86 | X-H torsion
[ 10167 10162 10161 10158 ] final  125.64 input  -65.29 | X-H torsion
[ 10718 10713 10712 10709 ] final  -16.76 input   66.30 | X-H torsion
[ 10763 10752 10751 10750 ] final -133.02 input  -60.55 | X-H torsion
[ 11005 11000 10999 10996 ] final  -51.18 input  -57.11 | X-H torsion

> <Gold.Protein.ActiveResidues>
 VAL166  LYS551  ARG553  GLY616  TRP617  ASP618  TYR619  PRO620  LYS621  CYS622 
 ASP623  PHE694  ASN695  SER759  ASP760  ASP761  ALA762  ILE779  LEU786  VAL792 
 PHE793  MET794  SER795  GLU796  ALA797  LYS798  CYS799  TRP800  GLU811  SER814 

> <Gold.Protein.RotatedAtoms>
  152.3687  134.6766  160.0183 H   0  0  0  0  0  0  0  0  0  0  0  0  # atno 6907 bound_to 6896
  151.7067  133.3306  159.3288 H   0  0  0  0  0  0  0  0  0  0  0  0  # atno 6908 bound_to 6896
  150.7657  134.6503  159.6329 H   0  0  0  0  0  0  0  0  0  0  0  0  # atno 6909 bound_to 6896
  146.1957  140.3730  142.8441 H   0  0  0  0  0  0  0  0  0  0  0  0  # atno 7974 bound_to 7965
  154.3997  140.1452  156.3493 H   0  0  0  0  0  0  0  0  0  0  0  0  # atno 8008 bound_to 7997
  155.8284  140.3467  155.5536 H   0  0  0  0  0  0  0  0  0  0  0  0  # atno 8009 bound_to 7997
  155.8214  140.0898  157.1837 H   0  0  0  0  0  0  0  0  0  0  0  0  # atno 8010 bound_to 7997
  139.5674  144.6919  151.3871 H   0  0  0  0  0  0  0  0  0  0  0  0  # atno 10167 bound_to 10162
  156.5831  130.4779  149.6312 H   0  0  0  0  0  0  0  0  0  0  0  0  # atno 10718 bound_to 10713
  154.8737  135.3779  154.4504 H   0  0  0  0  0  0  0  0  0  0  0  0  # atno 10763 bound_to 10752
  153.5180  135.7029  153.5751 H   0  0  0  0  0  0  0  0  0  0  0  0  # atno 10764 bound_to 10752
  153.4010  135.3948  155.1953 H   0  0  0  0  0  0  0  0  0  0  0  0  # atno 10765 bound_to 10752
  141.0857  133.6643  156.3839 H   0  0  0  0  0  0  0  0  0  0  0  0  # atno 11005 bound_to 11000
  144.8576  140.7093  143.6128 LP  0  0  0  0  0  0  0  0  0  0  0  0  # atno 17320 bound_to 7965
  145.3651  139.1672  143.4362 LP  0  0  0  0  0  0  0  0  0  0  0  0  # atno 17321 bound_to 7965
  140.6958  143.7752  150.7325 LP  0  0  0  0  0  0  0  0  0  0  0  0  # atno 17342 bound_to 10162
  140.1248  143.4579  152.2291 LP  0  0  0  0  0  0  0  0  0  0  0  0  # atno 17343 bound_to 10162
  156.2614  130.6965  151.1734 LP  0  0  0  0  0  0  0  0  0  0  0  0  # atno 17370 bound_to 10713
  157.7322  131.0602  150.5641 LP  0  0  0  0  0  0  0  0  0  0  0  0  # atno 17371 bound_to 10713
  140.5368  134.6159  157.5367 LP  0  0  0  0  0  0  0  0  0  0  0  0  # atno 17394 bound_to 11000
  139.9675  134.7348  156.0109 LP  0  0  0  0  0  0  0  0  0  0  0  0  # atno 17395 bound_to 11000

$$$$
