AV-unprocessed.smi:153|AV-procd|sdf|1264|dock2
  -GOLD-   2262018513D 1   1.00000     0.00000
 Structure written by MMmdl.
 59 62  0  0  0  0  0  0  0  0  1 V2000
  144.6343  135.2055  150.5806 C   0  0  0  0  0  0  0  0  0  0  0  0
  144.9069  134.5984  151.9708 C   0  0  2  0  0  0  0  0  0  0  0  0
  143.6467  134.2779  152.5513 O   0  0  0  0  0  0  0  0  0  0  0  0
  143.1914  135.3465  153.3772 C   0  0  0  0  0  0  0  0  0  0  0  0
  144.3646  136.3200  153.5184 C   0  0  0  0  0  0  0  0  0  0  0  0
  145.5704  135.5452  152.9935 C   0  0  2  0  0  0  0  0  0  0  0  0
  146.4734  136.4407  152.3717 O   0  0  0  0  0  0  0  0  0  0  0  0
  146.3816  134.8083  154.0958 C   0  0  0  0  0  0  0  0  0  0  0  0
  147.3138  135.6498  154.8295 N   0  0  0  0  0  0  0  0  0  0  0  0
  147.0108  136.7838  155.5471 C   0  0  0  0  0  0  0  0  0  0  0  0
  148.0324  137.3856  156.0888 N   0  0  0  0  0  0  0  0  0  0  0  0
  149.1259  136.6045  155.7303 C   0  0  0  0  0  0  0  0  0  0  0  0
  150.5323  136.6887  155.9566 C   0  0  0  0  0  0  0  0  0  0  0  0
  151.1362  137.7272  156.5978 N   0  0  0  0  0  0  0  0  0  0  0  0
  152.5948  137.7348  156.6738 C   0  0  0  0  0  0  0  0  0  0  0  0
  150.4554  139.0230  156.5644 C   0  0  0  0  0  0  0  0  0  0  0  0
  151.1523  140.0692  155.6633 C   0  0  1  0  0  0  0  0  0  0  0  0
  150.8033  139.9012  154.3029 O   0  0  0  0  0  0  0  0  0  0  0  0
  150.8421  141.5269  156.0726 C   0  0  0  0  0  0  0  0  0  0  0  0
  151.7791  142.1651  157.0042 N   0  0  0  0  0  0  0  0  0  0  0  0
  151.7401  141.5882  158.3475 C   0  0  0  0  0  0  0  0  0  0  0  0
  152.7095  142.2978  159.3085 C   0  0  0  0  0  0  0  0  0  0  0  0
  152.4192  143.6909  159.3438 O   0  0  0  0  0  0  0  0  0  0  0  0
  152.4978  144.2991  158.0592 C   0  0  0  0  0  0  0  0  0  0  0  0
  151.5214  143.5984  157.0987 C   0  0  0  0  0  0  0  0  0  0  0  0
  151.2984  135.6771  155.4660 N   0  0  0  0  0  0  0  0  0  0  0  0
  150.7445  134.6751  154.7786 C   0  0  0  0  0  0  0  0  0  0  0  0
  149.4622  134.4888  154.4645 N   0  0  0  0  0  0  0  0  0  0  0  0
  148.6815  135.4868  154.9669 C   0  0  0  0  0  0  0  0  0  0  0  0
  145.5631  135.4402  150.0605 H   0  0  0  0  0  0  0  0  0  0  0  0
  144.0457  136.1207  150.6442 H   0  0  0  0  0  0  0  0  0  0  0  0
  144.0826  134.5028  149.9561 H   0  0  0  0  0  0  0  0  0  0  0  0
  145.4942  133.6898  151.8361 H   0  0  0  0  0  0  0  0  0  0  0  0
  142.3256  135.8330  152.9272 H   0  0  0  0  0  0  0  0  0  0  0  0
  142.8840  134.9466  154.3433 H   0  0  0  0  0  0  0  0  0  0  0  0
  144.1701  137.1908  152.8901 H   0  0  0  0  0  0  0  0  0  0  0  0
  144.4946  136.6868  154.5364 H   0  0  0  0  0  0  0  0  0  0  0  0
  147.2961  135.9943  152.2413 H   0  0  0  0  0  0  0  0  0  0  0  0
  145.7008  134.3550  154.8177 H   0  0  0  0  0  0  0  0  0  0  0  0
  146.9455  133.9842  153.6567 H   0  0  0  0  0  0  0  0  0  0  0  0
  146.0046  137.1649  155.6420 H   0  0  0  0  0  0  0  0  0  0  0  0
  152.9697  136.7790  157.0421 H   0  0  0  0  0  0  0  0  0  0  0  0
  152.9395  138.5099  157.3585 H   0  0  0  0  0  0  0  0  0  0  0  0
  153.0360  137.9272  155.6952 H   0  0  0  0  0  0  0  0  0  0  0  0
  149.4040  138.9239  156.3063 H   0  0  0  0  0  0  0  0  0  0  0  0
  150.4521  139.4017  157.5870 H   0  0  0  0  0  0  0  0  0  0  0  0
  152.2327  139.9357  155.7252 H   0  0  0  0  0  0  0  0  0  0  0  0
  150.9044  138.9886  154.0799 H   0  0  0  0  0  0  0  0  0  0  0  0
  150.8448  142.1092  155.1502 H   0  0  0  0  0  0  0  0  0  0  0  0
  149.8224  141.5992  156.4544 H   0  0  0  0  0  0  0  0  0  0  0  0
  150.7263  141.6449  158.7468 H   0  0  0  0  0  0  0  0  0  0  0  0
  152.0084  140.5332  158.3169 H   0  0  0  0  0  0  0  0  0  0  0  0
  152.6137  141.8875  160.3139 H   0  0  0  0  0  0  0  0  0  0  0  0
  153.7434  142.1423  158.9963 H   0  0  0  0  0  0  0  0  0  0  0  0
  152.2483  145.3562  158.1495 H   0  0  0  0  0  0  0  0  0  0  0  0
  153.5200  144.2413  157.6820 H   0  0  0  0  0  0  0  0  0  0  0  0
  151.6020  144.0550  156.1116 H   0  0  0  0  0  0  0  0  0  0  0  0
  150.4987  143.7693  157.4381 H   0  0  0  0  0  0  0  0  0  0  0  0
  151.4284  133.9202  154.4199 H   0  0  0  0  0  0  0  0  0  0  0  0
  1  2  1  0  0  0  0
  1 30  1  0  0  0  0
  1 31  1  0  0  0  0
  1 32  1  0  0  0  0
  2  6  1  0  0  0  0
  2  3  1  0  0  0  0
  2 33  1  0  0  0  0
  3  4  1  0  0  0  0
  4  5  1  0  0  0  0
  4 34  1  0  0  0  0
  4 35  1  0  0  0  0
  5  6  1  0  0  0  0
  5 36  1  0  0  0  0
  5 37  1  0  0  0  0
  6  7  1  0  0  0  0
  6  8  1  0  0  0  0
  7 38  1  0  0  0  0
  8  9  1  0  0  0  0
  8 39  1  0  0  0  0
  8 40  1  0  0  0  0
  9 29  1  0  0  0  0
  9 10  1  0  0  0  0
 10 11  2  0  0  0  0
 10 41  1  0  0  0  0
 11 12  1  0  0  0  0
 12 29  2  0  0  0  0
 12 13  1  0  0  0  0
 13 14  1  0  0  0  0
 13 26  2  0  0  0  0
 14 15  1  0  0  0  0
 14 16  1  0  0  0  0
 15 42  1  0  0  0  0
 15 43  1  0  0  0  0
 15 44  1  0  0  0  0
 16 17  1  0  0  0  0
 16 45  1  0  0  0  0
 16 46  1  0  0  0  0
 17 18  1  0  0  0  0
 17 19  1  0  0  0  0
 17 47  1  0  0  0  0
 18 48  1  0  0  0  0
 19 20  1  0  0  0  0
 19 49  1  0  0  0  0
 19 50  1  0  0  0  0
 20 25  1  0  0  0  0
 20 21  1  0  0  0  0
 21 22  1  0  0  0  0
 21 51  1  0  0  0  0
 21 52  1  0  0  0  0
 22 23  1  0  0  0  0
 22 53  1  0  0  0  0
 22 54  1  0  0  0  0
 23 24  1  0  0  0  0
 24 25  1  0  0  0  0
 24 55  1  0  0  0  0
 24 56  1  0  0  0  0
 25 57  1  0  0  0  0
 25 58  1  0  0  0  0
 26 27  1  0  0  0  0
 27 28  2  0  0  0  0
 27 59  1  0  0  0  0
 28 29  1  0  0  0  0
M  END
> <s_m_source_file>
AV-unprocessed.smi

> <i_m_source_file_index>
153

> <i_lp_mmshare_version>
43012

> <i_f3d_flags>
0

> <s_epik_input>
W0NIMl0xW0NIMl1PW0NAQEhdKFtDSDNdKVtDQEBdMShbT0hdKVtDSDJdbihbY0hdbjIpYyhjMjMpbltjSF1uYzNOKFtDSDNdKVtDSDJdW0NASF0oW09IXSlbQ0gyXU40W0NIMl1bQ0gyXU9bQ0gyXVtDSDJdNA==

> <s_epik_cmdline>
J2VwaWtfcHl0aG9uJywgJy1waCcsICc3LjAnLCAnLXRuJywgJzgnLCAnLW1hJywgJzIwMCcsICctbWV0YWxfYmluZGluZycsICctaW1hZScsICc8aW5maWxlLm1hZT4nLCAnLW9tYWUnLCAnPG91dGZpbGUubWFlPic=

> <r_lp_tautomer_probability>
1

> <r_epik_Ionization_Penalty>
0.424123

> <r_epik_Ionization_Penalty_Charging>
0

> <r_epik_Ionization_Penalty_Neutral>
0.424123

> <r_epik_State_Penalty>
0.421495

> <r_epik_Charging_Adjusted_Penalty>
0.421495

> <i_epik_Tot_Q>
0

> <i_epik_Tot_abs_Q>
0

> <r_epik_Metal_State_Penalty>
0.421223

> <b_epik_Metal_Only>
0

> <s_lp_Force_Field>
OPLS_2005

> <r_lp_Energy>
59.2103

> <b_lp_Chiralities_Consistent>
1

> <s_lp_Variant>
AV-unprocessed.smi:153-15

> <Gold.Version>
5.8.1

> <Gold.Id.Protein>
6NUR|6NUR_protein|mol2

> <Gold.PLP.Fitness>
41.8136

> <Gold.PLP.PLP>
-35.2455

> <Gold.PLP.part.hbond>
-3.0000

> <Gold.PLP.part.metal>
0.0000

> <Gold.PLP.part.buried>
-5.0449

> <Gold.PLP.part.nonpolar>
-27.1377

> <Gold.PLP.part.repulsive>
0.5671

> <Gold.PLP.ligand.clash>
0.0000

> <Gold.PLP.ligand.torsion>
1.3720

> <Gold.PLP.Chemscore.Hbond>
2.8260

> <Gold.PLP.Chemscore.CHOScore>
0.0000

> <Gold.PLP.Chemscore.Metal>
0.0000

> <Gold.Chemscore.Hbonds>
donor molecule, donor type, donor heavy atom, donor atom, acceptor molecule, acceptor atom, score
      L1  H     7    38       P1  7948  0.88
      P1  H  7989  7998       L1    18  0.94
      P1  H 10752 10763       L1    26  1.00

> <Gold.PLP.Chemscore.Internal.Correction>
0.8341

> <Gold.Rescore>
     Score         DG    S(hbond)    S(metal)    S(lipo)     H(rot)  DE(clash)    DE(int)     intcor
     11.09     -13.76       2.15        0.00      86.32       3.52       0.10       2.57       ----

> <Gold.Chemscore.Fitness>
11.0877

> <Gold.Chemscore.DG>
-13.7550

> <Gold.Chemscore.ZeroCoef>
-5.4800

> <Gold.Chemscore.Hbond>
2.1496

> <Gold.Chemscore.Metal>
0.0000

> <Gold.Chemscore.Lipo>
86.3152

> <Gold.Chemscore.Internal_Hbond>
0.0000

> <Gold.Chemscore.DEClash>
0.1007

> <Gold.Chemscore.DEInternal>
2.5666

> <Gold.Chemscore.Rot>
3.5170

> <Gold.Chemscore.Internal.Correction>
   9.000000E+99

> <Gold.Chemscore.Hbonds>
donor molecule, donor type, donor heavy atom, donor atom, acceptor molecule, acceptor atom, score
      L1  H     7    38       P1  7948  0.86
      P1  H  7989  7998       L1    18  0.53
      P1  H 10752 10763       L1    26  0.25

> <Gold.Chemscore.Hbond.Weighted>
-7.1798

> <Gold.Chemscore.Metal.Weighted>
-0.0000

> <Gold.Chemscore.Lipo.Weighted>
-10.0989

> <Gold.Chemscore.Internal_Hbond.Weighted>
0.0000

> <Gold.Chemscore.DEClash.Weighted>
0.1007

> <Gold.Chemscore.DEInternal.Weighted>
2.5666

> <Gold.Chemscore.Rot.Weighted>
9.0036

> <Gold.Chemscore.Internal.Correction.Weighted>
   9.000000E+99

> <Gold.Protein.RotatedTorsions>
[ 6907 6896 6895 6894 ] final  141.79 input  -60.11 | X-H torsion
[ 7974 7965 7964 7962 ] final  -12.92 input  175.53 | X-H torsion
[ 8008 7997 7996 7995 ] final   72.98 input   59.86 | X-H torsion
[ 10167 10162 10161 10158 ] final  -95.67 input  -65.29 | X-H torsion
[ 10718 10713 10712 10709 ] final  -46.15 input   66.30 | X-H torsion
[ 10763 10752 10751 10750 ] final   85.98 input  -60.55 | X-H torsion
[ 11005 11000 10999 10996 ] final   14.67 input  -57.11 | X-H torsion

> <Gold.Protein.ActiveResidues>
 VAL166  LYS551  ARG553  GLY616  TRP617  ASP618  TYR619  PRO620  LYS621  CYS622 
 ASP623  PHE694  ASN695  SER759  ASP760  ASP761  ALA762  ILE779  LEU786  VAL792 
 PHE793  MET794  SER795  GLU796  ALA797  LYS798  CYS799  TRP800  GLU811  SER814 

> <Gold.Protein.RotatedAtoms>
  152.2266  133.5025  159.5192 H   0  0  0  0  0  0  0  0  0  0  0  0  # atno 6907 bound_to 6896
  150.7026  134.1271  159.4065 H   0  0  0  0  0  0  0  0  0  0  0  0  # atno 6908 bound_to 6896
  151.9192  135.0305  160.0571 H   0  0  0  0  0  0  0  0  0  0  0  0  # atno 6909 bound_to 6896
  146.2134  140.3128  142.8384 H   0  0  0  0  0  0  0  0  0  0  0  0  # atno 7974 bound_to 7965
  155.7769  140.3483  155.5276 H   0  0  0  0  0  0  0  0  0  0  0  0  # atno 8008 bound_to 7997
  155.8767  140.0995  157.1534 H   0  0  0  0  0  0  0  0  0  0  0  0  # atno 8009 bound_to 7997
  154.4021  140.1330  156.4133 H   0  0  0  0  0  0  0  0  0  0  0  0  # atno 8010 bound_to 7997
  140.3018  143.3158  152.0240 H   0  0  0  0  0  0  0  0  0  0  0  0  # atno 10167 bound_to 10162
  156.2212  130.4166  149.8990 H   0  0  0  0  0  0  0  0  0  0  0  0  # atno 10718 bound_to 10713
  153.1527  135.4597  154.9660 H   0  0  0  0  0  0  0  0  0  0  0  0  # atno 10763 bound_to 10752
  154.7837  135.3197  154.7936 H   0  0  0  0  0  0  0  0  0  0  0  0  # atno 10764 bound_to 10752
  153.8438  135.6927  153.4854 H   0  0  0  0  0  0  0  0  0  0  0  0  # atno 10765 bound_to 10752
  140.4669  134.1071  155.7726 H   0  0  0  0  0  0  0  0  0  0  0  0  # atno 11005 bound_to 11000
  144.8976  140.7602  143.5887 LP  0  0  0  0  0  0  0  0  0  0  0  0  # atno 17320 bound_to 7965
  145.3052  139.1837  143.4668 LP  0  0  0  0  0  0  0  0  0  0  0  0  # atno 17321 bound_to 7965
  139.4913  144.6450  151.6797 LP  0  0  0  0  0  0  0  0  0  0  0  0  # atno 17342 bound_to 10162
  140.5644  144.0214  150.6185 LP  0  0  0  0  0  0  0  0  0  0  0  0  # atno 17343 bound_to 10162
  156.6636  130.8792  151.3551 LP  0  0  0  0  0  0  0  0  0  0  0  0  # atno 17370 bound_to 10713
  157.7088  130.9416  150.1020 LP  0  0  0  0  0  0  0  0  0  0  0  0  # atno 17371 bound_to 10713
  141.1595  133.8819  157.1886 LP  0  0  0  0  0  0  0  0  0  0  0  0  # atno 17394 bound_to 11000
  139.9910  135.0064  156.9974 LP  0  0  0  0  0  0  0  0  0  0  0  0  # atno 17395 bound_to 11000

$$$$
