AV-unprocessed.smi:2087|AV-procd|sdf|8523|dock4
  -GOLD-   2272011243D 1   1.00000     0.00000
 Structure written by MMmdl.
 51 52  0  0  0  0  0  0  0  0  2 V2000
  150.1372  144.8793  159.5773 C   0  0  0  0  0  0  0  0  0  0  0  0
  151.2318  143.8295  159.3203 C   0  0  0  0  0  0  0  0  0  0  0  0
  152.5575  144.2724  159.9573 C   0  0  0  0  0  0  0  0  0  0  0  0
  151.4197  143.5518  157.8131 C   0  0  0  0  0  0  0  0  0  0  0  0
  150.2916  142.7905  157.2182 N   0  3  2  0  0  0  0  0  0  0  0  0
  149.4346  142.1103  158.2211 C   0  0  0  0  0  0  0  0  0  0  0  0
  148.2717  141.3806  157.5280 C   0  0  0  0  0  0  0  0  0  0  0  0
  148.7872  140.4730  156.5626 O   0  0  0  0  0  0  0  0  0  0  0  0
  149.5207  141.1380  155.5386 C   0  0  2  0  0  0  0  0  0  0  0  0
  149.9269  140.1023  154.4737 C   0  0  0  0  0  0  0  0  0  0  0  0
  150.5440  138.9320  155.0867 N   0  0  0  0  0  0  0  0  0  0  0  0
  151.8533  138.8016  155.3458 C   0  0  0  0  0  0  0  0  0  0  0  0
  152.6690  139.7095  155.1804 O   0  0  0  0  0  0  0  0  0  0  0  0
  152.3092  137.4308  155.8607 C   0  0  0  0  0  0  0  0  0  0  0  0
  151.2468  136.4194  155.7770 N   0  0  0  0  0  0  0  0  0  0  0  0
  150.8740  135.9165  154.5435 C   0  0  0  0  0  0  0  0  0  0  0  0
  149.9064  134.9883  154.3789 C   0  0  0  0  0  0  0  0  0  0  0  0
  149.1786  134.4559  155.5241 C   0  0  0  0  0  0  0  0  0  0  0  0
  148.3002  133.5978  155.4274 O   0  0  0  0  0  0  0  0  0  0  0  0
  149.5676  134.9961  156.7720 N   0  0  0  0  0  0  0  0  0  0  0  0
  148.8820  134.4992  157.9473 C   0  0  0  0  0  0  0  0  0  0  0  0
  150.5964  135.9509  156.9413 C   0  0  0  0  0  0  0  0  0  0  0  0
  150.9292  136.3696  158.0533 O   0  0  0  0  0  0  0  0  0  0  0  0
  150.7369  141.8295  156.1811 C   0  0  0  0  0  0  0  0  0  0  0  0
  150.3767  145.8278  159.0953 H   0  0  0  0  0  0  0  0  0  0  0  0
  150.0196  145.0705  160.6445 H   0  0  0  0  0  0  0  0  0  0  0  0
  149.1689  144.5495  159.2003 H   0  0  0  0  0  0  0  0  0  0  0  0
  150.9366  142.9073  159.8202 H   0  0  0  0  0  0  0  0  0  0  0  0
  152.9187  145.2020  159.5161 H   0  0  0  0  0  0  0  0  0  0  0  0
  153.3322  143.5169  159.8220 H   0  0  0  0  0  0  0  0  0  0  0  0
  152.4439  144.4355  161.0296 H   0  0  0  0  0  0  0  0  0  0  0  0
  151.5204  144.5096  157.3005 H   0  0  0  0  0  0  0  0  0  0  0  0
  152.3513  143.0125  157.6327 H   0  0  0  0  0  0  0  0  0  0  0  0
  150.0330  141.3976  158.7908 H   0  0  0  0  0  0  0  0  0  0  0  0
  149.0324  142.8302  158.9329 H   0  0  0  0  0  0  0  0  0  0  0  0
  147.6873  140.8228  158.2601 H   0  0  0  0  0  0  0  0  0  0  0  0
  147.5917  142.0895  157.0528 H   0  0  0  0  0  0  0  0  0  0  0  0
  148.8864  141.8963  155.0755 H   0  0  0  0  0  0  0  0  0  0  0  0
  149.0592  139.7959  153.8870 H   0  0  0  0  0  0  0  0  0  0  0  0
  150.6380  140.5406  153.7729 H   0  0  0  0  0  0  0  0  0  0  0  0
  149.9435  138.1393  155.2638 H   0  0  0  0  0  0  0  0  0  0  0  0
  153.1780  137.1213  155.2784 H   0  0  0  0  0  0  0  0  0  0  0  0
  152.6552  137.5105  156.8931 H   0  0  0  0  0  0  0  0  0  0  0  0
  151.3809  136.2813  153.6620 H   0  0  0  0  0  0  0  0  0  0  0  0
  149.6672  134.6348  153.3866 H   0  0  0  0  0  0  0  0  0  0  0  0
  148.9909  135.1962  158.7784 H   0  0  0  0  0  0  0  0  0  0  0  0
  149.3223  133.5299  158.1852 H   0  0  0  0  0  0  0  0  0  0  0  0
  147.8191  134.4092  157.7169 H   0  0  0  0  0  0  0  0  0  0  0  0
  151.3059  142.3552  155.4131 H   0  0  0  0  0  0  0  0  0  0  0  0
  151.4039  141.0900  156.6273 H   0  0  0  0  0  0  0  0  0  0  0  0
  149.7107  143.4660  156.7419 H   0  0  0  0  0  0  0  0  0  0  0  0
  1  2  1  0  0  0  0
  1 25  1  0  0  0  0
  1 26  1  0  0  0  0
  1 27  1  0  0  0  0
  2  3  1  0  0  0  0
  2  4  1  0  0  0  0
  2 28  1  0  0  0  0
  3 29  1  0  0  0  0
  3 30  1  0  0  0  0
  3 31  1  0  0  0  0
  4  5  1  0  0  0  0
  4 32  1  0  0  0  0
  4 33  1  0  0  0  0
  5 24  1  0  0  0  0
  5  6  1  0  0  0  0
  5 51  1  0  0  0  0
  6  7  1  0  0  0  0
  6 34  1  0  0  0  0
  6 35  1  0  0  0  0
  7  8  1  0  0  0  0
  7 36  1  0  0  0  0
  7 37  1  0  0  0  0
  8  9  1  0  0  0  0
  9 10  1  0  0  0  0
  9 24  1  0  0  0  0
  9 38  1  0  0  0  0
 10 11  1  0  0  0  0
 10 39  1  0  0  0  0
 10 40  1  0  0  0  0
 11 12  1  0  0  0  0
 11 41  1  0  0  0  0
 12 13  2  0  0  0  0
 12 14  1  0  0  0  0
 14 15  1  0  0  0  0
 14 42  1  0  0  0  0
 14 43  1  0  0  0  0
 15 22  1  0  0  0  0
 15 16  1  0  0  0  0
 16 17  2  0  0  0  0
 16 44  1  0  0  0  0
 17 18  1  0  0  0  0
 17 45  1  0  0  0  0
 18 19  2  0  0  0  0
 18 20  1  0  0  0  0
 20 21  1  0  0  0  0
 20 22  1  0  0  0  0
 21 46  1  0  0  0  0
 21 47  1  0  0  0  0
 21 48  1  0  0  0  0
 22 23  2  0  0  0  0
 24 49  1  0  0  0  0
 24 50  1  0  0  0  0
M  CHG  1   5   1
M  END
> <s_m_source_file>
AV-unprocessed.smi

> <i_m_source_file_index>
2087

> <i_lp_mmshare_version>
43012

> <i_f3d_flags>
0

> <s_epik_input>
W0NIM11bQ0hdKFtDSDNdKVtDSDJdTjFbQ0gyXVtDSDJdT1tDQEhdKFtDSDJdMSlbQ0gyXVtOSF1DKD1PKVtDSDJdbjJbY0hdW2NIXWMoPU8pbihbQ0gzXSljMj1P

> <s_epik_cmdline>
J2VwaWtfcHl0aG9uJywgJy1waCcsICc3LjAnLCAnLXRuJywgJzgnLCAnLW1hJywgJzIwMCcsICctbWV0YWxfYmluZGluZycsICctaW1hZScsICc8aW5maWxlLm1hZT4nLCAnLW9tYWUnLCAnPG91dGZpbGUubWFlPic=

> <r_lp_tautomer_probability>
1

> <r_epik_Ionization_Penalty>
0.097593

> <r_epik_Ionization_Penalty_Charging>
0.097593

> <r_epik_Ionization_Penalty_Neutral>
6.27044e-08

> <r_epik_State_Penalty>
0.0877056

> <r_epik_Charging_Adjusted_Penalty>
0.185299

> <i_epik_Tot_Q>
1

> <i_epik_Tot_abs_Q>
1

> <r_epik_Metal_State_Penalty>
0.0877109

> <b_epik_Metal_Only>
0

> <s_lp_Force_Field>
OPLS_2005

> <r_lp_Energy>
25.7141

> <b_lp_Chiralities_Consistent>
1

> <s_lp_Variant>
AV-unprocessed.smi:2087-4

> <Gold.Version>
5.8.1

> <Gold.Id.Protein>
6NUR|6NUR_protein|mol2

> <Gold.PLP.Fitness>
46.2022

> <Gold.PLP.PLP>
-34.7695

> <Gold.PLP.part.hbond>
-3.1957

> <Gold.PLP.part.metal>
0.0000

> <Gold.PLP.part.buried>
-4.0787

> <Gold.PLP.part.nonpolar>
-28.3609

> <Gold.PLP.part.repulsive>
0.1126

> <Gold.PLP.ligand.clash>
1.1149

> <Gold.PLP.ligand.torsion>
1.1024

> <Gold.PLP.Chemscore.Hbond>
3.8424

> <Gold.PLP.Chemscore.CHOScore>
1.0000

> <Gold.PLP.Chemscore.Metal>
0.0000

> <Gold.Chemscore.Hbonds>
donor molecule, donor type, donor heavy atom, donor atom, acceptor molecule, acceptor atom, score
      L1  H     5    51       P1  8028  2.00
      P1  H  6896  6908       L1    23  0.38
      P1  H  7989  7998       L1    13  0.24
      P1  H  7997  8010       L1    13  1.00
      L1  C    16    44       P1  7949  1.00

> <Gold.PLP.Chemscore.Internal.Correction>
0.2252

> <Gold.Rescore>
     Score         DG    S(hbond)    S(metal)    S(lipo)     H(rot)  DE(clash)    DE(int)     intcor
     17.76     -18.94       2.66        0.00      87.67       2.22       0.12       1.06       ----

> <Gold.Chemscore.Fitness>
17.7630

> <Gold.Chemscore.DG>
-18.9425

> <Gold.Chemscore.ZeroCoef>
-5.4800

> <Gold.Chemscore.Hbond>
2.6649

> <Gold.Chemscore.Metal>
0.0000

> <Gold.Chemscore.Lipo>
87.6717

> <Gold.Chemscore.Internal_Hbond>
0.0000

> <Gold.Chemscore.DEClash>
0.1162

> <Gold.Chemscore.DEInternal>
1.0633

> <Gold.Chemscore.Rot>
2.2249

> <Gold.Chemscore.Internal.Correction>
   9.000000E+99

> <Gold.Chemscore.Hbonds>
donor molecule, donor type, donor heavy atom, donor atom, acceptor molecule, acceptor atom, score
      L1  H     5    51       P1  8028  1.00
      P1  H  6896  6908       L1    23  0.36
      P1  H  7989  7998       L1    13  0.07
      P1  H  7997  8010       L1    13  0.97

> <Gold.Chemscore.Hbond.Weighted>
-8.9007

> <Gold.Chemscore.Metal.Weighted>
-0.0000

> <Gold.Chemscore.Lipo.Weighted>
-10.2576

> <Gold.Chemscore.Internal_Hbond.Weighted>
0.0000

> <Gold.Chemscore.DEClash.Weighted>
0.1162

> <Gold.Chemscore.DEInternal.Weighted>
1.0633

> <Gold.Chemscore.Rot.Weighted>
5.6957

> <Gold.Chemscore.Internal.Correction.Weighted>
   9.000000E+99

> <Gold.Protein.RotatedTorsions>
[ 6907 6896 6895 6894 ] final -161.38 input  -60.11 | X-H torsion
[ 7974 7965 7964 7962 ] final   84.94 input  175.53 | X-H torsion
[ 8008 7997 7996 7995 ] final   88.22 input   59.86 | X-H torsion
[ 10167 10162 10161 10158 ] final  -62.37 input  -65.29 | X-H torsion
[ 10718 10713 10712 10709 ] final -150.35 input   66.30 | X-H torsion
[ 10763 10752 10751 10750 ] final    9.25 input  -60.55 | X-H torsion
[ 11005 11000 10999 10996 ] final  -59.22 input  -57.11 | X-H torsion

> <Gold.Protein.ActiveResidues>
 VAL166  LYS551  ARG553  GLY616  TRP617  ASP618  TYR619  PRO620  LYS621  CYS622 
 ASP623  PHE694  ASN695  SER759  ASP760  ASP761  ALA762  ILE779  LEU786  VAL792 
 PHE793  MET794  SER795  GLU796  ALA797  LYS798  CYS799  TRP800  GLU811  SER814 

> <Gold.Protein.RotatedAtoms>
  151.3638  133.3879  159.2692 H   0  0  0  0  0  0  0  0  0  0  0  0  # atno 6907 bound_to 6896
  150.9704  134.9079  159.7795 H   0  0  0  0  0  0  0  0  0  0  0  0  # atno 6908 bound_to 6896
  152.5182  134.3600  159.9333 H   0  0  0  0  0  0  0  0  0  0  0  0  # atno 6909 bound_to 6896
  145.5920  139.2339  143.2294 H   0  0  0  0  0  0  0  0  0  0  0  0  # atno 7974 bound_to 7965
  155.9850  140.3374  155.6699 H   0  0  0  0  0  0  0  0  0  0  0  0  # atno 8008 bound_to 7997
  155.6497  140.0704  157.2609 H   0  0  0  0  0  0  0  0  0  0  0  0  # atno 8009 bound_to 7997
  154.4202  140.1728  156.1649 H   0  0  0  0  0  0  0  0  0  0  0  0  # atno 8010 bound_to 7997
  140.5943  143.2348  151.6070 H   0  0  0  0  0  0  0  0  0  0  0  0  # atno 10167 bound_to 10162
  156.4450  130.8140  151.2371 H   0  0  0  0  0  0  0  0  0  0  0  0  # atno 10718 bound_to 10713
  153.2160  135.6875  153.8056 H   0  0  0  0  0  0  0  0  0  0  0  0  # atno 10763 bound_to 10752
  153.7272  135.3258  155.3279 H   0  0  0  0  0  0  0  0  0  0  0  0  # atno 10764 bound_to 10752
  154.8246  135.4627  154.0988 H   0  0  0  0  0  0  0  0  0  0  0  0  # atno 10765 bound_to 10752
  141.1239  133.6615  156.5038 H   0  0  0  0  0  0  0  0  0  0  0  0  # atno 11005 bound_to 11000
  146.1639  140.6746  142.9264 LP  0  0  0  0  0  0  0  0  0  0  0  0  # atno 17320 bound_to 7965
  144.7347  140.4774  143.6912 LP  0  0  0  0  0  0  0  0  0  0  0  0  # atno 17321 bound_to 7965
  139.5248  144.3093  152.1006 LP  0  0  0  0  0  0  0  0  0  0  0  0  # atno 17342 bound_to 10162
  140.2263  144.4414  150.6319 LP  0  0  0  0  0  0  0  0  0  0  0  0  # atno 17343 bound_to 10162
  157.7505  131.0156  150.3510 LP  0  0  0  0  0  0  0  0  0  0  0  0  # atno 17370 bound_to 10713
  156.3876  130.3892  149.7054 LP  0  0  0  0  0  0  0  0  0  0  0  0  # atno 17371 bound_to 10713
  140.4424  134.7003  157.4998 LP  0  0  0  0  0  0  0  0  0  0  0  0  # atno 17394 bound_to 11000
  140.0220  134.6533  155.9226 LP  0  0  0  0  0  0  0  0  0  0  0  0  # atno 17395 bound_to 11000

$$$$
