AV-unprocessed.smi:1697|AV-procd|sdf|6806|dock7
  -GOLD-   22720 7583D 1   1.00000     0.00000
 Structure written by MMmdl.
 54 56  0  0  0  0  0  0  0  0  2 V2000
  144.5226  142.1638  159.7685 C   0  0  0  0  0  0  0  0  0  0  0  0
  144.8368  141.0941  158.7205 C   0  0  0  0  0  0  0  0  0  0  0  0
  144.7447  141.6820  157.4312 O   0  0  0  0  0  0  0  0  0  0  0  0
  145.5431  142.8459  157.2506 C   0  0  2  0  0  0  0  0  0  0  0  0
  145.5477  143.3053  155.7804 C   0  0  0  0  0  0  0  0  0  0  0  0
  146.2167  142.2632  154.8685 C   0  0  0  0  0  0  0  0  0  0  0  0
  147.6023  141.9654  155.3199 N   0  3  2  0  0  0  0  0  0  0  0  0
  148.3384  141.0613  154.3987 C   0  0  0  0  0  0  0  0  0  0  0  0
  149.6265  140.4991  155.0315 C   0  0  1  0  0  0  0  0  0  0  0  0
  150.4004  139.8853  154.0180 O   0  0  0  0  0  0  0  0  0  0  0  0
  150.4593  141.6001  155.7158 C   0  0  0  0  0  0  0  0  0  0  0  0
  151.3177  141.0741  156.7624 N   0  0  0  0  0  0  0  0  0  0  0  0
  151.9875  139.9056  156.7467 C   0  0  0  0  0  0  0  0  0  0  0  0
  152.7278  139.6132  157.8115 N   0  0  0  0  0  0  0  0  0  0  0  0
  152.5118  140.7205  158.6137 C   0  0  0  0  0  0  0  0  0  0  0  0
  153.0154  141.0361  159.8945 C   0  0  0  0  0  0  0  0  0  0  0  0
  152.6571  142.2422  160.5371 C   0  0  0  0  0  0  0  0  0  0  0  0
  153.2229  142.5411  161.9143 C   0  0  0  0  0  0  0  0  0  0  0  0
  151.7811  143.1554  159.8972 C   0  0  0  0  0  0  0  0  0  0  0  0
  151.3822  144.4570  160.5695 C   0  0  0  0  0  0  0  0  0  0  0  0
  151.2696  142.8566  158.6169 C   0  0  0  0  0  0  0  0  0  0  0  0
  151.6332  141.6527  157.9876 C   0  0  0  0  0  0  0  0  0  0  0  0
  147.6273  141.4835  156.7251 C   0  0  0  0  0  0  0  0  0  0  0  0
  146.9783  142.5034  157.6780 C   0  0  0  0  0  0  0  0  0  0  0  0
  144.5737  141.7497  160.7757 H   0  0  0  0  0  0  0  0  0  0  0  0
  143.5211  142.5699  159.6247 H   0  0  0  0  0  0  0  0  0  0  0  0
  145.2315  142.9900  159.7096 H   0  0  0  0  0  0  0  0  0  0  0  0
  145.8342  140.6919  158.8964 H   0  0  0  0  0  0  0  0  0  0  0  0
  144.1273  140.2703  158.8103 H   0  0  0  0  0  0  0  0  0  0  0  0
  145.1732  143.6475  157.8922 H   0  0  0  0  0  0  0  0  0  0  0  0
  144.5372  143.5146  155.4311 H   0  0  0  0  0  0  0  0  0  0  0  0
  146.0899  144.2486  155.7021 H   0  0  0  0  0  0  0  0  0  0  0  0
  145.6294  141.3434  154.8569 H   0  0  0  0  0  0  0  0  0  0  0  0
  146.2221  142.6425  153.8476 H   0  0  0  0  0  0  0  0  0  0  0  0
  147.7019  140.2229  154.1106 H   0  0  0  0  0  0  0  0  0  0  0  0
  148.5656  141.5978  153.4761 H   0  0  0  0  0  0  0  0  0  0  0  0
  149.3827  139.7406  155.7747 H   0  0  0  0  0  0  0  0  0  0  0  0
  149.9125  139.9055  153.2085 H   0  0  0  0  0  0  0  0  0  0  0  0
  151.0765  142.1269  154.9868 H   0  0  0  0  0  0  0  0  0  0  0  0
  149.8009  142.3469  156.1616 H   0  0  0  0  0  0  0  0  0  0  0  0
  151.9309  139.2326  155.9036 H   0  0  0  0  0  0  0  0  0  0  0  0
  153.6833  140.3407  160.3814 H   0  0  0  0  0  0  0  0  0  0  0  0
  152.4187  142.6548  162.6415 H   0  0  0  0  0  0  0  0  0  0  0  0
  153.8066  143.4616  161.8954 H   0  0  0  0  0  0  0  0  0  0  0  0
  153.8752  141.7386  162.2599 H   0  0  0  0  0  0  0  0  0  0  0  0
  150.7002  145.0349  159.9451 H   0  0  0  0  0  0  0  0  0  0  0  0
  152.2611  145.0720  160.7634 H   0  0  0  0  0  0  0  0  0  0  0  0
  150.8809  144.2595  161.5173 H   0  0  0  0  0  0  0  0  0  0  0  0
  150.6033  143.5449  158.1189 H   0  0  0  0  0  0  0  0  0  0  0  0
  147.1148  140.5223  156.7908 H   0  0  0  0  0  0  0  0  0  0  0  0
  148.6583  141.3138  157.0378 H   0  0  0  0  0  0  0  0  0  0  0  0
  147.5783  143.4144  157.6932 H   0  0  0  0  0  0  0  0  0  0  0  0
  146.9822  142.1176  158.6981 H   0  0  0  0  0  0  0  0  0  0  0  0
  148.1087  142.8398  155.3155 H   0  0  0  0  0  0  0  0  0  0  0  0
  1  2  1  0  0  0  0
  1 25  1  0  0  0  0
  1 26  1  0  0  0  0
  1 27  1  0  0  0  0
  2  3  1  0  0  0  0
  2 28  1  0  0  0  0
  2 29  1  0  0  0  0
  3  4  1  0  0  0  0
  4 24  1  0  0  0  0
  4  5  1  0  0  0  0
  4 30  1  0  0  0  0
  5  6  1  0  0  0  0
  5 31  1  0  0  0  0
  5 32  1  0  0  0  0
  6  7  1  0  0  0  0
  6 33  1  0  0  0  0
  6 34  1  0  0  0  0
  7  8  1  0  0  0  0
  7 23  1  0  0  0  0
  7 54  1  0  0  0  0
  8  9  1  0  0  0  0
  8 35  1  0  0  0  0
  8 36  1  0  0  0  0
  9 10  1  0  0  0  0
  9 11  1  0  0  0  0
  9 37  1  0  0  0  0
 10 38  1  0  0  0  0
 11 12  1  0  0  0  0
 11 39  1  0  0  0  0
 11 40  1  0  0  0  0
 12 22  1  0  0  0  0
 12 13  1  0  0  0  0
 13 14  2  0  0  0  0
 13 41  1  0  0  0  0
 14 15  1  0  0  0  0
 15 22  2  0  0  0  0
 15 16  1  0  0  0  0
 16 17  2  0  0  0  0
 16 42  1  0  0  0  0
 17 18  1  0  0  0  0
 17 19  1  0  0  0  0
 18 43  1  0  0  0  0
 18 44  1  0  0  0  0
 18 45  1  0  0  0  0
 19 20  1  0  0  0  0
 19 21  2  0  0  0  0
 20 46  1  0  0  0  0
 20 47  1  0  0  0  0
 20 48  1  0  0  0  0
 21 22  1  0  0  0  0
 21 49  1  0  0  0  0
 23 24  1  0  0  0  0
 23 50  1  0  0  0  0
 23 51  1  0  0  0  0
 24 52  1  0  0  0  0
 24 53  1  0  0  0  0
M  CHG  1   7   1
M  END
> <s_m_source_file>
AV-unprocessed.smi

> <i_m_source_file_index>
1697

> <i_lp_mmshare_version>
43012

> <i_f3d_flags>
0

> <s_epik_input>
W0NIM11bQ0gyXU9bQ0hdMVtDSDJdW0NIMl1OKFtDSDJdW0NIMl0xKVtDSDJdW0NASF0oW09IXSlbQ0gyXW4oW2NIXW4yKWMoYzIzKVtjSF1jKFtDSDNdKWMoW2NIXTMpW0NIM10=

> <s_epik_cmdline>
J2VwaWtfcHl0aG9uJywgJy1waCcsICc3LjAnLCAnLXRuJywgJzgnLCAnLW1hJywgJzIwMCcsICctbWV0YWxfYmluZGluZycsICctaW1hZScsICc8aW5maWxlLm1hZT4nLCAnLW9tYWUnLCAnPG91dGZpbGUubWFlPic=

> <r_epik_Ionization_Penalty>
0.112476

> <r_epik_Ionization_Penalty_Charging>
0.0244612

> <r_epik_Ionization_Penalty_Neutral>
0.0880147

> <r_epik_State_Penalty>
0.0961447

> <r_epik_Charging_Adjusted_Penalty>
0.120606

> <i_epik_Tot_Q>
1

> <i_epik_Tot_abs_Q>
1

> <r_epik_Metal_State_Penalty>
0.0206204

> <b_epik_Metal_Only>
0

> <s_lp_Force_Field>
OPLS_2005

> <r_lp_Energy>
22.8638

> <b_lp_Chiralities_Consistent>
1

> <s_lp_Variant>
AV-unprocessed.smi:1697-4

> <Gold.Version>
5.8.1

> <Gold.Id.Protein>
6NUR|6NUR_protein|mol2

> <Gold.PLP.Fitness>
60.2737

> <Gold.PLP.PLP>
-47.1933

> <Gold.PLP.part.hbond>
-3.9448

> <Gold.PLP.part.metal>
0.0000

> <Gold.PLP.part.buried>
-7.1264

> <Gold.PLP.part.nonpolar>
-35.9312

> <Gold.PLP.part.repulsive>
0.0717

> <Gold.PLP.ligand.clash>
0.0000

> <Gold.PLP.ligand.torsion>
0.8518

> <Gold.PLP.Chemscore.Hbond>
4.8560

> <Gold.PLP.Chemscore.CHOScore>
0.0000

> <Gold.PLP.Chemscore.Metal>
0.0000

> <Gold.Chemscore.Hbonds>
donor molecule, donor type, donor heavy atom, donor atom, acceptor molecule, acceptor atom, score
      L1  H     7    54       P1  8028  1.95
      L1  H    10    38       P1  7957  0.89
      P1  H  7989  7998       L1    10  0.75
      P1  H  7997  8008       L1    14  0.64

> <Gold.PLP.Chemscore.Internal.Correction>
0.2160

> <Gold.Rescore>
     Score         DG    S(hbond)    S(metal)    S(lipo)     H(rot)  DE(clash)    DE(int)     intcor
     21.92     -23.12       2.96        0.00     115.91       2.27       0.47       0.73       ----

> <Gold.Chemscore.Fitness>
21.9210

> <Gold.Chemscore.DG>
-23.1205

> <Gold.Chemscore.ZeroCoef>
-5.4800

> <Gold.Chemscore.Hbond>
2.9619

> <Gold.Chemscore.Metal>
0.0000

> <Gold.Chemscore.Lipo>
115.9099

> <Gold.Chemscore.Internal_Hbond>
0.0000

> <Gold.Chemscore.DEClash>
0.4694

> <Gold.Chemscore.DEInternal>
0.7301

> <Gold.Chemscore.Rot>
2.2710

> <Gold.Chemscore.Internal.Correction>
   9.000000E+99

> <Gold.Chemscore.Hbonds>
donor molecule, donor type, donor heavy atom, donor atom, acceptor molecule, acceptor atom, score
      L1  H     7    54       P1  8028  0.87
      L1  H    10    38       P1  7957  0.86
      P1  H  7989  7998       L1    10  0.07
      P1  H  7997  8008       L1    14  0.02

> <Gold.Chemscore.Hbond.Weighted>
-9.8927

> <Gold.Chemscore.Metal.Weighted>
-0.0000

> <Gold.Chemscore.Lipo.Weighted>
-13.5615

> <Gold.Chemscore.Internal_Hbond.Weighted>
0.0000

> <Gold.Chemscore.DEClash.Weighted>
0.4694

> <Gold.Chemscore.DEInternal.Weighted>
0.7301

> <Gold.Chemscore.Rot.Weighted>
5.8137

> <Gold.Chemscore.Internal.Correction.Weighted>
   9.000000E+99

> <Gold.Protein.RotatedTorsions>
[ 6907 6896 6895 6894 ] final -114.60 input  -60.11 | X-H torsion
[ 7974 7965 7964 7962 ] final  -30.21 input  175.53 | X-H torsion
[ 8008 7997 7996 7995 ] final  -73.08 input   59.86 | X-H torsion
[ 10167 10162 10161 10158 ] final   44.88 input  -65.29 | X-H torsion
[ 10718 10713 10712 10709 ] final  148.99 input   66.30 | X-H torsion
[ 10763 10752 10751 10750 ] final  -32.89 input  -60.55 | X-H torsion
[ 11005 11000 10999 10996 ] final  -53.97 input  -57.11 | X-H torsion

> <Gold.Protein.ActiveResidues>
 VAL166  LYS551  ARG553  GLY616  TRP617  ASP618  TYR619  PRO620  LYS621  CYS622 
 ASP623  PHE694  ASN695  SER759  ASP760  ASP761  ALA762  ILE779  LEU786  VAL792 
 PHE793  MET794  SER795  GLU796  ALA797  LYS798  CYS799  TRP800  GLU811  SER814 

> <Gold.Protein.RotatedAtoms>
  150.7914  133.8778  159.3276 H   0  0  0  0  0  0  0  0  0  0  0  0  # atno 6907 bound_to 6896
  151.6615  135.0987  160.0190 H   0  0  0  0  0  0  0  0  0  0  0  0  # atno 6908 bound_to 6896
  152.3989  133.6749  159.6335 H   0  0  0  0  0  0  0  0  0  0  0  0  # atno 6909 bound_to 6896
  146.1159  140.5512  142.8757 H   0  0  0  0  0  0  0  0  0  0  0  0  # atno 7974 bound_to 7965
  154.5218  140.0785  156.8186 H   0  0  0  0  0  0  0  0  0  0  0  0  # atno 8008 bound_to 7997
  155.3560  140.3415  155.4222 H   0  0  0  0  0  0  0  0  0  0  0  0  # atno 8009 bound_to 7997
  156.1689  140.1613  156.8469 H   0  0  0  0  0  0  0  0  0  0  0  0  # atno 8010 bound_to 7997
  140.3298  144.2602  150.6170 H   0  0  0  0  0  0  0  0  0  0  0  0  # atno 10167 bound_to 10162
  157.3017  131.0872  151.1384 H   0  0  0  0  0  0  0  0  0  0  0  0  # atno 10718 bound_to 10713
  153.8212  135.6874  153.4827 H   0  0  0  0  0  0  0  0  0  0  0  0  # atno 10763 bound_to 10752
  153.1568  135.4596  154.9714 H   0  0  0  0  0  0  0  0  0  0  0  0  # atno 10764 bound_to 10752
  154.7927  135.3307  154.7684 H   0  0  0  0  0  0  0  0  0  0  0  0  # atno 10765 bound_to 10752
  141.1003  133.6619  156.4252 H   0  0  0  0  0  0  0  0  0  0  0  0  # atno 11005 bound_to 11000
  144.7553  140.5292  143.6773 LP  0  0  0  0  0  0  0  0  0  0  0  0  # atno 17320 bound_to 7965
  145.5567  139.1478  143.3364 LP  0  0  0  0  0  0  0  0  0  0  0  0  # atno 17321 bound_to 7965
  140.5407  143.2224  151.8089 LP  0  0  0  0  0  0  0  0  0  0  0  0  # atno 17342 bound_to 10162
  139.4858  144.4603  151.9548 LP  0  0  0  0  0  0  0  0  0  0  0  0  # atno 17343 bound_to 10162
  157.2741  130.6718  149.6033 LP  0  0  0  0  0  0  0  0  0  0  0  0  # atno 17370 bound_to 10713
  155.9672  130.4470  150.5563 LP  0  0  0  0  0  0  0  0  0  0  0  0  # atno 17371 bound_to 10713
  140.5039  134.6459  157.5259 LP  0  0  0  0  0  0  0  0  0  0  0  0  # atno 17394 bound_to 11000
  139.9852  134.7073  155.9787 LP  0  0  0  0  0  0  0  0  0  0  0  0  # atno 17395 bound_to 11000

$$$$
