AV-unprocessed.smi:290|AV-procd|sdf|2216|dock9
  -GOLD-   2262022 53D 1   1.00000     0.00000
 Structure written by MMmdl.
 59 62  0  0  0  0  0  0  0  0  2 V2000
  150.2369  138.1294  153.7576 C   0  0  0  0  0  0  0  0  0  0  0  0
  149.9053  138.9697  155.0015 C   0  0  1  0  0  0  0  0  0  0  0  0
  151.0538  139.1238  155.8227 O   0  0  0  0  0  0  0  0  0  0  0  0
  150.7893  140.1980  156.7065 C   0  0  0  0  0  0  0  0  0  0  0  0
  150.1622  141.2407  155.7890 C   0  0  0  0  0  0  0  0  0  0  0  0
  149.3832  140.4116  154.7629 C   0  0  1  0  0  0  0  0  0  0  0  0
  149.7184  140.8857  153.4687 O   0  0  0  0  0  0  0  0  0  0  0  0
  147.8513  140.5452  154.9477 C   0  0  0  0  0  0  0  0  0  0  0  0
  147.0831  139.6465  154.0987 N   0  0  0  0  0  0  0  0  0  0  0  0
  147.1254  139.5749  152.7240 C   0  0  0  0  0  0  0  0  0  0  0  0
  146.3450  138.6771  152.1875 N   0  0  0  0  0  0  0  0  0  0  0  0
  145.7091  138.0907  153.2748 C   0  0  0  0  0  0  0  0  0  0  0  0
  144.7449  137.0547  153.4225 C   0  0  0  0  0  0  0  0  0  0  0  0
  144.1991  136.3600  152.4018 N   0  0  0  0  0  0  0  0  0  0  0  0
  143.2662  135.3077  152.8007 C   0  0  0  0  0  0  0  0  0  0  0  0
  143.4050  134.1956  151.7586 C   0  0  0  0  0  0  0  0  0  0  0  0
  144.8817  134.3301  151.3799 C   0  0  1  0  0  0  0  0  0  0  0  0
  145.3689  133.5853  150.1771 N   0  3  1  0  0  0  0  0  0  0  0  0
  146.7541  133.0882  150.3695 C   0  0  0  0  0  0  0  0  0  0  0  0
  144.4539  132.5289  149.6597 C   0  0  0  0  0  0  0  0  0  0  0  0
  143.8736  132.8620  148.2734 C   0  0  0  0  0  0  0  0  0  0  0  0
  143.4992  134.2219  148.2151 O   0  0  0  0  0  0  0  0  0  0  0  0
  145.1306  135.8519  151.3950 C   0  0  1  0  0  0  0  0  0  0  0  0
  144.9054  136.5986  150.0702 C   0  0  0  0  0  0  0  0  0  0  0  0
  144.3408  136.7322  154.6745 N   0  0  0  0  0  0  0  0  0  0  0  0
  144.8426  137.3875  155.7260 C   0  0  0  0  0  0  0  0  0  0  0  0
  145.7417  138.3742  155.7437 N   0  0  0  0  0  0  0  0  0  0  0  0
  146.1554  138.6940  154.4838 C   0  0  0  0  0  0  0  0  0  0  0  0
  145.4427  133.9520  152.2363 H   0  0  0  0  0  0  0  0  0  0  0  0
  146.1646  136.0312  151.6944 H   0  0  0  0  0  0  0  0  0  0  0  0
  149.3658  138.0228  153.1107 H   0  0  0  0  0  0  0  0  0  0  0  0
  150.5593  137.1284  154.0441 H   0  0  0  0  0  0  0  0  0  0  0  0
  151.0406  138.5774  153.1728 H   0  0  0  0  0  0  0  0  0  0  0  0
  149.1820  138.4205  155.6050 H   0  0  0  0  0  0  0  0  0  0  0  0
  150.0858  139.8791  157.4773 H   0  0  0  0  0  0  0  0  0  0  0  0
  151.6975  140.5549  157.1926 H   0  0  0  0  0  0  0  0  0  0  0  0
  149.5421  141.9518  156.3360 H   0  0  0  0  0  0  0  0  0  0  0  0
  150.9609  141.8092  155.3093 H   0  0  0  0  0  0  0  0  0  0  0  0
  149.4633  140.2333  152.8347 H   0  0  0  0  0  0  0  0  0  0  0  0
  147.5814  140.3494  155.9863 H   0  0  0  0  0  0  0  0  0  0  0  0
  147.5310  141.5668  154.7387 H   0  0  0  0  0  0  0  0  0  0  0  0
  147.7647  140.2095  152.1276 H   0  0  0  0  0  0  0  0  0  0  0  0
  143.5164  134.9258  153.7919 H   0  0  0  0  0  0  0  0  0  0  0  0
  142.2457  135.6894  152.8414 H   0  0  0  0  0  0  0  0  0  0  0  0
  143.1510  133.2121  152.1547 H   0  0  0  0  0  0  0  0  0  0  0  0
  142.7400  134.4103  150.9227 H   0  0  0  0  0  0  0  0  0  0  0  0
  146.7913  132.3430  151.1649 H   0  0  0  0  0  0  0  0  0  0  0  0
  147.4266  133.9043  150.6368 H   0  0  0  0  0  0  0  0  0  0  0  0
  147.1567  132.6394  149.4631 H   0  0  0  0  0  0  0  0  0  0  0  0
  144.9861  131.5772  149.6217 H   0  0  0  0  0  0  0  0  0  0  0  0
  143.6149  132.3789  150.3360 H   0  0  0  0  0  0  0  0  0  0  0  0
  144.5667  132.6366  147.4646 H   0  0  0  0  0  0  0  0  0  0  0  0
  142.9835  132.2584  148.0952 H   0  0  0  0  0  0  0  0  0  0  0  0
  144.2591  134.7354  147.9852 H   0  0  0  0  0  0  0  0  0  0  0  0
  145.5732  136.2385  149.2887 H   0  0  0  0  0  0  0  0  0  0  0  0
  145.1039  137.6636  150.1937 H   0  0  0  0  0  0  0  0  0  0  0  0
  143.8778  136.5023  149.7194 H   0  0  0  0  0  0  0  0  0  0  0  0
  144.4710  137.0766  156.6911 H   0  0  0  0  0  0  0  0  0  0  0  0
  145.4294  134.2792  149.4450 H   0  0  0  0  0  0  0  0  0  0  0  0
  1  2  1  0  0  0  0
  1 31  1  0  0  0  0
  1 32  1  0  0  0  0
  1 33  1  0  0  0  0
  2  6  1  0  0  0  0
  2  3  1  0  0  0  0
  2 34  1  0  0  0  0
  3  4  1  0  0  0  0
  4  5  1  0  0  0  0
  4 35  1  0  0  0  0
  4 36  1  0  0  0  0
  5  6  1  0  0  0  0
  5 37  1  0  0  0  0
  5 38  1  0  0  0  0
  6  7  1  0  0  0  0
  6  8  1  0  0  0  0
  7 39  1  0  0  0  0
  8  9  1  0  0  0  0
  8 40  1  0  0  0  0
  8 41  1  0  0  0  0
  9 28  1  0  0  0  0
  9 10  1  0  0  0  0
 10 11  2  0  0  0  0
 10 42  1  0  0  0  0
 11 12  1  0  0  0  0
 12 28  2  0  0  0  0
 12 13  1  0  0  0  0
 13 14  1  0  0  0  0
 13 25  2  0  0  0  0
 14 23  1  0  0  0  0
 14 15  1  0  0  0  0
 15 16  1  0  0  0  0
 15 43  1  0  0  0  0
 15 44  1  0  0  0  0
 16 17  1  0  0  0  0
 16 45  1  0  0  0  0
 16 46  1  0  0  0  0
 17 29  1  0  0  0  0
 17 18  1  0  0  0  0
 17 23  1  0  0  0  0
 18 19  1  0  0  0  0
 18 20  1  0  0  0  0
 18 59  1  0  0  0  0
 19 47  1  0  0  0  0
 19 48  1  0  0  0  0
 19 49  1  0  0  0  0
 20 21  1  0  0  0  0
 20 50  1  0  0  0  0
 20 51  1  0  0  0  0
 21 22  1  0  0  0  0
 21 52  1  0  0  0  0
 21 53  1  0  0  0  0
 22 54  1  0  0  0  0
 23 30  1  0  0  0  0
 23 24  1  0  0  0  0
 24 55  1  0  0  0  0
 24 56  1  0  0  0  0
 24 57  1  0  0  0  0
 25 26  1  0  0  0  0
 26 27  2  0  0  0  0
 26 58  1  0  0  0  0
 27 28  1  0  0  0  0
M  CHG  1  18   1
M  END
> <s_m_source_file>
AV-unprocessed.smi

> <i_m_source_file_index>
290

> <i_lp_mmshare_version>
43012

> <i_f3d_flags>
0

> <s_epik_input>
W0NIMl0xW0NIMl1PW0NAQEhdKFtDSDNdKVtDQEBdMShbT0hdKVtDSDJdbihbY0hdbjIpYyhjMjMpbltjSF1uYzNONFtDSDJdW0NIMl1bQ0BIXShbQ0BIXTRbQ0gzXSlOKFtDSDNdKVtDSDJdW0NIMl1bT0hd

> <s_epik_cmdline>
J2VwaWtfcHl0aG9uJywgJy1waCcsICc3LjAnLCAnLXRuJywgJzgnLCAnLW1hJywgJzIwMCcsICctbWV0YWxfYmluZGluZycsICctaW1hZScsICc8aW5maWxlLm1hZT4nLCAnLW9tYWUnLCAnPG91dGZpbGUubWFlPic=

> <r_lp_tautomer_probability>
1

> <r_epik_Ionization_Penalty>
0.0036983

> <r_epik_Ionization_Penalty_Charging>
0.0032725

> <r_epik_Ionization_Penalty_Neutral>
0.000425798

> <r_epik_State_Penalty>
-0

> <r_epik_Charging_Adjusted_Penalty>
0.0032725

> <i_epik_Tot_Q>
1

> <i_epik_Tot_abs_Q>
1

> <r_epik_Metal_State_Penalty>
-0

> <b_epik_Metal_Only>
0

> <s_lp_Force_Field>
OPLS_2005

> <r_lp_Energy>
65.8888

> <b_lp_Chiralities_Consistent>
1

> <s_lp_Variant>
AV-unprocessed.smi:290-2

> <Gold.Version>
5.8.1

> <Gold.Id.Protein>
6NUR|6NUR_protein|mol2

> <Gold.PLP.Fitness>
51.4401

> <Gold.PLP.PLP>
-38.0009

> <Gold.PLP.part.hbond>
-6.4050

> <Gold.PLP.part.metal>
0.0000

> <Gold.PLP.part.buried>
5.2901

> <Gold.PLP.part.nonpolar>
-37.2970

> <Gold.PLP.part.repulsive>
0.6240

> <Gold.PLP.ligand.clash>
0.0199

> <Gold.PLP.ligand.torsion>
2.0550

> <Gold.PLP.Chemscore.Hbond>
4.7628

> <Gold.PLP.Chemscore.CHOScore>
1.0000

> <Gold.PLP.Chemscore.Metal>
0.0000

> <Gold.Chemscore.Hbonds>
donor molecule, donor type, donor heavy atom, donor atom, acceptor molecule, acceptor atom, score
      L1  H     7    39       P1  7957  0.72
      L1  H    18    59       P1  7921  0.96
      L1  H    22    54       P1  7921  0.99
      P1  H  7989  7998       L1     7  0.30
      P1  H  8011  8017       L1     7  0.95
      P1  H 10192 10197       L1    22  0.94
      L1  C    10    42       P1  7957  1.00

> <Gold.PLP.Chemscore.Internal.Correction>
0.2809

> <Gold.Rescore>
     Score         DG    S(hbond)    S(metal)    S(lipo)     H(rot)  DE(clash)    DE(int)     intcor
     13.68     -21.05       3.79        0.00     105.15       3.67       4.37       3.00       ----

> <Gold.Chemscore.Fitness>
13.6819

> <Gold.Chemscore.DG>
-21.0519

> <Gold.Chemscore.ZeroCoef>
-5.4800

> <Gold.Chemscore.Hbond>
3.7887

> <Gold.Chemscore.Metal>
0.0000

> <Gold.Chemscore.Lipo>
105.1473

> <Gold.Chemscore.Internal_Hbond>
0.0000

> <Gold.Chemscore.DEClash>
4.3659

> <Gold.Chemscore.DEInternal>
3.0042

> <Gold.Chemscore.Rot>
3.6658

> <Gold.Chemscore.Internal.Correction>
   9.000000E+99

> <Gold.Chemscore.Hbonds>
donor molecule, donor type, donor heavy atom, donor atom, acceptor molecule, acceptor atom, score
      L1  H     7    39       P1  7957  0.72
      L1  H    18    59       P1  7921  0.81
      L1  H    22    54       P1  7921  0.93
      P1  H  7989  7998       L1     7  0.07
      P1  H  8011  8017       L1     7  0.21
      P1  H 10192 10197       L1    22  0.31

> <Gold.Chemscore.Hbond.Weighted>
-12.6541

> <Gold.Chemscore.Metal.Weighted>
-0.0000

> <Gold.Chemscore.Lipo.Weighted>
-12.3022

> <Gold.Chemscore.Internal_Hbond.Weighted>
0.0000

> <Gold.Chemscore.DEClash.Weighted>
4.3659

> <Gold.Chemscore.DEInternal.Weighted>
3.0042

> <Gold.Chemscore.Rot.Weighted>
9.3844

> <Gold.Chemscore.Internal.Correction.Weighted>
   9.000000E+99

> <Gold.Protein.RotatedTorsions>
[ 6907 6896 6895 6894 ] final -158.08 input  -60.11 | X-H torsion
[ 7974 7965 7964 7962 ] final  -94.00 input  175.53 | X-H torsion
[ 8008 7997 7996 7995 ] final -158.68 input   59.86 | X-H torsion
[ 10167 10162 10161 10158 ] final   -8.21 input  -65.29 | X-H torsion
[ 10718 10713 10712 10709 ] final  137.63 input   66.30 | X-H torsion
[ 10763 10752 10751 10750 ] final  160.51 input  -60.55 | X-H torsion
[ 11005 11000 10999 10996 ] final -112.61 input  -57.11 | X-H torsion

> <Gold.Protein.ActiveResidues>
 VAL166  LYS551  ARG553  GLY616  TRP617  ASP618  TYR619  PRO620  LYS621  CYS622 
 ASP623  PHE694  ASN695  SER759  ASP760  ASP761  ALA762  ILE779  LEU786  VAL792 
 PHE793  MET794  SER795  GLU796  ALA797  LYS798  CYS799  TRP800  GLU811  SER814 

> <Gold.Protein.RotatedAtoms>
  151.3126  133.4074  159.2647 H   0  0  0  0  0  0  0  0  0  0  0  0  # atno 6907 bound_to 6896
  151.0101  134.9391  159.8013 H   0  0  0  0  0  0  0  0  0  0  0  0  # atno 6908 bound_to 6896
  152.5298  134.3091  159.9159 H   0  0  0  0  0  0  0  0  0  0  0  0  # atno 6909 bound_to 6896
  145.3791  140.9515  143.2404 H   0  0  0  0  0  0  0  0  0  0  0  0  # atno 7974 bound_to 7965
  155.7512  140.0827  157.2200 H   0  0  0  0  0  0  0  0  0  0  0  0  # atno 8008 bound_to 7997
  154.4012  140.1560  156.2781 H   0  0  0  0  0  0  0  0  0  0  0  0  # atno 8009 bound_to 7997
  155.8929  140.3414  155.5972 H   0  0  0  0  0  0  0  0  0  0  0  0  # atno 8010 bound_to 7997
  140.7052  143.5995  150.8812 H   0  0  0  0  0  0  0  0  0  0  0  0  # atno 10167 bound_to 10162
  157.4340  131.1051  151.0219 H   0  0  0  0  0  0  0  0  0  0  0  0  # atno 10718 bound_to 10713
  154.2485  135.2772  155.2826 H   0  0  0  0  0  0  0  0  0  0  0  0  # atno 10763 bound_to 10752
  154.5485  135.5682  153.6904 H   0  0  0  0  0  0  0  0  0  0  0  0  # atno 10764 bound_to 10752
  152.9985  135.6268  154.2631 H   0  0  0  0  0  0  0  0  0  0  0  0  # atno 10765 bound_to 10752
  141.0664  133.9451  157.2570 H   0  0  0  0  0  0  0  0  0  0  0  0  # atno 11005 bound_to 11000
  144.8521  139.5306  143.6852 LP  0  0  0  0  0  0  0  0  0  0  0  0  # atno 17320 bound_to 7965
  146.2850  139.6980  142.9202 LP  0  0  0  0  0  0  0  0  0  0  0  0  # atno 17321 bound_to 7965
  139.9719  143.6047  152.2971 LP  0  0  0  0  0  0  0  0  0  0  0  0  # atno 17342 bound_to 10162
  139.6637  144.7662  151.1914 LP  0  0  0  0  0  0  0  0  0  0  0  0  # atno 17343 bound_to 10162
  157.1105  130.6020  149.5481 LP  0  0  0  0  0  0  0  0  0  0  0  0  # atno 17370 bound_to 10713
  155.9923  130.4981  150.7336 LP  0  0  0  0  0  0  0  0  0  0  0  0  # atno 17371 bound_to 10713
  139.9481  135.0180  156.8912 LP  0  0  0  0  0  0  0  0  0  0  0  0  # atno 17394 bound_to 11000
  140.5764  134.0394  155.7448 LP  0  0  0  0  0  0  0  0  0  0  0  0  # atno 17395 bound_to 11000

$$$$
