AV-unprocessed.smi:2988|AV-procd|sdf|11390|dock3
  -GOLD-   2272016313D 1   1.00000     0.00000
 Structure written by MMmdl.
 37 38  0  0  0  0  0  0  0  0  1 V2000
  151.0793  140.3605  158.2115 C   0  0  0  0  0  0  0  0  0  0  0  0
  151.2235  141.8756  158.4437 C   0  0  1  0  0  0  0  0  0  0  0  0
  152.3823  142.1662  159.4194 C   0  0  0  0  0  0  0  0  0  0  0  0
  152.5476  143.6708  159.6801 C   0  0  0  0  0  0  0  0  0  0  0  0
  152.7513  144.4380  158.3668 C   0  0  0  0  0  0  0  0  0  0  0  0
  151.5989  144.1710  157.3877 C   0  0  0  0  0  0  0  0  0  0  0  0
  151.4126  142.6628  157.1229 C   0  0  2  0  0  0  0  0  0  0  0  0
  150.2642  142.4601  156.2423 N   0  0  0  0  0  0  0  0  0  0  0  0
  150.0816  141.4099  155.4280 C   0  0  0  0  0  0  0  0  0  0  0  0
  150.8980  140.4958  155.3070 O   0  0  0  0  0  0  0  0  0  0  0  0
  148.7823  141.4077  154.6105 C   0  0  0  0  0  0  0  0  0  0  0  0
  147.5965  141.7161  155.4227 N   0  0  0  0  0  0  0  0  0  0  0  0
  147.6132  141.1515  156.6861 N   0  0  0  0  0  0  0  0  0  0  0  0
  146.6315  141.3708  157.4914 C   0  0  0  0  0  0  0  0  0  0  0  0
  145.4977  142.1881  157.1199 C   0  0  0  0  0  0  0  0  0  0  0  0
  144.2099  142.4469  158.2433 Cl  0  0  0  0  0  0  0  0  0  0  0  0
  145.4882  142.7314  155.8766 C   0  0  0  0  0  0  0  0  0  0  0  0
  144.1663  143.7210  155.3594 Cl  0  0  0  0  0  0  0  0  0  0  0  0
  146.5898  142.5027  154.9312 C   0  0  0  0  0  0  0  0  0  0  0  0
  146.6168  142.9735  153.7931 O   0  0  0  0  0  0  0  0  0  0  0  0
  151.9616  139.9504  157.7192 H   0  0  0  0  0  0  0  0  0  0  0  0
  150.2141  140.1266  157.5906 H   0  0  0  0  0  0  0  0  0  0  0  0
  150.9505  139.8307  159.1557 H   0  0  0  0  0  0  0  0  0  0  0  0
  150.3028  142.2225  158.9154 H   0  0  0  0  0  0  0  0  0  0  0  0
  152.2110  141.6514  160.3653 H   0  0  0  0  0  0  0  0  0  0  0  0
  153.3129  141.7651  159.0157 H   0  0  0  0  0  0  0  0  0  0  0  0
  151.6658  144.0526  160.1961 H   0  0  0  0  0  0  0  0  0  0  0  0
  153.3943  143.8421  160.3454 H   0  0  0  0  0  0  0  0  0  0  0  0
  152.8275  145.5068  158.5682 H   0  0  0  0  0  0  0  0  0  0  0  0
  153.6960  144.1400  157.9105 H   0  0  0  0  0  0  0  0  0  0  0  0
  150.6776  144.5916  157.7933 H   0  0  0  0  0  0  0  0  0  0  0  0
  151.7898  144.6952  156.4505 H   0  0  0  0  0  0  0  0  0  0  0  0
  152.3136  142.2843  156.6358 H   0  0  0  0  0  0  0  0  0  0  0  0
  149.5433  143.1665  156.2701 H   0  0  0  0  0  0  0  0  0  0  0  0
  148.8600  142.1155  153.7826 H   0  0  0  0  0  0  0  0  0  0  0  0
  148.6793  140.4257  154.1455 H   0  0  0  0  0  0  0  0  0  0  0  0
  146.6032  140.9512  158.4972 H   0  0  0  0  0  0  0  0  0  0  0  0
  1  2  1  0  0  0  0
  1 21  1  0  0  0  0
  1 22  1  0  0  0  0
  1 23  1  0  0  0  0
  2  7  1  0  0  0  0
  2  3  1  0  0  0  0
  2 24  1  0  0  0  0
  3  4  1  0  0  0  0
  3 25  1  0  0  0  0
  3 26  1  0  0  0  0
  4  5  1  0  0  0  0
  4 27  1  0  0  0  0
  4 28  1  0  0  0  0
  5  6  1  0  0  0  0
  5 29  1  0  0  0  0
  5 30  1  0  0  0  0
  6  7  1  0  0  0  0
  6 31  1  0  0  0  0
  6 32  1  0  0  0  0
  7  8  1  0  0  0  0
  7 33  1  0  0  0  0
  8  9  1  0  0  0  0
  8 34  1  0  0  0  0
  9 10  2  0  0  0  0
  9 11  1  0  0  0  0
 11 12  1  0  0  0  0
 11 35  1  0  0  0  0
 11 36  1  0  0  0  0
 12 19  1  0  0  0  0
 12 13  1  0  0  0  0
 13 14  2  0  0  0  0
 14 15  1  0  0  0  0
 14 37  1  0  0  0  0
 15 16  1  0  0  0  0
 15 17  2  0  0  0  0
 17 18  1  0  0  0  0
 17 19  1  0  0  0  0
 19 20  2  0  0  0  0
M  END
> <s_m_source_file>
AV-unprocessed.smi

> <i_m_source_file_index>
2988

> <i_lp_mmshare_version>
43012

> <i_f3d_flags>
0

> <s_epik_input>
W0NIM11bQ0BASF0xW0NIMl1bQ0gyXVtDSDJdW0NIMl1bQ0BIXTFbTkhdQyg9TylbQ0gyXW4ybltjSF1jKENsKWMoQ2wpYzI9Tw==

> <s_epik_cmdline>
J2VwaWtfcHl0aG9uJywgJy1waCcsICc3LjAnLCAnLXRuJywgJzgnLCAnLW1hJywgJzIwMCcsICctbWV0YWxfYmluZGluZycsICctaW1hZScsICc8aW5maWxlLm1hZT4nLCAnLW9tYWUnLCAnPG91dGZpbGUubWFlPic=

> <r_lp_tautomer_probability>
1

> <r_epik_Ionization_Penalty>
1.90782e-08

> <r_epik_Ionization_Penalty_Charging>
3.13143e-11

> <r_epik_Ionization_Penalty_Neutral>
1.90469e-08

> <r_epik_State_Penalty>
-0

> <r_epik_Charging_Adjusted_Penalty>
3.13143e-11

> <i_epik_Tot_Q>
0

> <i_epik_Tot_abs_Q>
0

> <r_epik_Metal_State_Penalty>
-0

> <b_epik_Metal_Only>
0

> <s_lp_Force_Field>
OPLS_2005

> <r_lp_Energy>
24.109

> <b_lp_Chiralities_Consistent>
1

> <s_lp_Variant>
AV-unprocessed.smi:2988-4

> <Gold.Version>
5.8.1

> <Gold.Id.Protein>
6NUR|6NUR_protein|mol2

> <Gold.PLP.Fitness>
43.0006

> <Gold.PLP.PLP>
-38.7053

> <Gold.PLP.part.hbond>
-2.3328

> <Gold.PLP.part.metal>
0.0000

> <Gold.PLP.part.buried>
-4.2608

> <Gold.PLP.part.nonpolar>
-32.1906

> <Gold.PLP.part.repulsive>
0.4020

> <Gold.PLP.ligand.clash>
0.0000

> <Gold.PLP.ligand.torsion>
0.7832

> <Gold.PLP.Chemscore.Hbond>
1.9520

> <Gold.PLP.Chemscore.CHOScore>
0.0000

> <Gold.PLP.Chemscore.Metal>
0.0000

> <Gold.Chemscore.Hbonds>
donor molecule, donor type, donor heavy atom, donor atom, acceptor molecule, acceptor atom, score
      L1  H     8    34       P1  8028  0.98
      P1  H  7989  7998       L1    10  0.98

> <Gold.PLP.Chemscore.Internal.Correction>
0.0057

> <Gold.Rescore>
     Score         DG    S(hbond)    S(metal)    S(lipo)     H(rot)  DE(clash)    DE(int)     intcor
     15.17     -17.31       1.66        0.00      86.59       1.50       0.08       2.06       ----

> <Gold.Chemscore.Fitness>
15.1686

> <Gold.Chemscore.DG>
-17.3109

> <Gold.Chemscore.ZeroCoef>
-5.4800

> <Gold.Chemscore.Hbond>
1.6568

> <Gold.Chemscore.Metal>
0.0000

> <Gold.Chemscore.Lipo>
86.5922

> <Gold.Chemscore.Internal_Hbond>
0.0000

> <Gold.Chemscore.DEClash>
0.0824

> <Gold.Chemscore.DEInternal>
2.0598

> <Gold.Chemscore.Rot>
1.4977

> <Gold.Chemscore.Internal.Correction>
   9.000000E+99

> <Gold.Chemscore.Hbonds>
donor molecule, donor type, donor heavy atom, donor atom, acceptor molecule, acceptor atom, score
      L1  H     8    34       P1  8028  0.93
      P1  H  7989  7998       L1    10  0.27

> <Gold.Chemscore.Hbond.Weighted>
-5.5337

> <Gold.Chemscore.Metal.Weighted>
-0.0000

> <Gold.Chemscore.Lipo.Weighted>
-10.1313

> <Gold.Chemscore.Internal_Hbond.Weighted>
0.0000

> <Gold.Chemscore.DEClash.Weighted>
0.0824

> <Gold.Chemscore.DEInternal.Weighted>
2.0598

> <Gold.Chemscore.Rot.Weighted>
3.8341

> <Gold.Chemscore.Internal.Correction.Weighted>
   9.000000E+99

> <Gold.Protein.RotatedTorsions>
[ 6907 6896 6895 6894 ] final  -27.24 input  -60.11 | X-H torsion
[ 7974 7965 7964 7962 ] final -164.22 input  175.53 | X-H torsion
[ 8008 7997 7996 7995 ] final   12.80 input   59.86 | X-H torsion
[ 10167 10162 10161 10158 ] final  117.12 input  -65.29 | X-H torsion
[ 10718 10713 10712 10709 ] final   59.60 input   66.30 | X-H torsion
[ 10763 10752 10751 10750 ] final -132.83 input  -60.55 | X-H torsion
[ 11005 11000 10999 10996 ] final  129.19 input  -57.11 | X-H torsion

> <Gold.Protein.ActiveResidues>
 VAL166  LYS551  ARG553  GLY616  TRP617  ASP618  TYR619  PRO620  LYS621  CYS622 
 ASP623  PHE694  ASN695  SER759  ASP760  ASP761  ALA762  ILE779  LEU786  VAL792 
 PHE793  MET794  SER795  GLU796  ALA797  LYS798  CYS799  TRP800  GLU811  SER814 

> <Gold.Protein.RotatedAtoms>
  151.1497  135.0221  159.8662 H   0  0  0  0  0  0  0  0  0  0  0  0  # atno 6907 bound_to 6896
  152.5453  134.1403  159.8486 H   0  0  0  0  0  0  0  0  0  0  0  0  # atno 6908 bound_to 6896
  151.1487  133.4876  159.2628 H   0  0  0  0  0  0  0  0  0  0  0  0  # atno 6909 bound_to 6896
  144.7303  140.2993  143.6207 H   0  0  0  0  0  0  0  0  0  0  0  0  # atno 7974 bound_to 7965
  154.8256  140.2891  155.5757 H   0  0  0  0  0  0  0  0  0  0  0  0  # atno 8008 bound_to 7997
  156.3001  140.2542  156.3102 H   0  0  0  0  0  0  0  0  0  0  0  0  # atno 8009 bound_to 7997
  154.9289  140.0384  157.2027 H   0  0  0  0  0  0  0  0  0  0  0  0  # atno 8010 bound_to 7997
  139.6200  144.7099  151.2655 H   0  0  0  0  0  0  0  0  0  0  0  0  # atno 10167 bound_to 10162
  157.5688  130.8892  149.9233 H   0  0  0  0  0  0  0  0  0  0  0  0  # atno 10718 bound_to 10713
  154.8739  135.3785  154.4474 H   0  0  0  0  0  0  0  0  0  0  0  0  # atno 10763 bound_to 10752
  153.5153  135.7029  153.5764 H   0  0  0  0  0  0  0  0  0  0  0  0  # atno 10764 bound_to 10752
  153.4035  135.3942  155.1969 H   0  0  0  0  0  0  0  0  0  0  0  0  # atno 10765 bound_to 10752
  139.9602  134.9604  156.9112 H   0  0  0  0  0  0  0  0  0  0  0  0  # atno 11005 bound_to 11000
  145.7776  139.1880  143.2176 LP  0  0  0  0  0  0  0  0  0  0  0  0  # atno 17320 bound_to 7965
  146.0860  140.7710  142.9618 LP  0  0  0  0  0  0  0  0  0  0  0  0  # atno 17321 bound_to 7965
  140.7376  143.6673  150.8112 LP  0  0  0  0  0  0  0  0  0  0  0  0  # atno 17342 bound_to 10162
  140.0282  143.5471  152.2771 LP  0  0  0  0  0  0  0  0  0  0  0  0  # atno 17343 bound_to 10162
  156.0735  130.3682  150.0726 LP  0  0  0  0  0  0  0  0  0  0  0  0  # atno 17370 bound_to 10713
  156.8882  130.9579  151.3591 LP  0  0  0  0  0  0  0  0  0  0  0  0  # atno 17371 bound_to 10713
  140.5518  134.0620  155.7371 LP  0  0  0  0  0  0  0  0  0  0  0  0  # atno 17394 bound_to 11000
  141.1278  133.9353  157.2599 LP  0  0  0  0  0  0  0  0  0  0  0  0  # atno 17395 bound_to 11000

$$$$
