AV-unprocessed.smi:3050|AV-procd|sdf|11632|dock4
  -GOLD-   2272017 23D 1   1.00000     0.00000
 Structure written by MMmdl.
 45 46  0  0  0  0  0  0  0  0  1 V2000
  152.6485  139.6781  157.2999 C   0  0  0  0  0  0  0  0  0  0  0  0
  152.4026  141.1920  157.3004 C   0  0  0  0  0  0  0  0  0  0  0  0
  150.9050  141.5510  157.2871 C   0  0  1  0  0  0  0  0  0  0  0  0
  150.7930  142.9706  157.3791 O   0  0  0  0  0  0  0  0  0  0  0  0
  150.9049  143.5337  158.6837 C   0  0  0  0  0  0  0  0  0  0  0  0
  150.6106  145.0312  158.6366 C   0  0  0  0  0  0  0  0  0  0  0  0
  151.2568  145.5855  159.9086 C   0  0  0  0  0  0  0  0  0  0  0  0
  152.4295  144.6462  160.2306 C   0  0  0  0  0  0  0  0  0  0  0  0
  152.3295  143.4739  159.2452 C   0  0  0  0  0  0  0  0  0  0  0  0
  150.2242  141.0496  156.0040 C   0  0  0  0  0  0  0  0  0  0  0  0
  150.8917  140.5476  155.0994 O   0  0  0  0  0  0  0  0  0  0  0  0
  148.8917  141.1911  155.9439 N   0  0  0  0  0  0  0  0  0  0  0  0
  148.0466  140.7218  154.8505 C   0  0  0  0  0  0  0  0  0  0  0  0
  146.9723  139.7241  155.3247 C   0  0  0  0  0  0  0  0  0  0  0  0
  145.7440  140.4087  155.8646 C   0  0  0  0  0  0  0  0  0  0  0  0
  145.2757  140.4345  157.2091 C   0  0  0  0  0  0  0  0  0  0  0  0
  144.1486  141.1135  157.3482 N   0  0  0  0  0  0  0  0  0  0  0  0
  143.8606  141.5451  156.1031 N   0  0  0  0  0  0  0  0  0  0  0  0
  142.6688  142.3351  155.8800 C   0  0  0  0  0  0  0  0  0  0  0  0
  144.8068  141.1377  155.1880 C   0  0  0  0  0  0  0  0  0  0  0  0
  153.7163  139.4591  157.3028 H   0  0  0  0  0  0  0  0  0  0  0  0
  152.2150  139.2091  156.4163 H   0  0  0  0  0  0  0  0  0  0  0  0
  152.2104  139.2057  158.1794 H   0  0  0  0  0  0  0  0  0  0  0  0
  152.8855  141.6352  158.1726 H   0  0  0  0  0  0  0  0  0  0  0  0
  152.8927  141.6233  156.4262 H   0  0  0  0  0  0  0  0  0  0  0  0
  150.4353  141.0786  158.1514 H   0  0  0  0  0  0  0  0  0  0  0  0
  150.2094  143.0699  159.3845 H   0  0  0  0  0  0  0  0  0  0  0  0
  151.0897  145.4743  157.7624 H   0  0  0  0  0  0  0  0  0  0  0  0
  149.5437  145.2487  158.5762 H   0  0  0  0  0  0  0  0  0  0  0  0
  151.5769  146.6204  159.7843 H   0  0  0  0  0  0  0  0  0  0  0  0
  150.5359  145.5626  160.7270 H   0  0  0  0  0  0  0  0  0  0  0  0
  153.3889  145.1549  160.1300 H   0  0  0  0  0  0  0  0  0  0  0  0
  152.3551  144.2932  161.2598 H   0  0  0  0  0  0  0  0  0  0  0  0
  152.5546  142.5162  159.7157 H   0  0  0  0  0  0  0  0  0  0  0  0
  153.0472  143.6204  158.4365 H   0  0  0  0  0  0  0  0  0  0  0  0
  148.4247  141.6202  156.7297 H   0  0  0  0  0  0  0  0  0  0  0  0
  147.5625  141.5963  154.4151 H   0  0  0  0  0  0  0  0  0  0  0  0
  148.6560  140.2817  154.0597 H   0  0  0  0  0  0  0  0  0  0  0  0
  146.7108  139.0659  154.4959 H   0  0  0  0  0  0  0  0  0  0  0  0
  147.4057  139.0726  156.0845 H   0  0  0  0  0  0  0  0  0  0  0  0
  145.7167  139.9760  158.0820 H   0  0  0  0  0  0  0  0  0  0  0  0
  142.5590  142.5551  154.8177 H   0  0  0  0  0  0  0  0  0  0  0  0
  142.7401  143.2734  156.4310 H   0  0  0  0  0  0  0  0  0  0  0  0
  141.7909  141.7846  156.2201 H   0  0  0  0  0  0  0  0  0  0  0  0
  144.7343  141.3908  154.1402 H   0  0  0  0  0  0  0  0  0  0  0  0
  1  2  1  0  0  0  0
  1 21  1  0  0  0  0
  1 22  1  0  0  0  0
  1 23  1  0  0  0  0
  2  3  1  0  0  0  0
  2 24  1  0  0  0  0
  2 25  1  0  0  0  0
  3  4  1  0  0  0  0
  3 10  1  0  0  0  0
  3 26  1  0  0  0  0
  4  5  1  0  0  0  0
  5  9  1  0  0  0  0
  5  6  1  0  0  0  0
  5 27  1  0  0  0  0
  6  7  1  0  0  0  0
  6 28  1  0  0  0  0
  6 29  1  0  0  0  0
  7  8  1  0  0  0  0
  7 30  1  0  0  0  0
  7 31  1  0  0  0  0
  8  9  1  0  0  0  0
  8 32  1  0  0  0  0
  8 33  1  0  0  0  0
  9 34  1  0  0  0  0
  9 35  1  0  0  0  0
 10 11  2  0  0  0  0
 10 12  1  0  0  0  0
 12 13  1  0  0  0  0
 12 36  1  0  0  0  0
 13 14  1  0  0  0  0
 13 37  1  0  0  0  0
 13 38  1  0  0  0  0
 14 15  1  0  0  0  0
 14 39  1  0  0  0  0
 14 40  1  0  0  0  0
 15 20  2  0  0  0  0
 15 16  1  0  0  0  0
 16 17  2  0  0  0  0
 16 41  1  0  0  0  0
 17 18  1  0  0  0  0
 18 19  1  0  0  0  0
 18 20  1  0  0  0  0
 19 42  1  0  0  0  0
 19 43  1  0  0  0  0
 19 44  1  0  0  0  0
 20 45  1  0  0  0  0
M  END
> <s_m_source_file>
AV-unprocessed.smi

> <i_m_source_file_index>
3050

> <i_lp_mmshare_version>
43012

> <i_f3d_flags>
0

> <s_epik_input>
W0NIMl0xW0NIMl1bQ0gyXVtDSDJdW0NIXTFPW0NAQEhdKFtDSDJdW0NIM10pQyg9TylbTkhdW0NIMl1bQ0gyXWMyW2NIXW5uKFtDSDNdKVtjSF0y

> <s_epik_cmdline>
J2VwaWtfcHl0aG9uJywgJy1waCcsICc3LjAnLCAnLXRuJywgJzgnLCAnLW1hJywgJzIwMCcsICctbWV0YWxfYmluZGluZycsICctaW1hZScsICc8aW5maWxlLm1hZT4nLCAnLW9tYWUnLCAnPG91dGZpbGUubWFlPic=

> <r_lp_tautomer_probability>
1

> <r_epik_Ionization_Penalty>
0.000440265

> <r_epik_Ionization_Penalty_Charging>
0

> <r_epik_Ionization_Penalty_Neutral>
0.000440265

> <r_epik_State_Penalty>
-0

> <r_epik_Charging_Adjusted_Penalty>
0

> <i_epik_Tot_Q>
0

> <i_epik_Tot_abs_Q>
0

> <r_epik_Metal_State_Penalty>
-0

> <b_epik_Metal_Only>
0

> <s_lp_Force_Field>
OPLS_2005

> <r_lp_Energy>
20.8184

> <b_lp_Chiralities_Consistent>
1

> <s_lp_Variant>
AV-unprocessed.smi:3050-2

> <Gold.Version>
5.8.1

> <Gold.Id.Protein>
6NUR|6NUR_protein|mol2

> <Gold.PLP.Fitness>
51.6472

> <Gold.PLP.PLP>
-48.9088

> <Gold.PLP.part.hbond>
-2.0000

> <Gold.PLP.part.metal>
0.0000

> <Gold.PLP.part.buried>
-7.0535

> <Gold.PLP.part.nonpolar>
-39.7576

> <Gold.PLP.part.repulsive>
0.4659

> <Gold.PLP.ligand.clash>
0.0308

> <Gold.PLP.ligand.torsion>
0.5532

> <Gold.PLP.Chemscore.Hbond>
1.2130

> <Gold.PLP.Chemscore.CHOScore>
0.0000

> <Gold.PLP.Chemscore.Metal>
0.0000

> <Gold.Chemscore.Hbonds>
donor molecule, donor type, donor heavy atom, donor atom, acceptor molecule, acceptor atom, score
      P1  H  7989  7998       L1    11  0.98
      L1  C    20    45       P1 10175  1.00

> <Gold.PLP.Chemscore.Internal.Correction>
0.2365

> <Gold.Rescore>
     Score         DG    S(hbond)    S(metal)    S(lipo)     H(rot)  DE(clash)    DE(int)     intcor
     15.45     -16.85       0.99        0.00     109.08       1.83       0.04       1.37       ----

> <Gold.Chemscore.Fitness>
15.4465

> <Gold.Chemscore.DG>
-16.8539

> <Gold.Chemscore.ZeroCoef>
-5.4800

> <Gold.Chemscore.Hbond>
0.9857

> <Gold.Chemscore.Metal>
0.0000

> <Gold.Chemscore.Lipo>
109.0825

> <Gold.Chemscore.Internal_Hbond>
0.0000

> <Gold.Chemscore.DEClash>
0.0357

> <Gold.Chemscore.DEInternal>
1.3718

> <Gold.Chemscore.Rot>
1.8286

> <Gold.Chemscore.Internal.Correction>
   9.000000E+99

> <Gold.Chemscore.Hbonds>
donor molecule, donor type, donor heavy atom, donor atom, acceptor molecule, acceptor atom, score
      P1  H  7989  7998       L1    11  0.93

> <Gold.Chemscore.Hbond.Weighted>
-3.2924

> <Gold.Chemscore.Metal.Weighted>
-0.0000

> <Gold.Chemscore.Lipo.Weighted>
-12.7627

> <Gold.Chemscore.Internal_Hbond.Weighted>
0.0000

> <Gold.Chemscore.DEClash.Weighted>
0.0357

> <Gold.Chemscore.DEInternal.Weighted>
1.3718

> <Gold.Chemscore.Rot.Weighted>
4.6811

> <Gold.Chemscore.Internal.Correction.Weighted>
   9.000000E+99

> <Gold.Protein.RotatedTorsions>
[ 6907 6896 6895 6894 ] final -116.57 input  -60.11 | X-H torsion
[ 7974 7965 7964 7962 ] final  154.33 input  175.53 | X-H torsion
[ 8008 7997 7996 7995 ] final -155.80 input   59.86 | X-H torsion
[ 10167 10162 10161 10158 ] final  111.52 input  -65.29 | X-H torsion
[ 10718 10713 10712 10709 ] final    6.53 input   66.30 | X-H torsion
[ 10763 10752 10751 10750 ] final  -79.90 input  -60.55 | X-H torsion
[ 11005 11000 10999 10996 ] final   51.91 input  -57.11 | X-H torsion

> <Gold.Protein.ActiveResidues>
 VAL166  LYS551  ARG553  GLY616  TRP617  ASP618  TYR619  PRO620  LYS621  CYS622 
 ASP623  PHE694  ASN695  SER759  ASP760  ASP761  ALA762  ILE779  LEU786  VAL792 
 PHE793  MET794  SER795  GLU796  ALA797  LYS798  CYS799  TRP800  GLU811  SER814 

> <Gold.Protein.RotatedAtoms>
  150.8066  133.8499  159.3202 H   0  0  0  0  0  0  0  0  0  0  0  0  # atno 6907 bound_to 6896
  151.6296  135.1022  160.0128 H   0  0  0  0  0  0  0  0  0  0  0  0  # atno 6908 bound_to 6896
  152.4157  133.6994  159.6472 H   0  0  0  0  0  0  0  0  0  0  0  0  # atno 6909 bound_to 6896
  144.8095  139.6920  143.6147 H   0  0  0  0  0  0  0  0  0  0  0  0  # atno 7974 bound_to 7965
  155.7074  140.0774  157.2385 H   0  0  0  0  0  0  0  0  0  0  0  0  # atno 8008 bound_to 7997
  154.4063  140.1636  156.2312 H   0  0  0  0  0  0  0  0  0  0  0  0  # atno 8009 bound_to 7997
  155.9313  140.3391  155.6254 H   0  0  0  0  0  0  0  0  0  0  0  0  # atno 8010 bound_to 7997
  139.6605  144.7129  151.1874 H   0  0  0  0  0  0  0  0  0  0  0  0  # atno 10167 bound_to 10162
  156.9235  130.5799  149.5648 H   0  0  0  0  0  0  0  0  0  0  0  0  # atno 10718 bound_to 10713
  154.5445  135.5679  153.6868 H   0  0  0  0  0  0  0  0  0  0  0  0  # atno 10763 bound_to 10752
  152.9972  135.6236  154.2458 H   0  0  0  0  0  0  0  0  0  0  0  0  # atno 10764 bound_to 10752
  154.2390  135.2863  155.2841 H   0  0  0  0  0  0  0  0  0  0  0  0  # atno 10765 bound_to 10752
  140.0893  134.5231  155.8868 H   0  0  0  0  0  0  0  0  0  0  0  0  # atno 11005 bound_to 11000
  146.2392  139.5967  142.9503 LP  0  0  0  0  0  0  0  0  0  0  0  0  # atno 17320 bound_to 7965
  145.5357  141.0424  143.2358 LP  0  0  0  0  0  0  0  0  0  0  0  0  # atno 17321 bound_to 7965
  140.7578  143.6002  150.8708 LP  0  0  0  0  0  0  0  0  0  0  0  0  # atno 17342 bound_to 10162
  139.9659  143.6111  152.2988 LP  0  0  0  0  0  0  0  0  0  0  0  0  # atno 17343 bound_to 10162
  156.0480  130.5554  150.8925 LP  0  0  0  0  0  0  0  0  0  0  0  0  # atno 17370 bound_to 10713
  157.5893  131.0945  150.9145 LP  0  0  0  0  0  0  0  0  0  0  0  0  # atno 17371 bound_to 10713
  141.2072  133.6662  156.6294 LP  0  0  0  0  0  0  0  0  0  0  0  0  # atno 17394 bound_to 11000
  140.3375  134.7876  157.4373 LP  0  0  0  0  0  0  0  0  0  0  0  0  # atno 17395 bound_to 11000

$$$$
