AV-unprocessed.smi:1935|AV-procd|sdf|7828|dock3
  -GOLD-   22720 9573D 1   1.00000     0.00000
 Structure written by MMmdl.
 53 55  0  0  0  0  0  0  0  0  2 V2000
  149.8798  133.9820  155.6226 O   0  0  0  0  0  0  0  0  0  0  0  0
  149.5093  134.5066  154.5729 C   0  0  0  0  0  0  0  0  0  0  0  0
  149.7157  135.7973  154.2764 N   0  0  0  0  0  0  0  0  0  0  0  0
  150.3690  136.7599  155.1546 C   0  0  0  0  0  0  0  0  0  0  0  0
  151.1018  137.8569  154.3587 C   0  0  0  0  0  0  0  0  0  0  0  0
  150.7009  139.1948  154.8123 N   0  0  0  0  0  0  0  0  0  0  0  0
  149.3740  139.6635  154.3786 C   0  0  0  0  0  0  0  0  0  0  0  0
  148.3331  139.7362  155.5209 C   0  0  0  0  0  0  0  0  0  0  0  0
  148.8861  139.9967  156.9360 C   0  0  0  0  0  0  0  0  0  0  0  0
  149.8005  141.2332  157.0623 C   0  0  0  0  0  0  0  0  0  0  0  0
  150.9922  141.3125  156.0789 C   0  0  0  0  0  0  0  0  0  0  0  0
  151.5083  139.9452  155.6027 C   0  0  0  0  0  0  0  0  0  0  0  0
  152.6266  139.5760  155.9620 O   0  0  0  0  0  0  0  0  0  0  0  0
  148.8677  133.8748  153.5756 N   0  0  0  0  0  0  0  0  0  0  0  0
  148.5014  132.5006  153.4918 C   0  0  0  0  0  0  0  0  0  0  0  0
  149.2548  131.4779  154.1238 C   0  0  0  0  0  0  0  0  0  0  0  0
  148.8257  130.1391  154.0416 C   0  0  0  0  0  0  0  0  0  0  0  0
  147.6446  129.8429  153.3389 C   0  0  0  0  0  0  0  0  0  0  0  0
  146.9426  130.8396  152.7613 N   0  3  0  0  0  0  0  0  0  0  0  0
  147.3060  132.1452  152.8081 C   0  0  0  0  0  0  0  0  0  0  0  0
  146.5031  133.1003  152.1482 N   0  0  0  0  0  0  0  0  0  0  0  0
  146.5305  132.9993  150.6908 C   0  0  0  0  0  0  0  0  0  0  0  0
  145.1065  133.2840  150.2067 C   0  0  0  0  0  0  0  0  0  0  0  0
  144.2463  132.8990  151.4041 C   0  0  0  0  0  0  0  0  0  0  0  0
  145.1236  133.3138  152.5829 C   0  0  0  0  0  0  0  0  0  0  0  0
  149.3845  136.1448  153.3883 H   0  0  0  0  0  0  0  0  0  0  0  0
  149.6034  137.2112  155.7861 H   0  0  0  0  0  0  0  0  0  0  0  0
  151.0546  136.2394  155.8255 H   0  0  0  0  0  0  0  0  0  0  0  0
  152.1824  137.7423  154.4616 H   0  0  0  0  0  0  0  0  0  0  0  0
  150.9044  137.7321  153.2935 H   0  0  0  0  0  0  0  0  0  0  0  0
  149.4777  140.6432  153.9118 H   0  0  0  0  0  0  0  0  0  0  0  0
  148.9721  139.0362  153.5826 H   0  0  0  0  0  0  0  0  0  0  0  0
  147.5905  140.4953  155.2730 H   0  0  0  0  0  0  0  0  0  0  0  0
  147.7874  138.7924  155.5497 H   0  0  0  0  0  0  0  0  0  0  0  0
  148.0486  140.1063  157.6257 H   0  0  0  0  0  0  0  0  0  0  0  0
  149.4214  139.1118  157.2829 H   0  0  0  0  0  0  0  0  0  0  0  0
  149.1963  142.1336  156.9465 H   0  0  0  0  0  0  0  0  0  0  0  0
  150.1847  141.2692  158.0824 H   0  0  0  0  0  0  0  0  0  0  0  0
  150.7232  141.9130  155.2102 H   0  0  0  0  0  0  0  0  0  0  0  0
  151.8097  141.8586  156.5514 H   0  0  0  0  0  0  0  0  0  0  0  0
  148.7016  134.4192  152.7417 H   0  0  0  0  0  0  0  0  0  0  0  0
  150.1485  131.6971  154.6877 H   0  0  0  0  0  0  0  0  0  0  0  0
  149.3928  129.3524  154.5178 H   0  0  0  0  0  0  0  0  0  0  0  0
  147.2396  128.8476  153.2256 H   0  0  0  0  0  0  0  0  0  0  0  0
  147.2411  133.7054  150.2606 H   0  0  0  0  0  0  0  0  0  0  0  0
  146.8327  131.9952  150.3879 H   0  0  0  0  0  0  0  0  0  0  0  0
  144.9923  134.3490  150.0001 H   0  0  0  0  0  0  0  0  0  0  0  0
  144.8490  132.7347  149.3008 H   0  0  0  0  0  0  0  0  0  0  0  0
  143.2715  133.3874  151.4062 H   0  0  0  0  0  0  0  0  0  0  0  0
  144.0874  131.8197  151.4175 H   0  0  0  0  0  0  0  0  0  0  0  0
  144.8464  132.7915  153.4982 H   0  0  0  0  0  0  0  0  0  0  0  0
  144.9995  134.3792  152.7799 H   0  0  0  0  0  0  0  0  0  0  0  0
  146.0897  130.5953  152.2579 H   0  0  0  0  0  0  0  0  0  0  0  0
  1  2  2  0  0  0  0
  2  3  1  0  0  0  0
  2 14  1  0  0  0  0
  3  4  1  0  0  0  0
  3 26  1  0  0  0  0
  4  5  1  0  0  0  0
  4 27  1  0  0  0  0
  4 28  1  0  0  0  0
  5  6  1  0  0  0  0
  5 29  1  0  0  0  0
  5 30  1  0  0  0  0
  6 12  1  0  0  0  0
  6  7  1  0  0  0  0
  7  8  1  0  0  0  0
  7 31  1  0  0  0  0
  7 32  1  0  0  0  0
  8  9  1  0  0  0  0
  8 33  1  0  0  0  0
  8 34  1  0  0  0  0
  9 10  1  0  0  0  0
  9 35  1  0  0  0  0
  9 36  1  0  0  0  0
 10 11  1  0  0  0  0
 10 37  1  0  0  0  0
 10 38  1  0  0  0  0
 11 12  1  0  0  0  0
 11 39  1  0  0  0  0
 11 40  1  0  0  0  0
 12 13  2  0  0  0  0
 14 15  1  0  0  0  0
 14 41  1  0  0  0  0
 15 20  1  0  0  0  0
 15 16  2  0  0  0  0
 16 17  1  0  0  0  0
 16 42  1  0  0  0  0
 17 18  2  0  0  0  0
 17 43  1  0  0  0  0
 18 19  1  0  0  0  0
 18 44  1  0  0  0  0
 19 20  2  0  0  0  0
 19 53  1  0  0  0  0
 20 21  1  0  0  0  0
 21 25  1  0  0  0  0
 21 22  1  0  0  0  0
 22 23  1  0  0  0  0
 22 45  1  0  0  0  0
 22 46  1  0  0  0  0
 23 24  1  0  0  0  0
 23 47  1  0  0  0  0
 23 48  1  0  0  0  0
 24 25  1  0  0  0  0
 24 49  1  0  0  0  0
 24 50  1  0  0  0  0
 25 51  1  0  0  0  0
 25 52  1  0  0  0  0
M  CHG  1  19   1
M  END
> <s_m_source_file>
AV-unprocessed.smi

> <i_m_source_file_index>
1935

> <i_lp_mmshare_version>
43012

> <i_f3d_flags>
0

> <s_epik_input>
Tz1DMVtDSDJdW0NIMl1bQ0gyXVtDSDJdW0NIMl1OMVtDSDJdW0NIMl1bTkhdQyg9TylbTkhdYzJbY0hdW2NIXVtjSF1uYzJOM1tDSDJdW0NIMl1bQ0gyXVtDSDJdMw==

> <s_epik_cmdline>
J2VwaWtfcHl0aG9uJywgJy1waCcsICc3LjAnLCAnLXRuJywgJzgnLCAnLW1hJywgJzIwMCcsICctbWV0YWxfYmluZGluZycsICctaW1hZScsICc8aW5maWxlLm1hZT4nLCAnLW9tYWUnLCAnPG91dGZpbGUubWFlPic=

> <r_lp_tautomer_probability>
0.999994

> <r_epik_Ionization_Penalty>
1.12691

> <r_epik_Ionization_Penalty_Charging>
1.12689

> <r_epik_Ionization_Penalty_Neutral>
1.90064e-05

> <r_epik_State_Penalty>
1.18624

> <r_epik_Charging_Adjusted_Penalty>
2.31313

> <i_epik_Tot_Q>
1

> <i_epik_Tot_abs_Q>
1

> <r_epik_Metal_State_Penalty>
1.27004

> <b_epik_Metal_Only>
0

> <s_lp_Force_Field>
OPLS_2005

> <r_lp_Energy>
56.6577

> <b_lp_Chiralities_Consistent>
1

> <s_lp_Variant>
AV-unprocessed.smi:1935-2

> <Gold.Version>
5.8.1

> <Gold.Id.Protein>
6NUR|6NUR_protein|mol2

> <Gold.PLP.Fitness>
49.2607

> <Gold.PLP.PLP>
-43.5361

> <Gold.PLP.part.hbond>
-4.0474

> <Gold.PLP.part.metal>
0.0000

> <Gold.PLP.part.buried>
-3.2874

> <Gold.PLP.part.nonpolar>
-36.0211

> <Gold.PLP.part.repulsive>
0.2080

> <Gold.PLP.ligand.clash>
0.0000

> <Gold.PLP.ligand.torsion>
1.0469

> <Gold.PLP.Chemscore.Hbond>
2.5472

> <Gold.PLP.Chemscore.CHOScore>
0.0000

> <Gold.PLP.Chemscore.Metal>
0.0000

> <Gold.Chemscore.Hbonds>
donor molecule, donor type, donor heavy atom, donor atom, acceptor molecule, acceptor atom, score
      L1  H     3    26       P1  7948  1.00
      L1  H    14    41       P1  7948  0.55
      P1  H  7997  8008       L1    13  1.00

> <Gold.PLP.Chemscore.Internal.Correction>
0.1767

> <Gold.Rescore>
     Score         DG    S(hbond)    S(metal)    S(lipo)     H(rot)  DE(clash)    DE(int)     intcor
     16.71     -18.96       2.65        0.00      75.89       1.66       0.02       2.23       ----

> <Gold.Chemscore.Fitness>
16.7076

> <Gold.Chemscore.DG>
-18.9592

> <Gold.Chemscore.ZeroCoef>
-5.4800

> <Gold.Chemscore.Hbond>
2.6479

> <Gold.Chemscore.Metal>
0.0000

> <Gold.Chemscore.Lipo>
75.8927

> <Gold.Chemscore.Internal_Hbond>
0.0000

> <Gold.Chemscore.DEClash>
0.0234

> <Gold.Chemscore.DEInternal>
2.2281

> <Gold.Chemscore.Rot>
1.6579

> <Gold.Chemscore.Internal.Correction>
   9.000000E+99

> <Gold.Chemscore.Hbonds>
donor molecule, donor type, donor heavy atom, donor atom, acceptor molecule, acceptor atom, score
      L1  H     3    26       P1  7948  0.63
      L1  H    14    41       P1  7948  0.04
      P1  H  7997  8008       L1    13  0.99

> <Gold.Chemscore.Hbond.Weighted>
-8.8440

> <Gold.Chemscore.Metal.Weighted>
-0.0000

> <Gold.Chemscore.Lipo.Weighted>
-8.8794

> <Gold.Chemscore.Internal_Hbond.Weighted>
0.0000

> <Gold.Chemscore.DEClash.Weighted>
0.0234

> <Gold.Chemscore.DEInternal.Weighted>
2.2281

> <Gold.Chemscore.Rot.Weighted>
4.2443

> <Gold.Chemscore.Internal.Correction.Weighted>
   9.000000E+99

> <Gold.Protein.RotatedTorsions>
[ 6907 6896 6895 6894 ] final  102.90 input  -60.11 | X-H torsion
[ 7974 7965 7964 7962 ] final  -67.37 input  175.53 | X-H torsion
[ 8008 7997 7996 7995 ] final  -23.04 input   59.86 | X-H torsion
[ 10167 10162 10161 10158 ] final -150.49 input  -65.29 | X-H torsion
[ 10718 10713 10712 10709 ] final   14.99 input   66.30 | X-H torsion
[ 10763 10752 10751 10750 ] final   67.00 input  -60.55 | X-H torsion
[ 11005 11000 10999 10996 ] final  120.44 input  -57.11 | X-H torsion

> <Gold.Protein.ActiveResidues>
 VAL166  LYS551  ARG553  GLY616  TRP617  ASP618  TYR619  PRO620  LYS621  CYS622 
 ASP623  PHE694  ASN695  SER759  ASP760  ASP761  ALA762  ILE779  LEU786  VAL792 
 PHE793  MET794  SER795  GLU796  ALA797  LYS798  CYS799  TRP800  GLU811  SER814 

> <Gold.Protein.RotatedAtoms>
  152.5311  133.9906  159.7848 H   0  0  0  0  0  0  0  0  0  0  0  0  # atno 6907 bound_to 6896
  151.0143  133.5928  159.2686 H   0  0  0  0  0  0  0  0  0  0  0  0  # atno 6908 bound_to 6896
  151.2991  135.0770  159.9285 H   0  0  0  0  0  0  0  0  0  0  0  0  # atno 6909 bound_to 6896
  145.7301  140.9001  143.0585 H   0  0  0  0  0  0  0  0  0  0  0  0  # atno 7974 bound_to 7965
  154.4608  140.1991  156.0250 H   0  0  0  0  0  0  0  0  0  0  0  0  # atno 8008 bound_to 7997
  156.0836  140.3268  155.7697 H   0  0  0  0  0  0  0  0  0  0  0  0  # atno 8009 bound_to 7997
  155.5071  140.0558  157.2920 H   0  0  0  0  0  0  0  0  0  0  0  0  # atno 8010 bound_to 7997
  139.7349  143.8750  152.2546 H   0  0  0  0  0  0  0  0  0  0  0  0  # atno 10167 bound_to 10162
  157.0470  130.6254  149.5761 H   0  0  0  0  0  0  0  0  0  0  0  0  # atno 10718 bound_to 10713
  153.0166  135.5300  154.6911 H   0  0  0  0  0  0  0  0  0  0  0  0  # atno 10763 bound_to 10752
  154.6045  135.2872  155.0501 H   0  0  0  0  0  0  0  0  0  0  0  0  # atno 10764 bound_to 10752
  154.1546  135.6557  153.5024 H   0  0  0  0  0  0  0  0  0  0  0  0  # atno 10765 bound_to 10752
  139.9185  134.9634  156.7807 H   0  0  0  0  0  0  0  0  0  0  0  0  # atno 11005 bound_to 11000
  144.6895  139.9319  143.7472 LP  0  0  0  0  0  0  0  0  0  0  0  0  # atno 17320 bound_to 7965
  146.0546  139.3544  143.0619 LP  0  0  0  0  0  0  0  0  0  0  0  0  # atno 17321 bound_to 7965
  139.8684  144.7081  150.9016 LP  0  0  0  0  0  0  0  0  0  0  0  0  # atno 17342 bound_to 10162
  140.7777  143.3758  151.1565 LP  0  0  0  0  0  0  0  0  0  0  0  0  # atno 17343 bound_to 10162
  156.0019  130.5100  150.7695 LP  0  0  0  0  0  0  0  0  0  0  0  0  # atno 17370 bound_to 10713
  157.5060  131.0922  151.0257 LP  0  0  0  0  0  0  0  0  0  0  0  0  # atno 17371 bound_to 10713
  140.6547  133.9700  155.7773 LP  0  0  0  0  0  0  0  0  0  0  0  0  # atno 17394 bound_to 11000
  141.0684  134.0242  157.3560 LP  0  0  0  0  0  0  0  0  0  0  0  0  # atno 17395 bound_to 11000

$$$$
