AV-unprocessed.smi:1207|AV-procd|sdf|5052|dock1
  -GOLD-   22720 4 83D 1   1.00000     0.00000
 Structure written by MMmdl.
 52 54  0  0  0  0  0  0  0  0  2 V2000
  151.1556  142.0867  158.8031 C   0  0  0  0  0  0  0  0  0  0  0  0
  150.3441  141.6047  157.6136 C   0  0  0  0  0  0  0  0  0  0  0  0
  150.9730  140.8081  156.6300 C   0  0  0  0  0  0  0  0  0  0  0  0
  150.2539  140.3403  155.5086 C   0  0  0  0  0  0  0  0  0  0  0  0
  150.6615  139.5606  154.4398 N   0  0  0  0  0  0  0  0  0  0  0  0
  149.5401  139.4691  153.7308 C   0  0  0  0  0  0  0  0  0  0  0  0
  148.4528  140.1020  154.2124 N   0  0  0  0  0  0  0  0  0  0  0  0
  147.1276  140.1481  153.6207 C   0  0  0  0  0  0  0  0  0  0  0  0
  146.7421  138.8157  152.9517 C   0  0  1  0  0  0  0  0  0  0  0  0
  147.3764  138.7213  151.6903 O   0  0  0  0  0  0  0  0  0  0  0  0
  147.1420  137.5946  153.8025 C   0  0  0  0  0  0  0  0  0  0  0  0
  146.5398  136.3435  153.2767 N   0  3  1  0  0  0  0  0  0  0  0  0
  146.5747  135.2410  154.2651 C   0  0  0  0  0  0  0  0  0  0  0  0
  145.1889  136.5450  152.6919 C   0  0  0  0  0  0  0  0  0  0  0  0
  144.6021  135.2362  152.2349 C   0  0  0  0  0  0  0  0  0  0  0  0
  143.2743  134.7647  152.4445 C   0  0  0  0  0  0  0  0  0  0  0  0
  142.1435  135.4485  153.1597 C   0  0  0  0  0  0  0  0  0  0  0  0
  143.0839  133.5715  151.9088 N   0  0  0  0  0  0  0  0  0  0  0  0
  144.3040  133.2129  151.3284 O   0  0  0  0  0  0  0  0  0  0  0  0
  145.1924  134.2174  151.5371 C   0  0  0  0  0  0  0  0  0  0  0  0
  146.5633  134.0130  150.9857 C   0  0  0  0  0  0  0  0  0  0  0  0
  148.8769  140.6925  155.3981 C   0  0  0  0  0  0  0  0  0  0  0  0
  148.2393  141.4822  156.3714 C   0  0  0  0  0  0  0  0  0  0  0  0
  148.9733  141.9444  157.4835 C   0  0  0  0  0  0  0  0  0  0  0  0
  148.2774  142.8011  158.5262 C   0  0  0  0  0  0  0  0  0  0  0  0
  152.1782  141.7102  158.7667 H   0  0  0  0  0  0  0  0  0  0  0  0
  150.7076  141.7446  159.7364 H   0  0  0  0  0  0  0  0  0  0  0  0
  151.2003  143.1759  158.8181 H   0  0  0  0  0  0  0  0  0  0  0  0
  152.0174  140.5494  156.7286 H   0  0  0  0  0  0  0  0  0  0  0  0
  149.5089  138.9127  152.8054 H   0  0  0  0  0  0  0  0  0  0  0  0
  146.4042  140.4145  154.3930 H   0  0  0  0  0  0  0  0  0  0  0  0
  147.1152  140.9555  152.8873 H   0  0  0  0  0  0  0  0  0  0  0  0
  145.6662  138.8133  152.7811 H   0  0  0  0  0  0  0  0  0  0  0  0
  148.0603  138.0707  151.7411 H   0  0  0  0  0  0  0  0  0  0  0  0
  148.2307  137.5183  153.8154 H   0  0  0  0  0  0  0  0  0  0  0  0
  146.8363  137.7282  154.8416 H   0  0  0  0  0  0  0  0  0  0  0  0
  145.9620  135.4770  155.1362 H   0  0  0  0  0  0  0  0  0  0  0  0
  147.5949  135.0582  154.6041 H   0  0  0  0  0  0  0  0  0  0  0  0
  146.2072  134.3120  153.8298 H   0  0  0  0  0  0  0  0  0  0  0  0
  144.5479  137.0480  153.4170 H   0  0  0  0  0  0  0  0  0  0  0  0
  145.2453  137.2289  151.8451 H   0  0  0  0  0  0  0  0  0  0  0  0
  142.4408  135.7483  154.1650 H   0  0  0  0  0  0  0  0  0  0  0  0
  141.2721  134.7991  153.2544 H   0  0  0  0  0  0  0  0  0  0  0  0
  141.8303  136.3451  152.6249 H   0  0  0  0  0  0  0  0  0  0  0  0
  147.2136  134.8557  151.2194 H   0  0  0  0  0  0  0  0  0  0  0  0
  146.5300  133.9047  149.9015 H   0  0  0  0  0  0  0  0  0  0  0  0
  147.0162  133.1128  151.4014 H   0  0  0  0  0  0  0  0  0  0  0  0
  147.1943  141.7318  156.2625 H   0  0  0  0  0  0  0  0  0  0  0  0
  147.2410  142.9996  158.2515 H   0  0  0  0  0  0  0  0  0  0  0  0
  148.7834  143.7608  158.6336 H   0  0  0  0  0  0  0  0  0  0  0  0
  148.2772  142.2987  159.4939 H   0  0  0  0  0  0  0  0  0  0  0  0
  147.1426  136.0578  152.5177 H   0  0  0  0  0  0  0  0  0  0  0  0
  1  2  1  0  0  0  0
  1 26  1  0  0  0  0
  1 27  1  0  0  0  0
  1 28  1  0  0  0  0
  2 24  1  0  0  0  0
  2  3  2  0  0  0  0
  3  4  1  0  0  0  0
  3 29  1  0  0  0  0
  4 22  2  0  0  0  0
  4  5  1  0  0  0  0
  5  6  2  0  0  0  0
  6  7  1  0  0  0  0
  6 30  1  0  0  0  0
  7  8  1  0  0  0  0
  7 22  1  0  0  0  0
  8  9  1  0  0  0  0
  8 31  1  0  0  0  0
  8 32  1  0  0  0  0
  9 10  1  0  0  0  0
  9 11  1  0  0  0  0
  9 33  1  0  0  0  0
 10 34  1  0  0  0  0
 11 12  1  0  0  0  0
 11 35  1  0  0  0  0
 11 36  1  0  0  0  0
 12 13  1  0  0  0  0
 12 14  1  0  0  0  0
 12 52  1  0  0  0  0
 13 37  1  0  0  0  0
 13 38  1  0  0  0  0
 13 39  1  0  0  0  0
 14 15  1  0  0  0  0
 14 40  1  0  0  0  0
 14 41  1  0  0  0  0
 15 20  2  0  0  0  0
 15 16  1  0  0  0  0
 16 17  1  0  0  0  0
 16 18  2  0  0  0  0
 17 42  1  0  0  0  0
 17 43  1  0  0  0  0
 17 44  1  0  0  0  0
 18 19  1  0  0  0  0
 19 20  1  0  0  0  0
 20 21  1  0  0  0  0
 21 45  1  0  0  0  0
 21 46  1  0  0  0  0
 21 47  1  0  0  0  0
 22 23  1  0  0  0  0
 23 24  2  0  0  0  0
 23 48  1  0  0  0  0
 24 25  1  0  0  0  0
 25 49  1  0  0  0  0
 25 50  1  0  0  0  0
 25 51  1  0  0  0  0
M  CHG  1  12   1
M  END
> <s_m_source_file>
AV-unprocessed.smi

> <i_m_source_file_index>
1207

> <i_lp_mmshare_version>
43012

> <i_f3d_flags>
0

> <s_epik_input>
W0NIM11jKFtjSF0xKWMoW0NIM10pW2NIXWMoYzEyKW4oW2NIXW4yKVtDSDJdW0NASF0oW09IXSlbQ0gyXU4oW0NIM10pW0NIMl1jM2MoW0NIM10pbm9jM1tDSDNd

> <s_epik_cmdline>
J2VwaWtfcHl0aG9uJywgJy1waCcsICc3LjAnLCAnLXRuJywgJzgnLCAnLW1hJywgJzIwMCcsICctbWV0YWxfYmluZGluZycsICctaW1hZScsICc8aW5maWxlLm1hZT4nLCAnLW9tYWUnLCAnPG91dGZpbGUubWFlPic=

> <r_epik_Ionization_Penalty>
0.646518

> <r_epik_Ionization_Penalty_Charging>
0.559419

> <r_epik_Ionization_Penalty_Neutral>
0.0870981

> <r_epik_State_Penalty>
0.661677

> <r_epik_Charging_Adjusted_Penalty>
1.2211

> <i_epik_Tot_Q>
1

> <i_epik_Tot_abs_Q>
1

> <r_epik_Metal_State_Penalty>
0.649158

> <b_epik_Metal_Only>
0

> <s_lp_Force_Field>
OPLS_2005

> <r_lp_Energy>
8.27883

> <b_lp_Chiralities_Consistent>
1

> <s_lp_Variant>
AV-unprocessed.smi:1207-4

> <Gold.Version>
5.8.1

> <Gold.Id.Protein>
6NUR|6NUR_protein|mol2

> <Gold.PLP.Fitness>
48.3324

> <Gold.PLP.PLP>
-36.0681

> <Gold.PLP.part.hbond>
-4.9558

> <Gold.PLP.part.metal>
0.0000

> <Gold.PLP.part.buried>
-3.0867

> <Gold.PLP.part.nonpolar>
-28.9356

> <Gold.PLP.part.repulsive>
0.5032

> <Gold.PLP.ligand.clash>
0.0000

> <Gold.PLP.ligand.torsion>
0.9732

> <Gold.PLP.Chemscore.Hbond>
3.6600

> <Gold.PLP.Chemscore.CHOScore>
0.9234

> <Gold.PLP.Chemscore.Metal>
0.0000

> <Gold.Chemscore.Hbonds>
donor molecule, donor type, donor heavy atom, donor atom, acceptor molecule, acceptor atom, score
      L1  H    10    34       P1  7948  1.00
      L1  H    12    52       P1  7948  1.73
      P1  H  7989  7998       L1     5  0.95
      L1  C     6    30       P1  7948  0.20
      L1  C     6    30       P1  7957  0.63

> <Gold.PLP.Chemscore.Internal.Correction>
0.4604

> <Gold.Rescore>
     Score         DG    S(hbond)    S(metal)    S(lipo)     H(rot)  DE(clash)    DE(int)     intcor
     13.42     -17.04       2.54        0.00      80.06       2.46       1.71       1.90       ----

> <Gold.Chemscore.Fitness>
13.4245

> <Gold.Chemscore.DG>
-17.0354

> <Gold.Chemscore.ZeroCoef>
-5.4800

> <Gold.Chemscore.Hbond>
2.5379

> <Gold.Chemscore.Metal>
0.0000

> <Gold.Chemscore.Lipo>
80.0647

> <Gold.Chemscore.Internal_Hbond>
0.0000

> <Gold.Chemscore.DEClash>
1.7084

> <Gold.Chemscore.DEInternal>
1.9026

> <Gold.Chemscore.Rot>
2.4565

> <Gold.Chemscore.Internal.Correction>
   9.000000E+99

> <Gold.Chemscore.Hbonds>
donor molecule, donor type, donor heavy atom, donor atom, acceptor molecule, acceptor atom, score
      L1  H    10    34       P1  7948  0.95
      L1  H    12    52       P1  7948  0.84
      P1  H  7989  7998       L1     5  0.07

> <Gold.Chemscore.Hbond.Weighted>
-8.4765

> <Gold.Chemscore.Metal.Weighted>
-0.0000

> <Gold.Chemscore.Lipo.Weighted>
-9.3676

> <Gold.Chemscore.Internal_Hbond.Weighted>
0.0000

> <Gold.Chemscore.DEClash.Weighted>
1.7084

> <Gold.Chemscore.DEInternal.Weighted>
1.9026

> <Gold.Chemscore.Rot.Weighted>
6.2887

> <Gold.Chemscore.Internal.Correction.Weighted>
   9.000000E+99

> <Gold.Protein.RotatedTorsions>
[ 6907 6896 6895 6894 ] final  -26.97 input  -60.11 | X-H torsion
[ 7974 7965 7964 7962 ] final  -56.71 input  175.53 | X-H torsion
[ 8008 7997 7996 7995 ] final  141.58 input   59.86 | X-H torsion
[ 10167 10162 10161 10158 ] final -136.60 input  -65.29 | X-H torsion
[ 10718 10713 10712 10709 ] final  -23.43 input   66.30 | X-H torsion
[ 10763 10752 10751 10750 ] final -166.64 input  -60.55 | X-H torsion
[ 11005 11000 10999 10996 ] final  111.96 input  -57.11 | X-H torsion

> <Gold.Protein.ActiveResidues>
 VAL166  LYS551  ARG553  GLY616  TRP617  ASP618  TYR619  PRO620  LYS621  CYS622 
 ASP623  PHE694  ASN695  SER759  ASP760  ASP761  ALA762  ILE779  LEU786  VAL792 
 PHE793  MET794  SER795  GLU796  ALA797  LYS798  CYS799  TRP800  GLU811  SER814 

> <Gold.Protein.RotatedAtoms>
  151.1534  135.0238  159.8678 H   0  0  0  0  0  0  0  0  0  0  0  0  # atno 6907 bound_to 6896
  152.5452  134.1362  159.8470 H   0  0  0  0  0  0  0  0  0  0  0  0  # atno 6908 bound_to 6896
  151.1450  133.4900  159.2629 H   0  0  0  0  0  0  0  0  0  0  0  0  # atno 6909 bound_to 6896
  145.8595  140.8295  142.9944 H   0  0  0  0  0  0  0  0  0  0  0  0  # atno 7974 bound_to 7965
  156.2963  140.2311  156.4588 H   0  0  0  0  0  0  0  0  0  0  0  0  # atno 8008 bound_to 7997
  154.8037  140.0447  157.1312 H   0  0  0  0  0  0  0  0  0  0  0  0  # atno 8009 bound_to 7997
  154.9504  140.3041  155.5081 H   0  0  0  0  0  0  0  0  0  0  0  0  # atno 8010 bound_to 7997
  139.8661  143.7015  152.2645 H   0  0  0  0  0  0  0  0  0  0  0  0  # atno 10167 bound_to 10162
  156.4911  130.4567  149.6755 H   0  0  0  0  0  0  0  0  0  0  0  0  # atno 10718 bound_to 10713
  154.6813  135.2955  154.9609 H   0  0  0  0  0  0  0  0  0  0  0  0  # atno 10763 bound_to 10752
  154.0604  135.6632  153.4815 H   0  0  0  0  0  0  0  0  0  0  0  0  # atno 10764 bound_to 10752
  153.0549  135.5151  154.7857 H   0  0  0  0  0  0  0  0  0  0  0  0  # atno 10765 bound_to 10752
  139.8916  134.9519  156.6512 H   0  0  0  0  0  0  0  0  0  0  0  0  # atno 11005 bound_to 11000
  144.6727  140.1074  143.7457 LP  0  0  0  0  0  0  0  0  0  0  0  0  # atno 17320 bound_to 7965
  145.9264  139.2578  143.1351 LP  0  0  0  0  0  0  0  0  0  0  0  0  # atno 17321 bound_to 7965
  139.7327  144.7578  151.0776 LP  0  0  0  0  0  0  0  0  0  0  0  0  # atno 17342 bound_to 10162
  140.7768  143.5068  150.9702 LP  0  0  0  0  0  0  0  0  0  0  0  0  # atno 17343 bound_to 10162
  156.3425  130.7389  151.2337 LP  0  0  0  0  0  0  0  0  0  0  0  0  # atno 17370 bound_to 10713
  157.7473  131.0399  150.4575 LP  0  0  0  0  0  0  0  0  0  0  0  0  # atno 17371 bound_to 10713
  140.7519  133.8890  155.8353 LP  0  0  0  0  0  0  0  0  0  0  0  0  # atno 17394 bound_to 11000
  140.9993  134.1171  157.4332 LP  0  0  0  0  0  0  0  0  0  0  0  0  # atno 17395 bound_to 11000

$$$$
