AV-unprocessed.smi:2440|AV-procd|sdf|9618|dock10
  -GOLD-   2272013253D 1   1.00000     0.00000
 Structure written by MMmdl.
 53 55  0  0  0  0  0  0  0  0  3 V2000
  152.3662  144.2753  158.7846 C   0  0  0  0  0  0  0  0  0  0  0  0
  152.7069  142.8842  159.2910 C   0  0  0  0  0  0  0  0  0  0  0  0
  153.5657  142.7394  160.4026 C   0  0  0  0  0  0  0  0  0  0  0  0
  153.8793  141.5096  160.8620 N   0  3  0  0  0  0  0  0  0  0  0  0
  153.4078  140.3780  160.2984 C   0  0  0  0  0  0  0  0  0  0  0  0
  152.5464  140.4534  159.1863 C   0  0  0  0  0  0  0  0  0  0  0  0
  152.1735  141.7229  158.6748 C   0  0  0  0  0  0  0  0  0  0  0  0
  151.3261  141.8787  157.5413 N   0  0  0  0  0  0  0  0  0  0  0  0
  150.2336  141.1683  157.2117 C   0  0  0  0  0  0  0  0  0  0  0  0
  149.7593  140.2487  157.8783 O   0  0  0  0  0  0  0  0  0  0  0  0
  149.7017  141.6031  156.0597 N   0  0  0  0  0  0  0  0  0  0  0  0
  148.5083  141.0625  155.4129 C   0  0  2  0  0  0  0  0  0  0  0  0
  148.2713  141.7773  154.0698 C   0  0  0  0  0  0  0  0  0  0  0  0
  146.9319  141.3449  153.4423 C   0  0  0  0  0  0  0  0  0  0  0  0
  145.7835  141.6028  154.3584 N   0  3  2  0  0  0  0  0  0  0  0  0
  145.4152  143.0492  154.5474 C   0  0  0  0  0  0  0  0  0  0  0  0
  144.0594  143.2072  155.2881 C   0  0  0  0  0  0  0  0  0  0  0  0
  143.6241  144.6736  155.4363 C   0  0  0  0  0  0  0  0  0  0  0  0
  143.5527  145.3754  154.0773 C   0  0  0  0  0  0  0  0  0  0  0  0
  144.9024  145.2783  153.3607 C   0  0  0  0  0  0  0  0  0  0  0  0
  145.3477  143.8164  153.1985 C   0  0  0  0  0  0  0  0  0  0  0  0
  145.9846  140.8242  155.6152 C   0  0  0  0  0  0  0  0  0  0  0  0
  147.2869  141.2231  156.3375 C   0  0  0  0  0  0  0  0  0  0  0  0
  152.8611  145.0450  159.3776 H   0  0  0  0  0  0  0  0  0  0  0  0
  151.2909  144.4477  158.8398 H   0  0  0  0  0  0  0  0  0  0  0  0
  152.6830  144.3937  157.7480 H   0  0  0  0  0  0  0  0  0  0  0  0
  154.0121  143.5661  160.9361 H   0  0  0  0  0  0  0  0  0  0  0  0
  153.7362  139.4515  160.7466 H   0  0  0  0  0  0  0  0  0  0  0  0
  152.1984  139.5351  158.7382 H   0  0  0  0  0  0  0  0  0  0  0  0
  151.5394  142.6665  156.9471 H   0  0  0  0  0  0  0  0  0  0  0  0
  150.1595  142.3708  155.5900 H   0  0  0  0  0  0  0  0  0  0  0  0
  148.6354  139.9986  155.2037 H   0  0  0  0  0  0  0  0  0  0  0  0
  148.2864  142.8590  154.2072 H   0  0  0  0  0  0  0  0  0  0  0  0
  149.0873  141.5485  153.3828 H   0  0  0  0  0  0  0  0  0  0  0  0
  146.7917  141.7965  152.4627 H   0  0  0  0  0  0  0  0  0  0  0  0
  146.9693  140.2733  153.2410 H   0  0  0  0  0  0  0  0  0  0  0  0
  146.1824  143.5269  155.1568 H   0  0  0  0  0  0  0  0  0  0  0  0
  143.2840  142.6513  154.7594 H   0  0  0  0  0  0  0  0  0  0  0  0
  144.1095  142.7950  156.2942 H   0  0  0  0  0  0  0  0  0  0  0  0
  142.6527  144.7238  155.9292 H   0  0  0  0  0  0  0  0  0  0  0  0
  144.3260  145.2004  156.0842 H   0  0  0  0  0  0  0  0  0  0  0  0
  142.7733  144.9204  153.4646 H   0  0  0  0  0  0  0  0  0  0  0  0
  143.2743  146.4212  154.2103 H   0  0  0  0  0  0  0  0  0  0  0  0
  144.8364  145.7562  152.3828 H   0  0  0  0  0  0  0  0  0  0  0  0
  145.6564  145.8306  153.9233 H   0  0  0  0  0  0  0  0  0  0  0  0
  146.3216  143.8417  152.7124 H   0  0  0  0  0  0  0  0  0  0  0  0
  144.6677  143.3044  152.5163 H   0  0  0  0  0  0  0  0  0  0  0  0
  145.1306  140.8891  156.2853 H   0  0  0  0  0  0  0  0  0  0  0  0
  146.0408  139.7671  155.3507 H   0  0  0  0  0  0  0  0  0  0  0  0
  147.4152  140.6040  157.2264 H   0  0  0  0  0  0  0  0  0  0  0  0
  147.2143  142.2509  156.6946 H   0  0  0  0  0  0  0  0  0  0  0  0
  144.9801  141.1888  153.9071 H   0  0  0  0  0  0  0  0  0  0  0  0
  154.5030  141.4322  161.6658 H   0  0  0  0  0  0  0  0  0  0  0  0
  1  2  1  0  0  0  0
  1 24  1  0  0  0  0
  1 25  1  0  0  0  0
  1 26  1  0  0  0  0
  2  7  1  0  0  0  0
  2  3  2  0  0  0  0
  3  4  1  0  0  0  0
  3 27  1  0  0  0  0
  4  5  2  0  0  0  0
  4 53  1  0  0  0  0
  5  6  1  0  0  0  0
  5 28  1  0  0  0  0
  6  7  2  0  0  0  0
  6 29  1  0  0  0  0
  7  8  1  0  0  0  0
  8  9  1  0  0  0  0
  8 30  1  0  0  0  0
  9 10  2  0  0  0  0
  9 11  1  0  0  0  0
 11 12  1  0  0  0  0
 11 31  1  0  0  0  0
 12 23  1  0  0  0  0
 12 13  1  0  0  0  0
 12 32  1  0  0  0  0
 13 14  1  0  0  0  0
 13 33  1  0  0  0  0
 13 34  1  0  0  0  0
 14 15  1  0  0  0  0
 14 35  1  0  0  0  0
 14 36  1  0  0  0  0
 15 16  1  0  0  0  0
 15 22  1  0  0  0  0
 15 52  1  0  0  0  0
 16 21  1  0  0  0  0
 16 17  1  0  0  0  0
 16 37  1  0  0  0  0
 17 18  1  0  0  0  0
 17 38  1  0  0  0  0
 17 39  1  0  0  0  0
 18 19  1  0  0  0  0
 18 40  1  0  0  0  0
 18 41  1  0  0  0  0
 19 20  1  0  0  0  0
 19 42  1  0  0  0  0
 19 43  1  0  0  0  0
 20 21  1  0  0  0  0
 20 44  1  0  0  0  0
 20 45  1  0  0  0  0
 21 46  1  0  0  0  0
 21 47  1  0  0  0  0
 22 23  1  0  0  0  0
 22 48  1  0  0  0  0
 22 49  1  0  0  0  0
 23 50  1  0  0  0  0
 23 51  1  0  0  0  0
M  CHG  1   4   1
M  CHG  1  15   1
M  END
> <s_m_source_file>
AV-unprocessed.smi

> <i_m_source_file_index>
2440

> <i_lp_mmshare_version>
43012

> <i_f3d_flags>
0

> <s_epik_input>
W0NIM11jMVtjSF1uW2NIXVtjSF1jMVtOSF1DKD1PKVtOSF1bQ0hdMltDSDJdW0NIMl1OKFtDSDJdW0NIMl0yKVtDSF0zW0NIMl1bQ0gyXVtDSDJdW0NIMl1bQ0gyXTM=

> <s_epik_cmdline>
J2VwaWtfcHl0aG9uJywgJy1waCcsICc3LjAnLCAnLXRuJywgJzgnLCAnLW1hJywgJzIwMCcsICctbWV0YWxfYmluZGluZycsICctaW1hZScsICc8aW5maWxlLm1hZT4nLCAnLW9tYWUnLCAnPG91dGZpbGUubWFlPic=

> <r_epik_Ionization_Penalty>
0.799454

> <r_epik_Ionization_Penalty_Charging>
0.799436

> <r_epik_Ionization_Penalty_Neutral>
1.84398e-05

> <r_epik_State_Penalty>
0.81805

> <r_epik_Charging_Adjusted_Penalty>
1.61749

> <i_epik_Tot_Q>
2

> <i_epik_Tot_abs_Q>
2

> <r_epik_Metal_State_Penalty>
0.955144

> <b_epik_Metal_Only>
0

> <s_lp_Force_Field>
OPLS_2005

> <r_lp_Energy>
43.248

> <b_lp_Chiralities_Consistent>
1

> <s_lp_Variant>
AV-unprocessed.smi:2440-4

> <Gold.Version>
5.8.1

> <Gold.Id.Protein>
6NUR|6NUR_protein|mol2

> <Gold.PLP.Fitness>
47.7586

> <Gold.PLP.PLP>
-42.4783

> <Gold.PLP.part.hbond>
-1.0248

> <Gold.PLP.part.metal>
0.0000

> <Gold.PLP.part.buried>
-6.8162

> <Gold.PLP.part.nonpolar>
-35.5314

> <Gold.PLP.part.repulsive>
0.1730

> <Gold.PLP.ligand.clash>
0.0000

> <Gold.PLP.ligand.torsion>
0.3829

> <Gold.PLP.Chemscore.Hbond>
2.0000

> <Gold.PLP.Chemscore.CHOScore>
0.0000

> <Gold.PLP.Chemscore.Metal>
0.0000

> <Gold.Chemscore.Hbonds>
donor molecule, donor type, donor heavy atom, donor atom, acceptor molecule, acceptor atom, score
      L1  H    15    52       P1 10175  1.95

> <Gold.PLP.Chemscore.Internal.Correction>
0.0461

> <Gold.Rescore>
     Score         DG    S(hbond)    S(metal)    S(lipo)     H(rot)  DE(clash)    DE(int)     intcor
     18.37     -20.20       0.84        0.00     127.80       1.18       0.88       0.96       ----

> <Gold.Chemscore.Fitness>
18.3657

> <Gold.Chemscore.DG>
-20.1990

> <Gold.Chemscore.ZeroCoef>
-5.4800

> <Gold.Chemscore.Hbond>
0.8379

> <Gold.Chemscore.Metal>
0.0000

> <Gold.Chemscore.Lipo>
127.8042

> <Gold.Chemscore.Internal_Hbond>
0.0000

> <Gold.Chemscore.DEClash>
0.8765

> <Gold.Chemscore.DEInternal>
0.9569

> <Gold.Chemscore.Rot>
1.1846

> <Gold.Chemscore.Internal.Correction>
   9.000000E+99

> <Gold.Chemscore.Hbonds>
donor molecule, donor type, donor heavy atom, donor atom, acceptor molecule, acceptor atom, score
      L1  H    15    52       P1 10175  0.59

> <Gold.Chemscore.Hbond.Weighted>
-2.7985

> <Gold.Chemscore.Metal.Weighted>
-0.0000

> <Gold.Chemscore.Lipo.Weighted>
-14.9531

> <Gold.Chemscore.Internal_Hbond.Weighted>
0.0000

> <Gold.Chemscore.DEClash.Weighted>
0.8765

> <Gold.Chemscore.DEInternal.Weighted>
0.9569

> <Gold.Chemscore.Rot.Weighted>
3.0326

> <Gold.Chemscore.Internal.Correction.Weighted>
   9.000000E+99

> <Gold.Protein.RotatedTorsions>
[ 6907 6896 6895 6894 ] final -174.77 input  -60.11 | X-H torsion
[ 7974 7965 7964 7962 ] final  -97.32 input  175.53 | X-H torsion
[ 8008 7997 7996 7995 ] final  153.68 input   59.86 | X-H torsion
[ 10167 10162 10161 10158 ] final  -82.53 input  -65.29 | X-H torsion
[ 10718 10713 10712 10709 ] final  173.06 input   66.30 | X-H torsion
[ 10763 10752 10751 10750 ] final  -89.85 input  -60.55 | X-H torsion
[ 11005 11000 10999 10996 ] final -143.46 input  -57.11 | X-H torsion

> <Gold.Protein.ActiveResidues>
 VAL166  LYS551  ARG553  GLY616  TRP617  ASP618  TYR619  PRO620  LYS621  CYS622 
 ASP623  PHE694  ASN695  SER759  ASP760  ASP761  ALA762  ILE779  LEU786  VAL792 
 PHE793  MET794  SER795  GLU796  ALA797  LYS798  CYS799  TRP800  GLU811  SER814 

> <Gold.Protein.RotatedAtoms>
  151.5778  133.3381  159.3002 H   0  0  0  0  0  0  0  0  0  0  0  0  # atno 6907 bound_to 6896
  150.8331  134.7595  159.6881 H   0  0  0  0  0  0  0  0  0  0  0  0  # atno 6908 bound_to 6896
  152.4411  134.5595  159.9941 H   0  0  0  0  0  0  0  0  0  0  0  0  # atno 6909 bound_to 6896
  145.3353  140.9449  143.2638 H   0  0  0  0  0  0  0  0  0  0  0  0  # atno 7974 bound_to 7965
  156.2569  140.1987  156.6528 H   0  0  0  0  0  0  0  0  0  0  0  0  # atno 8008 bound_to 7997
  154.6524  140.0570  156.9995 H   0  0  0  0  0  0  0  0  0  0  0  0  # atno 8009 bound_to 7997
  155.1398  140.3241  155.4457 H   0  0  0  0  0  0  0  0  0  0  0  0  # atno 8010 bound_to 7997
  140.4312  143.2548  151.8757 H   0  0  0  0  0  0  0  0  0  0  0  0  # atno 10167 bound_to 10162
  156.9698  131.0086  151.2908 H   0  0  0  0  0  0  0  0  0  0  0  0  # atno 10718 bound_to 10713
  154.6596  135.5326  153.8001 H   0  0  0  0  0  0  0  0  0  0  0  0  # atno 10763 bound_to 10752
  153.0434  135.6502  154.0892 H   0  0  0  0  0  0  0  0  0  0  0  0  # atno 10764 bound_to 10752
  154.0802  135.2947  155.3271 H   0  0  0  0  0  0  0  0  0  0  0  0  # atno 10765 bound_to 10752
  140.8123  134.2729  157.4935 H   0  0  0  0  0  0  0  0  0  0  0  0  # atno 11005 bound_to 11000
  144.8832  139.4875  143.6713 LP  0  0  0  0  0  0  0  0  0  0  0  0  # atno 17320 bound_to 7965
  146.3029  139.7485  142.9078 LP  0  0  0  0  0  0  0  0  0  0  0  0  # atno 17321 bound_to 7965
  139.4785  144.5333  151.8635 LP  0  0  0  0  0  0  0  0  0  0  0  0  # atno 17342 bound_to 10162
  140.4425  144.1966  150.5892 LP  0  0  0  0  0  0  0  0  0  0  0  0  # atno 17343 bound_to 10162
  157.5600  130.8239  149.8254 LP  0  0  0  0  0  0  0  0  0  0  0  0  # atno 17370 bound_to 10713
  156.0287  130.3771  150.1748 LP  0  0  0  0  0  0  0  0  0  0  0  0  # atno 17371 bound_to 10713
  139.8713  134.9490  156.4013 LP  0  0  0  0  0  0  0  0  0  0  0  0  # atno 17394 bound_to 11000
  140.9185  133.7662  155.9877 LP  0  0  0  0  0  0  0  0  0  0  0  0  # atno 17395 bound_to 11000

$$$$
