AV-unprocessed.smi:472|AV-procd|sdf|2660|dock3
  -GOLD-   2262023 73D 1   1.00000     0.00000
 Structure written by MMmdl.
 35 36  0  0  0  0  0  0  0  0  1 V2000
  149.0997  140.1649  154.4277 C   0  0  0  0  0  0  0  0  0  0  0  0
  150.4196  140.5250  154.7937 O   0  0  0  0  0  0  0  0  0  0  0  0
  150.4644  141.6935  155.5959 C   0  0  0  0  0  0  0  0  0  0  0  0
  150.2010  141.3331  157.0654 C   0  0  0  0  0  0  0  0  0  0  0  0
  151.3960  140.8168  157.7274 N   0  0  0  0  0  0  0  0  0  0  0  0
  152.1364  139.7415  157.3611 C   0  0  0  0  0  0  0  0  0  0  0  0
  151.7836  138.9939  156.2426 N   0  0  0  0  0  0  0  0  0  0  0  0
  152.4587  137.8686  155.7598 N   0  0  0  0  0  0  0  0  0  0  0  0
  153.1824  139.4852  158.1502 N   0  0  0  0  0  0  0  0  0  0  0  0
  153.0950  140.4853  159.1090 C   0  0  0  0  0  0  0  0  0  0  0  0
  152.0312  141.2912  158.8776 C   0  0  0  0  0  0  0  0  0  0  0  0
  151.6909  142.4240  159.7472 C   0  0  0  0  0  0  0  0  0  0  0  0
  150.7134  143.1398  159.5237 O   0  0  0  0  0  0  0  0  0  0  0  0
  152.5450  142.5946  160.8040 N   0  0  0  0  0  0  0  0  0  0  0  0
  152.2362  143.7242  161.7013 C   0  0  0  0  0  0  0  0  0  0  0  0
  153.6384  141.7921  161.0836 C   0  0  0  0  0  0  0  0  0  0  0  0
  154.3535  141.9946  162.0685 O   0  0  0  0  0  0  0  0  0  0  0  0
  153.9172  140.7501  160.2347 N   0  0  0  0  0  0  0  0  0  0  0  0
  155.0719  139.8848  160.4928 C   0  0  0  0  0  0  0  0  0  0  0  0
  149.1238  139.2661  153.8115 H   0  0  0  0  0  0  0  0  0  0  0  0
  148.6207  140.9565  153.8505 H   0  0  0  0  0  0  0  0  0  0  0  0
  148.4906  139.9541  155.3077 H   0  0  0  0  0  0  0  0  0  0  0  0
  151.4410  142.1706  155.4999 H   0  0  0  0  0  0  0  0  0  0  0  0
  149.7168  142.4106  155.2539 H   0  0  0  0  0  0  0  0  0  0  0  0
  149.8468  142.2117  157.6054 H   0  0  0  0  0  0  0  0  0  0  0  0
  149.3959  140.6048  157.1435 H   0  0  0  0  0  0  0  0  0  0  0  0
  150.9533  139.2748  155.7409 H   0  0  0  0  0  0  0  0  0  0  0  0
  153.1036  137.5365  156.4744 H   0  0  0  0  0  0  0  0  0  0  0  0
  151.7798  137.1327  155.5724 H   0  0  0  0  0  0  0  0  0  0  0  0
  152.9809  143.9167  162.4739 H   0  0  0  0  0  0  0  0  0  0  0  0
  151.2881  143.5497  162.2128 H   0  0  0  0  0  0  0  0  0  0  0  0
  152.1447  144.6531  161.1352 H   0  0  0  0  0  0  0  0  0  0  0  0
  155.9889  140.4732  160.5521 H   0  0  0  0  0  0  0  0  0  0  0  0
  155.2215  139.1362  159.7148 H   0  0  0  0  0  0  0  0  0  0  0  0
  154.9460  139.3537  161.4374 H   0  0  0  0  0  0  0  0  0  0  0  0
  1  2  1  0  0  0  0
  1 20  1  0  0  0  0
  1 21  1  0  0  0  0
  1 22  1  0  0  0  0
  2  3  1  0  0  0  0
  3  4  1  0  0  0  0
  3 23  1  0  0  0  0
  3 24  1  0  0  0  0
  4  5  1  0  0  0  0
  4 25  1  0  0  0  0
  4 26  1  0  0  0  0
  5 11  1  0  0  0  0
  5  6  1  0  0  0  0
  6  7  1  0  0  0  0
  6  9  2  0  0  0  0
  7  8  1  0  0  0  0
  7 27  1  0  0  0  0
  8 28  1  0  0  0  0
  8 29  1  0  0  0  0
  9 10  1  0  0  0  0
 10 18  1  0  0  0  0
 10 11  2  0  0  0  0
 11 12  1  0  0  0  0
 12 13  2  0  0  0  0
 12 14  1  0  0  0  0
 14 15  1  0  0  0  0
 14 16  1  0  0  0  0
 15 30  1  0  0  0  0
 15 31  1  0  0  0  0
 15 32  1  0  0  0  0
 16 17  2  0  0  0  0
 16 18  1  0  0  0  0
 18 19  1  0  0  0  0
 19 33  1  0  0  0  0
 19 34  1  0  0  0  0
 19 35  1  0  0  0  0
M  END
> <s_m_source_file>
AV-unprocessed.smi

> <i_m_source_file_index>
472

> <i_lp_mmshare_version>
43012

> <i_f3d_flags>
0

> <s_epik_input>
W0NIM11PW0NIMl1bQ0gyXW4oYyhuMSlbTkhdW05IMl0pYyhjMTIpYyg9TyluKFtDSDNdKWMoPU8pbjJbQ0gzXQ==

> <s_epik_cmdline>
J2VwaWtfcHl0aG9uJywgJy1waCcsICc3LjAnLCAnLXRuJywgJzgnLCAnLW1hJywgJzIwMCcsICctbWV0YWxfYmluZGluZycsICctaW1hZScsICc8aW5maWxlLm1hZT4nLCAnLW9tYWUnLCAnPG91dGZpbGUubWFlPic=

> <r_lp_tautomer_probability>
1

> <r_epik_Ionization_Penalty>
0.000822794

> <r_epik_Ionization_Penalty_Charging>
3.05595e-09

> <r_epik_Ionization_Penalty_Neutral>
0.000822791

> <r_epik_State_Penalty>
-0

> <r_epik_Charging_Adjusted_Penalty>
3.05595e-09

> <i_epik_Tot_Q>
0

> <i_epik_Tot_abs_Q>
0

> <r_epik_Metal_State_Penalty>
-0

> <b_epik_Metal_Only>
0

> <s_lp_Force_Field>
OPLS_2005

> <r_lp_Energy>
30.834

> <b_lp_Chiralities_Consistent>
1

> <s_lp_Variant>
AV-unprocessed.smi:472-1

> <Gold.Version>
5.8.1

> <Gold.Id.Protein>
6NUR|6NUR_protein|mol2

> <Gold.PLP.Fitness>
41.5093

> <Gold.PLP.PLP>
-35.9935

> <Gold.PLP.part.hbond>
-3.7349

> <Gold.PLP.part.metal>
0.0000

> <Gold.PLP.part.buried>
-2.0419

> <Gold.PLP.part.nonpolar>
-29.0646

> <Gold.PLP.part.repulsive>
0.2493

> <Gold.PLP.ligand.clash>
0.0000

> <Gold.PLP.ligand.torsion>
0.2313

> <Gold.PLP.Chemscore.Hbond>
1.9920

> <Gold.PLP.Chemscore.CHOScore>
0.0000

> <Gold.PLP.Chemscore.Metal>
0.0000

> <Gold.Chemscore.Hbonds>
donor molecule, donor type, donor heavy atom, donor atom, acceptor molecule, acceptor atom, score
      P1  H  7989  7998       L1     2  0.99
      P1  H  7997  8009       L1     9  1.00

> <Gold.PLP.Chemscore.Internal.Correction>
0.0023

> <Gold.Rescore>
     Score         DG    S(hbond)    S(metal)    S(lipo)     H(rot)  DE(clash)    DE(int)     intcor
      8.96     -10.96       1.30        0.00      46.78       1.70       1.85       0.15       ----

> <Gold.Chemscore.Fitness>
8.9619

> <Gold.Chemscore.DG>
-10.9591

> <Gold.Chemscore.ZeroCoef>
-5.4800

> <Gold.Chemscore.Hbond>
1.3038

> <Gold.Chemscore.Metal>
0.0000

> <Gold.Chemscore.Lipo>
46.7815

> <Gold.Chemscore.Internal_Hbond>
0.0000

> <Gold.Chemscore.DEClash>
1.8452

> <Gold.Chemscore.DEInternal>
0.1519

> <Gold.Chemscore.Rot>
1.6988

> <Gold.Chemscore.Internal.Correction>
   9.000000E+99

> <Gold.Chemscore.Hbonds>
donor molecule, donor type, donor heavy atom, donor atom, acceptor molecule, acceptor atom, score
      P1  H  7989  7998       L1     2  0.36
      P1  H  7997  8009       L1     9  0.13

> <Gold.Chemscore.Hbond.Weighted>
-4.3546

> <Gold.Chemscore.Metal.Weighted>
-0.0000

> <Gold.Chemscore.Lipo.Weighted>
-5.4734

> <Gold.Chemscore.Internal_Hbond.Weighted>
0.0000

> <Gold.Chemscore.DEClash.Weighted>
1.8452

> <Gold.Chemscore.DEInternal.Weighted>
0.1519

> <Gold.Chemscore.Rot.Weighted>
4.3490

> <Gold.Chemscore.Internal.Correction.Weighted>
   9.000000E+99

> <Gold.Protein.RotatedTorsions>
[ 6907 6896 6895 6894 ] final   66.82 input  -60.11 | X-H torsion
[ 7974 7965 7964 7962 ] final   26.28 input  175.53 | X-H torsion
[ 8008 7997 7996 7995 ] final  152.03 input   59.86 | X-H torsion
[ 10167 10162 10161 10158 ] final -109.91 input  -65.29 | X-H torsion
[ 10718 10713 10712 10709 ] final  -59.67 input   66.30 | X-H torsion
[ 10763 10752 10751 10750 ] final  -72.49 input  -60.55 | X-H torsion
[ 11005 11000 10999 10996 ] final   16.82 input  -57.11 | X-H torsion

> <Gold.Protein.ActiveResidues>
 VAL166  LYS551  ARG553  GLY616  TRP617  ASP618  TYR619  PRO620  LYS621  CYS622 
 ASP623  PHE694  ASN695  SER759  ASP760  ASP761  ALA762  ILE779  LEU786  VAL792 
 PHE793  MET794  SER795  GLU796  ALA797  LYS798  CYS799  TRP800  GLU811  SER814 

> <Gold.Protein.RotatedAtoms>
  152.4508  134.5398  159.9835 H   0  0  0  0  0  0  0  0  0  0  0  0  # atno 6907 bound_to 6896
  151.5471  133.3417  159.2954 H   0  0  0  0  0  0  0  0  0  0  0  0  # atno 6908 bound_to 6896
  150.8436  134.7769  159.7016 H   0  0  0  0  0  0  0  0  0  0  0  0  # atno 6909 bound_to 6896
  146.1846  139.7350  142.8876 H   0  0  0  0  0  0  0  0  0  0  0  0  # atno 7974 bound_to 7965
  156.2647  140.2031  156.6269 H   0  0  0  0  0  0  0  0  0  0  0  0  # atno 8008 bound_to 7997
  154.6713  140.0550  157.0192 H   0  0  0  0  0  0  0  0  0  0  0  0  # atno 8009 bound_to 7997
  155.1133  140.3217  155.4519 H   0  0  0  0  0  0  0  0  0  0  0  0  # atno 8010 bound_to 7997
  140.1501  143.4206  152.1501 H   0  0  0  0  0  0  0  0  0  0  0  0  # atno 10167 bound_to 10162
  156.1045  130.4182  150.0747 H   0  0  0  0  0  0  0  0  0  0  0  0  # atno 10718 bound_to 10713
  154.4463  135.5928  153.6162 H   0  0  0  0  0  0  0  0  0  0  0  0  # atno 10763 bound_to 10752
  152.9809  135.6010  154.3659 H   0  0  0  0  0  0  0  0  0  0  0  0  # atno 10764 bound_to 10752
  154.3515  135.2841  155.2348 H   0  0  0  0  0  0  0  0  0  0  0  0  # atno 10765 bound_to 10752
  140.4429  134.1304  155.7692 H   0  0  0  0  0  0  0  0  0  0  0  0  # atno 11005 bound_to 11000
  145.3978  141.0381  143.3088 LP  0  0  0  0  0  0  0  0  0  0  0  0  # atno 17320 bound_to 7965
  144.8374  139.5528  143.6916 LP  0  0  0  0  0  0  0  0  0  0  0  0  # atno 17321 bound_to 7965
  139.5430  144.7273  151.4673 LP  0  0  0  0  0  0  0  0  0  0  0  0  # atno 17342 bound_to 10162
  140.6707  143.8299  150.6996 LP  0  0  0  0  0  0  0  0  0  0  0  0  # atno 17343 bound_to 10162
  156.8726  130.9529  151.3608 LP  0  0  0  0  0  0  0  0  0  0  0  0  # atno 17370 bound_to 10713
  157.6220  130.8662  149.9125 LP  0  0  0  0  0  0  0  0  0  0  0  0  # atno 17371 bound_to 10713
  141.1698  133.8632  157.1606 LP  0  0  0  0  0  0  0  0  0  0  0  0  # atno 17394 bound_to 11000
  140.0058  135.0009  157.0289 LP  0  0  0  0  0  0  0  0  0  0  0  0  # atno 17395 bound_to 11000

$$$$
