AV-unprocessed.smi:1701|AV-procd|sdf|6830|dock3
  -GOLD-   22720 8 03D 1   1.00000     0.00000
 Structure written by MMmdl.
 54 56  0  0  0  0  0  0  0  0  2 V2000
  152.4934  141.1902  159.3726 C   0  0  0  0  0  0  0  0  0  0  0  0
  152.3876  140.4398  158.0369 C   0  0  0  0  0  0  0  0  0  0  0  0
  151.2708  140.8937  157.2067 N   0  0  0  0  0  0  0  0  0  0  0  0
  150.9818  142.3286  157.1295 C   0  0  0  0  0  0  0  0  0  0  0  0
  150.2127  142.8568  158.3500 C   0  0  0  0  0  0  0  0  0  0  0  0
  150.5775  139.9846  156.3674 C   0  0  0  0  0  0  0  0  0  0  0  0
  151.2528  139.1803  155.4145 C   0  0  0  0  0  0  0  0  0  0  0  0
  150.5168  138.2900  154.6095 C   0  0  0  0  0  0  0  0  0  0  0  0
  149.1140  138.2221  154.7659 C   0  0  0  0  0  0  0  0  0  0  0  0
  148.2642  137.3492  154.0348 N   0  0  0  0  0  0  0  0  0  0  0  0
  147.0993  136.7903  154.4175 C   0  0  0  0  0  0  0  0  0  0  0  0
  146.6161  136.8790  155.5435 O   0  0  0  0  0  0  0  0  0  0  0  0
  146.4876  136.0771  153.4546 N   0  0  0  0  0  0  0  0  0  0  0  0
  145.2196  135.3478  153.5358 C   0  0  1  0  0  0  0  0  0  0  0  0
  144.1140  135.9812  152.7005 C   0  0  0  0  0  0  0  0  0  0  0  0
  143.0953  134.8463  152.5567 C   0  0  0  0  0  0  0  0  0  0  0  0
  143.8529  133.5748  152.6578 N   0  3  1  0  0  0  0  0  0  0  0  0
  143.6735  132.6708  151.4903 C   0  0  0  0  0  0  0  0  0  0  0  0
  144.7555  131.5810  151.4683 C   0  0  0  0  0  0  0  0  0  0  0  0
  146.1644  132.1881  151.3292 C   0  0  0  0  0  0  0  0  0  0  0  0
  146.2297  133.6470  151.8198 C   0  0  0  0  0  0  0  0  0  0  0  0
  145.2662  133.9000  153.0055 C   0  0  1  0  0  0  0  0  0  0  0  0
  148.5297  139.0486  155.7443 C   0  0  0  0  0  0  0  0  0  0  0  0
  149.2321  139.9025  156.5165 N   0  0  0  0  0  0  0  0  0  0  0  0
  153.3614  140.8463  159.9356 H   0  0  0  0  0  0  0  0  0  0  0  0
  151.6161  141.0230  159.9960 H   0  0  0  0  0  0  0  0  0  0  0  0
  152.6005  142.2648  159.2250 H   0  0  0  0  0  0  0  0  0  0  0  0
  153.3236  140.5073  157.4827 H   0  0  0  0  0  0  0  0  0  0  0  0
  152.2605  139.3765  158.2416 H   0  0  0  0  0  0  0  0  0  0  0  0
  151.9058  142.8917  156.9946 H   0  0  0  0  0  0  0  0  0  0  0  0
  150.3938  142.5237  156.2323 H   0  0  0  0  0  0  0  0  0  0  0  0
  150.0292  143.9267  158.2514 H   0  0  0  0  0  0  0  0  0  0  0  0
  150.7718  142.7036  159.2730 H   0  0  0  0  0  0  0  0  0  0  0  0
  149.2455  142.3690  158.4604 H   0  0  0  0  0  0  0  0  0  0  0  0
  152.3218  139.2245  155.2775 H   0  0  0  0  0  0  0  0  0  0  0  0
  151.0464  137.6711  153.9025 H   0  0  0  0  0  0  0  0  0  0  0  0
  148.5938  137.1002  153.1142 H   0  0  0  0  0  0  0  0  0  0  0  0
  146.9740  136.0128  152.5718 H   0  0  0  0  0  0  0  0  0  0  0  0
  144.8767  135.3364  154.5726 H   0  0  0  0  0  0  0  0  0  0  0  0
  143.6888  136.8727  153.1625 H   0  0  0  0  0  0  0  0  0  0  0  0
  144.4952  136.2617  151.7171 H   0  0  0  0  0  0  0  0  0  0  0  0
  142.3835  134.8773  153.3825 H   0  0  0  0  0  0  0  0  0  0  0  0
  142.5226  134.9348  151.6323 H   0  0  0  0  0  0  0  0  0  0  0  0
  142.6796  132.2247  151.5358 H   0  0  0  0  0  0  0  0  0  0  0  0
  143.7212  133.2413  150.5610 H   0  0  0  0  0  0  0  0  0  0  0  0
  144.6960  131.0047  152.3928 H   0  0  0  0  0  0  0  0  0  0  0  0
  144.5723  130.8750  150.6576 H   0  0  0  0  0  0  0  0  0  0  0  0
  146.8716  131.5734  151.8875 H   0  0  0  0  0  0  0  0  0  0  0  0
  146.4878  132.1508  150.2883 H   0  0  0  0  0  0  0  0  0  0  0  0
  147.2594  133.8818  152.0900 H   0  0  0  0  0  0  0  0  0  0  0  0
  145.9727  134.3165  150.9976 H   0  0  0  0  0  0  0  0  0  0  0  0
  145.5695  133.2383  153.8181 H   0  0  0  0  0  0  0  0  0  0  0  0
  147.4631  139.0272  155.9148 H   0  0  0  0  0  0  0  0  0  0  0  0
  143.4783  133.0864  153.4587 H   0  0  0  0  0  0  0  0  0  0  0  0
  1  2  1  0  0  0  0
  1 25  1  0  0  0  0
  1 26  1  0  0  0  0
  1 27  1  0  0  0  0
  2  3  1  0  0  0  0
  2 28  1  0  0  0  0
  2 29  1  0  0  0  0
  3  4  1  0  0  0  0
  3  6  1  0  0  0  0
  4  5  1  0  0  0  0
  4 30  1  0  0  0  0
  4 31  1  0  0  0  0
  5 32  1  0  0  0  0
  5 33  1  0  0  0  0
  5 34  1  0  0  0  0
  6 24  1  0  0  0  0
  6  7  2  0  0  0  0
  7  8  1  0  0  0  0
  7 35  1  0  0  0  0
  8  9  2  0  0  0  0
  8 36  1  0  0  0  0
  9 10  1  0  0  0  0
  9 23  1  0  0  0  0
 10 11  1  0  0  0  0
 10 37  1  0  0  0  0
 11 12  2  0  0  0  0
 11 13  1  0  0  0  0
 13 14  1  0  0  0  0
 13 38  1  0  0  0  0
 14 22  1  0  0  0  0
 14 15  1  0  0  0  0
 14 39  1  0  0  0  0
 15 16  1  0  0  0  0
 15 40  1  0  0  0  0
 15 41  1  0  0  0  0
 16 17  1  0  0  0  0
 16 42  1  0  0  0  0
 16 43  1  0  0  0  0
 17 22  1  0  0  0  0
 17 18  1  0  0  0  0
 17 54  1  0  0  0  0
 18 19  1  0  0  0  0
 18 44  1  0  0  0  0
 18 45  1  0  0  0  0
 19 20  1  0  0  0  0
 19 46  1  0  0  0  0
 19 47  1  0  0  0  0
 20 21  1  0  0  0  0
 20 48  1  0  0  0  0
 20 49  1  0  0  0  0
 21 22  1  0  0  0  0
 21 50  1  0  0  0  0
 21 51  1  0  0  0  0
 22 52  1  0  0  0  0
 23 24  2  0  0  0  0
 23 53  1  0  0  0  0
M  CHG  1  17   1
M  END
> <s_m_source_file>
AV-unprocessed.smi

> <i_m_source_file_index>
1701

> <i_lp_mmshare_version>
43012

> <i_f3d_flags>
0

> <s_epik_input>
W0NIM11bQ0gyXU4oW0NIMl1bQ0gzXSljMVtjSF1bY0hdYyhbY0hdbjEpW05IXUMoPU8pW05IXVtDQEhdKFtDSDJdW0NIMl0yKVtDQEBIXShOMjMpW0NIMl1bQ0gyXVtDSDJdW0NIMl0z

> <s_epik_cmdline>
J2VwaWtfcHl0aG9uJywgJy1waCcsICc3LjAnLCAnLXRuJywgJzgnLCAnLW1hJywgJzIwMCcsICctbWV0YWxfYmluZGluZycsICctaW1hZScsICc8aW5maWxlLm1hZT4nLCAnLW9tYWUnLCAnPG91dGZpbGUubWFlPic=

> <r_lp_tautomer_probability>
1

> <r_epik_Ionization_Penalty>
0.56662

> <r_epik_Ionization_Penalty_Charging>
0.000974069

> <r_epik_Ionization_Penalty_Neutral>
0.565646

> <r_epik_State_Penalty>
2.0247

> <r_epik_Charging_Adjusted_Penalty>
2.02568

> <i_epik_Tot_Q>
1

> <i_epik_Tot_abs_Q>
1

> <r_epik_Metal_State_Penalty>
1.51504

> <b_epik_Metal_Only>
0

> <s_lp_Force_Field>
OPLS_2005

> <r_lp_Energy>
59.6677

> <b_lp_Chiralities_Consistent>
1

> <s_lp_Variant>
AV-unprocessed.smi:1701-10

> <Gold.Version>
5.8.1

> <Gold.Id.Protein>
6NUR|6NUR_protein|mol2

> <Gold.PLP.Fitness>
42.5412

> <Gold.PLP.PLP>
-35.5309

> <Gold.PLP.part.hbond>
-2.8659

> <Gold.PLP.part.metal>
0.0000

> <Gold.PLP.part.buried>
-5.6652

> <Gold.PLP.part.nonpolar>
-28.2051

> <Gold.PLP.part.repulsive>
0.0344

> <Gold.PLP.ligand.clash>
0.0000

> <Gold.PLP.ligand.torsion>
1.8640

> <Gold.PLP.Chemscore.Hbond>
3.5389

> <Gold.PLP.Chemscore.CHOScore>
0.0000

> <Gold.PLP.Chemscore.Metal>
0.0000

> <Gold.Chemscore.Hbonds>
donor molecule, donor type, donor heavy atom, donor atom, acceptor molecule, acceptor atom, score
      L1  H    10    37       P1  7948  1.00
      L1  H    13    38       P1  7948  0.64
      L1  H    17    54       P1 10957  1.98

> <Gold.PLP.Chemscore.Internal.Correction>
0.1216

> <Gold.Rescore>
     Score         DG    S(hbond)    S(metal)    S(lipo)     H(rot)  DE(clash)    DE(int)     intcor
     17.69     -21.69       2.70        0.00      89.70       1.28       0.15       3.86       ----

> <Gold.Chemscore.Fitness>
17.6906

> <Gold.Chemscore.DG>
-21.6933

> <Gold.Chemscore.ZeroCoef>
-5.4800

> <Gold.Chemscore.Hbond>
2.6960

> <Gold.Chemscore.Metal>
0.0000

> <Gold.Chemscore.Lipo>
89.7032

> <Gold.Chemscore.Internal_Hbond>
0.0000

> <Gold.Chemscore.DEClash>
0.1476

> <Gold.Chemscore.DEInternal>
3.8550

> <Gold.Chemscore.Rot>
1.2838

> <Gold.Chemscore.Internal.Correction>
   9.000000E+99

> <Gold.Chemscore.Hbonds>
donor molecule, donor type, donor heavy atom, donor atom, acceptor molecule, acceptor atom, score
      L1  H    10    37       P1  7948  0.96
      L1  H    13    38       P1  7948  0.62
      L1  H    17    54       P1 10957  0.84

> <Gold.Chemscore.Hbond.Weighted>
-9.0045

> <Gold.Chemscore.Metal.Weighted>
-0.0000

> <Gold.Chemscore.Lipo.Weighted>
-10.4953

> <Gold.Chemscore.Internal_Hbond.Weighted>
0.0000

> <Gold.Chemscore.DEClash.Weighted>
0.1476

> <Gold.Chemscore.DEInternal.Weighted>
3.8550

> <Gold.Chemscore.Rot.Weighted>
3.2865

> <Gold.Chemscore.Internal.Correction.Weighted>
   9.000000E+99

> <Gold.Protein.RotatedTorsions>
[ 6907 6896 6895 6894 ] final  -23.57 input  -60.11 | X-H torsion
[ 7974 7965 7964 7962 ] final  -70.41 input  175.53 | X-H torsion
[ 8008 7997 7996 7995 ] final  -37.01 input   59.86 | X-H torsion
[ 10167 10162 10161 10158 ] final  -11.60 input  -65.29 | X-H torsion
[ 10718 10713 10712 10709 ] final  160.65 input   66.30 | X-H torsion
[ 10763 10752 10751 10750 ] final  -57.81 input  -60.55 | X-H torsion
[ 11005 11000 10999 10996 ] final   60.89 input  -57.11 | X-H torsion

> <Gold.Protein.ActiveResidues>
 VAL166  LYS551  ARG553  GLY616  TRP617  ASP618  TYR619  PRO620  LYS621  CYS622 
 ASP623  PHE694  ASN695  SER759  ASP760  ASP761  ALA762  ILE779  LEU786  VAL792 
 PHE793  MET794  SER795  GLU796  ALA797  LYS798  CYS799  TRP800  GLU811  SER814 

> <Gold.Protein.RotatedAtoms>
  151.2021  135.0446  159.8875 H   0  0  0  0  0  0  0  0  0  0  0  0  # atno 6907 bound_to 6896
  152.5432  134.0839  159.8257 H   0  0  0  0  0  0  0  0  0  0  0  0  # atno 6908 bound_to 6896
  151.0981  133.5217  159.2643 H   0  0  0  0  0  0  0  0  0  0  0  0  # atno 6909 bound_to 6896
  145.6913  140.9152  143.0780 H   0  0  0  0  0  0  0  0  0  0  0  0  # atno 7974 bound_to 7965
  154.4061  140.1615  156.2467 H   0  0  0  0  0  0  0  0  0  0  0  0  # atno 8008 bound_to 7997
  155.9154  140.3424  155.6108 H   0  0  0  0  0  0  0  0  0  0  0  0  # atno 8009 bound_to 7997
  155.7286  140.0777  157.2290 H   0  0  0  0  0  0  0  0  0  0  0  0  # atno 8010 bound_to 7997
  140.7142  143.5622  150.9183 H   0  0  0  0  0  0  0  0  0  0  0  0  # atno 10167 bound_to 10162
  157.1474  131.0555  151.2297 H   0  0  0  0  0  0  0  0  0  0  0  0  # atno 10718 bound_to 10713
  154.2282  135.6365  153.5167 H   0  0  0  0  0  0  0  0  0  0  0  0  # atno 10763 bound_to 10752
  152.9954  135.5513  154.6041 H   0  0  0  0  0  0  0  0  0  0  0  0  # atno 10764 bound_to 10752
  154.5517  135.2902  155.0976 H   0  0  0  0  0  0  0  0  0  0  0  0  # atno 10765 bound_to 10752
  140.0199  134.6168  155.9654 H   0  0  0  0  0  0  0  0  0  0  0  0  # atno 11005 bound_to 11000
  144.6996  139.8826  143.7448 LP  0  0  0  0  0  0  0  0  0  0  0  0  # atno 17320 bound_to 7965
  146.0879  139.3868  143.0424 LP  0  0  0  0  0  0  0  0  0  0  0  0  # atno 17321 bound_to 7965
  139.9347  143.6452  152.3068 LP  0  0  0  0  0  0  0  0  0  0  0  0  # atno 17342 bound_to 10162
  139.6915  144.7646  151.1430 LP  0  0  0  0  0  0  0  0  0  0  0  0  # atno 17343 bound_to 10162
  157.4251  130.7459  149.6945 LP  0  0  0  0  0  0  0  0  0  0  0  0  # atno 17370 bound_to 10713
  155.9777  130.4060  150.3697 LP  0  0  0  0  0  0  0  0  0  0  0  0  # atno 17371 bound_to 10713
  141.1767  133.6541  156.4857 LP  0  0  0  0  0  0  0  0  0  0  0  0  # atno 17394 bound_to 11000
  140.4405  134.7020  157.4989 LP  0  0  0  0  0  0  0  0  0  0  0  0  # atno 17395 bound_to 11000

$$$$
