AV-unprocessed.smi:101|AV-procd|sdf|944|dock1
  -GOLD-   2262017463D 1   1.00000     0.00000
 Structure written by MMmdl.
 43 45  0  0  0  0  0  0  0  0  2 V2000
  145.5013  142.5525  157.9505 C   0  0  0  0  0  0  0  0  0  0  0  0
  145.6339  142.8273  156.4627 C   0  0  0  0  0  0  0  0  0  0  0  0
  146.4432  142.0982  155.6632 C   0  0  0  0  0  0  0  0  0  0  0  0
  146.5685  142.3469  154.3036 N   0  0  0  0  0  0  0  0  0  0  0  0
  147.5539  141.5777  153.4287 C   0  0  1  0  0  0  0  0  0  0  0  0
  148.8080  141.6521  154.0294 O   0  0  0  0  0  0  0  0  0  0  0  0
  148.9724  140.5238  154.8769 C   0  0  2  0  0  0  0  0  0  0  0  0
  150.4478  140.3393  155.2600 C   0  0  0  0  0  0  0  0  0  0  0  0
  150.8521  141.4382  156.0596 O   0  0  0  0  0  0  0  0  0  0  0  0
  151.8221  141.2855  156.9799 C   0  0  0  0  0  0  0  0  0  0  0  0
  152.4732  140.2481  157.1197 O   0  0  0  0  0  0  0  0  0  0  0  0
  152.0248  142.5045  157.8151 C   0  0  0  0  0  0  0  0  0  0  0  0
  152.7235  142.3974  159.0404 C   0  0  0  0  0  0  0  0  0  0  0  0
  152.9309  143.5314  159.8493 C   0  0  0  0  0  0  0  0  0  0  0  0
  152.4418  144.7865  159.4432 C   0  0  0  0  0  0  0  0  0  0  0  0
  151.7452  144.9063  158.2265 C   0  0  0  0  0  0  0  0  0  0  0  0
  151.5369  143.7734  157.4159 C   0  0  0  0  0  0  0  0  0  0  0  0
  148.3294  139.3834  154.0665 C   0  0  2  0  0  0  0  0  0  0  0  0
  149.2913  138.7320  153.2509 O   0  0  0  0  0  0  0  0  0  0  0  0
  147.2221  140.0799  153.2558 C   0  0  2  0  0  0  0  0  0  0  0  0
  147.1933  139.6923  151.8940 O   0  0  0  0  0  0  0  0  0  0  0  0
  145.9010  143.4754  153.7510 C   0  0  0  0  0  0  0  0  0  0  0  0
  146.1017  143.7533  152.5687 O   0  0  0  0  0  0  0  0  0  0  0  0
  145.0653  144.2039  154.5447 N   0  5  0  0  0  0  0  0  0  0  0  0
  144.8765  143.9317  155.8665 C   0  0  0  0  0  0  0  0  0  0  0  0
  144.1017  144.5837  156.5655 O   0  0  0  0  0  0  0  0  0  0  0  0
  146.1441  141.7284  158.2611 H   0  0  0  0  0  0  0  0  0  0  0  0
  144.4723  142.2909  158.1986 H   0  0  0  0  0  0  0  0  0  0  0  0
  145.7815  143.4344  158.5274 H   0  0  0  0  0  0  0  0  0  0  0  0
  147.0187  141.3102  156.1225 H   0  0  0  0  0  0  0  0  0  0  0  0
  147.5632  142.0893  152.4656 H   0  0  0  0  0  0  0  0  0  0  0  0
  148.3923  140.6769  155.7874 H   0  0  0  0  0  0  0  0  0  0  0  0
  150.5693  139.4200  155.8347 H   0  0  0  0  0  0  0  0  0  0  0  0
  151.0739  140.2617  154.3700 H   0  0  0  0  0  0  0  0  0  0  0  0
  153.1087  141.4443  159.3731 H   0  0  0  0  0  0  0  0  0  0  0  0
  153.4662  143.4373  160.7827 H   0  0  0  0  0  0  0  0  0  0  0  0
  152.6008  145.6560  160.0639 H   0  0  0  0  0  0  0  0  0  0  0  0
  151.3698  145.8693  157.9125 H   0  0  0  0  0  0  0  0  0  0  0  0
  150.9992  143.9014  156.4875 H   0  0  0  0  0  0  0  0  0  0  0  0
  147.9074  138.6310  154.7334 H   0  0  0  0  0  0  0  0  0  0  0  0
  148.8596  138.0465  152.7650 H   0  0  0  0  0  0  0  0  0  0  0  0
  146.2334  139.8494  153.6480 H   0  0  0  0  0  0  0  0  0  0  0  0
  147.9808  140.0070  151.4774 H   0  0  0  0  0  0  0  0  0  0  0  0
  1  2  1  0  0  0  0
  1 27  1  0  0  0  0
  1 28  1  0  0  0  0
  1 29  1  0  0  0  0
  2 25  1  0  0  0  0
  2  3  2  0  0  0  0
  3  4  1  0  0  0  0
  3 30  1  0  0  0  0
  4  5  1  0  0  0  0
  4 22  1  0  0  0  0
  5 20  1  0  0  0  0
  5  6  1  0  0  0  0
  5 31  1  0  0  0  0
  6  7  1  0  0  0  0
  7  8  1  0  0  0  0
  7 18  1  0  0  0  0
  7 32  1  0  0  0  0
  8  9  1  0  0  0  0
  8 33  1  0  0  0  0
  8 34  1  0  0  0  0
  9 10  1  0  0  0  0
 10 11  2  0  0  0  0
 10 12  1  0  0  0  0
 12 17  1  0  0  0  0
 12 13  2  0  0  0  0
 13 14  1  0  0  0  0
 13 35  1  0  0  0  0
 14 15  2  0  0  0  0
 14 36  1  0  0  0  0
 15 16  1  0  0  0  0
 15 37  1  0  0  0  0
 16 17  2  0  0  0  0
 16 38  1  0  0  0  0
 17 39  1  0  0  0  0
 18 19  1  0  0  0  0
 18 20  1  0  0  0  0
 18 40  1  0  0  0  0
 19 41  1  0  0  0  0
 20 21  1  0  0  0  0
 20 42  1  0  0  0  0
 21 43  1  0  0  0  0
 22 23  2  0  0  0  0
 22 24  1  0  0  0  0
 24 25  1  0  0  0  0
 25 26  2  0  0  0  0
M  CHG  1  24  -1
M  END
> <s_m_source_file>
AV-unprocessed.smi

> <i_m_source_file_index>
101

> <i_lp_mmshare_version>
43012

> <i_f3d_flags>
0

> <s_epik_input>
Tz1jMVtuSF1jKD1PKW4oW2NIXWMxW0NIM10pW0NAQEhdMk9bQ0BIXShbQ0BASF0oW09IXSlbQ0BIXTJbT0hdKVtDSDJdT0MoPU8pYzNbY0hdW2NIXVtjSF1bY0hdW2NIXTM=

> <s_epik_cmdline>
J2VwaWtfcHl0aG9uJywgJy1waCcsICc3LjAnLCAnLXRuJywgJzgnLCAnLW1hJywgJzIwMCcsICctbWV0YWxfYmluZGluZycsICctaW1hZScsICc8aW5maWxlLm1hZT4nLCAnLW9tYWUnLCAnPG91dGZpbGUubWFlPic=

> <r_lp_tautomer_probability>
0.999537

> <r_epik_Ionization_Penalty>
3.21006

> <r_epik_Ionization_Penalty_Charging>
5.75142e-08

> <r_epik_Ionization_Penalty_Neutral>
3.21006

> <r_epik_State_Penalty>
3.20925

> <r_epik_Charging_Adjusted_Penalty>
3.20925

> <i_epik_Tot_Q>
-1

> <i_epik_Tot_abs_Q>
1

> <r_epik_Metal_State_Penalty>
0.119957

> <b_epik_Metal_Only>
1

> <s_epik_Chemistry_Notes>
This compound has an ester and may undergo hydrolysis at high or low pH. This compound contains an acetal/aminal-like group ( X-CH(R)-Y where X, Y are N, S, or O) that may be acid/base labile, releasing an aldehyde.

> <s_lp_Force_Field>
OPLS_2005

> <r_lp_Energy>
46.0166

> <b_lp_Chiralities_Consistent>
1

> <s_lp_Variant>
AV-unprocessed.smi:101-32

> <Gold.Version>
5.8.1

> <Gold.Id.Protein>
6NUR|6NUR_protein|mol2

> <Gold.PLP.Fitness>
57.3666

> <Gold.PLP.PLP>
-48.4172

> <Gold.PLP.part.hbond>
-5.3825

> <Gold.PLP.part.metal>
0.0000

> <Gold.PLP.part.buried>
-3.9517

> <Gold.PLP.part.nonpolar>
-37.9898

> <Gold.PLP.part.repulsive>
0.6757

> <Gold.PLP.ligand.clash>
0.0000

> <Gold.PLP.ligand.torsion>
0.4119

> <Gold.PLP.Chemscore.Hbond>
3.2106

> <Gold.PLP.Chemscore.CHOScore>
0.0000

> <Gold.PLP.Chemscore.Metal>
0.0000

> <Gold.Chemscore.Hbonds>
donor molecule, donor type, donor heavy atom, donor atom, acceptor molecule, acceptor atom, score
      L1  H    19    41       P1  7948  0.96
      L1  H    21    43       P1  7957  1.00
      P1  H  7997  8010       L1    11  0.98
      P1  H  8011  8017       L1     6  0.37

> <Gold.PLP.Chemscore.Internal.Correction>
0.1414

> <Gold.Rescore>
     Score         DG    S(hbond)    S(metal)    S(lipo)     H(rot)  DE(clash)    DE(int)     intcor
     16.58     -18.41       2.93        0.00      98.45       3.27       1.53       0.29       ----

> <Gold.Chemscore.Fitness>
16.5843

> <Gold.Chemscore.DG>
-18.4085

> <Gold.Chemscore.ZeroCoef>
-5.4800

> <Gold.Chemscore.Hbond>
2.9252

> <Gold.Chemscore.Metal>
0.0000

> <Gold.Chemscore.Lipo>
98.4464

> <Gold.Chemscore.Internal_Hbond>
0.0000

> <Gold.Chemscore.DEClash>
1.5324

> <Gold.Chemscore.DEInternal>
0.2919

> <Gold.Chemscore.Rot>
3.2656

> <Gold.Chemscore.Internal.Correction>
   9.000000E+99

> <Gold.Chemscore.Hbonds>
donor molecule, donor type, donor heavy atom, donor atom, acceptor molecule, acceptor atom, score
      L1  H    19    41       P1  7948  0.89
      L1  H    21    43       P1  7957  0.98
      P1  H  7997  8010       L1    11  0.91
      P1  H  8011  8017       L1     6  0.05

> <Gold.Chemscore.Hbond.Weighted>
-9.7701

> <Gold.Chemscore.Metal.Weighted>
-0.0000

> <Gold.Chemscore.Lipo.Weighted>
-11.5182

> <Gold.Chemscore.Internal_Hbond.Weighted>
0.0000

> <Gold.Chemscore.DEClash.Weighted>
1.5324

> <Gold.Chemscore.DEInternal.Weighted>
0.2919

> <Gold.Chemscore.Rot.Weighted>
8.3598

> <Gold.Chemscore.Internal.Correction.Weighted>
   9.000000E+99

> <Gold.Protein.RotatedTorsions>
[ 6907 6896 6895 6894 ] final  128.38 input  -60.11 | X-H torsion
[ 7974 7965 7964 7962 ] final  -25.76 input  175.53 | X-H torsion
[ 8008 7997 7996 7995 ] final   53.57 input   59.86 | X-H torsion
[ 10167 10162 10161 10158 ] final  119.47 input  -65.29 | X-H torsion
[ 10718 10713 10712 10709 ] final -137.77 input   66.30 | X-H torsion
[ 10763 10752 10751 10750 ] final  119.39 input  -60.55 | X-H torsion
[ 11005 11000 10999 10996 ] final   31.40 input  -57.11 | X-H torsion

> <Gold.Protein.ActiveResidues>
 VAL166  LYS551  ARG553  GLY616  TRP617  ASP618  TYR619  PRO620  LYS621  CYS622 
 ASP623  PHE694  ASN695  SER759  ASP760  ASP761  ALA762  ILE779  LEU786  VAL792 
 PHE793  MET794  SER795  GLU796  ALA797  LYS798  CYS799  TRP800  GLU811  SER814 

> <Gold.Protein.RotatedAtoms>
  152.3725  133.6438  159.6097 H   0  0  0  0  0  0  0  0  0  0  0  0  # atno 6907 bound_to 6896
  150.7679  133.9247  159.3417 H   0  0  0  0  0  0  0  0  0  0  0  0  # atno 6908 bound_to 6896
  151.7067  135.0921  160.0311 H   0  0  0  0  0  0  0  0  0  0  0  0  # atno 6909 bound_to 6896
  146.1470  140.4929  142.8627 H   0  0  0  0  0  0  0  0  0  0  0  0  # atno 7974 bound_to 7965
  155.4705  140.3465  155.4325 H   0  0  0  0  0  0  0  0  0  0  0  0  # atno 8008 bound_to 7997
  156.1104  140.1459  156.9376 H   0  0  0  0  0  0  0  0  0  0  0  0  # atno 8009 bound_to 7997
  154.4752  140.0887  156.7223 H   0  0  0  0  0  0  0  0  0  0  0  0  # atno 8010 bound_to 7997
  139.6044  144.7066  151.2988 H   0  0  0  0  0  0  0  0  0  0  0  0  # atno 10167 bound_to 10162
  156.2918  130.7379  151.1407 H   0  0  0  0  0  0  0  0  0  0  0  0  # atno 10718 bound_to 10713
  153.5823  135.3481  155.2879 H   0  0  0  0  0  0  0  0  0  0  0  0  # atno 10763 bound_to 10752
  154.8666  135.4185  154.2606 H   0  0  0  0  0  0  0  0  0  0  0  0  # atno 10764 bound_to 10752
  153.3395  135.7049  153.6949 H   0  0  0  0  0  0  0  0  0  0  0  0  # atno 10765 bound_to 10752
  140.2843  134.2937  155.7792 H   0  0  0  0  0  0  0  0  0  0  0  0  # atno 11005 bound_to 11000
  144.7858  140.5934  143.6574 LP  0  0  0  0  0  0  0  0  0  0  0  0  # atno 17320 bound_to 7965
  145.4913  139.1488  143.3708 LP  0  0  0  0  0  0  0  0  0  0  0  0  # atno 17321 bound_to 7965
  140.7274  143.6965  150.7880 LP  0  0  0  0  0  0  0  0  0  0  0  0  # atno 17342 bound_to 10162
  140.0548  143.5214  152.2656 LP  0  0  0  0  0  0  0  0  0  0  0  0  # atno 17343 bound_to 10162
  157.7344  131.0582  150.5524 LP  0  0  0  0  0  0  0  0  0  0  0  0  # atno 17370 bound_to 10713
  156.5641  130.4263  149.6049 LP  0  0  0  0  0  0  0  0  0  0  0  0  # atno 17371 bound_to 10713
  141.2157  133.7545  156.9528 LP  0  0  0  0  0  0  0  0  0  0  0  0  # atno 17394 bound_to 11000
  140.1254  134.9390  157.2263 LP  0  0  0  0  0  0  0  0  0  0  0  0  # atno 17395 bound_to 11000

$$$$
