AV-unprocessed.smi:3189|AV-procd|sdf|12188|dock2
  -GOLD-   2272018 33D 1   1.00000     0.00000
 Structure written by MMmdl.
 30 31  0  0  0  0  0  0  0  0  1 V2000
  152.2859  144.3043  161.2965 C   0  0  0  0  0  0  0  0  0  0  0  0
  152.1518  143.2258  160.2376 C   0  0  0  0  0  0  0  0  0  0  0  0
  152.8459  142.0899  160.4685 N   0  0  0  0  0  0  0  0  0  0  0  0
  152.7670  141.1009  159.5547 C   0  0  0  0  0  0  0  0  0  0  0  0
  151.9956  141.1910  158.3803 C   0  0  0  0  0  0  0  0  0  0  0  0
  151.2547  142.3734  158.1434 C   0  0  0  0  0  0  0  0  0  0  0  0
  150.4611  142.5792  156.9815 N   0  0  0  0  0  0  0  0  0  0  0  0
  149.9510  141.6662  156.1317 C   0  0  0  0  0  0  0  0  0  0  0  0
  150.0654  140.4489  156.2596 O   0  0  0  0  0  0  0  0  0  0  0  0
  149.2173  142.1949  155.1368 N   0  0  0  0  0  0  0  0  0  0  0  0
  148.5474  141.4939  154.0822 C   0  0  1  0  0  0  0  0  0  0  0  0
  147.4354  140.5490  154.4820 C   0  0  0  0  0  0  0  0  0  0  0  0
  147.1031  141.8309  153.7632 C   0  0  1  0  0  0  0  0  0  0  0  0
  146.3643  142.9494  154.4716 C   0  0  0  0  0  0  0  0  0  0  0  0
  151.3471  143.4201  159.0904 C   0  0  0  0  0  0  0  0  0  0  0  0
  150.4873  144.9054  158.8544 Cl  0  0  0  0  0  0  0  0  0  0  0  0
  151.3109  144.5366  161.7256 H   0  0  0  0  0  0  0  0  0  0  0  0
  152.6972  145.2152  160.8605 H   0  0  0  0  0  0  0  0  0  0  0  0
  152.9452  143.9913  162.1073 H   0  0  0  0  0  0  0  0  0  0  0  0
  153.3430  140.2113  159.7622 H   0  0  0  0  0  0  0  0  0  0  0  0
  151.9978  140.3654  157.6858 H   0  0  0  0  0  0  0  0  0  0  0  0
  150.1892  143.5366  156.8118 H   0  0  0  0  0  0  0  0  0  0  0  0
  149.0368  143.1871  155.1880 H   0  0  0  0  0  0  0  0  0  0  0  0
  149.1616  141.1471  153.2523 H   0  0  0  0  0  0  0  0  0  0  0  0
  147.3387  139.6213  153.9214 H   0  0  0  0  0  0  0  0  0  0  0  0
  147.1814  140.4800  155.5383 H   0  0  0  0  0  0  0  0  0  0  0  0
  146.8261  141.7324  152.7154 H   0  0  0  0  0  0  0  0  0  0  0  0
  146.5972  142.9631  155.5368 H   0  0  0  0  0  0  0  0  0  0  0  0
  145.2885  142.8161  154.3575 H   0  0  0  0  0  0  0  0  0  0  0  0
  146.6430  143.9116  154.0414 H   0  0  0  0  0  0  0  0  0  0  0  0
  1  2  1  0  0  0  0
  1 17  1  0  0  0  0
  1 18  1  0  0  0  0
  1 19  1  0  0  0  0
  2 15  1  0  0  0  0
  2  3  2  0  0  0  0
  3  4  1  0  0  0  0
  4  5  2  0  0  0  0
  4 20  1  0  0  0  0
  5  6  1  0  0  0  0
  5 21  1  0  0  0  0
  6  7  1  0  0  0  0
  6 15  2  0  0  0  0
  7  8  1  0  0  0  0
  7 22  1  0  0  0  0
  8  9  2  0  0  0  0
  8 10  1  0  0  0  0
 10 11  1  0  0  0  0
 10 23  1  0  0  0  0
 11 13  1  0  0  0  0
 11 12  1  0  0  0  0
 11 24  1  0  0  0  0
 12 13  1  0  0  0  0
 12 25  1  0  0  0  0
 12 26  1  0  0  0  0
 13 14  1  0  0  0  0
 13 27  1  0  0  0  0
 14 28  1  0  0  0  0
 14 29  1  0  0  0  0
 14 30  1  0  0  0  0
 15 16  1  0  0  0  0
M  END
> <s_m_source_file>
AV-unprocessed.smi

> <i_m_source_file_index>
3189

> <i_lp_mmshare_version>
43012

> <i_f3d_flags>
0

> <s_epik_input>
W0NIM11jMW5bY0hdW2NIXWMoYzFDbClbTkhdQyg9TylbTkhdW0NAQEhdMltDSDJdW0NASF0yW0NIM10=

> <s_epik_cmdline>
J2VwaWtfcHl0aG9uJywgJy1waCcsICc3LjAnLCAnLXRuJywgJzgnLCAnLW1hJywgJzIwMCcsICctbWV0YWxfYmluZGluZycsICctaW1hZScsICc8aW5maWxlLm1hZT4nLCAnLW9tYWUnLCAnPG91dGZpbGUubWFlPic=

> <r_epik_Ionization_Penalty>
0.00994309

> <r_epik_Ionization_Penalty_Charging>
0

> <r_epik_Ionization_Penalty_Neutral>
0.00994309

> <r_epik_State_Penalty>
0.00754503

> <r_epik_Charging_Adjusted_Penalty>
0.00754503

> <i_epik_Tot_Q>
0

> <i_epik_Tot_abs_Q>
0

> <r_epik_Metal_State_Penalty>
0.00742071

> <b_epik_Metal_Only>
0

> <s_lp_Force_Field>
OPLS_2005

> <r_lp_Energy>
34.6575

> <b_lp_Chiralities_Consistent>
1

> <s_lp_Variant>
AV-unprocessed.smi:3189-2

> <Gold.Version>
5.8.1

> <Gold.Id.Protein>
6NUR|6NUR_protein|mol2

> <Gold.PLP.Fitness>
39.2763

> <Gold.PLP.PLP>
-34.1900

> <Gold.PLP.part.hbond>
-2.0000

> <Gold.PLP.part.metal>
0.0000

> <Gold.PLP.part.buried>
-4.6995

> <Gold.PLP.part.nonpolar>
-27.8235

> <Gold.PLP.part.repulsive>
0.2497

> <Gold.PLP.ligand.clash>
0.0000

> <Gold.PLP.ligand.torsion>
0.1557

> <Gold.PLP.Chemscore.Hbond>
1.7862

> <Gold.PLP.Chemscore.CHOScore>
0.0000

> <Gold.PLP.Chemscore.Metal>
0.0000

> <Gold.Chemscore.Hbonds>
donor molecule, donor type, donor heavy atom, donor atom, acceptor molecule, acceptor atom, score
      L1  H     7    22       P1  8028  0.73
      L1  H    10    23       P1  8028  1.00

> <Gold.PLP.Chemscore.Internal.Correction>
0.0390

> <Gold.Rescore>
     Score         DG    S(hbond)    S(metal)    S(lipo)     H(rot)  DE(clash)    DE(int)     intcor
     18.70     -20.07       1.88        0.00      92.93       1.00       0.07       1.31       ----

> <Gold.Chemscore.Fitness>
18.6998

> <Gold.Chemscore.DG>
-20.0730

> <Gold.Chemscore.ZeroCoef>
-5.4800

> <Gold.Chemscore.Hbond>
1.8804

> <Gold.Chemscore.Metal>
0.0000

> <Gold.Chemscore.Lipo>
92.9262

> <Gold.Chemscore.Internal_Hbond>
0.0000

> <Gold.Chemscore.DEClash>
0.0681

> <Gold.Chemscore.DEInternal>
1.3052

> <Gold.Chemscore.Rot>
1.0000

> <Gold.Chemscore.Internal.Correction>
   9.000000E+99

> <Gold.Chemscore.Hbonds>
donor molecule, donor type, donor heavy atom, donor atom, acceptor molecule, acceptor atom, score
      L1  H     7    22       P1  8028  0.70
      L1  H    10    23       P1  8028  0.99

> <Gold.Chemscore.Hbond.Weighted>
-6.2807

> <Gold.Chemscore.Metal.Weighted>
-0.0000

> <Gold.Chemscore.Lipo.Weighted>
-10.8724

> <Gold.Chemscore.Internal_Hbond.Weighted>
0.0000

> <Gold.Chemscore.DEClash.Weighted>
0.0681

> <Gold.Chemscore.DEInternal.Weighted>
1.3052

> <Gold.Chemscore.Rot.Weighted>
2.5600

> <Gold.Chemscore.Internal.Correction.Weighted>
   9.000000E+99

> <Gold.Protein.RotatedTorsions>
[ 6907 6896 6895 6894 ] final -132.56 input  -60.11 | X-H torsion
[ 7974 7965 7964 7962 ] final  126.23 input  175.53 | X-H torsion
[ 8008 7997 7996 7995 ] final  -83.78 input   59.86 | X-H torsion
[ 10167 10162 10161 10158 ] final  -64.70 input  -65.29 | X-H torsion
[ 10718 10713 10712 10709 ] final -118.61 input   66.30 | X-H torsion
[ 10763 10752 10751 10750 ] final -178.57 input  -60.55 | X-H torsion
[ 11005 11000 10999 10996 ] final   84.73 input  -57.11 | X-H torsion

> <Gold.Protein.ActiveResidues>
 VAL166  LYS551  ARG553  GLY616  TRP617  ASP618  TYR619  PRO620  LYS621  CYS622 
 ASP623  PHE694  ASN695  SER759  ASP760  ASP761  ALA762  ILE779  LEU786  VAL792 
 PHE793  MET794  SER795  GLU796  ALA797  LYS798  CYS799  TRP800  GLU811  SER814 

> <Gold.Protein.RotatedAtoms>
  150.9638  133.6417  159.2749 H   0  0  0  0  0  0  0  0  0  0  0  0  # atno 6907 bound_to 6896
  151.3730  135.0925  159.9481 H   0  0  0  0  0  0  0  0  0  0  0  0  # atno 6908 bound_to 6896
  152.5158  133.9188  159.7579 H   0  0  0  0  0  0  0  0  0  0  0  0  # atno 6909 bound_to 6896
  145.0640  139.3782  143.4991 H   0  0  0  0  0  0  0  0  0  0  0  0  # atno 7974 bound_to 7965
  154.6228  140.0614  156.9635 H   0  0  0  0  0  0  0  0  0  0  0  0  # atno 8008 bound_to 7997
  155.1791  140.3297  155.4360 H   0  0  0  0  0  0  0  0  0  0  0  0  # atno 8009 bound_to 7997
  156.2440  140.1901  156.6888 H   0  0  0  0  0  0  0  0  0  0  0  0  # atno 8010 bound_to 7997
  140.5782  143.2324  151.6398 H   0  0  0  0  0  0  0  0  0  0  0  0  # atno 10167 bound_to 10162
  156.1119  130.6255  150.9313 H   0  0  0  0  0  0  0  0  0  0  0  0  # atno 10718 bound_to 10713
  154.5460  135.2809  155.1052 H   0  0  0  0  0  0  0  0  0  0  0  0  # atno 10763 bound_to 10752
  154.2516  135.6338  153.5246 H   0  0  0  0  0  0  0  0  0  0  0  0  # atno 10764 bound_to 10752
  152.9990  135.5584  154.6013 H   0  0  0  0  0  0  0  0  0  0  0  0  # atno 10765 bound_to 10752
  139.8992  134.8237  156.2485 H   0  0  0  0  0  0  0  0  0  0  0  0  # atno 11005 bound_to 11000
  146.3526  140.0353  142.8647 LP  0  0  0  0  0  0  0  0  0  0  0  0  # atno 17320 bound_to 7965
  145.1373  140.9552  143.4509 LP  0  0  0  0  0  0  0  0  0  0  0  0  # atno 17321 bound_to 7965
  139.5154  144.3378  152.0768 LP  0  0  0  0  0  0  0  0  0  0  0  0  # atno 17342 bound_to 10162
  140.2524  144.4154  150.6216 LP  0  0  0  0  0  0  0  0  0  0  0  0  # atno 17343 bound_to 10162
  157.6301  131.0922  150.8458 LP  0  0  0  0  0  0  0  0  0  0  0  0  # atno 17370 bound_to 10713
  156.8568  130.5099  149.5307 LP  0  0  0  0  0  0  0  0  0  0  0  0  # atno 17371 bound_to 10713
  141.0239  133.7026  156.1315 LP  0  0  0  0  0  0  0  0  0  0  0  0  # atno 17394 bound_to 11000
  140.7194  134.4375  157.5576 LP  0  0  0  0  0  0  0  0  0  0  0  0  # atno 17395 bound_to 11000

$$$$
