AV-unprocessed.smi:109|AV-procd|sdf|1054|dock3
  -GOLD-   2262018113D 1   1.00000     0.00000
 Structure written by MMmdl.
 58 61  0  0  0  0  0  0  0  0  1 V2000
  150.2784  140.1656  153.5670 O   0  0  0  0  0  0  0  0  0  0  0  0
  150.4134  139.6639  154.8790 C   0  0  0  0  0  0  0  0  0  0  0  0
  151.2395  140.6417  155.7294 C   0  0  0  0  0  0  0  0  0  0  0  0
  151.2198  140.3204  157.2399 C   0  0  1  0  0  0  0  0  0  0  0  0
  151.6848  138.9557  157.4950 N   0  0  0  0  0  0  0  0  0  0  0  0
  150.8339  137.9221  157.6802 C   0  0  0  0  0  0  0  0  0  0  0  0
  150.1047  137.7947  158.8193 N   0  0  0  0  0  0  0  0  0  0  0  0
  149.2734  136.7597  158.9698 C   0  0  0  0  0  0  0  0  0  0  0  0
  149.0259  135.7590  158.1222 N   0  0  0  0  0  0  0  0  0  0  0  0
  149.7559  135.8809  156.9758 C   0  0  0  0  0  0  0  0  0  0  0  0
  150.6743  136.9269  156.6817 C   0  0  0  0  0  0  0  0  0  0  0  0
  151.2328  136.7240  155.4265 N   0  0  0  0  0  0  0  0  0  0  0  0
  150.6770  135.6183  155.0088 C   0  0  0  0  0  0  0  0  0  0  0  0
  149.7743  135.0458  155.8773 N   0  0  0  0  0  0  0  0  0  0  0  0
  148.9927  133.7886  155.6807 C   0  0  1  0  0  0  0  0  0  0  0  0
  147.6476  134.1287  155.5770 O   0  0  0  0  0  0  0  0  0  0  0  0
  147.0138  133.2163  154.6928 C   0  0  1  0  0  0  0  0  0  0  0  0
  145.6668  133.7703  154.1954 C   0  0  0  0  0  0  0  0  0  0  0  0
  144.7395  133.8186  155.2586 O   0  0  0  0  0  0  0  0  0  0  0  0
  148.0805  132.9882  153.6106 C   0  0  1  0  0  0  0  0  0  0  0  0
  148.0223  133.9874  152.6096 O   0  0  0  0  0  0  0  0  0  0  0  0
  149.3987  133.0758  154.3783 C   0  0  2  0  0  0  0  0  0  0  0  0
  149.8760  131.7714  154.6418 O   0  0  0  0  0  0  0  0  0  0  0  0
  152.0343  141.3414  158.0739 C   0  0  0  0  0  0  0  0  0  0  0  0
  152.0569  141.0412  159.5918 C   0  0  0  0  0  0  0  0  0  0  0  0
  152.9037  142.0690  160.3609 C   0  0  0  0  0  0  0  0  0  0  0  0
  152.4221  143.5031  160.0941 C   0  0  0  0  0  0  0  0  0  0  0  0
  152.4139  143.8111  158.5895 C   0  0  0  0  0  0  0  0  0  0  0  0
  151.5622  142.7904  157.8181 C   0  0  0  0  0  0  0  0  0  0  0  0
  149.1688  133.1973  156.5808 H   0  0  0  0  0  0  0  0  0  0  0  0
  146.8600  132.2733  155.2220 H   0  0  0  0  0  0  0  0  0  0  0  0
  147.9444  132.0245  153.1172 H   0  0  0  0  0  0  0  0  0  0  0  0
  150.1625  133.6365  153.8359 H   0  0  0  0  0  0  0  0  0  0  0  0
  150.3055  139.4385  152.9640 H   0  0  0  0  0  0  0  0  0  0  0  0
  149.4214  139.5224  155.3089 H   0  0  0  0  0  0  0  0  0  0  0  0
  150.8933  138.6864  154.8306 H   0  0  0  0  0  0  0  0  0  0  0  0
  152.2662  140.6624  155.3625 H   0  0  0  0  0  0  0  0  0  0  0  0
  150.8414  141.6457  155.5761 H   0  0  0  0  0  0  0  0  0  0  0  0
  150.1883  140.4338  157.5725 H   0  0  0  0  0  0  0  0  0  0  0  0
  152.6874  138.8463  157.5467 H   0  0  0  0  0  0  0  0  0  0  0  0
  148.7301  136.7285  159.9027 H   0  0  0  0  0  0  0  0  0  0  0  0
  150.9124  135.1871  154.0467 H   0  0  0  0  0  0  0  0  0  0  0  0
  145.7832  134.7592  153.7503 H   0  0  0  0  0  0  0  0  0  0  0  0
  145.2506  133.1145  153.4303 H   0  0  0  0  0  0  0  0  0  0  0  0
  143.9928  133.2861  155.0301 H   0  0  0  0  0  0  0  0  0  0  0  0
  148.6555  134.6580  152.8206 H   0  0  0  0  0  0  0  0  0  0  0  0
  150.7776  131.8321  154.9189 H   0  0  0  0  0  0  0  0  0  0  0  0
  153.0652  141.2863  157.7206 H   0  0  0  0  0  0  0  0  0  0  0  0
  151.0426  141.0459  159.9923 H   0  0  0  0  0  0  0  0  0  0  0  0
  152.4574  140.0446  159.7773 H   0  0  0  0  0  0  0  0  0  0  0  0
  152.8635  141.8574  161.4299 H   0  0  0  0  0  0  0  0  0  0  0  0
  153.9497  141.9740  160.0669 H   0  0  0  0  0  0  0  0  0  0  0  0
  151.4180  143.6340  160.4997 H   0  0  0  0  0  0  0  0  0  0  0  0
  153.0625  144.2143  160.6164 H   0  0  0  0  0  0  0  0  0  0  0  0
  152.0320  144.8180  158.4185 H   0  0  0  0  0  0  0  0  0  0  0  0
  153.4355  143.7986  158.2075 H   0  0  0  0  0  0  0  0  0  0  0  0
  151.6061  143.0143  156.7517 H   0  0  0  0  0  0  0  0  0  0  0  0
  150.5176  142.9021  158.1117 H   0  0  0  0  0  0  0  0  0  0  0  0
  1  2  1  0  0  0  0
  1 34  1  0  0  0  0
  2  3  1  0  0  0  0
  2 35  1  0  0  0  0
  2 36  1  0  0  0  0
  3  4  1  0  0  0  0
  3 37  1  0  0  0  0
  3 38  1  0  0  0  0
  4  5  1  0  0  0  0
  4 24  1  0  0  0  0
  4 39  1  0  0  0  0
  5  6  1  0  0  0  0
  5 40  1  0  0  0  0
  6 11  1  0  0  0  0
  6  7  2  0  0  0  0
  7  8  1  0  0  0  0
  8  9  2  0  0  0  0
  8 41  1  0  0  0  0
  9 10  1  0  0  0  0
 10 14  1  0  0  0  0
 10 11  2  0  0  0  0
 11 12  1  0  0  0  0
 12 13  2  0  0  0  0
 13 14  1  0  0  0  0
 13 42  1  0  0  0  0
 14 15  1  0  0  0  0
 15 30  1  0  0  0  0
 15 22  1  0  0  0  0
 15 16  1  0  0  0  0
 16 17  1  0  0  0  0
 17 31  1  0  0  0  0
 17 18  1  0  0  0  0
 17 20  1  0  0  0  0
 18 19  1  0  0  0  0
 18 43  1  0  0  0  0
 18 44  1  0  0  0  0
 19 45  1  0  0  0  0
 20 32  1  0  0  0  0
 20 21  1  0  0  0  0
 20 22  1  0  0  0  0
 21 46  1  0  0  0  0
 22 33  1  0  0  0  0
 22 23  1  0  0  0  0
 23 47  1  0  0  0  0
 24 29  1  0  0  0  0
 24 25  1  0  0  0  0
 24 48  1  0  0  0  0
 25 26  1  0  0  0  0
 25 49  1  0  0  0  0
 25 50  1  0  0  0  0
 26 27  1  0  0  0  0
 26 51  1  0  0  0  0
 26 52  1  0  0  0  0
 27 28  1  0  0  0  0
 27 53  1  0  0  0  0
 27 54  1  0  0  0  0
 28 29  1  0  0  0  0
 28 55  1  0  0  0  0
 28 56  1  0  0  0  0
 29 57  1  0  0  0  0
 29 58  1  0  0  0  0
M  END
> <s_m_source_file>
AV-unprocessed.smi

> <i_m_source_file_index>
109

> <i_lp_mmshare_version>
43012

> <i_f3d_flags>
0

> <s_epik_input>
W0NIMl0xW0NIMl1bQ0gyXVtDSDJdW0NIMl1bQ0hdMVtDQEhdKFtDSDJdW0NIMl1bT0hdKVtOSF1jKG5bY0hdbjIpYyhjMjMpbltjSF1uM1tDQEBIXTRPW0NASF0oW0NIMl1bT0hdKVtDQEBIXShbT0hdKVtDQEhdNFtPSF0=

> <s_epik_cmdline>
J2VwaWtfcHl0aG9uJywgJy1waCcsICc3LjAnLCAnLXRuJywgJzgnLCAnLW1hJywgJzIwMCcsICctbWV0YWxfYmluZGluZycsICctaW1hZScsICc8aW5maWxlLm1hZT4nLCAnLW9tYWUnLCAnPG91dGZpbGUubWFlPic=

> <r_lp_tautomer_probability>
1

> <r_epik_Ionization_Penalty>
0.000793976

> <r_epik_Ionization_Penalty_Charging>
0

> <r_epik_Ionization_Penalty_Neutral>
0.000793976

> <r_epik_State_Penalty>
-0

> <r_epik_Charging_Adjusted_Penalty>
0

> <i_epik_Tot_Q>
0

> <i_epik_Tot_abs_Q>
0

> <r_epik_Metal_State_Penalty>
-0

> <b_epik_Metal_Only>
0

> <s_epik_Chemistry_Notes>
This compound contains an acetal/aminal-like group ( X-CH(R)-Y where X, Y are N, S, or O) that may be acid/base labile, releasing an aldehyde.

> <s_lp_Force_Field>
OPLS_2005

> <r_lp_Energy>
50.1139

> <b_lp_Chiralities_Consistent>
1

> <s_lp_Variant>
AV-unprocessed.smi:109-24

> <Gold.Version>
5.8.1

> <Gold.Id.Protein>
6NUR|6NUR_protein|mol2

> <Gold.PLP.Fitness>
52.5057

> <Gold.PLP.PLP>
-44.6039

> <Gold.PLP.part.hbond>
-5.2726

> <Gold.PLP.part.metal>
0.0000

> <Gold.PLP.part.buried>
-4.2002

> <Gold.PLP.part.nonpolar>
-35.3485

> <Gold.PLP.part.repulsive>
0.1625

> <Gold.PLP.ligand.clash>
0.0000

> <Gold.PLP.ligand.torsion>
1.0975

> <Gold.PLP.Chemscore.Hbond>
2.7423

> <Gold.PLP.Chemscore.CHOScore>
0.5145

> <Gold.PLP.Chemscore.Metal>
0.0000

> <Gold.Chemscore.Hbonds>
donor molecule, donor type, donor heavy atom, donor atom, acceptor molecule, acceptor atom, score
      L1  H     1    34       P1  7957  0.19
      L1  H    19    45       P1 10957  1.00
      L1  H    21    46       P1  7948  0.44
      P1  H  7989  7998       L1     1  0.64
      L1  C    13    42       P1  7949  0.46

> <Gold.PLP.Chemscore.Internal.Correction>
0.3263

> <Gold.Rescore>
     Score         DG    S(hbond)    S(metal)    S(lipo)     H(rot)  DE(clash)    DE(int)     intcor
     10.44     -11.65       2.62        0.00      97.70       5.47       0.03       1.18       ----

> <Gold.Chemscore.Fitness>
10.4367

> <Gold.Chemscore.DG>
-11.6521

> <Gold.Chemscore.ZeroCoef>
-5.4800

> <Gold.Chemscore.Hbond>
2.6152

> <Gold.Chemscore.Metal>
0.0000

> <Gold.Chemscore.Lipo>
97.7010

> <Gold.Chemscore.Internal_Hbond>
0.0000

> <Gold.Chemscore.DEClash>
0.0329

> <Gold.Chemscore.DEInternal>
1.1826

> <Gold.Chemscore.Rot>
5.4662

> <Gold.Chemscore.Internal.Correction>
   9.000000E+99

> <Gold.Chemscore.Hbonds>
donor molecule, donor type, donor heavy atom, donor atom, acceptor molecule, acceptor atom, score
      L1  H     1    34       P1  7957  0.18
      L1  H    19    45       P1 10957  0.93
      L1  H    21    46       P1  7948  0.08
      P1  H  7989  7998       L1     1  0.08

> <Gold.Chemscore.Hbond.Weighted>
-8.7346

> <Gold.Chemscore.Metal.Weighted>
-0.0000

> <Gold.Chemscore.Lipo.Weighted>
-11.4310

> <Gold.Chemscore.Internal_Hbond.Weighted>
0.0000

> <Gold.Chemscore.DEClash.Weighted>
0.0329

> <Gold.Chemscore.DEInternal.Weighted>
1.1826

> <Gold.Chemscore.Rot.Weighted>
13.9935

> <Gold.Chemscore.Internal.Correction.Weighted>
   9.000000E+99

> <Gold.Protein.RotatedTorsions>
[ 6907 6896 6895 6894 ] final   27.59 input  -60.11 | X-H torsion
[ 7974 7965 7964 7962 ] final  -17.11 input  175.53 | X-H torsion
[ 8008 7997 7996 7995 ] final   70.39 input   59.86 | X-H torsion
[ 10167 10162 10161 10158 ] final   17.81 input  -65.29 | X-H torsion
[ 10718 10713 10712 10709 ] final -176.89 input   66.30 | X-H torsion
[ 10763 10752 10751 10750 ] final -173.28 input  -60.55 | X-H torsion
[ 11005 11000 10999 10996 ] final   83.16 input  -57.11 | X-H torsion

> <Gold.Protein.ActiveResidues>
 VAL166  LYS551  ARG553  GLY616  TRP617  ASP618  TYR619  PRO620  LYS621  CYS622 
 ASP623  PHE694  ASN695  SER759  ASP760  ASP761  ALA762  ILE779  LEU786  VAL792 
 PHE793  MET794  SER795  GLU796  ALA797  LYS798  CYS799  TRP800  GLU811  SER814 

> <Gold.Protein.RotatedAtoms>
  152.0045  134.9910  160.0565 H   0  0  0  0  0  0  0  0  0  0  0  0  # atno 6907 bound_to 6896
  152.1488  133.4504  159.4811 H   0  0  0  0  0  0  0  0  0  0  0  0  # atno 6908 bound_to 6896
  150.6873  134.2133  159.4411 H   0  0  0  0  0  0  0  0  0  0  0  0  # atno 6909 bound_to 6896
  146.1956  140.3733  142.8442 H   0  0  0  0  0  0  0  0  0  0  0  0  # atno 7974 bound_to 7965
  155.7380  140.3491  155.5091 H   0  0  0  0  0  0  0  0  0  0  0  0  # atno 8008 bound_to 7997
  155.9120  140.1052  157.1293 H   0  0  0  0  0  0  0  0  0  0  0  0  # atno 8009 bound_to 7997
  154.4057  140.1266  156.4557 H   0  0  0  0  0  0  0  0  0  0  0  0  # atno 8010 bound_to 7997
  140.5699  143.9180  150.6705 H   0  0  0  0  0  0  0  0  0  0  0  0  # atno 10167 bound_to 10162
  156.8214  130.9621  151.3111 H   0  0  0  0  0  0  0  0  0  0  0  0  # atno 10718 bound_to 10713
  154.6096  135.2863  155.0446 H   0  0  0  0  0  0  0  0  0  0  0  0  # atno 10763 bound_to 10752
  154.1681  135.6477  153.5006 H   0  0  0  0  0  0  0  0  0  0  0  0  # atno 10764 bound_to 10752
  153.0190  135.5394  154.6845 H   0  0  0  0  0  0  0  0  0  0  0  0  # atno 10765 bound_to 10752
  139.9040  134.8124  156.2271 H   0  0  0  0  0  0  0  0  0  0  0  0  # atno 11005 bound_to 11000
  144.8574  140.7090  143.6129 LP  0  0  0  0  0  0  0  0  0  0  0  0  # atno 17320 bound_to 7965
  145.3654  139.1671  143.4361 LP  0  0  0  0  0  0  0  0  0  0  0  0  # atno 17321 bound_to 7965
  140.2653  143.3494  152.1286 LP  0  0  0  0  0  0  0  0  0  0  0  0  # atno 17342 bound_to 10162
  139.5112  144.6897  151.5793 LP  0  0  0  0  0  0  0  0  0  0  0  0  # atno 17343 bound_to 10162
  157.6455  130.8841  149.9530 LP  0  0  0  0  0  0  0  0  0  0  0  0  # atno 17370 bound_to 10713
  156.0987  130.3657  150.0259 LP  0  0  0  0  0  0  0  0  0  0  0  0  # atno 17371 bound_to 10713
  141.0369  133.6959  156.1528 LP  0  0  0  0  0  0  0  0  0  0  0  0  # atno 17394 bound_to 11000
  140.7014  134.4560  157.5586 LP  0  0  0  0  0  0  0  0  0  0  0  0  # atno 17395 bound_to 11000

$$$$
