AV-unprocessed.smi:67|AV-procd|sdf|632|dock6
  -GOLD-   2262016523D 1   1.00000     0.00000
 Structure written by MMmdl.
 49 51  0  0  0  0  0  0  0  0  3 V2000
  146.7443  133.0337  150.2814 O   0  0  0  0  0  0  0  0  0  0  0  0
  145.4830  132.9131  150.9150 C   0  0  2  0  0  0  0  0  0  0  0  0
  145.6916  132.6545  152.4246 C   0  0  0  0  0  0  0  0  0  0  0  0
  146.8689  133.3856  152.9666 N   0  3  2  0  0  0  0  0  0  0  0  0
  148.1223  132.5903  152.9124 C   0  0  0  0  0  0  0  0  0  0  0  0
  149.3360  133.4331  153.3420 C   0  0  0  0  0  0  0  0  0  0  0  0
  149.1435  134.0423  154.7397 C   0  0  2  0  0  0  0  0  0  0  0  0
  149.1417  132.9703  155.6807 O   0  0  0  0  0  0  0  0  0  0  0  0
  150.0238  131.9192  155.5333 C   0  0  0  0  0  0  0  0  0  0  0  0
  149.5135  130.7461  154.9417 C   0  0  0  0  0  0  0  0  0  0  0  0
  150.3357  129.6210  154.7455 C   0  0  0  0  0  0  0  0  0  0  0  0
  151.6849  129.6565  155.1417 C   0  0  0  0  0  0  0  0  0  0  0  0
  152.2168  130.8203  155.7368 C   0  0  0  0  0  0  0  0  0  0  0  0
  153.6730  130.8860  156.1726 C   0  0  0  0  0  0  0  0  0  0  0  0
  154.4661  130.7145  155.1149 F   0  0  0  0  0  0  0  0  0  0  0  0
  153.9727  132.0560  156.7378 F   0  0  0  0  0  0  0  0  0  0  0  0
  153.9143  129.9142  157.0519 F   0  0  0  0  0  0  0  0  0  0  0  0
  151.3862  131.9457  155.9256 C   0  0  0  0  0  0  0  0  0  0  0  0
  147.8133  134.8226  154.7750 C   0  0  0  0  0  0  0  0  0  0  0  0
  146.6330  133.9464  154.3225 C   0  0  0  0  0  0  0  0  0  0  0  0
  144.6462  131.8449  150.2030 C   0  0  0  0  0  0  0  0  0  0  0  0
  144.0889  132.5668  148.9742 C   0  0  0  0  0  0  0  0  0  0  0  0
  143.9844  133.9909  149.3456 N   0  3  0  0  0  0  0  0  0  0  0  0
  144.6894  134.1993  150.6271 C   0  0  0  0  0  0  0  0  0  0  0  0
  147.2483  132.2511  150.4487 H   0  0  0  0  0  0  0  0  0  0  0  0
  144.7914  132.9078  152.9873 H   0  0  0  0  0  0  0  0  0  0  0  0
  145.8293  131.5821  152.5719 H   0  0  0  0  0  0  0  0  0  0  0  0
  148.0255  131.7103  153.5506 H   0  0  0  0  0  0  0  0  0  0  0  0
  148.2827  132.2299  151.8955 H   0  0  0  0  0  0  0  0  0  0  0  0
  150.2400  132.8230  153.3226 H   0  0  0  0  0  0  0  0  0  0  0  0
  149.4924  134.2334  152.6173 H   0  0  0  0  0  0  0  0  0  0  0  0
  149.9880  134.7072  154.9227 H   0  0  0  0  0  0  0  0  0  0  0  0
  148.4789  130.7079  154.6333 H   0  0  0  0  0  0  0  0  0  0  0  0
  149.9310  128.7296  154.2895 H   0  0  0  0  0  0  0  0  0  0  0  0
  152.3038  128.7860  154.9832 H   0  0  0  0  0  0  0  0  0  0  0  0
  151.8248  132.8205  156.3795 H   0  0  0  0  0  0  0  0  0  0  0  0
  147.6154  135.2168  155.7712 H   0  0  0  0  0  0  0  0  0  0  0  0
  147.8882  135.6903  154.1183 H   0  0  0  0  0  0  0  0  0  0  0  0
  145.7219  134.5445  154.3251 H   0  0  0  0  0  0  0  0  0  0  0  0
  146.4765  133.1333  155.0335 H   0  0  0  0  0  0  0  0  0  0  0  0
  145.2135  130.9493  149.9458 H   0  0  0  0  0  0  0  0  0  0  0  0
  143.8179  131.5362  150.8428 H   0  0  0  0  0  0  0  0  0  0  0  0
  144.7856  132.4803  148.1394 H   0  0  0  0  0  0  0  0  0  0  0  0
  143.1276  132.1647  148.6530 H   0  0  0  0  0  0  0  0  0  0  0  0
  144.4107  134.5530  148.6222 H   0  0  0  0  0  0  0  0  0  0  0  0
  143.9273  134.3536  151.3917 H   0  0  0  0  0  0  0  0  0  0  0  0
  145.3114  135.0953  150.6036 H   0  0  0  0  0  0  0  0  0  0  0  0
  143.0143  134.2535  149.4489 H   0  0  0  0  0  0  0  0  0  0  0  0
  147.0146  134.1735  152.3514 H   0  0  0  0  0  0  0  0  0  0  0  0
  1  2  1  0  0  0  0
  1 25  1  0  0  0  0
  2 24  1  0  0  0  0
  2  3  1  0  0  0  0
  2 21  1  0  0  0  0
  3  4  1  0  0  0  0
  3 26  1  0  0  0  0
  3 27  1  0  0  0  0
  4 20  1  0  0  0  0
  4  5  1  0  0  0  0
  4 49  1  0  0  0  0
  5  6  1  0  0  0  0
  5 28  1  0  0  0  0
  5 29  1  0  0  0  0
  6  7  1  0  0  0  0
  6 30  1  0  0  0  0
  6 31  1  0  0  0  0
  7  8  1  0  0  0  0
  7 19  1  0  0  0  0
  7 32  1  0  0  0  0
  8  9  1  0  0  0  0
  9 18  1  0  0  0  0
  9 10  2  0  0  0  0
 10 11  1  0  0  0  0
 10 33  1  0  0  0  0
 11 12  2  0  0  0  0
 11 34  1  0  0  0  0
 12 13  1  0  0  0  0
 12 35  1  0  0  0  0
 13 14  1  0  0  0  0
 13 18  2  0  0  0  0
 14 15  1  0  0  0  0
 14 16  1  0  0  0  0
 14 17  1  0  0  0  0
 18 36  1  0  0  0  0
 19 20  1  0  0  0  0
 19 37  1  0  0  0  0
 19 38  1  0  0  0  0
 20 39  1  0  0  0  0
 20 40  1  0  0  0  0
 21 22  1  0  0  0  0
 21 41  1  0  0  0  0
 21 42  1  0  0  0  0
 22 23  1  0  0  0  0
 22 43  1  0  0  0  0
 22 44  1  0  0  0  0
 23 24  1  0  0  0  0
 23 45  1  0  0  0  0
 23 48  1  0  0  0  0
 24 46  1  0  0  0  0
 24 47  1  0  0  0  0
M  CHG  1   4   1
M  CHG  1  23   1
M  END
> <s_m_source_file>
AV-unprocessed.smi

> <i_m_source_file_index>
67

> <i_lp_mmshare_version>
43012

> <i_f3d_flags>
0

> <s_epik_input>
W0NIMl0xW05IXVtDSDJdW0NIMl1bQ0BAXTEoW09IXSlbQ0gyXU4yW0NIMl1bQ0gyXVtDSF0oW0NIMl1bQ0gyXTIpT2MzW2NIXVtjSF1bY0hdYyhDKEYpKEYpRilbY0hdMw==

> <s_epik_cmdline>
J2VwaWtfcHl0aG9uJywgJy1waCcsICc3LjAnLCAnLXRuJywgJzgnLCAnLW1hJywgJzIwMCcsICctbWV0YWxfYmluZGluZycsICctaW1hZScsICc8aW5maWxlLm1hZT4nLCAnLW9tYWUnLCAnPG91dGZpbGUubWFlPic=

> <r_lp_tautomer_probability>
1

> <r_epik_Ionization_Penalty>
0.0989853

> <r_epik_Ionization_Penalty_Charging>
0.0989662

> <r_epik_Ionization_Penalty_Neutral>
1.91014e-05

> <r_epik_State_Penalty>
0.0852826

> <r_epik_Charging_Adjusted_Penalty>
0.184249

> <i_epik_Tot_Q>
2

> <i_epik_Tot_abs_Q>
2

> <r_epik_Metal_State_Penalty>
0.0849414

> <b_epik_Metal_Only>
0

> <s_lp_Force_Field>
OPLS_2005

> <r_lp_Energy>
57.0803

> <b_lp_Chiralities_Consistent>
1

> <s_lp_Variant>
AV-unprocessed.smi:67-4

> <Gold.Version>
5.8.1

> <Gold.Id.Protein>
6NUR|6NUR_protein|mol2

> <Gold.PLP.Fitness>
48.6323

> <Gold.PLP.PLP>
-42.2375

> <Gold.PLP.part.hbond>
-3.4200

> <Gold.PLP.part.metal>
0.0000

> <Gold.PLP.part.buried>
-4.9381

> <Gold.PLP.part.nonpolar>
-34.8203

> <Gold.PLP.part.repulsive>
0.1007

> <Gold.PLP.ligand.clash>
1.3268

> <Gold.PLP.ligand.torsion>
1.3274

> <Gold.PLP.Chemscore.Hbond>
3.3515

> <Gold.PLP.Chemscore.CHOScore>
0.0000

> <Gold.PLP.Chemscore.Metal>
0.0000

> <Gold.Chemscore.Hbonds>
donor molecule, donor type, donor heavy atom, donor atom, acceptor molecule, acceptor atom, score
      L1  H     1    25       P1 10747  0.52
      L1  H    23    45       P1  7921  0.85
      L1  H    23    48       P1 10186  2.00

> <Gold.PLP.Chemscore.Internal.Correction>
0.3219

> <Gold.Rescore>
     Score         DG    S(hbond)    S(metal)    S(lipo)     H(rot)  DE(clash)    DE(int)     intcor
     17.58     -19.99       2.53        0.00     100.71       2.24       0.01       2.40       ----

> <Gold.Chemscore.Fitness>
17.5834

> <Gold.Chemscore.DG>
-19.9905

> <Gold.Chemscore.ZeroCoef>
-5.4800

> <Gold.Chemscore.Hbond>
2.5298

> <Gold.Chemscore.Metal>
0.0000

> <Gold.Chemscore.Lipo>
100.7100

> <Gold.Chemscore.Internal_Hbond>
0.0000

> <Gold.Chemscore.DEClash>
0.0054

> <Gold.Chemscore.DEInternal>
2.4016

> <Gold.Chemscore.Rot>
2.2352

> <Gold.Chemscore.Internal.Correction>
   9.000000E+99

> <Gold.Chemscore.Hbonds>
donor molecule, donor type, donor heavy atom, donor atom, acceptor molecule, acceptor atom, score
      L1  H     1    25       P1 10747  0.51
      L1  H    23    45       P1  7921  0.82
      L1  H    23    48       P1 10186  0.95

> <Gold.Chemscore.Hbond.Weighted>
-8.4495

> <Gold.Chemscore.Metal.Weighted>
-0.0000

> <Gold.Chemscore.Lipo.Weighted>
-11.7831

> <Gold.Chemscore.Internal_Hbond.Weighted>
0.0000

> <Gold.Chemscore.DEClash.Weighted>
0.0054

> <Gold.Chemscore.DEInternal.Weighted>
2.4016

> <Gold.Chemscore.Rot.Weighted>
5.7221

> <Gold.Chemscore.Internal.Correction.Weighted>
   9.000000E+99

> <Gold.Protein.RotatedTorsions>
[ 6907 6896 6895 6894 ] final -101.72 input  -60.11 | X-H torsion
[ 7974 7965 7964 7962 ] final  -23.36 input  175.53 | X-H torsion
[ 8008 7997 7996 7995 ] final  105.76 input   59.86 | X-H torsion
[ 10167 10162 10161 10158 ] final -131.93 input  -65.29 | X-H torsion
[ 10718 10713 10712 10709 ] final  -57.12 input   66.30 | X-H torsion
[ 10763 10752 10751 10750 ] final  -30.55 input  -60.55 | X-H torsion
[ 11005 11000 10999 10996 ] final  -63.69 input  -57.11 | X-H torsion

> <Gold.Protein.ActiveResidues>
 VAL166  LYS551  ARG553  GLY616  TRP617  ASP618  TYR619  PRO620  LYS621  CYS622 
 ASP623  PHE694  ASN695  SER759  ASP760  ASP761  ALA762  ILE779  LEU786  VAL792 
 PHE793  MET794  SER795  GLU796  ALA797  LYS798  CYS799  TRP800  GLU811  SER814 

> <Gold.Protein.RotatedAtoms>
  150.7166  134.0691  159.3857 H   0  0  0  0  0  0  0  0  0  0  0  0  # atno 6907 bound_to 6896
  151.8672  135.0500  160.0485 H   0  0  0  0  0  0  0  0  0  0  0  0  # atno 6908 bound_to 6896
  152.2671  133.5313  159.5453 H   0  0  0  0  0  0  0  0  0  0  0  0  # atno 6909 bound_to 6896
  146.1621  140.4605  142.8567 H   0  0  0  0  0  0  0  0  0  0  0  0  # atno 7974 bound_to 7965
  156.1686  140.3125  155.8933 H   0  0  0  0  0  0  0  0  0  0  0  0  # atno 8008 bound_to 7997
  155.3634  140.0478  157.3063 H   0  0  0  0  0  0  0  0  0  0  0  0  # atno 8009 bound_to 7997
  154.5218  140.2200  155.8973 H   0  0  0  0  0  0  0  0  0  0  0  0  # atno 8010 bound_to 7997
  139.9138  143.6462  152.2569 H   0  0  0  0  0  0  0  0  0  0  0  0  # atno 10167 bound_to 10162
  156.1235  130.4164  150.0397 H   0  0  0  0  0  0  0  0  0  0  0  0  # atno 10718 bound_to 10713
  153.7828  135.6904  153.4885 H   0  0  0  0  0  0  0  0  0  0  0  0  # atno 10763 bound_to 10752
  153.1800  135.4510  155.0014 H   0  0  0  0  0  0  0  0  0  0  0  0  # atno 10764 bound_to 10752
  154.8075  135.3363  154.7329 H   0  0  0  0  0  0  0  0  0  0  0  0  # atno 10765 bound_to 10752
  141.1401  133.6655  156.5719 H   0  0  0  0  0  0  0  0  0  0  0  0  # atno 11005 bound_to 11000
  144.8041  140.6267  143.6459 LP  0  0  0  0  0  0  0  0  0  0  0  0  # atno 17320 bound_to 7965
  145.4562  139.1518  143.3891 LP  0  0  0  0  0  0  0  0  0  0  0  0  # atno 17321 bound_to 7965
  139.6920  144.7646  151.1423 LP  0  0  0  0  0  0  0  0  0  0  0  0  # atno 17342 bound_to 10162
  140.7679  143.5576  150.9134 LP  0  0  0  0  0  0  0  0  0  0  0  0  # atno 17343 bound_to 10162
  156.8329  130.9399  151.3636 LP  0  0  0  0  0  0  0  0  0  0  0  0  # atno 17370 bound_to 10713
  157.6418  130.8811  149.9462 LP  0  0  0  0  0  0  0  0  0  0  0  0  # atno 17371 bound_to 10713
  140.3906  134.7443  157.4719 LP  0  0  0  0  0  0  0  0  0  0  0  0  # atno 17394 bound_to 11000
  140.0569  134.6051  155.8795 LP  0  0  0  0  0  0  0  0  0  0  0  0  # atno 17395 bound_to 11000

$$$$
