AV-unprocessed.smi:231|AV-procd|sdf|1766|dock3
  -GOLD-   2262020303D 1   1.00000     0.00000
 Structure written by MMmdl.
 50 53  0  0  0  0  0  0  0  0  1 V2000
  155.0037  134.8747  161.5080 C   0  0  0  0  0  0  0  0  0  0  0  0
  155.3484  136.1857  160.7903 C   0  0  0  0  0  0  0  0  0  0  0  0
  154.2924  137.1914  160.8823 N   0  0  0  0  0  0  0  0  0  0  0  0
  153.5096  137.3469  159.7883 C   0  0  0  0  0  0  0  0  0  0  0  0
  153.3102  136.2615  158.9998 N   0  0  0  0  0  0  0  0  0  0  0  0
  152.5572  136.3625  157.9007 C   0  0  0  0  0  0  0  0  0  0  0  0
  151.9171  137.4315  157.4230 N   0  0  0  0  0  0  0  0  0  0  0  0
  152.0943  138.5176  158.2291 C   0  0  0  0  0  0  0  0  0  0  0  0
  152.8668  138.5626  159.4236 C   0  0  0  0  0  0  0  0  0  0  0  0
  152.8166  139.8390  159.9695 N   0  0  0  0  0  0  0  0  0  0  0  0
  152.0760  140.5151  159.1349 C   0  0  0  0  0  0  0  0  0  0  0  0
  151.5802  139.7928  158.0731 N   0  0  0  0  0  0  0  0  0  0  0  0
  150.7851  140.2891  156.9888 C   0  0  0  0  0  0  0  0  0  0  0  0
  149.3338  139.8395  156.7863 C   0  0  0  0  0  0  0  0  0  0  0  0
  149.5183  139.9878  155.2579 C   0  0  0  0  0  0  0  0  0  0  0  0
  148.8455  138.9195  154.3736 C   0  0  0  0  0  0  0  0  0  0  0  0
  149.5463  138.6915  153.1673 O   0  0  0  0  0  0  0  0  0  0  0  0
  149.1016  141.3642  154.7044 C   0  0  0  0  0  0  0  0  0  0  0  0
  149.2387  141.4232  153.2990 O   0  0  0  0  0  0  0  0  0  0  0  0
  151.0277  139.8199  155.5513 C   0  0  0  0  0  0  0  0  0  0  0  0
  153.9596  137.8524  162.1548 C   0  0  1  0  0  0  0  0  0  0  0  0
  153.5961  136.8573  163.2764 C   0  0  0  0  0  0  0  0  0  0  0  0
  154.8033  136.8398  164.2251 C   0  0  0  0  0  0  0  0  0  0  0  0
  155.5315  138.0499  163.9007 N   0  0  0  0  0  0  0  0  0  0  0  0
  155.1226  138.6273  162.7714 C   0  0  0  0  0  0  0  0  0  0  0  0
  155.5901  139.6562  162.2889 O   0  0  0  0  0  0  0  0  0  0  0  0
  155.8045  134.1464  161.3808 H   0  0  0  0  0  0  0  0  0  0  0  0
  154.0900  134.4312  161.1129 H   0  0  0  0  0  0  0  0  0  0  0  0
  154.8711  135.0289  162.5785 H   0  0  0  0  0  0  0  0  0  0  0  0
  156.2614  136.6044  161.2149 H   0  0  0  0  0  0  0  0  0  0  0  0
  155.5754  135.9756  159.7437 H   0  0  0  0  0  0  0  0  0  0  0  0
  152.4536  135.4576  157.3204 H   0  0  0  0  0  0  0  0  0  0  0  0
  151.8692  141.5659  159.2759 H   0  0  0  0  0  0  0  0  0  0  0  0
  150.8457  141.3768  157.0514 H   0  0  0  0  0  0  0  0  0  0  0  0
  149.1692  138.8112  157.1119 H   0  0  0  0  0  0  0  0  0  0  0  0
  148.5916  140.5070  157.2249 H   0  0  0  0  0  0  0  0  0  0  0  0
  148.7733  137.9684  154.9022 H   0  0  0  0  0  0  0  0  0  0  0  0
  147.8282  139.2113  154.1109 H   0  0  0  0  0  0  0  0  0  0  0  0
  149.3726  137.8074  152.8822 H   0  0  0  0  0  0  0  0  0  0  0  0
  148.0684  141.5954  154.9654 H   0  0  0  0  0  0  0  0  0  0  0  0
  149.7078  142.1640  155.1301 H   0  0  0  0  0  0  0  0  0  0  0  0
  149.2751  140.5404  152.9634 H   0  0  0  0  0  0  0  0  0  0  0  0
  151.6861  140.4690  154.9737 H   0  0  0  0  0  0  0  0  0  0  0  0
  151.3703  138.7847  155.5071 H   0  0  0  0  0  0  0  0  0  0  0  0
  153.1273  138.5379  161.9885 H   0  0  0  0  0  0  0  0  0  0  0  0
  152.7280  137.2383  163.8166 H   0  0  0  0  0  0  0  0  0  0  0  0
  153.3246  135.8621  162.9254 H   0  0  0  0  0  0  0  0  0  0  0  0
  154.5053  136.8207  165.2737 H   0  0  0  0  0  0  0  0  0  0  0  0
  155.4423  135.9773  164.0300 H   0  0  0  0  0  0  0  0  0  0  0  0
  156.2850  138.4011  164.4739 H   0  0  0  0  0  0  0  0  0  0  0  0
  1  2  1  0  0  0  0
  1 27  1  0  0  0  0
  1 28  1  0  0  0  0
  1 29  1  0  0  0  0
  2  3  1  0  0  0  0
  2 30  1  0  0  0  0
  2 31  1  0  0  0  0
  3  4  1  0  0  0  0
  3 21  1  0  0  0  0
  4  9  1  0  0  0  0
  4  5  2  0  0  0  0
  5  6  1  0  0  0  0
  6  7  2  0  0  0  0
  6 32  1  0  0  0  0
  7  8  1  0  0  0  0
  8 12  1  0  0  0  0
  8  9  2  0  0  0  0
  9 10  1  0  0  0  0
 10 11  2  0  0  0  0
 11 12  1  0  0  0  0
 11 33  1  0  0  0  0
 12 13  1  0  0  0  0
 13 20  1  0  0  0  0
 13 14  1  0  0  0  0
 13 34  1  0  0  0  0
 14 15  1  0  0  0  0
 14 35  1  0  0  0  0
 14 36  1  0  0  0  0
 15 16  1  0  0  0  0
 15 18  1  0  0  0  0
 15 20  1  0  0  0  0
 16 17  1  0  0  0  0
 16 37  1  0  0  0  0
 16 38  1  0  0  0  0
 17 39  1  0  0  0  0
 18 19  1  0  0  0  0
 18 40  1  0  0  0  0
 18 41  1  0  0  0  0
 19 42  1  0  0  0  0
 20 43  1  0  0  0  0
 20 44  1  0  0  0  0
 21 25  1  0  0  0  0
 21 22  1  0  0  0  0
 21 45  1  0  0  0  0
 22 23  1  0  0  0  0
 22 46  1  0  0  0  0
 22 47  1  0  0  0  0
 23 24  1  0  0  0  0
 23 48  1  0  0  0  0
 23 49  1  0  0  0  0
 24 25  1  0  0  0  0
 24 50  1  0  0  0  0
 25 26  2  0  0  0  0
M  END
> <s_m_source_file>
AV-unprocessed.smi

> <i_m_source_file_index>
231

> <i_lp_mmshare_version>
43012

> <i_f3d_flags>
0

> <s_epik_input>
Tz1DMVtOSF1bQ0gyXVtDSDJdW0NASF0xTihbQ0gyXVtDSDNdKWMobltjSF1uMiljKGMyMyluW2NIXW4zW0NIXShbQ0gyXTQpW0NIMl1DNChbQ0gyXVtPSF0pW0NIMl1bT0hd

> <s_epik_cmdline>
J2VwaWtfcHl0aG9uJywgJy1waCcsICc3LjAnLCAnLXRuJywgJzgnLCAnLW1hJywgJzIwMCcsICctbWV0YWxfYmluZGluZycsICctaW1hZScsICc8aW5maWxlLm1hZT4nLCAnLW9tYWUnLCAnPG91dGZpbGUubWFlPic=

> <r_lp_tautomer_probability>
1

> <r_epik_Ionization_Penalty>
0.000842899

> <r_epik_Ionization_Penalty_Charging>
0

> <r_epik_Ionization_Penalty_Neutral>
0.000842899

> <r_epik_State_Penalty>
0.000441286

> <r_epik_Charging_Adjusted_Penalty>
0.000441286

> <i_epik_Tot_Q>
0

> <i_epik_Tot_abs_Q>
0

> <r_epik_Metal_State_Penalty>
-0

> <b_epik_Metal_Only>
0

> <s_lp_Force_Field>
OPLS_2005

> <r_lp_Energy>
52.3391

> <b_lp_Chiralities_Consistent>
1

> <s_lp_Variant>
AV-unprocessed.smi:231-2

> <Gold.Version>
5.8.1

> <Gold.Id.Protein>
6NUR|6NUR_protein|mol2

> <Gold.PLP.Fitness>
46.3239

> <Gold.PLP.PLP>
-38.5662

> <Gold.PLP.part.hbond>
-5.4567

> <Gold.PLP.part.metal>
0.0000

> <Gold.PLP.part.buried>
-3.9993

> <Gold.PLP.part.nonpolar>
-28.9163

> <Gold.PLP.part.repulsive>
0.0095

> <Gold.PLP.ligand.clash>
0.0000

> <Gold.PLP.ligand.torsion>
1.5700

> <Gold.PLP.Chemscore.Hbond>
3.3041

> <Gold.PLP.Chemscore.CHOScore>
0.0000

> <Gold.PLP.Chemscore.Metal>
0.0000

> <Gold.Chemscore.Hbonds>
donor molecule, donor type, donor heavy atom, donor atom, acceptor molecule, acceptor atom, score
      L1  H    17    39       P1  7948  1.00
      L1  H    19    42       P1  7957  0.51
      P1  H  6896  6909       L1     5  0.88
      P1  H  8011  8017       L1    19  0.90

> <Gold.PLP.Chemscore.Internal.Correction>
0.9855

> <Gold.Rescore>
     Score         DG    S(hbond)    S(metal)    S(lipo)     H(rot)  DE(clash)    DE(int)     intcor
     10.62     -12.13       2.40        0.00      67.64       3.63       0.06       1.45       ----

> <Gold.Chemscore.Fitness>
10.6220

> <Gold.Chemscore.DG>
-12.1329

> <Gold.Chemscore.ZeroCoef>
-5.4800

> <Gold.Chemscore.Hbond>
2.4021

> <Gold.Chemscore.Metal>
0.0000

> <Gold.Chemscore.Lipo>
67.6367

> <Gold.Chemscore.Internal_Hbond>
0.0000

> <Gold.Chemscore.DEClash>
0.0584

> <Gold.Chemscore.DEInternal>
1.4525

> <Gold.Chemscore.Rot>
3.6264

> <Gold.Chemscore.Internal.Correction>
   9.000000E+99

> <Gold.Chemscore.Hbonds>
donor molecule, donor type, donor heavy atom, donor atom, acceptor molecule, acceptor atom, score
      L1  H    17    39       P1  7948  0.93
      L1  H    19    42       P1  7957  0.52
      P1  H  6896  6909       L1     5  0.16
      P1  H  8011  8017       L1    19  0.67

> <Gold.Chemscore.Hbond.Weighted>
-8.0230

> <Gold.Chemscore.Metal.Weighted>
-0.0000

> <Gold.Chemscore.Lipo.Weighted>
-7.9135

> <Gold.Chemscore.Internal_Hbond.Weighted>
0.0000

> <Gold.Chemscore.DEClash.Weighted>
0.0584

> <Gold.Chemscore.DEInternal.Weighted>
1.4525

> <Gold.Chemscore.Rot.Weighted>
9.2835

> <Gold.Chemscore.Internal.Correction.Weighted>
   9.000000E+99

> <Gold.Protein.RotatedTorsions>
[ 6907 6896 6895 6894 ] final  164.52 input  -60.11 | X-H torsion
[ 7974 7965 7964 7962 ] final    4.57 input  175.53 | X-H torsion
[ 8008 7997 7996 7995 ] final  -15.89 input   59.86 | X-H torsion
[ 10167 10162 10161 10158 ] final  -57.07 input  -65.29 | X-H torsion
[ 10718 10713 10712 10709 ] final  -66.51 input   66.30 | X-H torsion
[ 10763 10752 10751 10750 ] final  -19.91 input  -60.55 | X-H torsion
[ 11005 11000 10999 10996 ] final -146.48 input  -57.11 | X-H torsion

> <Gold.Protein.ActiveResidues>
 VAL166  LYS551  ARG553  GLY616  TRP617  ASP618  TYR619  PRO620  LYS621  CYS622 
 ASP623  PHE694  ASN695  SER759  ASP760  ASP761  ALA762  ILE779  LEU786  VAL792 
 PHE793  MET794  SER795  GLU796  ALA797  LYS798  CYS799  TRP800  GLU811  SER814 

> <Gold.Protein.RotatedAtoms>
  151.9085  133.3555  159.3855 H   0  0  0  0  0  0  0  0  0  0  0  0  # atno 6907 bound_to 6896
  150.7063  134.4756  159.5455 H   0  0  0  0  0  0  0  0  0  0  0  0  # atno 6908 bound_to 6896
  152.2357  134.8278  160.0518 H   0  0  0  0  0  0  0  0  0  0  0  0  # atno 6909 bound_to 6896
  146.2443  140.0514  142.8375 H   0  0  0  0  0  0  0  0  0  0  0  0  # atno 7974 bound_to 7965
  154.5095  140.2184  155.9184 H   0  0  0  0  0  0  0  0  0  0  0  0  # atno 8008 bound_to 7997
  156.1535  140.3156  155.8653 H   0  0  0  0  0  0  0  0  0  0  0  0  # atno 8009 bound_to 7997
  155.3893  140.0477  157.3032 H   0  0  0  0  0  0  0  0  0  0  0  0  # atno 8010 bound_to 7997
  140.6280  143.2446  151.5315 H   0  0  0  0  0  0  0  0  0  0  0  0  # atno 10167 bound_to 10162
  156.0608  130.4263  150.1719 H   0  0  0  0  0  0  0  0  0  0  0  0  # atno 10718 bound_to 10713
  153.6122  135.6996  153.5342 H   0  0  0  0  0  0  0  0  0  0  0  0  # atno 10763 bound_to 10752
  153.3007  135.4130  155.1249 H   0  0  0  0  0  0  0  0  0  0  0  0  # atno 10764 bound_to 10752
  154.8561  135.3648  154.5661 H   0  0  0  0  0  0  0  0  0  0  0  0  # atno 10765 bound_to 10752
  140.7815  134.3073  157.5044 H   0  0  0  0  0  0  0  0  0  0  0  0  # atno 11005 bound_to 11000
  145.0981  140.9328  143.4729 LP  0  0  0  0  0  0  0  0  0  0  0  0  # atno 17320 bound_to 7965
  145.0701  139.3038  143.5836 LP  0  0  0  0  0  0  0  0  0  0  0  0  # atno 17321 bound_to 7965
  139.5497  144.2427  152.1508 LP  0  0  0  0  0  0  0  0  0  0  0  0  # atno 17342 bound_to 10162
  140.1663  144.4978  150.6604 LP  0  0  0  0  0  0  0  0  0  0  0  0  # atno 17343 bound_to 10162
  156.9788  130.9857  151.3442 LP  0  0  0  0  0  0  0  0  0  0  0  0  # atno 17370 bound_to 10713
  157.5616  130.8249  149.8273 LP  0  0  0  0  0  0  0  0  0  0  0  0  # atno 17371 bound_to 10713
  139.8742  134.9321  156.3546 LP  0  0  0  0  0  0  0  0  0  0  0  0  # atno 17394 bound_to 11000
  140.9478  133.7471  156.0231 LP  0  0  0  0  0  0  0  0  0  0  0  0  # atno 17395 bound_to 11000

$$$$
