AV-unprocessed.smi:2154|AV-procd|sdf|8770|dock3
  -GOLD-   2272011553D 1   1.00000     0.00000
 Structure written by MMmdl.
 32 33  0  0  0  0  0  0  0  0  1 V2000
  152.6736  142.4723  160.9784 C   0  0  0  0  0  0  0  0  0  0  0  0
  152.6078  143.5819  159.9514 C   0  0  2  0  0  0  0  0  0  0  0  0
  151.6657  144.7487  160.1389 C   0  0  0  0  0  0  0  0  0  0  0  0
  151.4008  143.7326  159.0527 C   0  0  1  0  0  0  0  0  0  0  0  0
  151.5744  144.0912  157.5888 C   0  0  0  0  0  0  0  0  0  0  0  0
  150.8809  143.2150  156.6534 N   0  0  0  0  0  0  0  0  0  0  0  0
  150.9991  141.8791  156.6177 C   0  0  0  0  0  0  0  0  0  0  0  0
  151.7142  141.2458  157.3960 O   0  0  0  0  0  0  0  0  0  0  0  0
  150.1639  141.1574  155.5499 C   0  0  0  0  0  0  0  0  0  0  0  0
  150.3977  139.7061  155.5143 N   0  0  0  0  0  0  0  0  0  0  0  0
  149.3414  138.8224  155.6861 C   0  0  0  0  0  0  0  0  0  0  0  0
  149.4862  137.4761  155.6771 C   0  0  0  0  0  0  0  0  0  0  0  0
  150.8015  136.8760  155.4807 C   0  0  0  0  0  0  0  0  0  0  0  0
  151.0338  135.6694  155.4555 O   0  0  0  0  0  0  0  0  0  0  0  0
  151.8390  137.7973  155.3141 N   0  0  0  0  0  0  0  0  0  0  0  0
  151.6967  139.1859  155.3237 C   0  0  0  0  0  0  0  0  0  0  0  0
  152.6804  139.9092  155.1714 O   0  0  0  0  0  0  0  0  0  0  0  0
  152.7690  137.4282  155.1784 H   0  0  0  0  0  0  0  0  0  0  0  0
  151.6876  142.2749  161.4002 H   0  0  0  0  0  0  0  0  0  0  0  0
  153.3484  142.7512  161.7877 H   0  0  0  0  0  0  0  0  0  0  0  0
  153.0437  141.5571  160.5160 H   0  0  0  0  0  0  0  0  0  0  0  0
  153.5719  143.8184  159.5045 H   0  0  0  0  0  0  0  0  0  0  0  0
  151.0070  144.7371  161.0052 H   0  0  0  0  0  0  0  0  0  0  0  0
  152.0212  145.7325  159.8392 H   0  0  0  0  0  0  0  0  0  0  0  0
  150.5889  143.0317  159.2386 H   0  0  0  0  0  0  0  0  0  0  0  0
  151.2201  145.1094  157.4248 H   0  0  0  0  0  0  0  0  0  0  0  0
  152.6405  144.0998  157.3563 H   0  0  0  0  0  0  0  0  0  0  0  0
  150.2682  143.6562  155.9828 H   0  0  0  0  0  0  0  0  0  0  0  0
  149.1109  141.3648  155.7460 H   0  0  0  0  0  0  0  0  0  0  0  0
  150.3652  141.5946  154.5696 H   0  0  0  0  0  0  0  0  0  0  0  0
  148.3490  139.2221  155.8396 H   0  0  0  0  0  0  0  0  0  0  0  0
  148.6244  136.8396  155.8173 H   0  0  0  0  0  0  0  0  0  0  0  0
  1  2  1  0  0  0  0
  1 19  1  0  0  0  0
  1 20  1  0  0  0  0
  1 21  1  0  0  0  0
  2  4  1  0  0  0  0
  2  3  1  0  0  0  0
  2 22  1  0  0  0  0
  3  4  1  0  0  0  0
  3 23  1  0  0  0  0
  3 24  1  0  0  0  0
  4  5  1  0  0  0  0
  4 25  1  0  0  0  0
  5  6  1  0  0  0  0
  5 26  1  0  0  0  0
  5 27  1  0  0  0  0
  6  7  1  0  0  0  0
  6 28  1  0  0  0  0
  7  8  2  0  0  0  0
  7  9  1  0  0  0  0
  9 10  1  0  0  0  0
  9 29  1  0  0  0  0
  9 30  1  0  0  0  0
 10 16  1  0  0  0  0
 10 11  1  0  0  0  0
 11 12  2  0  0  0  0
 11 31  1  0  0  0  0
 12 13  1  0  0  0  0
 12 32  1  0  0  0  0
 13 14  2  0  0  0  0
 13 15  1  0  0  0  0
 15 18  1  0  0  0  0
 15 16  1  0  0  0  0
 16 17  2  0  0  0  0
M  END
> <s_m_source_file>
AV-unprocessed.smi

> <i_m_source_file_index>
2154

> <i_lp_mmshare_version>
43012

> <i_f3d_flags>
0

> <s_epik_input>
W0NIM11bQ0BASF0xW0NIMl1bQ0BIXTFbQ0gyXVtOSF1DKD1PKVtDSDJdbjJbY0hdW2NIXWMoPU8pW25IXWMyPU8=

> <s_epik_cmdline>
J2VwaWtfcHl0aG9uJywgJy1waCcsICc3LjAnLCAnLXRuJywgJzgnLCAnLW1hJywgJzIwMCcsICctbWV0YWxfYmluZGluZycsICctaW1hZScsICc8aW5maWxlLm1hZT4nLCAnLW9tYWUnLCAnPG91dGZpbGUubWFlPic=

> <r_lp_tautomer_probability>
0.999537

> <r_epik_Ionization_Penalty>
0.00305319

> <r_epik_Ionization_Penalty_Charging>
0.00305317

> <r_epik_Ionization_Penalty_Neutral>
2.06703e-08

> <r_epik_State_Penalty>
0.00214626

> <r_epik_Charging_Adjusted_Penalty>
0.00519944

> <i_epik_Tot_Q>
0

> <i_epik_Tot_abs_Q>
0

> <r_epik_Metal_State_Penalty>
0.361976

> <b_epik_Metal_Only>
0

> <s_lp_Force_Field>
OPLS_2005

> <r_lp_Energy>
14.8424

> <b_lp_Chiralities_Consistent>
1

> <s_lp_Variant>
AV-unprocessed.smi:2154-1

> <Gold.Version>
5.8.1

> <Gold.Id.Protein>
6NUR|6NUR_protein|mol2

> <Gold.PLP.Fitness>
45.8648

> <Gold.PLP.PLP>
-36.4241

> <Gold.PLP.part.hbond>
-4.0000

> <Gold.PLP.part.metal>
0.0000

> <Gold.PLP.part.buried>
-4.3870

> <Gold.PLP.part.nonpolar>
-29.4985

> <Gold.PLP.part.repulsive>
0.3421

> <Gold.PLP.ligand.clash>
0.0000

> <Gold.PLP.ligand.torsion>
0.4936

> <Gold.PLP.Chemscore.Hbond>
3.2904

> <Gold.PLP.Chemscore.CHOScore>
0.0000

> <Gold.PLP.Chemscore.Metal>
0.0000

> <Gold.Chemscore.Hbonds>
donor molecule, donor type, donor heavy atom, donor atom, acceptor molecule, acceptor atom, score
      L1  H     6    28       P1  8028  0.98
      P1  H  7989  7998       L1    17  0.18
      P1  H  7997  8008       L1    17  1.00
      P1  H 10752 10765       L1    14  0.86

> <Gold.PLP.Chemscore.Internal.Correction>
0.5566

> <Gold.Rescore>
     Score         DG    S(hbond)    S(metal)    S(lipo)     H(rot)  DE(clash)    DE(int)     intcor
     16.39     -17.37       2.66        0.00      69.65       2.01       0.41       0.57       ----

> <Gold.Chemscore.Fitness>
16.3883

> <Gold.Chemscore.DG>
-17.3657

> <Gold.Chemscore.ZeroCoef>
-5.4800

> <Gold.Chemscore.Hbond>
2.6566

> <Gold.Chemscore.Metal>
0.0000

> <Gold.Chemscore.Lipo>
69.6534

> <Gold.Chemscore.Internal_Hbond>
0.0000

> <Gold.Chemscore.DEClash>
0.4096

> <Gold.Chemscore.DEInternal>
0.5678

> <Gold.Chemscore.Rot>
2.0065

> <Gold.Chemscore.Internal.Correction>
   9.000000E+99

> <Gold.Chemscore.Hbonds>
donor molecule, donor type, donor heavy atom, donor atom, acceptor molecule, acceptor atom, score
      L1  H     6    28       P1  8028  0.93
      P1  H  7989  7998       L1    17  0.01
      P1  H  7997  8008       L1    17  1.00
      P1  H 10752 10765       L1    14  0.33

> <Gold.Chemscore.Hbond.Weighted>
-8.8729

> <Gold.Chemscore.Metal.Weighted>
-0.0000

> <Gold.Chemscore.Lipo.Weighted>
-8.1494

> <Gold.Chemscore.Internal_Hbond.Weighted>
0.0000

> <Gold.Chemscore.DEClash.Weighted>
0.4096

> <Gold.Chemscore.DEInternal.Weighted>
0.5678

> <Gold.Chemscore.Rot.Weighted>
5.1366

> <Gold.Chemscore.Internal.Correction.Weighted>
   9.000000E+99

> <Gold.Protein.RotatedTorsions>
[ 6907 6896 6895 6894 ] final -130.56 input  -60.11 | X-H torsion
[ 7974 7965 7964 7962 ] final -128.01 input  175.53 | X-H torsion
[ 8008 7997 7996 7995 ] final  -18.28 input   59.86 | X-H torsion
[ 10167 10162 10161 10158 ] final -166.90 input  -65.29 | X-H torsion
[ 10718 10713 10712 10709 ] final  -35.22 input   66.30 | X-H torsion
[ 10763 10752 10751 10750 ] final  179.30 input  -60.55 | X-H torsion
[ 11005 11000 10999 10996 ] final   66.73 input  -57.11 | X-H torsion

> <Gold.Protein.ActiveResidues>
 VAL166  LYS551  ARG553  GLY616  TRP617  ASP618  TYR619  PRO620  LYS621  CYS622 
 ASP623  PHE694  ASN695  SER759  ASP760  ASP761  ALA762  ILE779  LEU786  VAL792 
 PHE793  MET794  SER795  GLU796  ALA797  LYS798  CYS799  TRP800  GLU811  SER814 

> <Gold.Protein.RotatedAtoms>
  150.9410  133.6656  159.2790 H   0  0  0  0  0  0  0  0  0  0  0  0  # atno 6907 bound_to 6896
  151.4045  135.0975  159.9576 H   0  0  0  0  0  0  0  0  0  0  0  0  # atno 6908 bound_to 6896
  152.5069  133.8897  159.7442 H   0  0  0  0  0  0  0  0  0  0  0  0  # atno 6909 bound_to 6896
  144.9714  140.7548  143.4668 H   0  0  0  0  0  0  0  0  0  0  0  0  # atno 7974 bound_to 7965
  154.4917  140.2120  155.9533 H   0  0  0  0  0  0  0  0  0  0  0  0  # atno 8008 bound_to 7997
  156.1315  140.3196  155.8324 H   0  0  0  0  0  0  0  0  0  0  0  0  # atno 8009 bound_to 7997
  155.4288  140.0502  157.3011 H   0  0  0  0  0  0  0  0  0  0  0  0  # atno 8010 bound_to 7997
  139.6084  144.0864  152.1817 H   0  0  0  0  0  0  0  0  0  0  0  0  # atno 10167 bound_to 10162
  156.3412  130.4294  149.7785 H   0  0  0  0  0  0  0  0  0  0  0  0  # atno 10718 bound_to 10713
  154.5189  135.2793  155.1279 H   0  0  0  0  0  0  0  0  0  0  0  0  # atno 10763 bound_to 10752
  154.2845  135.6279  153.5364 H   0  0  0  0  0  0  0  0  0  0  0  0  # atno 10764 bound_to 10752
  152.9933  135.5659  154.5673 H   0  0  0  0  0  0  0  0  0  0  0  0  # atno 10765 bound_to 10752
  139.9814  134.6738  156.0256 H   0  0  0  0  0  0  0  0  0  0  0  0  # atno 11005 bound_to 11000
  145.2554  139.2014  143.4920 LP  0  0  0  0  0  0  0  0  0  0  0  0  # atno 17320 bound_to 7965
  146.3383  140.2475  142.8597 LP  0  0  0  0  0  0  0  0  0  0  0  0  # atno 17321 bound_to 7965
  140.0477  144.5957  150.7360 LP  0  0  0  0  0  0  0  0  0  0  0  0  # atno 17342 bound_to 10162
  140.7302  143.2680  151.3980 LP  0  0  0  0  0  0  0  0  0  0  0  0  # atno 17343 bound_to 10162
  156.5021  130.8133  151.3136 LP  0  0  0  0  0  0  0  0  0  0  0  0  # atno 17370 bound_to 10713
  157.7447  130.9941  150.2697 LP  0  0  0  0  0  0  0  0  0  0  0  0  # atno 17371 bound_to 10713
  141.1485  133.6552  156.3941 LP  0  0  0  0  0  0  0  0  0  0  0  0  # atno 17394 bound_to 11000
  140.5089  134.6414  157.5277 LP  0  0  0  0  0  0  0  0  0  0  0  0  # atno 17395 bound_to 11000

$$$$
