AV-unprocessed.smi:1680|AV-procd|sdf|6739|dock6
  -GOLD-   22720 7493D 1   1.00000     0.00000
 Structure written by MMmdl.
 37 38  0  0  0  0  0  0  0  0  2 V2000
  152.5055  144.1809  161.8563 C   0  0  0  0  0  0  0  0  0  0  0  0
  152.4806  144.5870  160.3813 C   0  0  0  0  0  0  0  0  0  0  0  0
  152.3522  145.7817  160.1123 O   0  0  0  0  0  0  0  0  0  0  0  0
  152.5993  143.6308  159.4300 N   0  0  0  0  0  0  0  0  0  0  0  0
  152.5327  143.9113  157.9934 C   0  0  0  0  0  0  0  0  0  0  0  0
  151.2840  143.2230  157.4085 C   0  0  0  0  0  0  0  0  0  0  0  0
  151.3446  141.7776  157.6436 N   0  0  0  0  0  0  0  0  0  0  0  0
  150.1696  141.1395  157.0499 C   0  0  0  0  0  0  0  0  0  0  0  0
  150.2829  140.9464  155.5234 C   0  0  0  0  0  0  0  0  0  0  0  0
  150.3530  139.5344  155.1564 N   0  0  0  0  0  0  0  0  0  0  0  0
  151.3775  138.7028  155.3959 C   0  0  0  0  0  0  0  0  0  0  0  0
  152.3810  139.1119  155.9847 O   0  0  0  0  0  0  0  0  0  0  0  0
  151.1752  137.4456  154.9396 N   0  5  0  0  0  0  0  0  0  0  0  0
  150.5533  136.5422  155.7150 C   0  0  0  0  0  0  0  0  0  0  0  0
  151.1446  135.9853  156.7842 N   0  0  0  0  0  0  0  0  0  0  0  0
  150.3314  135.0747  157.4454 N   0  0  0  0  0  0  0  0  0  0  0  0
  149.1441  134.9621  156.8501 C   0  0  0  0  0  0  0  0  0  0  0  0
  148.9131  135.9541  155.4259 S   0  0  0  0  0  0  0  0  0  0  0  0
  151.4397  141.5057  159.0830 C   0  0  0  0  0  0  0  0  0  0  0  0
  152.6917  142.1869  159.6673 C   0  0  0  0  0  0  0  0  0  0  0  0
  151.6856  143.4990  162.0836 H   0  0  0  0  0  0  0  0  0  0  0  0
  152.3980  145.0562  162.4980 H   0  0  0  0  0  0  0  0  0  0  0  0
  153.4500  143.6978  162.1075 H   0  0  0  0  0  0  0  0  0  0  0  0
  152.4965  144.9790  157.7738 H   0  0  0  0  0  0  0  0  0  0  0  0
  153.4349  143.5357  157.5082 H   0  0  0  0  0  0  0  0  0  0  0  0
  150.3790  143.6387  157.8545 H   0  0  0  0  0  0  0  0  0  0  0  0
  151.2336  143.4167  156.3365 H   0  0  0  0  0  0  0  0  0  0  0  0
  149.9887  140.1807  157.5381 H   0  0  0  0  0  0  0  0  0  0  0  0
  149.2901  141.7548  157.2462 H   0  0  0  0  0  0  0  0  0  0  0  0
  149.4919  141.4639  154.9807 H   0  0  0  0  0  0  0  0  0  0  0  0
  151.2114  141.4058  155.1848 H   0  0  0  0  0  0  0  0  0  0  0  0
  149.5560  139.1525  154.6689 H   0  0  0  0  0  0  0  0  0  0  0  0
  148.4014  134.2877  157.2495 H   0  0  0  0  0  0  0  0  0  0  0  0
  150.5430  141.8602  159.5937 H   0  0  0  0  0  0  0  0  0  0  0  0
  151.5090  140.4342  159.2635 H   0  0  0  0  0  0  0  0  0  0  0  0
  153.5895  141.7990  159.1831 H   0  0  0  0  0  0  0  0  0  0  0  0
  152.7889  141.9227  160.7190 H   0  0  0  0  0  0  0  0  0  0  0  0
  1  2  1  0  0  0  0
  1 21  1  0  0  0  0
  1 22  1  0  0  0  0
  1 23  1  0  0  0  0
  2  3  2  0  0  0  0
  2  4  1  0  0  0  0
  4 20  1  0  0  0  0
  4  5  1  0  0  0  0
  5  6  1  0  0  0  0
  5 24  1  0  0  0  0
  5 25  1  0  0  0  0
  6  7  1  0  0  0  0
  6 26  1  0  0  0  0
  6 27  1  0  0  0  0
  7  8  1  0  0  0  0
  7 19  1  0  0  0  0
  8  9  1  0  0  0  0
  8 28  1  0  0  0  0
  8 29  1  0  0  0  0
  9 10  1  0  0  0  0
  9 30  1  0  0  0  0
  9 31  1  0  0  0  0
 10 11  1  0  0  0  0
 10 32  1  0  0  0  0
 11 12  2  0  0  0  0
 11 13  1  0  0  0  0
 13 14  1  0  0  0  0
 14 18  1  0  0  0  0
 14 15  2  0  0  0  0
 15 16  1  0  0  0  0
 16 17  2  0  0  0  0
 17 18  1  0  0  0  0
 17 33  1  0  0  0  0
 19 20  1  0  0  0  0
 19 34  1  0  0  0  0
 19 35  1  0  0  0  0
 20 36  1  0  0  0  0
 20 37  1  0  0  0  0
M  CHG  1  13  -1
M  END
> <s_m_source_file>
AV-unprocessed.smi

> <i_m_source_file_index>
1680

> <i_lp_mmshare_version>
43012

> <i_f3d_flags>
0

> <s_epik_input>
W0NIM11DKD1PKU4xW0NIMl1bQ0gyXU4oW0NIMl1bQ0gyXTEpW0NIMl1bQ0gyXVtOSF1DKD1PKVtOSF1jMm5uW2NIXXMy

> <s_epik_cmdline>
J2VwaWtfcHl0aG9uJywgJy1waCcsICc3LjAnLCAnLXRuJywgJzgnLCAnLW1hJywgJzIwMCcsICctbWV0YWxfYmluZGluZycsICctaW1hZScsICc8aW5maWxlLm1hZT4nLCAnLW9tYWUnLCAnPG91dGZpbGUubWFlPic=

> <r_lp_tautomer_probability>
1

> <r_epik_Ionization_Penalty>
3.80493

> <r_epik_Ionization_Penalty_Charging>
3.53258

> <r_epik_Ionization_Penalty_Neutral>
0.272353

> <r_epik_State_Penalty>
3.75006

> <r_epik_Charging_Adjusted_Penalty>
7.28264

> <i_epik_Tot_Q>
-1

> <i_epik_Tot_abs_Q>
1

> <r_epik_Metal_State_Penalty>
0.749383

> <b_epik_Metal_Only>
1

> <s_lp_Force_Field>
OPLS_2005

> <r_lp_Energy>
35.6067

> <b_lp_Chiralities_Consistent>
1

> <s_lp_Variant>
AV-unprocessed.smi:1680-3

> <Gold.Version>
5.8.1

> <Gold.Id.Protein>
6NUR|6NUR_protein|mol2

> <Gold.PLP.Fitness>
41.8034

> <Gold.PLP.PLP>
-39.8133

> <Gold.PLP.part.hbond>
-2.4119

> <Gold.PLP.part.metal>
0.0000

> <Gold.PLP.part.buried>
-3.9035

> <Gold.PLP.part.nonpolar>
-32.3421

> <Gold.PLP.part.repulsive>
0.5038

> <Gold.PLP.ligand.clash>
0.0000

> <Gold.PLP.ligand.torsion>
2.0275

> <Gold.PLP.Chemscore.Hbond>
2.0000

> <Gold.PLP.Chemscore.CHOScore>
0.0000

> <Gold.PLP.Chemscore.Metal>
0.0000

> <Gold.Chemscore.Hbonds>
donor molecule, donor type, donor heavy atom, donor atom, acceptor molecule, acceptor atom, score
      P1  H  6896  6907       L1    16  0.14
      P1  H  7997  8008       L1    12  0.47

> <Gold.PLP.Chemscore.Internal.Correction>
0.0450

> <Gold.Rescore>
     Score         DG    S(hbond)    S(metal)    S(lipo)     H(rot)  DE(clash)    DE(int)     intcor
     11.50     -13.59       1.22        0.00      73.16       1.77       0.04       2.05       ----

> <Gold.Chemscore.Fitness>
11.5023

> <Gold.Chemscore.DG>
-13.5874

> <Gold.Chemscore.ZeroCoef>
-5.4800

> <Gold.Chemscore.Hbond>
1.2178

> <Gold.Chemscore.Metal>
0.0000

> <Gold.Chemscore.Lipo>
73.1637

> <Gold.Chemscore.Internal_Hbond>
0.0000

> <Gold.Chemscore.DEClash>
0.0368

> <Gold.Chemscore.DEInternal>
2.0484

> <Gold.Chemscore.Rot>
1.7657

> <Gold.Chemscore.Internal.Correction>
   9.000000E+99

> <Gold.Chemscore.Hbonds>
donor molecule, donor type, donor heavy atom, donor atom, acceptor molecule, acceptor atom, score
      P1  H  6896  6907       L1    16  0.12
      P1  H  7997  8008       L1    12  0.46

> <Gold.Chemscore.Hbond.Weighted>
-4.0674

> <Gold.Chemscore.Metal.Weighted>
-0.0000

> <Gold.Chemscore.Lipo.Weighted>
-8.5602

> <Gold.Chemscore.Internal_Hbond.Weighted>
0.0000

> <Gold.Chemscore.DEClash.Weighted>
0.0368

> <Gold.Chemscore.DEInternal.Weighted>
2.0484

> <Gold.Chemscore.Rot.Weighted>
4.5201

> <Gold.Chemscore.Internal.Correction.Weighted>
   9.000000E+99

> <Gold.Protein.RotatedTorsions>
[ 6907 6896 6895 6894 ] final  -50.52 input  -60.11 | X-H torsion
[ 7974 7965 7964 7962 ] final  -71.03 input  175.53 | X-H torsion
[ 8008 7997 7996 7995 ] final  -49.89 input   59.86 | X-H torsion
[ 10167 10162 10161 10158 ] final  -75.87 input  -65.29 | X-H torsion
[ 10718 10713 10712 10709 ] final -100.00 input   66.30 | X-H torsion
[ 10763 10752 10751 10750 ] final  -14.48 input  -60.55 | X-H torsion
[ 11005 11000 10999 10996 ] final  -86.81 input  -57.11 | X-H torsion

> <Gold.Protein.ActiveResidues>
 VAL166  LYS551  ARG553  GLY616  TRP617  ASP618  TYR619  PRO620  LYS621  CYS622 
 ASP623  PHE694  ASN695  SER759  ASP760  ASP761  ALA762  ILE779  LEU786  VAL792 
 PHE793  MET794  SER795  GLU796  ALA797  LYS798  CYS799  TRP800  GLU811  SER814 

> <Gold.Protein.RotatedAtoms>
  150.8700  134.8071  159.7147 H   0  0  0  0  0  0  0  0  0  0  0  0  # atno 6907 bound_to 6896
  152.4708  134.4962  159.9720 H   0  0  0  0  0  0  0  0  0  0  0  0  # atno 6908 bound_to 6896
  151.5053  133.3457  159.2911 H   0  0  0  0  0  0  0  0  0  0  0  0  # atno 6909 bound_to 6896
  145.6833  140.9180  143.0820 H   0  0  0  0  0  0  0  0  0  0  0  0  # atno 7974 bound_to 7965
  154.4052  140.1285  156.4577 H   0  0  0  0  0  0  0  0  0  0  0  0  # atno 8008 bound_to 7997
  155.7304  140.3491  155.5037 H   0  0  0  0  0  0  0  0  0  0  0  0  # atno 8009 bound_to 7997
  155.9133  140.1039  157.1253 H   0  0  0  0  0  0  0  0  0  0  0  0  # atno 8010 bound_to 7997
  140.4905  143.2381  151.7914 H   0  0  0  0  0  0  0  0  0  0  0  0  # atno 10167 bound_to 10162
  156.0150  130.5308  150.6753 H   0  0  0  0  0  0  0  0  0  0  0  0  # atno 10718 bound_to 10713
  153.5289  135.7015  153.5693 H   0  0  0  0  0  0  0  0  0  0  0  0  # atno 10763 bound_to 10752
  153.3709  135.3945  155.1788 H   0  0  0  0  0  0  0  0  0  0  0  0  # atno 10764 bound_to 10752
  154.8687  135.3811  154.4785 H   0  0  0  0  0  0  0  0  0  0  0  0  # atno 10765 bound_to 10752
  141.1625  133.7475  156.9215 H   0  0  0  0  0  0  0  0  0  0  0  0  # atno 11005 bound_to 11000
  144.7019  139.8725  143.7441 LP  0  0  0  0  0  0  0  0  0  0  0  0  # atno 17320 bound_to 7965
  146.0945  139.3937  143.0385 LP  0  0  0  0  0  0  0  0  0  0  0  0  # atno 17321 bound_to 7965
  139.4850  144.4655  151.9489 LP  0  0  0  0  0  0  0  0  0  0  0  0  # atno 17342 bound_to 10162
  140.3742  144.2818  150.5916 LP  0  0  0  0  0  0  0  0  0  0  0  0  # atno 17343 bound_to 10162
  157.4467  131.0868  151.0888 LP  0  0  0  0  0  0  0  0  0  0  0  0  # atno 17370 bound_to 10713
  157.1416  130.6145  149.5557 LP  0  0  0  0  0  0  0  0  0  0  0  0  # atno 17371 bound_to 10713
  140.1448  134.9269  157.2515 LP  0  0  0  0  0  0  0  0  0  0  0  0  # atno 17394 bound_to 11000
  140.2793  134.3368  155.7348 LP  0  0  0  0  0  0  0  0  0  0  0  0  # atno 17395 bound_to 11000

$$$$
