AV-unprocessed.smi:480|AV-procd|sdf|2678|dock10
  -GOLD-   2262023103D 1   1.00000     0.00000
 Structure written by MMmdl.
 47 49  0  0  0  0  0  0  0  0  2 V2000
  149.1914  140.0824  154.4559 C   0  0  0  0  0  0  0  0  0  0  0  0
  148.6744  140.7596  155.7326 C   0  0  0  0  0  0  0  0  0  0  0  0
  149.7712  141.0870  156.6995 C   0  0  0  0  0  0  0  0  0  0  0  0
  150.1881  142.3393  157.0444 N   0  3  0  0  0  0  0  0  0  0  0  0
  151.2389  142.2567  157.9578 C   0  0  0  0  0  0  0  0  0  0  0  0
  151.9698  143.2520  158.5990 C   0  0  0  0  0  0  0  0  0  0  0  0
  152.9867  142.8232  159.4772 C   0  0  0  0  0  0  0  0  0  0  0  0
  153.2457  141.4532  159.6879 C   0  0  0  0  0  0  0  0  0  0  0  0
  152.4982  140.4537  159.0307 C   0  0  0  0  0  0  0  0  0  0  0  0
  151.4923  140.8865  158.1673 C   0  0  0  0  0  0  0  0  0  0  0  0
  150.5664  140.2022  157.3725 N   0  0  0  0  0  0  0  0  0  0  0  0
  150.5704  138.7301  157.3872 C   0  0  0  0  0  0  0  0  0  0  0  0
  150.3774  138.1240  158.7967 C   0  0  2  0  0  0  0  0  0  0  0  0
  151.3436  137.1100  158.9736 O   0  0  0  0  0  0  0  0  0  0  0  0
  148.9806  137.5277  159.0519 C   0  0  0  0  0  0  0  0  0  0  0  0
  148.7811  137.4091  160.4551 O   0  0  0  0  0  0  0  0  0  0  0  0
  148.0251  136.3581  160.9223 C   0  0  0  0  0  0  0  0  0  0  0  0
  147.8473  136.2703  162.3179 C   0  0  0  0  0  0  0  0  0  0  0  0
  147.0745  135.2374  162.8812 C   0  0  0  0  0  0  0  0  0  0  0  0
  146.4745  134.2714  162.0502 C   0  0  0  0  0  0  0  0  0  0  0  0
  145.6450  133.1584  162.6568 C   0  0  0  0  0  0  0  0  0  0  0  0
  145.1611  132.2129  161.6392 C   0  0  0  0  0  0  0  0  0  0  0  0
  144.7799  131.4688  160.8394 N   0  0  0  0  0  0  0  0  0  0  0  0
  146.6550  134.3437  160.6547 C   0  0  0  0  0  0  0  0  0  0  0  0
  147.4263  135.3788  160.0916 C   0  0  0  0  0  0  0  0  0  0  0  0
  148.3703  139.8796  153.7683 H   0  0  0  0  0  0  0  0  0  0  0  0
  149.6783  139.1318  154.6751 H   0  0  0  0  0  0  0  0  0  0  0  0
  149.9089  140.7165  153.9348 H   0  0  0  0  0  0  0  0  0  0  0  0
  148.1451  141.6719  155.4600 H   0  0  0  0  0  0  0  0  0  0  0  0
  147.9518  140.1134  156.2310 H   0  0  0  0  0  0  0  0  0  0  0  0
  151.7739  144.3020  158.4381 H   0  0  0  0  0  0  0  0  0  0  0  0
  153.5808  143.5599  159.9985 H   0  0  0  0  0  0  0  0  0  0  0  0
  154.0333  141.1622  160.3678 H   0  0  0  0  0  0  0  0  0  0  0  0
  152.7035  139.4069  159.1987 H   0  0  0  0  0  0  0  0  0  0  0  0
  149.7752  138.3936  156.7216 H   0  0  0  0  0  0  0  0  0  0  0  0
  151.5031  138.3839  156.9397 H   0  0  0  0  0  0  0  0  0  0  0  0
  150.5756  138.8836  159.5533 H   0  0  0  0  0  0  0  0  0  0  0  0
  151.8349  137.0187  158.1714 H   0  0  0  0  0  0  0  0  0  0  0  0
  148.2232  138.1571  158.5826 H   0  0  0  0  0  0  0  0  0  0  0  0
  148.9077  136.5322  158.6110 H   0  0  0  0  0  0  0  0  0  0  0  0
  148.3013  137.0087  162.9626 H   0  0  0  0  0  0  0  0  0  0  0  0
  146.9445  135.1865  163.9524 H   0  0  0  0  0  0  0  0  0  0  0  0
  146.2410  132.6069  163.3846 H   0  0  0  0  0  0  0  0  0  0  0  0
  144.7830  133.5703  163.1826 H   0  0  0  0  0  0  0  0  0  0  0  0
  146.2037  133.6031  160.0106 H   0  0  0  0  0  0  0  0  0  0  0  0
  147.5489  135.3988  159.0193 H   0  0  0  0  0  0  0  0  0  0  0  0
  149.7744  143.1889  156.6826 H   0  0  0  0  0  0  0  0  0  0  0  0
  1  2  1  0  0  0  0
  1 26  1  0  0  0  0
  1 27  1  0  0  0  0
  1 28  1  0  0  0  0
  2  3  1  0  0  0  0
  2 29  1  0  0  0  0
  2 30  1  0  0  0  0
  3 11  1  0  0  0  0
  3  4  2  0  0  0  0
  4  5  1  0  0  0  0
  4 47  1  0  0  0  0
  5 10  2  0  0  0  0
  5  6  1  0  0  0  0
  6  7  2  0  0  0  0
  6 31  1  0  0  0  0
  7  8  1  0  0  0  0
  7 32  1  0  0  0  0
  8  9  2  0  0  0  0
  8 33  1  0  0  0  0
  9 10  1  0  0  0  0
  9 34  1  0  0  0  0
 10 11  1  0  0  0  0
 11 12  1  0  0  0  0
 12 13  1  0  0  0  0
 12 35  1  0  0  0  0
 12 36  1  0  0  0  0
 13 14  1  0  0  0  0
 13 15  1  0  0  0  0
 13 37  1  0  0  0  0
 14 38  1  0  0  0  0
 15 16  1  0  0  0  0
 15 39  1  0  0  0  0
 15 40  1  0  0  0  0
 16 17  1  0  0  0  0
 17 25  1  0  0  0  0
 17 18  2  0  0  0  0
 18 19  1  0  0  0  0
 18 41  1  0  0  0  0
 19 20  2  0  0  0  0
 19 42  1  0  0  0  0
 20 21  1  0  0  0  0
 20 24  1  0  0  0  0
 21 22  1  0  0  0  0
 21 43  1  0  0  0  0
 21 44  1  0  0  0  0
 22 23  3  0  0  0  0
 24 25  2  0  0  0  0
 24 45  1  0  0  0  0
 25 46  1  0  0  0  0
M  CHG  1   4   1
M  END
> <s_m_source_file>
AV-unprocessed.smi

> <i_m_source_file_index>
480

> <i_lp_mmshare_version>
43012

> <i_f3d_flags>
0

> <s_epik_input>
W2NIXTFbY0hdW2NIXVtjSF1jKGMxMiluKGMobjIpW0NIMl1bQ0gzXSlbQ0gyXVtDQEhdKFtPSF0pW0NIMl1PYzNbY0hdW2NIXWMoW0NIMl1DI04pW2NIXVtjSF0z

> <s_epik_cmdline>
J2VwaWtfcHl0aG9uJywgJy1waCcsICc3LjAnLCAnLXRuJywgJzgnLCAnLW1hJywgJzIwMCcsICctbWV0YWxfYmluZGluZycsICctaW1hZScsICc8aW5maWxlLm1hZT4nLCAnLW9tYWUnLCAnPG91dGZpbGUubWFlPic=

> <r_lp_tautomer_probability>
1

> <r_epik_Ionization_Penalty>
1.03158

> <r_epik_Ionization_Penalty_Charging>
1.03158

> <r_epik_Ionization_Penalty_Neutral>
2.3994e-06

> <r_epik_State_Penalty>
1.08278

> <r_epik_Charging_Adjusted_Penalty>
2.11436

> <i_epik_Tot_Q>
1

> <i_epik_Tot_abs_Q>
1

> <r_epik_Metal_State_Penalty>
5.07177

> <b_epik_Metal_Only>
0

> <s_lp_Force_Field>
OPLS_2005

> <r_lp_Energy>
18.4444

> <b_lp_Chiralities_Consistent>
1

> <s_lp_Variant>
AV-unprocessed.smi:480-3

> <Gold.Version>
5.8.1

> <Gold.Id.Protein>
6NUR|6NUR_protein|mol2

> <Gold.PLP.Fitness>
57.1479

> <Gold.PLP.PLP>
-49.1987

> <Gold.PLP.part.hbond>
-3.5945

> <Gold.PLP.part.metal>
0.0000

> <Gold.PLP.part.buried>
-5.6687

> <Gold.PLP.part.nonpolar>
-41.1536

> <Gold.PLP.part.repulsive>
0.0718

> <Gold.PLP.ligand.clash>
0.0000

> <Gold.PLP.ligand.torsion>
1.0859

> <Gold.PLP.Chemscore.Hbond>
3.3359

> <Gold.PLP.Chemscore.CHOScore>
0.0000

> <Gold.PLP.Chemscore.Metal>
0.0000

> <Gold.Chemscore.Hbonds>
donor molecule, donor type, donor heavy atom, donor atom, acceptor molecule, acceptor atom, score
      L1  H     4    47       P1  8028  1.95
      P1  H  6896  6908       L1    14  0.65
      P1  H  6931  6943       L1    16  0.56
      P1  H  6934  6947       L1    16  0.10

> <Gold.PLP.Chemscore.Internal.Correction>
0.1134

> <Gold.Rescore>
     Score         DG    S(hbond)    S(metal)    S(lipo)     H(rot)  DE(clash)    DE(int)     intcor
     18.89     -19.83       2.06        0.00     122.19       2.67       0.03       0.92       ----

> <Gold.Chemscore.Fitness>
18.8883

> <Gold.Chemscore.DG>
-19.8330

> <Gold.Chemscore.ZeroCoef>
-5.4800

> <Gold.Chemscore.Hbond>
2.0641

> <Gold.Chemscore.Metal>
0.0000

> <Gold.Chemscore.Lipo>
122.1917

> <Gold.Chemscore.Internal_Hbond>
0.0000

> <Gold.Chemscore.DEClash>
0.0270

> <Gold.Chemscore.DEInternal>
0.9176

> <Gold.Chemscore.Rot>
2.6710

> <Gold.Chemscore.Internal.Correction>
   9.000000E+99

> <Gold.Chemscore.Hbonds>
donor molecule, donor type, donor heavy atom, donor atom, acceptor molecule, acceptor atom, score
      L1  H     4    47       P1  8028  0.91
      P1  H  6896  6908       L1    14  0.35
      P1  H  6931  6943       L1    16  0.17
      P1  H  6934  6947       L1    16  0.01

> <Gold.Chemscore.Hbond.Weighted>
-6.8943

> <Gold.Chemscore.Metal.Weighted>
-0.0000

> <Gold.Chemscore.Lipo.Weighted>
-14.2964

> <Gold.Chemscore.Internal_Hbond.Weighted>
0.0000

> <Gold.Chemscore.DEClash.Weighted>
0.0270

> <Gold.Chemscore.DEInternal.Weighted>
0.9176

> <Gold.Chemscore.Rot.Weighted>
6.8377

> <Gold.Chemscore.Internal.Correction.Weighted>
   9.000000E+99

> <Gold.Protein.RotatedTorsions>
[ 6907 6896 6895 6894 ] final -131.09 input  -60.11 | X-H torsion
[ 7974 7965 7964 7962 ] final   98.67 input  175.53 | X-H torsion
[ 8008 7997 7996 7995 ] final  -91.33 input   59.86 | X-H torsion
[ 10167 10162 10161 10158 ] final  -90.30 input  -65.29 | X-H torsion
[ 10718 10713 10712 10709 ] final    1.63 input   66.30 | X-H torsion
[ 10763 10752 10751 10750 ] final -107.13 input  -60.55 | X-H torsion
[ 11005 11000 10999 10996 ] final   65.55 input  -57.11 | X-H torsion

> <Gold.Protein.ActiveResidues>
 VAL166  LYS551  ARG553  GLY616  TRP617  ASP618  TYR619  PRO620  LYS621  CYS622 
 ASP623  PHE694  ASN695  SER759  ASP760  ASP761  ALA762  ILE779  LEU786  VAL792 
 PHE793  MET794  SER795  GLU796  ALA797  LYS798  CYS799  TRP800  GLU811  SER814 

> <Gold.Protein.RotatedAtoms>
  150.9471  133.6591  159.2778 H   0  0  0  0  0  0  0  0  0  0  0  0  # atno 6907 bound_to 6896
  151.3960  135.0962  159.9550 H   0  0  0  0  0  0  0  0  0  0  0  0  # atno 6908 bound_to 6896
  152.5094  133.8975  159.7479 H   0  0  0  0  0  0  0  0  0  0  0  0  # atno 6909 bound_to 6896
  145.4091  139.2336  143.3258 H   0  0  0  0  0  0  0  0  0  0  0  0  # atno 7974 bound_to 7965
  154.7095  140.0520  157.0536 H   0  0  0  0  0  0  0  0  0  0  0  0  # atno 8008 bound_to 7997
  155.0574  140.3186  155.4653 H   0  0  0  0  0  0  0  0  0  0  0  0  # atno 8009 bound_to 7997
  156.2785  140.2105  156.5701 H   0  0  0  0  0  0  0  0  0  0  0  0  # atno 8010 bound_to 7997
  140.3563  143.2865  151.9667 H   0  0  0  0  0  0  0  0  0  0  0  0  # atno 10167 bound_to 10162
  156.8510  130.5553  149.5670 H   0  0  0  0  0  0  0  0  0  0  0  0  # atno 10718 bound_to 10713
  154.8056  135.4686  154.0383 H   0  0  0  0  0  0  0  0  0  0  0  0  # atno 10763 bound_to 10752
  153.1855  135.6847  153.8428 H   0  0  0  0  0  0  0  0  0  0  0  0  # atno 10764 bound_to 10752
  153.7964  135.3236  155.3362 H   0  0  0  0  0  0  0  0  0  0  0  0  # atno 10765 bound_to 10752
  139.9887  134.6626  156.0129 H   0  0  0  0  0  0  0  0  0  0  0  0  # atno 11005 bound_to 11000
  146.2714  140.4800  142.8813 LP  0  0  0  0  0  0  0  0  0  0  0  0  # atno 17320 bound_to 7965
  144.8321  140.6724  143.6284 LP  0  0  0  0  0  0  0  0  0  0  0  0  # atno 17321 bound_to 7965
  139.4820  144.6032  151.7568 LP  0  0  0  0  0  0  0  0  0  0  0  0  # atno 17342 bound_to 10162
  140.5171  144.0937  150.6011 LP  0  0  0  0  0  0  0  0  0  0  0  0  # atno 17343 bound_to 10162
  156.0828  130.5834  150.9594 LP  0  0  0  0  0  0  0  0  0  0  0  0  # atno 17370 bound_to 10713
  157.6303  131.0921  150.8454 LP  0  0  0  0  0  0  0  0  0  0  0  0  # atno 17371 bound_to 10713
  141.1547  133.6544  156.4125 LP  0  0  0  0  0  0  0  0  0  0  0  0  # atno 17394 bound_to 11000
  140.4950  134.6539  157.5226 LP  0  0  0  0  0  0  0  0  0  0  0  0  # atno 17395 bound_to 11000

$$$$
