AV-unprocessed.smi:562|AV-procd|sdf|2944|dock3
  -GOLD-   2262023443D 1   1.00000     0.00000
 Structure written by MMmdl.
 41 43  0  0  0  0  0  0  0  0  1 V2000
  154.4240  136.1944  158.3173 C   0  0  0  0  0  0  0  0  0  0  0  0
  153.7762  136.1480  157.0594 O   0  0  0  0  0  0  0  0  0  0  0  0
  152.6201  136.9667  157.0076 C   0  0  0  0  0  0  0  0  0  0  0  0
  153.0384  138.4376  156.8779 C   0  0  0  0  0  0  0  0  0  0  0  0
  151.9028  139.3064  156.5807 N   0  0  0  0  0  0  0  0  0  0  0  0
  151.5315  140.4556  157.2039 C   0  0  0  0  0  0  0  0  0  0  0  0
  152.2642  140.9799  158.2897 N   0  0  0  0  0  0  0  0  0  0  0  0
  153.0318  140.1671  159.0479 N   0  0  0  0  0  0  0  0  0  0  0  0
  153.5593  140.9586  159.9672 C   0  0  0  0  0  0  0  0  0  0  0  0
  154.4922  140.3811  160.9899 C   0  0  0  0  0  0  0  0  0  0  0  0
  153.1267  142.3071  159.8298 C   0  0  0  0  0  0  0  0  0  0  0  0
  152.2892  142.2840  158.7504 C   0  0  0  0  0  0  0  0  0  0  0  0
  151.5079  143.3867  158.1131 C   0  0  0  0  0  0  0  0  0  0  0  0
  150.4528  141.0527  156.6895 N   0  0  0  0  0  0  0  0  0  0  0  0
  150.1017  140.2070  155.6473 C   0  0  0  0  0  0  0  0  0  0  0  0
  150.9619  139.1597  155.5619 C   0  0  0  0  0  0  0  0  0  0  0  0
  150.8420  138.1213  154.5311 C   0  0  0  0  0  0  0  0  0  0  0  0
  151.6176  137.1730  154.4314 O   0  0  0  0  0  0  0  0  0  0  0  0
  149.7923  138.3201  153.6974 N   0  0  0  0  0  0  0  0  0  0  0  0
  148.8887  139.3469  153.7283 C   0  0  0  0  0  0  0  0  0  0  0  0
  147.9838  139.3950  152.8953 O   0  0  0  0  0  0  0  0  0  0  0  0
  149.0370  140.2979  154.7056 N   0  0  0  0  0  0  0  0  0  0  0  0
  148.1012  141.4212  154.7814 C   0  0  0  0  0  0  0  0  0  0  0  0
  149.6638  137.6336  152.9682 H   0  0  0  0  0  0  0  0  0  0  0  0
  155.3023  135.5494  158.2994 H   0  0  0  0  0  0  0  0  0  0  0  0
  153.7646  135.8434  159.1120 H   0  0  0  0  0  0  0  0  0  0  0  0
  154.7534  137.2068  158.5545 H   0  0  0  0  0  0  0  0  0  0  0  0
  151.9954  136.6796  156.1605 H   0  0  0  0  0  0  0  0  0  0  0  0
  152.0259  136.8290  157.9122 H   0  0  0  0  0  0  0  0  0  0  0  0
  153.5179  138.7794  157.7944 H   0  0  0  0  0  0  0  0  0  0  0  0
  153.7942  138.5377  156.1009 H   0  0  0  0  0  0  0  0  0  0  0  0
  154.8483  141.1491  161.6769 H   0  0  0  0  0  0  0  0  0  0  0  0
  155.3644  139.9306  160.5156 H   0  0  0  0  0  0  0  0  0  0  0  0
  153.9973  139.6104  161.5816 H   0  0  0  0  0  0  0  0  0  0  0  0
  153.3876  143.1620  160.4359 H   0  0  0  0  0  0  0  0  0  0  0  0
  151.8816  144.3609  158.4291 H   0  0  0  0  0  0  0  0  0  0  0  0
  150.4558  143.3224  158.3907 H   0  0  0  0  0  0  0  0  0  0  0  0
  151.5731  143.3410  157.0259 H   0  0  0  0  0  0  0  0  0  0  0  0
  147.0756  141.0623  154.8784 H   0  0  0  0  0  0  0  0  0  0  0  0
  148.1648  142.0308  153.8792 H   0  0  0  0  0  0  0  0  0  0  0  0
  148.2966  142.0741  155.6319 H   0  0  0  0  0  0  0  0  0  0  0  0
  1  2  1  0  0  0  0
  1 25  1  0  0  0  0
  1 26  1  0  0  0  0
  1 27  1  0  0  0  0
  2  3  1  0  0  0  0
  3  4  1  0  0  0  0
  3 28  1  0  0  0  0
  3 29  1  0  0  0  0
  4  5  1  0  0  0  0
  4 30  1  0  0  0  0
  4 31  1  0  0  0  0
  5 16  1  0  0  0  0
  5  6  1  0  0  0  0
  6  7  1  0  0  0  0
  6 14  2  0  0  0  0
  7 12  1  0  0  0  0
  7  8  1  0  0  0  0
  8  9  2  0  0  0  0
  9 10  1  0  0  0  0
  9 11  1  0  0  0  0
 10 32  1  0  0  0  0
 10 33  1  0  0  0  0
 10 34  1  0  0  0  0
 11 12  2  0  0  0  0
 11 35  1  0  0  0  0
 12 13  1  0  0  0  0
 13 36  1  0  0  0  0
 13 37  1  0  0  0  0
 13 38  1  0  0  0  0
 14 15  1  0  0  0  0
 15 22  1  0  0  0  0
 15 16  2  0  0  0  0
 16 17  1  0  0  0  0
 17 18  2  0  0  0  0
 17 19  1  0  0  0  0
 19 24  1  0  0  0  0
 19 20  1  0  0  0  0
 20 21  2  0  0  0  0
 20 22  1  0  0  0  0
 22 23  1  0  0  0  0
 23 39  1  0  0  0  0
 23 40  1  0  0  0  0
 23 41  1  0  0  0  0
M  END
> <s_m_source_file>
AV-unprocessed.smi

> <i_m_source_file_index>
562

> <i_lp_mmshare_version>
43012

> <i_f3d_flags>
0

> <s_epik_input>
W0NIM11uMWMoPU8pW25IXWMoPU8pYyhjMTIpbihbQ0gyXVtDSDJdT1tDSDNdKWMobjIpLW4zbmMoW0NIM10pW2NIXWMzW0NIM10=

> <s_epik_cmdline>
J2VwaWtfcHl0aG9uJywgJy1waCcsICc3LjAnLCAnLXRuJywgJzgnLCAnLW1hJywgJzIwMCcsICctbWV0YWxfYmluZGluZycsICctaW1hZScsICc8aW5maWxlLm1hZT4nLCAnLW9tYWUnLCAnPG91dGZpbGUubWFlPic=

> <r_lp_tautomer_probability>
1

> <r_epik_Ionization_Penalty>
0.00156925

> <r_epik_Ionization_Penalty_Charging>
0.000731299

> <r_epik_Ionization_Penalty_Neutral>
0.000837954

> <r_epik_State_Penalty>
-0

> <r_epik_Charging_Adjusted_Penalty>
0.000731299

> <i_epik_Tot_Q>
0

> <i_epik_Tot_abs_Q>
0

> <r_epik_Metal_State_Penalty>
0.260609

> <b_epik_Metal_Only>
0

> <s_lp_Force_Field>
OPLS_2005

> <r_lp_Energy>
24.6037

> <b_lp_Chiralities_Consistent>
1

> <s_lp_Variant>
AV-unprocessed.smi:562-1

> <Gold.Version>
5.8.1

> <Gold.Id.Protein>
6NUR|6NUR_protein|mol2

> <Gold.PLP.Fitness>
43.6450

> <Gold.PLP.PLP>
-35.1070

> <Gold.PLP.part.hbond>
-3.8681

> <Gold.PLP.part.metal>
0.0000

> <Gold.PLP.part.buried>
-3.7840

> <Gold.PLP.part.nonpolar>
-33.4673

> <Gold.PLP.part.repulsive>
4.8217

> <Gold.PLP.ligand.clash>
0.0000

> <Gold.PLP.ligand.torsion>
0.3803

> <Gold.PLP.Chemscore.Hbond>
2.9913

> <Gold.PLP.Chemscore.CHOScore>
0.0000

> <Gold.PLP.Chemscore.Metal>
0.0000

> <Gold.Chemscore.Hbonds>
donor molecule, donor type, donor heavy atom, donor atom, acceptor molecule, acceptor atom, score
      L1  H    19    24       P1  7948  1.00
      P1  H 10752 10763       L1    18  1.00
      P1  H 10752 10764       L1     2  1.00

> <Gold.PLP.Chemscore.Internal.Correction>
0.3249

> <Gold.Rescore>
     Score         DG    S(hbond)    S(metal)    S(lipo)     H(rot)  DE(clash)    DE(int)     intcor
     16.13     -19.36       2.82        0.00      71.75       1.53       0.25       2.97       ----

> <Gold.Chemscore.Fitness>
16.1346

> <Gold.Chemscore.DG>
-19.3574

> <Gold.Chemscore.ZeroCoef>
-5.4800

> <Gold.Chemscore.Hbond>
2.8179

> <Gold.Chemscore.Metal>
0.0000

> <Gold.Chemscore.Lipo>
71.7493

> <Gold.Chemscore.Internal_Hbond>
0.0000

> <Gold.Chemscore.DEClash>
0.2509

> <Gold.Chemscore.DEInternal>
2.9720

> <Gold.Chemscore.Rot>
1.5348

> <Gold.Chemscore.Internal.Correction>
   9.000000E+99

> <Gold.Chemscore.Hbonds>
donor molecule, donor type, donor heavy atom, donor atom, acceptor molecule, acceptor atom, score
      L1  H    19    24       P1  7948  0.65
      P1  H 10752 10763       L1    18  0.91
      P1  H 10752 10764       L1     2  0.74

> <Gold.Chemscore.Hbond.Weighted>
-9.4118

> <Gold.Chemscore.Metal.Weighted>
-0.0000

> <Gold.Chemscore.Lipo.Weighted>
-8.3947

> <Gold.Chemscore.Internal_Hbond.Weighted>
0.0000

> <Gold.Chemscore.DEClash.Weighted>
0.2509

> <Gold.Chemscore.DEInternal.Weighted>
2.9720

> <Gold.Chemscore.Rot.Weighted>
3.9290

> <Gold.Chemscore.Internal.Correction.Weighted>
   9.000000E+99

> <Gold.Protein.RotatedTorsions>
[ 6907 6896 6895 6894 ] final  167.32 input  -60.11 | X-H torsion
[ 7974 7965 7964 7962 ] final   73.66 input  175.53 | X-H torsion
[ 8008 7997 7996 7995 ] final  160.46 input   59.86 | X-H torsion
[ 10167 10162 10161 10158 ] final  -39.29 input  -65.29 | X-H torsion
[ 10718 10713 10712 10709 ] final -108.46 input   66.30 | X-H torsion
[ 10763 10752 10751 10750 ] final   32.91 input  -60.55 | X-H torsion
[ 11005 11000 10999 10996 ] final    0.97 input  -57.11 | X-H torsion

> <Gold.Protein.ActiveResidues>
 VAL166  LYS551  ARG553  GLY616  TRP617  ASP618  TYR619  PRO620  LYS621  CYS622 
 ASP623  PHE694  ASN695  SER759  ASP760  ASP761  ALA762  ILE779  LEU786  VAL792 
 PHE793  MET794  SER795  GLU796  ALA797  LYS798  CYS799  TRP800  GLU811  SER814 

> <Gold.Protein.RotatedAtoms>
  151.8651  133.3464  159.3716 H   0  0  0  0  0  0  0  0  0  0  0  0  # atno 6907 bound_to 6896
  150.7168  134.5168  159.5643 H   0  0  0  0  0  0  0  0  0  0  0  0  # atno 6908 bound_to 6896
  152.2689  134.7955  160.0468 H   0  0  0  0  0  0  0  0  0  0  0  0  # atno 6909 bound_to 6896
  145.7381  139.2710  143.1502 H   0  0  0  0  0  0  0  0  0  0  0  0  # atno 7974 bound_to 7965
  156.2171  140.1804  156.7564 H   0  0  0  0  0  0  0  0  0  0  0  0  # atno 8008 bound_to 7997
  154.5808  140.0666  156.9130 H   0  0  0  0  0  0  0  0  0  0  0  0  # atno 8009 bound_to 7997
  155.2506  140.3328  155.4285 H   0  0  0  0  0  0  0  0  0  0  0  0  # atno 8010 bound_to 7997
  140.7068  143.3223  151.2762 H   0  0  0  0  0  0  0  0  0  0  0  0  # atno 10167 bound_to 10162
  156.0486  130.5714  150.7963 H   0  0  0  0  0  0  0  0  0  0  0  0  # atno 10718 bound_to 10713
  153.0238  135.6401  154.1428 H   0  0  0  0  0  0  0  0  0  0  0  0  # atno 10763 bound_to 10752
  154.1159  135.2850  155.3221 H   0  0  0  0  0  0  0  0  0  0  0  0  # atno 10764 bound_to 10752
  154.6298  135.5496  153.7730 H   0  0  0  0  0  0  0  0  0  0  0  0  # atno 10765 bound_to 10752
  140.6207  133.9664  155.8223 H   0  0  0  0  0  0  0  0  0  0  0  0  # atno 11005 bound_to 11000
  146.0474  140.8104  142.9798 LP  0  0  0  0  0  0  0  0  0  0  0  0  # atno 17320 bound_to 7965
  144.6877  140.3002  143.7264 LP  0  0  0  0  0  0  0  0  0  0  0  0  # atno 17321 bound_to 7965
  139.6681  144.0069  152.2736 LP  0  0  0  0  0  0  0  0  0  0  0  0  # atno 17342 bound_to 10162
  139.9659  144.6527  150.8035 LP  0  0  0  0  0  0  0  0  0  0  0  0  # atno 17343 bound_to 10162
  157.5389  131.0940  150.9854 LP  0  0  0  0  0  0  0  0  0  0  0  0  # atno 17370 bound_to 10713
  157.0141  130.5648  149.5324 LP  0  0  0  0  0  0  0  0  0  0  0  0  # atno 17371 bound_to 10713
  141.0744  134.0156  157.3479 LP  0  0  0  0  0  0  0  0  0  0  0  0  # atno 17394 bound_to 11000
  139.9154  135.0196  156.7862 LP  0  0  0  0  0  0  0  0  0  0  0  0  # atno 17395 bound_to 11000

$$$$
