AV-unprocessed.smi:138|AV-procd|sdf|1180|dock4
  -GOLD-   2262018333D 1   1.00000     0.00000
 Structure written by MMmdl.
 52 55  0  0  0  0  0  0  0  0  1 V2000
  148.6409  140.5797  154.1213 C   0  0  0  0  0  0  0  0  0  0  0  0
  149.3090  139.3488  154.6451 C   0  0  0  0  0  0  0  0  0  0  0  0
  148.8538  138.0644  154.6891 C   0  0  0  0  0  0  0  0  0  0  0  0
  149.8574  137.2475  155.2803 C   0  0  0  0  0  0  0  0  0  0  0  0
  149.8079  135.7898  155.5605 C   0  0  0  0  0  0  0  0  0  0  0  0
  150.8124  135.0792  155.6205 O   0  0  0  0  0  0  0  0  0  0  0  0
  148.4034  135.2001  155.7886 C   0  0  0  0  0  0  0  0  0  0  0  0
  148.0845  134.1120  154.8717 N   0  0  0  0  0  0  0  0  0  0  0  0
  148.8040  132.8986  155.0088 C   0  0  0  0  0  0  0  0  0  0  0  0
  149.6704  132.7433  155.8713 O   0  0  0  0  0  0  0  0  0  0  0  0
  148.4449  131.8701  154.0395 C   0  0  0  0  0  0  0  0  0  0  0  0
  149.0707  130.6811  154.0688 F   0  0  0  0  0  0  0  0  0  0  0  0
  147.4942  132.0927  153.1067 C   0  0  0  0  0  0  0  0  0  0  0  0
  146.7949  133.2817  153.0029 N   0  0  0  0  0  0  0  0  0  0  0  0
  145.7857  133.4399  151.8862 C   0  0  1  0  0  0  0  0  0  0  0  0
  146.3458  133.1149  150.4934 C   0  0  0  0  0  0  0  0  0  0  0  0
  145.1345  132.4995  149.8267 C   0  0  0  0  0  0  0  0  0  0  0  0
  144.4729  131.7643  150.9872 C   0  0  0  0  0  0  0  0  0  0  0  0
  144.6988  132.5928  152.1250 O   0  0  0  0  0  0  0  0  0  0  0  0
  147.1022  134.3495  153.8792 C   0  0  0  0  0  0  0  0  0  0  0  0
  146.5468  135.4443  153.7738 O   0  0  0  0  0  0  0  0  0  0  0  0
  150.9285  138.0611  155.5741 C   0  0  0  0  0  0  0  0  0  0  0  0
  152.2659  137.7421  156.1844 C   0  0  0  0  0  0  0  0  0  0  0  0
  150.5821  139.3623  155.2020 N   0  0  0  0  0  0  0  0  0  0  0  0
  151.4088  140.5562  155.3500 C   0  0  0  0  0  0  0  0  0  0  0  0
  151.6283  140.9283  156.7809 C   0  0  0  0  0  0  0  0  0  0  0  0
  151.1262  141.9179  157.5805 C   0  0  0  0  0  0  0  0  0  0  0  0
  151.7305  141.7490  158.8568 C   0  0  0  0  0  0  0  0  0  0  0  0
  152.5564  140.6675  158.7420 C   0  0  0  0  0  0  0  0  0  0  0  0
  152.5046  140.1547  157.4828 O   0  0  0  0  0  0  0  0  0  0  0  0
  147.6878  140.3331  153.6526 H   0  0  0  0  0  0  0  0  0  0  0  0
  149.2598  141.0740  153.3727 H   0  0  0  0  0  0  0  0  0  0  0  0
  148.4415  141.2891  154.9249 H   0  0  0  0  0  0  0  0  0  0  0  0
  147.8849  137.7454  154.3340 H   0  0  0  0  0  0  0  0  0  0  0  0
  148.2980  134.8269  156.8083 H   0  0  0  0  0  0  0  0  0  0  0  0
  147.6344  135.9669  155.6818 H   0  0  0  0  0  0  0  0  0  0  0  0
  147.2744  131.2950  152.4121 H   0  0  0  0  0  0  0  0  0  0  0  0
  145.4282  134.4687  151.9460 H   0  0  0  0  0  0  0  0  0  0  0  0
  146.7059  134.0164  149.9970 H   0  0  0  0  0  0  0  0  0  0  0  0
  147.1619  132.3955  150.5453 H   0  0  0  0  0  0  0  0  0  0  0  0
  144.4735  133.2836  149.4552 H   0  0  0  0  0  0  0  0  0  0  0  0
  145.3895  131.8429  148.9947 H   0  0  0  0  0  0  0  0  0  0  0  0
  143.4084  131.5965  150.8233 H   0  0  0  0  0  0  0  0  0  0  0  0
  144.9449  130.7943  151.1445 H   0  0  0  0  0  0  0  0  0  0  0  0
  152.6470  136.7888  155.8199 H   0  0  0  0  0  0  0  0  0  0  0  0
  152.1892  137.6825  157.2701 H   0  0  0  0  0  0  0  0  0  0  0  0
  153.0281  138.4793  155.9400 H   0  0  0  0  0  0  0  0  0  0  0  0
  152.3685  140.3824  154.8632 H   0  0  0  0  0  0  0  0  0  0  0  0
  150.9628  141.3864  154.8039 H   0  0  0  0  0  0  0  0  0  0  0  0
  150.4133  142.6724  157.2817 H   0  0  0  0  0  0  0  0  0  0  0  0
  151.5808  142.3437  159.7459 H   0  0  0  0  0  0  0  0  0  0  0  0
  153.2194  140.1539  159.4223 H   0  0  0  0  0  0  0  0  0  0  0  0
  1  2  1  0  0  0  0
  1 31  1  0  0  0  0
  1 32  1  0  0  0  0
  1 33  1  0  0  0  0
  2 24  1  0  0  0  0
  2  3  2  0  0  0  0
  3  4  1  0  0  0  0
  3 34  1  0  0  0  0
  4  5  1  0  0  0  0
  4 22  2  0  0  0  0
  5  6  2  0  0  0  0
  5  7  1  0  0  0  0
  7  8  1  0  0  0  0
  7 35  1  0  0  0  0
  7 36  1  0  0  0  0
  8 20  1  0  0  0  0
  8  9  1  0  0  0  0
  9 10  2  0  0  0  0
  9 11  1  0  0  0  0
 11 12  1  0  0  0  0
 11 13  2  0  0  0  0
 13 14  1  0  0  0  0
 13 37  1  0  0  0  0
 14 15  1  0  0  0  0
 14 20  1  0  0  0  0
 15 19  1  0  0  0  0
 15 16  1  0  0  0  0
 15 38  1  0  0  0  0
 16 17  1  0  0  0  0
 16 39  1  0  0  0  0
 16 40  1  0  0  0  0
 17 18  1  0  0  0  0
 17 41  1  0  0  0  0
 17 42  1  0  0  0  0
 18 19  1  0  0  0  0
 18 43  1  0  0  0  0
 18 44  1  0  0  0  0
 20 21  2  0  0  0  0
 22 23  1  0  0  0  0
 22 24  1  0  0  0  0
 23 45  1  0  0  0  0
 23 46  1  0  0  0  0
 23 47  1  0  0  0  0
 24 25  1  0  0  0  0
 25 26  1  0  0  0  0
 25 48  1  0  0  0  0
 25 49  1  0  0  0  0
 26 30  1  0  0  0  0
 26 27  2  0  0  0  0
 27 28  1  0  0  0  0
 27 50  1  0  0  0  0
 28 29  2  0  0  0  0
 28 51  1  0  0  0  0
 29 30  1  0  0  0  0
 29 52  1  0  0  0  0
M  END
> <s_m_source_file>
AV-unprocessed.smi

> <i_m_source_file_index>
138

> <i_lp_mmshare_version>
43012

> <i_f3d_flags>
0

> <s_epik_input>
bzFbY0hdW2NIXVtjSF1jMVtDSDJdbjJjKFtDSDNdKWMoW2NIXWMyW0NIM10pQyg9TylbQ0gyXW4zYyg9TyljKEYpW2NIXW4oYzM9TylbQ0BASF00W0NIMl1bQ0gyXVtDSDJdTzQ=

> <s_epik_cmdline>
J2VwaWtfcHl0aG9uJywgJy1waCcsICc3LjAnLCAnLXRuJywgJzgnLCAnLW1hJywgJzIwMCcsICctbWV0YWxfYmluZGluZycsICctaW1hZScsICc8aW5maWxlLm1hZT4nLCAnLW9tYWUnLCAnPG91dGZpbGUubWFlPic=

> <r_lp_tautomer_probability>
1

> <r_epik_Ionization_Penalty>
5.03107e-09

> <r_epik_Ionization_Penalty_Charging>
5.01743e-09

> <r_epik_Ionization_Penalty_Neutral>
1.36377e-11

> <r_epik_State_Penalty>
-0

> <r_epik_Charging_Adjusted_Penalty>
5.01743e-09

> <i_epik_Tot_Q>
0

> <i_epik_Tot_abs_Q>
0

> <r_epik_Metal_State_Penalty>
-0

> <b_epik_Metal_Only>
0

> <s_epik_Chemistry_Notes>
This compound contains an acetal/aminal-like group ( X-CH(R)-Y where X, Y are N, S, or O) that may be acid/base labile, releasing an aldehyde.

> <s_lp_Force_Field>
OPLS_2005

> <r_lp_Energy>
34.2081

> <b_lp_Chiralities_Consistent>
1

> <s_lp_Variant>
AV-unprocessed.smi:138-2

> <Gold.Version>
5.8.1

> <Gold.Id.Protein>
6NUR|6NUR_protein|mol2

> <Gold.PLP.Fitness>
51.8097

> <Gold.PLP.PLP>
-44.8108

> <Gold.PLP.part.hbond>
-2.0000

> <Gold.PLP.part.metal>
0.0000

> <Gold.PLP.part.buried>
-1.3655

> <Gold.PLP.part.nonpolar>
-40.3408

> <Gold.PLP.part.repulsive>
0.7646

> <Gold.PLP.ligand.clash>
0.0000

> <Gold.PLP.ligand.torsion>
0.7014

> <Gold.PLP.Chemscore.Hbond>
1.8644

> <Gold.PLP.Chemscore.CHOScore>
0.8691

> <Gold.PLP.Chemscore.Metal>
0.0000

> <Gold.Chemscore.Hbonds>
donor molecule, donor type, donor heavy atom, donor atom, acceptor molecule, acceptor atom, score
      P1  H  7997  8008       L1    30  0.89
      P1  H 10752 10763       L1     6  0.16
      L1  C    13    37       P1 10747  0.33

> <Gold.PLP.Chemscore.Internal.Correction>
0.2012

> <Gold.Rescore>
     Score         DG    S(hbond)    S(metal)    S(lipo)     H(rot)  DE(clash)    DE(int)     intcor
     12.37     -18.14       1.62        0.00     105.56       2.00       1.10       4.66       ----

> <Gold.Chemscore.Fitness>
12.3691

> <Gold.Chemscore.DG>
-18.1368

> <Gold.Chemscore.ZeroCoef>
-5.4800

> <Gold.Chemscore.Hbond>
1.6216

> <Gold.Chemscore.Metal>
0.0000

> <Gold.Chemscore.Lipo>
105.5555

> <Gold.Chemscore.Internal_Hbond>
0.0000

> <Gold.Chemscore.DEClash>
1.1044

> <Gold.Chemscore.DEInternal>
4.6632

> <Gold.Chemscore.Rot>
1.9958

> <Gold.Chemscore.Internal.Correction>
   9.000000E+99

> <Gold.Chemscore.Hbonds>
donor molecule, donor type, donor heavy atom, donor atom, acceptor molecule, acceptor atom, score
      P1  H  7997  8008       L1    30  0.35
      P1  H 10752 10763       L1     6  0.16

> <Gold.Chemscore.Hbond.Weighted>
-5.4160

> <Gold.Chemscore.Metal.Weighted>
-0.0000

> <Gold.Chemscore.Lipo.Weighted>
-12.3500

> <Gold.Chemscore.Internal_Hbond.Weighted>
0.0000

> <Gold.Chemscore.DEClash.Weighted>
1.1044

> <Gold.Chemscore.DEInternal.Weighted>
4.6632

> <Gold.Chemscore.Rot.Weighted>
5.1092

> <Gold.Chemscore.Internal.Correction.Weighted>
   9.000000E+99

> <Gold.Protein.RotatedTorsions>
[ 6907 6896 6895 6894 ] final   46.40 input  -60.11 | X-H torsion
[ 7974 7965 7964 7962 ] final  142.11 input  175.53 | X-H torsion
[ 8008 7997 7996 7995 ] final  -75.76 input   59.86 | X-H torsion
[ 10167 10162 10161 10158 ] final  160.68 input  -65.29 | X-H torsion
[ 10718 10713 10712 10709 ] final   36.89 input   66.30 | X-H torsion
[ 10763 10752 10751 10750 ] final   66.24 input  -60.55 | X-H torsion
[ 11005 11000 10999 10996 ] final   58.66 input  -57.11 | X-H torsion

> <Gold.Protein.ActiveResidues>
 VAL166  LYS551  ARG553  GLY616  TRP617  ASP618  TYR619  PRO620  LYS621  CYS622 
 ASP623  PHE694  ASN695  SER759  ASP760  ASP761  ALA762  ILE779  LEU786  VAL792 
 PHE793  MET794  SER795  GLU796  ALA797  LYS798  CYS799  TRP800  GLU811  SER814 

> <Gold.Protein.RotatedAtoms>
  152.2559  134.8084  160.0438 H   0  0  0  0  0  0  0  0  0  0  0  0  # atno 6907 bound_to 6896
  151.8748  133.3478  159.3755 H   0  0  0  0  0  0  0  0  0  0  0  0  # atno 6908 bound_to 6896
  150.7100  134.5004  159.5603 H   0  0  0  0  0  0  0  0  0  0  0  0  # atno 6909 bound_to 6896
  144.9036  139.5388  143.5742 H   0  0  0  0  0  0  0  0  0  0  0  0  # atno 7974 bound_to 7965
  154.5445  140.0738  156.8566 H   0  0  0  0  0  0  0  0  0  0  0  0  # atno 8008 bound_to 7997
  155.3114  140.3390  155.4225 H   0  0  0  0  0  0  0  0  0  0  0  0  # atno 8009 bound_to 7997
  156.1905  140.1684  156.8087 H   0  0  0  0  0  0  0  0  0  0  0  0  # atno 8010 bound_to 7997
  139.4842  144.4610  151.8704 H   0  0  0  0  0  0  0  0  0  0  0  0  # atno 10167 bound_to 10162
  157.3403  130.7544  149.6907 H   0  0  0  0  0  0  0  0  0  0  0  0  # atno 10718 bound_to 10713
  153.0131  135.5328  154.6793 H   0  0  0  0  0  0  0  0  0  0  0  0  # atno 10763 bound_to 10752
  154.5957  135.2863  155.0591 H   0  0  0  0  0  0  0  0  0  0  0  0  # atno 10764 bound_to 10752
  154.1667  135.6538  153.5052 H   0  0  0  0  0  0  0  0  0  0  0  0  # atno 10765 bound_to 10752
  140.0361  134.5941  155.9442 H   0  0  0  0  0  0  0  0  0  0  0  0  # atno 11005 bound_to 11000
  146.3122  139.7787  142.9011 LP  0  0  0  0  0  0  0  0  0  0  0  0  # atno 17320 bound_to 7965
  145.3573  141.0319  143.3304 LP  0  0  0  0  0  0  0  0  0  0  0  0  # atno 17321 bound_to 7965
  140.4073  144.2416  150.5890 LP  0  0  0  0  0  0  0  0  0  0  0  0  # atno 17342 bound_to 10162
  140.5000  143.2321  151.8692 LP  0  0  0  0  0  0  0  0  0  0  0  0  # atno 17343 bound_to 10162
  155.9707  130.4169  150.4256 LP  0  0  0  0  0  0  0  0  0  0  0  0  # atno 17370 bound_to 10713
  157.2302  131.0502  151.2496 LP  0  0  0  0  0  0  0  0  0  0  0  0  # atno 17371 bound_to 10713
  141.1858  133.6556  156.5213 LP  0  0  0  0  0  0  0  0  0  0  0  0  # atno 17394 bound_to 11000
  140.4145  134.7243  157.4855 LP  0  0  0  0  0  0  0  0  0  0  0  0  # atno 17395 bound_to 11000

$$$$
