AV-unprocessed.smi:1574|AV-procd|sdf|6336|dock4
  -GOLD-   22720 6553D 1   1.00000     0.00000
 Structure written by MMmdl.
 40 41  0  0  0  0  0  0  0  0  1 V2000
  151.4296  144.5942  158.9715 C   0  0  0  0  0  0  0  0  0  0  0  0
  152.4608  143.8713  159.8514 C   0  0  1  0  0  0  0  0  0  0  0  0
  152.0590  143.9049  161.3395 C   0  0  0  0  0  0  0  0  0  0  0  0
  153.1149  143.2252  162.2255 C   0  0  0  0  0  0  0  0  0  0  0  0
  153.3902  141.7866  161.7633 C   0  0  0  0  0  0  0  0  0  0  0  0
  153.7912  141.7444  160.2789 C   0  0  0  0  0  0  0  0  0  0  0  0
  152.7403  142.4235  159.3816 C   0  0  1  0  0  0  0  0  0  0  0  0
  151.5494  141.6502  159.4564 O   0  0  0  0  0  0  0  0  0  0  0  0
  151.6061  140.4025  158.7839 C   0  0  0  0  0  0  0  0  0  0  0  0
  151.3050  140.6208  157.2946 C   0  0  0  0  0  0  0  0  0  0  0  0
  151.2084  139.3536  156.5778 N   0  0  0  0  0  0  0  0  0  0  0  0
  150.9064  139.2197  155.2767 C   0  0  0  0  0  0  0  0  0  0  0  0
  150.6553  140.1681  154.5335 O   0  0  0  0  0  0  0  0  0  0  0  0
  150.8808  137.7948  154.7258 C   0  0  0  0  0  0  0  0  0  0  0  0
  151.2610  136.8415  155.7500 N   0  0  0  0  0  0  0  0  0  0  0  0
  150.5252  136.0088  156.4890 C   0  0  0  0  0  0  0  0  0  0  0  0
  151.2735  135.3100  157.3291 N   0  0  0  0  0  0  0  0  0  0  0  0
  152.5539  135.7673  157.0648 N   0  0  0  0  0  0  0  0  0  0  0  0
  152.5528  136.6764  156.1289 N   0  0  0  0  0  0  0  0  0  0  0  0
  150.4456  144.1309  159.0467 H   0  0  0  0  0  0  0  0  0  0  0  0
  151.7284  144.5803  157.9231 H   0  0  0  0  0  0  0  0  0  0  0  0
  151.3253  145.6374  159.2702 H   0  0  0  0  0  0  0  0  0  0  0  0
  153.3960  144.4249  159.7553 H   0  0  0  0  0  0  0  0  0  0  0  0
  151.9221  144.9366  161.6650 H   0  0  0  0  0  0  0  0  0  0  0  0
  151.0962  143.4110  161.4756 H   0  0  0  0  0  0  0  0  0  0  0  0
  154.0407  143.8010  162.1971 H   0  0  0  0  0  0  0  0  0  0  0  0
  152.7825  143.2239  163.2640 H   0  0  0  0  0  0  0  0  0  0  0  0
  154.1785  141.3447  162.3734 H   0  0  0  0  0  0  0  0  0  0  0  0
  152.5002  141.1758  161.9218 H   0  0  0  0  0  0  0  0  0  0  0  0
  154.7521  142.2442  160.1513 H   0  0  0  0  0  0  0  0  0  0  0  0
  153.9395  140.7115  159.9626 H   0  0  0  0  0  0  0  0  0  0  0  0
  153.1286  142.4415  158.3612 H   0  0  0  0  0  0  0  0  0  0  0  0
  152.5840  139.9340  158.9042 H   0  0  0  0  0  0  0  0  0  0  0  0
  150.8666  139.7291  159.2192 H   0  0  0  0  0  0  0  0  0  0  0  0
  150.3467  141.1300  157.1912 H   0  0  0  0  0  0  0  0  0  0  0  0
  152.0522  141.2733  156.8397 H   0  0  0  0  0  0  0  0  0  0  0  0
  151.3933  138.5153  157.1094 H   0  0  0  0  0  0  0  0  0  0  0  0
  149.8769  137.5511  154.3753 H   0  0  0  0  0  0  0  0  0  0  0  0
  151.5525  137.7011  153.8708 H   0  0  0  0  0  0  0  0  0  0  0  0
  149.4515  135.9191  156.4143 H   0  0  0  0  0  0  0  0  0  0  0  0
  1  2  1  0  0  0  0
  1 20  1  0  0  0  0
  1 21  1  0  0  0  0
  1 22  1  0  0  0  0
  2  7  1  0  0  0  0
  2  3  1  0  0  0  0
  2 23  1  0  0  0  0
  3  4  1  0  0  0  0
  3 24  1  0  0  0  0
  3 25  1  0  0  0  0
  4  5  1  0  0  0  0
  4 26  1  0  0  0  0
  4 27  1  0  0  0  0
  5  6  1  0  0  0  0
  5 28  1  0  0  0  0
  5 29  1  0  0  0  0
  6  7  1  0  0  0  0
  6 30  1  0  0  0  0
  6 31  1  0  0  0  0
  7  8  1  0  0  0  0
  7 32  1  0  0  0  0
  8  9  1  0  0  0  0
  9 10  1  0  0  0  0
  9 33  1  0  0  0  0
  9 34  1  0  0  0  0
 10 11  1  0  0  0  0
 10 35  1  0  0  0  0
 10 36  1  0  0  0  0
 11 12  1  0  0  0  0
 11 37  1  0  0  0  0
 12 13  2  0  0  0  0
 12 14  1  0  0  0  0
 14 15  1  0  0  0  0
 14 38  1  0  0  0  0
 14 39  1  0  0  0  0
 15 19  1  0  0  0  0
 15 16  1  0  0  0  0
 16 17  2  0  0  0  0
 16 40  1  0  0  0  0
 17 18  1  0  0  0  0
 18 19  2  0  0  0  0
M  END
> <s_m_source_file>
AV-unprocessed.smi

> <i_m_source_file_index>
1574

> <i_lp_mmshare_version>
43012

> <i_f3d_flags>
0

> <s_epik_input>
W0NIM11bQ0BASF0xW0NIMl1bQ0gyXVtDSDJdW0NIMl1bQ0BIXTFPW0NIMl1bQ0gyXVtOSF1DKD1PKVtDSDJdbjJbY0hdbm5uMg==

> <s_epik_cmdline>
J2VwaWtfcHl0aG9uJywgJy1waCcsICc3LjAnLCAnLXRuJywgJzgnLCAnLW1hJywgJzIwMCcsICctbWV0YWxfYmluZGluZycsICctaW1hZScsICc8aW5maWxlLm1hZT4nLCAnLW9tYWUnLCAnPG91dGZpbGUubWFlPic=

> <r_lp_tautomer_probability>
1

> <r_epik_Ionization_Penalty>
1.44269e-06

> <r_epik_Ionization_Penalty_Charging>
0

> <r_epik_Ionization_Penalty_Neutral>
1.44269e-06

> <r_epik_State_Penalty>
-0

> <r_epik_Charging_Adjusted_Penalty>
0

> <i_epik_Tot_Q>
0

> <i_epik_Tot_abs_Q>
0

> <r_epik_Metal_State_Penalty>
-0

> <b_epik_Metal_Only>
0

> <s_lp_Force_Field>
OPLS_2005

> <r_lp_Energy>
13.6049

> <b_lp_Chiralities_Consistent>
1

> <s_lp_Variant>
AV-unprocessed.smi:1574-2

> <Gold.Version>
5.8.1

> <Gold.Id.Protein>
6NUR|6NUR_protein|mol2

> <Gold.PLP.Fitness>
49.6937

> <Gold.PLP.PLP>
-43.4172

> <Gold.PLP.part.hbond>
-4.2056

> <Gold.PLP.part.metal>
0.0000

> <Gold.PLP.part.buried>
-7.1280

> <Gold.PLP.part.nonpolar>
-33.4481

> <Gold.PLP.part.repulsive>
0.1572

> <Gold.PLP.ligand.clash>
0.0000

> <Gold.PLP.ligand.torsion>
0.4391

> <Gold.PLP.Chemscore.Hbond>
2.3657

> <Gold.PLP.Chemscore.CHOScore>
0.0000

> <Gold.PLP.Chemscore.Metal>
0.0000

> <Gold.Chemscore.Hbonds>
donor molecule, donor type, donor heavy atom, donor atom, acceptor molecule, acceptor atom, score
      P1  H  6896  6907       L1    17  0.03
      P1  H  7989  7998       L1    13  1.00
      P1  H 10752 10765       L1    19  0.40

> <Gold.PLP.Chemscore.Internal.Correction>
0.0577

> <Gold.Rescore>
     Score         DG    S(hbond)    S(metal)    S(lipo)     H(rot)  DE(clash)    DE(int)     intcor
     15.45     -16.45       2.22        0.00      94.02       2.90       0.04       0.97       ----

> <Gold.Chemscore.Fitness>
15.4515

> <Gold.Chemscore.DG>
-16.4530

> <Gold.Chemscore.ZeroCoef>
-5.4800

> <Gold.Chemscore.Hbond>
2.2185

> <Gold.Chemscore.Metal>
0.0000

> <Gold.Chemscore.Lipo>
94.0167

> <Gold.Chemscore.Internal_Hbond>
0.0000

> <Gold.Chemscore.DEClash>
0.0354

> <Gold.Chemscore.DEInternal>
0.9661

> <Gold.Chemscore.Rot>
2.9050

> <Gold.Chemscore.Internal.Correction>
   9.000000E+99

> <Gold.Chemscore.Hbonds>
donor molecule, donor type, donor heavy atom, donor atom, acceptor molecule, acceptor atom, score
      P1  H  6896  6907       L1    17  0.03
      P1  H  7989  7998       L1    13  0.98
      P1  H 10752 10765       L1    19  0.01

> <Gold.Chemscore.Hbond.Weighted>
-7.4097

> <Gold.Chemscore.Metal.Weighted>
-0.0000

> <Gold.Chemscore.Lipo.Weighted>
-11.0000

> <Gold.Chemscore.Internal_Hbond.Weighted>
0.0000

> <Gold.Chemscore.DEClash.Weighted>
0.0354

> <Gold.Chemscore.DEInternal.Weighted>
0.9661

> <Gold.Chemscore.Rot.Weighted>
7.4367

> <Gold.Chemscore.Internal.Correction.Weighted>
   9.000000E+99

> <Gold.Protein.RotatedTorsions>
[ 6907 6896 6895 6894 ] final  -72.02 input  -60.11 | X-H torsion
[ 7974 7965 7964 7962 ] final  106.65 input  175.53 | X-H torsion
[ 8008 7997 7996 7995 ] final  117.25 input   59.86 | X-H torsion
[ 10167 10162 10161 10158 ] final   16.19 input  -65.29 | X-H torsion
[ 10718 10713 10712 10709 ] final -160.26 input   66.30 | X-H torsion
[ 10763 10752 10751 10750 ] final -148.49 input  -60.55 | X-H torsion
[ 11005 11000 10999 10996 ] final    2.58 input  -57.11 | X-H torsion

> <Gold.Protein.ActiveResidues>
 VAL166  LYS551  ARG553  GLY616  TRP617  ASP618  TYR619  PRO620  LYS621  CYS622 
 ASP623  PHE694  ASN695  SER759  ASP760  ASP761  ALA762  ILE779  LEU786  VAL792 
 PHE793  MET794  SER795  GLU796  ALA797  LYS798  CYS799  TRP800  GLU811  SER814 

> <Gold.Protein.RotatedAtoms>
  150.7187  134.5224  159.5659 H   0  0  0  0  0  0  0  0  0  0  0  0  # atno 6907 bound_to 6896
  152.2776  134.7861  160.0412 H   0  0  0  0  0  0  0  0  0  0  0  0  # atno 6908 bound_to 6896
  151.8519  133.3406  159.3713 H   0  0  0  0  0  0  0  0  0  0  0  0  # atno 6909 bound_to 6896
  145.3038  139.2561  143.3800 H   0  0  0  0  0  0  0  0  0  0  0  0  # atno 7974 bound_to 7965
  156.2484  140.2900  156.0650 H   0  0  0  0  0  0  0  0  0  0  0  0  # atno 8008 bound_to 7997
  155.1734  140.0402  157.2885 H   0  0  0  0  0  0  0  0  0  0  0  0  # atno 8009 bound_to 7997
  154.6310  140.2499  155.7441 H   0  0  0  0  0  0  0  0  0  0  0  0  # atno 8010 bound_to 7997
  140.5815  143.8972  150.6793 H   0  0  0  0  0  0  0  0  0  0  0  0  # atno 10167 bound_to 10162
  156.5796  130.8724  151.2861 H   0  0  0  0  0  0  0  0  0  0  0  0  # atno 10718 bound_to 10713
  154.8230  135.3333  154.6982 H   0  0  0  0  0  0  0  0  0  0  0  0  # atno 10763 bound_to 10752
  153.7612  135.6932  153.4929 H   0  0  0  0  0  0  0  0  0  0  0  0  # atno 10764 bound_to 10752
  153.2109  135.4482  155.0327 H   0  0  0  0  0  0  0  0  0  0  0  0  # atno 10765 bound_to 10752
  140.6027  133.9821  155.8139 H   0  0  0  0  0  0  0  0  0  0  0  0  # atno 11005 bound_to 11000
  146.3142  140.3558  142.8660 LP  0  0  0  0  0  0  0  0  0  0  0  0  # atno 17320 bound_to 7965
  144.9072  140.7713  143.5830 LP  0  0  0  0  0  0  0  0  0  0  0  0  # atno 17321 bound_to 7965
  140.2473  143.3619  152.1436 LP  0  0  0  0  0  0  0  0  0  0  0  0  # atno 17342 bound_to 10162
  139.5172  144.6989  151.5551 LP  0  0  0  0  0  0  0  0  0  0  0  0  # atno 17343 bound_to 10162
  157.7329  130.9723  150.1953 LP  0  0  0  0  0  0  0  0  0  0  0  0  # atno 17370 bound_to 10713
  156.2643  130.3714  149.8098 LP  0  0  0  0  0  0  0  0  0  0  0  0  # atno 17371 bound_to 10713
  141.0861  133.9988  157.3311 LP  0  0  0  0  0  0  0  0  0  0  0  0  # atno 17394 bound_to 11000
  139.9225  135.0201  156.8117 LP  0  0  0  0  0  0  0  0  0  0  0  0  # atno 17395 bound_to 11000

$$$$
