AV-unprocessed.smi:3164|AV-procd|sdf|12081|dock10
  -GOLD-   2272017513D 1   1.00000     0.00000
 Structure written by MMmdl.
 40 41  0  0  0  0  0  0  0  0  3 V2000
  146.7438  138.4845  152.0939 C   0  0  0  0  0  0  0  0  0  0  0  0
  146.2648  139.4999  153.0604 N   0  3  1  0  0  0  0  0  0  0  0  0
  145.9256  138.9431  154.3913 C   0  0  0  0  0  0  0  0  0  0  0  0
  147.1898  138.7001  155.2359 C   0  0  0  0  0  0  0  0  0  0  0  0
  147.9378  139.9065  155.3333 O   0  0  0  0  0  0  0  0  0  0  0  0
  148.3894  140.3728  154.0655 C   0  0  2  0  0  0  0  0  0  0  0  0
  149.2468  141.6267  154.2964 C   0  0  0  0  0  0  0  0  0  0  0  0
  149.2922  141.9952  155.7262 N   0  3  0  0  0  0  0  0  0  0  0  0
  150.6554  142.0418  156.2893 C   0  0  0  0  0  0  0  0  0  0  0  0
  150.6339  141.8322  157.8096 C   0  0  0  0  0  0  0  0  0  0  0  0
  150.7958  143.1355  158.5682 C   0  0  0  0  0  0  0  0  0  0  0  0
  151.8741  144.0034  158.2928 C   0  0  0  0  0  0  0  0  0  0  0  0
  151.9798  145.1966  159.0338 C   0  0  0  0  0  0  0  0  0  0  0  0
  151.0095  145.4729  160.0162 C   0  0  0  0  0  0  0  0  0  0  0  0
  149.9719  144.5406  160.2152 C   0  0  0  0  0  0  0  0  0  0  0  0
  149.8618  143.3932  159.5108 N   0  0  0  0  0  0  0  0  0  0  0  0
  147.1573  140.6780  153.1840 C   0  0  0  0  0  0  0  0  0  0  0  0
  147.6838  138.0319  152.4088 H   0  0  0  0  0  0  0  0  0  0  0  0
  146.8957  138.9336  151.1119 H   0  0  0  0  0  0  0  0  0  0  0  0
  146.0070  137.6886  151.9800 H   0  0  0  0  0  0  0  0  0  0  0  0
  145.2811  139.6566  154.9066 H   0  0  0  0  0  0  0  0  0  0  0  0
  145.3462  138.0251  154.2847 H   0  0  0  0  0  0  0  0  0  0  0  0
  146.9111  138.3783  156.2394 H   0  0  0  0  0  0  0  0  0  0  0  0
  147.8063  137.9064  154.8116 H   0  0  0  0  0  0  0  0  0  0  0  0
  149.0054  139.6071  153.5907 H   0  0  0  0  0  0  0  0  0  0  0  0
  150.2663  141.4419  153.9549 H   0  0  0  0  0  0  0  0  0  0  0  0
  148.8598  142.4633  153.7128 H   0  0  0  0  0  0  0  0  0  0  0  0
  148.8680  142.9056  155.8378 H   0  0  0  0  0  0  0  0  0  0  0  0
  151.2641  141.2709  155.8143 H   0  0  0  0  0  0  0  0  0  0  0  0
  151.1109  143.0045  156.0529 H   0  0  0  0  0  0  0  0  0  0  0  0
  149.6990  141.3563  158.1087 H   0  0  0  0  0  0  0  0  0  0  0  0
  151.4337  141.1516  158.1059 H   0  0  0  0  0  0  0  0  0  0  0  0
  152.6044  143.7646  157.5337 H   0  0  0  0  0  0  0  0  0  0  0  0
  152.7901  145.8871  158.8521 H   0  0  0  0  0  0  0  0  0  0  0  0
  151.0587  146.3781  160.6031 H   0  0  0  0  0  0  0  0  0  0  0  0
  149.2110  144.7207  160.9602 H   0  0  0  0  0  0  0  0  0  0  0  0
  147.4613  141.0234  152.1950 H   0  0  0  0  0  0  0  0  0  0  0  0
  146.5830  141.4910  153.6311 H   0  0  0  0  0  0  0  0  0  0  0  0
  148.7544  141.3211  156.2526 H   0  0  0  0  0  0  0  0  0  0  0  0
  145.3978  139.8419  152.6694 H   0  0  0  0  0  0  0  0  0  0  0  0
  1  2  1  0  0  0  0
  1 18  1  0  0  0  0
  1 19  1  0  0  0  0
  1 20  1  0  0  0  0
  2 17  1  0  0  0  0
  2  3  1  0  0  0  0
  2 40  1  0  0  0  0
  3  4  1  0  0  0  0
  3 21  1  0  0  0  0
  3 22  1  0  0  0  0
  4  5  1  0  0  0  0
  4 23  1  0  0  0  0
  4 24  1  0  0  0  0
  5  6  1  0  0  0  0
  6  7  1  0  0  0  0
  6 17  1  0  0  0  0
  6 25  1  0  0  0  0
  7  8  1  0  0  0  0
  7 26  1  0  0  0  0
  7 27  1  0  0  0  0
  8  9  1  0  0  0  0
  8 28  1  0  0  0  0
  8 39  1  0  0  0  0
  9 10  1  0  0  0  0
  9 29  1  0  0  0  0
  9 30  1  0  0  0  0
 10 11  1  0  0  0  0
 10 31  1  0  0  0  0
 10 32  1  0  0  0  0
 11 16  1  0  0  0  0
 11 12  2  0  0  0  0
 12 13  1  0  0  0  0
 12 33  1  0  0  0  0
 13 14  2  0  0  0  0
 13 34  1  0  0  0  0
 14 15  1  0  0  0  0
 14 35  1  0  0  0  0
 15 16  2  0  0  0  0
 15 36  1  0  0  0  0
 17 37  1  0  0  0  0
 17 38  1  0  0  0  0
M  CHG  1   2   1
M  CHG  1   8   1
M  END
> <s_m_source_file>
AV-unprocessed.smi

> <i_m_source_file_index>
3164

> <i_lp_mmshare_version>
43012

> <i_f3d_flags>
0

> <s_epik_input>
W0NIM11OMVtDSDJdW0NIMl1PW0NASF0oW0NIMl0xKVtDSDJdW05IXVtDSDJdW0NIMl1jMltjSF1bY0hdW2NIXVtjSF1uMg==

> <s_epik_cmdline>
J2VwaWtfcHl0aG9uJywgJy1waCcsICc3LjAnLCAnLXRuJywgJzgnLCAnLW1hJywgJzIwMCcsICctbWV0YWxfYmluZGluZycsICctaW1hZScsICc8aW5maWxlLm1hZT4nLCAnLW9tYWUnLCAnPG91dGZpbGUubWFlPic=

> <r_epik_Ionization_Penalty>
0.294944

> <r_epik_Ionization_Penalty_Charging>
0.29381

> <r_epik_Ionization_Penalty_Neutral>
0.00113372

> <r_epik_State_Penalty>
0.271365

> <r_epik_Charging_Adjusted_Penalty>
0.565175

> <i_epik_Tot_Q>
2

> <i_epik_Tot_abs_Q>
2

> <r_epik_Metal_State_Penalty>
0.271365

> <b_epik_Metal_Only>
0

> <s_lp_Force_Field>
OPLS_2005

> <r_lp_Energy>
22.4387

> <b_lp_Chiralities_Consistent>
1

> <s_lp_Variant>
AV-unprocessed.smi:3164-3

> <Gold.Version>
5.8.1

> <Gold.Id.Protein>
6NUR|6NUR_protein|mol2

> <Gold.PLP.Fitness>
46.2147

> <Gold.PLP.PLP>
-37.4208

> <Gold.PLP.part.hbond>
-2.7675

> <Gold.PLP.part.metal>
0.0000

> <Gold.PLP.part.buried>
-3.1234

> <Gold.PLP.part.nonpolar>
-31.7432

> <Gold.PLP.part.repulsive>
0.2451

> <Gold.PLP.ligand.clash>
0.0000

> <Gold.PLP.ligand.torsion>
1.6040

> <Gold.PLP.Chemscore.Hbond>
4.0000

> <Gold.PLP.Chemscore.CHOScore>
0.0000

> <Gold.PLP.Chemscore.Metal>
0.0000

> <Gold.Chemscore.Hbonds>
donor molecule, donor type, donor heavy atom, donor atom, acceptor molecule, acceptor atom, score
      L1  H     2    40       P1 10175  2.00
      L1  H     8    28       P1  8028  2.00

> <Gold.PLP.Chemscore.Internal.Correction>
0.0019

> <Gold.Rescore>
     Score         DG    S(hbond)    S(metal)    S(lipo)     H(rot)  DE(clash)    DE(int)     intcor
     18.03     -19.75       1.99        0.00     101.11       1.65       0.10       1.61       ----

> <Gold.Chemscore.Fitness>
18.0350

> <Gold.Chemscore.DG>
-19.7465

> <Gold.Chemscore.ZeroCoef>
-5.4800

> <Gold.Chemscore.Hbond>
1.9907

> <Gold.Chemscore.Metal>
0.0000

> <Gold.Chemscore.Lipo>
101.1088

> <Gold.Chemscore.Internal_Hbond>
0.0000

> <Gold.Chemscore.DEClash>
0.1010

> <Gold.Chemscore.DEInternal>
1.6105

> <Gold.Chemscore.Rot>
1.6454

> <Gold.Chemscore.Internal.Correction>
   9.000000E+99

> <Gold.Chemscore.Hbonds>
donor molecule, donor type, donor heavy atom, donor atom, acceptor molecule, acceptor atom, score
      L1  H     2    40       P1 10175  0.99
      L1  H     8    28       P1  8028  0.96

> <Gold.Chemscore.Hbond.Weighted>
-6.6490

> <Gold.Chemscore.Metal.Weighted>
-0.0000

> <Gold.Chemscore.Lipo.Weighted>
-11.8297

> <Gold.Chemscore.Internal_Hbond.Weighted>
0.0000

> <Gold.Chemscore.DEClash.Weighted>
0.1010

> <Gold.Chemscore.DEInternal.Weighted>
1.6105

> <Gold.Chemscore.Rot.Weighted>
4.2122

> <Gold.Chemscore.Internal.Correction.Weighted>
   9.000000E+99

> <Gold.Protein.RotatedTorsions>
[ 6907 6896 6895 6894 ] final  115.25 input  -60.11 | X-H torsion
[ 7974 7965 7964 7962 ] final  -56.95 input  175.53 | X-H torsion
[ 8008 7997 7996 7995 ] final  -28.41 input   59.86 | X-H torsion
[ 10167 10162 10161 10158 ] final  103.28 input  -65.29 | X-H torsion
[ 10718 10713 10712 10709 ] final  -86.70 input   66.30 | X-H torsion
[ 10763 10752 10751 10750 ] final  111.69 input  -60.55 | X-H torsion
[ 11005 11000 10999 10996 ] final -106.36 input  -57.11 | X-H torsion

> <Gold.Protein.ActiveResidues>
 VAL166  LYS551  ARG553  GLY616  TRP617  ASP618  TYR619  PRO620  LYS621  CYS622 
 ASP623  PHE694  ASN695  SER759  ASP760  ASP761  ALA762  ILE779  LEU786  VAL792 
 PHE793  MET794  SER795  GLU796  ALA797  LYS798  CYS799  TRP800  GLU811  SER814 

> <Gold.Protein.RotatedAtoms>
  152.4753  133.8124  159.7009 H   0  0  0  0  0  0  0  0  0  0  0  0  # atno 6907 bound_to 6896
  150.8766  133.7421  159.2951 H   0  0  0  0  0  0  0  0  0  0  0  0  # atno 6908 bound_to 6896
  151.4938  135.1062  159.9863 H   0  0  0  0  0  0  0  0  0  0  0  0  # atno 6909 bound_to 6896
  145.8567  140.8314  142.9958 H   0  0  0  0  0  0  0  0  0  0  0  0  # atno 7974 bound_to 7965
  154.4333  140.1846  156.1086 H   0  0  0  0  0  0  0  0  0  0  0  0  # atno 8008 bound_to 7997
  156.0236  140.3338  155.7039 H   0  0  0  0  0  0  0  0  0  0  0  0  # atno 8009 bound_to 7997
  155.5941  140.0634  157.2741 H   0  0  0  0  0  0  0  0  0  0  0  0  # atno 8010 bound_to 7997
  139.7277  144.7043  151.0772 H   0  0  0  0  0  0  0  0  0  0  0  0  # atno 10167 bound_to 10162
  155.9988  130.4774  150.4754 H   0  0  0  0  0  0  0  0  0  0  0  0  # atno 10718 bound_to 10713
  153.4671  135.3709  155.2370 H   0  0  0  0  0  0  0  0  0  0  0  0  # atno 10763 bound_to 10752
  154.8757  135.3922  154.3856 H   0  0  0  0  0  0  0  0  0  0  0  0  # atno 10764 bound_to 10752
  153.4439  135.7084  153.6216 H   0  0  0  0  0  0  0  0  0  0  0  0  # atno 10765 bound_to 10752
  141.1008  133.8887  157.1847 H   0  0  0  0  0  0  0  0  0  0  0  0  # atno 11005 bound_to 11000
  144.6727  140.1034  143.7459 LP  0  0  0  0  0  0  0  0  0  0  0  0  # atno 17320 bound_to 7965
  145.9295  139.2597  143.1333 LP  0  0  0  0  0  0  0  0  0  0  0  0  # atno 17321 bound_to 7965
  140.7765  143.5084  150.9684 LP  0  0  0  0  0  0  0  0  0  0  0  0  # atno 17342 bound_to 10162
  139.8771  143.7118  152.3161 LP  0  0  0  0  0  0  0  0  0  0  0  0  # atno 17343 bound_to 10162
  157.2765  131.0598  151.2226 LP  0  0  0  0  0  0  0  0  0  0  0  0  # atno 17370 bound_to 10713
  157.3287  130.6974  149.6312 LP  0  0  0  0  0  0  0  0  0  0  0  0  # atno 17371 bound_to 10713
  139.9859  135.0082  156.9861 LP  0  0  0  0  0  0  0  0  0  0  0  0  # atno 17394 bound_to 11000
  140.5026  134.1082  155.7253 LP  0  0  0  0  0  0  0  0  0  0  0  0  # atno 17395 bound_to 11000

$$$$
