AV-unprocessed.smi:580|AV-procd|sdf|2989|dock1
  -GOLD-   2262023493D 1   1.00000     0.00000
 Structure written by MMmdl.
 36 37  0  0  0  0  0  0  0  0  1 V2000
  156.1640  134.8897  157.3121 C   0  0  0  0  0  0  0  0  0  0  0  0
  155.3995  135.5938  158.3802 C   0  0  0  0  0  0  0  0  0  0  0  0
  155.2781  136.9110  158.7236 C   0  0  0  0  0  0  0  0  0  0  0  0
  154.3933  136.8717  159.8339 C   0  0  0  0  0  0  0  0  0  0  0  0
  154.0031  138.0635  160.4968 N   0  0  0  0  0  0  0  0  0  0  0  0
  154.0495  139.3184  160.0180 C   0  0  0  0  0  0  0  0  0  0  0  0
  154.4527  139.6357  158.8985 O   0  0  0  0  0  0  0  0  0  0  0  0
  153.6030  140.2024  160.9226 N   0  0  0  0  0  0  0  0  0  0  0  0
  153.5398  141.6477  160.7258 C   0  0  2  0  0  0  0  0  0  0  0  0
  152.7827  142.3201  161.8882 C   0  0  0  0  0  0  0  0  0  0  0  0
  152.6405  143.8345  161.6659 C   0  0  0  0  0  0  0  0  0  0  0  0
  151.9602  144.1512  160.3203 C   0  0  1  0  0  0  0  0  0  0  0  0
  151.8302  145.6652  160.1003 C   0  0  0  0  0  0  0  0  0  0  0  0
  152.7211  143.4764  159.1627 C   0  0  0  0  0  0  0  0  0  0  0  0
  152.8574  141.9609  159.3820 C   0  0  0  0  0  0  0  0  0  0  0  0
  154.0110  135.6418  160.1417 N   0  0  0  0  0  0  0  0  0  0  0  0
  154.6542  134.8164  159.2119 O   0  0  0  0  0  0  0  0  0  0  0  0
  156.5478  135.5969  156.5768 H   0  0  0  0  0  0  0  0  0  0  0  0
  155.5303  134.1718  156.7909 H   0  0  0  0  0  0  0  0  0  0  0  0
  157.0104  134.3491  157.7362 H   0  0  0  0  0  0  0  0  0  0  0  0
  155.7467  137.7627  158.2534 H   0  0  0  0  0  0  0  0  0  0  0  0
  153.6580  137.9487  161.4384 H   0  0  0  0  0  0  0  0  0  0  0  0
  153.2909  139.8526  161.8167 H   0  0  0  0  0  0  0  0  0  0  0  0
  154.5555  142.0470  160.6886 H   0  0  0  0  0  0  0  0  0  0  0  0
  151.7918  141.8755  161.9907 H   0  0  0  0  0  0  0  0  0  0  0  0
  153.3008  142.1384  162.8306 H   0  0  0  0  0  0  0  0  0  0  0  0
  152.0671  144.2696  162.4851 H   0  0  0  0  0  0  0  0  0  0  0  0
  153.6269  144.2989  161.6996 H   0  0  0  0  0  0  0  0  0  0  0  0
  150.9519  143.7355  160.3470 H   0  0  0  0  0  0  0  0  0  0  0  0
  152.8082  146.1463  160.0661 H   0  0  0  0  0  0  0  0  0  0  0  0
  151.2581  146.1306  160.9034 H   0  0  0  0  0  0  0  0  0  0  0  0
  151.3186  145.8831  159.1622 H   0  0  0  0  0  0  0  0  0  0  0  0
  152.2074  143.6635  158.2190 H   0  0  0  0  0  0  0  0  0  0  0  0
  153.7136  143.9187  159.0661 H   0  0  0  0  0  0  0  0  0  0  0  0
  153.4278  141.5223  158.5623 H   0  0  0  0  0  0  0  0  0  0  0  0
  151.8682  141.5012  159.3511 H   0  0  0  0  0  0  0  0  0  0  0  0
  1  2  1  0  0  0  0
  1 18  1  0  0  0  0
  1 19  1  0  0  0  0
  1 20  1  0  0  0  0
  2 17  1  0  0  0  0
  2  3  2  0  0  0  0
  3  4  1  0  0  0  0
  3 21  1  0  0  0  0
  4  5  1  0  0  0  0
  4 16  2  0  0  0  0
  5  6  1  0  0  0  0
  5 22  1  0  0  0  0
  6  7  2  0  0  0  0
  6  8  1  0  0  0  0
  8  9  1  0  0  0  0
  8 23  1  0  0  0  0
  9 15  1  0  0  0  0
  9 10  1  0  0  0  0
  9 24  1  0  0  0  0
 10 11  1  0  0  0  0
 10 25  1  0  0  0  0
 10 26  1  0  0  0  0
 11 12  1  0  0  0  0
 11 27  1  0  0  0  0
 11 28  1  0  0  0  0
 12 13  1  0  0  0  0
 12 14  1  0  0  0  0
 12 29  1  0  0  0  0
 13 30  1  0  0  0  0
 13 31  1  0  0  0  0
 13 32  1  0  0  0  0
 14 15  1  0  0  0  0
 14 33  1  0  0  0  0
 14 34  1  0  0  0  0
 15 35  1  0  0  0  0
 15 36  1  0  0  0  0
 16 17  1  0  0  0  0
M  END
> <s_m_source_file>
AV-unprocessed.smi

> <i_m_source_file_index>
580

> <i_lp_mmshare_version>
43012

> <i_f3d_flags>
0

> <s_epik_input>
W0NIM11jMVtjSF1jKG5vMSlbTkhdQyg9TylbTkhdW0NAQEhdMltDSDJdW0NIMl1bQ0BASF0oW0NIM10pW0NIMl1bQ0gyXTI=

> <s_epik_cmdline>
J2VwaWtfcHl0aG9uJywgJy1waCcsICc3LjAnLCAnLXRuJywgJzgnLCAnLW1hJywgJzIwMCcsICctbWV0YWxfYmluZGluZycsICctaW1hZScsICc8aW5maWxlLm1hZT4nLCAnLW9tYWUnLCAnPG91dGZpbGUubWFlPic=

> <r_lp_tautomer_probability>
1

> <r_epik_Ionization_Penalty>
2.357e-05

> <r_epik_Ionization_Penalty_Charging>
0

> <r_epik_Ionization_Penalty_Neutral>
2.357e-05

> <r_epik_State_Penalty>
-0

> <r_epik_Charging_Adjusted_Penalty>
0

> <i_epik_Tot_Q>
0

> <i_epik_Tot_abs_Q>
0

> <r_epik_Metal_State_Penalty>
-0

> <b_epik_Metal_Only>
0

> <s_lp_Force_Field>
OPLS_2005

> <r_lp_Energy>
6.68451

> <b_lp_Chiralities_Consistent>
1

> <s_lp_Variant>
AV-unprocessed.smi:580-1

> <Gold.Version>
5.8.1

> <Gold.Id.Protein>
6NUR|6NUR_protein|mol2

> <Gold.PLP.Fitness>
38.8954

> <Gold.PLP.PLP>
-33.2499

> <Gold.PLP.part.hbond>
-2.3932

> <Gold.PLP.part.metal>
0.0000

> <Gold.PLP.part.buried>
-4.5867

> <Gold.PLP.part.nonpolar>
-26.1767

> <Gold.PLP.part.repulsive>
0.0810

> <Gold.PLP.ligand.clash>
0.0000

> <Gold.PLP.ligand.torsion>
0.1787

> <Gold.PLP.Chemscore.Hbond>
2.0000

> <Gold.PLP.Chemscore.CHOScore>
0.0000

> <Gold.PLP.Chemscore.Metal>
0.0000

> <Gold.Chemscore.Hbonds>
donor molecule, donor type, donor heavy atom, donor atom, acceptor molecule, acceptor atom, score
      P1  H  6896  6907       L1    16  0.95
      P1  H  7997  8009       L1     7  1.00

> <Gold.PLP.Chemscore.Internal.Correction>
0.0029

> <Gold.Rescore>
     Score         DG    S(hbond)    S(metal)    S(lipo)     H(rot)  DE(clash)    DE(int)     intcor
     16.73     -19.35       1.90        0.00      86.08       1.00       0.01       2.61       ----

> <Gold.Chemscore.Fitness>
16.7320

> <Gold.Chemscore.DG>
-19.3484

> <Gold.Chemscore.ZeroCoef>
-5.4800

> <Gold.Chemscore.Hbond>
1.9032

> <Gold.Chemscore.Metal>
0.0000

> <Gold.Chemscore.Lipo>
86.0834

> <Gold.Chemscore.Internal_Hbond>
0.0000

> <Gold.Chemscore.DEClash>
0.0073

> <Gold.Chemscore.DEInternal>
2.6090

> <Gold.Chemscore.Rot>
1.0000

> <Gold.Chemscore.Internal.Correction>
   9.000000E+99

> <Gold.Chemscore.Hbonds>
donor molecule, donor type, donor heavy atom, donor atom, acceptor molecule, acceptor atom, score
      P1  H  6896  6907       L1    16  0.21
      P1  H  7997  8009       L1     7  1.00

> <Gold.Chemscore.Hbond.Weighted>
-6.3566

> <Gold.Chemscore.Metal.Weighted>
-0.0000

> <Gold.Chemscore.Lipo.Weighted>
-10.0718

> <Gold.Chemscore.Internal_Hbond.Weighted>
0.0000

> <Gold.Chemscore.DEClash.Weighted>
0.0073

> <Gold.Chemscore.DEInternal.Weighted>
2.6090

> <Gold.Chemscore.Rot.Weighted>
2.5600

> <Gold.Chemscore.Internal.Correction.Weighted>
   9.000000E+99

> <Gold.Protein.RotatedTorsions>
[ 6907 6896 6895 6894 ] final   42.63 input  -60.11 | X-H torsion
[ 7974 7965 7964 7962 ] final  114.31 input  175.53 | X-H torsion
[ 8008 7997 7996 7995 ] final  123.38 input   59.86 | X-H torsion
[ 10167 10162 10161 10158 ] final   90.10 input  -65.29 | X-H torsion
[ 10718 10713 10712 10709 ] final  -87.79 input   66.30 | X-H torsion
[ 10763 10752 10751 10750 ] final   39.64 input  -60.55 | X-H torsion
[ 11005 11000 10999 10996 ] final  111.90 input  -57.11 | X-H torsion

> <Gold.Protein.ActiveResidues>
 VAL166  LYS551  ARG553  GLY616  TRP617  ASP618  TYR619  PRO620  LYS621  CYS622 
 ASP623  PHE694  ASN695  SER759  ASP760  ASP761  ALA762  ILE779  LEU786  VAL792 
 PHE793  MET794  SER795  GLU796  ALA797  LYS798  CYS799  TRP800  GLU811  SER814 

> <Gold.Protein.RotatedAtoms>
  152.2103  134.8508  160.0497 H   0  0  0  0  0  0  0  0  0  0  0  0  # atno 6907 bound_to 6896
  151.9329  133.3611  159.3945 H   0  0  0  0  0  0  0  0  0  0  0  0  # atno 6908 bound_to 6896
  150.6974  134.4444  159.5351 H   0  0  0  0  0  0  0  0  0  0  0  0  # atno 6909 bound_to 6896
  145.2060  139.2929  143.4293 H   0  0  0  0  0  0  0  0  0  0  0  0  # atno 7974 bound_to 7965
  156.2764  140.2764  156.1619 H   0  0  0  0  0  0  0  0  0  0  0  0  # atno 8008 bound_to 7997
  155.0745  140.0387  157.2637 H   0  0  0  0  0  0  0  0  0  0  0  0  # atno 8009 bound_to 7997
  154.7013  140.2650  155.6722 H   0  0  0  0  0  0  0  0  0  0  0  0  # atno 8010 bound_to 7997
  139.8507  144.6595  150.9173 H   0  0  0  0  0  0  0  0  0  0  0  0  # atno 10167 bound_to 10162
  155.9984  130.4812  150.4920 H   0  0  0  0  0  0  0  0  0  0  0  0  # atno 10718 bound_to 10713
  152.9961  135.6214  154.2498 H   0  0  0  0  0  0  0  0  0  0  0  0  # atno 10763 bound_to 10752
  154.2237  135.2795  155.2917 H   0  0  0  0  0  0  0  0  0  0  0  0  # atno 10764 bound_to 10752
  154.5507  135.5734  153.6978 H   0  0  0  0  0  0  0  0  0  0  0  0  # atno 10765 bound_to 10752
  139.8914  134.9518  156.6502 H   0  0  0  0  0  0  0  0  0  0  0  0  # atno 11005 bound_to 11000
  146.3408  140.2320  142.8593 LP  0  0  0  0  0  0  0  0  0  0  0  0  # atno 17320 bound_to 7965
  144.9902  140.8540  143.5344 LP  0  0  0  0  0  0  0  0  0  0  0  0  # atno 17321 bound_to 7965
  140.7788  143.3830  151.1443 LP  0  0  0  0  0  0  0  0  0  0  0  0  # atno 17342 bound_to 10162
  139.7468  143.8839  152.3066 LP  0  0  0  0  0  0  0  0  0  0  0  0  # atno 17343 bound_to 10162
  157.2914  131.0627  151.2131 LP  0  0  0  0  0  0  0  0  0  0  0  0  # atno 17370 bound_to 10713
  157.3142  130.6905  149.6233 LP  0  0  0  0  0  0  0  0  0  0  0  0  # atno 17371 bound_to 10713
  140.7526  133.8884  155.8358 LP  0  0  0  0  0  0  0  0  0  0  0  0  # atno 17394 bound_to 11000
  140.9988  134.1178  157.4337 LP  0  0  0  0  0  0  0  0  0  0  0  0  # atno 17395 bound_to 11000

$$$$
