AV-unprocessed.smi:1762|AV-procd|sdf|7116|dock5
  -GOLD-   22720 8343D 1   1.00000     0.00000
 Structure written by MMmdl.
 53 54  0  0  0  0  0  0  0  0  2 V2000
  151.8298  139.4943  156.8544 C   0  0  0  0  0  0  0  0  0  0  0  0
  151.7441  139.2495  155.3369 C   0  0  1  0  0  0  0  0  0  0  0  0
  151.3089  137.8163  154.9701 C   0  0  0  0  0  0  0  0  0  0  0  0
  149.8580  137.5983  155.2287 N   0  3  2  0  0  0  0  0  0  0  0  0
  149.3588  136.2060  154.9575 C   0  0  2  0  0  0  0  0  0  0  0  0
  147.8215  136.1886  154.8146 C   0  0  0  0  0  0  0  0  0  0  0  0
  147.1065  136.4509  155.7827 O   0  0  0  0  0  0  0  0  0  0  0  0
  147.3299  135.8818  153.6050 N   0  0  0  0  0  0  0  0  0  0  0  0
  145.9099  135.8227  153.2868 C   0  0  0  0  0  0  0  0  0  0  0  0
  145.6934  135.8375  151.7675 C   0  0  0  0  0  0  0  0  0  0  0  0
  145.3140  134.4709  151.2286 C   0  0  0  0  0  0  0  0  0  0  0  0
  144.0026  133.9733  151.3842 C   0  0  0  0  0  0  0  0  0  0  0  0
  143.7006  132.7024  150.8581 C   0  0  0  0  0  0  0  0  0  0  0  0
  144.7159  131.9816  150.2003 C   0  0  0  0  0  0  0  0  0  0  0  0
  145.9937  132.5667  150.0968 C   0  0  0  0  0  0  0  0  0  0  0  0
  146.2938  133.7850  150.5973 N   0  0  0  0  0  0  0  0  0  0  0  0
  149.8265  135.1379  156.0040 C   0  0  0  0  0  0  0  0  0  0  0  0
  149.2382  135.3664  157.4106 C   0  0  0  0  0  0  0  0  0  0  0  0
  151.3584  134.9724  156.0916 C   0  0  0  0  0  0  0  0  0  0  0  0
  149.0810  138.6470  154.5085 C   0  0  0  0  0  0  0  0  0  0  0  0
  149.5250  140.0556  154.9367 C   0  0  2  0  0  0  0  0  0  0  0  0
  148.7843  141.1506  154.1611 C   0  0  0  0  0  0  0  0  0  0  0  0
  150.9163  140.2065  154.6814 O   0  0  0  0  0  0  0  0  0  0  0  0
  152.5780  138.8441  157.3085 H   0  0  0  0  0  0  0  0  0  0  0  0
  150.8845  139.2994  157.3605 H   0  0  0  0  0  0  0  0  0  0  0  0
  152.1178  140.5242  157.0666 H   0  0  0  0  0  0  0  0  0  0  0  0
  152.7482  139.4015  154.9392 H   0  0  0  0  0  0  0  0  0  0  0  0
  151.5140  137.6252  153.9155 H   0  0  0  0  0  0  0  0  0  0  0  0
  151.9328  137.1333  155.5427 H   0  0  0  0  0  0  0  0  0  0  0  0
  149.7836  135.9136  153.9950 H   0  0  0  0  0  0  0  0  0  0  0  0
  147.9777  135.6760  152.8581 H   0  0  0  0  0  0  0  0  0  0  0  0
  145.4835  134.9161  153.7189 H   0  0  0  0  0  0  0  0  0  0  0  0
  145.3972  136.6710  153.7436 H   0  0  0  0  0  0  0  0  0  0  0  0
  144.9077  136.5488  151.5084 H   0  0  0  0  0  0  0  0  0  0  0  0
  146.5978  136.1825  151.2642 H   0  0  0  0  0  0  0  0  0  0  0  0
  143.2438  134.5507  151.8921 H   0  0  0  0  0  0  0  0  0  0  0  0
  142.7081  132.2880  150.9566 H   0  0  0  0  0  0  0  0  0  0  0  0
  144.5200  131.0046  149.7840 H   0  0  0  0  0  0  0  0  0  0  0  0
  146.7954  132.0426  149.5979 H   0  0  0  0  0  0  0  0  0  0  0  0
  149.4116  134.1761  155.7054 H   0  0  0  0  0  0  0  0  0  0  0  0
  149.6488  136.2558  157.8893 H   0  0  0  0  0  0  0  0  0  0  0  0
  149.4556  134.5208  158.0640 H   0  0  0  0  0  0  0  0  0  0  0  0
  148.1542  135.4765  157.3718 H   0  0  0  0  0  0  0  0  0  0  0  0
  151.8368  135.8593  156.5073 H   0  0  0  0  0  0  0  0  0  0  0  0
  151.8078  134.7835  155.1170 H   0  0  0  0  0  0  0  0  0  0  0  0
  151.6210  134.1329  156.7361 H   0  0  0  0  0  0  0  0  0  0  0  0
  149.2141  138.5208  153.4326 H   0  0  0  0  0  0  0  0  0  0  0  0
  148.0126  138.5573  154.7027 H   0  0  0  0  0  0  0  0  0  0  0  0
  149.3224  140.1986  155.9983 H   0  0  0  0  0  0  0  0  0  0  0  0
  147.7082  141.0900  154.3261 H   0  0  0  0  0  0  0  0  0  0  0  0
  148.9639  141.0662  153.0889 H   0  0  0  0  0  0  0  0  0  0  0  0
  149.1126  142.1413  154.4765 H   0  0  0  0  0  0  0  0  0  0  0  0
  149.7160  137.7560  156.2166 H   0  0  0  0  0  0  0  0  0  0  0  0
  1  2  1  0  0  0  0
  1 24  1  0  0  0  0
  1 25  1  0  0  0  0
  1 26  1  0  0  0  0
  2 23  1  0  0  0  0
  2  3  1  0  0  0  0
  2 27  1  0  0  0  0
  3  4  1  0  0  0  0
  3 28  1  0  0  0  0
  3 29  1  0  0  0  0
  4  5  1  0  0  0  0
  4 20  1  0  0  0  0
  4 53  1  0  0  0  0
  5  6  1  0  0  0  0
  5 17  1  0  0  0  0
  5 30  1  0  0  0  0
  6  7  2  0  0  0  0
  6  8  1  0  0  0  0
  8  9  1  0  0  0  0
  8 31  1  0  0  0  0
  9 10  1  0  0  0  0
  9 32  1  0  0  0  0
  9 33  1  0  0  0  0
 10 11  1  0  0  0  0
 10 34  1  0  0  0  0
 10 35  1  0  0  0  0
 11 16  1  0  0  0  0
 11 12  2  0  0  0  0
 12 13  1  0  0  0  0
 12 36  1  0  0  0  0
 13 14  2  0  0  0  0
 13 37  1  0  0  0  0
 14 15  1  0  0  0  0
 14 38  1  0  0  0  0
 15 16  2  0  0  0  0
 15 39  1  0  0  0  0
 17 18  1  0  0  0  0
 17 19  1  0  0  0  0
 17 40  1  0  0  0  0
 18 41  1  0  0  0  0
 18 42  1  0  0  0  0
 18 43  1  0  0  0  0
 19 44  1  0  0  0  0
 19 45  1  0  0  0  0
 19 46  1  0  0  0  0
 20 21  1  0  0  0  0
 20 47  1  0  0  0  0
 20 48  1  0  0  0  0
 21 22  1  0  0  0  0
 21 23  1  0  0  0  0
 21 49  1  0  0  0  0
 22 50  1  0  0  0  0
 22 51  1  0  0  0  0
 22 52  1  0  0  0  0
M  CHG  1   4   1
M  END
> <s_m_source_file>
AV-unprocessed.smi

> <i_m_source_file_index>
1762

> <i_lp_mmshare_version>
43012

> <i_f3d_flags>
0

> <s_epik_input>
W0NIM11bQ0BASF0xW0NIMl1OKFtDSDJdW0NASF0oTzEpW0NIM10pW0NAQEhdKFtDSF0oW0NIM10pW0NIM10pQyg9TylbTkhdW0NIMl1bQ0gyXWMyW2NIXVtjSF1bY0hdW2NIXW4y

> <s_epik_cmdline>
J2VwaWtfcHl0aG9uJywgJy1waCcsICc3LjAnLCAnLXRuJywgJzgnLCAnLW1hJywgJzIwMCcsICctbWV0YWxfYmluZGluZycsICctaW1hZScsICc8aW5maWxlLm1hZT4nLCAnLW9tYWUnLCAnPG91dGZpbGUubWFlPic=

> <r_epik_Ionization_Penalty>
2.27005

> <r_epik_Ionization_Penalty_Charging>
2.24983

> <r_epik_Ionization_Penalty_Neutral>
0.0202209

> <r_epik_State_Penalty>
2.40228

> <r_epik_Charging_Adjusted_Penalty>
4.65211

> <i_epik_Tot_Q>
1

> <i_epik_Tot_abs_Q>
1

> <r_epik_Metal_State_Penalty>
2.40762

> <b_epik_Metal_Only>
0

> <s_lp_Force_Field>
OPLS_2005

> <r_lp_Energy>
24.3613

> <b_lp_Chiralities_Consistent>
1

> <s_lp_Variant>
AV-unprocessed.smi:1762-18

> <Gold.Version>
5.8.1

> <Gold.Id.Protein>
6NUR|6NUR_protein|mol2

> <Gold.PLP.Fitness>
43.4329

> <Gold.PLP.PLP>
-36.4446

> <Gold.PLP.part.hbond>
-2.0000

> <Gold.PLP.part.metal>
0.0000

> <Gold.PLP.part.buried>
-4.7779

> <Gold.PLP.part.nonpolar>
-30.3275

> <Gold.PLP.part.repulsive>
0.3195

> <Gold.PLP.ligand.clash>
0.0000

> <Gold.PLP.ligand.torsion>
1.0409

> <Gold.PLP.Chemscore.Hbond>
1.9120

> <Gold.PLP.Chemscore.CHOScore>
1.0000

> <Gold.PLP.Chemscore.Metal>
0.0000

> <Gold.Chemscore.Hbonds>
donor molecule, donor type, donor heavy atom, donor atom, acceptor molecule, acceptor atom, score
      L1  H     8    31       P1  7948  0.86
      P1  H  7989  7998       L1    23  1.00
      L1  C    15    39       P1 10747  0.94

> <Gold.PLP.Chemscore.Internal.Correction>
0.3342

> <Gold.Rescore>
     Score         DG    S(hbond)    S(metal)    S(lipo)     H(rot)  DE(clash)    DE(int)     intcor
     17.52     -18.79       1.82        0.00      98.25       1.66       0.01       1.26       ----

> <Gold.Chemscore.Fitness>
17.5206

> <Gold.Chemscore.DG>
-18.7935

> <Gold.Chemscore.ZeroCoef>
-5.4800

> <Gold.Chemscore.Hbond>
1.8193

> <Gold.Chemscore.Metal>
0.0000

> <Gold.Chemscore.Lipo>
98.2523

> <Gold.Chemscore.Internal_Hbond>
0.0000

> <Gold.Chemscore.DEClash>
0.0106

> <Gold.Chemscore.DEInternal>
1.2622

> <Gold.Chemscore.Rot>
1.6635

> <Gold.Chemscore.Internal.Correction>
   9.000000E+99

> <Gold.Chemscore.Hbonds>
donor molecule, donor type, donor heavy atom, donor atom, acceptor molecule, acceptor atom, score
      L1  H     8    31       P1  7948  0.80
      P1  H  7989  7998       L1    23  0.77

> <Gold.Chemscore.Hbond.Weighted>
-6.0766

> <Gold.Chemscore.Metal.Weighted>
-0.0000

> <Gold.Chemscore.Lipo.Weighted>
-11.4955

> <Gold.Chemscore.Internal_Hbond.Weighted>
0.0000

> <Gold.Chemscore.DEClash.Weighted>
0.0106

> <Gold.Chemscore.DEInternal.Weighted>
1.2622

> <Gold.Chemscore.Rot.Weighted>
4.2586

> <Gold.Chemscore.Internal.Correction.Weighted>
   9.000000E+99

> <Gold.Protein.RotatedTorsions>
[ 6907 6896 6895 6894 ] final  177.88 input  -60.11 | X-H torsion
[ 7974 7965 7964 7962 ] final  136.26 input  175.53 | X-H torsion
[ 8008 7997 7996 7995 ] final  -95.66 input   59.86 | X-H torsion
[ 10167 10162 10161 10158 ] final   97.91 input  -65.29 | X-H torsion
[ 10718 10713 10712 10709 ] final  -29.38 input   66.30 | X-H torsion
[ 10763 10752 10751 10750 ] final   66.47 input  -60.55 | X-H torsion
[ 11005 11000 10999 10996 ] final  179.45 input  -57.11 | X-H torsion

> <Gold.Protein.ActiveResidues>
 VAL166  LYS551  ARG553  GLY616  TRP617  ASP618  TYR619  PRO620  LYS621  CYS622 
 ASP623  PHE694  ASN695  SER759  ASP760  ASP761  ALA762  ILE779  LEU786  VAL792 
 PHE793  MET794  SER795  GLU796  ALA797  LYS798  CYS799  TRP800  GLU811  SER814 

> <Gold.Protein.RotatedAtoms>
  151.6969  133.3311  159.3256 H   0  0  0  0  0  0  0  0  0  0  0  0  # atno 6907 bound_to 6896
  150.7753  134.6649  159.6369 H   0  0  0  0  0  0  0  0  0  0  0  0  # atno 6908 bound_to 6896
  152.3793  134.6618  160.0200 H   0  0  0  0  0  0  0  0  0  0  0  0  # atno 6909 bound_to 6896
  144.9582  139.4740  143.5492 H   0  0  0  0  0  0  0  0  0  0  0  0  # atno 7974 bound_to 7965
  154.7642  140.0478  157.0999 H   0  0  0  0  0  0  0  0  0  0  0  0  # atno 8008 bound_to 7997
  154.9900  140.3112  155.4891 H   0  0  0  0  0  0  0  0  0  0  0  0  # atno 8009 bound_to 7997
  156.2910  140.2220  156.5004 H   0  0  0  0  0  0  0  0  0  0  0  0  # atno 8010 bound_to 7997
  139.7757  144.6906  151.0092 H   0  0  0  0  0  0  0  0  0  0  0  0  # atno 10167 bound_to 10162
  156.4132  130.4412  149.7237 H   0  0  0  0  0  0  0  0  0  0  0  0  # atno 10718 bound_to 10713
  153.0141  135.5319  154.6829 H   0  0  0  0  0  0  0  0  0  0  0  0  # atno 10763 bound_to 10752
  154.5984  135.2866  155.0564 H   0  0  0  0  0  0  0  0  0  0  0  0  # atno 10764 bound_to 10752
  154.1630  135.6544  153.5043 H   0  0  0  0  0  0  0  0  0  0  0  0  # atno 10765 bound_to 10752
  140.4063  134.6732  157.4589 H   0  0  0  0  0  0  0  0  0  0  0  0  # atno 11005 bound_to 11000
  146.3344  139.8714  142.8839 LP  0  0  0  0  0  0  0  0  0  0  0  0  # atno 17320 bound_to 7965
  145.2740  141.0117  143.3756 LP  0  0  0  0  0  0  0  0  0  0  0  0  # atno 17321 bound_to 7965
  140.7816  143.4538  151.0374 LP  0  0  0  0  0  0  0  0  0  0  0  0  # atno 17342 bound_to 10162
  139.8220  143.7806  152.3177 LP  0  0  0  0  0  0  0  0  0  0  0  0  # atno 17343 bound_to 10162
  156.4207  130.7767  151.2784 LP  0  0  0  0  0  0  0  0  0  0  0  0  # atno 17370 bound_to 10713
  157.7507  131.0184  150.3623 LP  0  0  0  0  0  0  0  0  0  0  0  0  # atno 17371 bound_to 10713
  140.0300  134.6421  155.9120 LP  0  0  0  0  0  0  0  0  0  0  0  0  # atno 17394 bound_to 11000
  141.1838  133.6551  156.5131 LP  0  0  0  0  0  0  0  0  0  0  0  0  # atno 17395 bound_to 11000

$$$$
