AV-unprocessed.smi:93|AV-procd|sdf|850|dock2
  -GOLD-   2262017293D 1   1.00000     0.00000
 Structure written by MMmdl.
 50 52  0  0  0  0  0  0  0  0  1 V2000
  147.4486  131.6192  152.7969 C   0  0  0  0  0  0  0  0  0  0  0  0
  146.9409  132.9034  152.3265 N   0  0  0  0  0  0  0  0  0  0  0  0
  146.3192  132.9943  150.9992 C   0  0  0  0  0  0  0  0  0  0  0  0
  144.8112  132.6014  150.9436 C   0  0  0  0  0  0  0  0  0  0  0  0
  144.5736  131.2168  151.5902 C   0  0  0  0  0  0  0  0  0  0  0  0
  144.0035  133.6789  151.7160 C   0  0  0  0  0  0  0  0  0  0  0  0
  142.6710  133.2809  151.9747 O   0  0  0  0  0  0  0  0  0  0  0  0
  144.3290  132.5757  149.4685 C   0  0  0  0  0  0  0  0  0  0  0  0
  142.9777  132.1787  149.3402 O   0  0  0  0  0  0  0  0  0  0  0  0
  147.0831  134.0040  153.1156 C   0  0  0  0  0  0  0  0  0  0  0  0
  146.0520  134.8862  153.1966 N   0  0  0  0  0  0  0  0  0  0  0  0
  146.1415  135.9732  153.9669 C   0  0  0  0  0  0  0  0  0  0  0  0
  147.1554  136.3665  154.7377 N   0  0  0  0  0  0  0  0  0  0  0  0
  148.1946  135.4867  154.6725 C   0  0  0  0  0  0  0  0  0  0  0  0
  148.2474  134.2972  153.8888 C   0  0  0  0  0  0  0  0  0  0  0  0
  149.4710  133.6661  154.0886 N   0  0  0  0  0  0  0  0  0  0  0  0
  150.1009  134.4350  154.9327 C   0  0  0  0  0  0  0  0  0  0  0  0
  149.4010  135.5432  155.3498 N   0  0  0  0  0  0  0  0  0  0  0  0
  149.8500  136.5532  156.2966 C   0  0  0  0  0  0  0  0  0  0  0  0
  151.0021  137.4361  155.7591 C   0  0  2  0  0  0  0  0  0  0  0  0
  152.1693  136.6437  155.6263 O   0  0  0  0  0  0  0  0  0  0  0  0
  151.3239  138.6130  156.6708 C   0  0  0  0  0  0  0  0  0  0  0  0
  151.8846  139.6436  155.7004 C   0  0  0  0  0  0  0  0  0  0  0  0
  151.0516  139.4958  154.5630 O   0  0  0  0  0  0  0  0  0  0  0  0
  150.7213  138.1188  154.4041 C   0  0  0  0  0  0  0  0  0  0  0  0
  148.4203  131.7393  153.2772 H   0  0  0  0  0  0  0  0  0  0  0  0
  147.5749  130.9193  151.9705 H   0  0  0  0  0  0  0  0  0  0  0  0
  146.7610  131.1690  153.5124 H   0  0  0  0  0  0  0  0  0  0  0  0
  146.4662  133.9912  150.5835 H   0  0  0  0  0  0  0  0  0  0  0  0
  146.8740  132.3376  150.3284 H   0  0  0  0  0  0  0  0  0  0  0  0
  143.5102  130.9908  151.6715 H   0  0  0  0  0  0  0  0  0  0  0  0
  144.9922  131.1653  152.5956 H   0  0  0  0  0  0  0  0  0  0  0  0
  145.0260  130.4161  151.0054 H   0  0  0  0  0  0  0  0  0  0  0  0
  144.4838  133.9051  152.6686 H   0  0  0  0  0  0  0  0  0  0  0  0
  143.9636  134.6140  151.1568 H   0  0  0  0  0  0  0  0  0  0  0  0
  142.6286  132.9248  152.8489 H   0  0  0  0  0  0  0  0  0  0  0  0
  144.4441  133.5587  149.0103 H   0  0  0  0  0  0  0  0  0  0  0  0
  144.9240  131.8786  148.8790 H   0  0  0  0  0  0  0  0  0  0  0  0
  142.4293  132.9400  149.4527 H   0  0  0  0  0  0  0  0  0  0  0  0
  145.2745  136.6169  153.9691 H   0  0  0  0  0  0  0  0  0  0  0  0
  151.0971  134.2062  155.2824 H   0  0  0  0  0  0  0  0  0  0  0  0
  148.9925  137.1743  156.5590 H   0  0  0  0  0  0  0  0  0  0  0  0
  150.1562  136.0522  157.2159 H   0  0  0  0  0  0  0  0  0  0  0  0
  152.6163  136.6254  156.4587 H   0  0  0  0  0  0  0  0  0  0  0  0
  150.4102  139.0069  157.1181 H   0  0  0  0  0  0  0  0  0  0  0  0
  152.0111  138.3666  157.4814 H   0  0  0  0  0  0  0  0  0  0  0  0
  151.8508  140.6595  156.0945 H   0  0  0  0  0  0  0  0  0  0  0  0
  152.9162  139.4103  155.4322 H   0  0  0  0  0  0  0  0  0  0  0  0
  151.3009  137.6805  153.5902 H   0  0  0  0  0  0  0  0  0  0  0  0
  149.6701  138.0618  154.1237 H   0  0  0  0  0  0  0  0  0  0  0  0
  1  2  1  0  0  0  0
  1 26  1  0  0  0  0
  1 27  1  0  0  0  0
  1 28  1  0  0  0  0
  2  3  1  0  0  0  0
  2 10  1  0  0  0  0
  3  4  1  0  0  0  0
  3 29  1  0  0  0  0
  3 30  1  0  0  0  0
  4  5  1  0  0  0  0
  4  6  1  0  0  0  0
  4  8  1  0  0  0  0
  5 31  1  0  0  0  0
  5 32  1  0  0  0  0
  5 33  1  0  0  0  0
  6  7  1  0  0  0  0
  6 34  1  0  0  0  0
  6 35  1  0  0  0  0
  7 36  1  0  0  0  0
  8  9  1  0  0  0  0
  8 37  1  0  0  0  0
  8 38  1  0  0  0  0
  9 39  1  0  0  0  0
 10 15  1  0  0  0  0
 10 11  2  0  0  0  0
 11 12  1  0  0  0  0
 12 13  2  0  0  0  0
 12 40  1  0  0  0  0
 13 14  1  0  0  0  0
 14 18  1  0  0  0  0
 14 15  2  0  0  0  0
 15 16  1  0  0  0  0
 16 17  2  0  0  0  0
 17 18  1  0  0  0  0
 17 41  1  0  0  0  0
 18 19  1  0  0  0  0
 19 20  1  0  0  0  0
 19 42  1  0  0  0  0
 19 43  1  0  0  0  0
 20 25  1  0  0  0  0
 20 21  1  0  0  0  0
 20 22  1  0  0  0  0
 21 44  1  0  0  0  0
 22 23  1  0  0  0  0
 22 45  1  0  0  0  0
 22 46  1  0  0  0  0
 23 24  1  0  0  0  0
 23 47  1  0  0  0  0
 23 48  1  0  0  0  0
 24 25  1  0  0  0  0
 25 49  1  0  0  0  0
 25 50  1  0  0  0  0
M  END
> <s_m_source_file>
AV-unprocessed.smi

> <i_m_source_file_index>
93

> <i_lp_mmshare_version>
43012

> <i_f3d_flags>
0

> <s_epik_input>
W09IXVtDSDJdQyhbQ0gzXSkoW0NIMl1bT0hdKVtDSDJdTihbQ0gzXSljKG5bY0hdbjEpYyhjMTIpbltjSF1uMltDSDJdW0NAQF0zKFtPSF0pW0NIMl1bQ0gyXU9bQ0gyXTM=

> <s_epik_cmdline>
J2VwaWtfcHl0aG9uJywgJy1waCcsICc3LjAnLCAnLXRuJywgJzgnLCAnLW1hJywgJzIwMCcsICctbWV0YWxfYmluZGluZycsICctaW1hZScsICc8aW5maWxlLm1hZT4nLCAnLW9tYWUnLCAnPG91dGZpbGUubWFlPic=

> <r_lp_tautomer_probability>
1

> <r_epik_Ionization_Penalty>
0.00325397

> <r_epik_Ionization_Penalty_Charging>
0

> <r_epik_Ionization_Penalty_Neutral>
0.00325397

> <r_epik_State_Penalty>
0.00225047

> <r_epik_Charging_Adjusted_Penalty>
0.00225047

> <i_epik_Tot_Q>
0

> <i_epik_Tot_abs_Q>
0

> <r_epik_Metal_State_Penalty>
-0

> <b_epik_Metal_Only>
0

> <s_lp_Force_Field>
OPLS_2005

> <r_lp_Energy>
41.2901

> <b_lp_Chiralities_Consistent>
1

> <s_lp_Variant>
AV-unprocessed.smi:93-2

> <Gold.Version>
5.8.1

> <Gold.Id.Protein>
6NUR|6NUR_protein|mol2

> <Gold.PLP.Fitness>
46.0771

> <Gold.PLP.PLP>
-35.4027

> <Gold.PLP.part.hbond>
-5.8032

> <Gold.PLP.part.metal>
0.0000

> <Gold.PLP.part.buried>
-2.1068

> <Gold.PLP.part.nonpolar>
-28.7029

> <Gold.PLP.part.repulsive>
0.4339

> <Gold.PLP.ligand.clash>
0.0000

> <Gold.PLP.ligand.torsion>
1.2811

> <Gold.PLP.Chemscore.Hbond>
4.2425

> <Gold.PLP.Chemscore.CHOScore>
0.0000

> <Gold.PLP.Chemscore.Metal>
0.0000

> <Gold.Chemscore.Hbonds>
donor molecule, donor type, donor heavy atom, donor atom, acceptor molecule, acceptor atom, score
      L1  H     7    36       P1 10957  0.49
      L1  H     9    39       P1 10186  0.96
      P1  H  7989  7998       L1    24  1.00
      P1  H 10752 10764       L1    21  0.95
      P1  H 10785 10796       L1     9  0.75

> <Gold.PLP.Chemscore.Internal.Correction>
0.5091

> <Gold.Rescore>
     Score         DG    S(hbond)    S(metal)    S(lipo)     H(rot)  DE(clash)    DE(int)     intcor
     10.88     -13.77       3.48        0.00      72.20       4.60       0.13       2.75       ----

> <Gold.Chemscore.Fitness>
10.8841

> <Gold.Chemscore.DG>
-13.7663

> <Gold.Chemscore.ZeroCoef>
-5.4800

> <Gold.Chemscore.Hbond>
3.4784

> <Gold.Chemscore.Metal>
0.0000

> <Gold.Chemscore.Lipo>
72.1986

> <Gold.Chemscore.Internal_Hbond>
0.0000

> <Gold.Chemscore.DEClash>
0.1336

> <Gold.Chemscore.DEInternal>
2.7486

> <Gold.Chemscore.Rot>
4.6010

> <Gold.Chemscore.Internal.Correction>
   9.000000E+99

> <Gold.Chemscore.Hbonds>
donor molecule, donor type, donor heavy atom, donor atom, acceptor molecule, acceptor atom, score
      L1  H     7    36       P1 10957  0.15
      L1  H     9    39       P1 10186  0.90
      P1  H  7989  7998       L1    24  0.35
      P1  H 10752 10764       L1    21  0.21
      P1  H 10785 10796       L1     9  0.22

> <Gold.Chemscore.Hbond.Weighted>
-11.6178

> <Gold.Chemscore.Metal.Weighted>
-0.0000

> <Gold.Chemscore.Lipo.Weighted>
-8.4472

> <Gold.Chemscore.Internal_Hbond.Weighted>
0.0000

> <Gold.Chemscore.DEClash.Weighted>
0.1336

> <Gold.Chemscore.DEInternal.Weighted>
2.7486

> <Gold.Chemscore.Rot.Weighted>
11.7787

> <Gold.Chemscore.Internal.Correction.Weighted>
   9.000000E+99

> <Gold.Protein.RotatedTorsions>
[ 6907 6896 6895 6894 ] final  -20.47 input  -60.11 | X-H torsion
[ 7974 7965 7964 7962 ] final  -26.13 input  175.53 | X-H torsion
[ 8008 7997 7996 7995 ] final  161.30 input   59.86 | X-H torsion
[ 10167 10162 10161 10158 ] final -119.93 input  -65.29 | X-H torsion
[ 10718 10713 10712 10709 ] final -121.29 input   66.30 | X-H torsion
[ 10763 10752 10751 10750 ] final  -44.41 input  -60.55 | X-H torsion
[ 11005 11000 10999 10996 ] final  131.66 input  -57.11 | X-H torsion

> <Gold.Protein.ActiveResidues>
 VAL166  LYS551  ARG553  GLY616  TRP617  ASP618  TYR619  PRO620  LYS621  CYS622 
 ASP623  PHE694  ASN695  SER759  ASP760  ASP761  ALA762  ILE779  LEU786  VAL792 
 PHE793  MET794  SER795  GLU796  ALA797  LYS798  CYS799  TRP800  GLU811  SER814 

> <Gold.Protein.RotatedAtoms>
  151.2477  135.0611  159.9049 H   0  0  0  0  0  0  0  0  0  0  0  0  # atno 6907 bound_to 6896
  152.5384  134.0366  159.8059 H   0  0  0  0  0  0  0  0  0  0  0  0  # atno 6908 bound_to 6896
  151.0569  133.5527  159.2669 H   0  0  0  0  0  0  0  0  0  0  0  0  # atno 6909 bound_to 6896
  146.1446  140.4978  142.8637 H   0  0  0  0  0  0  0  0  0  0  0  0  # atno 7974 bound_to 7965
  156.2113  140.1781  156.7689 H   0  0  0  0  0  0  0  0  0  0  0  0  # atno 8008 bound_to 7997
  154.5726  140.0680  156.9016 H   0  0  0  0  0  0  0  0  0  0  0  0  # atno 8009 bound_to 7997
  155.2645  140.3338  155.4272 H   0  0  0  0  0  0  0  0  0  0  0  0  # atno 8010 bound_to 7997
  140.0413  143.5151  152.2129 H   0  0  0  0  0  0  0  0  0  0  0  0  # atno 10167 bound_to 10162
  156.1325  130.6406  150.9644 H   0  0  0  0  0  0  0  0  0  0  0  0  # atno 10718 bound_to 10713
  154.0117  135.6680  153.4766 H   0  0  0  0  0  0  0  0  0  0  0  0  # atno 10763 bound_to 10752
  153.0618  135.5023  154.8107 H   0  0  0  0  0  0  0  0  0  0  0  0  # atno 10764 bound_to 10752
  154.6992  135.3075  154.9331 H   0  0  0  0  0  0  0  0  0  0  0  0  # atno 10765 bound_to 10752
  139.9743  134.9568  156.9470 H   0  0  0  0  0  0  0  0  0  0  0  0  # atno 11005 bound_to 11000
  144.7831  140.5882  143.6592 LP  0  0  0  0  0  0  0  0  0  0  0  0  # atno 17320 bound_to 7965
  145.4967  139.1485  143.3679 LP  0  0  0  0  0  0  0  0  0  0  0  0  # atno 17321 bound_to 7965
  139.6012  144.7583  151.3167 LP  0  0  0  0  0  0  0  0  0  0  0  0  # atno 17342 bound_to 10162
  140.7259  143.7005  150.7848 LP  0  0  0  0  0  0  0  0  0  0  0  0  # atno 17343 bound_to 10162
  157.6502  131.0898  150.8068 LP  0  0  0  0  0  0  0  0  0  0  0  0  # atno 17370 bound_to 10713
  156.8151  130.4965  149.5350 LP  0  0  0  0  0  0  0  0  0  0  0  0  # atno 17371 bound_to 10713
  140.5227  134.0891  155.7296 LP  0  0  0  0  0  0  0  0  0  0  0  0  # atno 17394 bound_to 11000
  141.1421  133.9119  157.2301 LP  0  0  0  0  0  0  0  0  0  0  0  0  # atno 17395 bound_to 11000

$$$$
