AV-unprocessed.smi:1381|AV-procd|sdf|5618|dock7
  -GOLD-   22720 5233D 1   1.00000     0.00000
 Structure written by MMmdl.
 42 43  0  0  0  0  0  0  0  0  3 V2000
  151.6905  140.6696  156.6301 C   0  0  0  0  0  0  0  0  0  0  0  0
  151.1984  139.5511  155.7771 C   0  0  0  0  0  0  0  0  0  0  0  0
  151.0485  138.2109  155.9964 C   0  0  0  0  0  0  0  0  0  0  0  0
  150.5304  137.7390  154.7609 C   0  0  0  0  0  0  0  0  0  0  0  0
  150.2312  136.3626  154.5819 N   0  0  0  0  0  0  0  0  0  0  0  0
  150.7509  135.2960  155.2167 C   0  0  0  0  0  0  0  0  0  0  0  0
  151.6005  135.4486  156.1025 O   0  0  0  0  0  0  0  0  0  0  0  0
  150.2301  134.1239  154.7603 N   0  5  0  0  0  0  0  0  0  0  0  0
  148.8084  133.8835  154.5265 C   0  0  0  0  0  0  0  0  0  0  0  0
  148.6191  133.1956  153.1606 C   0  0  0  0  0  0  0  0  0  0  0  0
  147.4463  133.7328  152.4207 N   0  3  1  0  0  0  0  0  0  0  0  0
  146.9026  132.7769  151.4275 C   0  0  0  0  0  0  0  0  0  0  0  0
  145.7812  133.4363  150.6050 C   0  0  1  0  0  0  0  0  0  0  0  0
  145.1318  132.4517  149.6261 C   0  0  0  0  0  0  0  0  0  0  0  0
  144.7651  133.9168  151.4819 O   0  0  0  0  0  0  0  0  0  0  0  0
  145.2134  134.8468  152.4682 C   0  0  2  0  0  0  0  0  0  0  0  0
  145.5677  136.2166  151.8626 C   0  0  0  0  0  0  0  0  0  0  0  0
  146.3548  134.2304  153.2991 C   0  0  0  0  0  0  0  0  0  0  0  0
  150.3775  138.7061  153.8684 N   0  0  0  0  0  0  0  0  0  0  0  0
  150.8048  139.8719  154.5150 O   0  0  0  0  0  0  0  0  0  0  0  0
  152.0039  140.3050  157.6085 H   0  0  0  0  0  0  0  0  0  0  0  0
  150.9077  141.4130  156.7812 H   0  0  0  0  0  0  0  0  0  0  0  0
  152.5433  141.1641  156.1646 H   0  0  0  0  0  0  0  0  0  0  0  0
  151.2734  137.6583  156.8963 H   0  0  0  0  0  0  0  0  0  0  0  0
  149.5386  136.1563  153.8777 H   0  0  0  0  0  0  0  0  0  0  0  0
  148.3693  133.2543  155.3018 H   0  0  0  0  0  0  0  0  0  0  0  0
  148.2363  134.8121  154.5370 H   0  0  0  0  0  0  0  0  0  0  0  0
  149.5258  133.3599  152.5756 H   0  0  0  0  0  0  0  0  0  0  0  0
  148.5263  132.1141  153.2746 H   0  0  0  0  0  0  0  0  0  0  0  0
  147.6986  132.4495  150.7568 H   0  0  0  0  0  0  0  0  0  0  0  0
  146.5302  131.8899  151.9426 H   0  0  0  0  0  0  0  0  0  0  0  0
  146.1906  134.2654  150.0274 H   0  0  0  0  0  0  0  0  0  0  0  0
  145.8651  132.0547  148.9236 H   0  0  0  0  0  0  0  0  0  0  0  0
  144.3472  132.9389  149.0465 H   0  0  0  0  0  0  0  0  0  0  0  0
  144.6820  131.6092  150.1523 H   0  0  0  0  0  0  0  0  0  0  0  0
  144.3669  135.0081  153.1366 H   0  0  0  0  0  0  0  0  0  0  0  0
  145.7740  136.9433  152.6488 H   0  0  0  0  0  0  0  0  0  0  0  0
  144.7419  136.6036  151.2655 H   0  0  0  0  0  0  0  0  0  0  0  0
  146.4504  136.1726  151.2252 H   0  0  0  0  0  0  0  0  0  0  0  0
  145.9680  133.3988  153.8905 H   0  0  0  0  0  0  0  0  0  0  0  0
  146.7338  134.9669  154.0084 H   0  0  0  0  0  0  0  0  0  0  0  0
  147.7907  134.5226  151.8932 H   0  0  0  0  0  0  0  0  0  0  0  0
  1  2  1  0  0  0  0
  1 21  1  0  0  0  0
  1 22  1  0  0  0  0
  1 23  1  0  0  0  0
  2 20  1  0  0  0  0
  2  3  2  0  0  0  0
  3  4  1  0  0  0  0
  3 24  1  0  0  0  0
  4  5  1  0  0  0  0
  4 19  2  0  0  0  0
  5  6  1  0  0  0  0
  5 25  1  0  0  0  0
  6  7  2  0  0  0  0
  6  8  1  0  0  0  0
  8  9  1  0  0  0  0
  9 10  1  0  0  0  0
  9 26  1  0  0  0  0
  9 27  1  0  0  0  0
 10 11  1  0  0  0  0
 10 28  1  0  0  0  0
 10 29  1  0  0  0  0
 11 18  1  0  0  0  0
 11 12  1  0  0  0  0
 11 42  1  0  0  0  0
 12 13  1  0  0  0  0
 12 30  1  0  0  0  0
 12 31  1  0  0  0  0
 13 14  1  0  0  0  0
 13 15  1  0  0  0  0
 13 32  1  0  0  0  0
 14 33  1  0  0  0  0
 14 34  1  0  0  0  0
 14 35  1  0  0  0  0
 15 16  1  0  0  0  0
 16 17  1  0  0  0  0
 16 18  1  0  0  0  0
 16 36  1  0  0  0  0
 17 37  1  0  0  0  0
 17 38  1  0  0  0  0
 17 39  1  0  0  0  0
 18 40  1  0  0  0  0
 18 41  1  0  0  0  0
 19 20  1  0  0  0  0
M  CHG  1   8  -1
M  CHG  1  11   1
M  END
> <s_m_source_file>
AV-unprocessed.smi

> <i_m_source_file_index>
1381

> <i_lp_mmshare_version>
43012

> <i_f3d_flags>
0

> <s_epik_input>
W0NIM11jMVtjSF1jKG5vMSlbTkhdQyg9TylbTkhdW0NIMl1bQ0gyXU4yW0NIMl1bQ0BASF0oW0NIM10pT1tDQEBIXShbQ0gzXSlbQ0gyXTI=

> <s_epik_cmdline>
J2VwaWtfcHl0aG9uJywgJy1waCcsICc3LjAnLCAnLXRuJywgJzgnLCAnLW1hJywgJzIwMCcsICctbWV0YWxfYmluZGluZycsICctaW1hZScsICc8aW5maWxlLm1hZT4nLCAnLW9tYWUnLCAnPG91dGZpbGUubWFlPic=

> <r_epik_Ionization_Penalty>
6.8073

> <r_epik_Ionization_Penalty_Charging>
6.80729

> <r_epik_Ionization_Penalty_Neutral>
5.65391e-06

> <r_epik_State_Penalty>
7.47323

> <r_epik_Charging_Adjusted_Penalty>
14.2805

> <i_epik_Tot_Q>
0

> <i_epik_Tot_abs_Q>
2

> <r_epik_Metal_State_Penalty>
3.40035

> <b_epik_Metal_Only>
1

> <s_lp_Force_Field>
OPLS_2005

> <r_lp_Energy>
14.8512

> <b_lp_Chiralities_Consistent>
1

> <s_lp_Variant>
AV-unprocessed.smi:1381-17

> <Gold.Version>
5.8.1

> <Gold.Id.Protein>
6NUR|6NUR_protein|mol2

> <Gold.PLP.Fitness>
43.3213

> <Gold.PLP.PLP>
-31.0955

> <Gold.PLP.part.hbond>
-4.2846

> <Gold.PLP.part.metal>
0.0000

> <Gold.PLP.part.buried>
-3.3282

> <Gold.PLP.part.nonpolar>
-23.4170

> <Gold.PLP.part.repulsive>
1.4524

> <Gold.PLP.ligand.clash>
0.0000

> <Gold.PLP.ligand.torsion>
1.2042

> <Gold.PLP.Chemscore.Hbond>
4.8640

> <Gold.PLP.Chemscore.CHOScore>
0.0000

> <Gold.PLP.Chemscore.Metal>
0.0000

> <Gold.Chemscore.Hbonds>
donor molecule, donor type, donor heavy atom, donor atom, acceptor molecule, acceptor atom, score
      L1  H     5    25       P1  7948  0.84
      L1  H    11    42       P1  7948  1.95
      P1  H  7989  7998       L1    20  1.00
      P1  H 10752 10764       L1     7  1.00

> <Gold.PLP.Chemscore.Internal.Correction>
0.0421

> <Gold.Rescore>
     Score         DG    S(hbond)    S(metal)    S(lipo)     H(rot)  DE(clash)    DE(int)     intcor
     15.19     -17.90       2.65        0.00      65.07       1.58       0.20       2.51       ----

> <Gold.Chemscore.Fitness>
15.1850

> <Gold.Chemscore.DG>
-17.9008

> <Gold.Chemscore.ZeroCoef>
-5.4800

> <Gold.Chemscore.Hbond>
2.6497

> <Gold.Chemscore.Metal>
0.0000

> <Gold.Chemscore.Lipo>
65.0731

> <Gold.Chemscore.Internal_Hbond>
0.0000

> <Gold.Chemscore.DEClash>
0.2034

> <Gold.Chemscore.DEInternal>
2.5124

> <Gold.Chemscore.Rot>
1.5792

> <Gold.Chemscore.Internal.Correction>
   9.000000E+99

> <Gold.Chemscore.Hbonds>
donor molecule, donor type, donor heavy atom, donor atom, acceptor molecule, acceptor atom, score
      L1  H     5    25       P1  7948  0.48
      L1  H    11    42       P1  7948  0.23
      P1  H  7989  7998       L1    20  0.78
      P1  H 10752 10764       L1     7  0.47

> <Gold.Chemscore.Hbond.Weighted>
-8.8501

> <Gold.Chemscore.Metal.Weighted>
-0.0000

> <Gold.Chemscore.Lipo.Weighted>
-7.6136

> <Gold.Chemscore.Internal_Hbond.Weighted>
0.0000

> <Gold.Chemscore.DEClash.Weighted>
0.2034

> <Gold.Chemscore.DEInternal.Weighted>
2.5124

> <Gold.Chemscore.Rot.Weighted>
4.0428

> <Gold.Chemscore.Internal.Correction.Weighted>
   9.000000E+99

> <Gold.Protein.RotatedTorsions>
[ 6907 6896 6895 6894 ] final  113.47 input  -60.11 | X-H torsion
[ 7974 7965 7964 7962 ] final -104.28 input  175.53 | X-H torsion
[ 8008 7997 7996 7995 ] final  -11.51 input   59.86 | X-H torsion
[ 10167 10162 10161 10158 ] final -132.24 input  -65.29 | X-H torsion
[ 10718 10713 10712 10709 ] final -149.70 input   66.30 | X-H torsion
[ 10763 10752 10751 10750 ] final  -16.86 input  -60.55 | X-H torsion
[ 11005 11000 10999 10996 ] final   50.95 input  -57.11 | X-H torsion

> <Gold.Protein.ActiveResidues>
 VAL166  LYS551  ARG553  GLY616  TRP617  ASP618  TYR619  PRO620  LYS621  CYS622 
 ASP623  PHE694  ASN695  SER759  ASP760  ASP761  ALA762  ILE779  LEU786  VAL792 
 PHE793  MET794  SER795  GLU796  ALA797  LYS798  CYS799  TRP800  GLU811  SER814 

> <Gold.Protein.RotatedAtoms>
  152.4859  133.8371  159.7133 H   0  0  0  0  0  0  0  0  0  0  0  0  # atno 6907 bound_to 6896
  150.8945  133.7190  159.2902 H   0  0  0  0  0  0  0  0  0  0  0  0  # atno 6908 bound_to 6896
  151.4651  135.1045  159.9788 H   0  0  0  0  0  0  0  0  0  0  0  0  # atno 6909 bound_to 6896
  145.2452  140.9219  143.3127 H   0  0  0  0  0  0  0  0  0  0  0  0  # atno 7974 bound_to 7965
  154.5459  140.2300  155.8564 H   0  0  0  0  0  0  0  0  0  0  0  0  # atno 8008 bound_to 7997
  156.1902  140.3079  155.9279 H   0  0  0  0  0  0  0  0  0  0  0  0  # atno 8009 bound_to 7997
  155.3166  140.0438  157.3028 H   0  0  0  0  0  0  0  0  0  0  0  0  # atno 8010 bound_to 7997
  139.9106  143.6498  152.2576 H   0  0  0  0  0  0  0  0  0  0  0  0  # atno 10167 bound_to 10162
  156.4365  130.8101  151.2330 H   0  0  0  0  0  0  0  0  0  0  0  0  # atno 10718 bound_to 10713
  153.5650  135.7009  153.5530 H   0  0  0  0  0  0  0  0  0  0  0  0  # atno 10763 bound_to 10752
  153.3395  135.4025  155.1560 H   0  0  0  0  0  0  0  0  0  0  0  0  # atno 10764 bound_to 10752
  154.8642  135.3738  154.5170 H   0  0  0  0  0  0  0  0  0  0  0  0  # atno 10765 bound_to 10752
  140.0973  134.5128  155.8795 H   0  0  0  0  0  0  0  0  0  0  0  0  # atno 11005 bound_to 11000
  144.9553  139.4039  143.6382 LP  0  0  0  0  0  0  0  0  0  0  0  0  # atno 17320 bound_to 7965
  146.3318  139.8579  142.8861 LP  0  0  0  0  0  0  0  0  0  0  0  0  # atno 17321 bound_to 7965
  139.6946  144.7643  151.1379 LP  0  0  0  0  0  0  0  0  0  0  0  0  # atno 17342 bound_to 10162
  140.7686  143.5542  150.9171 LP  0  0  0  0  0  0  0  0  0  0  0  0  # atno 17343 bound_to 10162
  157.7507  131.0181  150.3614 LP  0  0  0  0  0  0  0  0  0  0  0  0  # atno 17370 bound_to 10713
  156.3963  130.3907  149.6992 LP  0  0  0  0  0  0  0  0  0  0  0  0  # atno 17371 bound_to 10713
  141.2096  133.6685  156.6449 LP  0  0  0  0  0  0  0  0  0  0  0  0  # atno 17394 bound_to 11000
  140.3268  134.7962  157.4295 LP  0  0  0  0  0  0  0  0  0  0  0  0  # atno 17395 bound_to 11000

$$$$
