AV-unprocessed.smi:1560|AV-procd|sdf|6276|dock4
  -GOLD-   22720 6473D 1   1.00000     0.00000
 Structure written by MMmdl.
 47 48  0  0  0  0  0  0  0  0  1 V2000
  146.1851  141.2916  155.4544 C   0  0  0  0  0  0  0  0  0  0  0  0
  146.2754  139.7551  155.4752 C   0  0  0  0  0  0  0  0  0  0  0  0
  147.3274  139.1277  154.5049 C   0  0  2  0  0  0  0  0  0  0  0  0
  147.0833  139.7787  153.1152 C   0  0  0  0  0  0  0  0  0  0  0  0
  147.0307  137.5993  154.3892 C   0  0  0  0  0  0  0  0  0  0  0  0
  145.7761  137.3275  153.6965 N   0  0  0  0  0  0  0  0  0  0  0  0
  145.0583  136.1955  153.7685 C   0  0  0  0  0  0  0  0  0  0  0  0
  145.4157  135.2174  154.4238 O   0  0  0  0  0  0  0  0  0  0  0  0
  143.7301  136.1391  152.9932 C   0  0  0  0  0  0  0  0  0  0  0  0
  143.6724  135.0935  151.9569 N   0  0  0  0  0  0  0  0  0  0  0  0
  142.8481  133.9897  152.1254 C   0  0  0  0  0  0  0  0  0  0  0  0
  142.7681  132.9754  151.2322 C   0  0  0  0  0  0  0  0  0  0  0  0
  143.5712  132.9982  150.0145 C   0  0  0  0  0  0  0  0  0  0  0  0
  143.5709  132.1267  149.1482 O   0  0  0  0  0  0  0  0  0  0  0  0
  144.3865  134.1252  149.8801 N   0  0  0  0  0  0  0  0  0  0  0  0
  144.4731  135.1746  150.7960 C   0  0  0  0  0  0  0  0  0  0  0  0
  145.2344  136.1177  150.5855 O   0  0  0  0  0  0  0  0  0  0  0  0
  148.7168  139.3962  154.9730 N   0  0  0  0  0  0  0  0  0  0  0  0
  149.1098  140.8102  154.9867 C   0  0  0  0  0  0  0  0  0  0  0  0
  150.4988  141.0157  155.6146 C   0  0  0  0  0  0  0  0  0  0  0  0
  151.4622  140.2377  154.9148 O   0  0  0  0  0  0  0  0  0  0  0  0
  151.1493  138.8499  154.9224 C   0  0  0  0  0  0  0  0  0  0  0  0
  149.7648  138.6269  154.2905 C   0  0  0  0  0  0  0  0  0  0  0  0
  144.9614  134.1840  149.0519 H   0  0  0  0  0  0  0  0  0  0  0  0
  145.4316  141.6380  156.1617 H   0  0  0  0  0  0  0  0  0  0  0  0
  145.9018  141.6675  154.4719 H   0  0  0  0  0  0  0  0  0  0  0  0
  147.1301  141.7578  155.7329 H   0  0  0  0  0  0  0  0  0  0  0  0
  146.4621  139.4279  156.4980 H   0  0  0  0  0  0  0  0  0  0  0  0
  145.2808  139.3703  155.2476 H   0  0  0  0  0  0  0  0  0  0  0  0
  146.0243  139.8108  152.8554 H   0  0  0  0  0  0  0  0  0  0  0  0
  147.5788  139.2287  152.3149 H   0  0  0  0  0  0  0  0  0  0  0  0
  147.4515  140.8045  153.0807 H   0  0  0  0  0  0  0  0  0  0  0  0
  147.8172  137.0854  153.8369 H   0  0  0  0  0  0  0  0  0  0  0  0
  146.9960  137.1442  155.3795 H   0  0  0  0  0  0  0  0  0  0  0  0
  145.4040  138.0787  153.1337 H   0  0  0  0  0  0  0  0  0  0  0  0
  142.9247  135.9916  153.7142 H   0  0  0  0  0  0  0  0  0  0  0  0
  143.5396  137.1199  152.5538 H   0  0  0  0  0  0  0  0  0  0  0  0
  142.2398  133.9274  153.0168 H   0  0  0  0  0  0  0  0  0  0  0  0
  142.1082  132.1409  151.4210 H   0  0  0  0  0  0  0  0  0  0  0  0
  149.1223  141.2102  153.9730 H   0  0  0  0  0  0  0  0  0  0  0  0
  148.3981  141.4070  155.5546 H   0  0  0  0  0  0  0  0  0  0  0  0
  150.7858  142.0662  155.5639 H   0  0  0  0  0  0  0  0  0  0  0  0
  150.4906  140.7359  156.6693 H   0  0  0  0  0  0  0  0  0  0  0  0
  151.9127  138.3112  154.3612 H   0  0  0  0  0  0  0  0  0  0  0  0
  151.1737  138.4682  155.9443 H   0  0  0  0  0  0  0  0  0  0  0  0
  149.5513  137.5601  154.3233 H   0  0  0  0  0  0  0  0  0  0  0  0
  149.8152  138.9070  153.2384 H   0  0  0  0  0  0  0  0  0  0  0  0
  1  2  1  0  0  0  0
  1 25  1  0  0  0  0
  1 26  1  0  0  0  0
  1 27  1  0  0  0  0
  2  3  1  0  0  0  0
  2 28  1  0  0  0  0
  2 29  1  0  0  0  0
  3  4  1  0  0  0  0
  3  5  1  0  0  0  0
  3 18  1  0  0  0  0
  4 30  1  0  0  0  0
  4 31  1  0  0  0  0
  4 32  1  0  0  0  0
  5  6  1  0  0  0  0
  5 33  1  0  0  0  0
  5 34  1  0  0  0  0
  6  7  1  0  0  0  0
  6 35  1  0  0  0  0
  7  8  2  0  0  0  0
  7  9  1  0  0  0  0
  9 10  1  0  0  0  0
  9 36  1  0  0  0  0
  9 37  1  0  0  0  0
 10 16  1  0  0  0  0
 10 11  1  0  0  0  0
 11 12  2  0  0  0  0
 11 38  1  0  0  0  0
 12 13  1  0  0  0  0
 12 39  1  0  0  0  0
 13 14  2  0  0  0  0
 13 15  1  0  0  0  0
 15 24  1  0  0  0  0
 15 16  1  0  0  0  0
 16 17  2  0  0  0  0
 18 23  1  0  0  0  0
 18 19  1  0  0  0  0
 19 20  1  0  0  0  0
 19 40  1  0  0  0  0
 19 41  1  0  0  0  0
 20 21  1  0  0  0  0
 20 42  1  0  0  0  0
 20 43  1  0  0  0  0
 21 22  1  0  0  0  0
 22 23  1  0  0  0  0
 22 44  1  0  0  0  0
 22 45  1  0  0  0  0
 23 46  1  0  0  0  0
 23 47  1  0  0  0  0
M  END
> <s_m_source_file>
AV-unprocessed.smi

> <i_m_source_file_index>
1560

> <i_lp_mmshare_version>
43012

> <i_f3d_flags>
0

> <s_epik_input>
W0NIMl0xW0NIMl1PW0NIMl1bQ0gyXU4xW0NAQF0oW0NIM10pKFtDSDJdW0NIM10pW0NIMl1bTkhdQyg9TylbQ0gyXW4yW2NIXVtjSF1jKD1PKVtuSF1jMj1P

> <s_epik_cmdline>
J2VwaWtfcHl0aG9uJywgJy1waCcsICc3LjAnLCAnLXRuJywgJzgnLCAnLW1hJywgJzIwMCcsICctbWV0YWxfYmluZGluZycsICctaW1hZScsICc8aW5maWxlLm1hZT4nLCAnLW9tYWUnLCAnPG91dGZpbGUubWFlPic=

> <r_lp_tautomer_probability>
0.999537

> <r_epik_Ionization_Penalty>
0.321965

> <r_epik_Ionization_Penalty_Charging>
0.00329831

> <r_epik_Ionization_Penalty_Neutral>
0.318667

> <r_epik_State_Penalty>
0.288097

> <r_epik_Charging_Adjusted_Penalty>
0.291396

> <i_epik_Tot_Q>
0

> <i_epik_Tot_abs_Q>
0

> <r_epik_Metal_State_Penalty>
0.654595

> <b_epik_Metal_Only>
0

> <s_lp_Force_Field>
OPLS_2005

> <r_lp_Energy>
43.0709

> <b_lp_Chiralities_Consistent>
1

> <s_lp_Variant>
AV-unprocessed.smi:1560-2

> <Gold.Version>
5.8.1

> <Gold.Id.Protein>
6NUR|6NUR_protein|mol2

> <Gold.PLP.Fitness>
42.7855

> <Gold.PLP.PLP>
-33.0202

> <Gold.PLP.part.hbond>
-2.7813

> <Gold.PLP.part.metal>
0.0000

> <Gold.PLP.part.buried>
-6.3702

> <Gold.PLP.part.nonpolar>
-26.4806

> <Gold.PLP.part.repulsive>
0.9104

> <Gold.PLP.ligand.clash>
0.0000

> <Gold.PLP.ligand.torsion>
0.5699

> <Gold.PLP.Chemscore.Hbond>
2.6000

> <Gold.PLP.Chemscore.CHOScore>
1.0000

> <Gold.PLP.Chemscore.Metal>
0.0000

> <Gold.Chemscore.Hbonds>
donor molecule, donor type, donor heavy atom, donor atom, acceptor molecule, acceptor atom, score
      L1  H    15    24       P1  7921  1.00
      P1  H  7989  7998       L1    21  1.00
      P1  H 10785 10796       L1    14  0.84
      L1  C    11    38       P1 10957  0.23

> <Gold.PLP.Chemscore.Internal.Correction>
0.1051

> <Gold.Rescore>
     Score         DG    S(hbond)    S(metal)    S(lipo)     H(rot)  DE(clash)    DE(int)     intcor
     13.85     -14.67       2.56        0.00      60.02       2.49       0.09       0.74       ----

> <Gold.Chemscore.Fitness>
13.8481

> <Gold.Chemscore.DG>
-14.6715

> <Gold.Chemscore.ZeroCoef>
-5.4800

> <Gold.Chemscore.Hbond>
2.5552

> <Gold.Chemscore.Metal>
0.0000

> <Gold.Chemscore.Lipo>
60.0165

> <Gold.Chemscore.Internal_Hbond>
0.0000

> <Gold.Chemscore.DEClash>
0.0852

> <Gold.Chemscore.DEInternal>
0.7382

> <Gold.Chemscore.Rot>
2.4862

> <Gold.Chemscore.Internal.Correction>
   9.000000E+99

> <Gold.Chemscore.Hbonds>
donor molecule, donor type, donor heavy atom, donor atom, acceptor molecule, acceptor atom, score
      L1  H    15    24       P1  7921  0.99
      P1  H  7989  7998       L1    21  0.56
      P1  H 10785 10796       L1    14  0.78

> <Gold.Chemscore.Hbond.Weighted>
-8.5343

> <Gold.Chemscore.Metal.Weighted>
-0.0000

> <Gold.Chemscore.Lipo.Weighted>
-7.0219

> <Gold.Chemscore.Internal_Hbond.Weighted>
0.0000

> <Gold.Chemscore.DEClash.Weighted>
0.0852

> <Gold.Chemscore.DEInternal.Weighted>
0.7382

> <Gold.Chemscore.Rot.Weighted>
6.3646

> <Gold.Chemscore.Internal.Correction.Weighted>
   9.000000E+99

> <Gold.Protein.RotatedTorsions>
[ 6907 6896 6895 6894 ] final  -19.94 input  -60.11 | X-H torsion
[ 7974 7965 7964 7962 ] final  -90.41 input  175.53 | X-H torsion
[ 8008 7997 7996 7995 ] final  -30.40 input   59.86 | X-H torsion
[ 10167 10162 10161 10158 ] final   89.51 input  -65.29 | X-H torsion
[ 10718 10713 10712 10709 ] final  113.20 input   66.30 | X-H torsion
[ 10763 10752 10751 10750 ] final   95.63 input  -60.55 | X-H torsion
[ 11005 11000 10999 10996 ] final -161.28 input  -57.11 | X-H torsion

> <Gold.Protein.ActiveResidues>
 VAL166  LYS551  ARG553  GLY616  TRP617  ASP618  TYR619  PRO620  LYS621  CYS622 
 ASP623  PHE694  ASN695  SER759  ASP760  ASP761  ALA762  ILE779  LEU786  VAL792 
 PHE793  MET794  SER795  GLU796  ALA797  LYS798  CYS799  TRP800  GLU811  SER814 

> <Gold.Protein.RotatedAtoms>
  151.2557  135.0637  159.9078 H   0  0  0  0  0  0  0  0  0  0  0  0  # atno 6907 bound_to 6896
  152.5373  134.0285  159.8024 H   0  0  0  0  0  0  0  0  0  0  0  0  # atno 6908 bound_to 6896
  151.0500  133.5583  159.2674 H   0  0  0  0  0  0  0  0  0  0  0  0  # atno 6909 bound_to 6896
  145.4268  140.9554  143.2150 H   0  0  0  0  0  0  0  0  0  0  0  0  # atno 7974 bound_to 7965
  154.4252  140.1792  156.1400 H   0  0  0  0  0  0  0  0  0  0  0  0  # atno 8008 bound_to 7997
  155.9999  140.3361  155.6810 H   0  0  0  0  0  0  0  0  0  0  0  0  # atno 8009 bound_to 7997
  155.6257  140.0664  157.2655 H   0  0  0  0  0  0  0  0  0  0  0  0  # atno 8010 bound_to 7997
  139.8565  144.6566  150.9108 H   0  0  0  0  0  0  0  0  0  0  0  0  # atno 10167 bound_to 10162
  157.6351  131.0980  150.7006 H   0  0  0  0  0  0  0  0  0  0  0  0  # atno 10718 bound_to 10713
  153.2555  135.4247  155.0841 H   0  0  0  0  0  0  0  0  0  0  0  0  # atno 10763 bound_to 10752
  154.8399  135.3436  154.6452 H   0  0  0  0  0  0  0  0  0  0  0  0  # atno 10764 bound_to 10752
  153.6873  135.7035  153.5157 H   0  0  0  0  0  0  0  0  0  0  0  0  # atno 10765 bound_to 10752
  140.6222  134.4739  157.5224 H   0  0  0  0  0  0  0  0  0  0  0  0  # atno 11005 bound_to 11000
  144.8209  139.5794  143.6987 LP  0  0  0  0  0  0  0  0  0  0  0  0  # atno 17320 bound_to 7965
  146.2628  139.6449  142.9350 LP  0  0  0  0  0  0  0  0  0  0  0  0  # atno 17321 bound_to 7965
  140.7781  143.3781  151.1526 LP  0  0  0  0  0  0  0  0  0  0  0  0  # atno 17342 bound_to 10162
  139.7415  143.8918  152.3051 LP  0  0  0  0  0  0  0  0  0  0  0  0  # atno 17343 bound_to 10162
  156.7338  130.4718  149.5493 LP  0  0  0  0  0  0  0  0  0  0  0  0  # atno 17370 bound_to 10713
  156.1584  130.6357  151.0687 LP  0  0  0  0  0  0  0  0  0  0  0  0  # atno 17371 bound_to 10713
  139.9149  134.8267  156.1401 LP  0  0  0  0  0  0  0  0  0  0  0  0  # atno 17394 bound_to 11000
  141.0735  133.6786  156.2188 LP  0  0  0  0  0  0  0  0  0  0  0  0  # atno 17395 bound_to 11000

$$$$
