AV-unprocessed.smi:3202|AV-procd|sdf|12245|dock8
  -GOLD-   2272018 83D 1   1.00000     0.00000
 Structure written by MMmdl.
 43 44  0  0  0  0  0  0  0  0  2 V2000
  143.8499  134.3748  151.7452 C   0  0  0  0  0  0  0  0  0  0  0  0
  144.4000  135.7636  151.8854 C   0  0  0  0  0  0  0  0  0  0  0  0
  145.6753  136.2522  151.4760 C   0  0  0  0  0  0  0  0  0  0  0  0
  145.6639  137.5705  151.8369 C   0  0  0  0  0  0  0  0  0  0  0  0
  146.6942  138.6438  151.6898 C   0  0  0  0  0  0  0  0  0  0  0  0
  147.2062  139.2124  153.0269 C   0  0  2  0  0  0  0  0  0  0  0  0
  147.0925  140.7440  153.0984 C   0  0  0  0  0  0  0  0  0  0  0  0
  148.6156  138.8097  153.2298 N   0  3  0  0  0  0  0  0  0  0  0  0
  149.1802  139.1068  154.5661 C   0  0  2  0  0  0  0  0  0  0  0  0
  149.6159  140.5692  154.7305 C   0  0  0  0  0  0  0  0  0  0  0  0
  150.6988  140.5518  155.8168 C   0  0  0  0  0  0  0  0  0  0  0  0
  151.0277  139.0740  156.0780 C   0  0  0  0  0  0  0  0  0  0  0  0
  150.4376  138.2761  154.9004 C   0  0  0  0  0  0  0  0  0  0  0  0
  150.0766  136.8401  155.3251 C   0  0  0  0  0  0  0  0  0  0  0  0
  151.4547  138.2305  153.7361 C   0  0  0  0  0  0  0  0  0  0  0  0
  144.4358  137.7991  152.4146 N   0  0  0  0  0  0  0  0  0  0  0  0
  143.6575  136.7022  152.4528 N   0  0  0  0  0  0  0  0  0  0  0  0
  144.1190  138.6844  152.7839 H   0  0  0  0  0  0  0  0  0  0  0  0
  144.5337  133.7347  151.1874 H   0  0  0  0  0  0  0  0  0  0  0  0
  142.8964  134.3803  151.2163 H   0  0  0  0  0  0  0  0  0  0  0  0
  143.6879  133.9167  152.7212 H   0  0  0  0  0  0  0  0  0  0  0  0
  146.4764  135.7136  150.9915 H   0  0  0  0  0  0  0  0  0  0  0  0
  146.2904  139.4548  151.0816 H   0  0  0  0  0  0  0  0  0  0  0  0
  147.5360  138.2404  151.1255 H   0  0  0  0  0  0  0  0  0  0  0  0
  146.5924  138.7954  153.8270 H   0  0  0  0  0  0  0  0  0  0  0  0
  146.0566  141.0729  153.0117 H   0  0  0  0  0  0  0  0  0  0  0  0
  147.6608  141.2222  152.2999 H   0  0  0  0  0  0  0  0  0  0  0  0
  147.4717  141.1216  154.0484 H   0  0  0  0  0  0  0  0  0  0  0  0
  148.6725  137.8115  153.0867 H   0  0  0  0  0  0  0  0  0  0  0  0
  148.4177  138.8897  155.3169 H   0  0  0  0  0  0  0  0  0  0  0  0
  150.0422  140.9479  153.8003 H   0  0  0  0  0  0  0  0  0  0  0  0
  148.7817  141.2201  154.9937 H   0  0  0  0  0  0  0  0  0  0  0  0
  151.5826  141.0923  155.4758 H   0  0  0  0  0  0  0  0  0  0  0  0
  150.3542  141.0361  156.7311 H   0  0  0  0  0  0  0  0  0  0  0  0
  152.0978  138.9072  156.2086 H   0  0  0  0  0  0  0  0  0  0  0  0
  150.5478  138.7720  157.0103 H   0  0  0  0  0  0  0  0  0  0  0  0
  150.9636  136.2868  155.6358 H   0  0  0  0  0  0  0  0  0  0  0  0
  149.6148  136.2889  154.5054 H   0  0  0  0  0  0  0  0  0  0  0  0
  149.3763  136.8309  156.1610 H   0  0  0  0  0  0  0  0  0  0  0  0
  152.3733  137.7270  154.0394 H   0  0  0  0  0  0  0  0  0  0  0  0
  151.7321  139.2274  153.3931 H   0  0  0  0  0  0  0  0  0  0  0  0
  151.0618  137.6844  152.8781 H   0  0  0  0  0  0  0  0  0  0  0  0
  149.1886  139.2625  152.5321 H   0  0  0  0  0  0  0  0  0  0  0  0
  1 19  1  0  0  0  0
  1 20  1  0  0  0  0
  1 21  1  0  0  0  0
  1  2  1  0  0  0  0
  2 17  2  0  0  0  0
  2  3  1  0  0  0  0
  3  4  2  0  0  0  0
  3 22  1  0  0  0  0
  4 16  1  0  0  0  0
  4  5  1  0  0  0  0
  5  6  1  0  0  0  0
  5 23  1  0  0  0  0
  5 24  1  0  0  0  0
  6  7  1  0  0  0  0
  6  8  1  0  0  0  0
  6 25  1  0  0  0  0
  7 26  1  0  0  0  0
  7 27  1  0  0  0  0
  7 28  1  0  0  0  0
  8  9  1  0  0  0  0
  8 29  1  0  0  0  0
  8 43  1  0  0  0  0
  9 13  1  0  0  0  0
  9 10  1  0  0  0  0
  9 30  1  0  0  0  0
 10 11  1  0  0  0  0
 10 31  1  0  0  0  0
 10 32  1  0  0  0  0
 11 12  1  0  0  0  0
 11 33  1  0  0  0  0
 11 34  1  0  0  0  0
 12 13  1  0  0  0  0
 12 35  1  0  0  0  0
 12 36  1  0  0  0  0
 13 14  1  0  0  0  0
 13 15  1  0  0  0  0
 14 37  1  0  0  0  0
 14 38  1  0  0  0  0
 14 39  1  0  0  0  0
 15 40  1  0  0  0  0
 15 41  1  0  0  0  0
 15 42  1  0  0  0  0
 16 17  1  0  0  0  0
 16 18  1  0  0  0  0
M  CHG  1   8   1
M  END
> <s_m_source_file>
AV-unprocessed.smi

> <i_m_source_file_index>
3202

> <i_lp_mmshare_version>
43012

> <i_f3d_flags>
0

> <s_epik_input>
W0NIM11jMVtjSF1jKG5bbkhdMSlbQ0gyXVtDQEhdKFtDSDNdKVtOSF1bQ0BASF0oQzIoW0NIM10pW0NIM10pW0NIMl1bQ0gyXVtDSDJdMg==

> <s_epik_cmdline>
J2VwaWtfcHl0aG9uJywgJy1waCcsICc3LjAnLCAnLXRuJywgJzgnLCAnLW1hJywgJzIwMCcsICctbWV0YWxfYmluZGluZycsICctaW1hZScsICc8aW5maWxlLm1hZT4nLCAnLW9tYWUnLCAnPG91dGZpbGUubWFlPic=

> <r_lp_tautomer_probability>
0.5

> <r_epik_Ionization_Penalty>
0.000449684

> <r_epik_Ionization_Penalty_Charging>
0.000404963

> <r_epik_Ionization_Penalty_Neutral>
4.47208e-05

> <r_epik_State_Penalty>
0.41068

> <r_epik_Charging_Adjusted_Penalty>
0.411085

> <i_epik_Tot_Q>
1

> <i_epik_Tot_abs_Q>
1

> <r_epik_Metal_State_Penalty>
0.410687

> <b_epik_Metal_Only>
0

> <s_lp_Force_Field>
OPLS_2005

> <r_lp_Energy>
32.3092

> <b_lp_Chiralities_Consistent>
1

> <s_lp_Variant>
AV-unprocessed.smi:3202-5

> <Gold.Version>
5.8.1

> <Gold.Id.Protein>
6NUR|6NUR_protein|mol2

> <Gold.PLP.Fitness>
43.0998

> <Gold.PLP.PLP>
-33.0176

> <Gold.PLP.part.hbond>
-4.0000

> <Gold.PLP.part.metal>
0.0000

> <Gold.PLP.part.buried>
0.1752

> <Gold.PLP.part.nonpolar>
-29.7300

> <Gold.PLP.part.repulsive>
0.4799

> <Gold.PLP.ligand.clash>
0.0000

> <Gold.PLP.ligand.torsion>
0.9400

> <Gold.PLP.Chemscore.Hbond>
3.9840

> <Gold.PLP.Chemscore.CHOScore>
0.0000

> <Gold.PLP.Chemscore.Metal>
0.0000

> <Gold.Chemscore.Hbonds>
donor molecule, donor type, donor heavy atom, donor atom, acceptor molecule, acceptor atom, score
      L1  H     8    29       P1  7948  1.95
      L1  H     8    43       P1  7957  1.00
      L1  H    16    18       P1 10175  0.96

> <Gold.PLP.Chemscore.Internal.Correction>
0.0102

> <Gold.Rescore>
     Score         DG    S(hbond)    S(metal)    S(lipo)     H(rot)  DE(clash)    DE(int)     intcor
     19.99     -21.70       2.92        0.00      87.33       1.46       0.64       1.06       ----

> <Gold.Chemscore.Fitness>
19.9917

> <Gold.Chemscore.DG>
-21.7009

> <Gold.Chemscore.ZeroCoef>
-5.4800

> <Gold.Chemscore.Hbond>
2.9160

> <Gold.Chemscore.Metal>
0.0000

> <Gold.Chemscore.Lipo>
87.3338

> <Gold.Chemscore.Internal_Hbond>
0.0000

> <Gold.Chemscore.DEClash>
0.6445

> <Gold.Chemscore.DEInternal>
1.0648

> <Gold.Chemscore.Rot>
1.4596

> <Gold.Chemscore.Internal.Correction>
   9.000000E+99

> <Gold.Chemscore.Hbonds>
donor molecule, donor type, donor heavy atom, donor atom, acceptor molecule, acceptor atom, score
      L1  H     8    29       P1  7948  0.90
      L1  H     8    43       P1  7957  0.99
      L1  H    16    18       P1 10175  0.92

> <Gold.Chemscore.Hbond.Weighted>
-9.7394

> <Gold.Chemscore.Metal.Weighted>
-0.0000

> <Gold.Chemscore.Lipo.Weighted>
-10.2181

> <Gold.Chemscore.Internal_Hbond.Weighted>
0.0000

> <Gold.Chemscore.DEClash.Weighted>
0.6445

> <Gold.Chemscore.DEInternal.Weighted>
1.0648

> <Gold.Chemscore.Rot.Weighted>
3.7365

> <Gold.Chemscore.Internal.Correction.Weighted>
   9.000000E+99

> <Gold.Protein.RotatedTorsions>
[ 6907 6896 6895 6894 ] final  -85.36 input  -60.11 | X-H torsion
[ 7974 7965 7964 7962 ] final  159.91 input  175.53 | X-H torsion
[ 8008 7997 7996 7995 ] final    3.58 input   59.86 | X-H torsion
[ 10167 10162 10161 10158 ] final   18.89 input  -65.29 | X-H torsion
[ 10718 10713 10712 10709 ] final -110.92 input   66.30 | X-H torsion
[ 10763 10752 10751 10750 ] final  -84.56 input  -60.55 | X-H torsion
[ 11005 11000 10999 10996 ] final   -7.04 input  -57.11 | X-H torsion

> <Gold.Protein.ActiveResidues>
 VAL166  LYS551  ARG553  GLY616  TRP617  ASP618  TYR619  PRO620  LYS621  CYS622 
 ASP623  PHE694  ASN695  SER759  ASP760  ASP761  ALA762  ILE779  LEU786  VAL792 
 PHE793  MET794  SER795  GLU796  ALA797  LYS798  CYS799  TRP800  GLU811  SER814 

> <Gold.Protein.RotatedAtoms>
  150.6871  134.3217  159.4788 H   0  0  0  0  0  0  0  0  0  0  0  0  # atno 6907 bound_to 6896
  152.1091  134.9284  160.0576 H   0  0  0  0  0  0  0  0  0  0  0  0  # atno 6908 bound_to 6896
  152.0534  133.3994  159.4423 H   0  0  0  0  0  0  0  0  0  0  0  0  # atno 6909 bound_to 6896
  144.7765  139.7683  143.6277 H   0  0  0  0  0  0  0  0  0  0  0  0  # atno 7974 bound_to 7965
  154.7054  140.2682  155.6679 H   0  0  0  0  0  0  0  0  0  0  0  0  # atno 8008 bound_to 7997
  156.2778  140.2764  156.1603 H   0  0  0  0  0  0  0  0  0  0  0  0  # atno 8009 bound_to 7997
  155.0707  140.0372  157.2597 H   0  0  0  0  0  0  0  0  0  0  0  0  # atno 8010 bound_to 7997
  140.5620  143.9320  150.6649 H   0  0  0  0  0  0  0  0  0  0  0  0  # atno 10167 bound_to 10162
  156.0618  130.5840  150.8303 H   0  0  0  0  0  0  0  0  0  0  0  0  # atno 10718 bound_to 10713
  154.6010  135.5516  153.7374 H   0  0  0  0  0  0  0  0  0  0  0  0  # atno 10763 bound_to 10752
  153.0154  135.6366  154.1715 H   0  0  0  0  0  0  0  0  0  0  0  0  # atno 10764 bound_to 10752
  154.1655  135.2895  155.3076 H   0  0  0  0  0  0  0  0  0  0  0  0  # atno 10765 bound_to 10752
  140.7085  133.8929  155.8734 H   0  0  0  0  0  0  0  0  0  0  0  0  # atno 11005 bound_to 11000
  146.1947  139.5207  142.9782 LP  0  0  0  0  0  0  0  0  0  0  0  0  # atno 17320 bound_to 7965
  145.6172  141.0329  143.1935 LP  0  0  0  0  0  0  0  0  0  0  0  0  # atno 17321 bound_to 7965
  140.2773  143.3414  152.1183 LP  0  0  0  0  0  0  0  0  0  0  0  0  # atno 17342 bound_to 10162
  139.5074  144.6832  151.5955 LP  0  0  0  0  0  0  0  0  0  0  0  0  # atno 17343 bound_to 10162
  157.5631  131.0946  150.9529 LP  0  0  0  0  0  0  0  0  0  0  0  0  # atno 17370 bound_to 10713
  156.9762  130.5509  149.5293 LP  0  0  0  0  0  0  0  0  0  0  0  0  # atno 17371 bound_to 10713
  141.0104  134.1028  157.4227 LP  0  0  0  0  0  0  0  0  0  0  0  0  # atno 17394 bound_to 11000
  139.8878  135.0092  156.6581 LP  0  0  0  0  0  0  0  0  0  0  0  0  # atno 17395 bound_to 11000

$$$$
