AV-unprocessed.smi:155|AV-procd|sdf|1274|dock4
  -GOLD-   2262018533D 1   1.00000     0.00000
 Structure written by MMmdl.
 63 66  0  0  0  0  0  0  0  0  2 V2000
  152.6990  142.7944  160.3075 C   0  0  0  0  0  0  0  0  0  0  0  0
  151.8699  143.1505  159.1616 N   0  0  0  0  0  0  0  0  0  0  0  0
  152.5914  144.1447  158.3771 C   0  0  0  0  0  0  0  0  0  0  0  0
  151.5788  141.9945  158.3118 C   0  0  0  0  0  0  0  0  0  0  0  0
  150.6946  142.3454  157.0933 C   0  0  0  0  0  0  0  0  0  0  0  0
  150.4953  141.2043  156.1613 N   0  3  1  0  0  0  0  0  0  0  0  0
  149.7409  141.5626  154.9312 C   0  0  0  0  0  0  0  0  0  0  0  0
  148.6609  140.5058  154.6410 C   0  0  0  0  0  0  0  0  0  0  0  0
  149.2112  139.1466  154.1672 C   0  0  0  0  0  0  0  0  0  0  0  0
  150.2319  138.5937  155.0572 N   0  0  0  0  0  0  0  0  0  0  0  0
  149.9061  137.9064  156.1943 C   0  0  0  0  0  0  0  0  0  0  0  0
  150.9192  137.5721  157.0396 N   0  0  0  0  0  0  0  0  0  0  0  0
  150.6839  136.9198  158.1797 C   0  0  0  0  0  0  0  0  0  0  0  0
  149.5185  136.5106  158.6764 N   0  0  0  0  0  0  0  0  0  0  0  0
  148.4898  136.8317  157.8429 C   0  0  0  0  0  0  0  0  0  0  0  0
  148.5881  137.5146  156.5933 C   0  0  0  0  0  0  0  0  0  0  0  0
  147.3127  137.6512  156.0521 N   0  0  0  0  0  0  0  0  0  0  0  0
  146.5179  137.0920  156.9217 C   0  0  0  0  0  0  0  0  0  0  0  0
  147.1436  136.5756  158.0299 N   0  0  0  0  0  0  0  0  0  0  0  0
  146.5097  135.9039  159.1508 C   0  0  0  0  0  0  0  0  0  0  0  0
  147.2011  136.2188  160.4912 C   0  0  1  0  0  0  0  0  0  0  0  0
  146.9067  137.5371  160.9147 O   0  0  0  0  0  0  0  0  0  0  0  0
  146.8441  135.2101  161.6014 C   0  0  1  0  0  0  0  0  0  0  0  0
  145.4902  135.4295  162.2986 C   0  0  0  0  0  0  0  0  0  0  0  0
  144.7670  134.1075  162.1097 C   0  0  0  0  0  0  0  0  0  0  0  0
  145.9081  133.1267  161.8717 C   0  0  0  0  0  0  0  0  0  0  0  0
  146.8186  133.8809  161.0891 O   0  0  0  0  0  0  0  0  0  0  0  0
  151.5554  139.2183  154.9584 C   0  0  0  0  0  0  0  0  0  0  0  0
  151.7441  140.4391  155.8883 C   0  0  0  0  0  0  0  0  0  0  0  0
  152.1672  142.1352  160.9908 H   0  0  0  0  0  0  0  0  0  0  0  0
  152.9692  143.6846  160.8767 H   0  0  0  0  0  0  0  0  0  0  0  0
  153.6196  142.3001  159.9949 H   0  0  0  0  0  0  0  0  0  0  0  0
  151.9949  144.4716  157.5245 H   0  0  0  0  0  0  0  0  0  0  0  0
  153.5358  143.7476  158.0014 H   0  0  0  0  0  0  0  0  0  0  0  0
  152.8085  145.0272  158.9803 H   0  0  0  0  0  0  0  0  0  0  0  0
  152.5302  141.6413  157.9111 H   0  0  0  0  0  0  0  0  0  0  0  0
  151.1826  141.1679  158.9010 H   0  0  0  0  0  0  0  0  0  0  0  0
  149.7391  142.7164  157.4669 H   0  0  0  0  0  0  0  0  0  0  0  0
  151.1390  143.1722  156.5378 H   0  0  0  0  0  0  0  0  0  0  0  0
  149.2331  142.5190  155.0579 H   0  0  0  0  0  0  0  0  0  0  0  0
  150.4116  141.6958  154.0809 H   0  0  0  0  0  0  0  0  0  0  0  0
  148.0411  140.3769  155.5278 H   0  0  0  0  0  0  0  0  0  0  0  0
  147.9920  140.8883  153.8695 H   0  0  0  0  0  0  0  0  0  0  0  0
  148.4073  138.4304  154.0060 H   0  0  0  0  0  0  0  0  0  0  0  0
  149.6584  139.2774  153.1814 H   0  0  0  0  0  0  0  0  0  0  0  0
  151.5529  136.6982  158.7817 H   0  0  0  0  0  0  0  0  0  0  0  0
  145.4481  137.0406  156.7783 H   0  0  0  0  0  0  0  0  0  0  0  0
  145.4588  136.1941  159.1820 H   0  0  0  0  0  0  0  0  0  0  0  0
  146.5289  134.8300  158.9607 H   0  0  0  0  0  0  0  0  0  0  0  0
  148.2800  136.1787  160.3373 H   0  0  0  0  0  0  0  0  0  0  0  0
  146.3865  137.4876  161.7023 H   0  0  0  0  0  0  0  0  0  0  0  0
  147.6260  135.2389  162.3620 H   0  0  0  0  0  0  0  0  0  0  0  0
  145.6473  135.6287  163.3593 H   0  0  0  0  0  0  0  0  0  0  0  0
  144.9178  136.2633  161.8913 H   0  0  0  0  0  0  0  0  0  0  0  0
  144.1420  133.8363  162.9610 H   0  0  0  0  0  0  0  0  0  0  0  0
  144.1331  134.1566  161.2233 H   0  0  0  0  0  0  0  0  0  0  0  0
  146.3817  132.8408  162.8123 H   0  0  0  0  0  0  0  0  0  0  0  0
  145.5868  132.2215  161.3558 H   0  0  0  0  0  0  0  0  0  0  0  0
  152.3471  138.4862  155.1216 H   0  0  0  0  0  0  0  0  0  0  0  0
  151.6946  139.5477  153.9283 H   0  0  0  0  0  0  0  0  0  0  0  0
  152.5062  141.0992  155.4724 H   0  0  0  0  0  0  0  0  0  0  0  0
  152.1423  140.0751  156.8340 H   0  0  0  0  0  0  0  0  0  0  0  0
  149.8830  140.5735  156.6585 H   0  0  0  0  0  0  0  0  0  0  0  0
  1  2  1  0  0  0  0
  1 30  1  0  0  0  0
  1 31  1  0  0  0  0
  1 32  1  0  0  0  0
  2  3  1  0  0  0  0
  2  4  1  0  0  0  0
  3 33  1  0  0  0  0
  3 34  1  0  0  0  0
  3 35  1  0  0  0  0
  4  5  1  0  0  0  0
  4 36  1  0  0  0  0
  4 37  1  0  0  0  0
  5  6  1  0  0  0  0
  5 38  1  0  0  0  0
  5 39  1  0  0  0  0
  6 29  1  0  0  0  0
  6  7  1  0  0  0  0
  6 63  1  0  0  0  0
  7  8  1  0  0  0  0
  7 40  1  0  0  0  0
  7 41  1  0  0  0  0
  8  9  1  0  0  0  0
  8 42  1  0  0  0  0
  8 43  1  0  0  0  0
  9 10  1  0  0  0  0
  9 44  1  0  0  0  0
  9 45  1  0  0  0  0
 10 11  1  0  0  0  0
 10 28  1  0  0  0  0
 11 16  1  0  0  0  0
 11 12  2  0  0  0  0
 12 13  1  0  0  0  0
 13 14  2  0  0  0  0
 13 46  1  0  0  0  0
 14 15  1  0  0  0  0
 15 19  1  0  0  0  0
 15 16  2  0  0  0  0
 16 17  1  0  0  0  0
 17 18  2  0  0  0  0
 18 19  1  0  0  0  0
 18 47  1  0  0  0  0
 19 20  1  0  0  0  0
 20 21  1  0  0  0  0
 20 48  1  0  0  0  0
 20 49  1  0  0  0  0
 21 22  1  0  0  0  0
 21 23  1  0  0  0  0
 21 50  1  0  0  0  0
 22 51  1  0  0  0  0
 23 27  1  0  0  0  0
 23 24  1  0  0  0  0
 23 52  1  0  0  0  0
 24 25  1  0  0  0  0
 24 53  1  0  0  0  0
 24 54  1  0  0  0  0
 25 26  1  0  0  0  0
 25 55  1  0  0  0  0
 25 56  1  0  0  0  0
 26 27  1  0  0  0  0
 26 57  1  0  0  0  0
 26 58  1  0  0  0  0
 28 29  1  0  0  0  0
 28 59  1  0  0  0  0
 28 60  1  0  0  0  0
 29 61  1  0  0  0  0
 29 62  1  0  0  0  0
M  CHG  1   6   1
M  END
> <s_m_source_file>
AV-unprocessed.smi

> <i_m_source_file_index>
155

> <i_lp_mmshare_version>
43012

> <i_f3d_flags>
0

> <s_epik_input>
W0NIM11OKFtDSDNdKVtDSDJdW0NIMl1OMVtDSDJdW0NIMl1bQ0gyXU4oW0NIMl1bQ0gyXTEpYyhuW2NIXW4yKWMoYzIzKW5bY0hdbjNbQ0gyXVtDQEhdKFtPSF0pW0NAQEhdNFtDSDJdW0NIMl1bQ0gyXU80

> <s_epik_cmdline>
J2VwaWtfcHl0aG9uJywgJy1waCcsICc3LjAnLCAnLXRuJywgJzgnLCAnLW1hJywgJzIwMCcsICctbWV0YWxfYmluZGluZycsICctaW1hZScsICc8aW5maWxlLm1hZT4nLCAnLW9tYWUnLCAnPG91dGZpbGUubWFlPic=

> <r_epik_Ionization_Penalty>
0.0619615

> <r_epik_Ionization_Penalty_Charging>
0.0161638

> <r_epik_Ionization_Penalty_Neutral>
0.0457976

> <r_epik_State_Penalty>
0.403408

> <r_epik_Charging_Adjusted_Penalty>
0.419572

> <i_epik_Tot_Q>
1

> <i_epik_Tot_abs_Q>
1

> <r_epik_Metal_State_Penalty>
0.404222

> <b_epik_Metal_Only>
0

> <s_lp_Force_Field>
OPLS_2005

> <r_lp_Energy>
52.3262

> <b_lp_Chiralities_Consistent>
1

> <s_lp_Variant>
AV-unprocessed.smi:155-8

> <Gold.Version>
5.8.1

> <Gold.Id.Protein>
6NUR|6NUR_protein|mol2

> <Gold.PLP.Fitness>
53.1856

> <Gold.PLP.PLP>
-46.1718

> <Gold.PLP.part.hbond>
-3.0000

> <Gold.PLP.part.metal>
0.0000

> <Gold.PLP.part.buried>
-5.5240

> <Gold.PLP.part.nonpolar>
-38.5475

> <Gold.PLP.part.repulsive>
0.0795

> <Gold.PLP.ligand.clash>
0.0000

> <Gold.PLP.ligand.torsion>
0.8968

> <Gold.PLP.Chemscore.Hbond>
2.8080

> <Gold.PLP.Chemscore.CHOScore>
0.0000

> <Gold.PLP.Chemscore.Metal>
0.0000

> <Gold.Chemscore.Hbonds>
donor molecule, donor type, donor heavy atom, donor atom, acceptor molecule, acceptor atom, score
      P1  H  6896  6908       L1    14  0.05
      P1  H  6934  6947       L1    22  0.85

> <Gold.PLP.Chemscore.Internal.Correction>
0.3834

> <Gold.Rescore>
     Score         DG    S(hbond)    S(metal)    S(lipo)     H(rot)  DE(clash)    DE(int)     intcor
     14.45     -16.13       0.99        0.00     120.37       2.63       0.15       1.53       ----

> <Gold.Chemscore.Fitness>
14.4451

> <Gold.Chemscore.DG>
-16.1288

> <Gold.Chemscore.ZeroCoef>
-5.4800

> <Gold.Chemscore.Hbond>
0.9894

> <Gold.Chemscore.Metal>
0.0000

> <Gold.Chemscore.Lipo>
120.3693

> <Gold.Chemscore.Internal_Hbond>
0.0000

> <Gold.Chemscore.DEClash>
0.1536

> <Gold.Chemscore.DEInternal>
1.5301

> <Gold.Chemscore.Rot>
2.6324

> <Gold.Chemscore.Internal.Correction>
   9.000000E+99

> <Gold.Chemscore.Hbonds>
donor molecule, donor type, donor heavy atom, donor atom, acceptor molecule, acceptor atom, score
      P1  H  6934  6947       L1    22  0.16

> <Gold.Chemscore.Hbond.Weighted>
-3.3045

> <Gold.Chemscore.Metal.Weighted>
-0.0000

> <Gold.Chemscore.Lipo.Weighted>
-14.0832

> <Gold.Chemscore.Internal_Hbond.Weighted>
0.0000

> <Gold.Chemscore.DEClash.Weighted>
0.1536

> <Gold.Chemscore.DEInternal.Weighted>
1.5301

> <Gold.Chemscore.Rot.Weighted>
6.7389

> <Gold.Chemscore.Internal.Correction.Weighted>
   9.000000E+99

> <Gold.Protein.RotatedTorsions>
[ 6907 6896 6895 6894 ] final -179.25 input  -60.11 | X-H torsion
[ 7974 7965 7964 7962 ] final -124.53 input  175.53 | X-H torsion
[ 8008 7997 7996 7995 ] final   23.43 input   59.86 | X-H torsion
[ 10167 10162 10161 10158 ] final -135.84 input  -65.29 | X-H torsion
[ 10718 10713 10712 10709 ] final   85.73 input   66.30 | X-H torsion
[ 10763 10752 10751 10750 ] final  160.69 input  -60.55 | X-H torsion
[ 11005 11000 10999 10996 ] final  161.86 input  -57.11 | X-H torsion

> <Gold.Protein.ActiveResidues>
 VAL166  LYS551  ARG553  GLY616  TRP617  ASP618  TYR619  PRO620  LYS621  CYS622 
 ASP623  PHE694  ASN695  SER759  ASP760  ASP761  ALA762  ILE779  LEU786  VAL792 
 PHE793  MET794  SER795  GLU796  ALA797  LYS798  CYS799  TRP800  GLU811  SER814 

> <Gold.Protein.RotatedAtoms>
  151.6503  133.3321  159.3150 H   0  0  0  0  0  0  0  0  0  0  0  0  # atno 6907 bound_to 6896
  150.7963  134.7029  159.6570 H   0  0  0  0  0  0  0  0  0  0  0  0  # atno 6908 bound_to 6896
  152.4051  134.6225  160.0106 H   0  0  0  0  0  0  0  0  0  0  0  0  # atno 6909 bound_to 6896
  145.0071  140.7872  143.4461 H   0  0  0  0  0  0  0  0  0  0  0  0  # atno 7974 bound_to 7965
  154.9809  140.3102  155.4947 H   0  0  0  0  0  0  0  0  0  0  0  0  # atno 8008 bound_to 7997
  156.2953  140.2267  156.4847 H   0  0  0  0  0  0  0  0  0  0  0  0  # atno 8009 bound_to 7997
  154.7790  140.0447  157.1100 H   0  0  0  0  0  0  0  0  0  0  0  0  # atno 8010 bound_to 7997
  139.8738  143.6924  152.2636 H   0  0  0  0  0  0  0  0  0  0  0  0  # atno 10167 bound_to 10162
  157.6919  131.0186  150.2866 H   0  0  0  0  0  0  0  0  0  0  0  0  # atno 10718 bound_to 10713
  154.2513  135.2771  155.2815 H   0  0  0  0  0  0  0  0  0  0  0  0  # atno 10763 bound_to 10752
  154.5462  135.5688  153.6886 H   0  0  0  0  0  0  0  0  0  0  0  0  # atno 10764 bound_to 10752
  152.9980  135.6263  154.2660 H   0  0  0  0  0  0  0  0  0  0  0  0  # atno 10765 bound_to 10752
  140.2200  134.8203  157.3210 H   0  0  0  0  0  0  0  0  0  0  0  0  # atno 11005 bound_to 11000
  145.2074  139.2222  143.5161 LP  0  0  0  0  0  0  0  0  0  0  0  0  # atno 17320 bound_to 7965
  146.3463  140.1904  142.8589 LP  0  0  0  0  0  0  0  0  0  0  0  0  # atno 17321 bound_to 7965
  139.7259  144.7593  151.0880 LP  0  0  0  0  0  0  0  0  0  0  0  0  # atno 17342 bound_to 10162
  140.7756  143.5149  150.9607 LP  0  0  0  0  0  0  0  0  0  0  0  0  # atno 17343 bound_to 10162
  156.3404  130.3814  149.7414 LP  0  0  0  0  0  0  0  0  0  0  0  0  # atno 17370 bound_to 10713
  156.4925  130.8091  151.3100 LP  0  0  0  0  0  0  0  0  0  0  0  0  # atno 17371 bound_to 10713
  140.1860  134.4431  155.7744 LP  0  0  0  0  0  0  0  0  0  0  0  0  # atno 17394 bound_to 11000
  141.2223  133.7005  156.7947 LP  0  0  0  0  0  0  0  0  0  0  0  0  # atno 17395 bound_to 11000

$$$$
