AV-unprocessed.smi:337|AV-procd|sdf|2373|dock10
  -GOLD-   2262022293D 1   1.00000     0.00000
 Structure written by MMmdl.
 43 44  0  0  0  0  0  0  0  0  1 V2000
  145.3488  130.9875  150.8243 C   0  0  0  0  0  0  0  0  0  0  0  0
  146.1602  132.2442  150.4680 C   0  0  1  0  0  0  0  0  0  0  0  0
  145.3032  133.1398  149.6918 N   0  0  0  0  0  0  0  0  0  0  0  0
  144.0148  133.3981  149.9632 C   0  0  0  0  0  0  0  0  0  0  0  0
  143.4632  134.2221  149.0720 N   0  0  0  0  0  0  0  0  0  0  0  0
  143.3961  132.9318  150.9182 O   0  0  0  0  0  0  0  0  0  0  0  0
  146.6005  132.9327  151.7688 C   0  0  0  0  0  0  0  0  0  0  0  0
  145.8218  133.6617  152.3855 O   0  0  0  0  0  0  0  0  0  0  0  0
  147.8611  132.7007  152.1651 N   0  0  0  0  0  0  0  0  0  0  0  0
  148.5036  133.3397  153.3086 C   0  0  0  0  0  0  0  0  0  0  0  0
  149.4658  132.4271  154.0566 C   0  0  0  0  0  0  0  0  0  0  0  0
  150.2612  132.8988  155.1221 C   0  0  0  0  0  0  0  0  0  0  0  0
  151.1203  132.0016  155.7835 C   0  0  0  0  0  0  0  0  0  0  0  0
  151.1673  130.6521  155.3610 C   0  0  0  0  0  0  0  0  0  0  0  0
  152.0119  129.7338  156.0216 N   0  0  0  0  0  0  0  0  0  0  0  0
  152.6463  130.1605  157.2672 C   0  0  0  0  0  0  0  0  0  0  0  0
  153.2915  128.9587  157.9779 C   0  0  0  0  0  0  0  0  0  0  0  0
  154.2013  128.3116  157.0945 O   0  0  0  0  0  0  0  0  0  0  0  0
  153.5448  127.8071  155.9360 C   0  0  0  0  0  0  0  0  0  0  0  0
  152.9010  128.9652  155.1540 C   0  0  0  0  0  0  0  0  0  0  0  0
  150.4162  130.2070  154.3231 N   0  0  0  0  0  0  0  0  0  0  0  0
  149.5916  131.0713  153.6942 C   0  0  0  0  0  0  0  0  0  0  0  0
  145.9451  130.2849  151.4077 H   0  0  0  0  0  0  0  0  0  0  0  0
  145.0249  130.4660  149.9231 H   0  0  0  0  0  0  0  0  0  0  0  0
  144.4562  131.2284  151.4039 H   0  0  0  0  0  0  0  0  0  0  0  0
  147.0308  131.9591  149.8737 H   0  0  0  0  0  0  0  0  0  0  0  0
  145.7157  133.5692  148.8767 H   0  0  0  0  0  0  0  0  0  0  0  0
  142.4976  134.5007  149.1661 H   0  0  0  0  0  0  0  0  0  0  0  0
  144.0204  134.5704  148.3052 H   0  0  0  0  0  0  0  0  0  0  0  0
  148.4309  132.0844  151.6035 H   0  0  0  0  0  0  0  0  0  0  0  0
  149.0214  134.2435  152.9823 H   0  0  0  0  0  0  0  0  0  0  0  0
  147.7261  133.6605  154.0021 H   0  0  0  0  0  0  0  0  0  0  0  0
  150.2178  133.9314  155.4356 H   0  0  0  0  0  0  0  0  0  0  0  0
  151.7364  132.3596  156.5946 H   0  0  0  0  0  0  0  0  0  0  0  0
  153.4038  130.9143  157.0481 H   0  0  0  0  0  0  0  0  0  0  0  0
  151.9097  130.6191  157.9282 H   0  0  0  0  0  0  0  0  0  0  0  0
  153.8327  129.2929  158.8631 H   0  0  0  0  0  0  0  0  0  0  0  0
  152.5316  128.2524  158.3167 H   0  0  0  0  0  0  0  0  0  0  0  0
  154.2749  127.2932  155.3106 H   0  0  0  0  0  0  0  0  0  0  0  0
  152.7953  127.0674  156.2226 H   0  0  0  0  0  0  0  0  0  0  0  0
  152.3732  128.5595  154.2920 H   0  0  0  0  0  0  0  0  0  0  0  0
  153.6747  129.6301  154.7675 H   0  0  0  0  0  0  0  0  0  0  0  0
  149.0097  130.6633  152.8807 H   0  0  0  0  0  0  0  0  0  0  0  0
  1  2  1  0  0  0  0
  1 23  1  0  0  0  0
  1 24  1  0  0  0  0
  1 25  1  0  0  0  0
  2  3  1  0  0  0  0
  2  7  1  0  0  0  0
  2 26  1  0  0  0  0
  3  4  1  0  0  0  0
  3 27  1  0  0  0  0
  4  5  1  0  0  0  0
  4  6  2  0  0  0  0
  5 28  1  0  0  0  0
  5 29  1  0  0  0  0
  7  8  2  0  0  0  0
  7  9  1  0  0  0  0
  9 10  1  0  0  0  0
  9 30  1  0  0  0  0
 10 11  1  0  0  0  0
 10 31  1  0  0  0  0
 10 32  1  0  0  0  0
 11 22  1  0  0  0  0
 11 12  2  0  0  0  0
 12 13  1  0  0  0  0
 12 33  1  0  0  0  0
 13 14  2  0  0  0  0
 13 34  1  0  0  0  0
 14 15  1  0  0  0  0
 14 21  1  0  0  0  0
 15 20  1  0  0  0  0
 15 16  1  0  0  0  0
 16 17  1  0  0  0  0
 16 35  1  0  0  0  0
 16 36  1  0  0  0  0
 17 18  1  0  0  0  0
 17 37  1  0  0  0  0
 17 38  1  0  0  0  0
 18 19  1  0  0  0  0
 19 20  1  0  0  0  0
 19 39  1  0  0  0  0
 19 40  1  0  0  0  0
 20 41  1  0  0  0  0
 20 42  1  0  0  0  0
 21 22  2  0  0  0  0
 22 43  1  0  0  0  0
M  END
> <s_m_source_file>
AV-unprocessed.smi

> <i_m_source_file_index>
337

> <i_lp_mmshare_version>
43012

> <i_f3d_flags>
0

> <s_epik_input>
W05IMl1DKD1PKVtOSF1bQ0BASF0oW0NIM10pQyg9TylbTkhdW0NIMl1jMVtjSF1bY0hdYyhuW2NIXTEpTjJbQ0gyXVtDSDJdT1tDSDJdW0NIMl0y

> <s_epik_cmdline>
J2VwaWtfcHl0aG9uJywgJy1waCcsICc3LjAnLCAnLXRuJywgJzgnLCAnLW1hJywgJzIwMCcsICctbWV0YWxfYmluZGluZycsICctaW1hZScsICc8aW5maWxlLm1hZT4nLCAnLW9tYWUnLCAnPG91dGZpbGUubWFlPic=

> <r_lp_tautomer_probability>
1

> <r_epik_Ionization_Penalty>
0.0048357

> <r_epik_Ionization_Penalty_Charging>
0

> <r_epik_Ionization_Penalty_Neutral>
0.0048357

> <r_epik_State_Penalty>
0.0034696

> <r_epik_Charging_Adjusted_Penalty>
0.0034696

> <i_epik_Tot_Q>
0

> <i_epik_Tot_abs_Q>
0

> <r_epik_Metal_State_Penalty>
-0

> <b_epik_Metal_Only>
0

> <s_lp_Force_Field>
OPLS_2005

> <r_lp_Energy>
9.87941

> <b_lp_Chiralities_Consistent>
1

> <s_lp_Variant>
AV-unprocessed.smi:337-2

> <Gold.Version>
5.8.1

> <Gold.Id.Protein>
6NUR|6NUR_protein|mol2

> <Gold.PLP.Fitness>
41.0648

> <Gold.PLP.PLP>
-30.0964

> <Gold.PLP.part.hbond>
-4.0000

> <Gold.PLP.part.metal>
0.0000

> <Gold.PLP.part.buried>
-3.8839

> <Gold.PLP.part.nonpolar>
-22.3352

> <Gold.PLP.part.repulsive>
1.0658

> <Gold.PLP.ligand.clash>
0.0000

> <Gold.PLP.ligand.torsion>
1.1927

> <Gold.PLP.Chemscore.Hbond>
3.5564

> <Gold.PLP.Chemscore.CHOScore>
0.7824

> <Gold.PLP.Chemscore.Metal>
0.0000

> <Gold.Chemscore.Hbonds>
donor molecule, donor type, donor heavy atom, donor atom, acceptor molecule, acceptor atom, score
      L1  H     3    27       P1  7921  0.80
      L1  H     5    28       P1 10186  0.99
      L1  H     5    29       P1  7921  0.46
      L1  H     9    30       P1 10747  1.00
      L1  C    22    43       P1 10747  0.88

> <Gold.PLP.Chemscore.Internal.Correction>
0.3372

> <Gold.Rescore>
     Score         DG    S(hbond)    S(metal)    S(lipo)     H(rot)  DE(clash)    DE(int)     intcor
     12.43     -15.46       2.91        0.00      60.29       2.66       0.11       2.92       ----

> <Gold.Chemscore.Fitness>
12.4325

> <Gold.Chemscore.DG>
-15.4585

> <Gold.Chemscore.ZeroCoef>
-5.4800

> <Gold.Chemscore.Hbond>
2.9123

> <Gold.Chemscore.Metal>
0.0000

> <Gold.Chemscore.Lipo>
60.2918

> <Gold.Chemscore.Internal_Hbond>
0.0000

> <Gold.Chemscore.DEClash>
0.1096

> <Gold.Chemscore.DEInternal>
2.9165

> <Gold.Chemscore.Rot>
2.6573

> <Gold.Chemscore.Internal.Correction>
   9.000000E+99

> <Gold.Chemscore.Hbonds>
donor molecule, donor type, donor heavy atom, donor atom, acceptor molecule, acceptor atom, score
      L1  H     3    27       P1  7921  0.12
      L1  H     5    28       P1 10186  0.92
      L1  H     5    29       P1  7921  0.46
      L1  H     9    30       P1 10747  1.00

> <Gold.Chemscore.Hbond.Weighted>
-9.7271

> <Gold.Chemscore.Metal.Weighted>
-0.0000

> <Gold.Chemscore.Lipo.Weighted>
-7.0541

> <Gold.Chemscore.Internal_Hbond.Weighted>
0.0000

> <Gold.Chemscore.DEClash.Weighted>
0.1096

> <Gold.Chemscore.DEInternal.Weighted>
2.9165

> <Gold.Chemscore.Rot.Weighted>
6.8027

> <Gold.Chemscore.Internal.Correction.Weighted>
   9.000000E+99

> <Gold.Protein.RotatedTorsions>
[ 6907 6896 6895 6894 ] final -116.58 input  -60.11 | X-H torsion
[ 7974 7965 7964 7962 ] final    6.89 input  175.53 | X-H torsion
[ 8008 7997 7996 7995 ] final   58.91 input   59.86 | X-H torsion
[ 10167 10162 10161 10158 ] final  -61.29 input  -65.29 | X-H torsion
[ 10718 10713 10712 10709 ] final   68.02 input   66.30 | X-H torsion
[ 10763 10752 10751 10750 ] final  121.54 input  -60.55 | X-H torsion
[ 11005 11000 10999 10996 ] final   65.58 input  -57.11 | X-H torsion

> <Gold.Protein.ActiveResidues>
 VAL166  LYS551  ARG553  GLY616  TRP617  ASP618  TYR619  PRO620  LYS621  CYS622 
 ASP623  PHE694  ASN695  SER759  ASP760  ASP761  ALA762  ILE779  LEU786  VAL792 
 PHE793  MET794  SER795  GLU796  ALA797  LYS798  CYS799  TRP800  GLU811  SER814 

> <Gold.Protein.RotatedAtoms>
  150.8068  133.8496  159.3201 H   0  0  0  0  0  0  0  0  0  0  0  0  # atno 6907 bound_to 6896
  151.6293  135.1023  160.0128 H   0  0  0  0  0  0  0  0  0  0  0  0  # atno 6908 bound_to 6896
  152.4158  133.6996  159.6473 H   0  0  0  0  0  0  0  0  0  0  0  0  # atno 6909 bound_to 6896
  146.2431  140.0166  142.8402 H   0  0  0  0  0  0  0  0  0  0  0  0  # atno 7974 bound_to 7965
  155.5576  140.3487  155.4483 H   0  0  0  0  0  0  0  0  0  0  0  0  # atno 8008 bound_to 7997
  156.0538  140.1324  157.0046 H   0  0  0  0  0  0  0  0  0  0  0  0  # atno 8009 bound_to 7997
  154.4446  140.0999  156.6400 H   0  0  0  0  0  0  0  0  0  0  0  0  # atno 8010 bound_to 7997
  140.6016  143.2363  151.5916 H   0  0  0  0  0  0  0  0  0  0  0  0  # atno 10167 bound_to 10162
  157.6265  130.9352  150.0322 H   0  0  0  0  0  0  0  0  0  0  0  0  # atno 10718 bound_to 10713
  153.6157  135.3422  155.2994 H   0  0  0  0  0  0  0  0  0  0  0  0  # atno 10763 bound_to 10752
  154.8610  135.4261  154.2261 H   0  0  0  0  0  0  0  0  0  0  0  0  # atno 10764 bound_to 10752
  153.3122  135.7032  153.7177 H   0  0  0  0  0  0  0  0  0  0  0  0  # atno 10765 bound_to 10752
  139.9885  134.6628  156.0132 H   0  0  0  0  0  0  0  0  0  0  0  0  # atno 11005 bound_to 11000
  145.1279  140.9501  143.4562 LP  0  0  0  0  0  0  0  0  0  0  0  0  # atno 17320 bound_to 7965
  145.0416  139.3255  143.5973 LP  0  0  0  0  0  0  0  0  0  0  0  0  # atno 17321 bound_to 7965
  139.5295  144.2959  152.1114 LP  0  0  0  0  0  0  0  0  0  0  0  0  # atno 17342 bound_to 10162
  140.2141  144.4533  150.6372 LP  0  0  0  0  0  0  0  0  0  0  0  0  # atno 17343 bound_to 10162
  156.1440  130.3642  149.9538 LP  0  0  0  0  0  0  0  0  0  0  0  0  # atno 17370 bound_to 10713
  156.7572  130.9137  151.3640 LP  0  0  0  0  0  0  0  0  0  0  0  0  # atno 17371 bound_to 10713
  141.1546  133.6544  156.4120 LP  0  0  0  0  0  0  0  0  0  0  0  0  # atno 17394 bound_to 11000
  140.4954  134.6536  157.5227 LP  0  0  0  0  0  0  0  0  0  0  0  0  # atno 17395 bound_to 11000

$$$$
