AV-unprocessed.smi:1721|AV-procd|sdf|6940|dock6
  -GOLD-   22720 8143D 1   1.00000     0.00000
 Structure written by MMmdl.
 44 46  0  0  0  0  0  0  0  0  2 V2000
  151.6986  138.4439  154.5839 C   0  0  0  0  0  0  0  0  0  0  0  0
  150.3561  138.2827  154.1386 O   0  0  0  0  0  0  0  0  0  0  0  0
  149.5240  139.3864  154.1358 C   0  0  0  0  0  0  0  0  0  0  0  0
  150.0087  140.5583  154.6181 N   0  0  0  0  0  0  0  0  0  0  0  0
  149.1998  141.6368  154.6188 C   0  0  0  0  0  0  0  0  0  0  0  0
  147.8765  141.6057  154.1437 C   0  0  0  0  0  0  0  0  0  0  0  0
  147.3711  140.3919  153.6423 C   0  0  0  0  0  0  0  0  0  0  0  0
  148.2082  139.2481  153.6331 C   0  0  0  0  0  0  0  0  0  0  0  0
  147.8173  137.9633  153.1570 N   0  0  0  0  0  0  0  0  0  0  0  0
  146.5935  137.4816  152.8792 C   0  0  0  0  0  0  0  0  0  0  0  0
  145.5342  138.0965  152.9925 O   0  0  0  0  0  0  0  0  0  0  0  0
  146.6626  136.2127  152.4524 N   0  0  0  0  0  0  0  0  0  0  0  0
  145.5181  135.3936  152.0630 C   0  0  1  0  0  0  0  0  0  0  0  0
  144.8224  135.9026  150.7885 C   0  0  0  0  0  0  0  0  0  0  0  0
  144.3881  134.6351  150.0261 C   0  0  0  0  0  0  0  0  0  0  0  0
  144.7644  133.5056  150.8976 N   0  3  1  0  0  0  0  0  0  0  0  0
  144.9935  132.1978  150.2460 C   0  0  0  0  0  0  0  0  0  0  0  0
  145.2867  131.1368  151.3258 C   0  0  0  0  0  0  0  0  0  0  0  0
  146.4363  131.5714  152.2575 C   0  0  0  0  0  0  0  0  0  0  0  0
  146.1849  132.9789  152.8323 C   0  0  0  0  0  0  0  0  0  0  0  0
  145.9200  133.9661  151.6826 C   0  0  2  0  0  0  0  0  0  0  0  0
  152.2154  137.4865  154.5223 H   0  0  0  0  0  0  0  0  0  0  0  0
  151.7375  138.7743  155.6230 H   0  0  0  0  0  0  0  0  0  0  0  0
  152.2441  139.1542  153.9612 H   0  0  0  0  0  0  0  0  0  0  0  0
  149.6194  142.5512  155.0112 H   0  0  0  0  0  0  0  0  0  0  0  0
  147.2614  142.4932  154.1642 H   0  0  0  0  0  0  0  0  0  0  0  0
  146.3558  140.3756  153.2824 H   0  0  0  0  0  0  0  0  0  0  0  0
  148.5835  137.3244  153.0004 H   0  0  0  0  0  0  0  0  0  0  0  0
  147.5743  135.7835  152.3882 H   0  0  0  0  0  0  0  0  0  0  0  0
  144.7785  135.3612  152.8661 H   0  0  0  0  0  0  0  0  0  0  0  0
  143.9730  136.5414  151.0325 H   0  0  0  0  0  0  0  0  0  0  0  0
  145.5045  136.4876  150.1695 H   0  0  0  0  0  0  0  0  0  0  0  0
  143.3176  134.6214  149.8199 H   0  0  0  0  0  0  0  0  0  0  0  0
  144.9179  134.5703  149.0743 H   0  0  0  0  0  0  0  0  0  0  0  0
  144.1113  131.9156  149.6706 H   0  0  0  0  0  0  0  0  0  0  0  0
  145.8272  132.2716  149.5458 H   0  0  0  0  0  0  0  0  0  0  0  0
  144.3874  130.9704  151.9203 H   0  0  0  0  0  0  0  0  0  0  0  0
  145.5258  130.1818  150.8570 H   0  0  0  0  0  0  0  0  0  0  0  0
  146.5568  130.8513  153.0673 H   0  0  0  0  0  0  0  0  0  0  0  0
  147.3741  131.5698  151.7004 H   0  0  0  0  0  0  0  0  0  0  0  0
  145.3329  132.9564  153.5133 H   0  0  0  0  0  0  0  0  0  0  0  0
  147.0471  133.2982  153.4177 H   0  0  0  0  0  0  0  0  0  0  0  0
  146.7936  134.0022  151.0274 H   0  0  0  0  0  0  0  0  0  0  0  0
  144.0054  133.3857  151.5534 H   0  0  0  0  0  0  0  0  0  0  0  0
  1  2  1  0  0  0  0
  1 22  1  0  0  0  0
  1 23  1  0  0  0  0
  1 24  1  0  0  0  0
  2  3  1  0  0  0  0
  3  8  1  0  0  0  0
  3  4  2  0  0  0  0
  4  5  1  0  0  0  0
  5  6  2  0  0  0  0
  5 25  1  0  0  0  0
  6  7  1  0  0  0  0
  6 26  1  0  0  0  0
  7  8  2  0  0  0  0
  7 27  1  0  0  0  0
  8  9  1  0  0  0  0
  9 10  1  0  0  0  0
  9 28  1  0  0  0  0
 10 11  2  0  0  0  0
 10 12  1  0  0  0  0
 12 13  1  0  0  0  0
 12 29  1  0  0  0  0
 13 21  1  0  0  0  0
 13 14  1  0  0  0  0
 13 30  1  0  0  0  0
 14 15  1  0  0  0  0
 14 31  1  0  0  0  0
 14 32  1  0  0  0  0
 15 16  1  0  0  0  0
 15 33  1  0  0  0  0
 15 34  1  0  0  0  0
 16 21  1  0  0  0  0
 16 17  1  0  0  0  0
 16 44  1  0  0  0  0
 17 18  1  0  0  0  0
 17 35  1  0  0  0  0
 17 36  1  0  0  0  0
 18 19  1  0  0  0  0
 18 37  1  0  0  0  0
 18 38  1  0  0  0  0
 19 20  1  0  0  0  0
 19 39  1  0  0  0  0
 19 40  1  0  0  0  0
 20 21  1  0  0  0  0
 20 41  1  0  0  0  0
 20 42  1  0  0  0  0
 21 43  1  0  0  0  0
M  CHG  1  16   1
M  END
> <s_m_source_file>
AV-unprocessed.smi

> <i_m_source_file_index>
1721

> <i_lp_mmshare_version>
43012

> <i_f3d_flags>
0

> <s_epik_input>
W0NIM11PYzFuW2NIXVtjSF1bY0hdYzFbTkhdQyg9TylbTkhdW0NASF0oW0NIMl1bQ0gyXTIpW0NAQEhdKE4yMylbQ0gyXVtDSDJdW0NIMl1bQ0gyXTM=

> <s_epik_cmdline>
J2VwaWtfcHl0aG9uJywgJy1waCcsICc3LjAnLCAnLXRuJywgJzgnLCAnLW1hJywgJzIwMCcsICctbWV0YWxfYmluZGluZycsICctaW1hZScsICc8aW5maWxlLm1hZT4nLCAnLW9tYWUnLCAnPG91dGZpbGUubWFlPic=

> <r_lp_tautomer_probability>
1

> <r_epik_Ionization_Penalty>
0.00104793

> <r_epik_Ionization_Penalty_Charging>
0.000974069

> <r_epik_Ionization_Penalty_Neutral>
7.38649e-05

> <r_epik_State_Penalty>
0.000633842

> <r_epik_Charging_Adjusted_Penalty>
0.00160791

> <i_epik_Tot_Q>
1

> <i_epik_Tot_abs_Q>
1

> <r_epik_Metal_State_Penalty>
-0

> <b_epik_Metal_Only>
0

> <s_lp_Force_Field>
OPLS_2005

> <r_lp_Energy>
37.3569

> <b_lp_Chiralities_Consistent>
1

> <s_lp_Variant>
AV-unprocessed.smi:1721-6

> <Gold.Version>
5.8.1

> <Gold.Id.Protein>
6NUR|6NUR_protein|mol2

> <Gold.PLP.Fitness>
43.6622

> <Gold.PLP.PLP>
-34.0955

> <Gold.PLP.part.hbond>
-2.2280

> <Gold.PLP.part.metal>
0.0000

> <Gold.PLP.part.buried>
1.5240

> <Gold.PLP.part.nonpolar>
-32.9603

> <Gold.PLP.part.repulsive>
1.1681

> <Gold.PLP.ligand.clash>
0.0000

> <Gold.PLP.ligand.torsion>
0.0814

> <Gold.PLP.Chemscore.Hbond>
2.2400

> <Gold.PLP.Chemscore.CHOScore>
1.0000

> <Gold.PLP.Chemscore.Metal>
0.0000

> <Gold.Chemscore.Hbonds>
donor molecule, donor type, donor heavy atom, donor atom, acceptor molecule, acceptor atom, score
      L1  H     9    28       P1  7948  0.70
      L1  H    12    29       P1  7948  0.70
      P1  H  7989  7998       L1     4  0.86
      L1  C     5    25       P1  8028  1.00

> <Gold.PLP.Chemscore.Internal.Correction>
0.0096

> <Gold.Rescore>
     Score         DG    S(hbond)    S(metal)    S(lipo)     H(rot)  DE(clash)    DE(int)     intcor
     16.60     -18.19       1.82        0.00      83.85       1.25       0.48       1.10       ----

> <Gold.Chemscore.Fitness>
16.6030

> <Gold.Chemscore.DG>
-18.1852

> <Gold.Chemscore.ZeroCoef>
-5.4800

> <Gold.Chemscore.Hbond>
1.8229

> <Gold.Chemscore.Metal>
0.0000

> <Gold.Chemscore.Lipo>
83.8470

> <Gold.Chemscore.Internal_Hbond>
0.0000

> <Gold.Chemscore.DEClash>
0.4789

> <Gold.Chemscore.DEInternal>
1.1033

> <Gold.Chemscore.Rot>
1.2474

> <Gold.Chemscore.Internal.Correction>
   9.000000E+99

> <Gold.Chemscore.Hbonds>
donor molecule, donor type, donor heavy atom, donor atom, acceptor molecule, acceptor atom, score
      L1  H     9    28       P1  7948  0.71
      L1  H    12    29       P1  7948  0.65
      P1  H  7989  7998       L1     4  0.24

> <Gold.Chemscore.Hbond.Weighted>
-6.0885

> <Gold.Chemscore.Metal.Weighted>
-0.0000

> <Gold.Chemscore.Lipo.Weighted>
-9.8101

> <Gold.Chemscore.Internal_Hbond.Weighted>
0.0000

> <Gold.Chemscore.DEClash.Weighted>
0.4789

> <Gold.Chemscore.DEInternal.Weighted>
1.1033

> <Gold.Chemscore.Rot.Weighted>
3.1934

> <Gold.Chemscore.Internal.Correction.Weighted>
   9.000000E+99

> <Gold.Protein.RotatedTorsions>
[ 6907 6896 6895 6894 ] final    3.28 input  -60.11 | X-H torsion
[ 7974 7965 7964 7962 ] final  106.76 input  175.53 | X-H torsion
[ 8008 7997 7996 7995 ] final  -40.03 input   59.86 | X-H torsion
[ 10167 10162 10161 10158 ] final   43.11 input  -65.29 | X-H torsion
[ 10718 10713 10712 10709 ] final   58.80 input   66.30 | X-H torsion
[ 10763 10752 10751 10750 ] final  -72.21 input  -60.55 | X-H torsion
[ 11005 11000 10999 10996 ] final  -64.29 input  -57.11 | X-H torsion

> <Gold.Protein.ActiveResidues>
 VAL166  LYS551  ARG553  GLY616  TRP617  ASP618  TYR619  PRO620  LYS621  CYS622 
 ASP623  PHE694  ASN695  SER759  ASP760  ASP761  ALA762  ILE779  LEU786  VAL792 
 PHE793  MET794  SER795  GLU796  ALA797  LYS798  CYS799  TRP800  GLU811  SER814 

> <Gold.Protein.RotatedAtoms>
  151.6225  135.1031  160.0104 H   0  0  0  0  0  0  0  0  0  0  0  0  # atno 6907 bound_to 6896
  152.4150  133.7019  159.6439 H   0  0  0  0  0  0  0  0  0  0  0  0  # atno 6908 bound_to 6896
  150.8038  133.8473  159.3236 H   0  0  0  0  0  0  0  0  0  0  0  0  # atno 6909 bound_to 6896
  145.3024  139.2565  143.3807 H   0  0  0  0  0  0  0  0  0  0  0  0  # atno 7974 bound_to 7965
  154.4016  140.1536  156.2961 H   0  0  0  0  0  0  0  0  0  0  0  0  # atno 8008 bound_to 7997
  155.8742  140.3447  155.5821 H   0  0  0  0  0  0  0  0  0  0  0  0  # atno 8009 bound_to 7997
  155.7740  140.0834  157.2084 H   0  0  0  0  0  0  0  0  0  0  0  0  # atno 8010 bound_to 7997
  140.3476  144.2391  150.6149 H   0  0  0  0  0  0  0  0  0  0  0  0  # atno 10167 bound_to 10162
  157.5625  130.8846  149.9134 H   0  0  0  0  0  0  0  0  0  0  0  0  # atno 10718 bound_to 10713
  154.4425  135.5937  153.6139 H   0  0  0  0  0  0  0  0  0  0  0  0  # atno 10763 bound_to 10752
  152.9806  135.6001  154.3704 H   0  0  0  0  0  0  0  0  0  0  0  0  # atno 10764 bound_to 10752
  154.3556  135.2841  155.2327 H   0  0  0  0  0  0  0  0  0  0  0  0  # atno 10765 bound_to 10752
  141.1420  133.6664  156.5811 H   0  0  0  0  0  0  0  0  0  0  0  0  # atno 11005 bound_to 11000
  146.3147  140.3541  142.8659 LP  0  0  0  0  0  0  0  0  0  0  0  0  # atno 17320 bound_to 7965
  144.9083  140.7726  143.5823 LP  0  0  0  0  0  0  0  0  0  0  0  0  # atno 17321 bound_to 7965
  140.5249  143.2257  151.8330 LP  0  0  0  0  0  0  0  0  0  0  0  0  # atno 17342 bound_to 10162
  139.4831  144.4791  151.9329 LP  0  0  0  0  0  0  0  0  0  0  0  0  # atno 17343 bound_to 10162
  156.0676  130.3690  150.0844 LP  0  0  0  0  0  0  0  0  0  0  0  0  # atno 17370 bound_to 10713
  156.9007  130.9619  151.3576 LP  0  0  0  0  0  0  0  0  0  0  0  0  # atno 17371 bound_to 10713
  140.3837  134.7501  157.4677 LP  0  0  0  0  0  0  0  0  0  0  0  0  # atno 17394 bound_to 11000
  140.0618  134.5985  155.8740 LP  0  0  0  0  0  0  0  0  0  0  0  0  # atno 17395 bound_to 11000

$$$$
