AV-unprocessed.smi:125|AV-procd|sdf|1149|dock6
  -GOLD-   2262018283D 1   1.00000     0.00000
 Structure written by MMmdl.
 59 62  0  0  0  0  0  0  0  0  1 V2000
  153.1582  130.9267  165.8856 C   0  0  0  0  0  0  0  0  0  0  0  0
  153.5940  132.0973  165.0201 C   0  0  0  0  0  0  0  0  0  0  0  0
  153.1459  133.3894  165.3657 C   0  0  0  0  0  0  0  0  0  0  0  0
  153.5157  134.5111  164.6008 C   0  0  0  0  0  0  0  0  0  0  0  0
  154.3380  134.3560  163.4608 C   0  0  0  0  0  0  0  0  0  0  0  0
  154.7714  135.4377  162.6472 N   0  0  0  0  0  0  0  0  0  0  0  0
  154.5117  136.7514  162.7797 C   0  0  0  0  0  0  0  0  0  0  0  0
  153.7647  137.2339  163.6315 O   0  0  0  0  0  0  0  0  0  0  0  0
  155.1792  137.6592  161.7354 C   0  0  0  0  0  0  0  0  0  0  0  0
  154.2139  138.5112  161.0070 N   0  0  0  0  0  0  0  0  0  0  0  0
  153.1961  137.8782  160.2509 C   0  0  0  0  0  0  0  0  0  0  0  0
  153.1078  136.6501  160.2022 O   0  0  0  0  0  0  0  0  0  0  0  0
  152.2836  138.7729  159.5482 C   0  0  0  0  0  0  0  0  0  0  0  0
  151.2748  138.2600  158.8235 F   0  0  0  0  0  0  0  0  0  0  0  0
  152.4332  140.1113  159.6178 C   0  0  0  0  0  0  0  0  0  0  0  0
  153.4435  140.7154  160.3431 N   0  0  0  0  0  0  0  0  0  0  0  0
  153.5783  142.2211  160.3985 C   0  0  2  0  0  0  0  0  0  0  0  0
  152.3249  142.8421  161.0251 C   0  0  0  0  0  0  0  0  0  0  0  0
  151.5011  143.1828  159.8023 C   0  0  0  0  0  0  0  0  0  0  0  0
  152.5845  143.5699  158.8025 C   0  0  0  0  0  0  0  0  0  0  0  0
  153.6889  142.7177  159.0953 O   0  0  0  0  0  0  0  0  0  0  0  0
  154.3568  139.9183  161.0670 C   0  0  0  0  0  0  0  0  0  0  0  0
  155.2539  140.4375  161.7344 O   0  0  0  0  0  0  0  0  0  0  0  0
  154.8020  133.0701  163.1206 C   0  0  0  0  0  0  0  0  0  0  0  0
  154.4344  131.9435  163.8866 C   0  0  0  0  0  0  0  0  0  0  0  0
  155.0521  130.3368  163.3559 S   0  0  0  0  0  0  0  0  0  0  0  0
  153.9534  129.5671  162.7516 O   0  0  0  0  0  0  0  0  0  0  0  0
  156.2947  130.5559  162.5994 O   0  0  0  0  0  0  0  0  0  0  0  0
  155.4518  129.5688  164.8555 N   0  0  0  0  0  0  0  0  0  0  0  0
  156.2448  130.2964  165.8593 C   0  0  0  0  0  0  0  0  0  0  0  0
  156.1240  129.6334  167.2416 C   0  0  0  0  0  0  0  0  0  0  0  0
  156.4221  128.2480  167.1542 O   0  0  0  0  0  0  0  0  0  0  0  0
  155.4967  127.5695  166.3182 C   0  0  0  0  0  0  0  0  0  0  0  0
  155.5923  128.1056  164.8814 C   0  0  0  0  0  0  0  0  0  0  0  0
  152.6029  131.2701  166.7589 H   0  0  0  0  0  0  0  0  0  0  0  0
  154.0154  130.3642  166.2520 H   0  0  0  0  0  0  0  0  0  0  0  0
  152.5041  130.2561  165.3306 H   0  0  0  0  0  0  0  0  0  0  0  0
  152.5142  133.5310  166.2303 H   0  0  0  0  0  0  0  0  0  0  0  0
  153.1663  135.4810  164.9186 H   0  0  0  0  0  0  0  0  0  0  0  0
  155.3178  135.1776  161.8389 H   0  0  0  0  0  0  0  0  0  0  0  0
  155.9362  138.2760  162.2235 H   0  0  0  0  0  0  0  0  0  0  0  0
  155.7528  137.0275  161.0558 H   0  0  0  0  0  0  0  0  0  0  0  0
  151.7247  140.7249  159.0814 H   0  0  0  0  0  0  0  0  0  0  0  0
  154.4981  142.4282  160.9474 H   0  0  0  0  0  0  0  0  0  0  0  0
  151.8293  142.1670  161.7236 H   0  0  0  0  0  0  0  0  0  0  0  0
  152.6146  143.7501  161.5554 H   0  0  0  0  0  0  0  0  0  0  0  0
  150.9596  142.3030  159.4534 H   0  0  0  0  0  0  0  0  0  0  0  0
  150.7796  143.9805  159.9800 H   0  0  0  0  0  0  0  0  0  0  0  0
  152.2597  143.4626  157.7674 H   0  0  0  0  0  0  0  0  0  0  0  0
  152.8909  144.6050  158.9575 H   0  0  0  0  0  0  0  0  0  0  0  0
  155.4417  132.9538  162.2584 H   0  0  0  0  0  0  0  0  0  0  0  0
  157.2863  130.3124  165.5369 H   0  0  0  0  0  0  0  0  0  0  0  0
  155.9107  131.3316  165.9228 H   0  0  0  0  0  0  0  0  0  0  0  0
  156.8170  130.1010  167.9411 H   0  0  0  0  0  0  0  0  0  0  0  0
  155.1222  129.7742  167.6506 H   0  0  0  0  0  0  0  0  0  0  0  0
  155.7220  126.5031  166.3336 H   0  0  0  0  0  0  0  0  0  0  0  0
  154.4838  127.6839  166.7076 H   0  0  0  0  0  0  0  0  0  0  0  0
  154.8202  127.6506  164.2607 H   0  0  0  0  0  0  0  0  0  0  0  0
  156.5548  127.8381  164.4442 H   0  0  0  0  0  0  0  0  0  0  0  0
  1  2  1  0  0  0  0
  1 35  1  0  0  0  0
  1 36  1  0  0  0  0
  1 37  1  0  0  0  0
  2 25  1  0  0  0  0
  2  3  2  0  0  0  0
  3  4  1  0  0  0  0
  3 38  1  0  0  0  0
  4  5  2  0  0  0  0
  4 39  1  0  0  0  0
  5  6  1  0  0  0  0
  5 24  1  0  0  0  0
  6  7  1  0  0  0  0
  6 40  1  0  0  0  0
  7  8  2  0  0  0  0
  7  9  1  0  0  0  0
  9 10  1  0  0  0  0
  9 41  1  0  0  0  0
  9 42  1  0  0  0  0
 10 22  1  0  0  0  0
 10 11  1  0  0  0  0
 11 12  2  0  0  0  0
 11 13  1  0  0  0  0
 13 14  1  0  0  0  0
 13 15  2  0  0  0  0
 15 16  1  0  0  0  0
 15 43  1  0  0  0  0
 16 17  1  0  0  0  0
 16 22  1  0  0  0  0
 17 21  1  0  0  0  0
 17 18  1  0  0  0  0
 17 44  1  0  0  0  0
 18 19  1  0  0  0  0
 18 45  1  0  0  0  0
 18 46  1  0  0  0  0
 19 20  1  0  0  0  0
 19 47  1  0  0  0  0
 19 48  1  0  0  0  0
 20 21  1  0  0  0  0
 20 49  1  0  0  0  0
 20 50  1  0  0  0  0
 22 23  2  0  0  0  0
 24 25  2  0  0  0  0
 24 51  1  0  0  0  0
 25 26  1  0  0  0  0
 26 27  2  0  0  0  0
 26 28  2  0  0  0  0
 26 29  1  0  0  0  0
 29 34  1  0  0  0  0
 29 30  1  0  0  0  0
 30 31  1  0  0  0  0
 30 52  1  0  0  0  0
 30 53  1  0  0  0  0
 31 32  1  0  0  0  0
 31 54  1  0  0  0  0
 31 55  1  0  0  0  0
 32 33  1  0  0  0  0
 33 34  1  0  0  0  0
 33 56  1  0  0  0  0
 33 57  1  0  0  0  0
 34 58  1  0  0  0  0
 34 59  1  0  0  0  0
M  END
> <s_m_source_file>
AV-unprocessed.smi

> <i_m_source_file_index>
125

> <i_lp_mmshare_version>
43012

> <i_f3d_flags>
0

> <s_epik_input>
W0NIMl0xW0NIMl1PW0NIMl1bQ0gyXU4xUyg9TykoPU8pYzJbY0hdYyhbY0hdW2NIXWMyW0NIM10pW05IXUMoPU8pW0NIMl1uM2MoPU8pYyhGKVtjSF1uKGMzPU8pW0NAQEhdNFtDSDJdW0NIMl1bQ0gyXU80

> <s_epik_cmdline>
J2VwaWtfcHl0aG9uJywgJy1waCcsICc3LjAnLCAnLXRuJywgJzgnLCAnLW1hJywgJzIwMCcsICctbWV0YWxfYmluZGluZycsICctaW1hZScsICc8aW5maWxlLm1hZT4nLCAnLW9tYWUnLCAnPG91dGZpbGUubWFlPic=

> <r_lp_tautomer_probability>
1

> <r_epik_Ionization_Penalty>
4.12263e-06

> <r_epik_Ionization_Penalty_Charging>
3.88729e-08

> <r_epik_Ionization_Penalty_Neutral>
4.08376e-06

> <r_epik_State_Penalty>
-0

> <r_epik_Charging_Adjusted_Penalty>
3.88729e-08

> <i_epik_Tot_Q>
0

> <i_epik_Tot_abs_Q>
0

> <r_epik_Metal_State_Penalty>
-0

> <b_epik_Metal_Only>
0

> <s_epik_Chemistry_Notes>
This compound contains an acetal/aminal-like group ( X-CH(R)-Y where X, Y are N, S, or O) that may be acid/base labile, releasing an aldehyde.

> <s_lp_Force_Field>
OPLS_2005

> <r_lp_Energy>
38.613

> <b_lp_Chiralities_Consistent>
1

> <s_lp_Variant>
AV-unprocessed.smi:125-1

> <Gold.Version>
5.8.1

> <Gold.Id.Protein>
6NUR|6NUR_protein|mol2

> <Gold.PLP.Fitness>
48.5616

> <Gold.PLP.PLP>
-46.6498

> <Gold.PLP.part.hbond>
-1.7517

> <Gold.PLP.part.metal>
0.0000

> <Gold.PLP.part.buried>
-5.1377

> <Gold.PLP.part.nonpolar>
-40.9586

> <Gold.PLP.part.repulsive>
0.0874

> <Gold.PLP.ligand.clash>
0.0000

> <Gold.PLP.ligand.torsion>
2.3482

> <Gold.PLP.Chemscore.Hbond>
0.8450

> <Gold.PLP.Chemscore.CHOScore>
0.0000

> <Gold.PLP.Chemscore.Metal>
0.0000

> <Gold.Chemscore.Hbonds>
donor molecule, donor type, donor heavy atom, donor atom, acceptor molecule, acceptor atom, score
      P1  H  6896  6908       L1    12  1.00

> <Gold.PLP.Chemscore.Internal.Correction>
4.0732

> <Gold.Rescore>
     Score         DG    S(hbond)    S(metal)    S(lipo)     H(rot)  DE(clash)    DE(int)     intcor
     11.34     -17.64       0.96        0.00     112.66       1.65       0.29       6.02       ----

> <Gold.Chemscore.Fitness>
11.3380

> <Gold.Chemscore.DG>
-17.6440

> <Gold.Chemscore.ZeroCoef>
-5.4800

> <Gold.Chemscore.Hbond>
0.9607

> <Gold.Chemscore.Metal>
0.0000

> <Gold.Chemscore.Lipo>
112.6636

> <Gold.Chemscore.Internal_Hbond>
0.0000

> <Gold.Chemscore.DEClash>
0.2871

> <Gold.Chemscore.DEInternal>
6.0189

> <Gold.Chemscore.Rot>
1.6510

> <Gold.Chemscore.Internal.Correction>
   9.000000E+99

> <Gold.Chemscore.Hbonds>
donor molecule, donor type, donor heavy atom, donor atom, acceptor molecule, acceptor atom, score
      P1  H  6896  6908       L1    12  1.00

> <Gold.Chemscore.Hbond.Weighted>
-3.2089

> <Gold.Chemscore.Metal.Weighted>
-0.0000

> <Gold.Chemscore.Lipo.Weighted>
-13.1816

> <Gold.Chemscore.Internal_Hbond.Weighted>
0.0000

> <Gold.Chemscore.DEClash.Weighted>
0.2871

> <Gold.Chemscore.DEInternal.Weighted>
6.0189

> <Gold.Chemscore.Rot.Weighted>
4.2265

> <Gold.Chemscore.Internal.Correction.Weighted>
   9.000000E+99

> <Gold.Protein.RotatedTorsions>
[ 6907 6896 6895 6894 ] final  -84.07 input  -60.11 | X-H torsion
[ 7974 7965 7964 7962 ] final   35.64 input  175.53 | X-H torsion
[ 8008 7997 7996 7995 ] final  179.11 input   59.86 | X-H torsion
[ 10167 10162 10161 10158 ] final  165.38 input  -65.29 | X-H torsion
[ 10718 10713 10712 10709 ] final   58.18 input   66.30 | X-H torsion
[ 10763 10752 10751 10750 ] final  163.63 input  -60.55 | X-H torsion
[ 11005 11000 10999 10996 ] final -109.43 input  -57.11 | X-H torsion

> <Gold.Protein.ActiveResidues>
 VAL166  LYS551  ARG553  GLY616  TRP617  ASP618  TYR619  PRO620  LYS621  CYS622 
 ASP623  PHE694  ASN695  SER759  ASP760  ASP761  ALA762  ILE779  LEU786  VAL792 
 PHE793  MET794  SER795  GLU796  ALA797  LYS798  CYS799  TRP800  GLU811  SER814 

> <Gold.Protein.RotatedAtoms>
  150.6879  134.3415  159.4869 H   0  0  0  0  0  0  0  0  0  0  0  0  # atno 6907 bound_to 6896
  152.1268  134.9162  160.0570 H   0  0  0  0  0  0  0  0  0  0  0  0  # atno 6908 bound_to 6896
  152.0347  133.3917  159.4349 H   0  0  0  0  0  0  0  0  0  0  0  0  # atno 6909 bound_to 6896
  146.1269  139.6117  142.9253 H   0  0  0  0  0  0  0  0  0  0  0  0  # atno 7974 bound_to 7965
  156.0471  140.1317  157.0091 H   0  0  0  0  0  0  0  0  0  0  0  0  # atno 8008 bound_to 7997
  154.4417  140.1018  156.6392 H   0  0  0  0  0  0  0  0  0  0  0  0  # atno 8009 bound_to 7997
  155.5579  140.3464  155.4486 H   0  0  0  0  0  0  0  0  0  0  0  0  # atno 8010 bound_to 7997
  139.4905  144.4138  151.9268 H   0  0  0  0  0  0  0  0  0  0  0  0  # atno 10167 bound_to 10162
  157.5575  130.8811  149.9059 H   0  0  0  0  0  0  0  0  0  0  0  0  # atno 10718 bound_to 10713
  154.2966  135.2760  155.2630 H   0  0  0  0  0  0  0  0  0  0  0  0  # atno 10763 bound_to 10752
  154.5086  135.5789  153.6590 H   0  0  0  0  0  0  0  0  0  0  0  0  # atno 10764 bound_to 10752
  152.9906  135.6175  154.3134 H   0  0  0  0  0  0  0  0  0  0  0  0  # atno 10765 bound_to 10752
  141.0848  133.9158  157.2209 H   0  0  0  0  0  0  0  0  0  0  0  0  # atno 11005 bound_to 11000
  145.5347  141.0425  143.2364 LP  0  0  0  0  0  0  0  0  0  0  0  0  # atno 17320 bound_to 7965
  144.7651  139.6865  143.7218 LP  0  0  0  0  0  0  0  0  0  0  0  0  # atno 17321 bound_to 7965
  140.3580  144.3007  150.5938 LP  0  0  0  0  0  0  0  0  0  0  0  0  # atno 17342 bound_to 10162
  140.5427  143.2220  151.8057 LP  0  0  0  0  0  0  0  0  0  0  0  0  # atno 17343 bound_to 10162
  156.0632  130.3696  150.0936 LP  0  0  0  0  0  0  0  0  0  0  0  0  # atno 17370 bound_to 10713
  156.9103  130.9649  151.3564 LP  0  0  0  0  0  0  0  0  0  0  0  0  # atno 17371 bound_to 10713
  139.9665  135.0140  156.9401 LP  0  0  0  0  0  0  0  0  0  0  0  0  # atno 17394 bound_to 11000
  140.5387  134.0741  155.7335 LP  0  0  0  0  0  0  0  0  0  0  0  0  # atno 17395 bound_to 11000

$$$$
