AV-unprocessed.smi:701|AV-procd|sdf|3413|dock1
  -GOLD-   22720 0393D 1   1.00000     0.00000
 Structure written by MMmdl.
 48 50  0  0  0  0  0  0  0  0  2 V2000
  151.8775  142.3469  158.5196 C   0  0  0  0  0  0  0  0  0  0  0  0
  150.7946  141.7209  157.6385 C   0  0  0  0  0  0  0  0  0  0  0  0
  150.5446  140.4033  158.0974 O   0  0  0  0  0  0  0  0  0  0  0  0
  151.6796  139.5506  158.0100 C   0  0  1  0  0  0  0  0  0  0  0  0
  151.8604  138.6945  159.2695 C   0  0  0  0  0  0  0  0  0  0  0  0
  151.0359  137.5992  158.5781 C   0  0  1  0  0  0  0  0  0  0  0  0
  149.6168  137.6878  158.9238 N   0  0  0  0  0  0  0  0  0  0  0  0
  148.8248  136.6369  159.1778 C   0  0  0  0  0  0  0  0  0  0  0  0
  149.2229  135.4716  159.1369 O   0  0  0  0  0  0  0  0  0  0  0  0
  147.3770  136.9695  159.5652 C   0  0  0  0  0  0  0  0  0  0  0  0
  146.8250  136.0661  160.5876 N   0  0  0  0  0  0  0  0  0  0  0  0
  145.7333  135.2593  160.2216 C   0  0  0  0  0  0  0  0  0  0  0  0
  145.1536  134.4109  161.0916 C   0  0  0  0  0  0  0  0  0  0  0  0
  145.6878  134.3401  162.4459 C   0  0  0  0  0  0  0  0  0  0  0  0
  145.1746  133.5669  163.2523 O   0  0  0  0  0  0  0  0  0  0  0  0
  146.7454  135.1465  162.7541 N   0  5  0  0  0  0  0  0  0  0  0  0
  147.3214  136.0089  161.8599 C   0  0  0  0  0  0  0  0  0  0  0  0
  148.2707  136.7333  162.1612 O   0  0  0  0  0  0  0  0  0  0  0  0
  151.3860  138.2524  157.2114 C   0  0  0  0  0  0  0  0  0  0  0  0
  150.2779  138.3243  156.1369 C   0  0  0  0  0  0  0  0  0  0  0  0
  150.6961  139.1406  154.9027 C   0  0  0  0  0  0  0  0  0  0  0  0
  151.9592  138.5589  154.2569 C   0  0  0  0  0  0  0  0  0  0  0  0
  153.0879  138.4151  155.2845 C   0  0  0  0  0  0  0  0  0  0  0  0
  152.6199  137.6300  156.5228 C   0  0  0  0  0  0  0  0  0  0  0  0
  152.0994  143.3654  158.2008 H   0  0  0  0  0  0  0  0  0  0  0  0
  152.8020  141.7712  158.4703 H   0  0  0  0  0  0  0  0  0  0  0  0
  151.5602  142.3841  159.5621 H   0  0  0  0  0  0  0  0  0  0  0  0
  149.8809  142.3145  157.6903 H   0  0  0  0  0  0  0  0  0  0  0  0
  151.1237  141.7118  156.5990 H   0  0  0  0  0  0  0  0  0  0  0  0
  152.5825  140.0722  157.6897 H   0  0  0  0  0  0  0  0  0  0  0  0
  152.8979  138.3990  159.4303 H   0  0  0  0  0  0  0  0  0  0  0  0
  151.4247  139.1034  160.1817 H   0  0  0  0  0  0  0  0  0  0  0  0
  151.4532  136.5985  158.7021 H   0  0  0  0  0  0  0  0  0  0  0  0
  149.2166  138.6127  158.9864 H   0  0  0  0  0  0  0  0  0  0  0  0
  147.3488  138.0002  159.9209 H   0  0  0  0  0  0  0  0  0  0  0  0
  146.7519  136.9598  158.6704 H   0  0  0  0  0  0  0  0  0  0  0  0
  145.3948  135.3789  159.2029 H   0  0  0  0  0  0  0  0  0  0  0  0
  144.3124  133.8015  160.7960 H   0  0  0  0  0  0  0  0  0  0  0  0
  149.9998  137.3174  155.8228 H   0  0  0  0  0  0  0  0  0  0  0  0
  149.3648  138.7637  156.5385 H   0  0  0  0  0  0  0  0  0  0  0  0
  149.8838  139.1594  154.1756 H   0  0  0  0  0  0  0  0  0  0  0  0
  150.8750  140.1769  155.1924 H   0  0  0  0  0  0  0  0  0  0  0  0
  151.7303  137.5808  153.8322 H   0  0  0  0  0  0  0  0  0  0  0  0
  152.2831  139.1888  153.4279 H   0  0  0  0  0  0  0  0  0  0  0  0
  153.9418  137.9142  154.8278 H   0  0  0  0  0  0  0  0  0  0  0  0
  153.4373  139.4039  155.5827 H   0  0  0  0  0  0  0  0  0  0  0  0
  153.4535  137.5552  157.2218 H   0  0  0  0  0  0  0  0  0  0  0  0
  152.3989  136.6032  156.2280 H   0  0  0  0  0  0  0  0  0  0  0  0
  1  2  1  0  0  0  0
  1 25  1  0  0  0  0
  1 26  1  0  0  0  0
  1 27  1  0  0  0  0
  2  3  1  0  0  0  0
  2 28  1  0  0  0  0
  2 29  1  0  0  0  0
  3  4  1  0  0  0  0
  4 19  1  0  0  0  0
  4  5  1  0  0  0  0
  4 30  1  0  0  0  0
  5  6  1  0  0  0  0
  5 31  1  0  0  0  0
  5 32  1  0  0  0  0
  6  7  1  0  0  0  0
  6 19  1  0  0  0  0
  6 33  1  0  0  0  0
  7  8  1  0  0  0  0
  7 34  1  0  0  0  0
  8  9  2  0  0  0  0
  8 10  1  0  0  0  0
 10 11  1  0  0  0  0
 10 35  1  0  0  0  0
 10 36  1  0  0  0  0
 11 17  1  0  0  0  0
 11 12  1  0  0  0  0
 12 13  2  0  0  0  0
 12 37  1  0  0  0  0
 13 14  1  0  0  0  0
 13 38  1  0  0  0  0
 14 15  2  0  0  0  0
 14 16  1  0  0  0  0
 16 17  1  0  0  0  0
 17 18  2  0  0  0  0
 19 24  1  0  0  0  0
 19 20  1  0  0  0  0
 20 21  1  0  0  0  0
 20 39  1  0  0  0  0
 20 40  1  0  0  0  0
 21 22  1  0  0  0  0
 21 41  1  0  0  0  0
 21 42  1  0  0  0  0
 22 23  1  0  0  0  0
 22 43  1  0  0  0  0
 22 44  1  0  0  0  0
 23 24  1  0  0  0  0
 23 45  1  0  0  0  0
 23 46  1  0  0  0  0
 24 47  1  0  0  0  0
 24 48  1  0  0  0  0
M  CHG  1  16  -1
M  END
> <s_m_source_file>
AV-unprocessed.smi

> <i_m_source_file_index>
701

> <i_lp_mmshare_version>
43012

> <i_f3d_flags>
0

> <s_epik_input>
W0NIMl0xW0NIMl1bQ0gyXVtDSDJdW0NIMl1DMTJbQ0BIXShPW0NIMl1bQ0gzXSlbQ0gyXVtDQEhdMltOSF1DKD1PKVtDSDJdbjNbY0hdW2NIXWMoPU8pW25IXWMzPU8=

> <s_epik_cmdline>
J2VwaWtfcHl0aG9uJywgJy1waCcsICc3LjAnLCAnLXRuJywgJzgnLCAnLW1hJywgJzIwMCcsICctbWV0YWxfYmluZGluZycsICctaW1hZScsICc8aW5maWxlLm1hZT4nLCAnLW9tYWUnLCAnPG91dGZpbGUubWFlPic=

> <r_lp_tautomer_probability>
0.999537

> <r_epik_Ionization_Penalty>
3.12423

> <r_epik_Ionization_Penalty_Charging>
2.92877e-08

> <r_epik_Ionization_Penalty_Neutral>
3.12423

> <r_epik_State_Penalty>
3.12332

> <r_epik_Charging_Adjusted_Penalty>
3.12332

> <i_epik_Tot_Q>
-1

> <i_epik_Tot_abs_Q>
1

> <r_epik_Metal_State_Penalty>
0.463873

> <b_epik_Metal_Only>
1

> <s_lp_Force_Field>
OPLS_2005

> <r_lp_Energy>
39.3964

> <b_lp_Chiralities_Consistent>
1

> <s_lp_Variant>
AV-unprocessed.smi:701-6

> <Gold.Version>
5.8.1

> <Gold.Id.Protein>
6NUR|6NUR_protein|mol2

> <Gold.PLP.Fitness>
36.8403

> <Gold.PLP.PLP>
-32.8285

> <Gold.PLP.part.hbond>
-3.0000

> <Gold.PLP.part.metal>
0.0000

> <Gold.PLP.part.buried>
-7.1181

> <Gold.PLP.part.nonpolar>
-23.6372

> <Gold.PLP.part.repulsive>
0.2970

> <Gold.PLP.ligand.clash>
0.0000

> <Gold.PLP.ligand.torsion>
1.1762

> <Gold.PLP.Chemscore.Hbond>
2.0000

> <Gold.PLP.Chemscore.CHOScore>
0.0000

> <Gold.PLP.Chemscore.Metal>
0.0000

> <Gold.Chemscore.Hbonds>
donor molecule, donor type, donor heavy atom, donor atom, acceptor molecule, acceptor atom, score
      P1  H  6896  6908       L1     9  1.00
      P1  H  6931  6943       L1    18  1.00

> <Gold.PLP.Chemscore.Internal.Correction>
0.3643

> <Gold.Rescore>
     Score         DG    S(hbond)    S(metal)    S(lipo)     H(rot)  DE(clash)    DE(int)     intcor
     14.50     -15.84       2.00        0.00      76.15       2.04       0.05       1.28       ----

> <Gold.Chemscore.Fitness>
14.5016

> <Gold.Chemscore.DG>
-15.8363

> <Gold.Chemscore.ZeroCoef>
-5.4800

> <Gold.Chemscore.Hbond>
1.9968

> <Gold.Chemscore.Metal>
0.0000

> <Gold.Chemscore.Lipo>
76.1460

> <Gold.Chemscore.Internal_Hbond>
0.0000

> <Gold.Chemscore.DEClash>
0.0530

> <Gold.Chemscore.DEInternal>
1.2817

> <Gold.Chemscore.Rot>
2.0399

> <Gold.Chemscore.Internal.Correction>
   9.000000E+99

> <Gold.Chemscore.Hbonds>
donor molecule, donor type, donor heavy atom, donor atom, acceptor molecule, acceptor atom, score
      P1  H  6896  6908       L1     9  1.00
      P1  H  6931  6943       L1    18  1.00

> <Gold.Chemscore.Hbond.Weighted>
-6.6694

> <Gold.Chemscore.Metal.Weighted>
-0.0000

> <Gold.Chemscore.Lipo.Weighted>
-8.9091

> <Gold.Chemscore.Internal_Hbond.Weighted>
0.0000

> <Gold.Chemscore.DEClash.Weighted>
0.0530

> <Gold.Chemscore.DEInternal.Weighted>
1.2817

> <Gold.Chemscore.Rot.Weighted>
5.2222

> <Gold.Chemscore.Internal.Correction.Weighted>
   9.000000E+99

> <Gold.Protein.RotatedTorsions>
[ 6907 6896 6895 6894 ] final  175.66 input  -60.11 | X-H torsion
[ 7974 7965 7964 7962 ] final  -55.18 input  175.53 | X-H torsion
[ 8008 7997 7996 7995 ] final -108.71 input   59.86 | X-H torsion
[ 10167 10162 10161 10158 ] final -176.09 input  -65.29 | X-H torsion
[ 10718 10713 10712 10709 ] final  -81.20 input   66.30 | X-H torsion
[ 10763 10752 10751 10750 ] final   30.12 input  -60.55 | X-H torsion
[ 11005 11000 10999 10996 ] final  142.86 input  -57.11 | X-H torsion

> <Gold.Protein.ActiveResidues>
 VAL166  LYS551  ARG553  GLY616  TRP617  ASP618  TYR619  PRO620  LYS621  CYS622 
 ASP623  PHE694  ASN695  SER759  ASP760  ASP761  ALA762  ILE779  LEU786  VAL792 
 PHE793  MET794  SER795  GLU796  ALA797  LYS798  CYS799  TRP800  GLU811  SER814 

> <Gold.Protein.RotatedAtoms>
  151.7326  133.3318  159.3344 H   0  0  0  0  0  0  0  0  0  0  0  0  # atno 6907 bound_to 6896
  150.7606  134.6350  159.6216 H   0  0  0  0  0  0  0  0  0  0  0  0  # atno 6908 bound_to 6896
  152.3582  134.6912  160.0267 H   0  0  0  0  0  0  0  0  0  0  0  0  # atno 6909 bound_to 6896
  145.8772  140.8172  142.9858 H   0  0  0  0  0  0  0  0  0  0  0  0  # atno 7974 bound_to 7965
  154.9484  140.0401  157.2132 H   0  0  0  0  0  0  0  0  0  0  0  0  # atno 8008 bound_to 7997
  154.8002  140.2850  155.5905 H   0  0  0  0  0  0  0  0  0  0  0  0  # atno 8009 bound_to 7997
  156.2960  140.2556  156.2868 H   0  0  0  0  0  0  0  0  0  0  0  0  # atno 8010 bound_to 7997
  139.5547  144.2019  152.1139 H   0  0  0  0  0  0  0  0  0  0  0  0  # atno 10167 bound_to 10162
  156.0055  130.4597  150.3916 H   0  0  0  0  0  0  0  0  0  0  0  0  # atno 10718 bound_to 10713
  153.0390  135.6472  154.0995 H   0  0  0  0  0  0  0  0  0  0  0  0  # atno 10763 bound_to 10752
  154.0705  135.2881  155.3310 H   0  0  0  0  0  0  0  0  0  0  0  0  # atno 10764 bound_to 10752
  154.6597  135.5396  153.8068 H   0  0  0  0  0  0  0  0  0  0  0  0  # atno 10765 bound_to 10752
  140.0509  134.9256  157.1015 H   0  0  0  0  0  0  0  0  0  0  0  0  # atno 11005 bound_to 11000
  144.6726  140.1328  143.7442 LP  0  0  0  0  0  0  0  0  0  0  0  0  # atno 17320 bound_to 7965
  145.9067  139.2462  143.1461 LP  0  0  0  0  0  0  0  0  0  0  0  0  # atno 17321 bound_to 7965
  140.1521  144.5105  150.6681 LP  0  0  0  0  0  0  0  0  0  0  0  0  # atno 17342 bound_to 10162
  140.6818  143.2330  151.5365 LP  0  0  0  0  0  0  0  0  0  0  0  0  # atno 17343 bound_to 10162
  157.1991  131.0433  151.2660 LP  0  0  0  0  0  0  0  0  0  0  0  0  # atno 17370 bound_to 10713
  157.3992  130.7324  149.6754 LP  0  0  0  0  0  0  0  0  0  0  0  0  # atno 17371 bound_to 10713
  140.3919  134.2175  155.7166 LP  0  0  0  0  0  0  0  0  0  0  0  0  # atno 17394 bound_to 11000
  141.1930  133.8161  157.0818 LP  0  0  0  0  0  0  0  0  0  0  0  0  # atno 17395 bound_to 11000

$$$$
