AV-unprocessed.smi:3176|AV-procd|sdf|12125|dock8
  -GOLD-   2272017563D 1   1.00000     0.00000
 Structure written by MMmdl.
 32 33  0  0  0  0  0  0  0  0  1 V2000
  150.2732  139.6336  155.7298 O   0  0  0  0  0  0  0  0  0  0  0  0
  149.7946  140.7474  155.5148 C   0  0  0  0  0  0  0  0  0  0  0  0
  150.0535  141.8122  156.2899 N   0  0  0  0  0  0  0  0  0  0  0  0
  150.8356  141.7906  157.5218 C   0  0  0  0  0  0  0  0  0  0  0  0
  150.8220  143.1472  158.2553 C   0  0  0  0  0  0  0  0  0  0  0  0
  151.5930  143.1347  159.5652 C   0  0  0  0  0  0  0  0  0  0  0  0
  152.2520  141.9651  160.0015 C   0  0  0  0  0  0  0  0  0  0  0  0
  152.9287  141.9959  161.2357 C   0  0  0  0  0  0  0  0  0  0  0  0
  152.9249  143.1908  161.9805 C   0  0  0  0  0  0  0  0  0  0  0  0
  152.2412  144.3057  161.4556 C   0  0  0  0  0  0  0  0  0  0  0  0
  151.5865  144.2858  160.2745 N   0  0  0  0  0  0  0  0  0  0  0  0
  148.8545  140.9724  154.3187 C   0  0  1  0  0  0  0  0  0  0  0  0
  147.6255  140.0442  154.3046 C   0  0  0  0  0  0  0  0  0  0  0  0
  146.5000  140.9452  154.7673 C   0  0  0  0  0  0  0  0  0  0  0  0
  146.9245  142.2833  154.1818 C   0  0  0  0  0  0  0  0  0  0  0  0
  148.3321  142.3042  154.3687 O   0  0  0  0  0  0  0  0  0  0  0  0
  149.6266  142.6916  156.0355 H   0  0  0  0  0  0  0  0  0  0  0  0
  150.4874  140.9943  158.1814 H   0  0  0  0  0  0  0  0  0  0  0  0
  151.8605  141.5386  157.2490 H   0  0  0  0  0  0  0  0  0  0  0  0
  151.2426  143.9171  157.6073 H   0  0  0  0  0  0  0  0  0  0  0  0
  149.7925  143.4503  158.4492 H   0  0  0  0  0  0  0  0  0  0  0  0
  152.2298  141.0613  159.4104 H   0  0  0  0  0  0  0  0  0  0  0  0
  153.4387  141.1184  161.6047 H   0  0  0  0  0  0  0  0  0  0  0  0
  153.4335  143.2517  162.9311 H   0  0  0  0  0  0  0  0  0  0  0  0
  152.2179  145.2381  162.0000 H   0  0  0  0  0  0  0  0  0  0  0  0
  149.4289  140.8450  153.4006 H   0  0  0  0  0  0  0  0  0  0  0  0
  147.4340  139.7075  153.2850 H   0  0  0  0  0  0  0  0  0  0  0  0
  147.7180  139.1537  154.9275 H   0  0  0  0  0  0  0  0  0  0  0  0
  145.5190  140.6190  154.4219 H   0  0  0  0  0  0  0  0  0  0  0  0
  146.4817  140.9990  155.8562 H   0  0  0  0  0  0  0  0  0  0  0  0
  146.7017  142.3256  153.1146 H   0  0  0  0  0  0  0  0  0  0  0  0
  146.4426  143.1305  154.6696 H   0  0  0  0  0  0  0  0  0  0  0  0
  1  2  2  0  0  0  0
  2  3  1  0  0  0  0
  2 12  1  0  0  0  0
  3  4  1  0  0  0  0
  3 17  1  0  0  0  0
  4  5  1  0  0  0  0
  4 18  1  0  0  0  0
  4 19  1  0  0  0  0
  5  6  1  0  0  0  0
  5 20  1  0  0  0  0
  5 21  1  0  0  0  0
  6 11  1  0  0  0  0
  6  7  2  0  0  0  0
  7  8  1  0  0  0  0
  7 22  1  0  0  0  0
  8  9  2  0  0  0  0
  8 23  1  0  0  0  0
  9 10  1  0  0  0  0
  9 24  1  0  0  0  0
 10 11  2  0  0  0  0
 10 25  1  0  0  0  0
 12 16  1  0  0  0  0
 12 13  1  0  0  0  0
 12 26  1  0  0  0  0
 13 14  1  0  0  0  0
 13 27  1  0  0  0  0
 13 28  1  0  0  0  0
 14 15  1  0  0  0  0
 14 29  1  0  0  0  0
 14 30  1  0  0  0  0
 15 16  1  0  0  0  0
 15 31  1  0  0  0  0
 15 32  1  0  0  0  0
M  END
> <s_m_source_file>
AV-unprocessed.smi

> <i_m_source_file_index>
3176

> <i_lp_mmshare_version>
43012

> <i_f3d_flags>
0

> <s_epik_input>
TzFbQ0gyXVtDSDJdW0NIMl1bQ0BIXTFDKD1PKVtOSF1bQ0gyXVtDSDJdYzJbY0hdW2NIXVtjSF1bY0hdbjI=

> <s_epik_cmdline>
J2VwaWtfcHl0aG9uJywgJy1waCcsICc3LjAnLCAnLXRuJywgJzgnLCAnLW1hJywgJzIwMCcsICctbWV0YWxfYmluZGluZycsICctaW1hZScsICc8aW5maWxlLm1hZT4nLCAnLW9tYWUnLCAnPG91dGZpbGUubWFlPic=

> <r_epik_Ionization_Penalty>
0.0282744

> <r_epik_Ionization_Penalty_Charging>
0

> <r_epik_Ionization_Penalty_Neutral>
0.0282744

> <r_epik_State_Penalty>
0.0231919

> <r_epik_Charging_Adjusted_Penalty>
0.0231919

> <i_epik_Tot_Q>
0

> <i_epik_Tot_abs_Q>
0

> <r_epik_Metal_State_Penalty>
0.02213

> <b_epik_Metal_Only>
0

> <s_lp_Force_Field>
OPLS_2005

> <r_lp_Energy>
16.341

> <b_lp_Chiralities_Consistent>
1

> <s_lp_Variant>
AV-unprocessed.smi:3176-2

> <Gold.Version>
5.8.1

> <Gold.Id.Protein>
6NUR|6NUR_protein|mol2

> <Gold.PLP.Fitness>
33.4016

> <Gold.PLP.PLP>
-31.7297

> <Gold.PLP.part.hbond>
-1.4463

> <Gold.PLP.part.metal>
0.0000

> <Gold.PLP.part.buried>
-7.1484

> <Gold.PLP.part.nonpolar>
-27.5888

> <Gold.PLP.part.repulsive>
2.6088

> <Gold.PLP.ligand.clash>
0.0000

> <Gold.PLP.ligand.torsion>
0.0713

> <Gold.PLP.Chemscore.Hbond>
0.6012

> <Gold.PLP.Chemscore.CHOScore>
0.0000

> <Gold.PLP.Chemscore.Metal>
0.0000

> <Gold.Chemscore.Hbonds>
donor molecule, donor type, donor heavy atom, donor atom, acceptor molecule, acceptor atom, score
      L1  H     3    17       P1  8028  0.60

> <Gold.PLP.Chemscore.Internal.Correction>
0.0107

> <Gold.Rescore>
     Score         DG    S(hbond)    S(metal)    S(lipo)     H(rot)  DE(clash)    DE(int)     intcor
     14.88     -16.60       1.10        0.00      96.70       1.52       1.61       0.10       ----

> <Gold.Chemscore.Fitness>
14.8819

> <Gold.Chemscore.DG>
-16.5953

> <Gold.Chemscore.ZeroCoef>
-5.4800

> <Gold.Chemscore.Hbond>
1.1024

> <Gold.Chemscore.Metal>
0.0000

> <Gold.Chemscore.Lipo>
96.7011

> <Gold.Chemscore.Internal_Hbond>
0.0000

> <Gold.Chemscore.DEClash>
1.6103

> <Gold.Chemscore.DEInternal>
0.1031

> <Gold.Chemscore.Rot>
1.5159

> <Gold.Chemscore.Internal.Correction>
   9.000000E+99

> <Gold.Chemscore.Hbonds>
donor molecule, donor type, donor heavy atom, donor atom, acceptor molecule, acceptor atom, score
      L1  H     3    17       P1  8028  0.60

> <Gold.Chemscore.Hbond.Weighted>
-3.6820

> <Gold.Chemscore.Metal.Weighted>
-0.0000

> <Gold.Chemscore.Lipo.Weighted>
-11.3140

> <Gold.Chemscore.Internal_Hbond.Weighted>
0.0000

> <Gold.Chemscore.DEClash.Weighted>
1.6103

> <Gold.Chemscore.DEInternal.Weighted>
0.1031

> <Gold.Chemscore.Rot.Weighted>
3.8807

> <Gold.Chemscore.Internal.Correction.Weighted>
   9.000000E+99

> <Gold.Protein.RotatedTorsions>
[ 6907 6896 6895 6894 ] final -144.49 input  -60.11 | X-H torsion
[ 7974 7965 7964 7962 ] final   -7.29 input  175.53 | X-H torsion
[ 8008 7997 7996 7995 ] final   96.42 input   59.86 | X-H torsion
[ 10167 10162 10161 10158 ] final   52.83 input  -65.29 | X-H torsion
[ 10718 10713 10712 10709 ] final  -85.58 input   66.30 | X-H torsion
[ 10763 10752 10751 10750 ] final  -12.74 input  -60.55 | X-H torsion
[ 11005 11000 10999 10996 ] final -144.30 input  -57.11 | X-H torsion

> <Gold.Protein.ActiveResidues>
 VAL166  LYS551  ARG553  GLY616  TRP617  ASP618  TYR619  PRO620  LYS621  CYS622 
 ASP623  PHE694  ASN695  SER759  ASP760  ASP761  ALA762  ILE779  LEU786  VAL792 
 PHE793  MET794  SER795  GLU796  ALA797  LYS798  CYS799  TRP800  GLU811  SER814 

> <Gold.Protein.RotatedAtoms>
  151.1147  133.5147  159.2604 H   0  0  0  0  0  0  0  0  0  0  0  0  # atno 6907 bound_to 6896
  151.1927  135.0409  159.8849 H   0  0  0  0  0  0  0  0  0  0  0  0  # atno 6908 bound_to 6896
  152.5452  134.0986  159.8361 H   0  0  0  0  0  0  0  0  0  0  0  0  # atno 6909 bound_to 6896
  146.2310  140.2297  142.8340 H   0  0  0  0  0  0  0  0  0  0  0  0  # atno 7974 bound_to 7965
  156.0794  140.3273  155.7675 H   0  0  0  0  0  0  0  0  0  0  0  0  # atno 8008 bound_to 7997
  155.5177  140.0582  157.2930 H   0  0  0  0  0  0  0  0  0  0  0  0  # atno 8009 bound_to 7997
  154.4574  140.1949  156.0358 H   0  0  0  0  0  0  0  0  0  0  0  0  # atno 8010 bound_to 7997
  140.2472  144.3519  150.6360 H   0  0  0  0  0  0  0  0  0  0  0  0  # atno 10167 bound_to 10162
  155.9995  130.4736  150.4584 H   0  0  0  0  0  0  0  0  0  0  0  0  # atno 10718 bound_to 10713
  153.5030  135.7017  153.5822 H   0  0  0  0  0  0  0  0  0  0  0  0  # atno 10763 bound_to 10752
  153.3945  135.3887  155.1946 H   0  0  0  0  0  0  0  0  0  0  0  0  # atno 10764 bound_to 10752
  154.8709  135.3866  154.4502 H   0  0  0  0  0  0  0  0  0  0  0  0  # atno 10765 bound_to 10752
  140.8039  134.2825  157.4968 H   0  0  0  0  0  0  0  0  0  0  0  0  # atno 11005 bound_to 11000
  144.9568  140.8234  143.5538 LP  0  0  0  0  0  0  0  0  0  0  0  0  # atno 17320 bound_to 7965
  145.2263  139.2135  143.5066 LP  0  0  0  0  0  0  0  0  0  0  0  0  # atno 17321 bound_to 7965
  140.6069  143.2168  151.6964 LP  0  0  0  0  0  0  0  0  0  0  0  0  # atno 17342 bound_to 10162
  139.5058  144.3705  152.0475 LP  0  0  0  0  0  0  0  0  0  0  0  0  # atno 17343 bound_to 10162
  157.2610  131.0567  151.2320 LP  0  0  0  0  0  0  0  0  0  0  0  0  # atno 17370 bound_to 10713
  157.3434  130.7045  149.6396 LP  0  0  0  0  0  0  0  0  0  0  0  0  # atno 17371 bound_to 10713
  139.8719  134.9445  156.3882 LP  0  0  0  0  0  0  0  0  0  0  0  0  # atno 17394 bound_to 11000
  140.9267  133.7607  155.9973 LP  0  0  0  0  0  0  0  0  0  0  0  0  # atno 17395 bound_to 11000

$$$$
