AV-unprocessed.smi:3056|AV-procd|sdf|11657|dock1
  -GOLD-   2272017 63D 1   1.00000     0.00000
 Structure written by MMmdl.
 47 48  0  0  0  0  0  0  0  0  1 V2000
  146.6193  139.3571  153.3029 C   0  0  0  0  0  0  0  0  0  0  0  0
  148.0130  139.6194  153.7960 C   0  0  0  0  0  0  0  0  0  0  0  0
  148.5987  140.8710  154.1376 C   0  0  0  0  0  0  0  0  0  0  0  0
  149.8527  140.7582  154.5423 N   0  0  0  0  0  0  0  0  0  0  0  0
  150.1161  139.4339  154.4702 N   0  0  0  0  0  0  0  0  0  0  0  0
  151.4272  138.9215  154.8494 C   0  0  2  0  0  0  0  0  0  0  0  0
  151.4871  137.4011  154.6012 C   0  0  0  0  0  0  0  0  0  0  0  0
  151.8107  139.3046  156.3052 C   0  0  2  0  0  0  0  0  0  0  0  0
  151.0813  138.4560  157.3696 C   0  0  0  0  0  0  0  0  0  0  0  0
  151.4739  140.7113  156.5073 N   0  0  0  0  0  0  0  0  0  0  0  0
  151.9950  141.2402  157.7753 C   0  0  0  0  0  0  0  0  0  0  0  0
  151.7427  142.7469  157.9022 C   0  0  0  0  0  0  0  0  0  0  0  0
  151.0304  143.2810  157.0516 O   0  0  0  0  0  0  0  0  0  0  0  0
  152.2992  143.4419  158.9245 N   0  0  0  0  0  0  0  0  0  0  0  0
  152.1177  144.8689  159.2065 C   0  0  0  0  0  0  0  0  0  0  0  0
  151.3817  145.0023  160.5506 C   0  0  0  0  0  0  0  0  0  0  0  0
  152.1324  144.3513  161.5733 O   0  0  0  0  0  0  0  0  0  0  0  0
  152.3581  142.9656  161.3174 C   0  0  2  0  0  0  0  0  0  0  0  0
  153.1534  142.3841  162.4915 C   0  0  0  0  0  0  0  0  0  0  0  0
  153.1036  142.8134  159.9758 C   0  0  0  0  0  0  0  0  0  0  0  0
  149.0203  138.7251  154.0231 C   0  0  0  0  0  0  0  0  0  0  0  0
  145.9501  140.1904  153.5179 H   0  0  0  0  0  0  0  0  0  0  0  0
  146.1867  138.4709  153.7679 H   0  0  0  0  0  0  0  0  0  0  0  0
  146.5989  139.1981  152.2248 H   0  0  0  0  0  0  0  0  0  0  0  0
  148.1506  141.8532  154.1051 H   0  0  0  0  0  0  0  0  0  0  0  0
  152.1462  139.3926  154.1764 H   0  0  0  0  0  0  0  0  0  0  0  0
  152.4917  137.0077  154.7564 H   0  0  0  0  0  0  0  0  0  0  0  0
  151.2019  137.1620  153.5763 H   0  0  0  0  0  0  0  0  0  0  0  0
  150.8145  136.8595  155.2672 H   0  0  0  0  0  0  0  0  0  0  0  0
  152.8875  139.1647  156.4183 H   0  0  0  0  0  0  0  0  0  0  0  0
  151.3336  137.3992  157.2832 H   0  0  0  0  0  0  0  0  0  0  0  0
  149.9989  138.5454  157.2712 H   0  0  0  0  0  0  0  0  0  0  0  0
  151.3458  138.7521  158.3839 H   0  0  0  0  0  0  0  0  0  0  0  0
  151.8404  141.2412  155.7291 H   0  0  0  0  0  0  0  0  0  0  0  0
  151.5660  140.7225  158.6324 H   0  0  0  0  0  0  0  0  0  0  0  0
  153.0704  141.0610  157.8211 H   0  0  0  0  0  0  0  0  0  0  0  0
  153.0949  145.3496  159.2672 H   0  0  0  0  0  0  0  0  0  0  0  0
  151.5734  145.4081  158.4340 H   0  0  0  0  0  0  0  0  0  0  0  0
  151.2635  146.0532  160.8140 H   0  0  0  0  0  0  0  0  0  0  0  0
  150.3804  144.5728  160.4903 H   0  0  0  0  0  0  0  0  0  0  0  0
  151.3949  142.4552  161.2617 H   0  0  0  0  0  0  0  0  0  0  0  0
  153.3405  141.3194  162.3499 H   0  0  0  0  0  0  0  0  0  0  0  0
  152.6088  142.5035  163.4282 H   0  0  0  0  0  0  0  0  0  0  0  0
  154.1172  142.8819  162.6007 H   0  0  0  0  0  0  0  0  0  0  0  0
  153.3038  141.7589  159.7811 H   0  0  0  0  0  0  0  0  0  0  0  0
  154.0784  143.3012  160.0241 H   0  0  0  0  0  0  0  0  0  0  0  0
  149.0473  137.6517  153.9040 H   0  0  0  0  0  0  0  0  0  0  0  0
  1  2  1  0  0  0  0
  1 22  1  0  0  0  0
  1 23  1  0  0  0  0
  1 24  1  0  0  0  0
  2 21  2  0  0  0  0
  2  3  1  0  0  0  0
  3  4  2  0  0  0  0
  3 25  1  0  0  0  0
  4  5  1  0  0  0  0
  5  6  1  0  0  0  0
  5 21  1  0  0  0  0
  6  7  1  0  0  0  0
  6  8  1  0  0  0  0
  6 26  1  0  0  0  0
  7 27  1  0  0  0  0
  7 28  1  0  0  0  0
  7 29  1  0  0  0  0
  8  9  1  0  0  0  0
  8 10  1  0  0  0  0
  8 30  1  0  0  0  0
  9 31  1  0  0  0  0
  9 32  1  0  0  0  0
  9 33  1  0  0  0  0
 10 11  1  0  0  0  0
 10 34  1  0  0  0  0
 11 12  1  0  0  0  0
 11 35  1  0  0  0  0
 11 36  1  0  0  0  0
 12 13  2  0  0  0  0
 12 14  1  0  0  0  0
 14 20  1  0  0  0  0
 14 15  1  0  0  0  0
 15 16  1  0  0  0  0
 15 37  1  0  0  0  0
 15 38  1  0  0  0  0
 16 17  1  0  0  0  0
 16 39  1  0  0  0  0
 16 40  1  0  0  0  0
 17 18  1  0  0  0  0
 18 19  1  0  0  0  0
 18 20  1  0  0  0  0
 18 41  1  0  0  0  0
 19 42  1  0  0  0  0
 19 43  1  0  0  0  0
 19 44  1  0  0  0  0
 20 45  1  0  0  0  0
 20 46  1  0  0  0  0
 21 47  1  0  0  0  0
M  END
> <s_m_source_file>
AV-unprocessed.smi

> <i_m_source_file_index>
3056

> <i_lp_mmshare_version>
43012

> <i_f3d_flags>
0

> <s_epik_input>
W0NIM11jMVtjSF1ubihbY0hdMSlbQ0BIXShbQ0gzXSlbQ0BIXShbQ0gzXSlbTkhdW0NIMl1DKD1PKU4yW0NIMl1bQ0gyXU9bQ0BASF0oW0NIM10pW0NIMl0y

> <s_epik_cmdline>
J2VwaWtfcHl0aG9uJywgJy1waCcsICc3LjAnLCAnLXRuJywgJzgnLCAnLW1hJywgJzIwMCcsICctbWV0YWxfYmluZGluZycsICctaW1hZScsICc8aW5maWxlLm1hZT4nLCAnLW9tYWUnLCAnPG91dGZpbGUubWFlPic=

> <r_lp_tautomer_probability>
1

> <r_epik_Ionization_Penalty>
0.667689

> <r_epik_Ionization_Penalty_Charging>
0

> <r_epik_Ionization_Penalty_Neutral>
0.667689

> <r_epik_State_Penalty>
0.684601

> <r_epik_Charging_Adjusted_Penalty>
0.684601

> <i_epik_Tot_Q>
0

> <i_epik_Tot_abs_Q>
0

> <r_epik_Metal_State_Penalty>
0.681448

> <b_epik_Metal_Only>
0

> <s_lp_Force_Field>
OPLS_2005

> <r_lp_Energy>
28.8183

> <b_lp_Chiralities_Consistent>
1

> <s_lp_Variant>
AV-unprocessed.smi:3056-13

> <Gold.Version>
5.8.1

> <Gold.Id.Protein>
6NUR|6NUR_protein|mol2

> <Gold.PLP.Fitness>
50.1679

> <Gold.PLP.PLP>
-46.9919

> <Gold.PLP.part.hbond>
-1.0000

> <Gold.PLP.part.metal>
0.0000

> <Gold.PLP.part.buried>
-4.2269

> <Gold.PLP.part.nonpolar>
-44.1665

> <Gold.PLP.part.repulsive>
1.3822

> <Gold.PLP.ligand.clash>
0.0000

> <Gold.PLP.ligand.torsion>
0.3141

> <Gold.PLP.Chemscore.Hbond>
0.2576

> <Gold.PLP.Chemscore.CHOScore>
0.9668

> <Gold.PLP.Chemscore.Metal>
0.0000

> <Gold.Chemscore.Hbonds>
donor molecule, donor type, donor heavy atom, donor atom, acceptor molecule, acceptor atom, score
      P1  H  7989  7998       L1     4  0.10
      L1  C    21    47       P1  7948  1.00

> <Gold.PLP.Chemscore.Internal.Correction>
0.1310

> <Gold.Rescore>
     Score         DG    S(hbond)    S(metal)    S(lipo)     H(rot)  DE(clash)    DE(int)     intcor
     14.80     -16.40       0.61        0.00     112.79       1.68       0.88       0.71       ----

> <Gold.Chemscore.Fitness>
14.8045

> <Gold.Chemscore.DG>
-16.3994

> <Gold.Chemscore.ZeroCoef>
-5.4800

> <Gold.Chemscore.Hbond>
0.6056

> <Gold.Chemscore.Metal>
0.0000

> <Gold.Chemscore.Lipo>
112.7851

> <Gold.Chemscore.Internal_Hbond>
0.0000

> <Gold.Chemscore.DEClash>
0.8819

> <Gold.Chemscore.DEInternal>
0.7129

> <Gold.Chemscore.Rot>
1.6793

> <Gold.Chemscore.Internal.Correction>
   9.000000E+99

> <Gold.Chemscore.Hbond.Weighted>
-2.0226

> <Gold.Chemscore.Metal.Weighted>
-0.0000

> <Gold.Chemscore.Lipo.Weighted>
-13.1959

> <Gold.Chemscore.Internal_Hbond.Weighted>
0.0000

> <Gold.Chemscore.DEClash.Weighted>
0.8819

> <Gold.Chemscore.DEInternal.Weighted>
0.7129

> <Gold.Chemscore.Rot.Weighted>
4.2990

> <Gold.Chemscore.Internal.Correction.Weighted>
   9.000000E+99

> <Gold.Protein.RotatedTorsions>
[ 6907 6896 6895 6894 ] final -135.12 input  -60.11 | X-H torsion
[ 7974 7965 7964 7962 ] final -157.21 input  175.53 | X-H torsion
[ 8008 7997 7996 7995 ] final  -54.33 input   59.86 | X-H torsion
[ 10167 10162 10161 10158 ] final -172.75 input  -65.29 | X-H torsion
[ 10718 10713 10712 10709 ] final  -58.46 input   66.30 | X-H torsion
[ 10763 10752 10751 10750 ] final   67.08 input  -60.55 | X-H torsion
[ 11005 11000 10999 10996 ] final   64.11 input  -57.11 | X-H torsion

> <Gold.Protein.ActiveResidues>
 VAL166  LYS551  ARG553  GLY616  TRP617  ASP618  TYR619  PRO620  LYS621  CYS622 
 ASP623  PHE694  ASN695  SER759  ASP760  ASP761  ALA762  ILE779  LEU786  VAL792 
 PHE793  MET794  SER795  GLU796  ALA797  LYS798  CYS799  TRP800  GLU811  SER814 

> <Gold.Protein.RotatedAtoms>
  150.9941  133.6121  159.2703 H   0  0  0  0  0  0  0  0  0  0  0  0  # atno 6907 bound_to 6896
  151.3331  135.0845  159.9355 H   0  0  0  0  0  0  0  0  0  0  0  0  # atno 6908 bound_to 6896
  152.5254  133.9566  159.7752 H   0  0  0  0  0  0  0  0  0  0  0  0  # atno 6909 bound_to 6896
  144.7558  140.4001  143.6013 H   0  0  0  0  0  0  0  0  0  0  0  0  # atno 7974 bound_to 7965
  154.4159  140.1179  156.5297 H   0  0  0  0  0  0  0  0  0  0  0  0  # atno 8008 bound_to 7997
  155.6618  140.3496  155.4766 H   0  0  0  0  0  0  0  0  0  0  0  0  # atno 8009 bound_to 7997
  155.9707  140.1141  157.0804 H   0  0  0  0  0  0  0  0  0  0  0  0  # atno 8010 bound_to 7997
  139.5727  144.1605  152.1406 H   0  0  0  0  0  0  0  0  0  0  0  0  # atno 10167 bound_to 10162
  156.1133  130.4173  150.0581 H   0  0  0  0  0  0  0  0  0  0  0  0  # atno 10718 bound_to 10713
  153.0169  135.5297  154.6924 H   0  0  0  0  0  0  0  0  0  0  0  0  # atno 10763 bound_to 10752
  154.6055  135.2872  155.0491 H   0  0  0  0  0  0  0  0  0  0  0  0  # atno 10764 bound_to 10752
  154.1533  135.6559  153.5021 H   0  0  0  0  0  0  0  0  0  0  0  0  # atno 10765 bound_to 10752
  139.9980  134.6486  155.9977 H   0  0  0  0  0  0  0  0  0  0  0  0  # atno 11005 bound_to 11000
  145.6784  139.1613  143.2715 LP  0  0  0  0  0  0  0  0  0  0  0  0  # atno 17320 bound_to 7965
  146.1567  140.6848  142.9297 LP  0  0  0  0  0  0  0  0  0  0  0  0  # atno 17321 bound_to 7965
  140.1141  144.5431  150.6905 LP  0  0  0  0  0  0  0  0  0  0  0  0  # atno 17342 bound_to 10162
  140.7010  143.2435  151.4863 LP  0  0  0  0  0  0  0  0  0  0  0  0  # atno 17343 bound_to 10162
  156.8539  130.9468  151.3623 LP  0  0  0  0  0  0  0  0  0  0  0  0  # atno 17370 bound_to 10713
  157.6315  130.8733  149.9283 LP  0  0  0  0  0  0  0  0  0  0  0  0  # atno 17371 bound_to 10713
  141.1620  133.6538  156.4350 LP  0  0  0  0  0  0  0  0  0  0  0  0  # atno 17394 bound_to 11000
  140.4781  134.6691  157.5159 LP  0  0  0  0  0  0  0  0  0  0  0  0  # atno 17395 bound_to 11000

$$$$
