AV-unprocessed.smi:2853|AV-procd|sdf|10974|dock4
  -GOLD-   2272015423D 1   1.00000     0.00000
 Structure written by MMmdl.
 43 44  0  0  0  0  0  0  0  0  1 V2000
  141.6543  134.7705  153.1602 C   0  0  0  0  0  0  0  0  0  0  0  0
  143.1263  134.9918  153.0935 C   0  0  0  0  0  0  0  0  0  0  0  0
  143.9793  134.1359  152.5331 N   0  0  0  0  0  0  0  0  0  0  0  0
  145.3056  134.5731  152.5964 C   0  0  0  0  0  0  0  0  0  0  0  0
  146.3832  133.7039  152.0087 C   0  0  0  0  0  0  0  0  0  0  0  0
  146.4707  132.3087  152.6618 C   0  0  0  0  0  0  0  0  0  0  0  0
  147.8746  132.0019  153.2114 C   0  0  0  0  0  0  0  0  0  0  0  0
  146.0228  131.2170  151.6790 C   0  0  0  0  0  0  0  0  0  0  0  0
  145.4707  135.7874  153.2271 C   0  0  0  0  0  0  0  0  0  0  0  0
  146.6682  136.4056  153.4069 N   0  0  0  0  0  0  0  0  0  0  0  0
  147.0411  137.2735  154.3628 C   0  0  0  0  0  0  0  0  0  0  0  0
  146.3283  137.6718  155.2835 O   0  0  0  0  0  0  0  0  0  0  0  0
  148.3204  137.6466  154.1907 N   0  0  0  0  0  0  0  0  0  0  0  0
  149.1287  138.5559  155.0145 C   0  0  2  0  0  0  0  0  0  0  0  0
  149.3628  137.8631  156.3696 C   0  0  0  0  0  0  0  0  0  0  0  0
  148.4651  139.9289  155.2208 C   0  0  0  0  0  0  0  0  0  0  0  0
  149.4297  140.9166  154.5673 C   0  0  0  0  0  0  0  0  0  0  0  0
  150.6869  140.2726  154.6789 O   0  0  0  0  0  0  0  0  0  0  0  0
  150.4778  138.9083  154.3511 C   0  0  0  0  0  0  0  0  0  0  0  0
  143.9148  136.4152  153.7482 S   0  0  0  0  0  0  0  0  0  0  0  0
  141.3986  133.7723  152.8033 H   0  0  0  0  0  0  0  0  0  0  0  0
  141.1395  135.5064  152.5424 H   0  0  0  0  0  0  0  0  0  0  0  0
  141.3089  134.8725  154.1889 H   0  0  0  0  0  0  0  0  0  0  0  0
  146.1994  133.5846  150.9401 H   0  0  0  0  0  0  0  0  0  0  0  0
  147.3523  134.1993  152.0780 H   0  0  0  0  0  0  0  0  0  0  0  0
  145.7748  132.2873  153.5016 H   0  0  0  0  0  0  0  0  0  0  0  0
  148.6275  132.0481  152.4239 H   0  0  0  0  0  0  0  0  0  0  0  0
  147.9144  131.0048  153.6506 H   0  0  0  0  0  0  0  0  0  0  0  0
  148.1634  132.7076  153.9905 H   0  0  0  0  0  0  0  0  0  0  0  0
  146.6733  131.1807  150.8047 H   0  0  0  0  0  0  0  0  0  0  0  0
  145.0049  131.3940  151.3302 H   0  0  0  0  0  0  0  0  0  0  0  0
  146.0408  130.2330  152.1483 H   0  0  0  0  0  0  0  0  0  0  0  0
  147.3843  136.1491  152.7435 H   0  0  0  0  0  0  0  0  0  0  0  0
  148.8002  137.2484  153.3970 H   0  0  0  0  0  0  0  0  0  0  0  0
  149.9809  138.4755  157.0274 H   0  0  0  0  0  0  0  0  0  0  0  0
  149.8701  136.9059  156.2433 H   0  0  0  0  0  0  0  0  0  0  0  0
  148.4211  137.6712  156.8853 H   0  0  0  0  0  0  0  0  0  0  0  0
  147.4607  140.0077  154.8033 H   0  0  0  0  0  0  0  0  0  0  0  0
  148.3805  140.1619  156.2830 H   0  0  0  0  0  0  0  0  0  0  0  0
  149.1865  141.0645  153.5140 H   0  0  0  0  0  0  0  0  0  0  0  0
  149.4312  141.8901  155.0578 H   0  0  0  0  0  0  0  0  0  0  0  0
  151.3037  138.2907  154.7055 H   0  0  0  0  0  0  0  0  0  0  0  0
  150.4513  138.8175  153.2648 H   0  0  0  0  0  0  0  0  0  0  0  0
  1  2  1  0  0  0  0
  1 21  1  0  0  0  0
  1 22  1  0  0  0  0
  1 23  1  0  0  0  0
  2 20  1  0  0  0  0
  2  3  2  0  0  0  0
  3  4  1  0  0  0  0
  4  5  1  0  0  0  0
  4  9  2  0  0  0  0
  5  6  1  0  0  0  0
  5 24  1  0  0  0  0
  5 25  1  0  0  0  0
  6  7  1  0  0  0  0
  6  8  1  0  0  0  0
  6 26  1  0  0  0  0
  7 27  1  0  0  0  0
  7 28  1  0  0  0  0
  7 29  1  0  0  0  0
  8 30  1  0  0  0  0
  8 31  1  0  0  0  0
  8 32  1  0  0  0  0
  9 10  1  0  0  0  0
  9 20  1  0  0  0  0
 10 11  1  0  0  0  0
 10 33  1  0  0  0  0
 11 12  2  0  0  0  0
 11 13  1  0  0  0  0
 13 14  1  0  0  0  0
 13 34  1  0  0  0  0
 14 19  1  0  0  0  0
 14 15  1  0  0  0  0
 14 16  1  0  0  0  0
 15 35  1  0  0  0  0
 15 36  1  0  0  0  0
 15 37  1  0  0  0  0
 16 17  1  0  0  0  0
 16 38  1  0  0  0  0
 16 39  1  0  0  0  0
 17 18  1  0  0  0  0
 17 40  1  0  0  0  0
 17 41  1  0  0  0  0
 18 19  1  0  0  0  0
 19 42  1  0  0  0  0
 19 43  1  0  0  0  0
M  END
> <s_m_source_file>
AV-unprocessed.smi

> <i_m_source_file_index>
2853

> <i_lp_mmshare_version>
43012

> <i_f3d_flags>
0

> <s_epik_input>
W0NIM11jMW5jKFtDSDJdW0NIXShbQ0gzXSlbQ0gzXSljKHMxKVtOSF1DKD1PKVtOSF1bQ0BAXTIoW0NIM10pW0NIMl1bQ0gyXU9bQ0gyXTI=

> <s_epik_cmdline>
J2VwaWtfcHl0aG9uJywgJy1waCcsICc3LjAnLCAnLXRuJywgJzgnLCAnLW1hJywgJzIwMCcsICctbWV0YWxfYmluZGluZycsICctaW1hZScsICc8aW5maWxlLm1hZT4nLCAnLW9tYWUnLCAnPG91dGZpbGUubWFlPic=

> <r_epik_Ionization_Penalty>
0.000723394

> <r_epik_Ionization_Penalty_Charging>
0

> <r_epik_Ionization_Penalty_Neutral>
0.000723394

> <r_epik_State_Penalty>
0.000446791

> <r_epik_Charging_Adjusted_Penalty>
0.000446791

> <i_epik_Tot_Q>
0

> <i_epik_Tot_abs_Q>
0

> <r_epik_Metal_State_Penalty>
-0

> <b_epik_Metal_Only>
0

> <s_lp_Force_Field>
OPLS_2005

> <r_lp_Energy>
15.0202

> <b_lp_Chiralities_Consistent>
1

> <s_lp_Variant>
AV-unprocessed.smi:2853-2

> <Gold.Version>
5.8.1

> <Gold.Id.Protein>
6NUR|6NUR_protein|mol2

> <Gold.PLP.Fitness>
34.1639

> <Gold.PLP.PLP>
-27.0856

> <Gold.PLP.part.hbond>
-3.0000

> <Gold.PLP.part.metal>
0.0000

> <Gold.PLP.part.buried>
-5.3232

> <Gold.PLP.part.nonpolar>
-19.4311

> <Gold.PLP.part.repulsive>
0.2264

> <Gold.PLP.ligand.clash>
0.0000

> <Gold.PLP.ligand.torsion>
0.9743

> <Gold.PLP.Chemscore.Hbond>
3.0000

> <Gold.PLP.Chemscore.CHOScore>
0.0000

> <Gold.PLP.Chemscore.Metal>
0.0000

> <Gold.Chemscore.Hbonds>
donor molecule, donor type, donor heavy atom, donor atom, acceptor molecule, acceptor atom, score
      L1  H    10    33       P1  7948  1.00
      L1  H    13    34       P1  7948  1.00
      P1  H  7989  7998       L1    18  1.00

> <Gold.PLP.Chemscore.Internal.Correction>
0.0270

> <Gold.Rescore>
     Score         DG    S(hbond)    S(metal)    S(lipo)     H(rot)  DE(clash)    DE(int)     intcor
     18.41     -19.50       2.67        0.00      71.42       1.28       0.05       1.04       ----

> <Gold.Chemscore.Fitness>
18.4087

> <Gold.Chemscore.DG>
-19.5038

> <Gold.Chemscore.ZeroCoef>
-5.4800

> <Gold.Chemscore.Hbond>
2.6744

> <Gold.Chemscore.Metal>
0.0000

> <Gold.Chemscore.Lipo>
71.4192

> <Gold.Chemscore.Internal_Hbond>
0.0000

> <Gold.Chemscore.DEClash>
0.0528

> <Gold.Chemscore.DEInternal>
1.0422

> <Gold.Chemscore.Rot>
1.2753

> <Gold.Chemscore.Internal.Correction>
   9.000000E+99

> <Gold.Chemscore.Hbonds>
donor molecule, donor type, donor heavy atom, donor atom, acceptor molecule, acceptor atom, score
      L1  H    10    33       P1  7948  0.99
      L1  H    13    34       P1  7948  0.99
      P1  H  7989  7998       L1    18  0.33

> <Gold.Chemscore.Hbond.Weighted>
-8.9324

> <Gold.Chemscore.Metal.Weighted>
-0.0000

> <Gold.Chemscore.Lipo.Weighted>
-8.3560

> <Gold.Chemscore.Internal_Hbond.Weighted>
0.0000

> <Gold.Chemscore.DEClash.Weighted>
0.0528

> <Gold.Chemscore.DEInternal.Weighted>
1.0422

> <Gold.Chemscore.Rot.Weighted>
3.2646

> <Gold.Chemscore.Internal.Correction.Weighted>
   9.000000E+99

> <Gold.Protein.RotatedTorsions>
[ 6907 6896 6895 6894 ] final -110.30 input  -60.11 | X-H torsion
[ 7974 7965 7964 7962 ] final  -52.41 input  175.53 | X-H torsion
[ 8008 7997 7996 7995 ] final   38.01 input   59.86 | X-H torsion
[ 10167 10162 10161 10158 ] final   33.09 input  -65.29 | X-H torsion
[ 10718 10713 10712 10709 ] final  132.07 input   66.30 | X-H torsion
[ 10763 10752 10751 10750 ] final -118.27 input  -60.55 | X-H torsion
[ 11005 11000 10999 10996 ] final   70.32 input  -57.11 | X-H torsion

> <Gold.Protein.ActiveResidues>
 VAL166  LYS551  ARG553  GLY616  TRP617  ASP618  TYR619  PRO620  LYS621  CYS622 
 ASP623  PHE694  ASN695  SER759  ASP760  ASP761  ALA762  ILE779  LEU786  VAL792 
 PHE793  MET794  SER795  GLU796  ALA797  LYS798  CYS799  TRP800  GLU811  SER814 

> <Gold.Protein.RotatedAtoms>
  150.7616  133.9402  159.3453 H   0  0  0  0  0  0  0  0  0  0  0  0  # atno 6907 bound_to 6896
  151.7310  135.0873  160.0309 H   0  0  0  0  0  0  0  0  0  0  0  0  # atno 6908 bound_to 6896
  152.3590  133.6235  159.6036 H   0  0  0  0  0  0  0  0  0  0  0  0  # atno 6909 bound_to 6896
  145.9083  140.7937  142.9708 H   0  0  0  0  0  0  0  0  0  0  0  0  # atno 7974 bound_to 7965
  155.2131  140.3325  155.4326 H   0  0  0  0  0  0  0  0  0  0  0  0  # atno 8008 bound_to 7997
  156.2363  140.1873  156.7159 H   0  0  0  0  0  0  0  0  0  0  0  0  # atno 8009 bound_to 7997
  154.6065  140.0615  156.9423 H   0  0  0  0  0  0  0  0  0  0  0  0  # atno 8010 bound_to 7997
  140.4439  144.1147  150.6179 H   0  0  0  0  0  0  0  0  0  0  0  0  # atno 10167 bound_to 10162
  157.4907  131.1090  150.9560 H   0  0  0  0  0  0  0  0  0  0  0  0  # atno 10718 bound_to 10713
  154.8582  135.4280  154.2112 H   0  0  0  0  0  0  0  0  0  0  0  0  # atno 10763 bound_to 10752
  153.3137  135.6977  153.7098 H   0  0  0  0  0  0  0  0  0  0  0  0  # atno 10764 bound_to 10752
  153.6180  135.3507  155.2975 H   0  0  0  0  0  0  0  0  0  0  0  0  # atno 10765 bound_to 10752
  139.9604  134.7070  156.0658 H   0  0  0  0  0  0  0  0  0  0  0  0  # atno 11005 bound_to 11000
  144.6741  140.1785  143.7408 LP  0  0  0  0  0  0  0  0  0  0  0  0  # atno 17320 bound_to 7965
  145.8704  139.2269  143.1664 LP  0  0  0  0  0  0  0  0  0  0  0  0  # atno 17321 bound_to 7965
  140.4286  143.2578  151.9624 LP  0  0  0  0  0  0  0  0  0  0  0  0  # atno 17342 bound_to 10162
  139.4791  144.5764  151.8004 LP  0  0  0  0  0  0  0  0  0  0  0  0  # atno 17343 bound_to 10162
  157.0263  130.5693  149.5337 LP  0  0  0  0  0  0  0  0  0  0  0  0  # atno 17370 bound_to 10713
  156.0172  130.5266  150.8169 LP  0  0  0  0  0  0  0  0  0  0  0  0  # atno 17371 bound_to 10713
  141.1281  133.6594  156.3390 LP  0  0  0  0  0  0  0  0  0  0  0  0  # atno 17394 bound_to 11000
  140.5513  134.6025  157.5408 LP  0  0  0  0  0  0  0  0  0  0  0  0  # atno 17395 bound_to 11000

$$$$
