AV-unprocessed.smi:2913|AV-procd|sdf|11182|dock9
  -GOLD-   2272016 73D 1   1.00000     0.00000
 Structure written by MMmdl.
 41 42  0  0  0  0  0  0  0  0  1 V2000
  145.6074  135.9956  151.1878 C   0  0  0  0  0  0  0  0  0  0  0  0
  145.5321  134.4784  151.2355 C   0  0  0  0  0  0  0  0  0  0  0  0
  144.5817  133.8297  150.5260 C   0  0  0  0  0  0  0  0  0  0  0  0
  144.4500  132.3720  150.5257 C   0  0  0  0  0  0  0  0  0  0  0  0
  143.5833  131.7901  149.8728 O   0  0  0  0  0  0  0  0  0  0  0  0
  145.3489  131.7015  151.2973 N   0  0  0  0  0  0  0  0  0  0  0  0
  145.2959  130.2390  151.3728 C   0  0  0  0  0  0  0  0  0  0  0  0
  146.3407  132.3630  152.0409 C   0  0  0  0  0  0  0  0  0  0  0  0
  146.4746  133.7079  152.0370 C   0  0  0  0  0  0  0  0  0  0  0  0
  147.4434  134.4107  152.7733 N   0  0  0  0  0  0  0  0  0  0  0  0
  148.0103  134.1055  153.9555 C   0  0  0  0  0  0  0  0  0  0  0  0
  147.8007  133.0875  154.6143 O   0  0  0  0  0  0  0  0  0  0  0  0
  148.8734  135.0623  154.3272 N   0  0  0  0  0  0  0  0  0  0  0  0
  149.7021  135.0528  155.5317 C   0  0  2  0  0  0  0  0  0  0  0  0
  148.8079  134.7946  156.7531 C   0  0  0  0  0  0  0  0  0  0  0  0
  150.4744  136.3817  155.6502 C   0  0  2  0  0  0  0  0  0  0  0  0
  149.6179  137.6380  155.4691 C   0  0  0  0  0  0  0  0  0  0  0  0
  150.6449  138.6467  155.0113 C   0  0  0  0  0  0  0  0  0  0  0  0
  151.5232  137.7945  154.1016 C   0  0  0  0  0  0  0  0  0  0  0  0
  151.4744  136.4743  154.6368 O   0  0  0  0  0  0  0  0  0  0  0  0
  144.8458  136.4184  150.5316 H   0  0  0  0  0  0  0  0  0  0  0  0
  146.5824  136.3155  150.8188 H   0  0  0  0  0  0  0  0  0  0  0  0
  145.4617  136.4139  152.1841 H   0  0  0  0  0  0  0  0  0  0  0  0
  143.8839  134.4004  149.9306 H   0  0  0  0  0  0  0  0  0  0  0  0
  146.0703  129.8180  152.0149 H   0  0  0  0  0  0  0  0  0  0  0  0
  145.4231  129.7994  150.3826 H   0  0  0  0  0  0  0  0  0  0  0  0
  144.3334  129.9116  151.7684 H   0  0  0  0  0  0  0  0  0  0  0  0
  146.9624  131.6940  152.6136 H   0  0  0  0  0  0  0  0  0  0  0  0
  147.7660  135.2606  152.3346 H   0  0  0  0  0  0  0  0  0  0  0  0
  148.9806  135.8600  153.7179 H   0  0  0  0  0  0  0  0  0  0  0  0
  150.4326  134.2438  155.4796 H   0  0  0  0  0  0  0  0  0  0  0  0
  149.3968  134.7471  157.6694 H   0  0  0  0  0  0  0  0  0  0  0  0
  148.2768  133.8470  156.6568 H   0  0  0  0  0  0  0  0  0  0  0  0
  148.0646  135.5828  156.8765 H   0  0  0  0  0  0  0  0  0  0  0  0
  150.9794  136.4373  156.6161 H   0  0  0  0  0  0  0  0  0  0  0  0
  148.8714  137.4863  154.6878 H   0  0  0  0  0  0  0  0  0  0  0  0
  149.1015  137.9381  156.3813 H   0  0  0  0  0  0  0  0  0  0  0  0
  150.2082  139.5061  154.5018 H   0  0  0  0  0  0  0  0  0  0  0  0
  151.2224  139.0079  155.8635 H   0  0  0  0  0  0  0  0  0  0  0  0
  151.1141  137.7723  153.0908 H   0  0  0  0  0  0  0  0  0  0  0  0
  152.5468  138.1648  154.0443 H   0  0  0  0  0  0  0  0  0  0  0  0
  1  2  1  0  0  0  0
  1 21  1  0  0  0  0
  1 22  1  0  0  0  0
  1 23  1  0  0  0  0
  2  9  1  0  0  0  0
  2  3  2  0  0  0  0
  3  4  1  0  0  0  0
  3 24  1  0  0  0  0
  4  5  2  0  0  0  0
  4  6  1  0  0  0  0
  6  7  1  0  0  0  0
  6  8  1  0  0  0  0
  7 25  1  0  0  0  0
  7 26  1  0  0  0  0
  7 27  1  0  0  0  0
  8  9  2  0  0  0  0
  8 28  1  0  0  0  0
  9 10  1  0  0  0  0
 10 11  1  0  0  0  0
 10 29  1  0  0  0  0
 11 12  2  0  0  0  0
 11 13  1  0  0  0  0
 13 14  1  0  0  0  0
 13 30  1  0  0  0  0
 14 15  1  0  0  0  0
 14 16  1  0  0  0  0
 14 31  1  0  0  0  0
 15 32  1  0  0  0  0
 15 33  1  0  0  0  0
 15 34  1  0  0  0  0
 16 20  1  0  0  0  0
 16 17  1  0  0  0  0
 16 35  1  0  0  0  0
 17 18  1  0  0  0  0
 17 36  1  0  0  0  0
 17 37  1  0  0  0  0
 18 19  1  0  0  0  0
 18 38  1  0  0  0  0
 18 39  1  0  0  0  0
 19 20  1  0  0  0  0
 19 40  1  0  0  0  0
 19 41  1  0  0  0  0
M  END
> <s_m_source_file>
AV-unprocessed.smi

> <i_m_source_file_index>
2913

> <i_lp_mmshare_version>
43012

> <i_f3d_flags>
0

> <s_epik_input>
W0NIM11jMVtjSF1jKD1PKW4oW0NIM10pW2NIXWMxW05IXUMoPU8pW05IXVtDQEhdKFtDSDNdKVtDQEBIXTJbQ0gyXVtDSDJdW0NIMl1PMg==

> <s_epik_cmdline>
J2VwaWtfcHl0aG9uJywgJy1waCcsICc3LjAnLCAnLXRuJywgJzgnLCAnLW1hJywgJzIwMCcsICctbWV0YWxfYmluZGluZycsICctaW1hZScsICc8aW5maWxlLm1hZT4nLCAnLW9tYWUnLCAnPG91dGZpbGUubWFlPic=

> <r_lp_tautomer_probability>
1

> <r_epik_Ionization_Penalty>
2.72039e-05

> <r_epik_Ionization_Penalty_Charging>
8.03976e-06

> <r_epik_Ionization_Penalty_Neutral>
1.91642e-05

> <r_epik_State_Penalty>
-0

> <r_epik_Charging_Adjusted_Penalty>
8.03976e-06

> <i_epik_Tot_Q>
0

> <i_epik_Tot_abs_Q>
0

> <r_epik_Metal_State_Penalty>
-0

> <b_epik_Metal_Only>
0

> <s_lp_Force_Field>
OPLS_2005

> <r_lp_Energy>
32.2239

> <b_lp_Chiralities_Consistent>
1

> <s_lp_Variant>
AV-unprocessed.smi:2913-1

> <Gold.Version>
5.8.1

> <Gold.Id.Protein>
6NUR|6NUR_protein|mol2

> <Gold.PLP.Fitness>
44.1721

> <Gold.PLP.PLP>
-33.7595

> <Gold.PLP.part.hbond>
-3.9225

> <Gold.PLP.part.metal>
0.0000

> <Gold.PLP.part.buried>
-5.8815

> <Gold.PLP.part.nonpolar>
-24.9063

> <Gold.PLP.part.repulsive>
0.3887

> <Gold.PLP.ligand.clash>
0.0000

> <Gold.PLP.ligand.torsion>
0.3665

> <Gold.PLP.Chemscore.Hbond>
3.7120

> <Gold.PLP.Chemscore.CHOScore>
0.0000

> <Gold.PLP.Chemscore.Metal>
0.0000

> <Gold.Chemscore.Hbonds>
donor molecule, donor type, donor heavy atom, donor atom, acceptor molecule, acceptor atom, score
      L1  H    10    29       P1  7948  1.00
      L1  H    13    30       P1  7948  0.75
      P1  H 10752 10763       L1    20  1.00
      P1  H 10785 10796       L1     5  0.97

> <Gold.PLP.Chemscore.Internal.Correction>
0.0095

> <Gold.Rescore>
     Score         DG    S(hbond)    S(metal)    S(lipo)     H(rot)  DE(clash)    DE(int)     intcor
     19.67     -22.25       3.57        0.00      67.82       1.21       0.30       2.28       ----

> <Gold.Chemscore.Fitness>
19.6662

> <Gold.Chemscore.DG>
-22.2479

> <Gold.Chemscore.ZeroCoef>
-5.4800

> <Gold.Chemscore.Hbond>
3.5720

> <Gold.Chemscore.Metal>
0.0000

> <Gold.Chemscore.Lipo>
67.8226

> <Gold.Chemscore.Internal_Hbond>
0.0000

> <Gold.Chemscore.DEClash>
0.3038

> <Gold.Chemscore.DEInternal>
2.2779

> <Gold.Chemscore.Rot>
1.2101

> <Gold.Chemscore.Internal.Correction>
   9.000000E+99

> <Gold.Chemscore.Hbonds>
donor molecule, donor type, donor heavy atom, donor atom, acceptor molecule, acceptor atom, score
      L1  H    10    29       P1  7948  0.91
      L1  H    13    30       P1  7948  0.71
      P1  H 10752 10763       L1    20  0.64
      P1  H 10785 10796       L1     5  0.85

> <Gold.Chemscore.Hbond.Weighted>
-11.9306

> <Gold.Chemscore.Metal.Weighted>
-0.0000

> <Gold.Chemscore.Lipo.Weighted>
-7.9352

> <Gold.Chemscore.Internal_Hbond.Weighted>
0.0000

> <Gold.Chemscore.DEClash.Weighted>
0.3038

> <Gold.Chemscore.DEInternal.Weighted>
2.2779

> <Gold.Chemscore.Rot.Weighted>
3.0979

> <Gold.Chemscore.Internal.Correction.Weighted>
   9.000000E+99

> <Gold.Protein.RotatedTorsions>
[ 6907 6896 6895 6894 ] final  -24.19 input  -60.11 | X-H torsion
[ 7974 7965 7964 7962 ] final  -94.04 input  175.53 | X-H torsion
[ 8008 7997 7996 7995 ] final -114.30 input   59.86 | X-H torsion
[ 10167 10162 10161 10158 ] final  -99.01 input  -65.29 | X-H torsion
[ 10718 10713 10712 10709 ] final   85.84 input   66.30 | X-H torsion
[ 10763 10752 10751 10750 ] final   34.67 input  -60.55 | X-H torsion
[ 11005 11000 10999 10996 ] final  149.50 input  -57.11 | X-H torsion

> <Gold.Protein.ActiveResidues>
 VAL166  LYS551  ARG553  GLY616  TRP617  ASP618  TYR619  PRO620  LYS621  CYS622 
 ASP623  PHE694  ASN695  SER759  ASP760  ASP761  ALA762  ILE779  LEU786  VAL792 
 PHE793  MET794  SER795  GLU796  ALA797  LYS798  CYS799  TRP800  GLU811  SER814 

> <Gold.Protein.RotatedAtoms>
  151.1931  135.0411  159.8840 H   0  0  0  0  0  0  0  0  0  0  0  0  # atno 6907 bound_to 6896
  152.5438  134.0934  159.8297 H   0  0  0  0  0  0  0  0  0  0  0  0  # atno 6908 bound_to 6896
  151.1065  133.5157  159.2639 H   0  0  0  0  0  0  0  0  0  0  0  0  # atno 6909 bound_to 6896
  145.3785  140.9514  143.2407 H   0  0  0  0  0  0  0  0  0  0  0  0  # atno 7974 bound_to 7965
  155.0342  140.0393  157.2485 H   0  0  0  0  0  0  0  0  0  0  0  0  # atno 8008 bound_to 7997
  154.7271  140.2723  155.6465 H   0  0  0  0  0  0  0  0  0  0  0  0  # atno 8009 bound_to 7997
  156.2832  140.2691  156.1960 H   0  0  0  0  0  0  0  0  0  0  0  0  # atno 8010 bound_to 7997
  140.2669  143.3370  152.0572 H   0  0  0  0  0  0  0  0  0  0  0  0  # atno 10167 bound_to 10162
  157.6920  131.0191  150.2883 H   0  0  0  0  0  0  0  0  0  0  0  0  # atno 10718 bound_to 10713
  153.0153  135.6354  154.1706 H   0  0  0  0  0  0  0  0  0  0  0  0  # atno 10763 bound_to 10752
  154.1445  135.2832  155.3153 H   0  0  0  0  0  0  0  0  0  0  0  0  # atno 10764 bound_to 10752
  154.6100  135.5559  153.7524 H   0  0  0  0  0  0  0  0  0  0  0  0  # atno 10765 bound_to 10752
  140.1050  134.8959  157.1853 H   0  0  0  0  0  0  0  0  0  0  0  0  # atno 11005 bound_to 11000
  144.8525  139.5300  143.6850 LP  0  0  0  0  0  0  0  0  0  0  0  0  # atno 17320 bound_to 7965
  146.2853  139.6987  142.9200 LP  0  0  0  0  0  0  0  0  0  0  0  0  # atno 17321 bound_to 7965
  139.5000  144.6682  151.6306 LP  0  0  0  0  0  0  0  0  0  0  0  0  # atno 17342 bound_to 10162
  140.5921  143.9761  150.6331 LP  0  0  0  0  0  0  0  0  0  0  0  0  # atno 17343 bound_to 10162
  156.3418  130.3816  149.7402 LP  0  0  0  0  0  0  0  0  0  0  0  0  # atno 17370 bound_to 10713
  156.4909  130.8084  151.3094 LP  0  0  0  0  0  0  0  0  0  0  0  0  # atno 17371 bound_to 10713
  140.3167  134.2962  155.7255 LP  0  0  0  0  0  0  0  0  0  0  0  0  # atno 17394 bound_to 11000
  141.2116  133.7684  156.9854 LP  0  0  0  0  0  0  0  0  0  0  0  0  # atno 17395 bound_to 11000

$$$$
