AV-unprocessed.smi:2070|AV-procd|sdf|8439|dock7
  -GOLD-   2272011143D 1   1.00000     0.00000
 Structure written by MMmdl.
 40 41  0  0  0  0  0  0  0  0  1 V2000
  152.7889  143.7516  162.8734 C   0  0  0  0  0  0  0  0  0  0  0  0
  152.2941  143.8536  161.4647 C   0  0  0  0  0  0  0  0  0  0  0  0
  152.2096  144.9926  160.7037 C   0  0  0  0  0  0  0  0  0  0  0  0
  151.5798  144.6663  159.1125 S   0  0  0  0  0  0  0  0  0  0  0  0
  151.4425  142.9674  159.5488 C   0  0  0  0  0  0  0  0  0  0  0  0
  150.9628  141.9158  158.5999 C   0  0  0  0  0  0  0  0  0  0  0  0
  150.8377  142.4029  157.1430 C   0  0  0  0  0  0  0  0  0  0  0  0
  150.7177  141.3036  156.1909 N   0  0  0  0  0  0  0  0  0  0  0  0
  151.5649  140.2660  156.0914 C   0  0  0  0  0  0  0  0  0  0  0  0
  152.5054  140.1130  156.8723 O   0  0  0  0  0  0  0  0  0  0  0  0
  151.2932  139.4081  155.0753 N   0  0  0  0  0  0  0  0  0  0  0  0
  152.1009  138.2404  154.6832 C   0  0  0  0  0  0  0  0  0  0  0  0
  151.3988  136.9663  155.1857 C   0  0  0  0  0  0  0  0  0  0  0  0
  149.9581  136.8694  154.6310 C   0  0  0  0  0  0  0  0  0  0  0  0
  149.2137  135.6719  155.2363 C   0  0  0  0  0  0  0  0  0  0  0  0
  148.7055  134.7774  154.3848 N   0  0  0  0  0  0  0  0  0  0  0  0
  149.0964  135.5528  156.4544 O   0  0  0  0  0  0  0  0  0  0  0  0
  149.1847  138.1874  154.8739 C   0  0  0  0  0  0  0  0  0  0  0  0
  149.9951  139.4043  154.3901 C   0  0  0  0  0  0  0  0  0  0  0  0
  151.8619  142.7079  160.7908 N   0  0  0  0  0  0  0  0  0  0  0  0
  153.8776  143.7035  162.9048 H   0  0  0  0  0  0  0  0  0  0  0  0
  152.4035  142.8605  163.3699 H   0  0  0  0  0  0  0  0  0  0  0  0
  152.4791  144.6142  163.4638 H   0  0  0  0  0  0  0  0  0  0  0  0
  152.4800  146.0006  160.9816 H   0  0  0  0  0  0  0  0  0  0  0  0
  151.6475  141.0681  158.6485 H   0  0  0  0  0  0  0  0  0  0  0  0
  149.9979  141.5471  158.9491 H   0  0  0  0  0  0  0  0  0  0  0  0
  149.9950  143.0884  157.0409 H   0  0  0  0  0  0  0  0  0  0  0  0
  151.7297  142.9691  156.8739 H   0  0  0  0  0  0  0  0  0  0  0  0
  149.9631  141.3603  155.5225 H   0  0  0  0  0  0  0  0  0  0  0  0
  152.1871  138.2132  153.5959 H   0  0  0  0  0  0  0  0  0  0  0  0
  153.1269  138.2671  155.0502 H   0  0  0  0  0  0  0  0  0  0  0  0
  151.9742  136.0879  154.8906 H   0  0  0  0  0  0  0  0  0  0  0  0
  151.3859  136.9754  156.2762 H   0  0  0  0  0  0  0  0  0  0  0  0
  150.0290  136.7219  153.5518 H   0  0  0  0  0  0  0  0  0  0  0  0
  148.2089  133.9716  154.7357 H   0  0  0  0  0  0  0  0  0  0  0  0
  148.8224  134.9106  153.3907 H   0  0  0  0  0  0  0  0  0  0  0  0
  148.2237  138.1581  154.3587 H   0  0  0  0  0  0  0  0  0  0  0  0
  148.9619  138.3075  155.9357 H   0  0  0  0  0  0  0  0  0  0  0  0
  149.4280  140.3210  154.5574 H   0  0  0  0  0  0  0  0  0  0  0  0
  150.1520  139.3480  153.3120 H   0  0  0  0  0  0  0  0  0  0  0  0
  1  2  1  0  0  0  0
  1 21  1  0  0  0  0
  1 22  1  0  0  0  0
  1 23  1  0  0  0  0
  2 20  1  0  0  0  0
  2  3  2  0  0  0  0
  3  4  1  0  0  0  0
  3 24  1  0  0  0  0
  4  5  1  0  0  0  0
  5  6  1  0  0  0  0
  5 20  2  0  0  0  0
  6  7  1  0  0  0  0
  6 25  1  0  0  0  0
  6 26  1  0  0  0  0
  7  8  1  0  0  0  0
  7 27  1  0  0  0  0
  7 28  1  0  0  0  0
  8  9  1  0  0  0  0
  8 29  1  0  0  0  0
  9 10  2  0  0  0  0
  9 11  1  0  0  0  0
 11 19  1  0  0  0  0
 11 12  1  0  0  0  0
 12 13  1  0  0  0  0
 12 30  1  0  0  0  0
 12 31  1  0  0  0  0
 13 14  1  0  0  0  0
 13 32  1  0  0  0  0
 13 33  1  0  0  0  0
 14 15  1  0  0  0  0
 14 18  1  0  0  0  0
 14 34  1  0  0  0  0
 15 16  1  0  0  0  0
 15 17  2  0  0  0  0
 16 35  1  0  0  0  0
 16 36  1  0  0  0  0
 18 19  1  0  0  0  0
 18 37  1  0  0  0  0
 18 38  1  0  0  0  0
 19 39  1  0  0  0  0
 19 40  1  0  0  0  0
M  END
> <s_m_source_file>
AV-unprocessed.smi

> <i_m_source_file_index>
2070

> <i_lp_mmshare_version>
43012

> <i_f3d_flags>
0

> <s_epik_input>
W0NIM11jMVtjSF1zYyhuMSlbQ0gyXVtDSDJdW05IXUMoPU8pTjJbQ0gyXVtDSDJdW0NIXShDKD1PKVtOSDJdKVtDSDJdW0NIMl0y

> <s_epik_cmdline>
J2VwaWtfcHl0aG9uJywgJy1waCcsICc3LjAnLCAnLXRuJywgJzgnLCAnLW1hJywgJzIwMCcsICctbWV0YWxfYmluZGluZycsICctaW1hZScsICc8aW5maWxlLm1hZT4nLCAnLW9tYWUnLCAnPG91dGZpbGUubWFlPic=

> <r_epik_Ionization_Penalty>
0.00203811

> <r_epik_Ionization_Penalty_Charging>
0

> <r_epik_Ionization_Penalty_Neutral>
0.00203811

> <r_epik_State_Penalty>
0.00135523

> <r_epik_Charging_Adjusted_Penalty>
0.00135523

> <i_epik_Tot_Q>
0

> <i_epik_Tot_abs_Q>
0

> <r_epik_Metal_State_Penalty>
-0

> <b_epik_Metal_Only>
0

> <s_lp_Force_Field>
OPLS_2005

> <r_lp_Energy>
19.595

> <b_lp_Chiralities_Consistent>
1

> <s_lp_Variant>
AV-unprocessed.smi:2070-1

> <Gold.Version>
5.8.1

> <Gold.Id.Protein>
6NUR|6NUR_protein|mol2

> <Gold.PLP.Fitness>
42.8767

> <Gold.PLP.PLP>
-38.8711

> <Gold.PLP.part.hbond>
-2.8067

> <Gold.PLP.part.metal>
0.0000

> <Gold.PLP.part.buried>
-0.5850

> <Gold.PLP.part.nonpolar>
-35.4833

> <Gold.PLP.part.repulsive>
0.1860

> <Gold.PLP.ligand.clash>
1.2587

> <Gold.PLP.ligand.torsion>
0.3372

> <Gold.PLP.Chemscore.Hbond>
1.9600

> <Gold.PLP.Chemscore.CHOScore>
0.0000

> <Gold.PLP.Chemscore.Metal>
0.0000

> <Gold.Chemscore.Hbonds>
donor molecule, donor type, donor heavy atom, donor atom, acceptor molecule, acceptor atom, score
      L1  H    16    36       P1  7948  0.96
      P1  H  7997  8009       L1    10  1.00

> <Gold.PLP.Chemscore.Internal.Correction>
0.0588

> <Gold.Rescore>
     Score         DG    S(hbond)    S(metal)    S(lipo)     H(rot)  DE(clash)    DE(int)     intcor
     15.89     -19.17       1.88        0.00     106.06       1.95       1.76       1.52       ----

> <Gold.Chemscore.Fitness>
15.8888

> <Gold.Chemscore.DG>
-19.1692

> <Gold.Chemscore.ZeroCoef>
-5.4800

> <Gold.Chemscore.Hbond>
1.8773

> <Gold.Chemscore.Metal>
0.0000

> <Gold.Chemscore.Lipo>
106.0608

> <Gold.Chemscore.Internal_Hbond>
0.0000

> <Gold.Chemscore.DEClash>
1.7648

> <Gold.Chemscore.DEInternal>
1.5156

> <Gold.Chemscore.Rot>
1.9492

> <Gold.Chemscore.Internal.Correction>
   9.000000E+99

> <Gold.Chemscore.Hbonds>
donor molecule, donor type, donor heavy atom, donor atom, acceptor molecule, acceptor atom, score
      L1  H    16    36       P1  7948  0.36
      P1  H  7997  8009       L1    10  0.98

> <Gold.Chemscore.Hbond.Weighted>
-6.2701

> <Gold.Chemscore.Metal.Weighted>
-0.0000

> <Gold.Chemscore.Lipo.Weighted>
-12.4091

> <Gold.Chemscore.Internal_Hbond.Weighted>
0.0000

> <Gold.Chemscore.DEClash.Weighted>
1.7648

> <Gold.Chemscore.DEInternal.Weighted>
1.5156

> <Gold.Chemscore.Rot.Weighted>
4.9900

> <Gold.Chemscore.Internal.Correction.Weighted>
   9.000000E+99

> <Gold.Protein.RotatedTorsions>
[ 6907 6896 6895 6894 ] final  -35.58 input  -60.11 | X-H torsion
[ 7974 7965 7964 7962 ] final  168.32 input  175.53 | X-H torsion
[ 8008 7997 7996 7995 ] final -168.92 input   59.86 | X-H torsion
[ 10167 10162 10161 10158 ] final   86.44 input  -65.29 | X-H torsion
[ 10718 10713 10712 10709 ] final    2.89 input   66.30 | X-H torsion
[ 10763 10752 10751 10750 ] final -103.13 input  -60.55 | X-H torsion
[ 11005 11000 10999 10996 ] final  -40.58 input  -57.11 | X-H torsion

> <Gold.Protein.ActiveResidues>
 VAL166  LYS551  ARG553  GLY616  TRP617  ASP618  TYR619  PRO620  LYS621  CYS622 
 ASP623  PHE694  ASN695  SER759  ASP760  ASP761  ALA762  ILE779  LEU786  VAL792 
 PHE793  MET794  SER795  GLU796  ALA797  LYS798  CYS799  TRP800  GLU811  SER814 

> <Gold.Protein.RotatedAtoms>
  151.0380  134.9587  159.8146 H   0  0  0  0  0  0  0  0  0  0  0  0  # atno 6907 bound_to 6896
  152.5358  134.2694  159.8976 H   0  0  0  0  0  0  0  0  0  0  0  0  # atno 6908 bound_to 6896
  151.2706  133.4215  159.2655 H   0  0  0  0  0  0  0  0  0  0  0  0  # atno 6909 bound_to 6896
  144.7393  139.8890  143.6402 H   0  0  0  0  0  0  0  0  0  0  0  0  # atno 7974 bound_to 7965
  155.8979  140.1036  157.1371 H   0  0  0  0  0  0  0  0  0  0  0  0  # atno 8008 bound_to 7997
  154.4022  140.1298  156.4463 H   0  0  0  0  0  0  0  0  0  0  0  0  # atno 8009 bound_to 7997
  155.7457  140.3466  155.5128 H   0  0  0  0  0  0  0  0  0  0  0  0  # atno 8010 bound_to 7997
  139.8875  144.6405  150.8775 H   0  0  0  0  0  0  0  0  0  0  0  0  # atno 10167 bound_to 10162
  156.8697  130.5616  149.5658 H   0  0  0  0  0  0  0  0  0  0  0  0  # atno 10718 bound_to 10713
  154.7785  135.4835  153.9794 H   0  0  0  0  0  0  0  0  0  0  0  0  # atno 10763 bound_to 10752
  153.1461  135.6782  153.8960 H   0  0  0  0  0  0  0  0  0  0  0  0  # atno 10764 bound_to 10752
  153.8619  135.3154  155.3416 H   0  0  0  0  0  0  0  0  0  0  0  0  # atno 10765 bound_to 10752
  141.0185  133.6874  156.2340 H   0  0  0  0  0  0  0  0  0  0  0  0  # atno 11005 bound_to 11000
  146.1156  139.4166  143.0260 LP  0  0  0  0  0  0  0  0  0  0  0  0  # atno 17320 bound_to 7965
  145.7380  141.0018  143.1316 LP  0  0  0  0  0  0  0  0  0  0  0  0  # atno 17321 bound_to 7965
  140.7733  143.3537  151.1964 LP  0  0  0  0  0  0  0  0  0  0  0  0  # atno 17342 bound_to 10162
  139.7140  143.9330  152.2959 LP  0  0  0  0  0  0  0  0  0  0  0  0  # atno 17343 bound_to 10162
  156.0733  130.5761  150.9425 LP  0  0  0  0  0  0  0  0  0  0  0  0  # atno 17370 bound_to 10713
  157.6202  131.0930  150.8635 LP  0  0  0  0  0  0  0  0  0  0  0  0  # atno 17371 bound_to 10713
  140.6614  134.4963  157.5583 LP  0  0  0  0  0  0  0  0  0  0  0  0  # atno 17394 bound_to 11000
  139.9131  134.8302  156.1458 LP  0  0  0  0  0  0  0  0  0  0  0  0  # atno 17395 bound_to 11000

$$$$
