AV-unprocessed.smi:2934|AV-procd|sdf|11255|dock7
  -GOLD-   2272016143D 1   1.00000     0.00000
 Structure written by MMmdl.
 44 45  0  0  0  0  0  0  0  0  2 V2000
  149.9212  141.7522  155.9719 C   0  0  0  0  0  0  0  0  0  0  0  0
  150.7711  141.4246  157.1204 N   0  0  0  0  0  0  0  0  0  0  0  0
  150.9156  140.1171  157.4647 C   0  0  0  0  0  0  0  0  0  0  0  0
  151.8612  139.7050  158.1388 O   0  0  0  0  0  0  0  0  0  0  0  0
  149.9582  139.2936  156.9948 N   0  0  0  0  0  0  0  0  0  0  0  0
  149.8592  137.8582  157.2531 C   0  0  0  0  0  0  0  0  0  0  0  0
  148.5912  137.4831  158.0472 C   0  0  0  0  0  0  0  0  0  0  0  0
  148.8817  136.7832  159.3792 C   0  0  0  0  0  0  0  0  0  0  0  0
  150.0413  136.6681  159.7767 O   0  0  0  0  0  0  0  0  0  0  0  0
  147.8195  136.3353  160.0649 N   0  0  0  0  0  0  0  0  0  0  0  0
  147.8809  135.6369  161.3461 C   0  0  0  0  0  0  0  0  0  0  0  0
  147.5583  134.1407  161.1703 C   0  0  0  0  0  0  0  0  0  0  0  0
  146.5437  133.7965  162.2618 C   0  0  0  0  0  0  0  0  0  0  0  0
  145.7760  135.0955  162.4830 C   0  0  0  0  0  0  0  0  0  0  0  0
  146.8380  136.1864  162.3404 C   0  0  0  0  0  0  0  0  0  0  0  0
  151.3771  142.5132  157.8187 C   0  0  0  0  0  0  0  0  0  0  0  0
  152.4983  142.3281  158.6641 C   0  0  0  0  0  0  0  0  0  0  0  0
  153.0656  143.4380  159.3229 C   0  0  0  0  0  0  0  0  0  0  0  0
  152.5078  144.7168  159.1250 C   0  0  0  0  0  0  0  0  0  0  0  0
  151.3977  144.8531  158.2683 C   0  0  0  0  0  0  0  0  0  0  0  0
  150.8838  143.7644  157.6548 N   0  3  0  0  0  0  0  0  0  0  0  0
  149.9256  142.8202  155.7505 H   0  0  0  0  0  0  0  0  0  0  0  0
  148.8883  141.4568  156.1612 H   0  0  0  0  0  0  0  0  0  0  0  0
  150.2655  141.2396  155.0724 H   0  0  0  0  0  0  0  0  0  0  0  0
  149.2244  139.6991  156.4323 H   0  0  0  0  0  0  0  0  0  0  0  0
  149.8369  137.3530  156.2873 H   0  0  0  0  0  0  0  0  0  0  0  0
  150.7450  137.4788  157.7655 H   0  0  0  0  0  0  0  0  0  0  0  0
  148.0053  138.3804  158.2509 H   0  0  0  0  0  0  0  0  0  0  0  0
  147.9565  136.8429  157.4330 H   0  0  0  0  0  0  0  0  0  0  0  0
  146.9020  136.4798  159.6687 H   0  0  0  0  0  0  0  0  0  0  0  0
  148.8798  135.7413  161.7742 H   0  0  0  0  0  0  0  0  0  0  0  0
  147.1035  133.9566  160.1955 H   0  0  0  0  0  0  0  0  0  0  0  0
  148.4507  133.5169  161.2311 H   0  0  0  0  0  0  0  0  0  0  0  0
  145.8945  132.9652  161.9858 H   0  0  0  0  0  0  0  0  0  0  0  0
  147.0678  133.5206  163.1778 H   0  0  0  0  0  0  0  0  0  0  0  0
  145.0208  135.2129  161.7047 H   0  0  0  0  0  0  0  0  0  0  0  0
  145.2690  135.1255  163.4479 H   0  0  0  0  0  0  0  0  0  0  0  0
  147.3164  136.3496  163.3070 H   0  0  0  0  0  0  0  0  0  0  0  0
  146.4040  137.1396  162.0352 H   0  0  0  0  0  0  0  0  0  0  0  0
  152.9267  141.3463  158.8043 H   0  0  0  0  0  0  0  0  0  0  0  0
  153.9204  143.3092  159.9705 H   0  0  0  0  0  0  0  0  0  0  0  0
  152.9273  145.5807  159.6199 H   0  0  0  0  0  0  0  0  0  0  0  0
  150.9093  145.7931  158.0560 H   0  0  0  0  0  0  0  0  0  0  0  0
  150.0802  143.8928  157.0390 H   0  0  0  0  0  0  0  0  0  0  0  0
  1  2  1  0  0  0  0
  1 22  1  0  0  0  0
  1 23  1  0  0  0  0
  1 24  1  0  0  0  0
  2  3  1  0  0  0  0
  2 16  1  0  0  0  0
  3  4  2  0  0  0  0
  3  5  1  0  0  0  0
  5  6  1  0  0  0  0
  5 25  1  0  0  0  0
  6  7  1  0  0  0  0
  6 26  1  0  0  0  0
  6 27  1  0  0  0  0
  7  8  1  0  0  0  0
  7 28  1  0  0  0  0
  7 29  1  0  0  0  0
  8  9  2  0  0  0  0
  8 10  1  0  0  0  0
 10 11  1  0  0  0  0
 10 30  1  0  0  0  0
 11 15  1  0  0  0  0
 11 12  1  0  0  0  0
 11 31  1  0  0  0  0
 12 13  1  0  0  0  0
 12 32  1  0  0  0  0
 12 33  1  0  0  0  0
 13 14  1  0  0  0  0
 13 34  1  0  0  0  0
 13 35  1  0  0  0  0
 14 15  1  0  0  0  0
 14 36  1  0  0  0  0
 14 37  1  0  0  0  0
 15 38  1  0  0  0  0
 15 39  1  0  0  0  0
 16 21  1  0  0  0  0
 16 17  2  0  0  0  0
 17 18  1  0  0  0  0
 17 40  1  0  0  0  0
 18 19  2  0  0  0  0
 18 41  1  0  0  0  0
 19 20  1  0  0  0  0
 19 42  1  0  0  0  0
 20 21  2  0  0  0  0
 20 43  1  0  0  0  0
 21 44  1  0  0  0  0
M  CHG  1  21   1
M  END
> <s_m_source_file>
AV-unprocessed.smi

> <i_m_source_file_index>
2934

> <i_lp_mmshare_version>
43012

> <i_f3d_flags>
0

> <s_epik_input>
bjFbY0hdW2NIXVtjSF1bY0hdYzFOKFtDSDNdKUMoPU8pW05IXVtDSDJdW0NIMl1DKD1PKVtOSF1bQ0hdMltDSDJdW0NIMl1bQ0gyXVtDSDJdMg==

> <s_epik_cmdline>
J2VwaWtfcHl0aG9uJywgJy1waCcsICc3LjAnLCAnLXRuJywgJzgnLCAnLW1hJywgJzIwMCcsICctbWV0YWxfYmluZGluZycsICctaW1hZScsICc8aW5maWxlLm1hZT4nLCAnLW9tYWUnLCAnPG91dGZpbGUubWFlPic=

> <r_epik_Ionization_Penalty>
0.416827

> <r_epik_Ionization_Penalty_Charging>
0.416808

> <r_epik_Ionization_Penalty_Neutral>
1.8964e-05

> <r_epik_State_Penalty>
0.417222

> <r_epik_Charging_Adjusted_Penalty>
0.83403

> <i_epik_Tot_Q>
1

> <i_epik_Tot_abs_Q>
1

> <r_epik_Metal_State_Penalty>
0.655167

> <b_epik_Metal_Only>
0

> <s_lp_Force_Field>
OPLS_2005

> <r_lp_Energy>
36.0061

> <b_lp_Chiralities_Consistent>
1

> <s_lp_Variant>
AV-unprocessed.smi:2934-2

> <Gold.Version>
5.8.1

> <Gold.Id.Protein>
6NUR|6NUR_protein|mol2

> <Gold.PLP.Fitness>
50.1894

> <Gold.PLP.PLP>
-44.1210

> <Gold.PLP.part.hbond>
-2.9011

> <Gold.PLP.part.metal>
0.0000

> <Gold.PLP.part.buried>
-5.8503

> <Gold.PLP.part.nonpolar>
-36.5637

> <Gold.PLP.part.repulsive>
0.2123

> <Gold.PLP.ligand.clash>
3.1098

> <Gold.PLP.ligand.torsion>
0.9230

> <Gold.PLP.Chemscore.Hbond>
2.9913

> <Gold.PLP.Chemscore.CHOScore>
0.0000

> <Gold.PLP.Chemscore.Metal>
0.0000

> <Gold.Chemscore.Hbonds>
donor molecule, donor type, donor heavy atom, donor atom, acceptor molecule, acceptor atom, score
      L1  H    21    44       P1  8028  2.00
      P1  H  6896  6909       L1     9  1.00

> <Gold.PLP.Chemscore.Internal.Correction>
2.0504

> <Gold.Rescore>
     Score         DG    S(hbond)    S(metal)    S(lipo)     H(rot)  DE(clash)    DE(int)     intcor
     16.97     -19.21       1.97        0.00      99.74       1.76       0.12       2.12       ----

> <Gold.Chemscore.Fitness>
16.9707

> <Gold.Chemscore.DG>
-19.2099

> <Gold.Chemscore.ZeroCoef>
-5.4800

> <Gold.Chemscore.Hbond>
1.9683

> <Gold.Chemscore.Metal>
0.0000

> <Gold.Chemscore.Lipo>
99.7376

> <Gold.Chemscore.Internal_Hbond>
0.0000

> <Gold.Chemscore.DEClash>
0.1199

> <Gold.Chemscore.DEInternal>
2.1192

> <Gold.Chemscore.Rot>
1.7631

> <Gold.Chemscore.Internal.Correction>
   9.000000E+99

> <Gold.Chemscore.Hbonds>
donor molecule, donor type, donor heavy atom, donor atom, acceptor molecule, acceptor atom, score
      L1  H    21    44       P1  8028  0.93
      P1  H  6896  6909       L1     9  0.99

> <Gold.Chemscore.Hbond.Weighted>
-6.5741

> <Gold.Chemscore.Metal.Weighted>
-0.0000

> <Gold.Chemscore.Lipo.Weighted>
-11.6693

> <Gold.Chemscore.Internal_Hbond.Weighted>
0.0000

> <Gold.Chemscore.DEClash.Weighted>
0.1199

> <Gold.Chemscore.DEInternal.Weighted>
2.1192

> <Gold.Chemscore.Rot.Weighted>
4.5135

> <Gold.Chemscore.Internal.Correction.Weighted>
   9.000000E+99

> <Gold.Protein.RotatedTorsions>
[ 6907 6896 6895 6894 ] final   84.95 input  -60.11 | X-H torsion
[ 7974 7965 7964 7962 ] final  146.70 input  175.53 | X-H torsion
[ 8008 7997 7996 7995 ] final   32.87 input   59.86 | X-H torsion
[ 10167 10162 10161 10158 ] final  131.95 input  -65.29 | X-H torsion
[ 10718 10713 10712 10709 ] final  -49.48 input   66.30 | X-H torsion
[ 10763 10752 10751 10750 ] final -178.16 input  -60.55 | X-H torsion
[ 11005 11000 10999 10996 ] final    0.27 input  -57.11 | X-H torsion

> <Gold.Protein.ActiveResidues>
 VAL166  LYS551  ARG553  GLY616  TRP617  ASP618  TYR619  PRO620  LYS621  CYS622 
 ASP623  PHE694  ASN695  SER759  ASP760  ASP761  ALA762  ILE779  LEU786  VAL792 
 PHE793  MET794  SER795  GLU796  ALA797  LYS798  CYS799  TRP800  GLU811  SER814 

> <Gold.Protein.RotatedAtoms>
  152.5364  134.2661  159.8953 H   0  0  0  0  0  0  0  0  0  0  0  0  # atno 6907 bound_to 6896
  151.2619  133.4291  159.2624 H   0  0  0  0  0  0  0  0  0  0  0  0  # atno 6908 bound_to 6896
  151.0445  134.9645  159.8235 H   0  0  0  0  0  0  0  0  0  0  0  0  # atno 6909 bound_to 6896
  144.8650  139.5937  143.5913 H   0  0  0  0  0  0  0  0  0  0  0  0  # atno 7974 bound_to 7965
  155.1295  140.3256  155.4477 H   0  0  0  0  0  0  0  0  0  0  0  0  # atno 8008 bound_to 7997
  156.2639  140.2013  156.6363 H   0  0  0  0  0  0  0  0  0  0  0  0  # atno 8009 bound_to 7997
  154.6623  140.0546  157.0063 H   0  0  0  0  0  0  0  0  0  0  0  0  # atno 8010 bound_to 7997
  139.5361  144.6683  151.4782 H   0  0  0  0  0  0  0  0  0  0  0  0  # atno 10167 bound_to 10162
  156.1890  130.4152  149.9399 H   0  0  0  0  0  0  0  0  0  0  0  0  # atno 10718 bound_to 10713
  154.5512  135.2813  155.1007 H   0  0  0  0  0  0  0  0  0  0  0  0  # atno 10763 bound_to 10752
  154.2452  135.6349  153.5224 H   0  0  0  0  0  0  0  0  0  0  0  0  # atno 10764 bound_to 10752
  153.0003  135.5569  154.6079 H   0  0  0  0  0  0  0  0  0  0  0  0  # atno 10765 bound_to 10752
  140.6284  133.9597  155.8261 H   0  0  0  0  0  0  0  0  0  0  0  0  # atno 11005 bound_to 11000
  146.2889  139.7082  142.9175 LP  0  0  0  0  0  0  0  0  0  0  0  0  # atno 17320 bound_to 7965
  145.4239  141.0409  143.2948 LP  0  0  0  0  0  0  0  0  0  0  0  0  # atno 17321 bound_to 7965
  140.6568  143.8583  150.6843 LP  0  0  0  0  0  0  0  0  0  0  0  0  # atno 17342 bound_to 10162
  140.1965  143.3994  152.1824 LP  0  0  0  0  0  0  0  0  0  0  0  0  # atno 17343 bound_to 10162
  156.7145  130.8983  151.3612 LP  0  0  0  0  0  0  0  0  0  0  0  0  # atno 17370 bound_to 10713
  157.6917  130.9240  150.0531 LP  0  0  0  0  0  0  0  0  0  0  0  0  # atno 17371 bound_to 10713
  141.0693  134.0230  157.3549 LP  0  0  0  0  0  0  0  0  0  0  0  0  # atno 17394 bound_to 11000
  139.9126  135.0192  156.7752 LP  0  0  0  0  0  0  0  0  0  0  0  0  # atno 17395 bound_to 11000

$$$$
