AV-unprocessed.smi:611|AV-procd|sdf|3061|dock1
  -GOLD-   2262023583D 1   1.00000     0.00000
 Structure written by MMmdl.
 41 42  0  0  0  0  0  0  0  0  1 V2000
  146.0531  131.9981  149.0410 C   0  0  0  0  0  0  0  0  0  0  0  0
  144.8878  132.2080  150.0367 C   0  0  0  0  0  0  0  0  0  0  0  0
  143.5461  132.1111  149.2876 C   0  0  0  0  0  0  0  0  0  0  0  0
  144.9912  131.0559  151.0639 C   0  0  0  0  0  0  0  0  0  0  0  0
  144.9926  133.5776  150.7303 C   0  0  0  0  0  0  0  0  0  0  0  0
  146.1564  133.8740  151.3243 N   0  0  0  0  0  0  0  0  0  0  0  0
  146.3035  135.1130  151.8404 C   0  0  0  0  0  0  0  0  0  0  0  0
  145.2804  136.0855  151.7374 C   0  0  0  0  0  0  0  0  0  0  0  0
  145.3543  137.4120  152.2396 N   0  0  0  0  0  0  0  0  0  0  0  0
  146.1686  137.9061  153.1925 C   0  0  0  0  0  0  0  0  0  0  0  0
  147.0202  137.2548  153.7928 O   0  0  0  0  0  0  0  0  0  0  0  0
  145.9633  139.2064  153.4713 N   0  0  0  0  0  0  0  0  0  0  0  0
  146.6656  140.0474  154.4443 C   0  0  0  0  0  0  0  0  0  0  0  0
  146.4655  141.5401  154.1166 C   0  0  0  0  0  0  0  0  0  0  0  0
  147.8533  142.1799  154.1794 C   0  0  0  0  0  0  0  0  0  0  0  0
  148.8035  141.0555  153.7817 C   0  0  0  0  0  0  0  0  0  0  0  0
  148.1895  139.8068  154.4144 C   0  0  0  0  0  0  0  0  0  0  0  0
  144.1229  135.6847  151.0416 C   0  0  0  0  0  0  0  0  0  0  0  0
  143.9890  134.4425  150.5316 N   0  0  0  0  0  0  0  0  0  0  0  0
  146.0136  131.0079  148.5858 H   0  0  0  0  0  0  0  0  0  0  0  0
  147.0202  132.0927  149.5361 H   0  0  0  0  0  0  0  0  0  0  0  0
  146.0283  132.7202  148.2238 H   0  0  0  0  0  0  0  0  0  0  0  0
  143.4577  132.8910  148.5303 H   0  0  0  0  0  0  0  0  0  0  0  0
  142.7028  132.2189  149.9706 H   0  0  0  0  0  0  0  0  0  0  0  0
  143.4403  131.1499  148.7838 H   0  0  0  0  0  0  0  0  0  0  0  0
  144.9679  130.0824  150.5728 H   0  0  0  0  0  0  0  0  0  0  0  0
  144.1650  131.0676  151.7756 H   0  0  0  0  0  0  0  0  0  0  0  0
  145.9195  131.1136  151.6337 H   0  0  0  0  0  0  0  0  0  0  0  0
  147.2547  135.3106  152.3090 H   0  0  0  0  0  0  0  0  0  0  0  0
  144.6617  138.0515  151.8783 H   0  0  0  0  0  0  0  0  0  0  0  0
  145.2227  139.6615  152.9574 H   0  0  0  0  0  0  0  0  0  0  0  0
  146.2828  139.8505  155.4474 H   0  0  0  0  0  0  0  0  0  0  0  0
  146.0663  141.6629  153.1084 H   0  0  0  0  0  0  0  0  0  0  0  0
  145.7648  142.0215  154.7994 H   0  0  0  0  0  0  0  0  0  0  0  0
  147.9427  143.0548  153.5348 H   0  0  0  0  0  0  0  0  0  0  0  0
  148.0672  142.4959  155.2013 H   0  0  0  0  0  0  0  0  0  0  0  0
  148.8145  140.9504  152.6959 H   0  0  0  0  0  0  0  0  0  0  0  0
  149.8274  141.2331  154.1112 H   0  0  0  0  0  0  0  0  0  0  0  0
  148.5549  139.7071  155.4373 H   0  0  0  0  0  0  0  0  0  0  0  0
  148.4792  138.8994  153.8829 H   0  0  0  0  0  0  0  0  0  0  0  0
  143.2966  136.3639  150.8903 H   0  0  0  0  0  0  0  0  0  0  0  0
  1  2  1  0  0  0  0
  1 20  1  0  0  0  0
  1 21  1  0  0  0  0
  1 22  1  0  0  0  0
  2  3  1  0  0  0  0
  2  4  1  0  0  0  0
  2  5  1  0  0  0  0
  3 23  1  0  0  0  0
  3 24  1  0  0  0  0
  3 25  1  0  0  0  0
  4 26  1  0  0  0  0
  4 27  1  0  0  0  0
  4 28  1  0  0  0  0
  5 19  1  0  0  0  0
  5  6  2  0  0  0  0
  6  7  1  0  0  0  0
  7  8  2  0  0  0  0
  7 29  1  0  0  0  0
  8  9  1  0  0  0  0
  8 18  1  0  0  0  0
  9 10  1  0  0  0  0
  9 30  1  0  0  0  0
 10 11  2  0  0  0  0
 10 12  1  0  0  0  0
 12 13  1  0  0  0  0
 12 31  1  0  0  0  0
 13 17  1  0  0  0  0
 13 14  1  0  0  0  0
 13 32  1  0  0  0  0
 14 15  1  0  0  0  0
 14 33  1  0  0  0  0
 14 34  1  0  0  0  0
 15 16  1  0  0  0  0
 15 35  1  0  0  0  0
 15 36  1  0  0  0  0
 16 17  1  0  0  0  0
 16 37  1  0  0  0  0
 16 38  1  0  0  0  0
 17 39  1  0  0  0  0
 17 40  1  0  0  0  0
 18 19  2  0  0  0  0
 18 41  1  0  0  0  0
M  END
> <s_m_source_file>
AV-unprocessed.smi

> <i_m_source_file_index>
611

> <i_lp_mmshare_version>
43012

> <i_f3d_flags>
0

> <s_epik_input>
W0NIM11DKFtDSDNdKShbQ0gzXSljMW5bY0hdYyhbY0hdbjEpW05IXUMoPU8pW05IXVtDSF0yW0NIMl1bQ0gyXVtDSDJdW0NIMl0y

> <s_epik_cmdline>
J2VwaWtfcHl0aG9uJywgJy1waCcsICc3LjAnLCAnLXRuJywgJzgnLCAnLW1hJywgJzIwMCcsICctbWV0YWxfYmluZGluZycsICctaW1hZScsICc8aW5maWxlLm1hZT4nLCAnLW9tYWUnLCAnPG91dGZpbGUubWFlPic=

> <r_lp_tautomer_probability>
1

> <r_epik_Ionization_Penalty>
2.83035e-05

> <r_epik_Ionization_Penalty_Charging>
0

> <r_epik_Ionization_Penalty_Neutral>
2.83035e-05

> <r_epik_State_Penalty>
-0

> <r_epik_Charging_Adjusted_Penalty>
0

> <i_epik_Tot_Q>
0

> <i_epik_Tot_abs_Q>
0

> <r_epik_Metal_State_Penalty>
-0

> <b_epik_Metal_Only>
0

> <s_lp_Force_Field>
OPLS_2005

> <r_lp_Energy>
27.5905

> <b_lp_Chiralities_Consistent>
1

> <s_lp_Variant>
AV-unprocessed.smi:611-1

> <Gold.Version>
5.8.1

> <Gold.Id.Protein>
6NUR|6NUR_protein|mol2

> <Gold.PLP.Fitness>
41.3231

> <Gold.PLP.PLP>
-31.1572

> <Gold.PLP.part.hbond>
-2.0000

> <Gold.PLP.part.metal>
0.0000

> <Gold.PLP.part.buried>
2.1477

> <Gold.PLP.part.nonpolar>
-32.4359

> <Gold.PLP.part.repulsive>
0.5316

> <Gold.PLP.ligand.clash>
0.0000

> <Gold.PLP.ligand.torsion>
0.4066

> <Gold.PLP.Chemscore.Hbond>
1.7691

> <Gold.PLP.Chemscore.CHOScore>
1.8458

> <Gold.PLP.Chemscore.Metal>
0.0000

> <Gold.Chemscore.Hbonds>
donor molecule, donor type, donor heavy atom, donor atom, acceptor molecule, acceptor atom, score
      L1  H     9    30       P1 10171  0.28
      L1  H    12    31       P1 10175  1.00
      L1  C     7    29       P1  7948  0.81
      L1  C    18    41       P1 10171  0.74

> <Gold.PLP.Chemscore.Internal.Correction>
0.1346

> <Gold.Rescore>
     Score         DG    S(hbond)    S(metal)    S(lipo)     H(rot)  DE(clash)    DE(int)     intcor
     13.05     -18.35       1.59        0.00      90.17       1.16       1.99       3.31       ----

> <Gold.Chemscore.Fitness>
13.0543

> <Gold.Chemscore.DG>
-18.3508

> <Gold.Chemscore.ZeroCoef>
-5.4800

> <Gold.Chemscore.Hbond>
1.5867

> <Gold.Chemscore.Metal>
0.0000

> <Gold.Chemscore.Lipo>
90.1735

> <Gold.Chemscore.Internal_Hbond>
0.0000

> <Gold.Chemscore.DEClash>
1.9855

> <Gold.Chemscore.DEInternal>
3.3109

> <Gold.Chemscore.Rot>
1.1637

> <Gold.Chemscore.Internal.Correction>
   9.000000E+99

> <Gold.Chemscore.Hbonds>
donor molecule, donor type, donor heavy atom, donor atom, acceptor molecule, acceptor atom, score
      L1  H     9    30       P1 10171  0.28
      L1  H    12    31       P1 10175  1.00

> <Gold.Chemscore.Hbond.Weighted>
-5.2995

> <Gold.Chemscore.Metal.Weighted>
-0.0000

> <Gold.Chemscore.Lipo.Weighted>
-10.5503

> <Gold.Chemscore.Internal_Hbond.Weighted>
0.0000

> <Gold.Chemscore.DEClash.Weighted>
1.9855

> <Gold.Chemscore.DEInternal.Weighted>
3.3109

> <Gold.Chemscore.Rot.Weighted>
2.9790

> <Gold.Chemscore.Internal.Correction.Weighted>
   9.000000E+99

> <Gold.Protein.RotatedTorsions>
[ 6907 6896 6895 6894 ] final  137.23 input  -60.11 | X-H torsion
[ 7974 7965 7964 7962 ] final  107.50 input  175.53 | X-H torsion
[ 8008 7997 7996 7995 ] final -117.22 input   59.86 | X-H torsion
[ 10167 10162 10161 10158 ] final  107.13 input  -65.29 | X-H torsion
[ 10718 10713 10712 10709 ] final  -65.02 input   66.30 | X-H torsion
[ 10763 10752 10751 10750 ] final  -58.41 input  -60.55 | X-H torsion
[ 11005 11000 10999 10996 ] final  147.71 input  -57.11 | X-H torsion

> <Gold.Protein.ActiveResidues>
 VAL166  LYS551  ARG553  GLY616  TRP617  ASP618  TYR619  PRO620  LYS621  CYS622 
 ASP623  PHE694  ASN695  SER759  ASP760  ASP761  ALA762  ILE779  LEU786  VAL792 
 PHE793  MET794  SER795  GLU796  ALA797  LYS798  CYS799  TRP800  GLU811  SER814 

> <Gold.Protein.RotatedAtoms>
  152.2804  133.5465  159.5494 H   0  0  0  0  0  0  0  0  0  0  0  0  # atno 6907 bound_to 6896
  150.7194  134.0572  159.3827 H   0  0  0  0  0  0  0  0  0  0  0  0  # atno 6908 bound_to 6896
  151.8482  135.0567  160.0507 H   0  0  0  0  0  0  0  0  0  0  0  0  # atno 6909 bound_to 6896
  145.2928  139.2595  143.3856 H   0  0  0  0  0  0  0  0  0  0  0  0  # atno 7974 bound_to 7965
  155.0803  140.0394  157.2637 H   0  0  0  0  0  0  0  0  0  0  0  0  # atno 8008 bound_to 7997
  154.6912  140.2654  155.6786 H   0  0  0  0  0  0  0  0  0  0  0  0  # atno 8009 bound_to 7997
  156.2729  140.2759  156.1491 H   0  0  0  0  0  0  0  0  0  0  0  0  # atno 8010 bound_to 7997
  139.6952  144.7102  151.1279 H   0  0  0  0  0  0  0  0  0  0  0  0  # atno 10167 bound_to 10162
  156.0694  130.4241  150.1504 H   0  0  0  0  0  0  0  0  0  0  0  0  # atno 10718 bound_to 10713
  154.2377  135.6349  153.5196 H   0  0  0  0  0  0  0  0  0  0  0  0  # atno 10763 bound_to 10752
  152.9936  135.5534  154.5945 H   0  0  0  0  0  0  0  0  0  0  0  0  # atno 10764 bound_to 10752
  154.5442  135.2897  155.1042 H   0  0  0  0  0  0  0  0  0  0  0  0  # atno 10765 bound_to 10752
  140.0899  134.9047  157.1634 H   0  0  0  0  0  0  0  0  0  0  0  0  # atno 11005 bound_to 11000
  146.3179  140.3423  142.8649 LP  0  0  0  0  0  0  0  0  0  0  0  0  # atno 17320 bound_to 7965
  144.9159  140.7811  143.5778 LP  0  0  0  0  0  0  0  0  0  0  0  0  # atno 17321 bound_to 7965
  140.7694  143.5501  150.9214 LP  0  0  0  0  0  0  0  0  0  0  0  0  # atno 17342 bound_to 10162
  139.9181  143.6639  152.3102 LP  0  0  0  0  0  0  0  0  0  0  0  0  # atno 17343 bound_to 10162
  156.9558  130.9789  151.3489 LP  0  0  0  0  0  0  0  0  0  0  0  0  # atno 17370 bound_to 10713
  157.5756  130.8340  149.8450 LP  0  0  0  0  0  0  0  0  0  0  0  0  # atno 17371 bound_to 10713
  140.3367  134.2749  155.7219 LP  0  0  0  0  0  0  0  0  0  0  0  0  # atno 17394 bound_to 11000
  141.2074  133.7805  157.0118 LP  0  0  0  0  0  0  0  0  0  0  0  0  # atno 17395 bound_to 11000

$$$$
