AV-unprocessed.smi:2588|AV-procd|sdf|10149|dock9
  -GOLD-   2272014163D 1   1.00000     0.00000
 Structure written by MMmdl.
 40 41  0  0  0  0  0  0  0  0  2 V2000
  145.4094  136.7839  151.9096 C   0  0  0  0  0  0  0  0  0  0  0  0
  146.2288  137.7643  152.7755 C   0  0  0  0  0  0  0  0  0  0  0  0
  146.7995  138.8632  151.8535 C   0  0  0  0  0  0  0  0  0  0  0  0
  147.2936  137.0734  153.5752 N   0  3  2  0  0  0  0  0  0  0  0  0
  146.7809  135.9176  154.3700 C   0  0  0  0  0  0  0  0  0  0  0  0
  147.9050  135.1696  155.1123 C   0  0  0  0  0  0  0  0  0  0  0  0
  148.7223  136.1015  156.0164 C   0  0  2  0  0  0  0  0  0  0  0  0
  147.9153  136.5425  157.1531 N   0  0  0  0  0  0  0  0  0  0  0  0
  148.2672  136.4473  158.4442 C   0  0  0  0  0  0  0  0  0  0  0  0
  149.3139  135.9229  158.8245 O   0  0  0  0  0  0  0  0  0  0  0  0
  147.2808  137.0300  159.4615 C   0  0  0  0  0  0  0  0  0  0  0  0
  147.3337  136.3211  160.7400 N   0  0  0  0  0  0  0  0  0  0  0  0
  147.5404  137.0462  161.8719 N   0  0  0  0  0  0  0  0  0  0  0  0
  147.5552  136.2978  162.9122 C   0  0  0  0  0  0  0  0  0  0  0  0
  147.3163  134.5677  162.6328 S   0  0  0  0  0  0  0  0  0  0  0  0
  147.1859  134.9447  160.8930 C   0  0  0  0  0  0  0  0  0  0  0  0
  146.9951  134.0940  160.0247 O   0  0  0  0  0  0  0  0  0  0  0  0
  149.2269  137.2825  155.1687 C   0  0  0  0  0  0  0  0  0  0  0  0
  148.0796  138.0028  154.4393 C   0  0  0  0  0  0  0  0  0  0  0  0
  144.7312  137.3201  151.2447 H   0  0  0  0  0  0  0  0  0  0  0  0
  144.7796  136.1269  152.5082 H   0  0  0  0  0  0  0  0  0  0  0  0
  146.0568  136.1657  151.2869 H   0  0  0  0  0  0  0  0  0  0  0  0
  145.5418  138.2426  153.4753 H   0  0  0  0  0  0  0  0  0  0  0  0
  146.0286  139.2602  151.1922 H   0  0  0  0  0  0  0  0  0  0  0  0
  147.6029  138.4779  151.2244 H   0  0  0  0  0  0  0  0  0  0  0  0
  147.1803  139.7182  152.4113 H   0  0  0  0  0  0  0  0  0  0  0  0
  146.0274  136.2691  155.0765 H   0  0  0  0  0  0  0  0  0  0  0  0
  146.2931  135.1886  153.7257 H   0  0  0  0  0  0  0  0  0  0  0  0
  147.4850  134.3503  155.6977 H   0  0  0  0  0  0  0  0  0  0  0  0
  148.5687  134.7068  154.3806 H   0  0  0  0  0  0  0  0  0  0  0  0
  149.5779  135.5476  156.4065 H   0  0  0  0  0  0  0  0  0  0  0  0
  147.0267  136.9728  156.9412 H   0  0  0  0  0  0  0  0  0  0  0  0
  147.4900  138.0877  159.6321 H   0  0  0  0  0  0  0  0  0  0  0  0
  146.2762  136.9787  159.0384 H   0  0  0  0  0  0  0  0  0  0  0  0
  147.7004  136.6283  163.9406 H   0  0  0  0  0  0  0  0  0  0  0  0
  149.7792  137.9938  155.7833 H   0  0  0  0  0  0  0  0  0  0  0  0
  149.9405  136.9132  154.4308 H   0  0  0  0  0  0  0  0  0  0  0  0
  148.5344  138.7942  153.8471 H   0  0  0  0  0  0  0  0  0  0  0  0
  147.4154  138.4864  155.1575 H   0  0  0  0  0  0  0  0  0  0  0  0
  147.9460  136.6906  152.9057 H   0  0  0  0  0  0  0  0  0  0  0  0
  1  2  1  0  0  0  0
  1 20  1  0  0  0  0
  1 21  1  0  0  0  0
  1 22  1  0  0  0  0
  2  3  1  0  0  0  0
  2  4  1  0  0  0  0
  2 23  1  0  0  0  0
  3 24  1  0  0  0  0
  3 25  1  0  0  0  0
  3 26  1  0  0  0  0
  4 19  1  0  0  0  0
  4  5  1  0  0  0  0
  4 40  1  0  0  0  0
  5  6  1  0  0  0  0
  5 27  1  0  0  0  0
  5 28  1  0  0  0  0
  6  7  1  0  0  0  0
  6 29  1  0  0  0  0
  6 30  1  0  0  0  0
  7  8  1  0  0  0  0
  7 18  1  0  0  0  0
  7 31  1  0  0  0  0
  8  9  1  0  0  0  0
  8 32  1  0  0  0  0
  9 10  2  0  0  0  0
  9 11  1  0  0  0  0
 11 12  1  0  0  0  0
 11 33  1  0  0  0  0
 11 34  1  0  0  0  0
 12 16  1  0  0  0  0
 12 13  1  0  0  0  0
 13 14  2  0  0  0  0
 14 15  1  0  0  0  0
 14 35  1  0  0  0  0
 15 16  1  0  0  0  0
 16 17  2  0  0  0  0
 18 19  1  0  0  0  0
 18 36  1  0  0  0  0
 18 37  1  0  0  0  0
 19 38  1  0  0  0  0
 19 39  1  0  0  0  0
M  CHG  1   4   1
M  END
> <s_m_source_file>
AV-unprocessed.smi

> <i_m_source_file_index>
2588

> <i_lp_mmshare_version>
43012

> <i_f3d_flags>
0

> <s_epik_input>
W0NIM11bQ0hdKFtDSDNdKU4xW0NIMl1bQ0gyXVtDSF0oW0NIMl1bQ0gyXTEpW05IXUMoPU8pW0NIMl1uMm5bY0hdc2MyPU8=

> <s_epik_cmdline>
J2VwaWtfcHl0aG9uJywgJy1waCcsICc3LjAnLCAnLXRuJywgJzgnLCAnLW1hJywgJzIwMCcsICctbWV0YWxfYmluZGluZycsICctaW1hZScsICc8aW5maWxlLm1hZT4nLCAnLW9tYWUnLCAnPG91dGZpbGUubWFlPic=

> <r_lp_tautomer_probability>
1

> <r_epik_Ionization_Penalty>
0.00923155

> <r_epik_Ionization_Penalty_Charging>
0.00923117

> <r_epik_Ionization_Penalty_Neutral>
3.88423e-07

> <r_epik_State_Penalty>
0.0069994

> <r_epik_Charging_Adjusted_Penalty>
0.0162306

> <i_epik_Tot_Q>
1

> <i_epik_Tot_abs_Q>
1

> <r_epik_Metal_State_Penalty>
0.0069994

> <b_epik_Metal_Only>
0

> <s_lp_Force_Field>
OPLS_2005

> <r_lp_Energy>
20.7245

> <b_lp_Chiralities_Consistent>
1

> <s_lp_Variant>
AV-unprocessed.smi:2588-2

> <Gold.Version>
5.8.1

> <Gold.Id.Protein>
6NUR|6NUR_protein|mol2

> <Gold.PLP.Fitness>
40.8901

> <Gold.PLP.PLP>
-28.6443

> <Gold.PLP.part.hbond>
-3.9678

> <Gold.PLP.part.metal>
0.0000

> <Gold.PLP.part.buried>
-0.7306

> <Gold.PLP.part.nonpolar>
-23.3127

> <Gold.PLP.part.repulsive>
0.0065

> <Gold.PLP.ligand.clash>
0.0000

> <Gold.PLP.ligand.torsion>
0.4962

> <Gold.PLP.Chemscore.Hbond>
4.4009

> <Gold.PLP.Chemscore.CHOScore>
0.0000

> <Gold.PLP.Chemscore.Metal>
0.0000

> <Gold.Chemscore.Hbonds>
donor molecule, donor type, donor heavy atom, donor atom, acceptor molecule, acceptor atom, score
      L1  H     4    40       P1  7948  1.95
      P1  H  6896  6907       L1    10  1.00
      P1  H  6931  6943       L1    13  1.00
      P1  H  6934  6947       L1    13  0.33

> <Gold.PLP.Chemscore.Internal.Correction>
0.0353

> <Gold.Rescore>
     Score         DG    S(hbond)    S(metal)    S(lipo)     H(rot)  DE(clash)    DE(int)     intcor
     16.47     -17.01       2.93        0.00      55.95       1.88       0.06       0.48       ----

> <Gold.Chemscore.Fitness>
16.4672

> <Gold.Chemscore.DG>
-17.0053

> <Gold.Chemscore.ZeroCoef>
-5.4800

> <Gold.Chemscore.Hbond>
2.9285

> <Gold.Chemscore.Metal>
0.0000

> <Gold.Chemscore.Lipo>
55.9461

> <Gold.Chemscore.Internal_Hbond>
0.0000

> <Gold.Chemscore.DEClash>
0.0630

> <Gold.Chemscore.DEInternal>
0.4751

> <Gold.Chemscore.Rot>
1.8756

> <Gold.Chemscore.Internal.Correction>
   9.000000E+99

> <Gold.Chemscore.Hbonds>
donor molecule, donor type, donor heavy atom, donor atom, acceptor molecule, acceptor atom, score
      L1  H     4    40       P1  7948  0.92
      P1  H  6896  6907       L1    10  0.93
      P1  H  6931  6943       L1    13  0.69
      P1  H  6934  6947       L1    13  0.05

> <Gold.Chemscore.Hbond.Weighted>
-9.7811

> <Gold.Chemscore.Metal.Weighted>
-0.0000

> <Gold.Chemscore.Lipo.Weighted>
-6.5457

> <Gold.Chemscore.Internal_Hbond.Weighted>
0.0000

> <Gold.Chemscore.DEClash.Weighted>
0.0630

> <Gold.Chemscore.DEInternal.Weighted>
0.4751

> <Gold.Chemscore.Rot.Weighted>
4.8015

> <Gold.Chemscore.Internal.Correction.Weighted>
   9.000000E+99

> <Gold.Protein.RotatedTorsions>
[ 6907 6896 6895 6894 ] final  -56.68 input  -60.11 | X-H torsion
[ 7974 7965 7964 7962 ] final  119.60 input  175.53 | X-H torsion
[ 8008 7997 7996 7995 ] final  175.34 input   59.86 | X-H torsion
[ 10167 10162 10161 10158 ] final   75.99 input  -65.29 | X-H torsion
[ 10718 10713 10712 10709 ] final   91.65 input   66.30 | X-H torsion
[ 10763 10752 10751 10750 ] final  -66.21 input  -60.55 | X-H torsion
[ 11005 11000 10999 10996 ] final  -64.36 input  -57.11 | X-H torsion

> <Gold.Protein.ActiveResidues>
 VAL166  LYS551  ARG553  GLY616  TRP617  ASP618  TYR619  PRO620  LYS621  CYS622 
 ASP623  PHE694  ASN695  SER759  ASP760  ASP761  ALA762  ILE779  LEU786  VAL792 
 PHE793  MET794  SER795  GLU796  ALA797  LYS798  CYS799  TRP800  GLU811  SER814 

> <Gold.Protein.RotatedAtoms>
  150.8147  134.7322  159.6719 H   0  0  0  0  0  0  0  0  0  0  0  0  # atno 6907 bound_to 6896
  152.4266  134.5853  159.9969 H   0  0  0  0  0  0  0  0  0  0  0  0  # atno 6908 bound_to 6896
  151.6053  133.3315  159.3092 H   0  0  0  0  0  0  0  0  0  0  0  0  # atno 6909 bound_to 6896
  145.1412  139.3267  143.4615 H   0  0  0  0  0  0  0  0  0  0  0  0  # atno 7974 bound_to 7965
  156.0881  140.1411  156.9628 H   0  0  0  0  0  0  0  0  0  0  0  0  # atno 8008 bound_to 7997
  154.4625  140.0938  156.6979 H   0  0  0  0  0  0  0  0  0  0  0  0  # atno 8009 bound_to 7997
  155.4966  140.3449  155.4366 H   0  0  0  0  0  0  0  0  0  0  0  0  # atno 8010 bound_to 7997
  139.9971  144.5714  150.7769 H   0  0  0  0  0  0  0  0  0  0  0  0  # atno 10167 bound_to 10162
  157.6960  131.0415  150.3761 H   0  0  0  0  0  0  0  0  0  0  0  0  # atno 10718 bound_to 10713
  154.3564  135.6125  153.5668 H   0  0  0  0  0  0  0  0  0  0  0  0  # atno 10763 bound_to 10752
  152.9795  135.5805  154.4683 H   0  0  0  0  0  0  0  0  0  0  0  0  # atno 10764 bound_to 10752
  154.4414  135.2850  155.1822 H   0  0  0  0  0  0  0  0  0  0  0  0  # atno 10765 bound_to 10752
  141.1422  133.6665  156.5822 H   0  0  0  0  0  0  0  0  0  0  0  0  # atno 11005 bound_to 11000
  146.3505  140.1449  142.8593 LP  0  0  0  0  0  0  0  0  0  0  0  0  # atno 17320 bound_to 7965
  145.0530  140.9032  143.4984 LP  0  0  0  0  0  0  0  0  0  0  0  0  # atno 17321 bound_to 7965
  140.7433  143.2844  151.3505 LP  0  0  0  0  0  0  0  0  0  0  0  0  # atno 17342 bound_to 10162
  139.6298  144.0742  152.2466 LP  0  0  0  0  0  0  0  0  0  0  0  0  # atno 17343 bound_to 10162
  156.4180  130.3947  149.6845 LP  0  0  0  0  0  0  0  0  0  0  0  0  # atno 17370 bound_to 10713
  156.4105  130.7720  151.2732 LP  0  0  0  0  0  0  0  0  0  0  0  0  # atno 17371 bound_to 10713
  140.3829  134.7508  157.4672 LP  0  0  0  0  0  0  0  0  0  0  0  0  # atno 17394 bound_to 11000
  140.0624  134.5977  155.8734 LP  0  0  0  0  0  0  0  0  0  0  0  0  # atno 17395 bound_to 11000

$$$$
