AV-unprocessed.smi:2023|AV-procd|sdf|8189|dock1
  -GOLD-   2272010443D 1   1.00000     0.00000
 Structure written by MMmdl.
 35 36  0  0  0  0  0  0  0  0  1 V2000
  151.0117  139.5821  154.5974 O   0  0  0  0  0  0  0  0  0  0  0  0
  151.4076  139.4320  156.0059 S   0  0  0  0  0  0  0  0  0  0  0  0
  152.8250  139.3384  156.3874 O   0  0  0  0  0  0  0  0  0  0  0  0
  150.6933  140.7026  156.9294 N   0  0  0  0  0  0  0  0  0  0  0  0
  151.1937  142.0695  156.7705 C   0  0  0  0  0  0  0  0  0  0  0  0
  150.2940  143.0754  157.5082 C   0  0  0  0  0  0  0  0  0  0  0  0
  151.0092  143.8085  158.6286 C   0  0  0  0  0  0  0  0  0  0  0  0
  151.8466  143.1173  159.5284 C   0  0  0  0  0  0  0  0  0  0  0  0
  152.4677  143.8365  160.5671 C   0  0  0  0  0  0  0  0  0  0  0  0
  152.2277  145.2219  160.6589 C   0  0  0  0  0  0  0  0  0  0  0  0
  151.4335  145.8960  159.7995 N   0  0  0  0  0  0  0  0  0  0  0  0
  150.8389  145.1975  158.8084 C   0  0  0  0  0  0  0  0  0  0  0  0
  150.5563  138.0800  156.6716 N   0  0  0  0  0  0  0  0  0  0  0  0
  150.4692  138.0175  158.1401 C   0  0  0  0  0  0  0  0  0  0  0  0
  149.5181  136.8991  158.5960 C   0  0  0  0  0  0  0  0  0  0  0  0
  149.9043  135.6629  158.0164 O   0  0  0  0  0  0  0  0  0  0  0  0
  149.8170  135.7066  156.6010 C   0  0  0  0  0  0  0  0  0  0  0  0
  150.7812  136.7655  156.0426 C   0  0  0  0  0  0  0  0  0  0  0  0
  150.5564  140.4418  157.9057 H   0  0  0  0  0  0  0  0  0  0  0  0
  152.2082  142.1161  157.1664 H   0  0  0  0  0  0  0  0  0  0  0  0
  151.2573  142.3190  155.7106 H   0  0  0  0  0  0  0  0  0  0  0  0
  149.8907  143.8014  156.8009 H   0  0  0  0  0  0  0  0  0  0  0  0
  149.4340  142.5538  157.9297 H   0  0  0  0  0  0  0  0  0  0  0  0
  152.0038  142.0532  159.4315 H   0  0  0  0  0  0  0  0  0  0  0  0
  153.1106  143.3386  161.2777 H   0  0  0  0  0  0  0  0  0  0  0  0
  152.6874  145.8048  161.4432 H   0  0  0  0  0  0  0  0  0  0  0  0
  150.2020  145.7627  158.1439 H   0  0  0  0  0  0  0  0  0  0  0  0
  151.4677  137.8485  158.5448 H   0  0  0  0  0  0  0  0  0  0  0  0
  150.1242  138.9755  158.5295 H   0  0  0  0  0  0  0  0  0  0  0  0
  149.5477  136.8034  159.6816 H   0  0  0  0  0  0  0  0  0  0  0  0
  148.4867  137.1343  158.3280 H   0  0  0  0  0  0  0  0  0  0  0  0
  150.0708  134.7245  156.2020 H   0  0  0  0  0  0  0  0  0  0  0  0
  148.7913  135.9169  156.2937 H   0  0  0  0  0  0  0  0  0  0  0  0
  150.6536  136.8400  154.9634 H   0  0  0  0  0  0  0  0  0  0  0  0
  151.8135  136.4613  156.2208 H   0  0  0  0  0  0  0  0  0  0  0  0
  1  2  2  0  0  0  0
  2  3  2  0  0  0  0
  2  4  1  0  0  0  0
  2 13  1  0  0  0  0
  4  5  1  0  0  0  0
  4 19  1  0  0  0  0
  5  6  1  0  0  0  0
  5 20  1  0  0  0  0
  5 21  1  0  0  0  0
  6  7  1  0  0  0  0
  6 22  1  0  0  0  0
  6 23  1  0  0  0  0
  7 12  1  0  0  0  0
  7  8  2  0  0  0  0
  8  9  1  0  0  0  0
  8 24  1  0  0  0  0
  9 10  2  0  0  0  0
  9 25  1  0  0  0  0
 10 11  1  0  0  0  0
 10 26  1  0  0  0  0
 11 12  2  0  0  0  0
 12 27  1  0  0  0  0
 13 18  1  0  0  0  0
 13 14  1  0  0  0  0
 14 15  1  0  0  0  0
 14 28  1  0  0  0  0
 14 29  1  0  0  0  0
 15 16  1  0  0  0  0
 15 30  1  0  0  0  0
 15 31  1  0  0  0  0
 16 17  1  0  0  0  0
 17 18  1  0  0  0  0
 17 32  1  0  0  0  0
 17 33  1  0  0  0  0
 18 34  1  0  0  0  0
 18 35  1  0  0  0  0
M  END
> <s_m_source_file>
AV-unprocessed.smi

> <i_m_source_file_index>
2023

> <i_lp_mmshare_version>
43012

> <i_f3d_flags>
0

> <s_epik_input>
W0NIMl0xW0NIMl1PW0NIMl1bQ0gyXU4xUyg9TykoPU8pW05IXVtDSDJdW0NIMl1jMltjSF1bY0hdW2NIXW5bY0hdMg==

> <s_epik_cmdline>
J2VwaWtfcHl0aG9uJywgJy1waCcsICc3LjAnLCAnLXRuJywgJzgnLCAnLW1hJywgJzIwMCcsICctbWV0YWxfYmluZGluZycsICctaW1hZScsICc8aW5maWxlLm1hZT4nLCAnLW9tYWUnLCAnPG91dGZpbGUubWFlPic=

> <r_epik_Ionization_Penalty>
0.0861056

> <r_epik_Ionization_Penalty_Charging>
0

> <r_epik_Ionization_Penalty_Neutral>
0.0861056

> <r_epik_State_Penalty>
0.0574425

> <r_epik_Charging_Adjusted_Penalty>
0.0574425

> <i_epik_Tot_Q>
0

> <i_epik_Tot_abs_Q>
0

> <r_epik_Metal_State_Penalty>
0.317425

> <b_epik_Metal_Only>
0

> <s_lp_Force_Field>
OPLS_2005

> <r_lp_Energy>
8.68862

> <b_lp_Chiralities_Consistent>
1

> <s_lp_Variant>
AV-unprocessed.smi:2023-1

> <Gold.Version>
5.8.1

> <Gold.Id.Protein>
6NUR|6NUR_protein|mol2

> <Gold.PLP.Fitness>
39.3448

> <Gold.PLP.PLP>
-28.6148

> <Gold.PLP.part.hbond>
-4.6726

> <Gold.PLP.part.metal>
0.0000

> <Gold.PLP.part.buried>
-3.6983

> <Gold.PLP.part.nonpolar>
-20.8614

> <Gold.PLP.part.repulsive>
0.2919

> <Gold.PLP.ligand.clash>
0.0000

> <Gold.PLP.ligand.torsion>
0.9881

> <Gold.PLP.Chemscore.Hbond>
2.9600

> <Gold.PLP.Chemscore.CHOScore>
1.0000

> <Gold.PLP.Chemscore.Metal>
0.0000

> <Gold.Chemscore.Hbonds>
donor molecule, donor type, donor heavy atom, donor atom, acceptor molecule, acceptor atom, score
      P1  H  6896  6909       L1    16  0.94
      P1  H  7989  7998       L1     1  1.00
      P1  H  7997  8010       L1     3  1.00
      L1  C    12    27       P1  8029  1.00

> <Gold.PLP.Chemscore.Internal.Correction>
0.8262

> <Gold.Rescore>
     Score         DG    S(hbond)    S(metal)    S(lipo)     H(rot)  DE(clash)    DE(int)     intcor
     18.17     -20.86       2.92        0.00      88.17       1.84       1.65       1.04       ----

> <Gold.Chemscore.Fitness>
18.1664

> <Gold.Chemscore.DG>
-20.8591

> <Gold.Chemscore.ZeroCoef>
-5.4800

> <Gold.Chemscore.Hbond>
2.9249

> <Gold.Chemscore.Metal>
0.0000

> <Gold.Chemscore.Lipo>
88.1684

> <Gold.Chemscore.Internal_Hbond>
0.0000

> <Gold.Chemscore.DEClash>
1.6502

> <Gold.Chemscore.DEInternal>
1.0425

> <Gold.Chemscore.Rot>
1.8382

> <Gold.Chemscore.Internal.Correction>
   9.000000E+99

> <Gold.Chemscore.Hbonds>
donor molecule, donor type, donor heavy atom, donor atom, acceptor molecule, acceptor atom, score
      P1  H  6896  6909       L1    16  0.43
      P1  H  7989  7998       L1     1  1.00
      P1  H  7997  8010       L1     3  1.00

> <Gold.Chemscore.Hbond.Weighted>
-9.7691

> <Gold.Chemscore.Metal.Weighted>
-0.0000

> <Gold.Chemscore.Lipo.Weighted>
-10.3157

> <Gold.Chemscore.Internal_Hbond.Weighted>
0.0000

> <Gold.Chemscore.DEClash.Weighted>
1.6502

> <Gold.Chemscore.DEInternal.Weighted>
1.0425

> <Gold.Chemscore.Rot.Weighted>
4.7057

> <Gold.Chemscore.Internal.Correction.Weighted>
   9.000000E+99

> <Gold.Protein.RotatedTorsions>
[ 6907 6896 6895 6894 ] final   51.50 input  -60.11 | X-H torsion
[ 7974 7965 7964 7962 ] final   45.13 input  175.53 | X-H torsion
[ 8008 7997 7996 7995 ] final   74.43 input   59.86 | X-H torsion
[ 10167 10162 10161 10158 ] final  -80.97 input  -65.29 | X-H torsion
[ 10718 10713 10712 10709 ] final  133.13 input   66.30 | X-H torsion
[ 10763 10752 10751 10750 ] final   72.97 input  -60.55 | X-H torsion
[ 11005 11000 10999 10996 ] final  -27.34 input  -57.11 | X-H torsion

> <Gold.Protein.ActiveResidues>
 VAL166  LYS551  ARG553  GLY616  TRP617  ASP618  TYR619  PRO620  LYS621  CYS622 
 ASP623  PHE694  ASN695  SER759  ASP760  ASP761  ALA762  ILE779  LEU786  VAL792 
 PHE793  MET794  SER795  GLU796  ALA797  LYS798  CYS799  TRP800  GLU811  SER814 

> <Gold.Protein.RotatedAtoms>
  152.3134  134.7470  160.0330 H   0  0  0  0  0  0  0  0  0  0  0  0  # atno 6907 bound_to 6896
  151.7943  133.3357  159.3516 H   0  0  0  0  0  0  0  0  0  0  0  0  # atno 6908 bound_to 6896
  150.7331  134.5744  159.5951 H   0  0  0  0  0  0  0  0  0  0  0  0  # atno 6909 bound_to 6896
  146.0507  139.4997  142.9720 H   0  0  0  0  0  0  0  0  0  0  0  0  # atno 7974 bound_to 7965
  155.7982  140.3477  155.5387 H   0  0  0  0  0  0  0  0  0  0  0  0  # atno 8008 bound_to 7997
  155.8565  140.0964  157.1661 H   0  0  0  0  0  0  0  0  0  0  0  0  # atno 8009 bound_to 7997
  154.4010  140.1366  156.3895 H   0  0  0  0  0  0  0  0  0  0  0  0  # atno 8010 bound_to 7997
  140.4455  143.2500  151.8564 H   0  0  0  0  0  0  0  0  0  0  0  0  # atno 10167 bound_to 10162
  157.4803  131.1085  150.9690 H   0  0  0  0  0  0  0  0  0  0  0  0  # atno 10718 bound_to 10713
  153.0492  135.5080  154.7824 H   0  0  0  0  0  0  0  0  0  0  0  0  # atno 10763 bound_to 10752
  154.6700  135.2951  154.9757 H   0  0  0  0  0  0  0  0  0  0  0  0  # atno 10764 bound_to 10752
  154.0579  135.6695  153.4861 H   0  0  0  0  0  0  0  0  0  0  0  0  # atno 10765 bound_to 10752
  140.9111  133.7460  156.0671 H   0  0  0  0  0  0  0  0  0  0  0  0  # atno 11005 bound_to 11000
  145.6729  141.0211  143.1648 LP  0  0  0  0  0  0  0  0  0  0  0  0  # atno 17320 bound_to 7965
  144.7121  139.8332  143.7411 LP  0  0  0  0  0  0  0  0  0  0  0  0  # atno 17321 bound_to 7965
  139.4792  144.5180  151.8841 LP  0  0  0  0  0  0  0  0  0  0  0  0  # atno 17342 bound_to 10162
  140.4269  144.2169  150.5887 LP  0  0  0  0  0  0  0  0  0  0  0  0  # atno 17343 bound_to 10162
  157.0425  130.5755  149.5358 LP  0  0  0  0  0  0  0  0  0  0  0  0  # atno 17370 bound_to 10713
  156.0118  130.5210  150.8012 LP  0  0  0  0  0  0  0  0  0  0  0  0  # atno 17371 bound_to 10713
  140.8109  134.3400  157.5412 LP  0  0  0  0  0  0  0  0  0  0  0  0  # atno 17394 bound_to 11000
  139.8757  134.9253  156.3372 LP  0  0  0  0  0  0  0  0  0  0  0  0  # atno 17395 bound_to 11000

$$$$
