AV-unprocessed.smi:2451|AV-procd|sdf|9679|dock2
  -GOLD-   2272013313D 1   1.00000     0.00000
 Structure written by MMmdl.
 37 38  0  0  0  0  0  0  0  0  2 V2000
  151.2565  144.5332  158.5436 C   0  0  0  0  0  0  0  0  0  0  0  0
  151.6535  143.2489  159.2967 C   0  0  2  0  0  0  0  0  0  0  0  0
  152.8259  143.5763  160.2543 C   0  0  0  0  0  0  0  0  0  0  0  0
  153.2553  142.3147  161.0219 C   0  0  0  0  0  0  0  0  0  0  0  0
  153.6223  141.1592  160.0674 C   0  0  0  0  0  0  0  0  0  0  0  0
  152.4772  140.7786  159.0979 C   0  0  2  0  0  0  0  0  0  0  0  0
  152.9638  139.7768  158.1585 N   0  5  0  0  0  0  0  0  0  0  0  0
  152.4879  138.2330  158.3089 S   0  0  0  0  0  0  0  0  0  0  0  0
  153.2833  137.4819  159.2945 O   0  0  0  0  0  0  0  0  0  0  0  0
  151.0234  138.1164  158.3990 O   0  0  0  0  0  0  0  0  0  0  0  0
  152.9431  137.5664  156.6474 C   0  0  0  0  0  0  0  0  0  0  0  0
  152.0342  138.1203  155.5834 C   0  0  0  0  0  0  0  0  0  0  0  0
  151.2840  137.4138  154.6020 C   0  0  0  0  0  0  0  0  0  0  0  0
  150.6515  138.4042  153.9081 C   0  0  0  0  0  0  0  0  0  0  0  0
  150.9862  139.6211  154.4056 O   0  0  0  0  0  0  0  0  0  0  0  0
  151.8717  139.4304  155.4723 N   0  0  0  0  0  0  0  0  0  0  0  0
  151.9693  142.0483  158.3337 C   0  0  1  0  0  0  0  0  0  0  0  0
  150.7484  141.7234  157.4320 C   0  0  0  0  0  0  0  0  0  0  0  0
  152.0187  144.8190  157.8182 H   0  0  0  0  0  0  0  0  0  0  0  0
  151.1282  145.3676  159.2336 H   0  0  0  0  0  0  0  0  0  0  0  0
  150.3111  144.4212  158.0147 H   0  0  0  0  0  0  0  0  0  0  0  0
  150.7983  142.9749  159.9185 H   0  0  0  0  0  0  0  0  0  0  0  0
  153.6729  143.9641  159.6867 H   0  0  0  0  0  0  0  0  0  0  0  0
  152.5378  144.3560  160.9600 H   0  0  0  0  0  0  0  0  0  0  0  0
  154.1130  142.5492  161.6528 H   0  0  0  0  0  0  0  0  0  0  0  0
  152.4590  142.0083  161.7034 H   0  0  0  0  0  0  0  0  0  0  0  0
  154.5058  141.4470  159.4951 H   0  0  0  0  0  0  0  0  0  0  0  0
  153.9145  140.2900  160.6575 H   0  0  0  0  0  0  0  0  0  0  0  0
  151.6447  140.3995  159.6927 H   0  0  0  0  0  0  0  0  0  0  0  0
  153.9777  137.8505  156.4554 H   0  0  0  0  0  0  0  0  0  0  0  0
  152.9063  136.4781  156.6831 H   0  0  0  0  0  0  0  0  0  0  0  0
  151.2162  136.3481  154.4406 H   0  0  0  0  0  0  0  0  0  0  0  0
  149.9671  138.4042  153.0729 H   0  0  0  0  0  0  0  0  0  0  0  0
  152.7775  142.3735  157.6760 H   0  0  0  0  0  0  0  0  0  0  0  0
  149.8631  141.4739  158.0196 H   0  0  0  0  0  0  0  0  0  0  0  0
  150.9320  140.8947  156.7455 H   0  0  0  0  0  0  0  0  0  0  0  0
  150.4876  142.5681  156.7962 H   0  0  0  0  0  0  0  0  0  0  0  0
  1  2  1  0  0  0  0
  1 19  1  0  0  0  0
  1 20  1  0  0  0  0
  1 21  1  0  0  0  0
  2 17  1  0  0  0  0
  2  3  1  0  0  0  0
  2 22  1  0  0  0  0
  3  4  1  0  0  0  0
  3 23  1  0  0  0  0
  3 24  1  0  0  0  0
  4  5  1  0  0  0  0
  4 25  1  0  0  0  0
  4 26  1  0  0  0  0
  5  6  1  0  0  0  0
  5 27  1  0  0  0  0
  5 28  1  0  0  0  0
  6  7  1  0  0  0  0
  6 17  1  0  0  0  0
  6 29  1  0  0  0  0
  7  8  1  0  0  0  0
  8  9  2  0  0  0  0
  8 10  2  0  0  0  0
  8 11  1  0  0  0  0
 11 12  1  0  0  0  0
 11 30  1  0  0  0  0
 11 31  1  0  0  0  0
 12 16  2  0  0  0  0
 12 13  1  0  0  0  0
 13 14  2  0  0  0  0
 13 32  1  0  0  0  0
 14 15  1  0  0  0  0
 14 33  1  0  0  0  0
 15 16  1  0  0  0  0
 17 18  1  0  0  0  0
 17 34  1  0  0  0  0
 18 35  1  0  0  0  0
 18 36  1  0  0  0  0
 18 37  1  0  0  0  0
M  CHG  1   7  -1
M  END
> <s_m_source_file>
AV-unprocessed.smi

> <i_m_source_file_index>
2451

> <i_lp_mmshare_version>
43012

> <i_f3d_flags>
0

> <s_epik_input>
W0NIM11bQ0BASF0xW0NIMl1bQ0gyXVtDSDJdW0NASF0oW0NASF0xW0NIM10pW05IXVMoPU8pKD1PKVtDSDJdYzJbY0hdW2NIXW9uMg==

> <s_epik_cmdline>
J2VwaWtfcHl0aG9uJywgJy1waCcsICc3LjAnLCAnLXRuJywgJzgnLCAnLW1hJywgJzIwMCcsICctbWV0YWxfYmluZGluZycsICctaW1hZScsICc8aW5maWxlLm1hZT4nLCAnLW9tYWUnLCAnPG91dGZpbGUubWFlPic=

> <r_lp_tautomer_probability>
1

> <r_epik_Ionization_Penalty>
5.22693

> <r_epik_Ionization_Penalty_Charging>
5.22693

> <r_epik_Ionization_Penalty_Neutral>
2.67702e-10

> <r_epik_State_Penalty>
5.22685

> <r_epik_Charging_Adjusted_Penalty>
10.4538

> <i_epik_Tot_Q>
-1

> <i_epik_Tot_abs_Q>
1

> <r_epik_Metal_State_Penalty>
1.28716

> <b_epik_Metal_Only>
1

> <s_lp_Force_Field>
OPLS_2005

> <r_lp_Energy>
12.9846

> <b_lp_Chiralities_Consistent>
1

> <s_lp_Variant>
AV-unprocessed.smi:2451-11

> <Gold.Version>
5.8.1

> <Gold.Id.Protein>
6NUR|6NUR_protein|mol2

> <Gold.PLP.Fitness>
48.3125

> <Gold.PLP.PLP>
-35.3056

> <Gold.PLP.part.hbond>
-2.0000

> <Gold.PLP.part.metal>
0.0000

> <Gold.PLP.part.buried>
-6.0314

> <Gold.PLP.part.nonpolar>
-28.0800

> <Gold.PLP.part.repulsive>
0.1264

> <Gold.PLP.ligand.clash>
0.0000

> <Gold.PLP.ligand.torsion>
1.0049

> <Gold.PLP.Chemscore.Hbond>
3.0000

> <Gold.PLP.Chemscore.CHOScore>
1.6743

> <Gold.PLP.Chemscore.Metal>
0.0000

> <Gold.Chemscore.Hbonds>
donor molecule, donor type, donor heavy atom, donor atom, acceptor molecule, acceptor atom, score
      P1  H  7989  7998       L1    15  1.00
      P1  H  7997  8008       L1     7  2.00
      L1  C    14    33       P1  7948  0.67
      L1  C    14    33       P1  7957  1.00

> <Gold.PLP.Chemscore.Internal.Correction>
0.9939

> <Gold.Rescore>
     Score         DG    S(hbond)    S(metal)    S(lipo)     H(rot)  DE(clash)    DE(int)     intcor
     18.57     -20.89       1.86        0.00     109.30       1.40       0.09       2.23       ----

> <Gold.Chemscore.Fitness>
18.5705

> <Gold.Chemscore.DG>
-20.8857

> <Gold.Chemscore.ZeroCoef>
-5.4800

> <Gold.Chemscore.Hbond>
1.8558

> <Gold.Chemscore.Metal>
0.0000

> <Gold.Chemscore.Lipo>
109.2973

> <Gold.Chemscore.Internal_Hbond>
0.0000

> <Gold.Chemscore.DEClash>
0.0853

> <Gold.Chemscore.DEInternal>
2.2299

> <Gold.Chemscore.Rot>
1.3986

> <Gold.Chemscore.Internal.Correction>
   9.000000E+99

> <Gold.Chemscore.Hbonds>
donor molecule, donor type, donor heavy atom, donor atom, acceptor molecule, acceptor atom, score
      P1  H  7989  7998       L1    15  0.55
      P1  H  7997  8008       L1     7  0.87

> <Gold.Chemscore.Hbond.Weighted>
-6.1983

> <Gold.Chemscore.Metal.Weighted>
-0.0000

> <Gold.Chemscore.Lipo.Weighted>
-12.7878

> <Gold.Chemscore.Internal_Hbond.Weighted>
0.0000

> <Gold.Chemscore.DEClash.Weighted>
0.0853

> <Gold.Chemscore.DEInternal.Weighted>
2.2299

> <Gold.Chemscore.Rot.Weighted>
3.5804

> <Gold.Chemscore.Internal.Correction.Weighted>
   9.000000E+99

> <Gold.Protein.RotatedTorsions>
[ 6907 6896 6895 6894 ] final  123.05 input  -60.11 | X-H torsion
[ 7974 7965 7964 7962 ] final -171.47 input  175.53 | X-H torsion
[ 8008 7997 7996 7995 ] final  -82.12 input   59.86 | X-H torsion
[ 10167 10162 10161 10158 ] final   69.76 input  -65.29 | X-H torsion
[ 10718 10713 10712 10709 ] final  -74.78 input   66.30 | X-H torsion
[ 10763 10752 10751 10750 ] final -171.67 input  -60.55 | X-H torsion
[ 11005 11000 10999 10996 ] final -103.23 input  -57.11 | X-H torsion

> <Gold.Protein.ActiveResidues>
 VAL166  LYS551  ARG553  GLY616  TRP617  ASP618  TYR619  PRO620  LYS621  CYS622 
 ASP623  PHE694  ASN695  SER759  ASP760  ASP761  ALA762  ILE779  LEU786  VAL792 
 PHE793  MET794  SER795  GLU796  ALA797  LYS798  CYS799  TRP800  GLU811  SER814 

> <Gold.Protein.RotatedAtoms>
  152.4193  133.7090  159.6467 H   0  0  0  0  0  0  0  0  0  0  0  0  # atno 6907 bound_to 6896
  150.8069  133.8482  159.3206 H   0  0  0  0  0  0  0  0  0  0  0  0  # atno 6908 bound_to 6896
  151.6203  135.1034  160.0151 H   0  0  0  0  0  0  0  0  0  0  0  0  # atno 6909 bound_to 6896
  144.7157  140.1917  143.6348 H   0  0  0  0  0  0  0  0  0  0  0  0  # atno 7974 bound_to 7965
  154.6053  140.0638  156.9422 H   0  0  0  0  0  0  0  0  0  0  0  0  # atno 8008 bound_to 7997
  155.2064  140.3319  155.4317 H   0  0  0  0  0  0  0  0  0  0  0  0  # atno 8009 bound_to 7997
  156.2343  140.1855  156.7143 H   0  0  0  0  0  0  0  0  0  0  0  0  # atno 8010 bound_to 7997
  140.0643  144.5206  150.7272 H   0  0  0  0  0  0  0  0  0  0  0  0  # atno 10167 bound_to 10162
  156.0230  130.4425  150.2944 H   0  0  0  0  0  0  0  0  0  0  0  0  # atno 10718 bound_to 10713
  154.6280  135.2883  155.0250 H   0  0  0  0  0  0  0  0  0  0  0  0  # atno 10763 bound_to 10752
  154.1421  135.6517  153.4948 H   0  0  0  0  0  0  0  0  0  0  0  0  # atno 10764 bound_to 10752
  153.0266  135.5335  154.7095 H   0  0  0  0  0  0  0  0  0  0  0  0  # atno 10765 bound_to 10752
  141.1155  133.8623  157.1459 H   0  0  0  0  0  0  0  0  0  0  0  0  # atno 11005 bound_to 11000
  145.8762  139.2298  143.1632 LP  0  0  0  0  0  0  0  0  0  0  0  0  # atno 17320 bound_to 7965
  146.0038  140.8497  143.0005 LP  0  0  0  0  0  0  0  0  0  0  0  0  # atno 17321 bound_to 7965
  140.7157  143.2542  151.4443 LP  0  0  0  0  0  0  0  0  0  0  0  0  # atno 17342 bound_to 10162
  139.5874  144.1573  152.2046 LP  0  0  0  0  0  0  0  0  0  0  0  0  # atno 17343 bound_to 10162
  157.1047  131.0205  151.3071 LP  0  0  0  0  0  0  0  0  0  0  0  0  # atno 17370 bound_to 10713
  157.4752  130.7732  149.7361 LP  0  0  0  0  0  0  0  0  0  0  0  0  # atno 17371 bound_to 10713
  140.0074  135.0002  157.0323 LP  0  0  0  0  0  0  0  0  0  0  0  0  # atno 17394 bound_to 11000
  140.4658  134.1437  155.7197 LP  0  0  0  0  0  0  0  0  0  0  0  0  # atno 17395 bound_to 11000

$$$$
