AV-unprocessed.smi:39|AV-procd|sdf|366|dock7
  -GOLD-   2262016203D 1   1.00000     0.00000
 Structure written by MMmdl.
 31 32  0  0  0  0  0  0  0  0  4 V2000
  151.5480  144.3848  157.7649 C   0  0  0  0  0  0  0  0  0  0  0  0
  151.7639  142.9332  158.1560 C   0  0  0  0  0  0  0  0  0  0  0  0
  151.3611  141.9079  157.3727 C   0  0  0  0  0  0  0  0  0  0  0  0
  151.5626  140.5848  157.7308 N   0  0  0  0  0  0  0  0  0  0  0  0
  151.0990  139.4411  156.8501 C   0  0  2  0  0  0  0  0  0  0  0  0
  151.8563  139.4234  155.5140 C   0  0  0  0  0  0  0  0  0  0  0  0
  150.7651  139.0624  154.5197 C   0  0  1  0  0  0  0  0  0  0  0  0
  150.5650  137.6105  154.4378 N   0  0  0  0  0  0  0  0  0  0  0  0
  151.3536  136.9048  155.0805 N   0  3  0  0  0  0  0  0  0  0  0  0
  151.9788  136.2159  155.7357 N   0  5  0  0  0  0  0  0  0  0  0  0
  149.5395  139.7462  155.1374 C   0  0  2  0  0  0  0  0  0  0  0  0
  149.4385  141.2414  154.7740 C   0  0  0  0  0  0  0  0  0  0  0  0
  149.2140  141.3916  153.3886 O   0  0  0  0  0  0  0  0  0  0  0  0
  149.7409  139.5940  156.5433 O   0  0  0  0  0  0  0  0  0  0  0  0
  152.1726  140.2850  158.9776 C   0  0  0  0  0  0  0  0  0  0  0  0
  152.2990  139.1007  159.2896 O   0  0  0  0  0  0  0  0  0  0  0  0
  152.5883  141.3127  159.7713 N   0  5  0  0  0  0  0  0  0  0  0  0
  152.4270  142.6226  159.4279 C   0  0  0  0  0  0  0  0  0  0  0  0
  152.8169  143.5407  160.1486 O   0  0  0  0  0  0  0  0  0  0  0  0
  151.2343  138.5367  157.4458 H   0  0  0  0  0  0  0  0  0  0  0  0
  150.9831  139.4697  153.5305 H   0  0  0  0  0  0  0  0  0  0  0  0
  148.6234  139.2384  154.8310 H   0  0  0  0  0  0  0  0  0  0  0  0
  151.0444  144.4655  156.8013 H   0  0  0  0  0  0  0  0  0  0  0  0
  152.5030  144.9057  157.6913 H   0  0  0  0  0  0  0  0  0  0  0  0
  150.9346  144.8921  158.5101 H   0  0  0  0  0  0  0  0  0  0  0  0
  150.8673  142.1447  156.4430 H   0  0  0  0  0  0  0  0  0  0  0  0
  152.2450  140.4199  155.2983 H   0  0  0  0  0  0  0  0  0  0  0  0
  152.6922  138.7234  155.5410 H   0  0  0  0  0  0  0  0  0  0  0  0
  148.6608  141.7519  155.3414 H   0  0  0  0  0  0  0  0  0  0  0  0
  150.3779  141.7454  155.0010 H   0  0  0  0  0  0  0  0  0  0  0  0
  149.4091  140.5711  152.9624 H   0  0  0  0  0  0  0  0  0  0  0  0
  1  2  1  0  0  0  0
  1 23  1  0  0  0  0
  1 24  1  0  0  0  0
  1 25  1  0  0  0  0
  2 18  1  0  0  0  0
  2  3  2  0  0  0  0
  3  4  1  0  0  0  0
  3 26  1  0  0  0  0
  4  5  1  0  0  0  0
  4 15  1  0  0  0  0
  5 20  1  0  0  0  0
  5 14  1  0  0  0  0
  5  6  1  0  0  0  0
  6  7  1  0  0  0  0
  6 27  1  0  0  0  0
  6 28  1  0  0  0  0
  7 21  1  0  0  0  0
  7  8  1  0  0  0  0
  7 11  1  0  0  0  0
  8  9  2  0  0  0  0
  9 10  2  0  0  0  0
 11 22  1  0  0  0  0
 11 12  1  0  0  0  0
 11 14  1  0  0  0  0
 12 13  1  0  0  0  0
 12 29  1  0  0  0  0
 12 30  1  0  0  0  0
 13 31  1  0  0  0  0
 15 16  2  0  0  0  0
 15 17  1  0  0  0  0
 17 18  1  0  0  0  0
 18 19  2  0  0  0  0
M  CHG  1   9   1
M  CHG  1  10  -1
M  CHG  1  17  -1
M  END
> <s_m_source_file>
AV-unprocessed.smi

> <i_m_source_file_index>
39

> <i_lp_mmshare_version>
43012

> <i_f3d_flags>
0

> <s_epik_input>
Tz1jMVtuSF1jKD1PKW4oW2NIXWMxW0NIM10pW0NASF0yW0NIMl1bQ0BIXShOPVtOK109W04tXSlbQ0BIXShPMilbQ0gyXVtPSF0=

> <s_epik_cmdline>
J2VwaWtfcHl0aG9uJywgJy1waCcsICc3LjAnLCAnLXRuJywgJzgnLCAnLW1hJywgJzIwMCcsICctbWV0YWxfYmluZGluZycsICctaW1hZScsICc8aW5maWxlLm1hZT4nLCAnLW9tYWUnLCAnPG91dGZpbGUubWFlPic=

> <r_lp_tautomer_probability>
0.999537

> <r_epik_Ionization_Penalty>
3.6393

> <r_epik_Ionization_Penalty_Charging>
9.76484e-08

> <r_epik_Ionization_Penalty_Neutral>
3.6393

> <r_epik_State_Penalty>
3.63887

> <r_epik_Charging_Adjusted_Penalty>
3.63887

> <i_epik_Tot_Q>
-1

> <i_epik_Tot_abs_Q>
3

> <r_epik_Metal_State_Penalty>
0.225911

> <b_epik_Metal_Only>
1

> <s_epik_Chemistry_Notes>
This compound contains an acetal/aminal-like group ( X-CH(R)-Y where X, Y are N, S, or O) that may be acid/base labile, releasing an aldehyde.

> <s_lp_Force_Field>
OPLS_2005

> <r_lp_Energy>
37.4001

> <b_lp_Chiralities_Consistent>
1

> <s_lp_Variant>
AV-unprocessed.smi:39-16

> <Gold.Version>
5.8.1

> <Gold.Id.Protein>
6NUR|6NUR_protein|mol2

> <Gold.PLP.Fitness>
42.6261

> <Gold.PLP.PLP>
-34.8423

> <Gold.PLP.part.hbond>
-4.5528

> <Gold.PLP.part.metal>
0.0000

> <Gold.PLP.part.buried>
-5.1977

> <Gold.PLP.part.nonpolar>
-25.3927

> <Gold.PLP.part.repulsive>
0.3742

> <Gold.PLP.ligand.clash>
0.0000

> <Gold.PLP.ligand.torsion>
0.0775

> <Gold.PLP.Chemscore.Hbond>
2.6320

> <Gold.PLP.Chemscore.CHOScore>
0.0000

> <Gold.PLP.Chemscore.Metal>
0.0000

> <Gold.Chemscore.Hbonds>
donor molecule, donor type, donor heavy atom, donor atom, acceptor molecule, acceptor atom, score
      L1  H    13    31       P1  7957  0.67
      P1  H  8011  8017       L1    13  0.96
      P1  H 10752 10764       L1    10  1.00

> <Gold.PLP.Chemscore.Internal.Correction>
0.0428

> <Gold.Rescore>
     Score         DG    S(hbond)    S(metal)    S(lipo)     H(rot)  DE(clash)    DE(int)     intcor
     11.92     -12.40       1.95        0.00      62.84       2.72       0.40       0.09       ----

> <Gold.Chemscore.Fitness>
11.9197

> <Gold.Chemscore.DG>
-12.4044

> <Gold.Chemscore.ZeroCoef>
-5.4800

> <Gold.Chemscore.Hbond>
1.9531

> <Gold.Chemscore.Metal>
0.0000

> <Gold.Chemscore.Lipo>
62.8395

> <Gold.Chemscore.Internal_Hbond>
0.0000

> <Gold.Chemscore.DEClash>
0.3981

> <Gold.Chemscore.DEInternal>
0.0866

> <Gold.Chemscore.Rot>
2.7153

> <Gold.Chemscore.Internal.Correction>
   9.000000E+99

> <Gold.Chemscore.Hbonds>
donor molecule, donor type, donor heavy atom, donor atom, acceptor molecule, acceptor atom, score
      L1  H    13    31       P1  7957  0.68
      P1  H  8011  8017       L1    13  0.27
      P1  H 10752 10764       L1    10  0.28

> <Gold.Chemscore.Hbond.Weighted>
-6.5234

> <Gold.Chemscore.Metal.Weighted>
-0.0000

> <Gold.Chemscore.Lipo.Weighted>
-7.3522

> <Gold.Chemscore.Internal_Hbond.Weighted>
0.0000

> <Gold.Chemscore.DEClash.Weighted>
0.3981

> <Gold.Chemscore.DEInternal.Weighted>
0.0866

> <Gold.Chemscore.Rot.Weighted>
6.9512

> <Gold.Chemscore.Internal.Correction.Weighted>
   9.000000E+99

> <Gold.Protein.RotatedTorsions>
[ 6907 6896 6895 6894 ] final   24.33 input  -60.11 | X-H torsion
[ 7974 7965 7964 7962 ] final  -35.23 input  175.53 | X-H torsion
[ 8008 7997 7996 7995 ] final  108.33 input   59.86 | X-H torsion
[ 10167 10162 10161 10158 ] final -148.14 input  -65.29 | X-H torsion
[ 10718 10713 10712 10709 ] final  117.20 input   66.30 | X-H torsion
[ 10763 10752 10751 10750 ] final  -58.20 input  -60.55 | X-H torsion
[ 11005 11000 10999 10996 ] final   49.56 input  -57.11 | X-H torsion

> <Gold.Protein.ActiveResidues>
 VAL166  LYS551  ARG553  GLY616  TRP617  ASP618  TYR619  PRO620  LYS621  CYS622 
 ASP623  PHE694  ASN695  SER759  ASP760  ASP761  ALA762  ILE779  LEU786  VAL792 
 PHE793  MET794  SER795  GLU796  ALA797  LYS798  CYS799  TRP800  GLU811  SER814 

> <Gold.Protein.RotatedAtoms>
  151.9559  135.0147  160.0544 H   0  0  0  0  0  0  0  0  0  0  0  0  # atno 6907 bound_to 6896
  152.1911  133.4769  159.5017 H   0  0  0  0  0  0  0  0  0  0  0  0  # atno 6908 bound_to 6896
  150.6935  134.1628  159.4225 H   0  0  0  0  0  0  0  0  0  0  0  0  # atno 6909 bound_to 6896
  146.0764  140.6134  142.8929 H   0  0  0  0  0  0  0  0  0  0  0  0  # atno 7974 bound_to 7965
  156.1895  140.3078  155.9303 H   0  0  0  0  0  0  0  0  0  0  0  0  # atno 8008 bound_to 7997
  155.3206  140.0455  157.3056 H   0  0  0  0  0  0  0  0  0  0  0  0  # atno 8009 bound_to 7997
  154.5435  140.2269  155.8611 H   0  0  0  0  0  0  0  0  0  0  0  0  # atno 8010 bound_to 7997
  139.7559  143.8449  152.2597 H   0  0  0  0  0  0  0  0  0  0  0  0  # atno 10167 bound_to 10162
  157.6112  131.1034  150.7581 H   0  0  0  0  0  0  0  0  0  0  0  0  # atno 10718 bound_to 10713
  154.2343  135.6355  153.5186 H   0  0  0  0  0  0  0  0  0  0  0  0  # atno 10763 bound_to 10752
  152.9942  135.5527  154.5979 H   0  0  0  0  0  0  0  0  0  0  0  0  # atno 10764 bound_to 10752
  154.5469  135.2899  155.1019 H   0  0  0  0  0  0  0  0  0  0  0  0  # atno 10765 bound_to 10752
  140.1093  134.4976  155.8692 H   0  0  0  0  0  0  0  0  0  0  0  0  # atno 11005 bound_to 11000
  144.7264  140.4538  143.6970 LP  0  0  0  0  0  0  0  0  0  0  0  0  # atno 17320 bound_to 7965
  145.6299  139.1535  143.2975 LP  0  0  0  0  0  0  0  0  0  0  0  0  # atno 17321 bound_to 7965
  139.8441  144.7196  150.9295 LP  0  0  0  0  0  0  0  0  0  0  0  0  # atno 17342 bound_to 10162
  140.7802  143.3957  151.1234 LP  0  0  0  0  0  0  0  0  0  0  0  0  # atno 17343 bound_to 10162
  156.7958  130.4905  149.5377 LP  0  0  0  0  0  0  0  0  0  0  0  0  # atno 17370 bound_to 10713
  156.1215  130.6113  151.0200 LP  0  0  0  0  0  0  0  0  0  0  0  0  # atno 17371 bound_to 10713
  141.2126  133.6722  156.6673 LP  0  0  0  0  0  0  0  0  0  0  0  0  # atno 17394 bound_to 11000
  140.3113  134.8084  157.4178 LP  0  0  0  0  0  0  0  0  0  0  0  0  # atno 17395 bound_to 11000

$$$$
