AV-unprocessed.smi:1948|AV-procd|sdf|7874|dock4
  -GOLD-   2272010 23D 1   1.00000     0.00000
 Structure written by MMmdl.
 30 31  0  0  0  0  0  0  0  0  1 V2000
  150.9387  140.7542  156.4471 O   0  0  0  0  0  0  0  0  0  0  0  0
  150.4389  141.8707  156.3062 C   0  0  0  0  0  0  0  0  0  0  0  0
  150.7249  142.9509  157.0544 N   0  0  0  0  0  0  0  0  0  0  0  0
  151.6385  143.0554  158.1366 C   0  0  0  0  0  0  0  0  0  0  0  0
  151.9308  144.2101  158.7561 N   0  0  0  0  0  0  0  0  0  0  0  0
  152.8519  144.0319  159.7803 N   0  0  0  0  0  0  0  0  0  0  0  0
  153.2173  142.7517  159.8933 C   0  0  0  0  0  0  0  0  0  0  0  0
  152.4709  141.6382  158.7603 S   0  0  0  0  0  0  0  0  0  0  0  0
  149.5210  142.1572  155.3713 N   0  0  0  0  0  0  0  0  0  0  0  0
  148.9837  141.2092  154.3995 C   0  0  2  0  0  0  0  0  0  0  0  0
  147.7009  141.7827  153.7711 C   0  0  0  0  0  0  0  0  0  0  0  0
  147.0745  140.7968  152.7693 C   0  0  0  0  0  0  0  0  0  0  0  0
  146.8129  139.4144  153.3967 C   0  0  2  0  0  0  0  0  0  0  0  0
  145.7564  139.4996  154.3324 O   0  0  0  0  0  0  0  0  0  0  0  0
  148.0761  138.8514  154.0749 C   0  0  0  0  0  0  0  0  0  0  0  0
  148.7011  139.8479  155.0671 C   0  0  0  0  0  0  0  0  0  0  0  0
  150.2270  143.7984  156.8255 H   0  0  0  0  0  0  0  0  0  0  0  0
  153.9307  142.4611  160.6501 H   0  0  0  0  0  0  0  0  0  0  0  0
  149.1637  143.1004  155.3282 H   0  0  0  0  0  0  0  0  0  0  0  0
  149.7149  141.0660  153.6014 H   0  0  0  0  0  0  0  0  0  0  0  0
  146.9766  142.0162  154.5530 H   0  0  0  0  0  0  0  0  0  0  0  0
  147.9210  142.7240  153.2662 H   0  0  0  0  0  0  0  0  0  0  0  0
  146.1497  141.2096  152.3648 H   0  0  0  0  0  0  0  0  0  0  0  0
  147.7503  140.6791  151.9212 H   0  0  0  0  0  0  0  0  0  0  0  0
  146.4898  138.7249  152.6159 H   0  0  0  0  0  0  0  0  0  0  0  0
  144.9445  139.6033  153.8602 H   0  0  0  0  0  0  0  0  0  0  0  0
  147.8487  137.9120  154.5803 H   0  0  0  0  0  0  0  0  0  0  0  0
  148.8131  138.6115  153.3074 H   0  0  0  0  0  0  0  0  0  0  0  0
  149.6233  139.4272  155.4696 H   0  0  0  0  0  0  0  0  0  0  0  0
  148.0308  139.9848  155.9170 H   0  0  0  0  0  0  0  0  0  0  0  0
  1  2  2  0  0  0  0
  2  3  1  0  0  0  0
  2  9  1  0  0  0  0
  3  4  1  0  0  0  0
  3 17  1  0  0  0  0
  4  8  1  0  0  0  0
  4  5  2  0  0  0  0
  5  6  1  0  0  0  0
  6  7  2  0  0  0  0
  7  8  1  0  0  0  0
  7 18  1  0  0  0  0
  9 10  1  0  0  0  0
  9 19  1  0  0  0  0
 10 16  1  0  0  0  0
 10 11  1  0  0  0  0
 10 20  1  0  0  0  0
 11 12  1  0  0  0  0
 11 21  1  0  0  0  0
 11 22  1  0  0  0  0
 12 13  1  0  0  0  0
 12 23  1  0  0  0  0
 12 24  1  0  0  0  0
 13 14  1  0  0  0  0
 13 15  1  0  0  0  0
 13 25  1  0  0  0  0
 14 26  1  0  0  0  0
 15 16  1  0  0  0  0
 15 27  1  0  0  0  0
 15 28  1  0  0  0  0
 16 29  1  0  0  0  0
 16 30  1  0  0  0  0
M  END
> <s_m_source_file>
AV-unprocessed.smi

> <i_m_source_file_index>
1948

> <i_lp_mmshare_version>
43012

> <i_f3d_flags>
0

> <s_epik_input>
czFbY0hdbm5jMVtOSF1DKD1PKVtOSF1bQ0BASF0yW0NIMl1bQ0gyXVtDQEBIXShbT0hdKVtDSDJdW0NIMl0y

> <s_epik_cmdline>
J2VwaWtfcHl0aG9uJywgJy1waCcsICc3LjAnLCAnLXRuJywgJzgnLCAnLW1hJywgJzIwMCcsICctbWV0YWxfYmluZGluZycsICctaW1hZScsICc8aW5maWxlLm1hZT4nLCAnLW9tYWUnLCAnPG91dGZpbGUubWFlPic=

> <r_lp_tautomer_probability>
1

> <r_epik_Ionization_Penalty>
0.000336938

> <r_epik_Ionization_Penalty_Charging>
0

> <r_epik_Ionization_Penalty_Neutral>
0.000336938

> <r_epik_State_Penalty>
-0

> <r_epik_Charging_Adjusted_Penalty>
0

> <i_epik_Tot_Q>
0

> <i_epik_Tot_abs_Q>
0

> <r_epik_Metal_State_Penalty>
0.175756

> <b_epik_Metal_Only>
0

> <s_lp_Force_Field>
OPLS_2005

> <r_lp_Energy>
9.37087

> <b_lp_Chiralities_Consistent>
1

> <s_lp_Variant>
AV-unprocessed.smi:1948-2

> <Gold.Version>
5.8.1

> <Gold.Id.Protein>
6NUR|6NUR_protein|mol2

> <Gold.PLP.Fitness>
36.5770

> <Gold.PLP.PLP>
-28.0583

> <Gold.PLP.part.hbond>
-3.0000

> <Gold.PLP.part.metal>
0.0000

> <Gold.PLP.part.buried>
-4.5984

> <Gold.PLP.part.nonpolar>
-20.1790

> <Gold.PLP.part.repulsive>
0.2835

> <Gold.PLP.ligand.clash>
0.0000

> <Gold.PLP.ligand.torsion>
0.2301

> <Gold.PLP.Chemscore.Hbond>
2.9920

> <Gold.PLP.Chemscore.CHOScore>
0.0000

> <Gold.PLP.Chemscore.Metal>
0.0000

> <Gold.Chemscore.Hbonds>
donor molecule, donor type, donor heavy atom, donor atom, acceptor molecule, acceptor atom, score
      L1  H     3    17       P1  8028  0.99
      L1  H     9    19       P1  8028  1.00
      L1  H    14    26       P1 10175  0.91

> <Gold.PLP.Chemscore.Internal.Correction>
0.0030

> <Gold.Rescore>
     Score         DG    S(hbond)    S(metal)    S(lipo)     H(rot)  DE(clash)    DE(int)     intcor
     15.26     -18.20       2.91        0.00      59.51       1.55       0.12       2.82       ----

> <Gold.Chemscore.Fitness>
15.2550

> <Gold.Chemscore.DG>
-18.2010

> <Gold.Chemscore.ZeroCoef>
-5.4800

> <Gold.Chemscore.Hbond>
2.9089

> <Gold.Chemscore.Metal>
0.0000

> <Gold.Chemscore.Lipo>
59.5058

> <Gold.Chemscore.Internal_Hbond>
0.0000

> <Gold.Chemscore.DEClash>
0.1228

> <Gold.Chemscore.DEInternal>
2.8232

> <Gold.Chemscore.Rot>
1.5456

> <Gold.Chemscore.Internal.Correction>
   9.000000E+99

> <Gold.Chemscore.Hbonds>
donor molecule, donor type, donor heavy atom, donor atom, acceptor molecule, acceptor atom, score
      L1  H     3    17       P1  8028  0.91
      L1  H     9    19       P1  8028  1.00
      L1  H    14    26       P1 10175  0.85

> <Gold.Chemscore.Hbond.Weighted>
-9.7156

> <Gold.Chemscore.Metal.Weighted>
-0.0000

> <Gold.Chemscore.Lipo.Weighted>
-6.9622

> <Gold.Chemscore.Internal_Hbond.Weighted>
0.0000

> <Gold.Chemscore.DEClash.Weighted>
0.1228

> <Gold.Chemscore.DEInternal.Weighted>
2.8232

> <Gold.Chemscore.Rot.Weighted>
3.9568

> <Gold.Chemscore.Internal.Correction.Weighted>
   9.000000E+99

> <Gold.Protein.RotatedTorsions>
[ 6907 6896 6895 6894 ] final  -50.74 input  -60.11 | X-H torsion
[ 7974 7965 7964 7962 ] final  -29.32 input  175.53 | X-H torsion
[ 8008 7997 7996 7995 ] final   87.54 input   59.86 | X-H torsion
[ 10167 10162 10161 10158 ] final -106.05 input  -65.29 | X-H torsion
[ 10718 10713 10712 10709 ] final -102.48 input   66.30 | X-H torsion
[ 10763 10752 10751 10750 ] final  -32.98 input  -60.55 | X-H torsion
[ 11005 11000 10999 10996 ] final -100.38 input  -57.11 | X-H torsion

> <Gold.Protein.ActiveResidues>
 VAL166  LYS551  ARG553  GLY616  TRP617  ASP618  TYR619  PRO620  LYS621  CYS622 
 ASP623  PHE694  ASN695  SER759  ASP760  ASP761  ALA762  ILE779  LEU786  VAL792 
 PHE793  MET794  SER795  GLU796  ALA797  LYS798  CYS799  TRP800  GLU811  SER814 

> <Gold.Protein.RotatedAtoms>
  150.8678  134.8045  159.7131 H   0  0  0  0  0  0  0  0  0  0  0  0  # atno 6907 bound_to 6896
  152.4693  134.4995  159.9730 H   0  0  0  0  0  0  0  0  0  0  0  0  # atno 6908 bound_to 6896
  151.5089  133.3450  159.2917 H   0  0  0  0  0  0  0  0  0  0  0  0  # atno 6909 bound_to 6896
  146.1225  140.5396  142.8729 H   0  0  0  0  0  0  0  0  0  0  0  0  # atno 7974 bound_to 7965
  155.9767  140.3381  155.6625 H   0  0  0  0  0  0  0  0  0  0  0  0  # atno 8008 bound_to 7997
  155.6603  140.0715  157.2574 H   0  0  0  0  0  0  0  0  0  0  0  0  # atno 8009 bound_to 7997
  154.4181  140.1710  156.1757 H   0  0  0  0  0  0  0  0  0  0  0  0  # atno 8010 bound_to 7997
  140.1919  143.3885  152.1199 H   0  0  0  0  0  0  0  0  0  0  0  0  # atno 10167 bound_to 10162
  156.0230  130.5422  150.7114 H   0  0  0  0  0  0  0  0  0  0  0  0  # atno 10718 bound_to 10713
  153.8227  135.6873  153.4825 H   0  0  0  0  0  0  0  0  0  0  0  0  # atno 10763 bound_to 10752
  153.1559  135.4599  154.9702 H   0  0  0  0  0  0  0  0  0  0  0  0  # atno 10764 bound_to 10752
  154.7920  135.3305  154.7698 H   0  0  0  0  0  0  0  0  0  0  0  0  # atno 10765 bound_to 10752
  141.1273  133.8394  157.1095 H   0  0  0  0  0  0  0  0  0  0  0  0  # atno 11005 bound_to 11000
  144.7611  140.5423  143.6735 LP  0  0  0  0  0  0  0  0  0  0  0  0  # atno 17320 bound_to 7965
  145.5435  139.1475  143.3433 LP  0  0  0  0  0  0  0  0  0  0  0  0  # atno 17321 bound_to 7965
  139.5252  144.7093  151.5256 LP  0  0  0  0  0  0  0  0  0  0  0  0  # atno 17342 bound_to 10162
  140.6450  143.8813  150.6728 LP  0  0  0  0  0  0  0  0  0  0  0  0  # atno 17343 bound_to 10162
  157.4751  131.0897  151.0599 LP  0  0  0  0  0  0  0  0  0  0  0  0  # atno 17370 bound_to 10713
  157.1048  130.5997  149.5468 LP  0  0  0  0  0  0  0  0  0  0  0  0  # atno 17371 bound_to 10713
  140.0284  134.9913  157.0731 LP  0  0  0  0  0  0  0  0  0  0  0  0  # atno 17394 bound_to 11000
  140.4325  134.1765  155.7169 LP  0  0  0  0  0  0  0  0  0  0  0  0  # atno 17395 bound_to 11000

$$$$
