AV-unprocessed.smi:72|AV-procd|sdf|698|dock8
  -GOLD-   2262017 13D 1   1.00000     0.00000
 Structure written by MMmdl.
 30 31  0  0  0  0  0  0  0  0  2 V2000
  151.4932  144.7361  158.0447 N   0  0  0  0  0  0  0  0  0  0  0  0
  151.4646  143.3758  157.8196 C   0  0  0  0  0  0  0  0  0  0  0  0
  150.8223  142.9267  156.6795 N   0  3  0  0  0  0  0  0  0  0  0  0
  150.7026  141.6420  156.3193 C   0  0  0  0  0  0  0  0  0  0  0  0
  151.2264  140.7100  157.0877 N   0  0  0  0  0  0  0  0  0  0  0  0
  151.1140  139.2566  156.7081 C   0  0  1  0  0  0  0  0  0  0  0  0
  149.7625  138.9806  156.4980 O   0  0  0  0  0  0  0  0  0  0  0  0
  149.6066  138.2303  155.2986 C   0  0  1  0  0  0  0  0  0  0  0  0
  148.1746  138.3555  154.7485 C   0  0  0  0  0  0  0  0  0  0  0  0
  148.2011  138.4851  153.3434 O   0  0  0  0  0  0  0  0  0  0  0  0
  150.7471  138.7260  154.3986 C   0  0  1  0  0  0  0  0  0  0  0  0
  150.3894  139.9320  153.7433 O   0  0  0  0  0  0  0  0  0  0  0  0
  151.8734  138.9263  155.4058 C   0  0  1  0  0  0  0  0  0  0  0  0
  152.8282  139.8841  154.9805 O   0  0  0  0  0  0  0  0  0  0  0  0
  151.9145  141.0728  158.2742 C   0  0  0  0  0  0  0  0  0  0  0  0
  152.4262  140.2131  158.9899 O   0  0  0  0  0  0  0  0  0  0  0  0
  151.9823  142.4425  158.5695 N   0  0  0  0  0  0  0  0  0  0  0  0
  151.4592  138.6754  157.5642 H   0  0  0  0  0  0  0  0  0  0  0  0
  149.7974  137.1862  155.5549 H   0  0  0  0  0  0  0  0  0  0  0  0
  151.0131  137.9907  153.6384 H   0  0  0  0  0  0  0  0  0  0  0  0
  152.3833  137.9756  155.5671 H   0  0  0  0  0  0  0  0  0  0  0  0
  151.9393  145.1533  158.8498 H   0  0  0  0  0  0  0  0  0  0  0  0
  151.0780  145.4205  157.4289 H   0  0  0  0  0  0  0  0  0  0  0  0
  150.1788  141.3881  155.4068 H   0  0  0  0  0  0  0  0  0  0  0  0
  147.6023  137.4623  155.0000 H   0  0  0  0  0  0  0  0  0  0  0  0
  147.6467  139.2027  155.1866 H   0  0  0  0  0  0  0  0  0  0  0  0
  148.1728  137.6216  152.9597 H   0  0  0  0  0  0  0  0  0  0  0  0
  149.7621  139.7262  153.0663 H   0  0  0  0  0  0  0  0  0  0  0  0
  152.5513  140.2314  154.1461 H   0  0  0  0  0  0  0  0  0  0  0  0
  150.4132  143.6239  156.0741 H   0  0  0  0  0  0  0  0  0  0  0  0
  1  2  1  0  0  0  0
  1 22  1  0  0  0  0
  1 23  1  0  0  0  0
  2 17  2  0  0  0  0
  2  3  1  0  0  0  0
  3  4  2  0  0  0  0
  3 30  1  0  0  0  0
  4  5  1  0  0  0  0
  4 24  1  0  0  0  0
  5  6  1  0  0  0  0
  5 15  1  0  0  0  0
  6 18  1  0  0  0  0
  6 13  1  0  0  0  0
  6  7  1  0  0  0  0
  7  8  1  0  0  0  0
  8 19  1  0  0  0  0
  8  9  1  0  0  0  0
  8 11  1  0  0  0  0
  9 10  1  0  0  0  0
  9 25  1  0  0  0  0
  9 26  1  0  0  0  0
 10 27  1  0  0  0  0
 11 20  1  0  0  0  0
 11 12  1  0  0  0  0
 11 13  1  0  0  0  0
 12 28  1  0  0  0  0
 13 21  1  0  0  0  0
 13 14  1  0  0  0  0
 14 29  1  0  0  0  0
 15 16  2  0  0  0  0
 15 17  1  0  0  0  0
M  CHG  1   3   1
M  END
> <s_m_source_file>
AV-unprocessed.smi

> <i_m_source_file_index>
72

> <i_lp_mmshare_version>
43012

> <i_f3d_flags>
0

> <s_epik_input>
W05IMl1jMW5bY0hdbihjKD1PKW4xKVtDQEBIXTJPW0NASF0oW0NIMl1bT0hdKVtDQEBIXShbT0hdKVtDQEhdMltPSF0=

> <s_epik_cmdline>
J2VwaWtfcHl0aG9uJywgJy1waCcsICc3LjAnLCAnLXRuJywgJzgnLCAnLW1hJywgJzIwMCcsICctbWV0YWxfYmluZGluZycsICctaW1hZScsICc8aW5maWxlLm1hZT4nLCAnLW9tYWUnLCAnPG91dGZpbGUubWFlPic=

> <r_lp_tautomer_probability>
4.77166e-05

> <r_epik_Ionization_Penalty>
0.104979

> <r_epik_Ionization_Penalty_Charging>
0.0999619

> <r_epik_Ionization_Penalty_Neutral>
0.00501745

> <r_epik_State_Penalty>
2.51541

> <r_epik_Charging_Adjusted_Penalty>
2.61537

> <i_epik_Tot_Q>
1

> <i_epik_Tot_abs_Q>
1

> <r_epik_Metal_State_Penalty>
3.53763

> <b_epik_Metal_Only>
0

> <s_epik_Chemistry_Notes>
This compound contains an acetal/aminal-like group ( X-CH(R)-Y where X, Y are N, S, or O) that may be acid/base labile, releasing an aldehyde.

> <s_lp_Force_Field>
OPLS_2005

> <r_lp_Energy>
38.8596

> <b_lp_Chiralities_Consistent>
1

> <s_lp_Variant>
AV-unprocessed.smi:72-36

> <Gold.Version>
5.8.1

> <Gold.Id.Protein>
6NUR|6NUR_protein|mol2

> <Gold.PLP.Fitness>
41.6907

> <Gold.PLP.PLP>
-25.9030

> <Gold.PLP.part.hbond>
-6.7545

> <Gold.PLP.part.metal>
0.0000

> <Gold.PLP.part.buried>
-2.5343

> <Gold.PLP.part.nonpolar>
-15.7194

> <Gold.PLP.part.repulsive>
0.1506

> <Gold.PLP.ligand.clash>
0.0000

> <Gold.PLP.ligand.torsion>
0.6387

> <Gold.PLP.Chemscore.Hbond>
5.6800

> <Gold.PLP.Chemscore.CHOScore>
0.0000

> <Gold.PLP.Chemscore.Metal>
0.0000

> <Gold.Chemscore.Hbonds>
donor molecule, donor type, donor heavy atom, donor atom, acceptor molecule, acceptor atom, score
      L1  H     3    30       P1  8028  1.92
      L1  H    10    27       P1  7948  0.99
      L1  H    12    28       P1  7957  0.72
      P1  H  7989  7998       L1    12  0.91
      P1  H  7997  8008       L1    14  1.00

> <Gold.PLP.Chemscore.Internal.Correction>
0.0252

> <Gold.Rescore>
     Score         DG    S(hbond)    S(metal)    S(lipo)     H(rot)  DE(clash)    DE(int)     intcor
     11.52     -12.81       4.55        0.00      21.96       4.08       0.49       0.81       ----

> <Gold.Chemscore.Fitness>
11.5171

> <Gold.Chemscore.DG>
-12.8112

> <Gold.Chemscore.ZeroCoef>
-5.4800

> <Gold.Chemscore.Hbond>
4.5516

> <Gold.Chemscore.Metal>
0.0000

> <Gold.Chemscore.Lipo>
21.9599

> <Gold.Chemscore.Internal_Hbond>
0.0000

> <Gold.Chemscore.DEClash>
0.4860

> <Gold.Chemscore.DEInternal>
0.8080

> <Gold.Chemscore.Rot>
4.0783

> <Gold.Chemscore.Internal.Correction>
   9.000000E+99

> <Gold.Chemscore.Hbonds>
donor molecule, donor type, donor heavy atom, donor atom, acceptor molecule, acceptor atom, score
      L1  H     3    30       P1  8028  0.92
      L1  H    10    27       P1  7948  0.94
      L1  H    12    28       P1  7957  0.71
      P1  H  7989  7998       L1    12  0.72
      P1  H  7997  8008       L1    14  0.96

> <Gold.Chemscore.Hbond.Weighted>
-15.2023

> <Gold.Chemscore.Metal.Weighted>
-0.0000

> <Gold.Chemscore.Lipo.Weighted>
-2.5693

> <Gold.Chemscore.Internal_Hbond.Weighted>
0.0000

> <Gold.Chemscore.DEClash.Weighted>
0.4860

> <Gold.Chemscore.DEInternal.Weighted>
0.8080

> <Gold.Chemscore.Rot.Weighted>
10.4404

> <Gold.Chemscore.Internal.Correction.Weighted>
   9.000000E+99

> <Gold.Protein.RotatedTorsions>
[ 6907 6896 6895 6894 ] final   -3.18 input  -60.11 | X-H torsion
[ 7974 7965 7964 7962 ] final  -90.50 input  175.53 | X-H torsion
[ 8008 7997 7996 7995 ] final  -26.29 input   59.86 | X-H torsion
[ 10167 10162 10161 10158 ] final  165.50 input  -65.29 | X-H torsion
[ 10718 10713 10712 10709 ] final  154.60 input   66.30 | X-H torsion
[ 10763 10752 10751 10750 ] final  162.22 input  -60.55 | X-H torsion
[ 11005 11000 10999 10996 ] final  -35.06 input  -57.11 | X-H torsion

> <Gold.Protein.ActiveResidues>
 VAL166  LYS551  ARG553  GLY616  TRP617  ASP618  TYR619  PRO620  LYS621  CYS622 
 ASP623  PHE694  ASN695  SER759  ASP760  ASP761  ALA762  ILE779  LEU786  VAL792 
 PHE793  MET794  SER795  GLU796  ALA797  LYS798  CYS799  TRP800  GLU811  SER814 

> <Gold.Protein.RotatedAtoms>
  151.5179  135.1066  159.9870 H   0  0  0  0  0  0  0  0  0  0  0  0  # atno 6907 bound_to 6896
  152.4633  133.7865  159.6889 H   0  0  0  0  0  0  0  0  0  0  0  0  # atno 6908 bound_to 6896
  150.8605  133.7586  159.3019 H   0  0  0  0  0  0  0  0  0  0  0  0  # atno 6909 bound_to 6896
  145.4256  140.9553  143.2156 H   0  0  0  0  0  0  0  0  0  0  0  0  # atno 7974 bound_to 7965
  154.4432  140.1903  156.0752 H   0  0  0  0  0  0  0  0  0  0  0  0  # atno 8008 bound_to 7997
  156.0480  140.3312  155.7292 H   0  0  0  0  0  0  0  0  0  0  0  0  # atno 8009 bound_to 7997
  155.5599  140.0603  157.2822 H   0  0  0  0  0  0  0  0  0  0  0  0  # atno 8010 bound_to 7997
  139.4907  144.4125  151.9282 H   0  0  0  0  0  0  0  0  0  0  0  0  # atno 10167 bound_to 10162
  157.2295  131.0736  151.1862 H   0  0  0  0  0  0  0  0  0  0  0  0  # atno 10718 bound_to 10713
  154.2751  135.2764  155.2721 H   0  0  0  0  0  0  0  0  0  0  0  0  # atno 10763 bound_to 10752
  154.5267  135.5741  153.6729 H   0  0  0  0  0  0  0  0  0  0  0  0  # atno 10764 bound_to 10752
  152.9938  135.6218  154.2907 H   0  0  0  0  0  0  0  0  0  0  0  0  # atno 10765 bound_to 10752
  140.9766  133.7079  156.1613 H   0  0  0  0  0  0  0  0  0  0  0  0  # atno 11005 bound_to 11000
  144.8216  139.5781  143.6984 LP  0  0  0  0  0  0  0  0  0  0  0  0  # atno 17320 bound_to 7965
  146.2634  139.6462  142.9346 LP  0  0  0  0  0  0  0  0  0  0  0  0  # atno 17321 bound_to 7965
  140.3567  144.3023  150.5940 LP  0  0  0  0  0  0  0  0  0  0  0  0  # atno 17342 bound_to 10162
  140.5438  143.2218  151.8040 LP  0  0  0  0  0  0  0  0  0  0  0  0  # atno 17343 bound_to 10162
  157.3493  130.7074  149.6430 LP  0  0  0  0  0  0  0  0  0  0  0  0  # atno 17370 bound_to 10713
  155.9676  130.4257  150.4666 LP  0  0  0  0  0  0  0  0  0  0  0  0  # atno 17371 bound_to 10713
  140.7249  134.4318  157.5571 LP  0  0  0  0  0  0  0  0  0  0  0  0  # atno 17394 bound_to 11000
  139.8933  134.8734  156.2229 LP  0  0  0  0  0  0  0  0  0  0  0  0  # atno 17395 bound_to 11000

$$$$
