AV-unprocessed.smi:2509|AV-procd|sdf|9868|dock1
  -GOLD-   2272013493D 1   1.00000     0.00000
 Structure written by MMmdl.
 45 46  0  0  0  0  0  0  0  0  1 V2000
  146.6272  133.0345  150.6378 C   0  0  0  0  0  0  0  0  0  0  0  0
  145.1206  132.7246  150.4711 C   0  0  0  0  0  0  0  0  0  0  0  0
  144.7707  132.6581  148.9730 C   0  0  0  0  0  0  0  0  0  0  0  0
  144.8954  131.3371  151.1170 C   0  0  0  0  0  0  0  0  0  0  0  0
  144.2553  133.7990  151.1527 C   0  0  0  0  0  0  0  0  0  0  0  0
  143.2189  133.3718  151.8860 N   0  0  0  0  0  0  0  0  0  0  0  0
  142.5276  134.2925  152.5896 C   0  0  0  0  0  0  0  0  0  0  0  0
  142.8843  135.6555  152.5886 C   0  0  0  0  0  0  0  0  0  0  0  0
  142.1203  136.5669  153.3655 N   0  0  0  0  0  0  0  0  0  0  0  0
  140.9197  136.3738  153.9368 C   0  0  0  0  0  0  0  0  0  0  0  0
  140.2697  135.3299  153.8906 O   0  0  0  0  0  0  0  0  0  0  0  0
  140.5167  137.4695  154.5961 N   0  0  0  0  0  0  0  0  0  0  0  0
  139.2721  137.5941  155.3490 C   0  0  0  0  0  0  0  0  0  0  0  0
  138.5579  138.9317  155.0595 C   0  0  2  0  0  0  0  0  0  0  0  0
  137.0930  138.8206  154.6128 C   0  0  0  0  0  0  0  0  0  0  0  0
  136.7820  140.1275  153.8682 C   0  0  0  0  0  0  0  0  0  0  0  0
  138.1283  140.8337  153.6419 C   0  0  0  0  0  0  0  0  0  0  0  0
  139.2094  139.7994  153.9726 C   0  0  2  0  0  0  0  0  0  0  0  0
  139.4939  139.0434  152.8103 O   0  0  0  0  0  0  0  0  0  0  0  0
  144.0263  135.9911  151.8230 C   0  0  0  0  0  0  0  0  0  0  0  0
  144.7092  135.0590  151.1250 N   0  0  0  0  0  0  0  0  0  0  0  0
  147.2447  132.2522  150.1950 H   0  0  0  0  0  0  0  0  0  0  0  0
  146.9029  133.1125  151.6903 H   0  0  0  0  0  0  0  0  0  0  0  0
  146.9093  133.9691  150.1517 H   0  0  0  0  0  0  0  0  0  0  0  0
  144.9510  133.6147  148.4810 H   0  0  0  0  0  0  0  0  0  0  0  0
  143.7208  132.4045  148.8223 H   0  0  0  0  0  0  0  0  0  0  0  0
  145.3682  131.9054  148.4578 H   0  0  0  0  0  0  0  0  0  0  0  0
  145.5425  130.5817  150.6699 H   0  0  0  0  0  0  0  0  0  0  0  0
  143.8702  130.9875  150.9889 H   0  0  0  0  0  0  0  0  0  0  0  0
  145.1064  131.3570  152.1869 H   0  0  0  0  0  0  0  0  0  0  0  0
  141.6842  133.9339  153.1615 H   0  0  0  0  0  0  0  0  0  0  0  0
  142.5622  137.4560  153.5484 H   0  0  0  0  0  0  0  0  0  0  0  0
  141.1197  138.2791  154.5824 H   0  0  0  0  0  0  0  0  0  0  0  0
  138.6244  136.7671  155.0570 H   0  0  0  0  0  0  0  0  0  0  0  0
  139.4570  137.4711  156.4175 H   0  0  0  0  0  0  0  0  0  0  0  0
  138.5694  139.5190  155.9798 H   0  0  0  0  0  0  0  0  0  0  0  0
  136.9745  137.9791  153.9290 H   0  0  0  0  0  0  0  0  0  0  0  0
  136.4179  138.6553  155.4531 H   0  0  0  0  0  0  0  0  0  0  0  0
  136.2874  139.9138  152.9201 H   0  0  0  0  0  0  0  0  0  0  0  0
  136.1114  140.7623  154.4486 H   0  0  0  0  0  0  0  0  0  0  0  0
  138.2245  141.2457  152.6363 H   0  0  0  0  0  0  0  0  0  0  0  0
  138.2106  141.6690  154.3384 H   0  0  0  0  0  0  0  0  0  0  0  0
  140.1293  140.2705  154.3207 H   0  0  0  0  0  0  0  0  0  0  0  0
  139.7083  139.6407  152.1098 H   0  0  0  0  0  0  0  0  0  0  0  0
  144.4275  136.9912  151.7758 H   0  0  0  0  0  0  0  0  0  0  0  0
  1  2  1  0  0  0  0
  1 22  1  0  0  0  0
  1 23  1  0  0  0  0
  1 24  1  0  0  0  0
  2  3  1  0  0  0  0
  2  4  1  0  0  0  0
  2  5  1  0  0  0  0
  3 25  1  0  0  0  0
  3 26  1  0  0  0  0
  3 27  1  0  0  0  0
  4 28  1  0  0  0  0
  4 29  1  0  0  0  0
  4 30  1  0  0  0  0
  5 21  1  0  0  0  0
  5  6  2  0  0  0  0
  6  7  1  0  0  0  0
  7  8  2  0  0  0  0
  7 31  1  0  0  0  0
  8  9  1  0  0  0  0
  8 20  1  0  0  0  0
  9 10  1  0  0  0  0
  9 32  1  0  0  0  0
 10 11  2  0  0  0  0
 10 12  1  0  0  0  0
 12 13  1  0  0  0  0
 12 33  1  0  0  0  0
 13 14  1  0  0  0  0
 13 34  1  0  0  0  0
 13 35  1  0  0  0  0
 14 18  1  0  0  0  0
 14 15  1  0  0  0  0
 14 36  1  0  0  0  0
 15 16  1  0  0  0  0
 15 37  1  0  0  0  0
 15 38  1  0  0  0  0
 16 17  1  0  0  0  0
 16 39  1  0  0  0  0
 16 40  1  0  0  0  0
 17 18  1  0  0  0  0
 17 41  1  0  0  0  0
 17 42  1  0  0  0  0
 18 19  1  0  0  0  0
 18 43  1  0  0  0  0
 19 44  1  0  0  0  0
 20 21  2  0  0  0  0
 20 45  1  0  0  0  0
M  END
> <s_m_source_file>
AV-unprocessed.smi

> <i_m_source_file_index>
2509

> <i_lp_mmshare_version>
43012

> <i_f3d_flags>
0

> <s_epik_input>
W0NIM11DKFtDSDNdKShbQ0gzXSljMW5bY0hdYyhbY0hdbjEpW05IXUMoPU8pW05IXVtDSDJdW0NAQEhdMltDSDJdW0NIMl1bQ0gyXVtDQEhdMltPSF0=

> <s_epik_cmdline>
J2VwaWtfcHl0aG9uJywgJy1waCcsICc3LjAnLCAnLXRuJywgJzgnLCAnLW1hJywgJzIwMCcsICctbWV0YWxfYmluZGluZycsICctaW1hZScsICc8aW5maWxlLm1hZT4nLCAnLW9tYWUnLCAnPG91dGZpbGUubWFlPic=

> <r_lp_tautomer_probability>
1

> <r_epik_Ionization_Penalty>
2.77586e-05

> <r_epik_Ionization_Penalty_Charging>
0

> <r_epik_Ionization_Penalty_Neutral>
2.77586e-05

> <r_epik_State_Penalty>
-0

> <r_epik_Charging_Adjusted_Penalty>
0

> <i_epik_Tot_Q>
0

> <i_epik_Tot_abs_Q>
0

> <r_epik_Metal_State_Penalty>
-0

> <b_epik_Metal_Only>
0

> <s_lp_Force_Field>
OPLS_2005

> <r_lp_Energy>
21.5241

> <b_lp_Chiralities_Consistent>
1

> <s_lp_Variant>
AV-unprocessed.smi:2509-3

> <Gold.Version>
5.8.1

> <Gold.Id.Protein>
6NUR|6NUR_protein|mol2

> <Gold.PLP.Fitness>
41.5774

> <Gold.PLP.PLP>
-35.1727

> <Gold.PLP.part.hbond>
-2.9392

> <Gold.PLP.part.metal>
0.0000

> <Gold.PLP.part.buried>
-6.0934

> <Gold.PLP.part.nonpolar>
-27.5115

> <Gold.PLP.part.repulsive>
0.6119

> <Gold.PLP.ligand.clash>
0.2407

> <Gold.PLP.ligand.torsion>
1.7395

> <Gold.PLP.Chemscore.Hbond>
2.0000

> <Gold.PLP.Chemscore.CHOScore>
1.3168

> <Gold.PLP.Chemscore.Metal>
0.0000

> <Gold.Chemscore.Hbonds>
donor molecule, donor type, donor heavy atom, donor atom, acceptor molecule, acceptor atom, score
      L1  H    19    44       P1 10160  1.00
      P1  H 11000 11005       L1    11  0.81
      L1  C     7    31       P1 10957  0.10
      L1  C    20    45       P1 10171  0.70

> <Gold.PLP.Chemscore.Internal.Correction>
0.1741

> <Gold.Rescore>
     Score         DG    S(hbond)    S(metal)    S(lipo)     H(rot)  DE(clash)    DE(int)     intcor
     12.85     -17.62       1.97        0.00      89.44       1.91       0.07       4.70       ----

> <Gold.Chemscore.Fitness>
12.8477

> <Gold.Chemscore.DG>
-17.6200

> <Gold.Chemscore.ZeroCoef>
-5.4800

> <Gold.Chemscore.Hbond>
1.9667

> <Gold.Chemscore.Metal>
0.0000

> <Gold.Chemscore.Lipo>
89.4441

> <Gold.Chemscore.Internal_Hbond>
0.0000

> <Gold.Chemscore.DEClash>
0.0732

> <Gold.Chemscore.DEInternal>
4.6990

> <Gold.Chemscore.Rot>
1.9116

> <Gold.Chemscore.Internal.Correction>
   9.000000E+99

> <Gold.Chemscore.Hbonds>
donor molecule, donor type, donor heavy atom, donor atom, acceptor molecule, acceptor atom, score
      L1  H    19    44       P1 10160  1.00
      P1  H 11000 11005       L1    11  0.56

> <Gold.Chemscore.Hbond.Weighted>
-6.5686

> <Gold.Chemscore.Metal.Weighted>
-0.0000

> <Gold.Chemscore.Lipo.Weighted>
-10.4650

> <Gold.Chemscore.Internal_Hbond.Weighted>
0.0000

> <Gold.Chemscore.DEClash.Weighted>
0.0732

> <Gold.Chemscore.DEInternal.Weighted>
4.6990

> <Gold.Chemscore.Rot.Weighted>
4.8936

> <Gold.Chemscore.Internal.Correction.Weighted>
   9.000000E+99

> <Gold.Protein.RotatedTorsions>
[ 6907 6896 6895 6894 ] final   -6.47 input  -60.11 | X-H torsion
[ 7974 7965 7964 7962 ] final   76.25 input  175.53 | X-H torsion
[ 8008 7997 7996 7995 ] final  156.58 input   59.86 | X-H torsion
[ 10167 10162 10161 10158 ] final  -77.85 input  -65.29 | X-H torsion
[ 10718 10713 10712 10709 ] final -125.63 input   66.30 | X-H torsion
[ 10763 10752 10751 10750 ] final   19.98 input  -60.55 | X-H torsion
[ 11005 11000 10999 10996 ] final   54.83 input  -57.11 | X-H torsion

> <Gold.Protein.ActiveResidues>
 VAL166  LYS551  ARG553  GLY616  TRP617  ASP618  TYR619  PRO620  LYS621  CYS622 
 ASP623  PHE694  ASN695  SER759  ASP760  ASP761  ALA762  ILE779  LEU786  VAL792 
 PHE793  MET794  SER795  GLU796  ALA797  LYS798  CYS799  TRP800  GLU811  SER814 

> <Gold.Protein.RotatedAtoms>
  151.4651  135.1041  159.9735 H   0  0  0  0  0  0  0  0  0  0  0  0  # atno 6907 bound_to 6896
  152.4838  133.8317  159.7117 H   0  0  0  0  0  0  0  0  0  0  0  0  # atno 6908 bound_to 6896
  150.8930  133.7157  159.2926 H   0  0  0  0  0  0  0  0  0  0  0  0  # atno 6909 bound_to 6896
  145.7052  139.2596  143.1682 H   0  0  0  0  0  0  0  0  0  0  0  0  # atno 7974 bound_to 7965
  156.2414  140.1908  156.6977 H   0  0  0  0  0  0  0  0  0  0  0  0  # atno 8008 bound_to 7997
  154.6205  140.0609  156.9635 H   0  0  0  0  0  0  0  0  0  0  0  0  # atno 8009 bound_to 7997
  155.1870  140.3281  155.4368 H   0  0  0  0  0  0  0  0  0  0  0  0  # atno 8010 bound_to 7997
  140.4734  143.2420  151.8170 H   0  0  0  0  0  0  0  0  0  0  0  0  # atno 10167 bound_to 10162
  156.1693  130.6656  151.0157 H   0  0  0  0  0  0  0  0  0  0  0  0  # atno 10718 bound_to 10713
  153.1116  135.6698  153.9490 H   0  0  0  0  0  0  0  0  0  0  0  0  # atno 10763 bound_to 10752
  153.9032  135.3033  155.3450 H   0  0  0  0  0  0  0  0  0  0  0  0  # atno 10764 bound_to 10752
  154.7535  135.5023  153.9410 H   0  0  0  0  0  0  0  0  0  0  0  0  # atno 10765 bound_to 10752
  140.0655  134.5542  155.9104 H   0  0  0  0  0  0  0  0  0  0  0  0  # atno 11005 bound_to 11000
  146.0762  140.7815  142.9664 LP  0  0  0  0  0  0  0  0  0  0  0  0  # atno 17320 bound_to 7965
  144.6957  140.3418  143.7198 LP  0  0  0  0  0  0  0  0  0  0  0  0  # atno 17321 bound_to 7965
  139.4822  144.4863  151.9242 LP  0  0  0  0  0  0  0  0  0  0  0  0  # atno 17342 bound_to 10162
  140.3948  144.2568  150.5897 LP  0  0  0  0  0  0  0  0  0  0  0  0  # atno 17343 bound_to 10162
  157.6791  131.0843  150.7418 LP  0  0  0  0  0  0  0  0  0  0  0  0  # atno 17370 bound_to 10713
  156.7477  130.4759  149.5463 LP  0  0  0  0  0  0  0  0  0  0  0  0  # atno 17371 bound_to 10713
  141.1991  133.6605  156.5825 LP  0  0  0  0  0  0  0  0  0  0  0  0  # atno 17394 bound_to 11000
  140.3705  134.7609  157.4595 LP  0  0  0  0  0  0  0  0  0  0  0  0  # atno 17395 bound_to 11000

$$$$
