AV-unprocessed.smi:3330|AV-procd|sdf|12810|dock5
  -GOLD-   2272019173D 1   1.00000     0.00000
 Structure written by MMmdl.
 38 39  0  0  0  0  0  0  0  0  3 V2000
  147.6755  132.9224  152.7236 C   0  0  0  0  0  0  0  0  0  0  0  0
  146.7045  134.0963  152.9473 C   0  0  1  0  0  0  0  0  0  0  0  0
  147.4292  135.1832  153.6435 N   0  3  0  0  0  0  0  0  0  0  0  0
  148.0443  134.8002  154.9296 C   0  0  0  0  0  0  0  0  0  0  0  0
  148.3383  136.0424  155.7828 C   0  0  0  0  0  0  0  0  0  0  0  0
  149.6253  136.6407  155.4200 N   0  0  0  0  0  0  0  0  0  0  0  0
  149.7663  137.8414  154.8508 C   0  0  0  0  0  0  0  0  0  0  0  0
  148.8811  138.6391  154.5415 O   0  0  0  0  0  0  0  0  0  0  0  0
  151.2433  138.0671  154.6259 C   0  0  0  0  0  0  0  0  0  0  0  0
  151.8222  136.8409  155.1272 N   0  5  0  0  0  0  0  0  0  0  0  0
  150.8233  136.0461  155.5754 C   0  0  0  0  0  0  0  0  0  0  0  0
  150.9376  134.9208  156.0606 O   0  0  0  0  0  0  0  0  0  0  0  0
  146.0726  134.6187  151.6274 C   0  0  2  0  0  0  0  0  0  0  0  0
  145.1053  135.7979  151.8447 C   0  0  0  0  0  0  0  0  0  0  0  0
  145.4030  133.5598  150.8825 N   0  0  0  0  0  0  0  0  0  0  0  0
  145.9675  132.4692  150.2528 C   0  0  0  0  0  0  0  0  0  0  0  0
  144.9523  131.7553  149.6836 C   0  0  0  0  0  0  0  0  0  0  0  0
  143.7867  132.4990  150.0177 C   0  0  0  0  0  0  0  0  0  0  0  0
  144.0590  133.5778  150.7333 N   0  0  0  0  0  0  0  0  0  0  0  0
  147.1707  132.0508  152.3066 H   0  0  0  0  0  0  0  0  0  0  0  0
  148.1300  132.6066  153.6633 H   0  0  0  0  0  0  0  0  0  0  0  0
  148.4805  133.1989  152.0419 H   0  0  0  0  0  0  0  0  0  0  0  0
  145.9071  133.7291  153.5962 H   0  0  0  0  0  0  0  0  0  0  0  0
  148.1674  135.5102  153.0370 H   0  0  0  0  0  0  0  0  0  0  0  0
  147.3765  134.1268  155.4680 H   0  0  0  0  0  0  0  0  0  0  0  0
  148.9667  134.2511  154.7353 H   0  0  0  0  0  0  0  0  0  0  0  0
  147.5377  136.7748  155.6652 H   0  0  0  0  0  0  0  0  0  0  0  0
  148.3420  135.7776  156.8417 H   0  0  0  0  0  0  0  0  0  0  0  0
  151.4362  138.2331  153.5656 H   0  0  0  0  0  0  0  0  0  0  0  0
  151.5715  138.9525  155.1712 H   0  0  0  0  0  0  0  0  0  0  0  0
  146.8833  134.9769  150.9907 H   0  0  0  0  0  0  0  0  0  0  0  0
  145.6200  136.6691  152.2501 H   0  0  0  0  0  0  0  0  0  0  0  0
  144.3013  135.5356  152.5333 H   0  0  0  0  0  0  0  0  0  0  0  0
  144.6479  136.1064  150.9040 H   0  0  0  0  0  0  0  0  0  0  0  0
  147.0330  132.2924  150.2620 H   0  0  0  0  0  0  0  0  0  0  0  0
  145.0301  130.8416  149.1130 H   0  0  0  0  0  0  0  0  0  0  0  0
  142.7583  132.2889  149.7629 H   0  0  0  0  0  0  0  0  0  0  0  0
  146.7859  135.9449  153.8046 H   0  0  0  0  0  0  0  0  0  0  0  0
  1  2  1  0  0  0  0
  1 20  1  0  0  0  0
  1 21  1  0  0  0  0
  1 22  1  0  0  0  0
  2  3  1  0  0  0  0
  2 13  1  0  0  0  0
  2 23  1  0  0  0  0
  3  4  1  0  0  0  0
  3 24  1  0  0  0  0
  3 38  1  0  0  0  0
  4  5  1  0  0  0  0
  4 25  1  0  0  0  0
  4 26  1  0  0  0  0
  5  6  1  0  0  0  0
  5 27  1  0  0  0  0
  5 28  1  0  0  0  0
  6 11  1  0  0  0  0
  6  7  1  0  0  0  0
  7  8  2  0  0  0  0
  7  9  1  0  0  0  0
  9 10  1  0  0  0  0
  9 29  1  0  0  0  0
  9 30  1  0  0  0  0
 10 11  1  0  0  0  0
 11 12  2  0  0  0  0
 13 14  1  0  0  0  0
 13 15  1  0  0  0  0
 13 31  1  0  0  0  0
 14 32  1  0  0  0  0
 14 33  1  0  0  0  0
 14 34  1  0  0  0  0
 15 19  1  0  0  0  0
 15 16  1  0  0  0  0
 16 17  2  0  0  0  0
 16 35  1  0  0  0  0
 17 18  1  0  0  0  0
 17 36  1  0  0  0  0
 18 19  2  0  0  0  0
 18 37  1  0  0  0  0
M  CHG  1   3   1
M  CHG  1  10  -1
M  END
> <s_m_source_file>
AV-unprocessed.smi

> <i_m_source_file_index>
3330

> <i_lp_mmshare_version>
43012

> <i_f3d_flags>
0

> <s_epik_input>
bjFbY0hdW2NIXVtjSF1uMVtDQEBIXShbQ0gzXSlbQ0BIXShbQ0gzXSlbTkhdW0NIMl1bQ0gyXU4yQyg9TylbQ0gyXVtOSF1DMj1P

> <s_epik_cmdline>
J2VwaWtfcHl0aG9uJywgJy1waCcsICc3LjAnLCAnLXRuJywgJzgnLCAnLW1hJywgJzIwMCcsICctbWV0YWxfYmluZGluZycsICctaW1hZScsICc8aW5maWxlLm1hZT4nLCAnLW9tYWUnLCAnPG91dGZpbGUubWFlPic=

> <r_lp_tautomer_probability>
1

> <r_epik_Ionization_Penalty>
5.18149

> <r_epik_Ionization_Penalty_Charging>
5.18148

> <r_epik_Ionization_Penalty_Neutral>
9.83265e-06

> <r_epik_State_Penalty>
5.18201

> <r_epik_Charging_Adjusted_Penalty>
10.3635

> <i_epik_Tot_Q>
0

> <i_epik_Tot_abs_Q>
2

> <r_epik_Metal_State_Penalty>
1.25422

> <b_epik_Metal_Only>
1

> <s_lp_Force_Field>
OPLS_2005

> <r_lp_Energy>
16.6991

> <b_lp_Chiralities_Consistent>
1

> <s_lp_Variant>
AV-unprocessed.smi:3330-10

> <Gold.Version>
5.8.1

> <Gold.Id.Protein>
6NUR|6NUR_protein|mol2

> <Gold.PLP.Fitness>
46.8915

> <Gold.PLP.PLP>
-28.9655

> <Gold.PLP.part.hbond>
-1.9399

> <Gold.PLP.part.metal>
0.0000

> <Gold.PLP.part.buried>
-4.6219

> <Gold.PLP.part.nonpolar>
-24.6190

> <Gold.PLP.part.repulsive>
0.4871

> <Gold.PLP.ligand.clash>
0.0000

> <Gold.PLP.ligand.torsion>
0.4887

> <Gold.PLP.Chemscore.Hbond>
4.0000

> <Gold.PLP.Chemscore.CHOScore>
2.2378

> <Gold.PLP.Chemscore.Metal>
0.0000

> <Gold.Chemscore.Hbonds>
donor molecule, donor type, donor heavy atom, donor atom, acceptor molecule, acceptor atom, score
      L1  H     3    24       P1  7948  2.00
      P1  H 10752 10763       L1    10  1.80
      L1  C    16    35       P1 10747  1.00
      L1  C    18    37       P1 10186  0.33
      L1  C    18    37       P1 10952  0.47

> <Gold.PLP.Chemscore.Internal.Correction>
0.1901

> <Gold.Rescore>
     Score         DG    S(hbond)    S(metal)    S(lipo)     H(rot)  DE(clash)    DE(int)     intcor
     11.43     -12.98       1.94        0.00      65.34       2.59       0.02       1.53       ----

> <Gold.Chemscore.Fitness>
11.4261

> <Gold.Chemscore.DG>
-12.9790

> <Gold.Chemscore.ZeroCoef>
-5.4800

> <Gold.Chemscore.Hbond>
1.9417

> <Gold.Chemscore.Metal>
0.0000

> <Gold.Chemscore.Lipo>
65.3398

> <Gold.Chemscore.Internal_Hbond>
0.0000

> <Gold.Chemscore.DEClash>
0.0204

> <Gold.Chemscore.DEInternal>
1.5325

> <Gold.Chemscore.Rot>
2.5903

> <Gold.Chemscore.Internal.Correction>
   9.000000E+99

> <Gold.Chemscore.Hbonds>
donor molecule, donor type, donor heavy atom, donor atom, acceptor molecule, acceptor atom, score
      L1  H     3    24       P1  7948  0.97
      P1  H 10752 10763       L1    10  0.17

> <Gold.Chemscore.Hbond.Weighted>
-6.4854

> <Gold.Chemscore.Metal.Weighted>
-0.0000

> <Gold.Chemscore.Lipo.Weighted>
-7.6448

> <Gold.Chemscore.Internal_Hbond.Weighted>
0.0000

> <Gold.Chemscore.DEClash.Weighted>
0.0204

> <Gold.Chemscore.DEInternal.Weighted>
1.5325

> <Gold.Chemscore.Rot.Weighted>
6.6311

> <Gold.Chemscore.Internal.Correction.Weighted>
   9.000000E+99

> <Gold.Protein.RotatedTorsions>
[ 6907 6896 6895 6894 ] final  123.31 input  -60.11 | X-H torsion
[ 7974 7965 7964 7962 ] final -117.21 input  175.53 | X-H torsion
[ 8008 7997 7996 7995 ] final  -45.88 input   59.86 | X-H torsion
[ 10167 10162 10161 10158 ] final   95.40 input  -65.29 | X-H torsion
[ 10718 10713 10712 10709 ] final   78.34 input   66.30 | X-H torsion
[ 10763 10752 10751 10750 ] final   70.33 input  -60.55 | X-H torsion
[ 11005 11000 10999 10996 ] final  130.60 input  -57.11 | X-H torsion

> <Gold.Protein.ActiveResidues>
 VAL166  LYS551  ARG553  GLY616  TRP617  ASP618  TYR619  PRO620  LYS621  CYS622 
 ASP623  PHE694  ASN695  SER759  ASP760  ASP761  ALA762  ILE779  LEU786  VAL792 
 PHE793  MET794  SER795  GLU796  ALA797  LYS798  CYS799  TRP800  GLU811  SER814 

> <Gold.Protein.RotatedAtoms>
  152.4172  133.7057  159.6449 H   0  0  0  0  0  0  0  0  0  0  0  0  # atno 6907 bound_to 6896
  150.8048  133.8519  159.3216 H   0  0  0  0  0  0  0  0  0  0  0  0  # atno 6908 bound_to 6896
  151.6246  135.1031  160.0160 H   0  0  0  0  0  0  0  0  0  0  0  0  # atno 6909 bound_to 6896
  145.0879  140.8470  143.4000 H   0  0  0  0  0  0  0  0  0  0  0  0  # atno 7974 bound_to 7965
  154.4003  140.1385  156.3920 H   0  0  0  0  0  0  0  0  0  0  0  0  # atno 8008 bound_to 7997
  155.7905  140.3479  155.5326 H   0  0  0  0  0  0  0  0  0  0  0  0  # atno 8009 bound_to 7997
  155.8583  140.0952  157.1620 H   0  0  0  0  0  0  0  0  0  0  0  0  # atno 8010 bound_to 7997
  139.7992  144.6821  150.9788 H   0  0  0  0  0  0  0  0  0  0  0  0  # atno 10167 bound_to 10162
  157.6741  130.9864  150.1773 H   0  0  0  0  0  0  0  0  0  0  0  0  # atno 10718 bound_to 10713
  153.0336  135.5178  154.7424 H   0  0  0  0  0  0  0  0  0  0  0  0  # atno 10763 bound_to 10752
  154.6420  135.2913  155.0094 H   0  0  0  0  0  0  0  0  0  0  0  0  # atno 10764 bound_to 10752
  154.1009  135.6636  153.4920 H   0  0  0  0  0  0  0  0  0  0  0  0  # atno 10765 bound_to 10752
  139.9681  134.9585  156.9317 H   0  0  0  0  0  0  0  0  0  0  0  0  # atno 11005 bound_to 11000
  145.1101  139.2763  143.5642 LP  0  0  0  0  0  0  0  0  0  0  0  0  # atno 17320 bound_to 7965
  146.3531  140.0694  142.8624 LP  0  0  0  0  0  0  0  0  0  0  0  0  # atno 17321 bound_to 7965
  140.7820  143.4299  151.0710 LP  0  0  0  0  0  0  0  0  0  0  0  0  # atno 17342 bound_to 10162
  139.7972  143.8135  152.3159 LP  0  0  0  0  0  0  0  0  0  0  0  0  # atno 17343 bound_to 10162
  156.2513  130.3701  149.8229 LP  0  0  0  0  0  0  0  0  0  0  0  0  # atno 17370 bound_to 10713
  156.6001  130.8543  151.3429 LP  0  0  0  0  0  0  0  0  0  0  0  0  # atno 17371 bound_to 10713
  140.5352  134.0774  155.7326 LP  0  0  0  0  0  0  0  0  0  0  0  0  # atno 17394 bound_to 11000
  141.1361  133.9219  157.2430 LP  0  0  0  0  0  0  0  0  0  0  0  0  # atno 17395 bound_to 11000

$$$$
