AV-unprocessed.smi:2525|AV-procd|sdf|9930|dock8
  -GOLD-   2272013573D 1   1.00000     0.00000
 Structure written by MMmdl.
 44 45  0  0  0  0  0  0  0  0  1 V2000
  147.9716  141.9624  157.1791 C   0  0  0  0  0  0  0  0  0  0  0  0
  148.5740  140.6560  157.7269 C   0  0  0  0  0  0  0  0  0  0  0  0
  149.8739  140.1331  157.0518 C   0  0  0  0  0  0  0  0  0  0  0  0
  150.9185  141.2694  157.1769 C   0  0  0  0  0  0  0  0  0  0  0  0
  151.2415  141.6993  158.6189 C   0  0  0  0  0  0  0  0  0  0  0  0
  150.4228  138.7372  157.4748 C   0  0  1  0  0  0  0  0  0  0  0  0
  149.3956  137.8144  157.9535 N   0  0  0  0  0  0  0  0  0  0  0  0
  149.4869  137.0539  159.0546 C   0  0  0  0  0  0  0  0  0  0  0  0
  150.4590  137.0689  159.8087 O   0  0  0  0  0  0  0  0  0  0  0  0
  148.2905  136.1504  159.3666 C   0  0  0  0  0  0  0  0  0  0  0  0
  147.8248  136.3211  160.7332 N   0  0  0  0  0  0  0  0  0  0  0  0
  147.7243  135.3741  161.7317 C   0  0  0  0  0  0  0  0  0  0  0  0
  147.2147  136.0767  162.7858 C   0  0  0  0  0  0  0  0  0  0  0  0
  147.0282  137.4008  162.3922 N   0  0  0  0  0  0  0  0  0  0  0  0
  147.4012  137.5364  161.1586 N   0  0  0  0  0  0  0  0  0  0  0  0
  150.8024  138.4530  156.0099 C   0  0  1  0  0  0  0  0  0  0  0  0
  150.6983  137.0368  155.4462 C   0  0  0  0  0  0  0  0  0  0  0  0
  149.7555  139.5109  155.6307 C   0  0  2  0  0  0  0  0  0  0  0  0
  150.1468  140.4125  154.6055 O   0  0  0  0  0  0  0  0  0  0  0  0
  149.2025  141.4430  154.3741 C   0  0  0  0  0  0  0  0  0  0  0  0
  147.0446  142.1992  157.7018 H   0  0  0  0  0  0  0  0  0  0  0  0
  147.7347  141.9017  156.1178 H   0  0  0  0  0  0  0  0  0  0  0  0
  148.6473  142.8043  157.3300 H   0  0  0  0  0  0  0  0  0  0  0  0
  148.7392  140.8223  158.7921 H   0  0  0  0  0  0  0  0  0  0  0  0
  147.8063  139.8830  157.6801 H   0  0  0  0  0  0  0  0  0  0  0  0
  151.8565  140.9744  156.7062 H   0  0  0  0  0  0  0  0  0  0  0  0
  150.5905  142.1448  156.6150 H   0  0  0  0  0  0  0  0  0  0  0  0
  152.0117  142.4704  158.6222 H   0  0  0  0  0  0  0  0  0  0  0  0
  151.6119  140.8675  159.2173 H   0  0  0  0  0  0  0  0  0  0  0  0
  150.3699  142.1130  159.1256 H   0  0  0  0  0  0  0  0  0  0  0  0
  151.3043  138.7771  158.1158 H   0  0  0  0  0  0  0  0  0  0  0  0
  148.5566  137.7401  157.3965 H   0  0  0  0  0  0  0  0  0  0  0  0
  147.4665  136.3759  158.6884 H   0  0  0  0  0  0  0  0  0  0  0  0
  148.5679  135.1083  159.2009 H   0  0  0  0  0  0  0  0  0  0  0  0
  148.0056  134.3386  161.6075 H   0  0  0  0  0  0  0  0  0  0  0  0
  146.9674  135.7437  163.7831 H   0  0  0  0  0  0  0  0  0  0  0  0
  151.8020  138.8524  155.8304 H   0  0  0  0  0  0  0  0  0  0  0  0
  149.6701  136.6733  155.4496 H   0  0  0  0  0  0  0  0  0  0  0  0
  151.2963  136.3369  156.0296 H   0  0  0  0  0  0  0  0  0  0  0  0
  151.0553  136.9921  154.4176 H   0  0  0  0  0  0  0  0  0  0  0  0
  148.7893  139.0473  155.4294 H   0  0  0  0  0  0  0  0  0  0  0  0
  149.5894  142.1282  153.6202 H   0  0  0  0  0  0  0  0  0  0  0  0
  149.0107  142.0161  155.2819 H   0  0  0  0  0  0  0  0  0  0  0  0
  148.2591  141.0417  154.0054 H   0  0  0  0  0  0  0  0  0  0  0  0
  1  2  1  0  0  0  0
  1 21  1  0  0  0  0
  1 22  1  0  0  0  0
  1 23  1  0  0  0  0
  2  3  1  0  0  0  0
  2 24  1  0  0  0  0
  2 25  1  0  0  0  0
  3 18  1  0  0  0  0
  3  4  1  0  0  0  0
  3  6  1  0  0  0  0
  4  5  1  0  0  0  0
  4 26  1  0  0  0  0
  4 27  1  0  0  0  0
  5 28  1  0  0  0  0
  5 29  1  0  0  0  0
  5 30  1  0  0  0  0
  6  7  1  0  0  0  0
  6 16  1  0  0  0  0
  6 31  1  0  0  0  0
  7  8  1  0  0  0  0
  7 32  1  0  0  0  0
  8  9  2  0  0  0  0
  8 10  1  0  0  0  0
 10 11  1  0  0  0  0
 10 33  1  0  0  0  0
 10 34  1  0  0  0  0
 11 15  1  0  0  0  0
 11 12  1  0  0  0  0
 12 13  2  0  0  0  0
 12 35  1  0  0  0  0
 13 14  1  0  0  0  0
 13 36  1  0  0  0  0
 14 15  2  0  0  0  0
 16 17  1  0  0  0  0
 16 18  1  0  0  0  0
 16 37  1  0  0  0  0
 17 38  1  0  0  0  0
 17 39  1  0  0  0  0
 17 40  1  0  0  0  0
 18 19  1  0  0  0  0
 18 41  1  0  0  0  0
 19 20  1  0  0  0  0
 20 42  1  0  0  0  0
 20 43  1  0  0  0  0
 20 44  1  0  0  0  0
M  END
> <s_m_source_file>
AV-unprocessed.smi

> <i_m_source_file_index>
2525

> <i_lp_mmshare_version>
43012

> <i_f3d_flags>
0

> <s_epik_input>
W0NIM11PW0NAQEhdMVtDQEhdKFtDSDNdKVtDQEBIXShDMShbQ0gyXVtDSDNdKVtDSDJdW0NIM10pW05IXUMoPU8pW0NIMl1uMltjSF1bY0hdbm4y

> <s_epik_cmdline>
J2VwaWtfcHl0aG9uJywgJy1waCcsICc3LjAnLCAnLXRuJywgJzgnLCAnLW1hJywgJzIwMCcsICctbWV0YWxfYmluZGluZycsICctaW1hZScsICc8aW5maWxlLm1hZT4nLCAnLW9tYWUnLCAnPG91dGZpbGUubWFlPic=

> <r_lp_tautomer_probability>
1

> <r_epik_Ionization_Penalty>
1.18045e-06

> <r_epik_Ionization_Penalty_Charging>
0

> <r_epik_Ionization_Penalty_Neutral>
1.18045e-06

> <r_epik_State_Penalty>
-0

> <r_epik_Charging_Adjusted_Penalty>
0

> <i_epik_Tot_Q>
0

> <i_epik_Tot_abs_Q>
0

> <r_epik_Metal_State_Penalty>
-0

> <b_epik_Metal_Only>
0

> <s_lp_Force_Field>
OPLS_2005

> <r_lp_Energy>
28.6674

> <b_lp_Chiralities_Consistent>
1

> <s_lp_Variant>
AV-unprocessed.smi:2525-5

> <Gold.Version>
5.8.1

> <Gold.Id.Protein>
6NUR|6NUR_protein|mol2

> <Gold.PLP.Fitness>
41.3169

> <Gold.PLP.PLP>
-32.1604

> <Gold.PLP.part.hbond>
-6.0331

> <Gold.PLP.part.metal>
0.0000

> <Gold.PLP.part.buried>
-3.3693

> <Gold.PLP.part.nonpolar>
-22.5289

> <Gold.PLP.part.repulsive>
0.1889

> <Gold.PLP.ligand.clash>
0.0000

> <Gold.PLP.ligand.torsion>
0.3629

> <Gold.PLP.Chemscore.Hbond>
3.1000

> <Gold.PLP.Chemscore.CHOScore>
0.0000

> <Gold.PLP.Chemscore.Metal>
0.0000

> <Gold.Chemscore.Hbonds>
donor molecule, donor type, donor heavy atom, donor atom, acceptor molecule, acceptor atom, score
      P1  H  6896  6907       L1     9  0.84
      P1  H  6931  6943       L1    15  0.18
      P1  H  6934  6947       L1    15  0.94
      P1  H  7989  7998       L1    19  0.96

> <Gold.PLP.Chemscore.Internal.Correction>
0.5824

> <Gold.Rescore>
     Score         DG    S(hbond)    S(metal)    S(lipo)     H(rot)  DE(clash)    DE(int)     intcor
     15.07     -15.59       2.24        0.00      65.74       1.98       0.02       0.50       ----

> <Gold.Chemscore.Fitness>
15.0687

> <Gold.Chemscore.DG>
-15.5899

> <Gold.Chemscore.ZeroCoef>
-5.4800

> <Gold.Chemscore.Hbond>
2.2428

> <Gold.Chemscore.Metal>
0.0000

> <Gold.Chemscore.Lipo>
65.7431

> <Gold.Chemscore.Internal_Hbond>
0.0000

> <Gold.Chemscore.DEClash>
0.0211

> <Gold.Chemscore.DEInternal>
0.5000

> <Gold.Chemscore.Rot>
1.9817

> <Gold.Chemscore.Internal.Correction>
   9.000000E+99

> <Gold.Chemscore.Hbonds>
donor molecule, donor type, donor heavy atom, donor atom, acceptor molecule, acceptor atom, score
      P1  H  6896  6907       L1     9  0.41
      P1  H  6934  6947       L1    15  0.26
      P1  H  7989  7998       L1    19  0.41

> <Gold.Chemscore.Hbond.Weighted>
-7.4910

> <Gold.Chemscore.Metal.Weighted>
-0.0000

> <Gold.Chemscore.Lipo.Weighted>
-7.6919

> <Gold.Chemscore.Internal_Hbond.Weighted>
0.0000

> <Gold.Chemscore.DEClash.Weighted>
0.0211

> <Gold.Chemscore.DEInternal.Weighted>
0.5000

> <Gold.Chemscore.Rot.Weighted>
5.0731

> <Gold.Chemscore.Internal.Correction.Weighted>
   9.000000E+99

> <Gold.Protein.RotatedTorsions>
[ 6907 6896 6895 6894 ] final  -27.21 input  -60.11 | X-H torsion
[ 7974 7965 7964 7962 ] final  153.33 input  175.53 | X-H torsion
[ 8008 7997 7996 7995 ] final  -26.30 input   59.86 | X-H torsion
[ 10167 10162 10161 10158 ] final  -37.30 input  -65.29 | X-H torsion
[ 10718 10713 10712 10709 ] final -103.13 input   66.30 | X-H torsion
[ 10763 10752 10751 10750 ] final  149.33 input  -60.55 | X-H torsion
[ 11005 11000 10999 10996 ] final  162.46 input  -57.11 | X-H torsion

> <Gold.Protein.ActiveResidues>
 VAL166  LYS551  ARG553  GLY616  TRP617  ASP618  TYR619  PRO620  LYS621  CYS622 
 ASP623  PHE694  ASN695  SER759  ASP760  ASP761  ALA762  ILE779  LEU786  VAL792 
 PHE793  MET794  SER795  GLU796  ALA797  LYS798  CYS799  TRP800  GLU811  SER814 

> <Gold.Protein.RotatedAtoms>
  151.1501  135.0223  159.8663 H   0  0  0  0  0  0  0  0  0  0  0  0  # atno 6907 bound_to 6896
  152.5453  134.1399  159.8484 H   0  0  0  0  0  0  0  0  0  0  0  0  # atno 6908 bound_to 6896
  151.1483  133.4878  159.2628 H   0  0  0  0  0  0  0  0  0  0  0  0  # atno 6909 bound_to 6896
  144.8162  139.6786  143.6120 H   0  0  0  0  0  0  0  0  0  0  0  0  # atno 7974 bound_to 7965
  154.4432  140.1903  156.0753 H   0  0  0  0  0  0  0  0  0  0  0  0  # atno 8008 bound_to 7997
  156.0480  140.3312  155.7291 H   0  0  0  0  0  0  0  0  0  0  0  0  # atno 8009 bound_to 7997
  155.5600  140.0603  157.2821 H   0  0  0  0  0  0  0  0  0  0  0  0  # atno 8010 bound_to 7997
  140.7121  143.3351  151.2482 H   0  0  0  0  0  0  0  0  0  0  0  0  # atno 10167 bound_to 10162
  156.0254  130.5453  150.7208 H   0  0  0  0  0  0  0  0  0  0  0  0  # atno 10718 bound_to 10713
  154.0694  135.2868  155.3311 H   0  0  0  0  0  0  0  0  0  0  0  0  # atno 10763 bound_to 10752
  154.6756  135.5283  153.8198 H   0  0  0  0  0  0  0  0  0  0  0  0  # atno 10764 bound_to 10752
  153.0491  135.6568  154.0877 H   0  0  0  0  0  0  0  0  0  0  0  0  # atno 10765 bound_to 10752
  140.2260  134.8160  157.3269 H   0  0  0  0  0  0  0  0  0  0  0  0  # atno 11005 bound_to 11000
  146.2465  139.6108  142.9456 LP  0  0  0  0  0  0  0  0  0  0  0  0  # atno 17320 bound_to 7965
  145.5210  141.0432  143.2435 LP  0  0  0  0  0  0  0  0  0  0  0  0  # atno 17321 bound_to 7965
  139.6843  143.9800  152.2826 LP  0  0  0  0  0  0  0  0  0  0  0  0  # atno 17342 bound_to 10162
  139.9440  144.6663  150.8237 LP  0  0  0  0  0  0  0  0  0  0  0  0  # atno 17343 bound_to 10162
  157.4824  131.0903  151.0521 LP  0  0  0  0  0  0  0  0  0  0  0  0  # atno 17370 bound_to 10713
  157.0950  130.5958  149.5448 LP  0  0  0  0  0  0  0  0  0  0  0  0  # atno 17371 bound_to 10713
  140.1800  134.4502  155.7778 LP  0  0  0  0  0  0  0  0  0  0  0  0  # atno 17394 bound_to 11000
  141.2220  133.6979  156.7852 LP  0  0  0  0  0  0  0  0  0  0  0  0  # atno 17395 bound_to 11000

$$$$
