AV-unprocessed.smi:52|AV-procd|sdf|509|dock10
  -GOLD-   2262016383D 1   1.00000     0.00000
 Structure written by MMmdl.
 27 28  0  0  0  0  0  0  0  0  3 V2000
  150.2146  135.4097  157.6889 O   0  0  0  0  0  0  0  0  0  0  0  0
  150.4942  135.1869  156.4902 C   0  0  0  0  0  0  0  0  0  0  0  0
  151.4413  135.7651  155.9132 O   0  5  0  0  0  0  0  0  0  0  0  0
  149.6747  134.2096  155.7286 C   0  0  0  0  0  0  0  0  0  0  0  0
  148.9029  133.2015  156.2487 C   0  0  0  0  0  0  0  0  0  0  0  0
  148.2960  132.5254  155.2249 O   0  0  0  0  0  0  0  0  0  0  0  0
  148.7317  133.1584  154.1022 C   0  0  0  0  0  0  0  0  0  0  0  0
  148.2427  132.6919  152.7710 C   0  0  0  0  0  0  0  0  0  0  0  0
  147.3930  133.8048  152.2855 N   0  3  2  0  0  0  0  0  0  0  0  0
  146.3334  134.2072  153.2330 C   0  0  0  0  0  0  0  0  0  0  0  0
  145.2678  134.8782  152.3728 C   0  0  0  0  0  0  0  0  0  0  0  0
  145.2869  134.0273  151.1066 C   0  0  1  0  0  0  0  0  0  0  0  0
  144.8210  134.7471  149.9849 O   0  0  0  0  0  0  0  0  0  0  0  0
  146.7537  133.5958  150.9607 C   0  0  0  0  0  0  0  0  0  0  0  0
  149.5593  134.1713  154.3448 N   0  0  0  0  0  0  0  0  0  0  0  0
  144.6612  133.1459  151.2546 H   0  0  0  0  0  0  0  0  0  0  0  0
  148.6932  132.8619  157.2525 H   0  0  0  0  0  0  0  0  0  0  0  0
  149.0744  132.4845  152.0961 H   0  0  0  0  0  0  0  0  0  0  0  0
  147.6575  131.7808  152.9014 H   0  0  0  0  0  0  0  0  0  0  0  0
  145.9123  133.3218  153.7126 H   0  0  0  0  0  0  0  0  0  0  0  0
  146.7195  134.8639  154.0131 H   0  0  0  0  0  0  0  0  0  0  0  0
  144.2885  134.9081  152.8518 H   0  0  0  0  0  0  0  0  0  0  0  0
  145.5684  135.9038  152.1507 H   0  0  0  0  0  0  0  0  0  0  0  0
  145.2989  134.4616  149.2207 H   0  0  0  0  0  0  0  0  0  0  0  0
  147.2837  134.2090  150.2304 H   0  0  0  0  0  0  0  0  0  0  0  0
  146.8153  132.5592  150.6248 H   0  0  0  0  0  0  0  0  0  0  0  0
  147.9945  134.6097  152.1816 H   0  0  0  0  0  0  0  0  0  0  0  0
  1  2  2  0  0  0  0
  2  3  1  0  0  0  0
  2  4  1  0  0  0  0
  4 15  1  0  0  0  0
  4  5  2  0  0  0  0
  5  6  1  0  0  0  0
  5 17  1  0  0  0  0
  6  7  1  0  0  0  0
  7  8  1  0  0  0  0
  7 15  2  0  0  0  0
  8  9  1  0  0  0  0
  8 18  1  0  0  0  0
  8 19  1  0  0  0  0
  9 14  1  0  0  0  0
  9 10  1  0  0  0  0
  9 27  1  0  0  0  0
 10 11  1  0  0  0  0
 10 20  1  0  0  0  0
 10 21  1  0  0  0  0
 11 12  1  0  0  0  0
 11 22  1  0  0  0  0
 11 23  1  0  0  0  0
 12 16  1  0  0  0  0
 12 13  1  0  0  0  0
 12 14  1  0  0  0  0
 13 24  1  0  0  0  0
 14 25  1  0  0  0  0
 14 26  1  0  0  0  0
M  CHG  1   3  -1
M  CHG  1   9   1
M  END
> <s_m_source_file>
AV-unprocessed.smi

> <i_m_source_file_index>
52

> <i_lp_mmshare_version>
43012

> <i_f3d_flags>
0

> <s_epik_input>
Tz1DKFtPSF0pYzFbY0hdb2MobjEpW0NIMl1OMltDSDJdW0NIMl1bQ0BIXShbT0hdKVtDSDJdMg==

> <s_epik_cmdline>
J2VwaWtfcHl0aG9uJywgJy1waCcsICc3LjAnLCAnLXRuJywgJzgnLCAnLW1hJywgJzIwMCcsICctbWV0YWxfYmluZGluZycsICctaW1hZScsICc8aW5maWxlLm1hZT4nLCAnLW9tYWUnLCAnPG91dGZpbGUubWFlPic=

> <r_epik_Ionization_Penalty>
0.0376014

> <r_epik_Ionization_Penalty_Charging>
0.0376013

> <r_epik_Ionization_Penalty_Neutral>
1.78687e-08

> <r_epik_State_Penalty>
0.0314164

> <r_epik_Charging_Adjusted_Penalty>
0.0690177

> <i_epik_Tot_Q>
0

> <i_epik_Tot_abs_Q>
2

> <r_epik_Metal_State_Penalty>
0.0314164

> <b_epik_Metal_Only>
0

> <s_lp_Force_Field>
OPLS_2005

> <r_lp_Energy>
21.0877

> <b_lp_Chiralities_Consistent>
1

> <s_lp_Variant>
AV-unprocessed.smi:52-3

> <Gold.Version>
5.8.1

> <Gold.Id.Protein>
6NUR|6NUR_protein|mol2

> <Gold.PLP.Fitness>
38.8733

> <Gold.PLP.PLP>
-20.0905

> <Gold.PLP.part.hbond>
-4.0000

> <Gold.PLP.part.metal>
0.0000

> <Gold.PLP.part.buried>
-4.0931

> <Gold.PLP.part.nonpolar>
-12.2059

> <Gold.PLP.part.repulsive>
0.2197

> <Gold.PLP.ligand.clash>
0.0000

> <Gold.PLP.ligand.torsion>
0.2734

> <Gold.PLP.Chemscore.Hbond>
6.4400

> <Gold.PLP.Chemscore.CHOScore>
0.0000

> <Gold.PLP.Chemscore.Metal>
0.0000

> <Gold.Chemscore.Hbonds>
donor molecule, donor type, donor heavy atom, donor atom, acceptor molecule, acceptor atom, score
      L1  H     9    27       P1  7948  2.00
      L1  H    13    24       P1  7921  1.00
      P1  H  6896  6908       L1     1  1.31
      P1  H 10752 10763       L1     3  2.00

> <Gold.PLP.Chemscore.Internal.Correction>
0.0096

> <Gold.Rescore>
     Score         DG    S(hbond)    S(metal)    S(lipo)     H(rot)  DE(clash)    DE(int)     intcor
     15.53     -15.92       3.56        0.00      31.24       1.99       0.03       0.36       ----

> <Gold.Chemscore.Fitness>
15.5312

> <Gold.Chemscore.DG>
-15.9187

> <Gold.Chemscore.ZeroCoef>
-5.4800

> <Gold.Chemscore.Hbond>
3.5576

> <Gold.Chemscore.Metal>
0.0000

> <Gold.Chemscore.Lipo>
31.2417

> <Gold.Chemscore.Internal_Hbond>
0.0000

> <Gold.Chemscore.DEClash>
0.0270

> <Gold.Chemscore.DEInternal>
0.3604

> <Gold.Chemscore.Rot>
1.9919

> <Gold.Chemscore.Internal.Correction>
   9.000000E+99

> <Gold.Chemscore.Hbonds>
donor molecule, donor type, donor heavy atom, donor atom, acceptor molecule, acceptor atom, score
      L1  H     9    27       P1  7948  0.30
      L1  H    13    24       P1  7921  0.95
      P1  H  6896  6908       L1     1  0.63
      P1  H 10752 10763       L1     3  0.95

> <Gold.Chemscore.Hbond.Weighted>
-11.8825

> <Gold.Chemscore.Metal.Weighted>
-0.0000

> <Gold.Chemscore.Lipo.Weighted>
-3.6553

> <Gold.Chemscore.Internal_Hbond.Weighted>
0.0000

> <Gold.Chemscore.DEClash.Weighted>
0.0270

> <Gold.Chemscore.DEInternal.Weighted>
0.3604

> <Gold.Chemscore.Rot.Weighted>
5.0991

> <Gold.Chemscore.Internal.Correction.Weighted>
   9.000000E+99

> <Gold.Protein.RotatedTorsions>
[ 6907 6896 6895 6894 ] final  163.67 input  -60.11 | X-H torsion
[ 7974 7965 7964 7962 ] final  -73.04 input  175.53 | X-H torsion
[ 8008 7997 7996 7995 ] final   46.11 input   59.86 | X-H torsion
[ 10167 10162 10161 10158 ] final  105.05 input  -65.29 | X-H torsion
[ 10718 10713 10712 10709 ] final  -24.85 input   66.30 | X-H torsion
[ 10763 10752 10751 10750 ] final   97.74 input  -60.55 | X-H torsion
[ 11005 11000 10999 10996 ] final -161.74 input  -57.11 | X-H torsion

> <Gold.Protein.ActiveResidues>
 VAL166  LYS551  ARG553  GLY616  TRP617  ASP618  TYR619  PRO620  LYS621  CYS622 
 ASP623  PHE694  ASN695  SER759  ASP760  ASP761  ALA762  ILE779  LEU786  VAL792 
 PHE793  MET794  SER795  GLU796  ALA797  LYS798  CYS799  TRP800  GLU811  SER814 

> <Gold.Protein.RotatedAtoms>
  151.9216  133.3587  159.3898 H   0  0  0  0  0  0  0  0  0  0  0  0  # atno 6907 bound_to 6896
  150.7036  134.4630  159.5398 H   0  0  0  0  0  0  0  0  0  0  0  0  # atno 6908 bound_to 6896
  152.2254  134.8373  160.0531 H   0  0  0  0  0  0  0  0  0  0  0  0  # atno 6909 bound_to 6896
  145.6573  140.9264  143.0953 H   0  0  0  0  0  0  0  0  0  0  0  0  # atno 7974 bound_to 7965
  155.3470  140.3411  155.4239 H   0  0  0  0  0  0  0  0  0  0  0  0  # atno 8008 bound_to 7997
  156.1784  140.1655  156.8356 H   0  0  0  0  0  0  0  0  0  0  0  0  # atno 8009 bound_to 7997
  154.5306  140.0746  156.8321 H   0  0  0  0  0  0  0  0  0  0  0  0  # atno 8010 bound_to 7997
  139.7125  144.7075  151.1004 H   0  0  0  0  0  0  0  0  0  0  0  0  # atno 10167 bound_to 10162
  156.4722  130.4527  149.6862 H   0  0  0  0  0  0  0  0  0  0  0  0  # atno 10718 bound_to 10713
  153.2805  135.4173  155.1074 H   0  0  0  0  0  0  0  0  0  0  0  0  # atno 10763 bound_to 10752
  154.8487  135.3494  154.6118 H   0  0  0  0  0  0  0  0  0  0  0  0  # atno 10764 bound_to 10752
  153.6539  135.7051  153.5257 H   0  0  0  0  0  0  0  0  0  0  0  0  # atno 10765 bound_to 10752
  140.6171  134.4789  157.5220 H   0  0  0  0  0  0  0  0  0  0  0  0  # atno 11005 bound_to 11000
  144.7101  139.8403  143.7417 LP  0  0  0  0  0  0  0  0  0  0  0  0  # atno 17320 bound_to 7965
  146.1155  139.4165  143.0261 LP  0  0  0  0  0  0  0  0  0  0  0  0  # atno 17321 bound_to 7965
  140.7736  143.5274  150.9464 LP  0  0  0  0  0  0  0  0  0  0  0  0  # atno 17342 bound_to 10162
  139.8959  143.6896  152.3138 LP  0  0  0  0  0  0  0  0  0  0  0  0  # atno 17343 bound_to 10162
  156.3607  130.7480  151.2451 LP  0  0  0  0  0  0  0  0  0  0  0  0  # atno 17370 bound_to 10713
  157.7490  131.0351  150.4348 LP  0  0  0  0  0  0  0  0  0  0  0  0  # atno 17371 bound_to 10713
  139.9168  134.8229  156.1339 LP  0  0  0  0  0  0  0  0  0  0  0  0  # atno 17394 bound_to 11000
  141.0768  133.6772  156.2253 LP  0  0  0  0  0  0  0  0  0  0  0  0  # atno 17395 bound_to 11000

$$$$
