AV-unprocessed.smi:838|AV-procd|sdf|3909|dock3
  -GOLD-   22720 1373D 1   1.00000     0.00000
 Structure written by MMmdl.
 46 47  0  0  0  0  0  0  0  0  2 V2000
  150.8230  142.0212  157.2489 C   0  0  0  0  0  0  0  0  0  0  0  0
  150.9520  140.6761  156.5304 C   0  0  0  0  0  0  0  0  0  0  0  0
  151.5071  139.7531  157.1258 O   0  0  0  0  0  0  0  0  0  0  0  0
  150.4575  140.5433  155.2761 N   0  0  0  0  0  0  0  0  0  0  0  0
  149.7113  141.5690  154.5410 C   0  0  0  0  0  0  0  0  0  0  0  0
  148.2582  141.0955  154.3543 C   0  0  0  0  0  0  0  0  0  0  0  0
  148.1974  139.7681  153.6848 N   0  3  0  0  0  0  0  0  0  0  0  0
  146.8011  139.3067  153.4841 C   0  0  0  0  0  0  0  0  0  0  0  0
  146.5577  138.7655  152.0620 C   0  0  0  0  0  0  0  0  0  0  0  0
  146.7991  137.3291  151.9883 N   0  0  0  0  0  0  0  0  0  0  0  0
  145.8395  136.3932  151.9498 C   0  0  0  0  0  0  0  0  0  0  0  0
  144.6374  136.6596  151.9701 O   0  0  0  0  0  0  0  0  0  0  0  0
  146.3658  135.1575  151.8811 N   0  0  0  0  0  0  0  0  0  0  0  0
  145.6864  133.9076  151.8260 C   0  0  0  0  0  0  0  0  0  0  0  0
  144.4837  133.7554  151.2167 N   0  0  0  0  0  0  0  0  0  0  0  0
  143.8925  132.5433  151.2050 C   0  0  0  0  0  0  0  0  0  0  0  0
  144.4635  131.4050  151.7993 C   0  0  0  0  0  0  0  0  0  0  0  0
  145.7097  131.5447  152.4336 C   0  0  0  0  0  0  0  0  0  0  0  0
  146.3356  132.8094  152.4515 C   0  0  0  0  0  0  0  0  0  0  0  0
  147.6838  132.9616  153.1375 C   0  0  0  0  0  0  0  0  0  0  0  0
  149.0660  138.7538  154.3448 C   0  0  0  0  0  0  0  0  0  0  0  0
  150.5007  139.2798  154.5344 C   0  0  0  0  0  0  0  0  0  0  0  0
  149.7751  142.2962  157.3717 H   0  0  0  0  0  0  0  0  0  0  0  0
  151.3348  142.8076  156.6936 H   0  0  0  0  0  0  0  0  0  0  0  0
  151.2715  141.9705  158.2417 H   0  0  0  0  0  0  0  0  0  0  0  0
  149.7178  142.5461  155.0216 H   0  0  0  0  0  0  0  0  0  0  0  0
  150.1817  141.7196  153.5682 H   0  0  0  0  0  0  0  0  0  0  0  0
  147.7612  141.0340  155.3240 H   0  0  0  0  0  0  0  0  0  0  0  0
  147.7107  141.8298  153.7622 H   0  0  0  0  0  0  0  0  0  0  0  0
  146.5527  138.5595  154.2395 H   0  0  0  0  0  0  0  0  0  0  0  0
  146.1206  140.1442  153.6460 H   0  0  0  0  0  0  0  0  0  0  0  0
  145.5250  138.9508  151.7653 H   0  0  0  0  0  0  0  0  0  0  0  0
  147.1872  139.2698  151.3284 H   0  0  0  0  0  0  0  0  0  0  0  0
  147.7623  137.0265  151.9710 H   0  0  0  0  0  0  0  0  0  0  0  0
  147.3732  135.1001  151.8658 H   0  0  0  0  0  0  0  0  0  0  0  0
  142.9360  132.4804  150.7075 H   0  0  0  0  0  0  0  0  0  0  0  0
  143.9586  130.4508  151.7691 H   0  0  0  0  0  0  0  0  0  0  0  0
  146.1761  130.6898  152.9006 H   0  0  0  0  0  0  0  0  0  0  0  0
  148.0341  132.0109  153.5406 H   0  0  0  0  0  0  0  0  0  0  0  0
  147.6136  133.6702  153.9633 H   0  0  0  0  0  0  0  0  0  0  0  0
  148.4332  133.3221  152.4323 H   0  0  0  0  0  0  0  0  0  0  0  0
  148.6410  138.4886  155.3144 H   0  0  0  0  0  0  0  0  0  0  0  0
  149.0981  137.8395  153.7536 H   0  0  0  0  0  0  0  0  0  0  0  0
  150.9683  139.4518  153.5637 H   0  0  0  0  0  0  0  0  0  0  0  0
  151.1095  138.5194  155.0254 H   0  0  0  0  0  0  0  0  0  0  0  0
  148.5823  139.9135  152.7625 H   0  0  0  0  0  0  0  0  0  0  0  0
  1  2  1  0  0  0  0
  1 23  1  0  0  0  0
  1 24  1  0  0  0  0
  1 25  1  0  0  0  0
  2  3  2  0  0  0  0
  2  4  1  0  0  0  0
  4 22  1  0  0  0  0
  4  5  1  0  0  0  0
  5  6  1  0  0  0  0
  5 26  1  0  0  0  0
  5 27  1  0  0  0  0
  6  7  1  0  0  0  0
  6 28  1  0  0  0  0
  6 29  1  0  0  0  0
  7  8  1  0  0  0  0
  7 21  1  0  0  0  0
  7 46  1  0  0  0  0
  8  9  1  0  0  0  0
  8 30  1  0  0  0  0
  8 31  1  0  0  0  0
  9 10  1  0  0  0  0
  9 32  1  0  0  0  0
  9 33  1  0  0  0  0
 10 11  1  0  0  0  0
 10 34  1  0  0  0  0
 11 12  2  0  0  0  0
 11 13  1  0  0  0  0
 13 14  1  0  0  0  0
 13 35  1  0  0  0  0
 14 19  1  0  0  0  0
 14 15  2  0  0  0  0
 15 16  1  0  0  0  0
 16 17  2  0  0  0  0
 16 36  1  0  0  0  0
 17 18  1  0  0  0  0
 17 37  1  0  0  0  0
 18 19  2  0  0  0  0
 18 38  1  0  0  0  0
 19 20  1  0  0  0  0
 20 39  1  0  0  0  0
 20 40  1  0  0  0  0
 20 41  1  0  0  0  0
 21 22  1  0  0  0  0
 21 42  1  0  0  0  0
 21 43  1  0  0  0  0
 22 44  1  0  0  0  0
 22 45  1  0  0  0  0
M  CHG  1   7   1
M  END
> <s_m_source_file>
AV-unprocessed.smi

> <i_m_source_file_index>
838

> <i_lp_mmshare_version>
43012

> <i_f3d_flags>
0

> <s_epik_input>
W0NIM11DKD1PKU4xW0NIMl1bQ0gyXU4oW0NIMl1bQ0gyXTEpW0NIMl1bQ0gyXVtOSF1DKD1PKVtOSF1jMm5bY0hdW2NIXVtjSF1jMltDSDNd

> <s_epik_cmdline>
J2VwaWtfcHl0aG9uJywgJy1waCcsICc3LjAnLCAnLXRuJywgJzgnLCAnLW1hJywgJzIwMCcsICctbWV0YWxfYmluZGluZycsICctaW1hZScsICc8aW5maWxlLm1hZT4nLCAnLW9tYWUnLCAnPG91dGZpbGUubWFlPic=

> <r_epik_Ionization_Penalty>
0.630076

> <r_epik_Ionization_Penalty_Charging>
0.630034

> <r_epik_Ionization_Penalty_Neutral>
4.2229e-05

> <r_epik_State_Penalty>
0.646805

> <r_epik_Charging_Adjusted_Penalty>
1.27684

> <i_epik_Tot_Q>
1

> <i_epik_Tot_abs_Q>
1

> <r_epik_Metal_State_Penalty>
0.64681

> <b_epik_Metal_Only>
0

> <s_lp_Force_Field>
OPLS_2005

> <r_lp_Energy>
41.2384

> <b_lp_Chiralities_Consistent>
1

> <s_lp_Variant>
AV-unprocessed.smi:838-2

> <Gold.Version>
5.8.1

> <Gold.Id.Protein>
6NUR|6NUR_protein|mol2

> <Gold.PLP.Fitness>
49.9525

> <Gold.PLP.PLP>
-40.4590

> <Gold.PLP.part.hbond>
-2.9264

> <Gold.PLP.part.metal>
0.0000

> <Gold.PLP.part.buried>
-3.0057

> <Gold.PLP.part.nonpolar>
-37.0466

> <Gold.PLP.part.repulsive>
2.8323

> <Gold.PLP.ligand.clash>
0.0000

> <Gold.PLP.ligand.torsion>
1.1186

> <Gold.PLP.Chemscore.Hbond>
2.8960

> <Gold.PLP.Chemscore.CHOScore>
0.9932

> <Gold.PLP.Chemscore.Metal>
0.0000

> <Gold.Chemscore.Hbonds>
donor molecule, donor type, donor heavy atom, donor atom, acceptor molecule, acceptor atom, score
      L1  H     7    46       P1  7957  1.00
      L1  H    10    34       P1  7948  0.71
      L1  H    13    35       P1  7948  0.85

> <Gold.PLP.Chemscore.Internal.Correction>
0.0631

> <Gold.Rescore>
     Score         DG    S(hbond)    S(metal)    S(lipo)     H(rot)  DE(clash)    DE(int)     intcor
     17.13     -20.21       2.52        0.00      88.59       1.58       1.64       1.44       ----

> <Gold.Chemscore.Fitness>
17.1345

> <Gold.Chemscore.DG>
-20.2061

> <Gold.Chemscore.ZeroCoef>
-5.4800

> <Gold.Chemscore.Hbond>
2.5157

> <Gold.Chemscore.Metal>
0.0000

> <Gold.Chemscore.Lipo>
88.5930

> <Gold.Chemscore.Internal_Hbond>
0.0000

> <Gold.Chemscore.DEClash>
1.6352

> <Gold.Chemscore.DEInternal>
1.4363

> <Gold.Chemscore.Rot>
1.5788

> <Gold.Chemscore.Internal.Correction>
   9.000000E+99

> <Gold.Chemscore.Hbonds>
donor molecule, donor type, donor heavy atom, donor atom, acceptor molecule, acceptor atom, score
      L1  H     7    46       P1  7957  1.00
      L1  H    10    34       P1  7948  0.71
      L1  H    13    35       P1  7948  0.77

> <Gold.Chemscore.Hbond.Weighted>
-8.4023

> <Gold.Chemscore.Metal.Weighted>
-0.0000

> <Gold.Chemscore.Lipo.Weighted>
-10.3654

> <Gold.Chemscore.Internal_Hbond.Weighted>
0.0000

> <Gold.Chemscore.DEClash.Weighted>
1.6352

> <Gold.Chemscore.DEInternal.Weighted>
1.4363

> <Gold.Chemscore.Rot.Weighted>
4.0416

> <Gold.Chemscore.Internal.Correction.Weighted>
   9.000000E+99

> <Gold.Protein.RotatedTorsions>
[ 6907 6896 6895 6894 ] final  -93.34 input  -60.11 | X-H torsion
[ 7974 7965 7964 7962 ] final  142.28 input  175.53 | X-H torsion
[ 8008 7997 7996 7995 ] final  129.77 input   59.86 | X-H torsion
[ 10167 10162 10161 10158 ] final  -45.26 input  -65.29 | X-H torsion
[ 10718 10713 10712 10709 ] final   -1.13 input   66.30 | X-H torsion
[ 10763 10752 10751 10750 ] final   83.71 input  -60.55 | X-H torsion
[ 11005 11000 10999 10996 ] final   86.25 input  -57.11 | X-H torsion

> <Gold.Protein.ActiveResidues>
 VAL166  LYS551  ARG553  GLY616  TRP617  ASP618  TYR619  PRO620  LYS621  CYS622 
 ASP623  PHE694  ASN695  SER759  ASP760  ASP761  ALA762  ILE779  LEU786  VAL792 
 PHE793  MET794  SER795  GLU796  ALA797  LYS798  CYS799  TRP800  GLU811  SER814 

> <Gold.Protein.RotatedAtoms>
  150.6921  134.1983  159.4311 H   0  0  0  0  0  0  0  0  0  0  0  0  # atno 6907 bound_to 6896
  151.9950  134.9956  160.0572 H   0  0  0  0  0  0  0  0  0  0  0  0  # atno 6908 bound_to 6896
  152.1632  133.4560  159.4908 H   0  0  0  0  0  0  0  0  0  0  0  0  # atno 6909 bound_to 6896
  144.9022  139.5408  143.5748 H   0  0  0  0  0  0  0  0  0  0  0  0  # atno 7974 bound_to 7965
  156.2942  140.2612  156.2653 H   0  0  0  0  0  0  0  0  0  0  0  0  # atno 8008 bound_to 7997
  154.9748  140.0390  157.2269 H   0  0  0  0  0  0  0  0  0  0  0  0  # atno 8009 bound_to 7997
  154.7825  140.2797  155.6057 H   0  0  0  0  0  0  0  0  0  0  0  0  # atno 8010 bound_to 7997
  140.6865  143.2888  151.3613 H   0  0  0  0  0  0  0  0  0  0  0  0  # atno 10167 bound_to 10162
  156.8101  130.5422  149.5710 H   0  0  0  0  0  0  0  0  0  0  0  0  # atno 10718 bound_to 10713
  153.1315  135.4681  154.9357 H   0  0  0  0  0  0  0  0  0  0  0  0  # atno 10763 bound_to 10752
  154.7668  135.3147  154.8271 H   0  0  0  0  0  0  0  0  0  0  0  0  # atno 10764 bound_to 10752
  153.8813  135.6894  153.4821 H   0  0  0  0  0  0  0  0  0  0  0  0  # atno 10765 bound_to 10752
  139.8949  134.8342  156.2694 H   0  0  0  0  0  0  0  0  0  0  0  0  # atno 11005 bound_to 11000
  146.3114  139.7761  142.9017 LP  0  0  0  0  0  0  0  0  0  0  0  0  # atno 17320 bound_to 7965
  145.3597  141.0323  143.3291 LP  0  0  0  0  0  0  0  0  0  0  0  0  # atno 17321 bound_to 7965
  139.6228  144.0873  152.2407 LP  0  0  0  0  0  0  0  0  0  0  0  0  # atno 17342 bound_to 10162
  140.0323  144.6071  150.7478 LP  0  0  0  0  0  0  0  0  0  0  0  0  # atno 17343 bound_to 10162
  156.1049  130.5997  150.9955 LP  0  0  0  0  0  0  0  0  0  0  0  0  # atno 17370 bound_to 10713
  157.6510  131.0897  150.8051 LP  0  0  0  0  0  0  0  0  0  0  0  0  # atno 17371 bound_to 10713
  141.0110  133.7095  156.1112 LP  0  0  0  0  0  0  0  0  0  0  0  0  # atno 17394 bound_to 11000
  140.7367  134.4195  157.5560 LP  0  0  0  0  0  0  0  0  0  0  0  0  # atno 17395 bound_to 11000

$$$$
