AV-unprocessed.smi:113|AV-procd|sdf|1091|dock3
  -GOLD-   2262018193D 1   1.00000     0.00000
 Structure written by MMmdl.
 52 55  0  0  0  0  0  0  0  0  1 V2000
  152.7775  138.6125  154.4241 C   0  0  0  0  0  0  0  0  0  0  0  0
  151.2858  138.7283  154.6595 C   0  0  0  0  0  0  0  0  0  0  0  0
  150.5757  137.6891  155.2866 C   0  0  0  0  0  0  0  0  0  0  0  0
  149.1832  137.8315  155.4845 C   0  0  0  0  0  0  0  0  0  0  0  0
  148.3617  136.7285  156.1612 C   0  0  0  0  0  0  0  0  0  0  0  0
  148.2738  135.4521  155.4656 N   0  0  0  0  0  0  0  0  0  0  0  0
  149.4054  134.6015  155.4965 C   0  0  0  0  0  0  0  0  0  0  0  0
  150.4389  134.9237  156.0863 O   0  0  0  0  0  0  0  0  0  0  0  0
  149.2542  133.3388  154.7697 C   0  0  0  0  0  0  0  0  0  0  0  0
  150.4206  132.3629  154.7796 C   0  0  0  0  0  0  0  0  0  0  0  0
  148.0982  133.0718  154.1156 C   0  0  0  0  0  0  0  0  0  0  0  0
  147.0132  133.9341  154.0805 N   0  0  0  0  0  0  0  0  0  0  0  0
  145.7394  133.6032  153.3243 C   0  0  2  0  0  0  0  0  0  0  0  0
  145.8469  132.2292  152.6632 C   0  0  0  0  0  0  0  0  0  0  0  0
  146.4547  132.5865  151.3235 C   0  0  1  0  0  0  0  0  0  0  0  0
  146.2063  131.5837  150.3585 O   0  0  0  0  0  0  0  0  0  0  0  0
  145.8237  133.9578  151.0175 C   0  0  1  0  0  0  0  0  0  0  0  0
  144.4951  133.9269  150.2351 C   0  0  0  0  0  0  0  0  0  0  0  0
  144.6526  133.2502  149.0052 O   0  0  0  0  0  0  0  0  0  0  0  0
  145.5371  134.5304  152.2974 O   0  0  0  0  0  0  0  0  0  0  0  0
  147.0799  135.1643  154.7674 C   0  0  0  0  0  0  0  0  0  0  0  0
  146.1314  135.9526  154.7462 O   0  0  0  0  0  0  0  0  0  0  0  0
  148.5669  139.0307  155.0353 C   0  0  0  0  0  0  0  0  0  0  0  0
  147.1779  139.2542  155.1973 C   0  0  0  0  0  0  0  0  0  0  0  0
  146.5873  140.4477  154.7453 C   0  0  0  0  0  0  0  0  0  0  0  0
  147.3776  141.4298  154.1259 C   0  0  0  0  0  0  0  0  0  0  0  0
  148.7579  141.2156  153.9613 C   0  0  0  0  0  0  0  0  0  0  0  0
  149.3727  140.0263  154.4081 C   0  0  0  0  0  0  0  0  0  0  0  0
  150.7022  139.8640  154.2298 N   0  0  0  0  0  0  0  0  0  0  0  0
  153.2345  137.9380  155.1486 H   0  0  0  0  0  0  0  0  0  0  0  0
  153.2642  139.5844  154.5155 H   0  0  0  0  0  0  0  0  0  0  0  0
  152.9706  138.2237  153.4241 H   0  0  0  0  0  0  0  0  0  0  0  0
  151.1050  136.8032  155.6039 H   0  0  0  0  0  0  0  0  0  0  0  0
  148.7515  136.5292  157.1606 H   0  0  0  0  0  0  0  0  0  0  0  0
  147.3410  137.0729  156.3347 H   0  0  0  0  0  0  0  0  0  0  0  0
  150.1970  131.4555  154.2179 H   0  0  0  0  0  0  0  0  0  0  0  0
  150.6639  132.0699  155.8015 H   0  0  0  0  0  0  0  0  0  0  0  0
  151.3044  132.8205  154.3339 H   0  0  0  0  0  0  0  0  0  0  0  0
  148.0342  132.1275  153.5973 H   0  0  0  0  0  0  0  0  0  0  0  0
  144.9323  133.6848  154.0540 H   0  0  0  0  0  0  0  0  0  0  0  0
  146.4398  131.5259  153.2488 H   0  0  0  0  0  0  0  0  0  0  0  0
  144.8400  131.8273  152.5425 H   0  0  0  0  0  0  0  0  0  0  0  0
  147.5332  132.7019  151.4375 H   0  0  0  0  0  0  0  0  0  0  0  0
  147.0309  131.1927  150.1121 H   0  0  0  0  0  0  0  0  0  0  0  0
  146.5356  134.6012  150.4991 H   0  0  0  0  0  0  0  0  0  0  0  0
  143.6966  133.4679  150.8186 H   0  0  0  0  0  0  0  0  0  0  0  0
  144.1766  134.9442  150.0062 H   0  0  0  0  0  0  0  0  0  0  0  0
  144.9074  133.8795  148.3475 H   0  0  0  0  0  0  0  0  0  0  0  0
  146.5419  138.5206  155.6684 H   0  0  0  0  0  0  0  0  0  0  0  0
  145.5270  140.6089  154.8741 H   0  0  0  0  0  0  0  0  0  0  0  0
  146.9265  142.3470  153.7772 H   0  0  0  0  0  0  0  0  0  0  0  0
  149.3553  141.9785  153.4836 H   0  0  0  0  0  0  0  0  0  0  0  0
  1  2  1  0  0  0  0
  1 30  1  0  0  0  0
  1 31  1  0  0  0  0
  1 32  1  0  0  0  0
  2 29  1  0  0  0  0
  2  3  2  0  0  0  0
  3  4  1  0  0  0  0
  3 33  1  0  0  0  0
  4  5  1  0  0  0  0
  4 23  2  0  0  0  0
  5  6  1  0  0  0  0
  5 34  1  0  0  0  0
  5 35  1  0  0  0  0
  6 21  1  0  0  0  0
  6  7  1  0  0  0  0
  7  8  2  0  0  0  0
  7  9  1  0  0  0  0
  9 10  1  0  0  0  0
  9 11  2  0  0  0  0
 10 36  1  0  0  0  0
 10 37  1  0  0  0  0
 10 38  1  0  0  0  0
 11 12  1  0  0  0  0
 11 39  1  0  0  0  0
 12 13  1  0  0  0  0
 12 21  1  0  0  0  0
 13 20  1  0  0  0  0
 13 14  1  0  0  0  0
 13 40  1  0  0  0  0
 14 15  1  0  0  0  0
 14 41  1  0  0  0  0
 14 42  1  0  0  0  0
 15 16  1  0  0  0  0
 15 17  1  0  0  0  0
 15 43  1  0  0  0  0
 16 44  1  0  0  0  0
 17 18  1  0  0  0  0
 17 20  1  0  0  0  0
 17 45  1  0  0  0  0
 18 19  1  0  0  0  0
 18 46  1  0  0  0  0
 18 47  1  0  0  0  0
 19 48  1  0  0  0  0
 21 22  2  0  0  0  0
 23 28  1  0  0  0  0
 23 24  1  0  0  0  0
 24 25  2  0  0  0  0
 24 49  1  0  0  0  0
 25 26  1  0  0  0  0
 25 50  1  0  0  0  0
 26 27  2  0  0  0  0
 26 51  1  0  0  0  0
 27 28  1  0  0  0  0
 27 52  1  0  0  0  0
 28 29  2  0  0  0  0
M  END
> <s_m_source_file>
AV-unprocessed.smi

> <i_m_source_file_index>
113

> <i_lp_mmshare_version>
43012

> <i_f3d_flags>
0

> <s_epik_input>
W2NIXTFbY0hdW2NIXVtjSF1jKGMxMiluYyhbQ0gzXSlbY0hdYzJbQ0gyXW4zYyg9TyljKFtDSDNdKVtjSF1uKGMzPU8pW0NAQEhdNFtDSDJdW0NAQEhdKFtPSF0pW0NASF0oTzQpW0NIMl1bT0hd

> <s_epik_cmdline>
J2VwaWtfcHl0aG9uJywgJy1waCcsICc3LjAnLCAnLXRuJywgJzgnLCAnLW1hJywgJzIwMCcsICctbWV0YWxfYmluZGluZycsICctaW1hZScsICc8aW5maWxlLm1hZT4nLCAnLW9tYWUnLCAnPG91dGZpbGUubWFlPic=

> <r_lp_tautomer_probability>
1

> <r_epik_Ionization_Penalty>
0.214728

> <r_epik_Ionization_Penalty_Charging>
3.04883e-08

> <r_epik_Ionization_Penalty_Neutral>
0.214728

> <r_epik_State_Penalty>
0.204913

> <r_epik_Charging_Adjusted_Penalty>
0.204913

> <i_epik_Tot_Q>
0

> <i_epik_Tot_abs_Q>
0

> <r_epik_Metal_State_Penalty>
0.000244761

> <b_epik_Metal_Only>
0

> <s_epik_Chemistry_Notes>
This compound contains an acetal/aminal-like group ( X-CH(R)-Y where X, Y are N, S, or O) that may be acid/base labile, releasing an aldehyde.

> <s_lp_Force_Field>
OPLS_2005

> <r_lp_Energy>
41.1863

> <b_lp_Chiralities_Consistent>
1

> <s_lp_Variant>
AV-unprocessed.smi:113-1

> <Gold.Version>
5.8.1

> <Gold.Id.Protein>
6NUR|6NUR_protein|mol2

> <Gold.PLP.Fitness>
48.1625

> <Gold.PLP.PLP>
-39.6640

> <Gold.PLP.part.hbond>
-2.8074

> <Gold.PLP.part.metal>
0.0000

> <Gold.PLP.part.buried>
-5.6134

> <Gold.PLP.part.nonpolar>
-30.2707

> <Gold.PLP.part.repulsive>
0.2774

> <Gold.PLP.ligand.clash>
0.0000

> <Gold.PLP.ligand.torsion>
0.2578

> <Gold.PLP.Chemscore.Hbond>
3.0000

> <Gold.PLP.Chemscore.CHOScore>
0.0000

> <Gold.PLP.Chemscore.Metal>
0.0000

> <Gold.Chemscore.Hbonds>
donor molecule, donor type, donor heavy atom, donor atom, acceptor molecule, acceptor atom, score
      L1  H    16    44       P1 10747  1.00
      L1  H    19    48       P1  7921  0.98
      P1  H  7989  7998       L1    29  1.00

> <Gold.PLP.Chemscore.Internal.Correction>
0.0141

> <Gold.Rescore>
     Score         DG    S(hbond)    S(metal)    S(lipo)     H(rot)  DE(clash)    DE(int)     intcor
     15.74     -18.48       2.88        0.00      93.25       2.95       0.00       2.74       ----

> <Gold.Chemscore.Fitness>
15.7390

> <Gold.Chemscore.DG>
-18.4763

> <Gold.Chemscore.ZeroCoef>
-5.4800

> <Gold.Chemscore.Hbond>
2.8833

> <Gold.Chemscore.Metal>
0.0000

> <Gold.Chemscore.Lipo>
93.2487

> <Gold.Chemscore.Internal_Hbond>
0.0000

> <Gold.Chemscore.DEClash>
0.0021

> <Gold.Chemscore.DEInternal>
2.7352

> <Gold.Chemscore.Rot>
2.9469

> <Gold.Chemscore.Internal.Correction>
   9.000000E+99

> <Gold.Chemscore.Hbonds>
donor molecule, donor type, donor heavy atom, donor atom, acceptor molecule, acceptor atom, score
      L1  H    16    44       P1 10747  0.97
      L1  H    19    48       P1  7921  0.92
      P1  H  7989  7998       L1    29  0.88

> <Gold.Chemscore.Hbond.Weighted>
-9.6302

> <Gold.Chemscore.Metal.Weighted>
-0.0000

> <Gold.Chemscore.Lipo.Weighted>
-10.9101

> <Gold.Chemscore.Internal_Hbond.Weighted>
0.0000

> <Gold.Chemscore.DEClash.Weighted>
0.0021

> <Gold.Chemscore.DEInternal.Weighted>
2.7352

> <Gold.Chemscore.Rot.Weighted>
7.5439

> <Gold.Chemscore.Internal.Correction.Weighted>
   9.000000E+99

> <Gold.Protein.RotatedTorsions>
[ 6907 6896 6895 6894 ] final -158.72 input  -60.11 | X-H torsion
[ 7974 7965 7964 7962 ] final  129.67 input  175.53 | X-H torsion
[ 8008 7997 7996 7995 ] final   42.56 input   59.86 | X-H torsion
[ 10167 10162 10161 10158 ] final   79.67 input  -65.29 | X-H torsion
[ 10718 10713 10712 10709 ] final  -44.83 input   66.30 | X-H torsion
[ 10763 10752 10751 10750 ] final  -51.67 input  -60.55 | X-H torsion
[ 11005 11000 10999 10996 ] final -168.99 input  -57.11 | X-H torsion

> <Gold.Protein.ActiveResidues>
 VAL166  LYS551  ARG553  GLY616  TRP617  ASP618  TYR619  PRO620  LYS621  CYS622 
 ASP623  PHE694  ASN695  SER759  ASP760  ASP761  ALA762  ILE779  LEU786  VAL792 
 PHE793  MET794  SER795  GLU796  ALA797  LYS798  CYS799  TRP800  GLU811  SER814 

> <Gold.Protein.RotatedAtoms>
  151.3224  133.4034  159.2655 H   0  0  0  0  0  0  0  0  0  0  0  0  # atno 6907 bound_to 6896
  151.0023  134.9332  159.7971 H   0  0  0  0  0  0  0  0  0  0  0  0  # atno 6908 bound_to 6896
  152.5278  134.3189  159.9193 H   0  0  0  0  0  0  0  0  0  0  0  0  # atno 6909 bound_to 6896
  145.0262  139.4087  143.5173 H   0  0  0  0  0  0  0  0  0  0  0  0  # atno 7974 bound_to 7965
  155.2881  140.3377  155.4254 H   0  0  0  0  0  0  0  0  0  0  0  0  # atno 8008 bound_to 7997
  156.2058  140.1750  156.7842 H   0  0  0  0  0  0  0  0  0  0  0  0  # atno 8009 bound_to 7997
  154.5619  140.0686  156.8817 H   0  0  0  0  0  0  0  0  0  0  0  0  # atno 8010 bound_to 7997
  139.9579  144.5981  150.8099 H   0  0  0  0  0  0  0  0  0  0  0  0  # atno 10167 bound_to 10162
  156.2345  130.4175  149.8834 H   0  0  0  0  0  0  0  0  0  0  0  0  # atno 10718 bound_to 10713
  154.1303  135.6521  153.4921 H   0  0  0  0  0  0  0  0  0  0  0  0  # atno 10763 bound_to 10752
  153.0197  135.5291  154.7007 H   0  0  0  0  0  0  0  0  0  0  0  0  # atno 10764 bound_to 10752
  154.6240  135.2968  155.0263 H   0  0  0  0  0  0  0  0  0  0  0  0  # atno 10765 bound_to 10752
  140.5358  134.5571  157.5087 H   0  0  0  0  0  0  0  0  0  0  0  0  # atno 11005 bound_to 11000
  146.3492  139.9787  142.8698 LP  0  0  0  0  0  0  0  0  0  0  0  0  # atno 17320 bound_to 7965
  145.1831  140.9776  143.4255 LP  0  0  0  0  0  0  0  0  0  0  0  0  # atno 17321 bound_to 7965
  140.7562  143.3062  151.2956 LP  0  0  0  0  0  0  0  0  0  0  0  0  # atno 17342 bound_to 10162
  139.6577  144.0246  152.2671 LP  0  0  0  0  0  0  0  0  0  0  0  0  # atno 17343 bound_to 10162
  156.6437  130.8715  151.3518 LP  0  0  0  0  0  0  0  0  0  0  0  0  # atno 17370 bound_to 10713
  157.7148  130.9484  150.1216 LP  0  0  0  0  0  0  0  0  0  0  0  0  # atno 17371 bound_to 10713
  139.9530  134.7584  156.0405 LP  0  0  0  0  0  0  0  0  0  0  0  0  # atno 17394 bound_to 11000
  141.1255  133.6600  156.3327 LP  0  0  0  0  0  0  0  0  0  0  0  0  # atno 17395 bound_to 11000

$$$$
