AV-unprocessed.smi:2450|AV-procd|sdf|9665|dock10
  -GOLD-   2272013303D 1   1.00000     0.00000
 Structure written by MMmdl.
 41 42  0  0  0  0  0  0  0  0  1 V2000
  152.1658  145.3589  159.1855 C   0  0  0  0  0  0  0  0  0  0  0  0
  151.6533  144.4303  160.2962 C   0  0  0  0  0  0  0  0  0  0  0  0
  151.9466  142.9402  160.0405 C   0  0  2  0  0  0  0  0  0  0  0  0
  153.4315  142.6092  160.2539 C   0  0  0  0  0  0  0  0  0  0  0  0
  151.5486  142.5734  158.6832 N   0  0  0  0  0  0  0  0  0  0  0  0
  151.6820  141.3589  158.1318 C   0  0  0  0  0  0  0  0  0  0  0  0
  152.1655  140.3913  158.7196 O   0  0  0  0  0  0  0  0  0  0  0  0
  151.2067  141.3470  156.8752 N   0  0  0  0  0  0  0  0  0  0  0  0
  151.0985  140.2455  155.9796 C   0  0  0  0  0  0  0  0  0  0  0  0
  152.0551  139.2008  155.9647 C   0  0  0  0  0  0  0  0  0  0  0  0
  151.9387  138.1719  155.0143 C   0  0  0  0  0  0  0  0  0  0  0  0
  150.8765  138.2314  154.0974 C   0  0  0  0  0  0  0  0  0  0  0  0
  149.9663  139.2254  154.0886 N   0  0  0  0  0  0  0  0  0  0  0  0
  150.0564  140.2175  155.0085 C   0  0  0  0  0  0  0  0  0  0  0  0
  149.0663  141.2258  154.9582 N   0  0  0  0  0  0  0  0  0  0  0  0
  148.2162  141.3702  153.7814 C   0  0  0  0  0  0  0  0  0  0  0  0
  147.0677  142.2673  154.2329 C   0  0  0  0  0  0  0  0  0  0  0  0
  146.8592  141.8256  155.6781 C   0  0  0  0  0  0  0  0  0  0  0  0
  148.2705  141.4696  156.1580 C   0  0  0  0  0  0  0  0  0  0  0  0
  151.8955  146.3943  159.3926 H   0  0  0  0  0  0  0  0  0  0  0  0
  151.7359  145.0909  158.2199 H   0  0  0  0  0  0  0  0  0  0  0  0
  153.2512  145.3145  159.0930 H   0  0  0  0  0  0  0  0  0  0  0  0
  152.0876  144.7348  161.2493 H   0  0  0  0  0  0  0  0  0  0  0  0
  150.5763  144.5706  160.3960 H   0  0  0  0  0  0  0  0  0  0  0  0
  151.3642  142.3605  160.7593 H   0  0  0  0  0  0  0  0  0  0  0  0
  153.7467  142.8574  161.2676 H   0  0  0  0  0  0  0  0  0  0  0  0
  154.0658  143.1651  159.5625 H   0  0  0  0  0  0  0  0  0  0  0  0
  153.6240  141.5467  160.1022 H   0  0  0  0  0  0  0  0  0  0  0  0
  151.1358  143.3038  158.1217 H   0  0  0  0  0  0  0  0  0  0  0  0
  150.7676  142.2000  156.5605 H   0  0  0  0  0  0  0  0  0  0  0  0
  152.8893  139.1821  156.6489 H   0  0  0  0  0  0  0  0  0  0  0  0
  152.6545  137.3641  154.9817 H   0  0  0  0  0  0  0  0  0  0  0  0
  150.7574  137.4644  153.3468 H   0  0  0  0  0  0  0  0  0  0  0  0
  148.7645  141.8034  152.9444 H   0  0  0  0  0  0  0  0  0  0  0  0
  147.8193  140.4034  153.4689 H   0  0  0  0  0  0  0  0  0  0  0  0
  147.3759  143.3133  154.2031 H   0  0  0  0  0  0  0  0  0  0  0  0
  146.1745  142.1570  153.6178 H   0  0  0  0  0  0  0  0  0  0  0  0
  146.3832  142.5900  156.2927 H   0  0  0  0  0  0  0  0  0  0  0  0
  146.2291  140.9357  155.7005 H   0  0  0  0  0  0  0  0  0  0  0  0
  148.2582  140.6065  156.8253 H   0  0  0  0  0  0  0  0  0  0  0  0
  148.6998  142.3117  156.7013 H   0  0  0  0  0  0  0  0  0  0  0  0
  1  2  1  0  0  0  0
  1 20  1  0  0  0  0
  1 21  1  0  0  0  0
  1 22  1  0  0  0  0
  2  3  1  0  0  0  0
  2 23  1  0  0  0  0
  2 24  1  0  0  0  0
  3  4  1  0  0  0  0
  3  5  1  0  0  0  0
  3 25  1  0  0  0  0
  4 26  1  0  0  0  0
  4 27  1  0  0  0  0
  4 28  1  0  0  0  0
  5  6  1  0  0  0  0
  5 29  1  0  0  0  0
  6  7  2  0  0  0  0
  6  8  1  0  0  0  0
  8  9  1  0  0  0  0
  8 30  1  0  0  0  0
  9 14  1  0  0  0  0
  9 10  2  0  0  0  0
 10 11  1  0  0  0  0
 10 31  1  0  0  0  0
 11 12  2  0  0  0  0
 11 32  1  0  0  0  0
 12 13  1  0  0  0  0
 12 33  1  0  0  0  0
 13 14  2  0  0  0  0
 14 15  1  0  0  0  0
 15 19  1  0  0  0  0
 15 16  1  0  0  0  0
 16 17  1  0  0  0  0
 16 34  1  0  0  0  0
 16 35  1  0  0  0  0
 17 18  1  0  0  0  0
 17 36  1  0  0  0  0
 17 37  1  0  0  0  0
 18 19  1  0  0  0  0
 18 38  1  0  0  0  0
 18 39  1  0  0  0  0
 19 40  1  0  0  0  0
 19 41  1  0  0  0  0
M  END
> <s_m_source_file>
AV-unprocessed.smi

> <i_m_source_file_index>
2450

> <i_lp_mmshare_version>
43012

> <i_f3d_flags>
0

> <s_epik_input>
W0NIM11bQ0gyXVtDQEhdKFtDSDNdKVtOSF1DKD1PKVtOSF1jMVtjSF1bY0hdW2NIXW5jMU4yW0NIMl1bQ0gyXVtDSDJdW0NIMl0y

> <s_epik_cmdline>
J2VwaWtfcHl0aG9uJywgJy1waCcsICc3LjAnLCAnLXRuJywgJzgnLCAnLW1hJywgJzIwMCcsICctbWV0YWxfYmluZGluZycsICctaW1hZScsICc8aW5maWxlLm1hZT4nLCAnLW9tYWUnLCAnPG91dGZpbGUubWFlPic=

> <r_lp_tautomer_probability>
1

> <r_epik_Ionization_Penalty>
0.103391

> <r_epik_Ionization_Penalty_Charging>
0

> <r_epik_Ionization_Penalty_Neutral>
0.103391

> <r_epik_State_Penalty>
0.0927616

> <r_epik_Charging_Adjusted_Penalty>
0.0927616

> <i_epik_Tot_Q>
0

> <i_epik_Tot_abs_Q>
0

> <r_epik_Metal_State_Penalty>
0.0789158

> <b_epik_Metal_Only>
0

> <s_lp_Force_Field>
OPLS_2005

> <r_lp_Energy>
32.2235

> <b_lp_Chiralities_Consistent>
1

> <s_lp_Variant>
AV-unprocessed.smi:2450-1

> <Gold.Version>
5.8.1

> <Gold.Id.Protein>
6NUR|6NUR_protein|mol2

> <Gold.PLP.Fitness>
43.8652

> <Gold.PLP.PLP>
-41.1720

> <Gold.PLP.part.hbond>
0.0000

> <Gold.PLP.part.metal>
0.0000

> <Gold.PLP.part.buried>
-6.0189

> <Gold.PLP.part.nonpolar>
-35.7027

> <Gold.PLP.part.repulsive>
0.9043

> <Gold.PLP.ligand.clash>
0.0000

> <Gold.PLP.ligand.torsion>
0.5049

> <Gold.PLP.Chemscore.Hbond>
0.0000

> <Gold.PLP.Chemscore.CHOScore>
1.1229

> <Gold.PLP.Chemscore.Metal>
0.0000

> <Gold.Chemscore.Hbonds>
donor molecule, donor type, donor heavy atom, donor atom, acceptor molecule, acceptor atom, score
      L1  C    12    33       P1  7948  0.33
      L1  C    12    33       P1  7949  0.79

> <Gold.PLP.Chemscore.Internal.Correction>
0.3342

> <Gold.Rescore>
     Score         DG    S(hbond)    S(metal)    S(lipo)     H(rot)  DE(clash)    DE(int)     intcor
     11.99     -13.51       0.00        0.00      97.47       1.32       0.02       1.50       ----

> <Gold.Chemscore.Fitness>
11.9891

> <Gold.Chemscore.DG>
-13.5139

> <Gold.Chemscore.ZeroCoef>
-5.4800

> <Gold.Chemscore.Hbond>
0.0000

> <Gold.Chemscore.Metal>
0.0000

> <Gold.Chemscore.Lipo>
97.4664

> <Gold.Chemscore.Internal_Hbond>
0.0000

> <Gold.Chemscore.DEClash>
0.0224

> <Gold.Chemscore.DEInternal>
1.5025

> <Gold.Chemscore.Rot>
1.3163

> <Gold.Chemscore.Internal.Correction>
   9.000000E+99

> <Gold.Chemscore.Hbond.Weighted>
-0.0000

> <Gold.Chemscore.Metal.Weighted>
-0.0000

> <Gold.Chemscore.Lipo.Weighted>
-11.4036

> <Gold.Chemscore.Internal_Hbond.Weighted>
0.0000

> <Gold.Chemscore.DEClash.Weighted>
0.0224

> <Gold.Chemscore.DEInternal.Weighted>
1.5025

> <Gold.Chemscore.Rot.Weighted>
3.3696

> <Gold.Chemscore.Internal.Correction.Weighted>
   9.000000E+99

> <Gold.Protein.RotatedTorsions>
[ 6907 6896 6895 6894 ] final -158.86 input  -60.11 | X-H torsion
[ 7974 7965 7964 7962 ] final -120.42 input  175.53 | X-H torsion
[ 8008 7997 7996 7995 ] final   84.42 input   59.86 | X-H torsion
[ 10167 10162 10161 10158 ] final   11.04 input  -65.29 | X-H torsion
[ 10718 10713 10712 10709 ] final  158.23 input   66.30 | X-H torsion
[ 10763 10752 10751 10750 ] final  -29.54 input  -60.55 | X-H torsion
[ 11005 11000 10999 10996 ] final -123.78 input  -57.11 | X-H torsion

> <Gold.Protein.ActiveResidues>
 VAL166  LYS551  ARG553  GLY616  TRP617  ASP618  TYR619  PRO620  LYS621  CYS622 
 ASP623  PHE694  ASN695  SER759  ASP760  ASP761  ALA762  ILE779  LEU786  VAL792 
 PHE793  MET794  SER795  GLU796  ALA797  LYS798  CYS799  TRP800  GLU811  SER814 

> <Gold.Protein.RotatedAtoms>
  151.3247  133.4025  159.2657 H   0  0  0  0  0  0  0  0  0  0  0  0  # atno 6907 bound_to 6896
  151.0005  134.9319  159.7961 H   0  0  0  0  0  0  0  0  0  0  0  0  # atno 6908 bound_to 6896
  152.5273  134.3212  159.9201 H   0  0  0  0  0  0  0  0  0  0  0  0  # atno 6909 bound_to 6896
  145.0516  140.8223  143.4206 H   0  0  0  0  0  0  0  0  0  0  0  0  # atno 7974 bound_to 7965
  155.9368  140.3411  155.6294 H   0  0  0  0  0  0  0  0  0  0  0  0  # atno 8008 bound_to 7997
  155.7089  140.0769  157.2398 H   0  0  0  0  0  0  0  0  0  0  0  0  # atno 8009 bound_to 7997
  154.4095  140.1626  156.2262 H   0  0  0  0  0  0  0  0  0  0  0  0  # atno 8010 bound_to 7997
  140.6157  143.8313  150.7115 H   0  0  0  0  0  0  0  0  0  0  0  0  # atno 10167 bound_to 10162
  157.1807  131.0631  151.2133 H   0  0  0  0  0  0  0  0  0  0  0  0  # atno 10718 bound_to 10713
  153.7662  135.6915  153.4915 H   0  0  0  0  0  0  0  0  0  0  0  0  # atno 10763 bound_to 10752
  153.1905  135.4473  155.0142 H   0  0  0  0  0  0  0  0  0  0  0  0  # atno 10764 bound_to 10752
  154.8135  135.3388  154.7174 H   0  0  0  0  0  0  0  0  0  0  0  0  # atno 10765 bound_to 10752
  140.9892  134.0563  157.3674 H   0  0  0  0  0  0  0  0  0  0  0  0  # atno 11005 bound_to 11000
  145.1520  139.2509  143.5436 LP  0  0  0  0  0  0  0  0  0  0  0  0  # atno 17320 bound_to 7965
  146.3518  140.1225  142.8600 LP  0  0  0  0  0  0  0  0  0  0  0  0  # atno 17321 bound_to 7965
  140.1892  143.4050  152.1876 LP  0  0  0  0  0  0  0  0  0  0  0  0  # atno 17342 bound_to 10162
  139.5396  144.7244  151.4776 LP  0  0  0  0  0  0  0  0  0  0  0  0  # atno 17343 bound_to 10162
  157.3956  130.7305  149.6729 LP  0  0  0  0  0  0  0  0  0  0  0  0  # atno 17370 bound_to 10713
  155.9725  130.4135  150.4084 LP  0  0  0  0  0  0  0  0  0  0  0  0  # atno 17371 bound_to 10713
  139.8984  135.0154  156.7148 LP  0  0  0  0  0  0  0  0  0  0  0  0  # atno 17394 bound_to 11000
  140.7066  133.9259  155.8058 LP  0  0  0  0  0  0  0  0  0  0  0  0  # atno 17395 bound_to 11000

$$$$
