AV-unprocessed.smi:196|AV-procd|sdf|1528|dock10
  -GOLD-   2262019383D 1   1.00000     0.00000
 Structure written by MMmdl.
 47 50  0  0  0  0  0  0  0  0  1 V2000
  145.7705  139.3897  151.6878 C   0  0  0  0  0  0  0  0  0  0  0  0
  146.3689  138.3143  152.6081 C   0  0  2  0  0  0  0  0  0  0  0  0
  145.3035  137.7380  153.3583 O   0  0  0  0  0  0  0  0  0  0  0  0
  145.8182  137.2773  154.5945 C   0  0  0  0  0  0  0  0  0  0  0  0
  146.7681  138.3980  154.9869 C   0  0  0  0  0  0  0  0  0  0  0  0
  147.4138  138.7872  153.6586 C   0  0  1  0  0  0  0  0  0  0  0  0
  148.5776  137.9935  153.4982 O   0  0  0  0  0  0  0  0  0  0  0  0
  147.8316  140.2799  153.5908 C   0  0  0  0  0  0  0  0  0  0  0  0
  148.5253  140.7402  154.7840 N   0  0  0  0  0  0  0  0  0  0  0  0
  147.9511  141.1824  155.9536 C   0  0  0  0  0  0  0  0  0  0  0  0
  148.7921  141.5339  156.8871 N   0  0  0  0  0  0  0  0  0  0  0  0
  150.0438  141.3323  156.3155 C   0  0  0  0  0  0  0  0  0  0  0  0
  151.3849  141.5025  156.7681 C   0  0  0  0  0  0  0  0  0  0  0  0
  151.7048  141.9619  158.0078 N   0  0  0  0  0  0  0  0  0  0  0  0
  150.7248  142.7349  158.7619 C   0  0  0  0  0  0  0  0  0  0  0  0
  151.5340  143.7490  159.5702 C   0  0  2  0  0  0  0  0  0  0  0  0
  151.6680  144.8736  158.8652 F   0  0  0  0  0  0  0  0  0  0  0  0
  152.8950  143.0757  159.7168 C   0  0  0  0  0  0  0  0  0  0  0  0
  153.0750  142.3169  158.3915 C   0  0  1  0  0  0  0  0  0  0  0  0
  153.9790  141.0870  158.5719 C   0  0  0  0  0  0  0  0  0  0  0  0
  155.2026  141.3061  159.0585 N   0  0  0  0  0  0  0  0  0  0  0  0
  153.5789  139.9582  158.2910 O   0  0  0  0  0  0  0  0  0  0  0  0
  152.3788  141.1728  155.9008 N   0  0  0  0  0  0  0  0  0  0  0  0
  152.0911  140.7194  154.6778 C   0  0  0  0  0  0  0  0  0  0  0  0
  150.8949  140.5164  154.1240 N   0  0  0  0  0  0  0  0  0  0  0  0
  149.8906  140.8340  154.9900 C   0  0  0  0  0  0  0  0  0  0  0  0
  151.0718  144.0100  160.5227 H   0  0  0  0  0  0  0  0  0  0  0  0
  153.4953  142.9931  157.6445 H   0  0  0  0  0  0  0  0  0  0  0  0
  146.5374  139.8619  151.0740 H   0  0  0  0  0  0  0  0  0  0  0  0
  145.2605  140.1668  152.2572 H   0  0  0  0  0  0  0  0  0  0  0  0
  145.0384  138.9495  151.0105 H   0  0  0  0  0  0  0  0  0  0  0  0
  146.7904  137.5244  151.9831 H   0  0  0  0  0  0  0  0  0  0  0  0
  145.0269  137.1174  155.3270 H   0  0  0  0  0  0  0  0  0  0  0  0
  146.3539  136.3382  154.4481 H   0  0  0  0  0  0  0  0  0  0  0  0
  146.1810  139.2301  155.3774 H   0  0  0  0  0  0  0  0  0  0  0  0
  147.4827  138.1057  155.7579 H   0  0  0  0  0  0  0  0  0  0  0  0
  148.8617  138.0546  152.5989 H   0  0  0  0  0  0  0  0  0  0  0  0
  148.4795  140.4568  152.7316 H   0  0  0  0  0  0  0  0  0  0  0  0
  146.9563  140.9156  153.4542 H   0  0  0  0  0  0  0  0  0  0  0  0
  146.8816  141.2299  156.0976 H   0  0  0  0  0  0  0  0  0  0  0  0
  149.9912  143.2319  158.1251 H   0  0  0  0  0  0  0  0  0  0  0  0
  150.1918  142.0557  159.4282 H   0  0  0  0  0  0  0  0  0  0  0  0
  153.6977  143.7895  159.9051 H   0  0  0  0  0  0  0  0  0  0  0  0
  152.8617  142.3848  160.5615 H   0  0  0  0  0  0  0  0  0  0  0  0
  155.8338  140.5317  159.2040 H   0  0  0  0  0  0  0  0  0  0  0  0
  155.4887  142.2470  159.2869 H   0  0  0  0  0  0  0  0  0  0  0  0
  152.9414  140.4862  154.0543 H   0  0  0  0  0  0  0  0  0  0  0  0
  1  2  1  0  0  0  0
  1 29  1  0  0  0  0
  1 30  1  0  0  0  0
  1 31  1  0  0  0  0
  2  6  1  0  0  0  0
  2  3  1  0  0  0  0
  2 32  1  0  0  0  0
  3  4  1  0  0  0  0
  4  5  1  0  0  0  0
  4 33  1  0  0  0  0
  4 34  1  0  0  0  0
  5  6  1  0  0  0  0
  5 35  1  0  0  0  0
  5 36  1  0  0  0  0
  6  7  1  0  0  0  0
  6  8  1  0  0  0  0
  7 37  1  0  0  0  0
  8  9  1  0  0  0  0
  8 38  1  0  0  0  0
  8 39  1  0  0  0  0
  9 26  1  0  0  0  0
  9 10  1  0  0  0  0
 10 11  2  0  0  0  0
 10 40  1  0  0  0  0
 11 12  1  0  0  0  0
 12 26  2  0  0  0  0
 12 13  1  0  0  0  0
 13 14  1  0  0  0  0
 13 23  2  0  0  0  0
 14 19  1  0  0  0  0
 14 15  1  0  0  0  0
 15 16  1  0  0  0  0
 15 41  1  0  0  0  0
 15 42  1  0  0  0  0
 16 27  1  0  0  0  0
 16 17  1  0  0  0  0
 16 18  1  0  0  0  0
 18 19  1  0  0  0  0
 18 43  1  0  0  0  0
 18 44  1  0  0  0  0
 19 28  1  0  0  0  0
 19 20  1  0  0  0  0
 20 21  1  0  0  0  0
 20 22  2  0  0  0  0
 21 45  1  0  0  0  0
 21 46  1  0  0  0  0
 23 24  1  0  0  0  0
 24 25  2  0  0  0  0
 24 47  1  0  0  0  0
 25 26  1  0  0  0  0
M  END
> <s_m_source_file>
AV-unprocessed.smi

> <i_m_source_file_index>
196

> <i_lp_mmshare_version>
43012

> <i_f3d_flags>
0

> <s_epik_input>
W0NIMl0xW0NIMl1PW0NAQEhdKFtDSDNdKVtDQEBdMShbT0hdKVtDSDJdbihbY0hdbjIpYyhjMjMpbltjSF1uYzNONFtDSDJdW0NASF0oRilbQ0gyXVtDQEhdNEMoPU8pW05IMl0=

> <s_epik_cmdline>
J2VwaWtfcHl0aG9uJywgJy1waCcsICc3LjAnLCAnLXRuJywgJzgnLCAnLW1hJywgJzIwMCcsICctbWV0YWxfYmluZGluZycsICctaW1hZScsICc8aW5maWxlLm1hZT4nLCAnLW9tYWUnLCAnPG91dGZpbGUubWFlPic=

> <r_lp_tautomer_probability>
1

> <r_epik_Ionization_Penalty>
0.000857933

> <r_epik_Ionization_Penalty_Charging>
0

> <r_epik_Ionization_Penalty_Neutral>
0.000857933

> <r_epik_State_Penalty>
0.000462053

> <r_epik_Charging_Adjusted_Penalty>
0.000462053

> <i_epik_Tot_Q>
0

> <i_epik_Tot_abs_Q>
0

> <r_epik_Metal_State_Penalty>
-0

> <b_epik_Metal_Only>
0

> <s_lp_Force_Field>
OPLS_2005

> <r_lp_Energy>
42.3005

> <b_lp_Chiralities_Consistent>
1

> <s_lp_Variant>
AV-unprocessed.smi:196-1

> <Gold.Version>
5.8.1

> <Gold.Id.Protein>
6NUR|6NUR_protein|mol2

> <Gold.PLP.Fitness>
48.7884

> <Gold.PLP.PLP>
-42.9058

> <Gold.PLP.part.hbond>
-3.0000

> <Gold.PLP.part.metal>
0.0000

> <Gold.PLP.part.buried>
0.6317

> <Gold.PLP.part.nonpolar>
-42.8775

> <Gold.PLP.part.repulsive>
1.7488

> <Gold.PLP.ligand.clash>
0.0000

> <Gold.PLP.ligand.torsion>
0.6527

> <Gold.PLP.Chemscore.Hbond>
2.3132

> <Gold.PLP.Chemscore.CHOScore>
0.0000

> <Gold.PLP.Chemscore.Metal>
0.0000

> <Gold.Chemscore.Hbonds>
donor molecule, donor type, donor heavy atom, donor atom, acceptor molecule, acceptor atom, score
      L1  H     7    37       P1  7948  0.19
      P1  H  7997  8009       L1    22  0.31

> <Gold.PLP.Chemscore.Internal.Correction>
0.2483

> <Gold.Rescore>
     Score         DG    S(hbond)    S(metal)    S(lipo)     H(rot)  DE(clash)    DE(int)     intcor
      6.32     -11.72       1.24        0.00      74.70       2.60       1.45       3.95       ----

> <Gold.Chemscore.Fitness>
6.3240

> <Gold.Chemscore.DG>
-11.7223

> <Gold.Chemscore.ZeroCoef>
-5.4800

> <Gold.Chemscore.Hbond>
1.2424

> <Gold.Chemscore.Metal>
0.0000

> <Gold.Chemscore.Lipo>
74.7049

> <Gold.Chemscore.Internal_Hbond>
0.0000

> <Gold.Chemscore.DEClash>
1.4466

> <Gold.Chemscore.DEInternal>
3.9516

> <Gold.Chemscore.Rot>
2.5968

> <Gold.Chemscore.Internal.Correction>
   9.000000E+99

> <Gold.Chemscore.Hbonds>
donor molecule, donor type, donor heavy atom, donor atom, acceptor molecule, acceptor atom, score
      L1  H     7    37       P1  7948  0.20
      P1  H  7997  8009       L1    22  0.01

> <Gold.Chemscore.Hbond.Weighted>
-4.1495

> <Gold.Chemscore.Metal.Weighted>
-0.0000

> <Gold.Chemscore.Lipo.Weighted>
-8.7405

> <Gold.Chemscore.Internal_Hbond.Weighted>
0.0000

> <Gold.Chemscore.DEClash.Weighted>
1.4466

> <Gold.Chemscore.DEInternal.Weighted>
3.9516

> <Gold.Chemscore.Rot.Weighted>
6.6477

> <Gold.Chemscore.Internal.Correction.Weighted>
   9.000000E+99

> <Gold.Protein.RotatedTorsions>
[ 6907 6896 6895 6894 ] final   71.86 input  -60.11 | X-H torsion
[ 7974 7965 7964 7962 ] final   53.32 input  175.53 | X-H torsion
[ 8008 7997 7996 7995 ] final  171.05 input   59.86 | X-H torsion
[ 10167 10162 10161 10158 ] final -120.12 input  -65.29 | X-H torsion
[ 10718 10713 10712 10709 ] final   64.18 input   66.30 | X-H torsion
[ 10763 10752 10751 10750 ] final  -68.79 input  -60.55 | X-H torsion
[ 11005 11000 10999 10996 ] final -108.70 input  -57.11 | X-H torsion

> <Gold.Protein.ActiveResidues>
 VAL166  LYS551  ARG553  GLY616  TRP617  ASP618  TYR619  PRO620  LYS621  CYS622 
 ASP623  PHE694  ASN695  SER759  ASP760  ASP761  ALA762  ILE779  LEU786  VAL792 
 PHE793  MET794  SER795  GLU796  ALA797  LYS798  CYS799  TRP800  GLU811  SER814 

> <Gold.Protein.RotatedAtoms>
  152.4835  134.4657  159.9619 H   0  0  0  0  0  0  0  0  0  0  0  0  # atno 6907 bound_to 6896
  151.4658  133.3575  159.2824 H   0  0  0  0  0  0  0  0  0  0  0  0  # atno 6908 bound_to 6896
  150.8926  134.8356  159.7364 H   0  0  0  0  0  0  0  0  0  0  0  0  # atno 6909 bound_to 6896
  145.9724  139.4162  143.0182 H   0  0  0  0  0  0  0  0  0  0  0  0  # atno 7974 bound_to 7965
  156.1307  140.1522  156.9069 H   0  0  0  0  0  0  0  0  0  0  0  0  # atno 8008 bound_to 7997
  154.4907  140.0852  156.7628 H   0  0  0  0  0  0  0  0  0  0  0  0  # atno 8009 bound_to 7997
  155.4260  140.3425  155.4278 H   0  0  0  0  0  0  0  0  0  0  0  0  # atno 8010 bound_to 7997
  140.0392  143.5170  152.2138 H   0  0  0  0  0  0  0  0  0  0  0  0  # atno 10167 bound_to 10162
  157.6022  130.9146  149.9813 H   0  0  0  0  0  0  0  0  0  0  0  0  # atno 10718 bound_to 10713
  154.3941  135.6046  153.5860 H   0  0  0  0  0  0  0  0  0  0  0  0  # atno 10763 bound_to 10752
  152.9787  135.5891  154.4262 H   0  0  0  0  0  0  0  0  0  0  0  0  # atno 10764 bound_to 10752
  154.4051  135.2843  155.2050 H   0  0  0  0  0  0  0  0  0  0  0  0  # atno 10765 bound_to 10752
  141.0888  133.9092  157.2125 H   0  0  0  0  0  0  0  0  0  0  0  0  # atno 11005 bound_to 11000
  145.7887  140.9824  143.1060 LP  0  0  0  0  0  0  0  0  0  0  0  0  # atno 17320 bound_to 7965
  144.6840  139.9655  143.7481 LP  0  0  0  0  0  0  0  0  0  0  0  0  # atno 17321 bound_to 7965
  139.6025  144.7586  151.3139 LP  0  0  0  0  0  0  0  0  0  0  0  0  # atno 17342 bound_to 10162
  140.7268  143.6981  150.7867 LP  0  0  0  0  0  0  0  0  0  0  0  0  # atno 17343 bound_to 10162
  156.1099  130.3650  150.0068 LP  0  0  0  0  0  0  0  0  0  0  0  0  # atno 17370 bound_to 10713
  156.8168  130.9344  151.3642 LP  0  0  0  0  0  0  0  0  0  0  0  0  # atno 17371 bound_to 10713
  139.9710  135.0128  156.9511 LP  0  0  0  0  0  0  0  0  0  0  0  0  # atno 17394 bound_to 11000
  140.5301  134.0821  155.7314 LP  0  0  0  0  0  0  0  0  0  0  0  0  # atno 17395 bound_to 11000

$$$$
