AV-unprocessed.smi:2178|AV-procd|sdf|8852|dock9
  -GOLD-   2272012 43D 1   1.00000     0.00000
 Structure written by MMmdl.
 46 48  0  0  0  0  0  0  0  0  1 V2000
  153.4364  142.9042  161.7580 C   0  0  0  0  0  0  0  0  0  0  0  0
  152.7741  143.3413  160.4642 C   0  0  0  0  0  0  0  0  0  0  0  0
  152.2545  144.6483  160.3630 C   0  0  0  0  0  0  0  0  0  0  0  0
  151.6191  145.0699  159.1806 C   0  0  0  0  0  0  0  0  0  0  0  0
  151.4951  144.1845  158.0943 C   0  0  0  0  0  0  0  0  0  0  0  0
  152.0134  142.8761  158.1827 C   0  0  0  0  0  0  0  0  0  0  0  0
  151.8666  141.9283  157.0070 C   0  0  0  0  0  0  0  0  0  0  0  0
  152.6677  142.4562  159.3642 C   0  0  0  0  0  0  0  0  0  0  0  0
  153.1695  141.1828  159.4437 O   0  0  0  0  0  0  0  0  0  0  0  0
  154.5032  141.0640  158.9703 C   0  0  0  0  0  0  0  0  0  0  0  0
  155.1595  139.8452  159.6357 C   0  0  2  0  0  0  0  0  0  0  0  0
  156.4100  139.6141  159.0167 O   0  0  0  0  0  0  0  0  0  0  0  0
  154.2876  138.5802  159.5048 C   0  0  0  0  0  0  0  0  0  0  0  0
  154.9870  137.3700  159.9160 N   0  0  0  0  0  0  0  0  0  0  0  0
  155.4326  136.3547  159.1335 C   0  0  0  0  0  0  0  0  0  0  0  0
  155.2572  136.3550  157.6458 C   0  0  0  0  0  0  0  0  0  0  0  0
  155.7319  135.1714  157.0410 O   0  0  0  0  0  0  0  0  0  0  0  0
  156.0449  135.3562  159.7703 N   0  0  0  0  0  0  0  0  0  0  0  0
  155.9948  135.7618  161.0896 C   0  0  0  0  0  0  0  0  0  0  0  0
  156.4766  135.1348  162.2609 C   0  0  0  0  0  0  0  0  0  0  0  0
  156.3087  135.7481  163.5197 C   0  0  0  0  0  0  0  0  0  0  0  0
  155.6588  136.9949  163.6248 C   0  0  0  0  0  0  0  0  0  0  0  0
  155.1718  137.6372  162.4701 C   0  0  0  0  0  0  0  0  0  0  0  0
  155.3409  137.0202  161.2159 C   0  0  0  0  0  0  0  0  0  0  0  0
  153.0298  143.4537  162.6075 H   0  0  0  0  0  0  0  0  0  0  0  0
  154.5094  143.0911  161.7143 H   0  0  0  0  0  0  0  0  0  0  0  0
  153.2785  141.8414  161.9435 H   0  0  0  0  0  0  0  0  0  0  0  0
  152.3387  145.3320  161.1949 H   0  0  0  0  0  0  0  0  0  0  0  0
  151.2208  146.0714  159.1090 H   0  0  0  0  0  0  0  0  0  0  0  0
  150.9990  144.5142  157.1930 H   0  0  0  0  0  0  0  0  0  0  0  0
  151.4983  140.9574  157.3399 H   0  0  0  0  0  0  0  0  0  0  0  0
  152.8289  141.7824  156.5161 H   0  0  0  0  0  0  0  0  0  0  0  0
  151.1646  142.3181  156.2692 H   0  0  0  0  0  0  0  0  0  0  0  0
  154.4676  140.9164  157.8898 H   0  0  0  0  0  0  0  0  0  0  0  0
  155.0848  141.9703  159.1455 H   0  0  0  0  0  0  0  0  0  0  0  0
  155.3274  140.0574  160.6919 H   0  0  0  0  0  0  0  0  0  0  0  0
  157.0777  140.0667  159.5088 H   0  0  0  0  0  0  0  0  0  0  0  0
  153.3823  138.6798  160.1037 H   0  0  0  0  0  0  0  0  0  0  0  0
  153.9514  138.4561  158.4745 H   0  0  0  0  0  0  0  0  0  0  0  0
  154.1984  136.4666  157.4086 H   0  0  0  0  0  0  0  0  0  0  0  0
  155.7669  137.2137  157.2102 H   0  0  0  0  0  0  0  0  0  0  0  0
  155.6172  134.4574  157.6492 H   0  0  0  0  0  0  0  0  0  0  0  0
  156.9763  134.1800  162.1902 H   0  0  0  0  0  0  0  0  0  0  0  0
  156.6804  135.2595  164.4085 H   0  0  0  0  0  0  0  0  0  0  0  0
  155.5339  137.4576  164.5928 H   0  0  0  0  0  0  0  0  0  0  0  0
  154.6725  138.5913  162.5483 H   0  0  0  0  0  0  0  0  0  0  0  0
  1  2  1  0  0  0  0
  1 25  1  0  0  0  0
  1 26  1  0  0  0  0
  1 27  1  0  0  0  0
  2  8  1  0  0  0  0
  2  3  2  0  0  0  0
  3  4  1  0  0  0  0
  3 28  1  0  0  0  0
  4  5  2  0  0  0  0
  4 29  1  0  0  0  0
  5  6  1  0  0  0  0
  5 30  1  0  0  0  0
  6  7  1  0  0  0  0
  6  8  2  0  0  0  0
  7 31  1  0  0  0  0
  7 32  1  0  0  0  0
  7 33  1  0  0  0  0
  8  9  1  0  0  0  0
  9 10  1  0  0  0  0
 10 11  1  0  0  0  0
 10 34  1  0  0  0  0
 10 35  1  0  0  0  0
 11 12  1  0  0  0  0
 11 13  1  0  0  0  0
 11 36  1  0  0  0  0
 12 37  1  0  0  0  0
 13 14  1  0  0  0  0
 13 38  1  0  0  0  0
 13 39  1  0  0  0  0
 14 24  1  0  0  0  0
 14 15  1  0  0  0  0
 15 16  1  0  0  0  0
 15 18  2  0  0  0  0
 16 17  1  0  0  0  0
 16 40  1  0  0  0  0
 16 41  1  0  0  0  0
 17 42  1  0  0  0  0
 18 19  1  0  0  0  0
 19 24  2  0  0  0  0
 19 20  1  0  0  0  0
 20 21  2  0  0  0  0
 20 43  1  0  0  0  0
 21 22  1  0  0  0  0
 21 44  1  0  0  0  0
 22 23  2  0  0  0  0
 22 45  1  0  0  0  0
 23 24  1  0  0  0  0
 23 46  1  0  0  0  0
M  END
> <s_m_source_file>
AV-unprocessed.smi

> <i_m_source_file_index>
2178

> <i_lp_mmshare_version>
43012

> <i_f3d_flags>
0

> <s_epik_input>
W0NIM11jMVtjSF1bY0hdW2NIXWMoW0NIM10pYzFPW0NIMl1bQ0BIXShbT0hdKVtDSDJdbihjKG4yKVtDSDJdW09IXSljKGMyMylbY0hdW2NIXVtjSF1bY0hdMw==

> <s_epik_cmdline>
J2VwaWtfcHl0aG9uJywgJy1waCcsICc3LjAnLCAnLXRuJywgJzgnLCAnLW1hJywgJzIwMCcsICctbWV0YWxfYmluZGluZycsICctaW1hZScsICc8aW5maWxlLm1hZT4nLCAnLW9tYWUnLCAnPG91dGZpbGUubWFlPic=

> <r_lp_tautomer_probability>
1

> <r_epik_Ionization_Penalty>
0.0555874

> <r_epik_Ionization_Penalty_Charging>
0

> <r_epik_Ionization_Penalty_Neutral>
0.0555874

> <r_epik_State_Penalty>
0.0478234

> <r_epik_Charging_Adjusted_Penalty>
0.0478234

> <i_epik_Tot_Q>
0

> <i_epik_Tot_abs_Q>
0

> <r_epik_Metal_State_Penalty>
4.98044e-05

> <b_epik_Metal_Only>
0

> <s_lp_Force_Field>
OPLS_2005

> <r_lp_Energy>
19.7692

> <b_lp_Chiralities_Consistent>
1

> <s_lp_Variant>
AV-unprocessed.smi:2178-1

> <Gold.Version>
5.8.1

> <Gold.Id.Protein>
6NUR|6NUR_protein|mol2

> <Gold.PLP.Fitness>
58.3503

> <Gold.PLP.PLP>
-52.1112

> <Gold.PLP.part.hbond>
-2.8796

> <Gold.PLP.part.metal>
0.0000

> <Gold.PLP.part.buried>
-5.0427

> <Gold.PLP.part.nonpolar>
-44.7929

> <Gold.PLP.part.repulsive>
0.0000

> <Gold.PLP.ligand.clash>
0.0000

> <Gold.PLP.ligand.torsion>
0.7129

> <Gold.PLP.Chemscore.Hbond>
2.5129

> <Gold.PLP.Chemscore.CHOScore>
0.0000

> <Gold.PLP.Chemscore.Metal>
0.0000

> <Gold.Chemscore.Hbonds>
donor molecule, donor type, donor heavy atom, donor atom, acceptor molecule, acceptor atom, score
      P1  H  7997  8008       L1    12  0.20
      P1  H 10752 10764       L1    17  0.08

> <Gold.PLP.Chemscore.Internal.Correction>
0.1264

> <Gold.Rescore>
     Score         DG    S(hbond)    S(metal)    S(lipo)     H(rot)  DE(clash)    DE(int)     intcor
     21.18     -22.01       1.78        0.00     155.14       2.96       0.11       0.72       ----

> <Gold.Chemscore.Fitness>
21.1763

> <Gold.Chemscore.DG>
-22.0055

> <Gold.Chemscore.ZeroCoef>
-5.4800

> <Gold.Chemscore.Hbond>
1.7790

> <Gold.Chemscore.Metal>
0.0000

> <Gold.Chemscore.Lipo>
155.1384

> <Gold.Chemscore.Internal_Hbond>
0.0000

> <Gold.Chemscore.DEClash>
0.1051

> <Gold.Chemscore.DEInternal>
0.7241

> <Gold.Chemscore.Rot>
2.9561

> <Gold.Chemscore.Internal.Correction>
   9.000000E+99

> <Gold.Chemscore.Hbond.Weighted>
-5.9420

> <Gold.Chemscore.Metal.Weighted>
-0.0000

> <Gold.Chemscore.Lipo.Weighted>
-18.1512

> <Gold.Chemscore.Internal_Hbond.Weighted>
0.0000

> <Gold.Chemscore.DEClash.Weighted>
0.1051

> <Gold.Chemscore.DEInternal.Weighted>
0.7241

> <Gold.Chemscore.Rot.Weighted>
7.5677

> <Gold.Chemscore.Internal.Correction.Weighted>
   9.000000E+99

> <Gold.Protein.RotatedTorsions>
[ 6907 6896 6895 6894 ] final   86.37 input  -60.11 | X-H torsion
[ 7974 7965 7964 7962 ] final -104.46 input  175.53 | X-H torsion
[ 8008 7997 7996 7995 ] final -136.52 input   59.86 | X-H torsion
[ 10167 10162 10161 10158 ] final  -19.70 input  -65.29 | X-H torsion
[ 10718 10713 10712 10709 ] final   25.05 input   66.30 | X-H torsion
[ 10763 10752 10751 10750 ] final   25.89 input  -60.55 | X-H torsion
[ 11005 11000 10999 10996 ] final  140.56 input  -57.11 | X-H torsion

> <Gold.Protein.ActiveResidues>
 VAL166  LYS551  ARG553  GLY616  TRP617  ASP618  TYR619  PRO620  LYS621  CYS622 
 ASP623  PHE694  ASN695  SER759  ASP760  ASP761  ALA762  ILE779  LEU786  VAL792 
 PHE793  MET794  SER795  GLU796  ALA797  LYS798  CYS799  TRP800  GLU811  SER814 

> <Gold.Protein.RotatedAtoms>
  152.5393  134.2442  159.8873 H   0  0  0  0  0  0  0  0  0  0  0  0  # atno 6907 bound_to 6896
  151.2408  133.4394  159.2615 H   0  0  0  0  0  0  0  0  0  0  0  0  # atno 6908 bound_to 6896
  151.0629  134.9762  159.8325 H   0  0  0  0  0  0  0  0  0  0  0  0  # atno 6909 bound_to 6896
  145.2429  140.9211  143.3139 H   0  0  0  0  0  0  0  0  0  0  0  0  # atno 7974 bound_to 7965
  155.3967  140.0503  157.3038 H   0  0  0  0  0  0  0  0  0  0  0  0  # atno 8008 bound_to 7997
  154.5010  140.2157  155.9307 H   0  0  0  0  0  0  0  0  0  0  0  0  # atno 8009 bound_to 7997
  156.1467  140.3144  155.8587 H   0  0  0  0  0  0  0  0  0  0  0  0  # atno 8010 bound_to 7997
  140.7270  143.4794  151.0139 H   0  0  0  0  0  0  0  0  0  0  0  0  # atno 10167 bound_to 10162
  157.1881  130.6833  149.6139 H   0  0  0  0  0  0  0  0  0  0  0  0  # atno 10718 bound_to 10713
  153.0660  135.6573  154.0353 H   0  0  0  0  0  0  0  0  0  0  0  0  # atno 10763 bound_to 10752
  154.0010  135.2937  155.3404 H   0  0  0  0  0  0  0  0  0  0  0  0  # atno 10764 bound_to 10752
  154.7018  135.5241  153.8607 H   0  0  0  0  0  0  0  0  0  0  0  0  # atno 10765 bound_to 10752
  140.0336  134.9340  157.0710 H   0  0  0  0  0  0  0  0  0  0  0  0  # atno 11005 bound_to 11000
  144.9573  139.4018  143.6373 LP  0  0  0  0  0  0  0  0  0  0  0  0  # atno 17320 bound_to 7965
  146.3323  139.8609  142.8856 LP  0  0  0  0  0  0  0  0  0  0  0  0  # atno 17321 bound_to 7965
  139.8491  143.7462  152.3178 LP  0  0  0  0  0  0  0  0  0  0  0  0  # atno 17342 bound_to 10162
  139.7638  144.7498  151.0325 LP  0  0  0  0  0  0  0  0  0  0  0  0  # atno 17343 bound_to 10162
  155.9715  130.4624  150.6144 LP  0  0  0  0  0  0  0  0  0  0  0  0  # atno 17370 bound_to 10713
  157.3888  131.0792  151.1412 LP  0  0  0  0  0  0  0  0  0  0  0  0  # atno 17371 bound_to 10713
  140.4184  134.1906  155.7164 LP  0  0  0  0  0  0  0  0  0  0  0  0  # atno 17394 bound_to 11000
  141.1845  133.8343  157.1138 LP  0  0  0  0  0  0  0  0  0  0  0  0  # atno 17395 bound_to 11000

$$$$
