AV-unprocessed.smi:3031|AV-procd|sdf|11548|dock2
  -GOLD-   2272016503D 1   1.00000     0.00000
 Structure written by MMmdl.
 47 48  0  0  0  0  0  0  0  0  2 V2000
  151.8827  145.6387  159.3327 C   0  0  0  0  0  0  0  0  0  0  0  0
  151.8352  144.1578  159.0906 C   0  0  0  0  0  0  0  0  0  0  0  0
  152.5137  143.1327  159.8092 C   0  0  0  0  0  0  0  0  0  0  0  0
  152.2533  141.9213  159.3461 N   0  0  0  0  0  0  0  0  0  0  0  0
  151.3985  142.1287  158.3209 N   0  0  0  0  0  0  0  0  0  0  0  0
  150.8868  140.9987  157.5668 C   0  0  0  0  0  0  0  0  0  0  0  0
  149.3781  140.7252  157.7812 C   0  0  1  0  0  0  0  0  0  0  0  0
  148.5675  141.9863  157.4517 C   0  0  0  0  0  0  0  0  0  0  0  0
  148.8905  139.6191  156.9511 N   0  0  0  0  0  0  0  0  0  0  0  0
  148.9481  139.8442  155.5040 C   0  0  0  0  0  0  0  0  0  0  0  0
  148.6400  138.5666  154.7040 C   0  0  1  0  0  0  0  0  0  0  0  0
  148.7402  138.8443  153.3212 O   0  0  0  0  0  0  0  0  0  0  0  0
  149.5438  137.3745  155.0866 C   0  0  0  0  0  0  0  0  0  0  0  0
  149.0359  136.0828  154.5607 N   0  3  0  0  0  0  0  0  0  0  0  0
  150.0049  134.9758  154.7409 C   0  0  0  0  0  0  0  0  0  0  0  0
  149.4573  133.6759  154.1276 C   0  0  0  0  0  0  0  0  0  0  0  0
  148.2005  133.3624  154.7148 O   0  0  0  0  0  0  0  0  0  0  0  0
  147.2342  134.3785  154.4778 C   0  0  0  0  0  0  0  0  0  0  0  0
  147.7091  135.7000  155.1046 C   0  0  0  0  0  0  0  0  0  0  0  0
  151.1371  143.4701  158.1386 C   0  0  0  0  0  0  0  0  0  0  0  0
  152.7718  145.9293  159.8924 H   0  0  0  0  0  0  0  0  0  0  0  0
  151.0183  145.9789  159.9033 H   0  0  0  0  0  0  0  0  0  0  0  0
  151.8942  146.2010  158.3985 H   0  0  0  0  0  0  0  0  0  0  0  0
  153.1828  143.2329  160.6510 H   0  0  0  0  0  0  0  0  0  0  0  0
  151.0757  141.2055  156.5126 H   0  0  0  0  0  0  0  0  0  0  0  0
  151.4717  140.1099  157.8107 H   0  0  0  0  0  0  0  0  0  0  0  0
  149.2013  140.4976  158.8335 H   0  0  0  0  0  0  0  0  0  0  0  0
  148.8744  142.8252  158.0766 H   0  0  0  0  0  0  0  0  0  0  0  0
  147.5026  141.8254  157.6224 H   0  0  0  0  0  0  0  0  0  0  0  0
  148.6970  142.2832  156.4101 H   0  0  0  0  0  0  0  0  0  0  0  0
  149.4052  138.7734  157.1762 H   0  0  0  0  0  0  0  0  0  0  0  0
  148.2345  140.6062  155.2024 H   0  0  0  0  0  0  0  0  0  0  0  0
  149.9299  140.2292  155.2264 H   0  0  0  0  0  0  0  0  0  0  0  0
  147.5980  138.3167  154.8996 H   0  0  0  0  0  0  0  0  0  0  0  0
  148.8377  138.0268  152.8567 H   0  0  0  0  0  0  0  0  0  0  0  0
  150.5469  137.5553  154.6974 H   0  0  0  0  0  0  0  0  0  0  0  0
  149.6483  137.3058  156.1708 H   0  0  0  0  0  0  0  0  0  0  0  0
  150.9532  135.2313  154.2666 H   0  0  0  0  0  0  0  0  0  0  0  0
  150.2054  134.8333  155.8041 H   0  0  0  0  0  0  0  0  0  0  0  0
  149.3541  133.7687  153.0453 H   0  0  0  0  0  0  0  0  0  0  0  0
  150.1486  132.8534  154.3119 H   0  0  0  0  0  0  0  0  0  0  0  0
  147.0646  134.4942  153.4060 H   0  0  0  0  0  0  0  0  0  0  0  0
  146.2850  134.0733  154.9192 H   0  0  0  0  0  0  0  0  0  0  0  0
  147.7746  135.5930  156.1887 H   0  0  0  0  0  0  0  0  0  0  0  0
  146.9727  136.4776  154.9057 H   0  0  0  0  0  0  0  0  0  0  0  0
  150.4762  143.8196  157.3590 H   0  0  0  0  0  0  0  0  0  0  0  0
  148.9284  136.2053  153.5635 H   0  0  0  0  0  0  0  0  0  0  0  0
  1  2  1  0  0  0  0
  1 21  1  0  0  0  0
  1 22  1  0  0  0  0
  1 23  1  0  0  0  0
  2 20  2  0  0  0  0
  2  3  1  0  0  0  0
  3  4  2  0  0  0  0
  3 24  1  0  0  0  0
  4  5  1  0  0  0  0
  5  6  1  0  0  0  0
  5 20  1  0  0  0  0
  6  7  1  0  0  0  0
  6 25  1  0  0  0  0
  6 26  1  0  0  0  0
  7  8  1  0  0  0  0
  7  9  1  0  0  0  0
  7 27  1  0  0  0  0
  8 28  1  0  0  0  0
  8 29  1  0  0  0  0
  8 30  1  0  0  0  0
  9 10  1  0  0  0  0
  9 31  1  0  0  0  0
 10 11  1  0  0  0  0
 10 32  1  0  0  0  0
 10 33  1  0  0  0  0
 11 12  1  0  0  0  0
 11 13  1  0  0  0  0
 11 34  1  0  0  0  0
 12 35  1  0  0  0  0
 13 14  1  0  0  0  0
 13 36  1  0  0  0  0
 13 37  1  0  0  0  0
 14 19  1  0  0  0  0
 14 15  1  0  0  0  0
 14 47  1  0  0  0  0
 15 16  1  0  0  0  0
 15 38  1  0  0  0  0
 15 39  1  0  0  0  0
 16 17  1  0  0  0  0
 16 40  1  0  0  0  0
 16 41  1  0  0  0  0
 17 18  1  0  0  0  0
 18 19  1  0  0  0  0
 18 42  1  0  0  0  0
 18 43  1  0  0  0  0
 19 44  1  0  0  0  0
 19 45  1  0  0  0  0
 20 46  1  0  0  0  0
M  CHG  1  14   1
M  END
> <s_m_source_file>
AV-unprocessed.smi

> <i_m_source_file_index>
3031

> <i_lp_mmshare_version>
43012

> <i_f3d_flags>
0

> <s_epik_input>
W0NIM11jMVtjSF1ubihbY0hdMSlbQ0gyXVtDQEhdKFtDSDNdKVtOSF1bQ0gyXVtDQEhdKFtPSF0pW0NIMl1OMltDSDJdW0NIMl1PW0NIMl1bQ0gyXTI=

> <s_epik_cmdline>
J2VwaWtfcHl0aG9uJywgJy1waCcsICc3LjAnLCAnLXRuJywgJzgnLCAnLW1hJywgJzIwMCcsICctbWV0YWxfYmluZGluZycsICctaW1hZScsICc8aW5maWxlLm1hZT4nLCAnLW9tYWUnLCAnPG91dGZpbGUubWFlPic=

> <r_epik_Ionization_Penalty>
0.467051

> <r_epik_Ionization_Penalty_Charging>
0.202493

> <r_epik_Ionization_Penalty_Neutral>
0.264558

> <r_epik_State_Penalty>
1.34287

> <r_epik_Charging_Adjusted_Penalty>
1.54537

> <i_epik_Tot_Q>
1

> <i_epik_Tot_abs_Q>
1

> <r_epik_Metal_State_Penalty>
1.34281

> <b_epik_Metal_Only>
0

> <s_lp_Force_Field>
OPLS_2005

> <r_lp_Energy>
30.2263

> <b_lp_Chiralities_Consistent>
1

> <s_lp_Variant>
AV-unprocessed.smi:3031-8

> <Gold.Version>
5.8.1

> <Gold.Id.Protein>
6NUR|6NUR_protein|mol2

> <Gold.PLP.Fitness>
46.1960

> <Gold.PLP.PLP>
-34.3940

> <Gold.PLP.part.hbond>
-2.8628

> <Gold.PLP.part.metal>
0.0000

> <Gold.PLP.part.buried>
-4.5568

> <Gold.PLP.part.nonpolar>
-26.6526

> <Gold.PLP.part.repulsive>
0.0592

> <Gold.PLP.ligand.clash>
0.0000

> <Gold.PLP.ligand.torsion>
0.2216

> <Gold.PLP.Chemscore.Hbond>
3.0000

> <Gold.PLP.Chemscore.CHOScore>
1.0000

> <Gold.PLP.Chemscore.Metal>
0.0000

> <Gold.Chemscore.Hbonds>
donor molecule, donor type, donor heavy atom, donor atom, acceptor molecule, acceptor atom, score
      L1  H    12    35       P1  7948  1.00
      L1  H    14    47       P1  7948  2.00
      L1  C    20    46       P1  8028  1.00

> <Gold.PLP.Chemscore.Internal.Correction>
0.2452

> <Gold.Rescore>
     Score         DG    S(hbond)    S(metal)    S(lipo)     H(rot)  DE(clash)    DE(int)     intcor
     14.55     -15.73       1.99        0.00      88.83       2.65       0.09       1.08       ----

> <Gold.Chemscore.Fitness>
14.5549

> <Gold.Chemscore.DG>
-15.7295

> <Gold.Chemscore.ZeroCoef>
-5.4800

> <Gold.Chemscore.Hbond>
1.9897

> <Gold.Chemscore.Metal>
0.0000

> <Gold.Chemscore.Lipo>
88.8313

> <Gold.Chemscore.Internal_Hbond>
0.0000

> <Gold.Chemscore.DEClash>
0.0916

> <Gold.Chemscore.DEInternal>
1.0831

> <Gold.Chemscore.Rot>
2.6521

> <Gold.Chemscore.Internal.Correction>
   9.000000E+99

> <Gold.Chemscore.Hbonds>
donor molecule, donor type, donor heavy atom, donor atom, acceptor molecule, acceptor atom, score
      L1  H    12    35       P1  7948  0.93
      L1  H    14    47       P1  7948  0.99

> <Gold.Chemscore.Hbond.Weighted>
-6.6456

> <Gold.Chemscore.Metal.Weighted>
-0.0000

> <Gold.Chemscore.Lipo.Weighted>
-10.3933

> <Gold.Chemscore.Internal_Hbond.Weighted>
0.0000

> <Gold.Chemscore.DEClash.Weighted>
0.0916

> <Gold.Chemscore.DEInternal.Weighted>
1.0831

> <Gold.Chemscore.Rot.Weighted>
6.7894

> <Gold.Chemscore.Internal.Correction.Weighted>
   9.000000E+99

> <Gold.Protein.RotatedTorsions>
[ 6907 6896 6895 6894 ] final -160.20 input  -60.11 | X-H torsion
[ 7974 7965 7964 7962 ] final   50.19 input  175.53 | X-H torsion
[ 8008 7997 7996 7995 ] final  174.93 input   59.86 | X-H torsion
[ 10167 10162 10161 10158 ] final  149.41 input  -65.29 | X-H torsion
[ 10718 10713 10712 10709 ] final  -88.69 input   66.30 | X-H torsion
[ 10763 10752 10751 10750 ] final  117.68 input  -60.55 | X-H torsion
[ 11005 11000 10999 10996 ] final  104.61 input  -57.11 | X-H torsion

> <Gold.Protein.ActiveResidues>
 VAL166  LYS551  ARG553  GLY616  TRP617  ASP618  TYR619  PRO620  LYS621  CYS622 
 ASP623  PHE694  ASN695  SER759  ASP760  ASP761  ALA762  ILE779  LEU786  VAL792 
 PHE793  MET794  SER795  GLU796  ALA797  LYS798  CYS799  TRP800  GLU811  SER814 

> <Gold.Protein.RotatedAtoms>
  151.3454  133.3946  159.2674 H   0  0  0  0  0  0  0  0  0  0  0  0  # atno 6907 bound_to 6896
  150.9844  134.9193  159.7873 H   0  0  0  0  0  0  0  0  0  0  0  0  # atno 6908 bound_to 6896
  152.5227  134.3419  159.9272 H   0  0  0  0  0  0  0  0  0  0  0  0  # atno 6909 bound_to 6896
  146.0036  139.4466  143.0000 H   0  0  0  0  0  0  0  0  0  0  0  0  # atno 7974 bound_to 7965
  156.0923  140.1422  156.9576 H   0  0  0  0  0  0  0  0  0  0  0  0  # atno 8008 bound_to 7997
  154.4650  140.0929  156.7041 H   0  0  0  0  0  0  0  0  0  0  0  0  # atno 8009 bound_to 7997
  155.4899  140.3447  155.4355 H   0  0  0  0  0  0  0  0  0  0  0  0  # atno 8010 bound_to 7997
  139.4862  144.5603  151.7242 H   0  0  0  0  0  0  0  0  0  0  0  0  # atno 10167 bound_to 10162
  155.9983  130.4845  150.5057 H   0  0  0  0  0  0  0  0  0  0  0  0  # atno 10718 bound_to 10713
  153.5560  135.3530  155.2779 H   0  0  0  0  0  0  0  0  0  0  0  0  # atno 10763 bound_to 10752
  154.8701  135.4125  154.2884 H   0  0  0  0  0  0  0  0  0  0  0  0  # atno 10764 bound_to 10752
  153.3620  135.7060  153.6774 H   0  0  0  0  0  0  0  0  0  0  0  0  # atno 10765 bound_to 10752
  139.8793  134.9307  156.5388 H   0  0  0  0  0  0  0  0  0  0  0  0  # atno 11005 bound_to 11000
  145.7450  140.9994  143.1281 LP  0  0  0  0  0  0  0  0  0  0  0  0  # atno 17320 bound_to 7965
  144.6928  139.9145  143.7465 LP  0  0  0  0  0  0  0  0  0  0  0  0  # atno 17321 bound_to 7965
  140.5172  144.0935  150.6012 LP  0  0  0  0  0  0  0  0  0  0  0  0  # atno 17342 bound_to 10162
  140.3880  143.2767  152.0093 LP  0  0  0  0  0  0  0  0  0  0  0  0  # atno 17343 bound_to 10162
  157.3036  131.0650  151.2051 LP  0  0  0  0  0  0  0  0  0  0  0  0  # atno 17370 bound_to 10713
  157.3021  130.6848  149.6170 LP  0  0  0  0  0  0  0  0  0  0  0  0  # atno 17371 bound_to 10713
  140.8325  133.8267  155.8998 LP  0  0  0  0  0  0  0  0  0  0  0  0  # atno 17394 bound_to 11000
  140.9314  134.2016  157.4861 LP  0  0  0  0  0  0  0  0  0  0  0  0  # atno 17395 bound_to 11000

$$$$
