AV-unprocessed.smi:798|AV-procd|sdf|3773|dock8
  -GOLD-   22720 1203D 1   1.00000     0.00000
 Structure written by MMmdl.
 34 36  0  0  0  0  0  0  0  0  1 V2000
  144.0454  137.3132  155.5476 O   0  0  0  0  0  0  0  0  0  0  0  0
  143.8041  138.2926  154.8415 C   0  0  0  0  0  0  0  0  0  0  0  0
  142.6159  138.5722  154.2778 N   0  0  0  0  0  0  0  0  0  0  0  0
  141.4082  137.8293  154.3554 C   0  0  0  0  0  0  0  0  0  0  0  0
  141.1350  136.9517  155.3335 N   0  0  0  0  0  0  0  0  0  0  0  0
  139.8879  136.3625  155.1697 N   0  0  0  0  0  0  0  0  0  0  0  0
  139.2706  136.8181  154.0759 C   0  0  0  0  0  0  0  0  0  0  0  0
  140.1526  138.0117  153.1387 S   0  0  0  0  0  0  0  0  0  0  0  0
  144.7180  139.2227  154.5297 N   0  0  0  0  0  0  0  0  0  0  0  0
  146.1110  139.2272  154.9812 C   0  0  2  0  0  0  0  0  0  0  0  0
  146.5216  140.5816  155.6110 C   0  0  2  0  0  0  0  0  0  0  0  0
  146.1594  141.7656  154.6887 C   0  0  0  0  0  0  0  0  0  0  0  0
  147.1558  141.6029  153.5270 C   0  0  0  0  0  0  0  0  0  0  0  0
  147.9794  140.3680  153.9489 C   0  0  1  0  0  0  0  0  0  0  0  0
  148.0392  140.5541  155.4603 C   0  0  0  0  0  0  0  0  0  0  0  0
  147.1605  139.0577  153.8436 C   0  0  2  0  0  0  0  0  0  0  0  0
  146.6362  138.7000  152.4341 C   0  0  0  0  0  0  0  0  0  0  0  0
  147.7143  138.4633  151.5540 O   0  0  0  0  0  0  0  0  0  0  0  0
  142.5707  139.4144  153.7237 H   0  0  0  0  0  0  0  0  0  0  0  0
  138.2890  136.4484  153.8189 H   0  0  0  0  0  0  0  0  0  0  0  0
  144.4330  139.9911  153.9402 H   0  0  0  0  0  0  0  0  0  0  0  0
  146.2577  138.4410  155.7245 H   0  0  0  0  0  0  0  0  0  0  0  0
  146.1687  140.7079  156.6349 H   0  0  0  0  0  0  0  0  0  0  0  0
  145.1215  141.7652  154.3564 H   0  0  0  0  0  0  0  0  0  0  0  0
  146.3319  142.7125  155.2019 H   0  0  0  0  0  0  0  0  0  0  0  0
  146.6635  141.4854  152.5628 H   0  0  0  0  0  0  0  0  0  0  0  0
  147.7972  142.4823  153.4558 H   0  0  0  0  0  0  0  0  0  0  0  0
  148.9543  140.3102  153.4636 H   0  0  0  0  0  0  0  0  0  0  0  0
  148.5235  141.4838  155.7648 H   0  0  0  0  0  0  0  0  0  0  0  0
  148.5116  139.7207  155.9835 H   0  0  0  0  0  0  0  0  0  0  0  0
  147.8213  138.2412  154.1412 H   0  0  0  0  0  0  0  0  0  0  0  0
  146.0358  137.7911  152.4789 H   0  0  0  0  0  0  0  0  0  0  0  0
  145.9980  139.4795  152.0199 H   0  0  0  0  0  0  0  0  0  0  0  0
  148.3644  139.1362  151.6875 H   0  0  0  0  0  0  0  0  0  0  0  0
  1  2  2  0  0  0  0
  2  3  1  0  0  0  0
  2  9  1  0  0  0  0
  3  4  1  0  0  0  0
  3 19  1  0  0  0  0
  4  8  1  0  0  0  0
  4  5  2  0  0  0  0
  5  6  1  0  0  0  0
  6  7  2  0  0  0  0
  7  8  1  0  0  0  0
  7 20  1  0  0  0  0
  9 10  1  0  0  0  0
  9 21  1  0  0  0  0
 10 16  1  0  0  0  0
 10 11  1  0  0  0  0
 10 22  1  0  0  0  0
 11 15  1  0  0  0  0
 11 12  1  0  0  0  0
 11 23  1  0  0  0  0
 12 13  1  0  0  0  0
 12 24  1  0  0  0  0
 12 25  1  0  0  0  0
 13 14  1  0  0  0  0
 13 26  1  0  0  0  0
 13 27  1  0  0  0  0
 14 15  1  0  0  0  0
 14 16  1  0  0  0  0
 14 28  1  0  0  0  0
 15 29  1  0  0  0  0
 15 30  1  0  0  0  0
 16 17  1  0  0  0  0
 16 31  1  0  0  0  0
 17 18  1  0  0  0  0
 17 32  1  0  0  0  0
 17 33  1  0  0  0  0
 18 34  1  0  0  0  0
M  END
> <s_m_source_file>
AV-unprocessed.smi

> <i_m_source_file_index>
798

> <i_lp_mmshare_version>
43012

> <i_f3d_flags>
0

> <s_epik_input>
W0NIMl0xW0NIMl1bQ0BASF0oW0NIMl0yKVtDQEBIXShbQ0gyXVtPSF0pW0NAQEhdKFtDQEhdMTIpW05IXUMoPU8pW05IXWMzbm5bY0hdczM=

> <s_epik_cmdline>
J2VwaWtfcHl0aG9uJywgJy1waCcsICc3LjAnLCAnLXRuJywgJzgnLCAnLW1hJywgJzIwMCcsICctbWV0YWxfYmluZGluZycsICctaW1hZScsICc8aW5maWxlLm1hZT4nLCAnLW9tYWUnLCAnPG91dGZpbGUubWFlPic=

> <r_lp_tautomer_probability>
1

> <r_epik_Ionization_Penalty>
0.000329046

> <r_epik_Ionization_Penalty_Charging>
0

> <r_epik_Ionization_Penalty_Neutral>
0.000329046

> <r_epik_State_Penalty>
-0

> <r_epik_Charging_Adjusted_Penalty>
0

> <i_epik_Tot_Q>
0

> <i_epik_Tot_abs_Q>
0

> <r_epik_Metal_State_Penalty>
0.173433

> <b_epik_Metal_Only>
0

> <s_lp_Force_Field>
OPLS_2005

> <r_lp_Energy>
50.5105

> <b_lp_Chiralities_Consistent>
1

> <s_lp_Variant>
AV-unprocessed.smi:798-5

> <Gold.Version>
5.8.1

> <Gold.Id.Protein>
6NUR|6NUR_protein|mol2

> <Gold.PLP.Fitness>
40.2107

> <Gold.PLP.PLP>
-26.2514

> <Gold.PLP.part.hbond>
-6.1890

> <Gold.PLP.part.metal>
0.0000

> <Gold.PLP.part.buried>
-2.8538

> <Gold.PLP.part.nonpolar>
-16.6111

> <Gold.PLP.part.repulsive>
0.0813

> <Gold.PLP.ligand.clash>
0.0000

> <Gold.PLP.ligand.torsion>
0.1647

> <Gold.PLP.Chemscore.Hbond>
4.7600

> <Gold.PLP.Chemscore.CHOScore>
0.0000

> <Gold.PLP.Chemscore.Metal>
0.0000

> <Gold.Chemscore.Hbonds>
donor molecule, donor type, donor heavy atom, donor atom, acceptor molecule, acceptor atom, score
      L1  H     3    19       P1 10175  0.85
      L1  H     9    21       P1 10175  0.94
      L1  H    18    34       P1  7957  0.98
      P1  H  7954  7966       L1    18  0.98
      P1  H 11000 11005       L1     6  1.00

> <Gold.PLP.Chemscore.Internal.Correction>
0.0087

> <Gold.Rescore>
     Score         DG    S(hbond)    S(metal)    S(lipo)     H(rot)  DE(clash)    DE(int)     intcor
     18.06     -19.69       3.87        0.00      53.34       1.94       0.28       1.34       ----

> <Gold.Chemscore.Fitness>
18.0617

> <Gold.Chemscore.DG>
-19.6851

> <Gold.Chemscore.ZeroCoef>
-5.4800

> <Gold.Chemscore.Hbond>
3.8747

> <Gold.Chemscore.Metal>
0.0000

> <Gold.Chemscore.Lipo>
53.3395

> <Gold.Chemscore.Internal_Hbond>
0.0000

> <Gold.Chemscore.DEClash>
0.2811

> <Gold.Chemscore.DEInternal>
1.3423

> <Gold.Chemscore.Rot>
1.9442

> <Gold.Chemscore.Internal.Correction>
   9.000000E+99

> <Gold.Chemscore.Hbonds>
donor molecule, donor type, donor heavy atom, donor atom, acceptor molecule, acceptor atom, score
      L1  H     3    19       P1 10175  0.83
      L1  H     9    21       P1 10175  0.91
      L1  H    18    34       P1  7957  0.85
      P1  H  7954  7966       L1    18  0.24
      P1  H 11000 11005       L1     6  0.54

> <Gold.Chemscore.Hbond.Weighted>
-12.9414

> <Gold.Chemscore.Metal.Weighted>
-0.0000

> <Gold.Chemscore.Lipo.Weighted>
-6.2407

> <Gold.Chemscore.Internal_Hbond.Weighted>
0.0000

> <Gold.Chemscore.DEClash.Weighted>
0.2811

> <Gold.Chemscore.DEInternal.Weighted>
1.3423

> <Gold.Chemscore.Rot.Weighted>
4.9771

> <Gold.Chemscore.Internal.Correction.Weighted>
   9.000000E+99

> <Gold.Protein.RotatedTorsions>
[ 6907 6896 6895 6894 ] final  -81.89 input  -60.11 | X-H torsion
[ 7974 7965 7964 7962 ] final  175.34 input  175.53 | X-H torsion
[ 8008 7997 7996 7995 ] final   55.55 input   59.86 | X-H torsion
[ 10167 10162 10161 10158 ] final   21.38 input  -65.29 | X-H torsion
[ 10718 10713 10712 10709 ] final  -11.82 input   66.30 | X-H torsion
[ 10763 10752 10751 10750 ] final   56.84 input  -60.55 | X-H torsion
[ 11005 11000 10999 10996 ] final   84.40 input  -57.11 | X-H torsion

> <Gold.Protein.ActiveResidues>
 VAL166  LYS551  ARG553  GLY616  TRP617  ASP618  TYR619  PRO620  LYS621  CYS622 
 ASP623  PHE694  ASN695  SER759  ASP760  ASP761  ALA762  ILE779  LEU786  VAL792 
 PHE793  MET794  SER795  GLU796  ALA797  LYS798  CYS799  TRP800  GLU811  SER814 

> <Gold.Protein.RotatedAtoms>
  150.6905  134.3749  159.5007 H   0  0  0  0  0  0  0  0  0  0  0  0  # atno 6907 bound_to 6896
  152.1559  134.8948  160.0554 H   0  0  0  0  0  0  0  0  0  0  0  0  # atno 6908 bound_to 6896
  152.0028  133.3797  159.4225 H   0  0  0  0  0  0  0  0  0  0  0  0  # atno 6909 bound_to 6896
  144.7203  139.9932  143.6440 H   0  0  0  0  0  0  0  0  0  0  0  0  # atno 7974 bound_to 7965
  155.5029  140.3475  155.4374 H   0  0  0  0  0  0  0  0  0  0  0  0  # atno 8008 bound_to 7997
  156.0901  140.1408  156.9630 H   0  0  0  0  0  0  0  0  0  0  0  0  # atno 8009 bound_to 7997
  154.4630  140.0928  156.6922 H   0  0  0  0  0  0  0  0  0  0  0  0  # atno 8010 bound_to 7997
  140.5431  143.9642  150.6531 H   0  0  0  0  0  0  0  0  0  0  0  0  # atno 10167 bound_to 10162
  156.6535  130.4961  149.6054 H   0  0  0  0  0  0  0  0  0  0  0  0  # atno 10718 bound_to 10713
  152.9839  135.5662  154.5294 H   0  0  0  0  0  0  0  0  0  0  0  0  # atno 10763 bound_to 10752
  154.4769  135.2787  155.1603 H   0  0  0  0  0  0  0  0  0  0  0  0  # atno 10764 bound_to 10752
  154.3128  135.6285  153.5526 H   0  0  0  0  0  0  0  0  0  0  0  0  # atno 10765 bound_to 10752
  139.9001  134.8214  156.2441 H   0  0  0  0  0  0  0  0  0  0  0  0  # atno 11005 bound_to 11000
  146.0395  139.3408  143.0706 LP  0  0  0  0  0  0  0  0  0  0  0  0  # atno 17320 bound_to 7965
  145.8353  140.9609  143.0828 LP  0  0  0  0  0  0  0  0  0  0  0  0  # atno 17321 bound_to 7965
  140.3048  143.3237  152.0937 LP  0  0  0  0  0  0  0  0  0  0  0  0  # atno 17342 bound_to 10162
  139.4996  144.6674  151.6324 LP  0  0  0  0  0  0  0  0  0  0  0  0  # atno 17343 bound_to 10162
  156.2066  130.6653  151.1224 LP  0  0  0  0  0  0  0  0  0  0  0  0  # atno 17370 bound_to 10713
  157.7133  131.0723  150.6421 LP  0  0  0  0  0  0  0  0  0  0  0  0  # atno 17371 bound_to 10713
  141.0266  133.7011  156.1358 LP  0  0  0  0  0  0  0  0  0  0  0  0  # atno 17394 bound_to 11000
  140.7157  134.4413  157.5578 LP  0  0  0  0  0  0  0  0  0  0  0  0  # atno 17395 bound_to 11000

$$$$
