AV-unprocessed.smi:2826|AV-procd|sdf|10893|dock9
  -GOLD-   2272015343D 1   1.00000     0.00000
 Structure written by MMmdl.
 50 51  0  0  0  0  0  0  0  0  1 V2000
  141.1918  134.7268  153.2174 C   0  0  0  0  0  0  0  0  0  0  0  0
  141.9323  134.9397  154.4141 O   0  0  0  0  0  0  0  0  0  0  0  0
  143.2444  135.3535  154.3079 C   0  0  0  0  0  0  0  0  0  0  0  0
  144.0185  135.4487  155.4799 C   0  0  0  0  0  0  0  0  0  0  0  0
  145.3568  135.8712  155.3782 C   0  0  0  0  0  0  0  0  0  0  0  0
  145.8821  136.1970  154.1045 C   0  0  0  0  0  0  0  0  0  0  0  0
  147.2284  136.6115  153.9020 N   0  0  0  0  0  0  0  0  0  0  0  0
  148.0868  137.1172  154.8039 C   0  0  0  0  0  0  0  0  0  0  0  0
  147.8303  137.3269  155.9895 O   0  0  0  0  0  0  0  0  0  0  0  0
  149.2727  137.3950  154.2434 N   0  0  0  0  0  0  0  0  0  0  0  0
  150.4162  137.9733  154.9433 C   0  0  1  0  0  0  0  0  0  0  0  0
  151.6481  137.9731  154.0274 C   0  0  0  0  0  0  0  0  0  0  0  0
  152.8188  138.7080  154.6986 C   0  0  0  0  0  0  0  0  0  0  0  0
  152.4250  140.0307  155.0475 O   0  0  0  0  0  0  0  0  0  0  0  0
  151.3668  140.0720  156.0023 C   0  0  1  0  0  0  0  0  0  0  0  0
  151.1078  141.5410  156.3860 C   0  0  0  0  0  0  0  0  0  0  0  0
  150.9323  141.7949  157.8991 C   0  0  0  0  0  0  0  0  0  0  0  0
  150.8245  143.2912  158.2392 C   0  0  0  0  0  0  0  0  0  0  0  0
  152.0804  141.1507  158.6910 C   0  0  0  0  0  0  0  0  0  0  0  0
  150.1151  139.4142  155.3902 C   0  0  0  0  0  0  0  0  0  0  0  0
  145.0274  136.0537  152.9848 C   0  0  0  0  0  0  0  0  0  0  0  0
  145.5076  136.3603  151.5771 C   0  0  0  0  0  0  0  0  0  0  0  0
  143.7422  135.6477  153.0820 N   0  0  0  0  0  0  0  0  0  0  0  0
  140.1803  134.4102  153.4708 H   0  0  0  0  0  0  0  0  0  0  0  0
  141.6399  133.9431  152.6052 H   0  0  0  0  0  0  0  0  0  0  0  0
  141.1138  135.6413  152.6281 H   0  0  0  0  0  0  0  0  0  0  0  0
  143.5950  135.1966  156.4410 H   0  0  0  0  0  0  0  0  0  0  0  0
  145.9568  135.9217  156.2737 H   0  0  0  0  0  0  0  0  0  0  0  0
  147.5503  136.5871  152.9457 H   0  0  0  0  0  0  0  0  0  0  0  0
  149.3941  137.1960  153.2612 H   0  0  0  0  0  0  0  0  0  0  0  0
  150.6444  137.3674  155.8227 H   0  0  0  0  0  0  0  0  0  0  0  0
  151.9397  136.9511  153.7823 H   0  0  0  0  0  0  0  0  0  0  0  0
  151.4106  138.4667  153.0836 H   0  0  0  0  0  0  0  0  0  0  0  0
  153.1586  138.1716  155.5861 H   0  0  0  0  0  0  0  0  0  0  0  0
  153.6674  138.7623  154.0165 H   0  0  0  0  0  0  0  0  0  0  0  0
  151.6582  139.5094  156.8898 H   0  0  0  0  0  0  0  0  0  0  0  0
  151.9398  142.1427  156.0174 H   0  0  0  0  0  0  0  0  0  0  0  0
  150.2232  141.9020  155.8595 H   0  0  0  0  0  0  0  0  0  0  0  0
  150.0102  141.3111  158.2235 H   0  0  0  0  0  0  0  0  0  0  0  0
  151.7000  143.8405  157.8922 H   0  0  0  0  0  0  0  0  0  0  0  0
  150.7444  143.4426  159.3160 H   0  0  0  0  0  0  0  0  0  0  0  0
  149.9432  143.7463  157.7884 H   0  0  0  0  0  0  0  0  0  0  0  0
  153.0424  141.5871  158.4198 H   0  0  0  0  0  0  0  0  0  0  0  0
  152.1363  140.0782  158.5027 H   0  0  0  0  0  0  0  0  0  0  0  0
  151.9436  141.2866  159.7643 H   0  0  0  0  0  0  0  0  0  0  0  0
  149.7768  140.0019  154.5353 H   0  0  0  0  0  0  0  0  0  0  0  0
  149.2998  139.4208  156.1146 H   0  0  0  0  0  0  0  0  0  0  0  0
  145.8719  137.3861  151.5146 H   0  0  0  0  0  0  0  0  0  0  0  0
  144.7068  136.2431  150.8453 H   0  0  0  0  0  0  0  0  0  0  0  0
  146.3193  135.6876  151.2993 H   0  0  0  0  0  0  0  0  0  0  0  0
  1  2  1  0  0  0  0
  1 24  1  0  0  0  0
  1 25  1  0  0  0  0
  1 26  1  0  0  0  0
  2  3  1  0  0  0  0
  3 23  1  0  0  0  0
  3  4  2  0  0  0  0
  4  5  1  0  0  0  0
  4 27  1  0  0  0  0
  5  6  2  0  0  0  0
  5 28  1  0  0  0  0
  6  7  1  0  0  0  0
  6 21  1  0  0  0  0
  7  8  1  0  0  0  0
  7 29  1  0  0  0  0
  8  9  2  0  0  0  0
  8 10  1  0  0  0  0
 10 11  1  0  0  0  0
 10 30  1  0  0  0  0
 11 20  1  0  0  0  0
 11 12  1  0  0  0  0
 11 31  1  0  0  0  0
 12 13  1  0  0  0  0
 12 32  1  0  0  0  0
 12 33  1  0  0  0  0
 13 14  1  0  0  0  0
 13 34  1  0  0  0  0
 13 35  1  0  0  0  0
 14 15  1  0  0  0  0
 15 16  1  0  0  0  0
 15 20  1  0  0  0  0
 15 36  1  0  0  0  0
 16 17  1  0  0  0  0
 16 37  1  0  0  0  0
 16 38  1  0  0  0  0
 17 18  1  0  0  0  0
 17 19  1  0  0  0  0
 17 39  1  0  0  0  0
 18 40  1  0  0  0  0
 18 41  1  0  0  0  0
 18 42  1  0  0  0  0
 19 43  1  0  0  0  0
 19 44  1  0  0  0  0
 19 45  1  0  0  0  0
 20 46  1  0  0  0  0
 20 47  1  0  0  0  0
 21 22  1  0  0  0  0
 21 23  2  0  0  0  0
 22 48  1  0  0  0  0
 22 49  1  0  0  0  0
 22 50  1  0  0  0  0
M  END
> <s_m_source_file>
AV-unprocessed.smi

> <i_m_source_file_index>
2826

> <i_lp_mmshare_version>
43012

> <i_f3d_flags>
0

> <s_epik_input>
W0NIM11PYzFbY0hdW2NIXWMoYyhuMSlbQ0gzXSlbTkhdQyg9TylbTkhdW0NAQEhdMltDSDJdW0NIMl1PW0NASF0oW0NIMl0yKVtDSDJdW0NIXShbQ0gzXSlbQ0gzXQ==

> <s_epik_cmdline>
J2VwaWtfcHl0aG9uJywgJy1waCcsICc3LjAnLCAnLXRuJywgJzgnLCAnLW1hJywgJzIwMCcsICctbWV0YWxfYmluZGluZycsICctaW1hZScsICc8aW5maWxlLm1hZT4nLCAnLW9tYWUnLCAnPG91dGZpbGUubWFlPic=

> <r_lp_tautomer_probability>
1

> <r_epik_Ionization_Penalty>
0.000249977

> <r_epik_Ionization_Penalty_Charging>
0

> <r_epik_Ionization_Penalty_Neutral>
0.000249977

> <r_epik_State_Penalty>
-0

> <r_epik_Charging_Adjusted_Penalty>
0

> <i_epik_Tot_Q>
0

> <i_epik_Tot_abs_Q>
0

> <r_epik_Metal_State_Penalty>
-0

> <b_epik_Metal_Only>
0

> <s_lp_Force_Field>
OPLS_2005

> <r_lp_Energy>
13.3691

> <b_lp_Chiralities_Consistent>
1

> <s_lp_Variant>
AV-unprocessed.smi:2826-2

> <Gold.Version>
5.8.1

> <Gold.Id.Protein>
6NUR|6NUR_protein|mol2

> <Gold.PLP.Fitness>
43.2027

> <Gold.PLP.PLP>
-33.9169

> <Gold.PLP.part.hbond>
-4.5919

> <Gold.PLP.part.metal>
0.0000

> <Gold.PLP.part.buried>
-4.7104

> <Gold.PLP.part.nonpolar>
-25.6565

> <Gold.PLP.part.repulsive>
0.2469

> <Gold.PLP.ligand.clash>
0.0000

> <Gold.PLP.ligand.torsion>
0.8275

> <Gold.PLP.Chemscore.Hbond>
3.6315

> <Gold.PLP.Chemscore.CHOScore>
0.0000

> <Gold.PLP.Chemscore.Metal>
0.0000

> <Gold.Chemscore.Hbonds>
donor molecule, donor type, donor heavy atom, donor atom, acceptor molecule, acceptor atom, score
      L1  H     7    29       P1  7948  0.91
      L1  H    10    30       P1  7948  1.00
      P1  H  7989  7998       L1    14  0.61
      P1  H  7997  8008       L1    14  0.16
      P1  H 11000 11005       L1     2  0.65

> <Gold.PLP.Chemscore.Internal.Correction>
0.0463

> <Gold.Rescore>
     Score         DG    S(hbond)    S(metal)    S(lipo)     H(rot)  DE(clash)    DE(int)     intcor
     16.88     -19.05       2.39        0.00      80.63       1.51       0.14       2.03       ----

> <Gold.Chemscore.Fitness>
16.8759

> <Gold.Chemscore.DG>
-19.0488

> <Gold.Chemscore.ZeroCoef>
-5.4800

> <Gold.Chemscore.Hbond>
2.3920

> <Gold.Chemscore.Metal>
0.0000

> <Gold.Chemscore.Lipo>
80.6330

> <Gold.Chemscore.Internal_Hbond>
0.0000

> <Gold.Chemscore.DEClash>
0.1429

> <Gold.Chemscore.DEInternal>
2.0299

> <Gold.Chemscore.Rot>
1.5057

> <Gold.Chemscore.Internal.Correction>
   9.000000E+99

> <Gold.Chemscore.Hbonds>
donor molecule, donor type, donor heavy atom, donor atom, acceptor molecule, acceptor atom, score
      L1  H     7    29       P1  7948  0.90
      L1  H    10    30       P1  7948  0.89
      P1  H  7989  7998       L1    14  0.19
      P1  H 11000 11005       L1     2  0.16

> <Gold.Chemscore.Hbond.Weighted>
-7.9894

> <Gold.Chemscore.Metal.Weighted>
-0.0000

> <Gold.Chemscore.Lipo.Weighted>
-9.4341

> <Gold.Chemscore.Internal_Hbond.Weighted>
0.0000

> <Gold.Chemscore.DEClash.Weighted>
0.1429

> <Gold.Chemscore.DEInternal.Weighted>
2.0299

> <Gold.Chemscore.Rot.Weighted>
3.8547

> <Gold.Chemscore.Internal.Correction.Weighted>
   9.000000E+99

> <Gold.Protein.RotatedTorsions>
[ 6907 6896 6895 6894 ] final -134.87 input  -60.11 | X-H torsion
[ 7974 7965 7964 7962 ] final -154.96 input  175.53 | X-H torsion
[ 8008 7997 7996 7995 ] final  -30.00 input   59.86 | X-H torsion
[ 10167 10162 10161 10158 ] final  153.91 input  -65.29 | X-H torsion
[ 10718 10713 10712 10709 ] final -126.87 input   66.30 | X-H torsion
[ 10763 10752 10751 10750 ] final   79.94 input  -60.55 | X-H torsion
[ 11005 11000 10999 10996 ] final    0.25 input  -57.11 | X-H torsion

> <Gold.Protein.ActiveResidues>
 VAL166  LYS551  ARG553  GLY616  TRP617  ASP618  TYR619  PRO620  LYS621  CYS622 
 ASP623  PHE694  ASN695  SER759  ASP760  ASP761  ALA762  ILE779  LEU786  VAL792 
 PHE793  MET794  SER795  GLU796  ALA797  LYS798  CYS799  TRP800  GLU811  SER814 

> <Gold.Protein.RotatedAtoms>
  150.9910  133.6149  159.2708 H   0  0  0  0  0  0  0  0  0  0  0  0  # atno 6907 bound_to 6896
  151.3370  135.0854  159.9368 H   0  0  0  0  0  0  0  0  0  0  0  0  # atno 6908 bound_to 6896
  152.5246  133.9529  159.7735 H   0  0  0  0  0  0  0  0  0  0  0  0  # atno 6909 bound_to 6896
  144.7663  140.4315  143.5939 H   0  0  0  0  0  0  0  0  0  0  0  0  # atno 7974 bound_to 7965
  154.4267  140.1803  156.1337 H   0  0  0  0  0  0  0  0  0  0  0  0  # atno 8008 bound_to 7997
  156.0047  140.3356  155.6856 H   0  0  0  0  0  0  0  0  0  0  0  0  # atno 8009 bound_to 7997
  155.6194  140.0658  157.2673 H   0  0  0  0  0  0  0  0  0  0  0  0  # atno 8010 bound_to 7997
  139.4825  144.5232  151.7842 H   0  0  0  0  0  0  0  0  0  0  0  0  # atno 10167 bound_to 10162
  156.1805  130.6728  151.0298 H   0  0  0  0  0  0  0  0  0  0  0  0  # atno 10718 bound_to 10713
  153.0993  135.4821  154.8837 H   0  0  0  0  0  0  0  0  0  0  0  0  # atno 10763 bound_to 10752
  154.7361  135.3071  154.8812 H   0  0  0  0  0  0  0  0  0  0  0  0  # atno 10764 bound_to 10752
  153.9434  135.6831  153.4797 H   0  0  0  0  0  0  0  0  0  0  0  0  # atno 10765 bound_to 10752
  140.6286  133.9595  155.8262 H   0  0  0  0  0  0  0  0  0  0  0  0  # atno 11005 bound_to 11000
  145.6460  139.1557  143.2889 LP  0  0  0  0  0  0  0  0  0  0  0  0  # atno 17320 bound_to 7965
  146.1773  140.6552  142.9205 LP  0  0  0  0  0  0  0  0  0  0  0  0  # atno 17321 bound_to 7965
  140.4749  144.1533  150.5923 LP  0  0  0  0  0  0  0  0  0  0  0  0  # atno 17342 bound_to 10162
  140.4342  143.2555  151.9557 LP  0  0  0  0  0  0  0  0  0  0  0  0  # atno 17343 bound_to 10162
  157.6864  131.0823  150.7229 LP  0  0  0  0  0  0  0  0  0  0  0  0  # atno 17370 bound_to 10713
  156.7286  130.4703  149.5505 LP  0  0  0  0  0  0  0  0  0  0  0  0  # atno 17371 bound_to 10713
  141.0691  134.0232  157.3551 LP  0  0  0  0  0  0  0  0  0  0  0  0  # atno 17394 bound_to 11000
  139.9125  135.0192  156.7748 LP  0  0  0  0  0  0  0  0  0  0  0  0  # atno 17395 bound_to 11000

$$$$
