AV-unprocessed.smi:1565|AV-procd|sdf|6302|dock9
  -GOLD-   22720 6503D 1   1.00000     0.00000
 Structure written by MMmdl.
 39 40  0  0  0  0  0  0  0  0  2 V2000
  150.8081  142.8392  156.6367 C   0  0  0  0  0  0  0  0  0  0  0  0
  150.4039  142.5724  158.0976 C   0  0  1  0  0  0  0  0  0  0  0  0
  151.1876  141.4158  158.7479 C   0  0  0  0  0  0  0  0  0  0  0  0
  152.5474  141.8276  159.0841 N   0  0  0  0  0  0  0  0  0  0  0  0
  153.4292  140.7777  159.4177 C   0  0  0  0  0  0  0  0  0  0  0  0
  154.2724  140.8944  160.5469 C   0  0  0  0  0  0  0  0  0  0  0  0
  155.1524  139.8403  160.8591 C   0  0  0  0  0  0  0  0  0  0  0  0
  155.1654  138.6868  160.0420 C   0  0  0  0  0  0  0  0  0  0  0  0
  156.1067  137.5394  160.2915 C   0  0  0  0  0  0  0  0  0  0  0  0
  156.5449  136.9267  159.3114 O   0  0  0  0  0  0  0  0  0  0  0  0
  156.3063  137.3086  161.6201 N   0  5  0  0  0  0  0  0  0  0  0  0
  155.7499  136.1667  162.3501 C   0  0  0  0  0  0  0  0  0  0  0  0
  154.6461  136.6105  163.3317 C   0  0  0  0  0  0  0  0  0  0  0  0
  153.6485  137.1620  162.6407 F   0  0  0  0  0  0  0  0  0  0  0  0
  154.1639  135.5646  164.0046 F   0  0  0  0  0  0  0  0  0  0  0  0
  155.1060  137.5147  164.1976 F   0  0  0  0  0  0  0  0  0  0  0  0
  154.2903  138.6664  158.9348 C   0  0  0  0  0  0  0  0  0  0  0  0
  153.4430  139.6734  158.6319 N   0  0  0  0  0  0  0  0  0  0  0  0
  152.5960  143.0451  159.8883 C   0  0  0  0  0  0  0  0  0  0  0  0
  151.8237  144.1785  159.1906 C   0  0  2  0  0  0  0  0  0  0  0  0
  151.7388  145.4338  160.0648 C   0  0  0  0  0  0  0  0  0  0  0  0
  150.4931  143.7473  158.9068 O   0  0  0  0  0  0  0  0  0  0  0  0
  150.6016  141.9679  156.0150 H   0  0  0  0  0  0  0  0  0  0  0  0
  151.8698  143.0627  156.5353 H   0  0  0  0  0  0  0  0  0  0  0  0
  150.2474  143.6784  156.2246 H   0  0  0  0  0  0  0  0  0  0  0  0
  149.3502  142.2925  158.0859 H   0  0  0  0  0  0  0  0  0  0  0  0
  150.6887  141.1098  159.6684 H   0  0  0  0  0  0  0  0  0  0  0  0
  151.1742  140.5512  158.0853 H   0  0  0  0  0  0  0  0  0  0  0  0
  154.2486  141.7701  161.1782 H   0  0  0  0  0  0  0  0  0  0  0  0
  155.8067  139.9291  161.7141 H   0  0  0  0  0  0  0  0  0  0  0  0
  155.3478  135.4056  161.6794 H   0  0  0  0  0  0  0  0  0  0  0  0
  156.5323  135.6585  162.9146 H   0  0  0  0  0  0  0  0  0  0  0  0
  154.2612  137.8173  158.2674 H   0  0  0  0  0  0  0  0  0  0  0  0
  152.1660  142.8432  160.8706 H   0  0  0  0  0  0  0  0  0  0  0  0
  153.6309  143.3540  160.0417 H   0  0  0  0  0  0  0  0  0  0  0  0
  152.3286  144.4476  158.2628 H   0  0  0  0  0  0  0  0  0  0  0  0
  152.7324  145.8129  160.3048 H   0  0  0  0  0  0  0  0  0  0  0  0
  151.2232  145.2271  161.0029 H   0  0  0  0  0  0  0  0  0  0  0  0
  151.1948  146.2282  159.5532 H   0  0  0  0  0  0  0  0  0  0  0  0
  1  2  1  0  0  0  0
  1 23  1  0  0  0  0
  1 24  1  0  0  0  0
  1 25  1  0  0  0  0
  2 22  1  0  0  0  0
  2  3  1  0  0  0  0
  2 26  1  0  0  0  0
  3  4  1  0  0  0  0
  3 27  1  0  0  0  0
  3 28  1  0  0  0  0
  4  5  1  0  0  0  0
  4 19  1  0  0  0  0
  5 18  1  0  0  0  0
  5  6  2  0  0  0  0
  6  7  1  0  0  0  0
  6 29  1  0  0  0  0
  7  8  2  0  0  0  0
  7 30  1  0  0  0  0
  8  9  1  0  0  0  0
  8 17  1  0  0  0  0
  9 10  2  0  0  0  0
  9 11  1  0  0  0  0
 11 12  1  0  0  0  0
 12 13  1  0  0  0  0
 12 31  1  0  0  0  0
 12 32  1  0  0  0  0
 13 14  1  0  0  0  0
 13 15  1  0  0  0  0
 13 16  1  0  0  0  0
 17 18  2  0  0  0  0
 17 33  1  0  0  0  0
 19 20  1  0  0  0  0
 19 34  1  0  0  0  0
 19 35  1  0  0  0  0
 20 21  1  0  0  0  0
 20 22  1  0  0  0  0
 20 36  1  0  0  0  0
 21 37  1  0  0  0  0
 21 38  1  0  0  0  0
 21 39  1  0  0  0  0
M  CHG  1  11  -1
M  END
> <s_m_source_file>
AV-unprocessed.smi

> <i_m_source_file_index>
1565

> <i_lp_mmshare_version>
43012

> <i_f3d_flags>
0

> <s_epik_input>
W0NIM11bQ0BASF0xW0NIMl1OKFtDSDJdW0NASF0oTzEpW0NIM10pYzJbY0hdW2NIXWMoW2NIXW4yKUMoPU8pW05IXVtDSDJdQyhGKShGKUY=

> <s_epik_cmdline>
J2VwaWtfcHl0aG9uJywgJy1waCcsICc3LjAnLCAnLXRuJywgJzgnLCAnLW1hJywgJzIwMCcsICctbWV0YWxfYmluZGluZycsICctaW1hZScsICc8aW5maWxlLm1hZT4nLCAnLW9tYWUnLCAnPG91dGZpbGUubWFlPic=

> <r_lp_tautomer_probability>
1

> <r_epik_Ionization_Penalty>
6.78525

> <r_epik_Ionization_Penalty_Charging>
6.78469

> <r_epik_Ionization_Penalty_Neutral>
0.000559052

> <r_epik_State_Penalty>
6.78469

> <r_epik_Charging_Adjusted_Penalty>
13.5694

> <i_epik_Tot_Q>
-1

> <i_epik_Tot_abs_Q>
1

> <r_epik_Metal_State_Penalty>
2.70441

> <b_epik_Metal_Only>
1

> <s_lp_Force_Field>
OPLS_2005

> <r_lp_Energy>
29.3503

> <b_lp_Chiralities_Consistent>
1

> <s_lp_Variant>
AV-unprocessed.smi:1565-6

> <Gold.Version>
5.8.1

> <Gold.Id.Protein>
6NUR|6NUR_protein|mol2

> <Gold.PLP.Fitness>
41.9552

> <Gold.PLP.PLP>
-41.7157

> <Gold.PLP.part.hbond>
-1.0000

> <Gold.PLP.part.metal>
0.0000

> <Gold.PLP.part.buried>
-5.3692

> <Gold.PLP.part.nonpolar>
-35.6277

> <Gold.PLP.part.repulsive>
0.1554

> <Gold.PLP.ligand.clash>
0.0000

> <Gold.PLP.ligand.torsion>
1.3928

> <Gold.PLP.Chemscore.Hbond>
0.9000

> <Gold.PLP.Chemscore.CHOScore>
0.0000

> <Gold.PLP.Chemscore.Metal>
0.0000

> <Gold.Chemscore.Hbonds>
donor molecule, donor type, donor heavy atom, donor atom, acceptor molecule, acceptor atom, score
      P1  H  7997  8008       L1    18  0.35

> <Gold.PLP.Chemscore.Internal.Correction>
0.3250

> <Gold.Rescore>
     Score         DG    S(hbond)    S(metal)    S(lipo)     H(rot)  DE(clash)    DE(int)     intcor
     12.49     -14.04       0.01        0.00     101.17       1.29       0.28       1.27       ----

> <Gold.Chemscore.Fitness>
12.4939

> <Gold.Chemscore.DG>
-14.0413

> <Gold.Chemscore.ZeroCoef>
-5.4800

> <Gold.Chemscore.Hbond>
0.0095

> <Gold.Chemscore.Metal>
0.0000

> <Gold.Chemscore.Lipo>
101.1741

> <Gold.Chemscore.Internal_Hbond>
0.0000

> <Gold.Chemscore.DEClash>
0.2790

> <Gold.Chemscore.DEInternal>
1.2684

> <Gold.Chemscore.Rot>
1.2921

> <Gold.Chemscore.Internal.Correction>
   9.000000E+99

> <Gold.Chemscore.Hbond.Weighted>
-0.0317

> <Gold.Chemscore.Metal.Weighted>
-0.0000

> <Gold.Chemscore.Lipo.Weighted>
-11.8374

> <Gold.Chemscore.Internal_Hbond.Weighted>
0.0000

> <Gold.Chemscore.DEClash.Weighted>
0.2790

> <Gold.Chemscore.DEInternal.Weighted>
1.2684

> <Gold.Chemscore.Rot.Weighted>
3.3078

> <Gold.Chemscore.Internal.Correction.Weighted>
   9.000000E+99

> <Gold.Protein.RotatedTorsions>
[ 6907 6896 6895 6894 ] final  -59.30 input  -60.11 | X-H torsion
[ 7974 7965 7964 7962 ] final  -35.29 input  175.53 | X-H torsion
[ 8008 7997 7996 7995 ] final  -87.70 input   59.86 | X-H torsion
[ 10167 10162 10161 10158 ] final  -94.25 input  -65.29 | X-H torsion
[ 10718 10713 10712 10709 ] final -171.01 input   66.30 | X-H torsion
[ 10763 10752 10751 10750 ] final   65.33 input  -60.55 | X-H torsion
[ 11005 11000 10999 10996 ] final -100.26 input  -57.11 | X-H torsion

> <Gold.Protein.ActiveResidues>
 VAL166  LYS551  ARG553  GLY616  TRP617  ASP618  TYR619  PRO620  LYS621  CYS622 
 ASP623  PHE694  ASN695  SER759  ASP760  ASP761  ALA762  ILE779  LEU786  VAL792 
 PHE793  MET794  SER795  GLU796  ALA797  LYS798  CYS799  TRP800  GLU811  SER814 

> <Gold.Protein.RotatedAtoms>
  150.7941  134.6987  159.6537 H   0  0  0  0  0  0  0  0  0  0  0  0  # atno 6907 bound_to 6896
  152.4051  134.6218  160.0062 H   0  0  0  0  0  0  0  0  0  0  0  0  # atno 6908 bound_to 6896
  151.6478  133.3285  159.3181 H   0  0  0  0  0  0  0  0  0  0  0  0  # atno 6909 bound_to 6896
  146.0759  140.6141  142.8931 H   0  0  0  0  0  0  0  0  0  0  0  0  # atno 7974 bound_to 7965
  154.6662  140.0562  157.0116 H   0  0  0  0  0  0  0  0  0  0  0  0  # atno 8008 bound_to 7997
  155.1155  140.3242  155.4492 H   0  0  0  0  0  0  0  0  0  0  0  0  # atno 8009 bound_to 7997
  156.2639  140.2006  156.6279 H   0  0  0  0  0  0  0  0  0  0  0  0  # atno 8010 bound_to 7997
  140.3163  143.3075  152.0094 H   0  0  0  0  0  0  0  0  0  0  0  0  # atno 10167 bound_to 10162
  156.7346  130.9319  151.3106 H   0  0  0  0  0  0  0  0  0  0  0  0  # atno 10718 bound_to 10713
  153.0092  135.5361  154.6650 H   0  0  0  0  0  0  0  0  0  0  0  0  # atno 10763 bound_to 10752
  154.5849  135.2853  155.0697 H   0  0  0  0  0  0  0  0  0  0  0  0  # atno 10764 bound_to 10752
  154.1812  135.6516  153.5087 H   0  0  0  0  0  0  0  0  0  0  0  0  # atno 10765 bound_to 10752
  141.1277  133.8385  157.1079 H   0  0  0  0  0  0  0  0  0  0  0  0  # atno 11005 bound_to 11000
  144.7261  140.4528  143.6972 LP  0  0  0  0  0  0  0  0  0  0  0  0  # atno 17320 bound_to 7965
  145.6308  139.1536  143.2970 LP  0  0  0  0  0  0  0  0  0  0  0  0  # atno 17321 bound_to 7965
  139.4883  144.6346  151.7002 LP  0  0  0  0  0  0  0  0  0  0  0  0  # atno 17342 bound_to 10162
  140.5523  144.0405  150.6132 LP  0  0  0  0  0  0  0  0  0  0  0  0  # atno 17343 bound_to 10162
  157.6844  130.9171  150.0349 LP  0  0  0  0  0  0  0  0  0  0  0  0  # atno 17370 bound_to 10713
  156.1506  130.3642  149.9445 LP  0  0  0  0  0  0  0  0  0  0  0  0  # atno 17371 bound_to 10713
  140.0293  134.9909  157.0748 LP  0  0  0  0  0  0  0  0  0  0  0  0  # atno 17394 bound_to 11000
  140.4311  134.1779  155.7168 LP  0  0  0  0  0  0  0  0  0  0  0  0  # atno 17395 bound_to 11000

$$$$
