AV-unprocessed.smi:162|AV-procd|sdf|1377|dock8
  -GOLD-   2262019103D 1   1.00000     0.00000
 Structure written by MMmdl.
 54 57  0  0  0  0  0  0  0  0  1 V2000
  155.3205  140.2355  160.1506 C   0  0  0  0  0  0  0  0  0  0  0  0
  154.2982  140.8826  159.4140 O   0  0  0  0  0  0  0  0  0  0  0  0
  153.1360  140.0817  159.2815 C   0  0  0  0  0  0  0  0  0  0  0  0
  151.9341  140.9885  158.9721 C   0  0  1  0  0  0  0  0  0  0  0  0
  151.9165  142.2944  159.7639 C   0  0  0  0  0  0  0  0  0  0  0  0
  150.9474  143.1439  158.9420 C   0  0  1  0  0  0  0  0  0  0  0  0
  151.1427  144.5412  159.1030 O   0  0  0  0  0  0  0  0  0  0  0  0
  152.4307  144.9820  158.7060 C   0  0  0  0  0  0  0  0  0  0  0  0
  151.2494  142.7166  157.5004 C   0  0  0  0  0  0  0  0  0  0  0  0
  151.8902  141.4060  157.5741 N   0  0  0  0  0  0  0  0  0  0  0  0
  151.4028  140.4772  156.7230 C   0  0  0  0  0  0  0  0  0  0  0  0
  151.9527  139.2399  156.7792 N   0  0  0  0  0  0  0  0  0  0  0  0
  151.5010  138.2721  155.9754 C   0  0  0  0  0  0  0  0  0  0  0  0
  150.5256  138.3288  155.0657 N   0  0  0  0  0  0  0  0  0  0  0  0
  149.9704  139.5736  155.0101 C   0  0  0  0  0  0  0  0  0  0  0  0
  150.3467  140.6991  155.7945 C   0  0  0  0  0  0  0  0  0  0  0  0
  149.5588  141.7949  155.4626 N   0  0  0  0  0  0  0  0  0  0  0  0
  148.7594  141.3411  154.5359 C   0  0  0  0  0  0  0  0  0  0  0  0
  148.9314  140.0146  154.2095 N   0  0  0  0  0  0  0  0  0  0  0  0
  148.1752  139.2528  153.2276 C   0  0  0  0  0  0  0  0  0  0  0  0
  146.7849  138.7915  153.7308 C   0  0  0  0  0  0  0  0  0  0  0  0
  146.0176  139.9534  153.9957 O   0  0  0  0  0  0  0  0  0  0  0  0
  146.0636  137.9693  152.6439 C   0  0  0  0  0  0  0  0  0  0  0  0
  144.7517  137.3508  153.1587 C   0  0  0  0  0  0  0  0  0  0  0  0
  145.0054  136.5659  154.3176 O   0  0  0  0  0  0  0  0  0  0  0  0
  145.5101  137.3342  155.4030 C   0  0  0  0  0  0  0  0  0  0  0  0
  146.8672  137.9549  155.0268 C   0  0  0  0  0  0  0  0  0  0  0  0
  151.0208  140.4382  159.2042 H   0  0  0  0  0  0  0  0  0  0  0  0
  149.9185  142.8665  159.1799 H   0  0  0  0  0  0  0  0  0  0  0  0
  156.1893  140.8896  160.2243 H   0  0  0  0  0  0  0  0  0  0  0  0
  155.6345  139.3124  159.6620 H   0  0  0  0  0  0  0  0  0  0  0  0
  154.9888  140.0008  161.1629 H   0  0  0  0  0  0  0  0  0  0  0  0
  153.2697  139.3434  158.4888 H   0  0  0  0  0  0  0  0  0  0  0  0
  152.9665  139.5365  160.2115 H   0  0  0  0  0  0  0  0  0  0  0  0
  151.5970  142.1580  160.7973 H   0  0  0  0  0  0  0  0  0  0  0  0
  152.9076  142.7509  159.7681 H   0  0  0  0  0  0  0  0  0  0  0  0
  152.5196  146.0531  158.8868 H   0  0  0  0  0  0  0  0  0  0  0  0
  152.6047  144.8083  157.6436 H   0  0  0  0  0  0  0  0  0  0  0  0
  153.2134  144.4800  159.2761 H   0  0  0  0  0  0  0  0  0  0  0  0
  150.3511  142.7331  156.8816 H   0  0  0  0  0  0  0  0  0  0  0  0
  151.9652  143.4031  157.0475 H   0  0  0  0  0  0  0  0  0  0  0  0
  151.9893  137.3143  156.0782 H   0  0  0  0  0  0  0  0  0  0  0  0
  148.0104  141.9629  154.0673 H   0  0  0  0  0  0  0  0  0  0  0  0
  148.0721  139.8610  152.3277 H   0  0  0  0  0  0  0  0  0  0  0  0
  148.7729  138.3870  152.9399 H   0  0  0  0  0  0  0  0  0  0  0  0
  145.3501  140.0295  153.3309 H   0  0  0  0  0  0  0  0  0  0  0  0
  145.8680  138.5839  151.7641 H   0  0  0  0  0  0  0  0  0  0  0  0
  146.7162  137.1609  152.3114 H   0  0  0  0  0  0  0  0  0  0  0  0
  144.0127  138.1218  153.3815 H   0  0  0  0  0  0  0  0  0  0  0  0
  144.3167  136.7106  152.3910 H   0  0  0  0  0  0  0  0  0  0  0  0
  144.7899  138.1040  155.6845 H   0  0  0  0  0  0  0  0  0  0  0  0
  145.6274  136.6822  156.2687 H   0  0  0  0  0  0  0  0  0  0  0  0
  147.5893  137.1492  154.8882 H   0  0  0  0  0  0  0  0  0  0  0  0
  147.2361  138.5574  155.8579 H   0  0  0  0  0  0  0  0  0  0  0  0
  1  2  1  0  0  0  0
  1 30  1  0  0  0  0
  1 31  1  0  0  0  0
  1 32  1  0  0  0  0
  2  3  1  0  0  0  0
  3  4  1  0  0  0  0
  3 33  1  0  0  0  0
  3 34  1  0  0  0  0
  4 28  1  0  0  0  0
  4 10  1  0  0  0  0
  4  5  1  0  0  0  0
  5  6  1  0  0  0  0
  5 35  1  0  0  0  0
  5 36  1  0  0  0  0
  6 29  1  0  0  0  0
  6  7  1  0  0  0  0
  6  9  1  0  0  0  0
  7  8  1  0  0  0  0
  8 37  1  0  0  0  0
  8 38  1  0  0  0  0
  8 39  1  0  0  0  0
  9 10  1  0  0  0  0
  9 40  1  0  0  0  0
  9 41  1  0  0  0  0
 10 11  1  0  0  0  0
 11 16  1  0  0  0  0
 11 12  2  0  0  0  0
 12 13  1  0  0  0  0
 13 14  2  0  0  0  0
 13 42  1  0  0  0  0
 14 15  1  0  0  0  0
 15 19  1  0  0  0  0
 15 16  2  0  0  0  0
 16 17  1  0  0  0  0
 17 18  2  0  0  0  0
 18 19  1  0  0  0  0
 18 43  1  0  0  0  0
 19 20  1  0  0  0  0
 20 21  1  0  0  0  0
 20 44  1  0  0  0  0
 20 45  1  0  0  0  0
 21 27  1  0  0  0  0
 21 22  1  0  0  0  0
 21 23  1  0  0  0  0
 22 46  1  0  0  0  0
 23 24  1  0  0  0  0
 23 47  1  0  0  0  0
 23 48  1  0  0  0  0
 24 25  1  0  0  0  0
 24 49  1  0  0  0  0
 24 50  1  0  0  0  0
 25 26  1  0  0  0  0
 26 27  1  0  0  0  0
 26 51  1  0  0  0  0
 26 52  1  0  0  0  0
 27 53  1  0  0  0  0
 27 54  1  0  0  0  0
M  END
> <s_m_source_file>
AV-unprocessed.smi

> <i_m_source_file_index>
162

> <i_lp_mmshare_version>
43012

> <i_f3d_flags>
0

> <s_epik_input>
W0NIM11PW0NIMl1bQ0BASF0xW0NIMl1bQ0BASF0oT1tDSDNdKVtDSDJdTjFjKG5bY0hdbjIpYyhjMjMpbltjSF1uM1tDSDJdQzQoW09IXSlbQ0gyXVtDSDJdT1tDSDJdW0NIMl00

> <s_epik_cmdline>
J2VwaWtfcHl0aG9uJywgJy1waCcsICc3LjAnLCAnLXRuJywgJzgnLCAnLW1hJywgJzIwMCcsICctbWV0YWxfYmluZGluZycsICctaW1hZScsICc8aW5maWxlLm1hZT4nLCAnLW9tYWUnLCAnPG91dGZpbGUubWFlPic=

> <r_lp_tautomer_probability>
1

> <r_epik_Ionization_Penalty>
0.00660334

> <r_epik_Ionization_Penalty_Charging>
0

> <r_epik_Ionization_Penalty_Neutral>
0.00660334

> <r_epik_State_Penalty>
0.00469459

> <r_epik_Charging_Adjusted_Penalty>
0.00469459

> <i_epik_Tot_Q>
0

> <i_epik_Tot_abs_Q>
0

> <r_epik_Metal_State_Penalty>
-0

> <b_epik_Metal_Only>
0

> <s_lp_Force_Field>
OPLS_2005

> <r_lp_Energy>
41.7702

> <b_lp_Chiralities_Consistent>
1

> <s_lp_Variant>
AV-unprocessed.smi:162-2

> <Gold.Version>
5.8.1

> <Gold.Id.Protein>
6NUR|6NUR_protein|mol2

> <Gold.PLP.Fitness>
38.1579

> <Gold.PLP.PLP>
-36.2223

> <Gold.PLP.part.hbond>
-1.3431

> <Gold.PLP.part.metal>
0.0000

> <Gold.PLP.part.buried>
1.3336

> <Gold.PLP.part.nonpolar>
-36.4080

> <Gold.PLP.part.repulsive>
1.2682

> <Gold.PLP.ligand.clash>
0.0000

> <Gold.PLP.ligand.torsion>
0.6091

> <Gold.PLP.Chemscore.Hbond>
1.0000

> <Gold.PLP.Chemscore.CHOScore>
0.0000

> <Gold.PLP.Chemscore.Metal>
0.0000

> <Gold.Chemscore.Hbonds>
donor molecule, donor type, donor heavy atom, donor atom, acceptor molecule, acceptor atom, score
      L1  H    22    46       P1 10175  1.00
      P1  H  7997  8010       L1     2  0.01

> <Gold.PLP.Chemscore.Internal.Correction>
0.1538

> <Gold.Rescore>
     Score         DG    S(hbond)    S(metal)    S(lipo)     H(rot)  DE(clash)    DE(int)     intcor
      6.52     -12.80       0.98        0.00      97.27       2.86       3.04       3.24       ----

> <Gold.Chemscore.Fitness>
6.5234

> <Gold.Chemscore.DG>
-12.8025

> <Gold.Chemscore.ZeroCoef>
-5.4800

> <Gold.Chemscore.Hbond>
0.9805

> <Gold.Chemscore.Metal>
0.0000

> <Gold.Chemscore.Lipo>
97.2656

> <Gold.Chemscore.Internal_Hbond>
0.0000

> <Gold.Chemscore.DEClash>
3.0390

> <Gold.Chemscore.DEInternal>
3.2400

> <Gold.Chemscore.Rot>
2.8642

> <Gold.Chemscore.Internal.Correction>
   9.000000E+99

> <Gold.Chemscore.Hbonds>
donor molecule, donor type, donor heavy atom, donor atom, acceptor molecule, acceptor atom, score
      L1  H    22    46       P1 10175  0.99

> <Gold.Chemscore.Hbond.Weighted>
-3.2748

> <Gold.Chemscore.Metal.Weighted>
-0.0000

> <Gold.Chemscore.Lipo.Weighted>
-11.3801

> <Gold.Chemscore.Internal_Hbond.Weighted>
0.0000

> <Gold.Chemscore.DEClash.Weighted>
3.0390

> <Gold.Chemscore.DEInternal.Weighted>
3.2400

> <Gold.Chemscore.Rot.Weighted>
7.3324

> <Gold.Chemscore.Internal.Correction.Weighted>
   9.000000E+99

> <Gold.Protein.RotatedTorsions>
[ 6907 6896 6895 6894 ] final  -67.38 input  -60.11 | X-H torsion
[ 7974 7965 7964 7962 ] final -179.81 input  175.53 | X-H torsion
[ 8008 7997 7996 7995 ] final  -11.00 input   59.86 | X-H torsion
[ 10167 10162 10161 10158 ] final -167.11 input  -65.29 | X-H torsion
[ 10718 10713 10712 10709 ] final  -65.03 input   66.30 | X-H torsion
[ 10763 10752 10751 10750 ] final  -38.62 input  -60.55 | X-H torsion
[ 11005 11000 10999 10996 ] final -130.58 input  -57.11 | X-H torsion

> <Gold.Protein.ActiveResidues>
 VAL166  LYS551  ARG553  GLY616  TRP617  ASP618  TYR619  PRO620  LYS621  CYS622 
 ASP623  PHE694  ASN695  SER759  ASP760  ASP761  ALA762  ILE779  LEU786  VAL792 
 PHE793  MET794  SER795  GLU796  ALA797  LYS798  CYS799  TRP800  GLU811  SER814 

> <Gold.Protein.RotatedAtoms>
  150.7413  134.5889  159.5976 H   0  0  0  0  0  0  0  0  0  0  0  0  # atno 6907 bound_to 6896
  152.3282  134.7290  160.0305 H   0  0  0  0  0  0  0  0  0  0  0  0  # atno 6908 bound_to 6896
  151.7782  133.3311  159.3500 H   0  0  0  0  0  0  0  0  0  0  0  0  # atno 6909 bound_to 6896
  144.7139  140.0662  143.6431 H   0  0  0  0  0  0  0  0  0  0  0  0  # atno 7974 bound_to 7965
  154.5504  140.2314  155.8495 H   0  0  0  0  0  0  0  0  0  0  0  0  # atno 8008 bound_to 7997
  156.1941  140.3069  155.9353 H   0  0  0  0  0  0  0  0  0  0  0  0  # atno 8009 bound_to 7997
  155.3082  140.0434  157.3024 H   0  0  0  0  0  0  0  0  0  0  0  0  # atno 8010 bound_to 7997
  139.6070  144.0892  152.1803 H   0  0  0  0  0  0  0  0  0  0  0  0  # atno 10167 bound_to 10162
  156.0693  130.4241  150.1505 H   0  0  0  0  0  0  0  0  0  0  0  0  # atno 10718 bound_to 10713
  153.9158  135.6787  153.4749 H   0  0  0  0  0  0  0  0  0  0  0  0  # atno 10763 bound_to 10752
  153.1054  135.4808  154.8939 H   0  0  0  0  0  0  0  0  0  0  0  0  # atno 10764 bound_to 10752
  154.7503  135.3183  154.8525 H   0  0  0  0  0  0  0  0  0  0  0  0  # atno 10765 bound_to 10752
  140.9333  134.1290  157.4215 H   0  0  0  0  0  0  0  0  0  0  0  0  # atno 11005 bound_to 11000
  145.9822  139.2950  143.1035 LP  0  0  0  0  0  0  0  0  0  0  0  0  # atno 17320 bound_to 7965
  145.8998  140.9250  143.0509 LP  0  0  0  0  0  0  0  0  0  0  0  0  # atno 17321 bound_to 7965
  140.0501  144.5939  150.7342 LP  0  0  0  0  0  0  0  0  0  0  0  0  # atno 17342 bound_to 10162
  140.7292  143.2670  151.4012 LP  0  0  0  0  0  0  0  0  0  0  0  0  # atno 17343 bound_to 10162
  156.9559  130.9789  151.3489 LP  0  0  0  0  0  0  0  0  0  0  0  0  # atno 17370 bound_to 10713
  157.5755  130.8340  149.8450 LP  0  0  0  0  0  0  0  0  0  0  0  0  # atno 17371 bound_to 10713
  139.8801  135.0012  156.6056 LP  0  0  0  0  0  0  0  0  0  0  0  0  # atno 17394 bound_to 11000
  140.7833  133.8642  155.8585 LP  0  0  0  0  0  0  0  0  0  0  0  0  # atno 17395 bound_to 11000

$$$$
