AV-unprocessed.smi:287|AV-procd|sdf|2202|dock8
  -GOLD-   2262022 23D 1   1.00000     0.00000
 Structure written by MMmdl.
 55 58  0  0  0  0  0  0  0  0  1 V2000
  151.9892  142.9923  159.2571 C   0  0  0  0  0  0  0  0  0  0  0  0
  150.9001  142.5615  158.3351 C   0  0  0  0  0  0  0  0  0  0  0  0
  150.8823  142.0267  157.0801 C   0  0  0  0  0  0  0  0  0  0  0  0
  149.5158  141.8227  156.7226 C   0  0  0  0  0  0  0  0  0  0  0  0
  149.0118  141.2497  155.4049 C   0  0  2  0  0  0  0  0  0  0  0  0
  149.7502  139.9376  155.0932 C   0  0  0  0  0  0  0  0  0  0  0  0
  149.2688  142.0970  154.3017 O   0  0  0  0  0  0  0  0  0  0  0  0
  147.4849  141.0109  155.4104 C   0  0  0  0  0  0  0  0  0  0  0  0
  147.0388  140.1569  154.3172 N   0  0  0  0  0  0  0  0  0  0  0  0
  146.6786  138.8752  154.5380 C   0  0  0  0  0  0  0  0  0  0  0  0
  146.7773  138.4568  155.8222 N   0  0  0  0  0  0  0  0  0  0  0  0
  146.4475  137.2044  156.1476 C   0  0  0  0  0  0  0  0  0  0  0  0
  146.0054  136.2270  155.3557 N   0  0  0  0  0  0  0  0  0  0  0  0
  145.9017  136.6377  154.0586 C   0  0  0  0  0  0  0  0  0  0  0  0
  146.2143  137.9381  153.5666 C   0  0  0  0  0  0  0  0  0  0  0  0
  145.9794  137.9765  152.1958 N   0  0  0  0  0  0  0  0  0  0  0  0
  145.5584  136.7767  151.9033 C   0  0  0  0  0  0  0  0  0  0  0  0
  145.4873  135.9042  152.9645 N   0  0  0  0  0  0  0  0  0  0  0  0
  145.0544  134.4711  152.9374 C   0  0  2  0  0  0  0  0  0  0  0  0
  145.8904  133.7757  152.0679 O   0  0  0  0  0  0  0  0  0  0  0  0
  145.1359  132.7738  151.3976 C   0  0  2  0  0  0  0  0  0  0  0  0
  145.8620  132.2934  150.1287 C   0  0  0  0  0  0  0  0  0  0  0  0
  147.2586  132.4115  150.2963 O   0  0  0  0  0  0  0  0  0  0  0  0
  143.7770  133.4528  151.1704 C   0  0  2  0  0  0  0  0  0  0  0  0
  143.7915  134.2433  149.9937 O   0  0  0  0  0  0  0  0  0  0  0  0
  143.6043  134.2840  152.4412 C   0  0  2  0  0  0  0  0  0  0  0  0
  142.8594  135.4763  152.2493 O   0  0  0  0  0  0  0  0  0  0  0  0
  148.7993  142.2705  157.8068 C   0  0  0  0  0  0  0  0  0  0  0  0
  147.3422  142.3705  158.1181 C   0  0  0  0  0  0  0  0  0  0  0  0
  149.6312  142.7157  158.7897 O   0  0  0  0  0  0  0  0  0  0  0  0
  145.1975  134.1200  153.9603 H   0  0  0  0  0  0  0  0  0  0  0  0
  144.9860  131.9378  152.0841 H   0  0  0  0  0  0  0  0  0  0  0  0
  142.9790  132.7171  151.0638 H   0  0  0  0  0  0  0  0  0  0  0  0
  143.0905  133.6815  153.1914 H   0  0  0  0  0  0  0  0  0  0  0  0
  152.9525  142.5977  158.9330 H   0  0  0  0  0  0  0  0  0  0  0  0
  151.8033  142.6374  160.2709 H   0  0  0  0  0  0  0  0  0  0  0  0
  152.0620  144.0796  159.2864 H   0  0  0  0  0  0  0  0  0  0  0  0
  151.7541  141.8026  156.4832 H   0  0  0  0  0  0  0  0  0  0  0  0
  149.5826  139.1952  155.8744 H   0  0  0  0  0  0  0  0  0  0  0  0
  150.8268  140.0965  155.0179 H   0  0  0  0  0  0  0  0  0  0  0  0
  149.4135  139.5023  154.1514 H   0  0  0  0  0  0  0  0  0  0  0  0
  148.9754  142.9687  154.5188 H   0  0  0  0  0  0  0  0  0  0  0  0
  147.1616  140.6007  156.3682 H   0  0  0  0  0  0  0  0  0  0  0  0
  146.9850  141.9730  155.2911 H   0  0  0  0  0  0  0  0  0  0  0  0
  147.0148  140.5908  153.4053 H   0  0  0  0  0  0  0  0  0  0  0  0
  146.5536  136.9483  157.1916 H   0  0  0  0  0  0  0  0  0  0  0  0
  145.2918  136.4921  150.8959 H   0  0  0  0  0  0  0  0  0  0  0  0
  145.6437  131.2409  149.9459 H   0  0  0  0  0  0  0  0  0  0  0  0
  145.5383  132.8521  149.2497 H   0  0  0  0  0  0  0  0  0  0  0  0
  147.6086  131.5591  150.5063 H   0  0  0  0  0  0  0  0  0  0  0  0
  142.9489  134.1619  149.5710 H   0  0  0  0  0  0  0  0  0  0  0  0
  141.9820  135.2439  151.9869 H   0  0  0  0  0  0  0  0  0  0  0  0
  146.8110  142.8890  157.3197 H   0  0  0  0  0  0  0  0  0  0  0  0
  147.1723  142.9208  159.0439 H   0  0  0  0  0  0  0  0  0  0  0  0
  146.9030  141.3790  158.2306 H   0  0  0  0  0  0  0  0  0  0  0  0
  1  2  1  0  0  0  0
  1 35  1  0  0  0  0
  1 36  1  0  0  0  0
  1 37  1  0  0  0  0
  2 30  1  0  0  0  0
  2  3  2  0  0  0  0
  3  4  1  0  0  0  0
  3 38  1  0  0  0  0
  4  5  1  0  0  0  0
  4 28  2  0  0  0  0
  5  6  1  0  0  0  0
  5  7  1  0  0  0  0
  5  8  1  0  0  0  0
  6 39  1  0  0  0  0
  6 40  1  0  0  0  0
  6 41  1  0  0  0  0
  7 42  1  0  0  0  0
  8  9  1  0  0  0  0
  8 43  1  0  0  0  0
  8 44  1  0  0  0  0
  9 10  1  0  0  0  0
  9 45  1  0  0  0  0
 10 15  1  0  0  0  0
 10 11  2  0  0  0  0
 11 12  1  0  0  0  0
 12 13  2  0  0  0  0
 12 46  1  0  0  0  0
 13 14  1  0  0  0  0
 14 18  1  0  0  0  0
 14 15  2  0  0  0  0
 15 16  1  0  0  0  0
 16 17  2  0  0  0  0
 17 18  1  0  0  0  0
 17 47  1  0  0  0  0
 18 19  1  0  0  0  0
 19 31  1  0  0  0  0
 19 26  1  0  0  0  0
 19 20  1  0  0  0  0
 20 21  1  0  0  0  0
 21 32  1  0  0  0  0
 21 22  1  0  0  0  0
 21 24  1  0  0  0  0
 22 23  1  0  0  0  0
 22 48  1  0  0  0  0
 22 49  1  0  0  0  0
 23 50  1  0  0  0  0
 24 33  1  0  0  0  0
 24 25  1  0  0  0  0
 24 26  1  0  0  0  0
 25 51  1  0  0  0  0
 26 34  1  0  0  0  0
 26 27  1  0  0  0  0
 27 52  1  0  0  0  0
 28 29  1  0  0  0  0
 28 30  1  0  0  0  0
 29 53  1  0  0  0  0
 29 54  1  0  0  0  0
 29 55  1  0  0  0  0
M  END
> <s_m_source_file>
AV-unprocessed.smi

> <i_m_source_file_index>
287

> <i_lp_mmshare_version>
43012

> <i_f3d_flags>
0

> <s_epik_input>
W0NIM11jMVtjSF1jKGMobzEpW0NIM10pW0NAQF0oW0NIM10pKFtPSF0pW0NIMl1bTkhdYyhuW2NIXW4yKWMoYzIzKW5bY0hdbjNbQ0BASF00T1tDQEhdKFtDSDJdW09IXSlbQ0BASF0oW09IXSlbQ0BIXTRbT0hd

> <s_epik_cmdline>
J2VwaWtfcHl0aG9uJywgJy1waCcsICc3LjAnLCAnLXRuJywgJzgnLCAnLW1hJywgJzIwMCcsICctbWV0YWxfYmluZGluZycsICctaW1hZScsICc8aW5maWxlLm1hZT4nLCAnLW9tYWUnLCAnPG91dGZpbGUubWFlPic=

> <r_lp_tautomer_probability>
1

> <r_epik_Ionization_Penalty>
0.000992612

> <r_epik_Ionization_Penalty_Charging>
0

> <r_epik_Ionization_Penalty_Neutral>
0.000992612

> <r_epik_State_Penalty>
-0

> <r_epik_Charging_Adjusted_Penalty>
0

> <i_epik_Tot_Q>
0

> <i_epik_Tot_abs_Q>
0

> <r_epik_Metal_State_Penalty>
-0

> <b_epik_Metal_Only>
0

> <s_epik_Chemistry_Notes>
This compound contains an acetal/aminal-like group ( X-CH(R)-Y where X, Y are N, S, or O) that may be acid/base labile, releasing an aldehyde.

> <s_lp_Force_Field>
OPLS_2005

> <r_lp_Energy>
48.118

> <b_lp_Chiralities_Consistent>
1

> <s_lp_Variant>
AV-unprocessed.smi:287-26

> <Gold.Version>
5.8.1

> <Gold.Id.Protein>
6NUR|6NUR_protein|mol2

> <Gold.PLP.Fitness>
46.8249

> <Gold.PLP.PLP>
-37.3343

> <Gold.PLP.part.hbond>
-5.3195

> <Gold.PLP.part.metal>
0.0000

> <Gold.PLP.part.buried>
-4.4654

> <Gold.PLP.part.nonpolar>
-27.3380

> <Gold.PLP.part.repulsive>
0.5637

> <Gold.PLP.ligand.clash>
0.0000

> <Gold.PLP.ligand.torsion>
0.8604

> <Gold.PLP.Chemscore.Hbond>
3.3040

> <Gold.PLP.Chemscore.CHOScore>
0.4018

> <Gold.PLP.Chemscore.Metal>
0.0000

> <Gold.Chemscore.Hbonds>
donor molecule, donor type, donor heavy atom, donor atom, acceptor molecule, acceptor atom, score
      L1  H     7    42       P1  8028  0.91
      L1  H    23    50       P1 10747  0.67
      L1  H    25    51       P1 10186  1.00
      P1  H  8011  8017       L1     7  0.27
      L1  C    17    47       P1 10171  0.25

> <Gold.PLP.Chemscore.Internal.Correction>
0.0939

> <Gold.Rescore>
     Score         DG    S(hbond)    S(metal)    S(lipo)     H(rot)  DE(clash)    DE(int)     intcor
      9.55     -12.07       2.94        0.00      87.78       5.27       0.09       2.42       ----

> <Gold.Chemscore.Fitness>
9.5543

> <Gold.Chemscore.DG>
-12.0724

> <Gold.Chemscore.ZeroCoef>
-5.4800

> <Gold.Chemscore.Hbond>
2.9359

> <Gold.Chemscore.Metal>
0.0000

> <Gold.Chemscore.Lipo>
87.7823

> <Gold.Chemscore.Internal_Hbond>
0.0000

> <Gold.Chemscore.DEClash>
0.0935

> <Gold.Chemscore.DEInternal>
2.4246

> <Gold.Chemscore.Rot>
5.2672

> <Gold.Chemscore.Internal.Correction>
   9.000000E+99

> <Gold.Chemscore.Hbonds>
donor molecule, donor type, donor heavy atom, donor atom, acceptor molecule, acceptor atom, score
      L1  H     7    42       P1  8028  0.86
      L1  H    23    50       P1 10747  0.65
      L1  H    25    51       P1 10186  0.94
      P1  H  8011  8017       L1     7  0.05

> <Gold.Chemscore.Hbond.Weighted>
-9.8058

> <Gold.Chemscore.Metal.Weighted>
-0.0000

> <Gold.Chemscore.Lipo.Weighted>
-10.2705

> <Gold.Chemscore.Internal_Hbond.Weighted>
0.0000

> <Gold.Chemscore.DEClash.Weighted>
0.0935

> <Gold.Chemscore.DEInternal.Weighted>
2.4246

> <Gold.Chemscore.Rot.Weighted>
13.4839

> <Gold.Chemscore.Internal.Correction.Weighted>
   9.000000E+99

> <Gold.Protein.RotatedTorsions>
[ 6907 6896 6895 6894 ] final -172.79 input  -60.11 | X-H torsion
[ 7974 7965 7964 7962 ] final  -23.06 input  175.53 | X-H torsion
[ 8008 7997 7996 7995 ] final  137.19 input   59.86 | X-H torsion
[ 10167 10162 10161 10158 ] final  -50.68 input  -65.29 | X-H torsion
[ 10718 10713 10712 10709 ] final  -70.53 input   66.30 | X-H torsion
[ 10763 10752 10751 10750 ] final  123.52 input  -60.55 | X-H torsion
[ 11005 11000 10999 10996 ] final  133.34 input  -57.11 | X-H torsion

> <Gold.Protein.ActiveResidues>
 VAL166  LYS551  ARG553  GLY616  TRP617  ASP618  TYR619  PRO620  LYS621  CYS622 
 ASP623  PHE694  ASN695  SER759  ASP760  ASP761  ALA762  ILE779  LEU786  VAL792 
 PHE793  MET794  SER795  GLU796  ALA797  LYS798  CYS799  TRP800  GLU811  SER814 

> <Gold.Protein.RotatedAtoms>
  151.5457  133.3425  159.2943 H   0  0  0  0  0  0  0  0  0  0  0  0  # atno 6907 bound_to 6896
  150.8509  134.7836  159.7019 H   0  0  0  0  0  0  0  0  0  0  0  0  # atno 6908 bound_to 6896
  152.4555  134.5308  159.9862 H   0  0  0  0  0  0  0  0  0  0  0  0  # atno 6909 bound_to 6896
  146.1639  140.4564  142.8560 H   0  0  0  0  0  0  0  0  0  0  0  0  # atno 7974 bound_to 7965
  156.3003  140.2426  156.3868 H   0  0  0  0  0  0  0  0  0  0  0  0  # atno 8008 bound_to 7997
  154.8650  140.0418  157.1709 H   0  0  0  0  0  0  0  0  0  0  0  0  # atno 8009 bound_to 7997
  154.8856  140.2955  155.5404 H   0  0  0  0  0  0  0  0  0  0  0  0  # atno 8010 bound_to 7997
  140.6625  143.2648  151.4395 H   0  0  0  0  0  0  0  0  0  0  0  0  # atno 10167 bound_to 10162
  156.0403  130.4333  150.2309 H   0  0  0  0  0  0  0  0  0  0  0  0  # atno 10718 bound_to 10713
  153.6469  135.3369  155.3088 H   0  0  0  0  0  0  0  0  0  0  0  0  # atno 10763 bound_to 10752
  154.8547  135.4331  154.1946 H   0  0  0  0  0  0  0  0  0  0  0  0  # atno 10764 bound_to 10752
  153.2878  135.7014  153.7396 H   0  0  0  0  0  0  0  0  0  0  0  0  # atno 10765 bound_to 10752
  139.9845  134.9537  156.9710 H   0  0  0  0  0  0  0  0  0  0  0  0  # atno 11005 bound_to 11000
  144.8065  140.6308  143.6444 LP  0  0  0  0  0  0  0  0  0  0  0  0  # atno 17320 bound_to 7965
  145.4518  139.1523  143.3914 LP  0  0  0  0  0  0  0  0  0  0  0  0  # atno 17321 bound_to 7965
  139.5864  144.1596  152.2034 LP  0  0  0  0  0  0  0  0  0  0  0  0  # atno 17342 bound_to 10162
  140.0937  144.5599  150.7037 LP  0  0  0  0  0  0  0  0  0  0  0  0  # atno 17343 bound_to 10162
  157.0405  131.0034  151.3285 LP  0  0  0  0  0  0  0  0  0  0  0  0  # atno 17370 bound_to 10713
  157.5213  130.8000  149.7812 LP  0  0  0  0  0  0  0  0  0  0  0  0  # atno 17371 bound_to 10713
  140.5029  134.1079  155.7254 LP  0  0  0  0  0  0  0  0  0  0  0  0  # atno 17394 bound_to 11000
  141.1512  133.8964  157.2092 LP  0  0  0  0  0  0  0  0  0  0  0  0  # atno 17395 bound_to 11000

$$$$
