AV-unprocessed.smi:249|AV-procd|sdf|1914|dock2
  -GOLD-   2262021 03D 1   1.00000     0.00000
 Structure written by MMmdl.
 64 67  0  0  0  0  0  0  0  0  2 V2000
  145.9007  133.8374  150.7092 C   0  0  0  0  0  0  0  0  0  0  0  0
  146.0946  134.0459  152.2174 C   0  0  0  0  0  0  0  0  0  0  0  0
  146.3902  135.4614  152.5606 N   0  3  2  0  0  0  0  0  0  0  0  0
  146.4805  135.7124  154.0248 C   0  0  0  0  0  0  0  0  0  0  0  0
  146.9823  137.1360  154.3109 C   0  0  0  0  0  0  0  0  0  0  0  0
  146.0736  138.1875  153.6444 C   0  0  1  0  0  0  0  0  0  0  0  0
  146.4517  139.5750  153.9428 N   0  0  0  0  0  0  0  0  0  0  0  0
  147.1349  140.3250  152.8953 C   0  0  0  0  0  0  0  0  0  0  0  0
  146.8823  139.8564  155.1958 C   0  0  0  0  0  0  0  0  0  0  0  0
  146.1283  139.4099  156.2314 N   0  0  0  0  0  0  0  0  0  0  0  0
  146.4973  139.6672  157.4897 C   0  0  0  0  0  0  0  0  0  0  0  0
  147.5630  140.3419  157.9253 N   0  0  0  0  0  0  0  0  0  0  0  0
  148.3218  140.7962  156.8874 C   0  0  0  0  0  0  0  0  0  0  0  0
  148.0569  140.6018  155.5022 C   0  0  0  0  0  0  0  0  0  0  0  0
  149.0528  141.2036  154.7415 N   0  0  0  0  0  0  0  0  0  0  0  0
  149.8569  141.7280  155.6256 C   0  0  0  0  0  0  0  0  0  0  0  0
  149.4968  141.5257  156.9381 N   0  0  0  0  0  0  0  0  0  0  0  0
  150.2106  141.9974  158.1122 C   0  0  0  0  0  0  0  0  0  0  0  0
  151.6589  141.4557  158.2040 C   0  0  2  0  0  0  0  0  0  0  0  0
  151.7135  139.9107  158.2892 C   0  0  0  0  0  0  0  0  0  0  0  0
  153.0050  139.4221  157.9897 O   0  0  0  0  0  0  0  0  0  0  0  0
  152.4524  142.1350  159.3494 C   0  0  2  0  0  0  0  0  0  0  0  0
  152.4820  141.3570  160.6535 C   0  0  0  0  0  0  0  0  0  0  0  0
  152.8871  142.4289  161.6588 C   0  0  0  0  0  0  0  0  0  0  0  0
  152.3262  143.6426  161.1723 O   0  0  0  0  0  0  0  0  0  0  0  0
  151.8677  143.4656  159.8354 C   0  0  0  0  0  0  0  0  0  0  0  0
  145.9864  137.8874  152.1323 C   0  0  0  0  0  0  0  0  0  0  0  0
  145.5156  136.4443  151.8536 C   0  0  2  0  0  0  0  0  0  0  0  0
  144.0117  136.2499  152.1463 C   0  0  0  0  0  0  0  0  0  0  0  0
  145.6115  132.8072  150.5004 H   0  0  0  0  0  0  0  0  0  0  0  0
  146.8119  134.0367  150.1461 H   0  0  0  0  0  0  0  0  0  0  0  0
  145.1152  134.4855  150.3201 H   0  0  0  0  0  0  0  0  0  0  0  0
  145.1736  133.7383  152.7147 H   0  0  0  0  0  0  0  0  0  0  0  0
  146.8837  133.3940  152.5942 H   0  0  0  0  0  0  0  0  0  0  0  0
  145.5112  135.5489  154.4965 H   0  0  0  0  0  0  0  0  0  0  0  0
  147.1688  135.0043  154.4846 H   0  0  0  0  0  0  0  0  0  0  0  0
  147.0197  137.3028  155.3881 H   0  0  0  0  0  0  0  0  0  0  0  0
  148.0056  137.2244  153.9441 H   0  0  0  0  0  0  0  0  0  0  0  0
  145.0767  138.0638  154.0687 H   0  0  0  0  0  0  0  0  0  0  0  0
  147.3133  141.3561  153.2038 H   0  0  0  0  0  0  0  0  0  0  0  0
  146.5219  140.3510  151.9941 H   0  0  0  0  0  0  0  0  0  0  0  0
  148.0931  139.8741  152.6385 H   0  0  0  0  0  0  0  0  0  0  0  0
  145.8449  139.2781  158.2576 H   0  0  0  0  0  0  0  0  0  0  0  0
  150.7432  142.2778  155.3435 H   0  0  0  0  0  0  0  0  0  0  0  0
  150.2102  143.0867  158.0768 H   0  0  0  0  0  0  0  0  0  0  0  0
  149.6443  141.7207  159.0021 H   0  0  0  0  0  0  0  0  0  0  0  0
  152.1541  141.7259  157.2700 H   0  0  0  0  0  0  0  0  0  0  0  0
  151.4288  139.5613  159.2816 H   0  0  0  0  0  0  0  0  0  0  0  0
  151.0019  139.4591  157.5984 H   0  0  0  0  0  0  0  0  0  0  0  0
  152.9381  138.5061  157.7675 H   0  0  0  0  0  0  0  0  0  0  0  0
  153.4822  142.3051  159.0304 H   0  0  0  0  0  0  0  0  0  0  0  0
  151.4885  140.9755  160.8937 H   0  0  0  0  0  0  0  0  0  0  0  0
  153.1774  140.5174  160.6408 H   0  0  0  0  0  0  0  0  0  0  0  0
  152.5434  142.2061  162.6694 H   0  0  0  0  0  0  0  0  0  0  0  0
  153.9723  142.5345  161.6851 H   0  0  0  0  0  0  0  0  0  0  0  0
  152.1650  144.3057  159.2071 H   0  0  0  0  0  0  0  0  0  0  0  0
  150.7775  143.4265  159.8528 H   0  0  0  0  0  0  0  0  0  0  0  0
  145.3181  138.5917  151.6364 H   0  0  0  0  0  0  0  0  0  0  0  0
  146.9666  138.0274  151.6752 H   0  0  0  0  0  0  0  0  0  0  0  0
  145.6519  136.2760  150.7842 H   0  0  0  0  0  0  0  0  0  0  0  0
  143.4163  136.9798  151.5970 H   0  0  0  0  0  0  0  0  0  0  0  0
  143.7737  136.3680  153.2028 H   0  0  0  0  0  0  0  0  0  0  0  0
  143.6642  135.2641  151.8382 H   0  0  0  0  0  0  0  0  0  0  0  0
  147.3166  135.6346  152.1974 H   0  0  0  0  0  0  0  0  0  0  0  0
  1  2  1  0  0  0  0
  1 30  1  0  0  0  0
  1 31  1  0  0  0  0
  1 32  1  0  0  0  0
  2  3  1  0  0  0  0
  2 33  1  0  0  0  0
  2 34  1  0  0  0  0
  3 28  1  0  0  0  0
  3  4  1  0  0  0  0
  3 64  1  0  0  0  0
  4  5  1  0  0  0  0
  4 35  1  0  0  0  0
  4 36  1  0  0  0  0
  5  6  1  0  0  0  0
  5 37  1  0  0  0  0
  5 38  1  0  0  0  0
  6  7  1  0  0  0  0
  6 27  1  0  0  0  0
  6 39  1  0  0  0  0
  7  8  1  0  0  0  0
  7  9  1  0  0  0  0
  8 40  1  0  0  0  0
  8 41  1  0  0  0  0
  8 42  1  0  0  0  0
  9 14  1  0  0  0  0
  9 10  2  0  0  0  0
 10 11  1  0  0  0  0
 11 12  2  0  0  0  0
 11 43  1  0  0  0  0
 12 13  1  0  0  0  0
 13 17  1  0  0  0  0
 13 14  2  0  0  0  0
 14 15  1  0  0  0  0
 15 16  2  0  0  0  0
 16 17  1  0  0  0  0
 16 44  1  0  0  0  0
 17 18  1  0  0  0  0
 18 19  1  0  0  0  0
 18 45  1  0  0  0  0
 18 46  1  0  0  0  0
 19 20  1  0  0  0  0
 19 22  1  0  0  0  0
 19 47  1  0  0  0  0
 20 21  1  0  0  0  0
 20 48  1  0  0  0  0
 20 49  1  0  0  0  0
 21 50  1  0  0  0  0
 22 26  1  0  0  0  0
 22 23  1  0  0  0  0
 22 51  1  0  0  0  0
 23 24  1  0  0  0  0
 23 52  1  0  0  0  0
 23 53  1  0  0  0  0
 24 25  1  0  0  0  0
 24 54  1  0  0  0  0
 24 55  1  0  0  0  0
 25 26  1  0  0  0  0
 26 56  1  0  0  0  0
 26 57  1  0  0  0  0
 27 28  1  0  0  0  0
 27 58  1  0  0  0  0
 27 59  1  0  0  0  0
 28 29  1  0  0  0  0
 28 60  1  0  0  0  0
 29 61  1  0  0  0  0
 29 62  1  0  0  0  0
 29 63  1  0  0  0  0
M  CHG  1   3   1
M  END
> <s_m_source_file>
AV-unprocessed.smi

> <i_m_source_file_index>
249

> <i_lp_mmshare_version>
43012

> <i_f3d_flags>
0

> <s_epik_input>
W0NIM11bQ0gyXU4xW0NIMl1bQ0gyXVtDQEhdKFtDSDJdW0NASF0xW0NIM10pTihbQ0gzXSljKG5bY0hdbjIpYyhjMjMpbltjSF1uM1tDSDJdW0NASF0oW0NIMl1bT0hdKVtDQEBIXTRbQ0gyXVtDSDJdT1tDSDJdNA==

> <s_epik_cmdline>
J2VwaWtfcHl0aG9uJywgJy1waCcsICc3LjAnLCAnLXRuJywgJzgnLCAnLW1hJywgJzIwMCcsICctbWV0YWxfYmluZGluZycsICctaW1hZScsICc8aW5maWxlLm1hZT4nLCAnLW9tYWUnLCAnPG91dGZpbGUubWFlPic=

> <r_lp_tautomer_probability>
1

> <r_epik_Ionization_Penalty>
0.00294688

> <r_epik_Ionization_Penalty_Charging>
0.00169971

> <r_epik_Ionization_Penalty_Neutral>
0.00124717

> <r_epik_State_Penalty>
-0

> <r_epik_Charging_Adjusted_Penalty>
0.00169971

> <i_epik_Tot_Q>
1

> <i_epik_Tot_abs_Q>
1

> <r_epik_Metal_State_Penalty>
-0

> <b_epik_Metal_Only>
0

> <s_lp_Force_Field>
OPLS_2005

> <r_lp_Energy>
54.2474

> <b_lp_Chiralities_Consistent>
1

> <s_lp_Variant>
AV-unprocessed.smi:249-17

> <Gold.Version>
5.8.1

> <Gold.Id.Protein>
6NUR|6NUR_protein|mol2

> <Gold.PLP.Fitness>
48.7990

> <Gold.PLP.PLP>
-42.9171

> <Gold.PLP.part.hbond>
-2.8312

> <Gold.PLP.part.metal>
0.0000

> <Gold.PLP.part.buried>
-4.7010

> <Gold.PLP.part.nonpolar>
-36.6297

> <Gold.PLP.part.repulsive>
0.3876

> <Gold.PLP.ligand.clash>
0.0000

> <Gold.PLP.ligand.torsion>
2.1128

> <Gold.PLP.Chemscore.Hbond>
3.0000

> <Gold.PLP.Chemscore.CHOScore>
0.0000

> <Gold.PLP.Chemscore.Metal>
0.0000

> <Gold.Chemscore.Hbonds>
donor molecule, donor type, donor heavy atom, donor atom, acceptor molecule, acceptor atom, score
      L1  H     3    64       P1  7948  2.00
      P1  H  7997  8009       L1    21  1.00

> <Gold.PLP.Chemscore.Internal.Correction>
1.1075

> <Gold.Rescore>
     Score         DG    S(hbond)    S(metal)    S(lipo)     H(rot)  DE(clash)    DE(int)     intcor
     13.68     -16.56       1.98        0.00     101.64       2.90       0.07       2.81       ----

> <Gold.Chemscore.Fitness>
13.6782

> <Gold.Chemscore.DG>
-16.5574

> <Gold.Chemscore.ZeroCoef>
-5.4800

> <Gold.Chemscore.Hbond>
1.9794

> <Gold.Chemscore.Metal>
0.0000

> <Gold.Chemscore.Lipo>
101.6400

> <Gold.Chemscore.Internal_Hbond>
0.0000

> <Gold.Chemscore.DEClash>
0.0688

> <Gold.Chemscore.DEInternal>
2.8105

> <Gold.Chemscore.Rot>
2.9006

> <Gold.Chemscore.Internal.Correction>
   9.000000E+99

> <Gold.Chemscore.Hbonds>
donor molecule, donor type, donor heavy atom, donor atom, acceptor molecule, acceptor atom, score
      L1  H     3    64       P1  7948  1.00
      P1  H  7997  8009       L1    21  0.39

> <Gold.Chemscore.Hbond.Weighted>
-6.6112

> <Gold.Chemscore.Metal.Weighted>
-0.0000

> <Gold.Chemscore.Lipo.Weighted>
-11.8919

> <Gold.Chemscore.Internal_Hbond.Weighted>
0.0000

> <Gold.Chemscore.DEClash.Weighted>
0.0688

> <Gold.Chemscore.DEInternal.Weighted>
2.8105

> <Gold.Chemscore.Rot.Weighted>
7.4256

> <Gold.Chemscore.Internal.Correction.Weighted>
   9.000000E+99

> <Gold.Protein.RotatedTorsions>
[ 6907 6896 6895 6894 ] final   77.43 input  -60.11 | X-H torsion
[ 7974 7965 7964 7962 ] final  -48.77 input  175.53 | X-H torsion
[ 8008 7997 7996 7995 ] final  172.98 input   59.86 | X-H torsion
[ 10167 10162 10161 10158 ] final  126.60 input  -65.29 | X-H torsion
[ 10718 10713 10712 10709 ] final -144.33 input   66.30 | X-H torsion
[ 10763 10752 10751 10750 ] final  -96.33 input  -60.55 | X-H torsion
[ 11005 11000 10999 10996 ] final  -64.88 input  -57.11 | X-H torsion

> <Gold.Protein.ActiveResidues>
 VAL166  LYS551  ARG553  GLY616  TRP617  ASP618  TYR619  PRO620  LYS621  CYS622 
 ASP623  PHE694  ASN695  SER759  ASP760  ASP761  ALA762  ILE779  LEU786  VAL792 
 PHE793  MET794  SER795  GLU796  ALA797  LYS798  CYS799  TRP800  GLU811  SER814 

> <Gold.Protein.RotatedAtoms>
  152.5117  134.3817  159.9353 H   0  0  0  0  0  0  0  0  0  0  0  0  # atno 6907 bound_to 6896
  151.3774  133.3827  159.2714 H   0  0  0  0  0  0  0  0  0  0  0  0  # atno 6908 bound_to 6896
  150.9531  134.8948  159.7742 H   0  0  0  0  0  0  0  0  0  0  0  0  # atno 6909 bound_to 6896
  145.9476  140.7603  142.9520 H   0  0  0  0  0  0  0  0  0  0  0  0  # atno 7974 bound_to 7965
  156.1121  140.1472  156.9324 H   0  0  0  0  0  0  0  0  0  0  0  0  # atno 8008 bound_to 7997
  154.4774  140.0890  156.7338 H   0  0  0  0  0  0  0  0  0  0  0  0  # atno 8009 bound_to 7997
  155.4578  140.3437  155.4311 H   0  0  0  0  0  0  0  0  0  0  0  0  # atno 8010 bound_to 7997
  139.5623  144.6889  151.4009 H   0  0  0  0  0  0  0  0  0  0  0  0  # atno 10167 bound_to 10162
  156.3688  130.7777  151.1954 H   0  0  0  0  0  0  0  0  0  0  0  0  # atno 10718 bound_to 10713
  154.7230  135.5087  153.8841 H   0  0  0  0  0  0  0  0  0  0  0  0  # atno 10763 bound_to 10752
  153.0879  135.6651  153.9921 H   0  0  0  0  0  0  0  0  0  0  0  0  # atno 10764 bound_to 10752
  153.9739  135.3035  155.3404 H   0  0  0  0  0  0  0  0  0  0  0  0  # atno 10765 bound_to 10752
  141.1438  133.6672  156.5900 H   0  0  0  0  0  0  0  0  0  0  0  0  # atno 11005 bound_to 11000
  144.6790  140.2383  143.7347 LP  0  0  0  0  0  0  0  0  0  0  0  0  # atno 17320 bound_to 7965
  145.8214  139.2045  143.1935 LP  0  0  0  0  0  0  0  0  0  0  0  0  # atno 17321 bound_to 7965
  140.6903  143.7876  150.7246 LP  0  0  0  0  0  0  0  0  0  0  0  0  # atno 17342 bound_to 10162
  140.1357  143.4486  152.2226 LP  0  0  0  0  0  0  0  0  0  0  0  0  # atno 17343 bound_to 10162
  157.7481  131.0378  150.4475 LP  0  0  0  0  0  0  0  0  0  0  0  0  # atno 17370 bound_to 10713
  156.4698  130.4050  149.6525 LP  0  0  0  0  0  0  0  0  0  0  0  0  # atno 17371 bound_to 10713
  140.3770  134.7556  157.4636 LP  0  0  0  0  0  0  0  0  0  0  0  0  # atno 17394 bound_to 11000
  140.0666  134.5920  155.8688 LP  0  0  0  0  0  0  0  0  0  0  0  0  # atno 17395 bound_to 11000

$$$$
