AV-unprocessed.smi:1875|AV-procd|sdf|7619|dock7
  -GOLD-   22720 9343D 1   1.00000     0.00000
 Structure written by MMmdl.
 48 50  0  0  0  0  0  0  0  0  2 V2000
  148.4768  133.3064  153.1105 C   0  0  0  0  0  0  0  0  0  0  0  0
  149.3766  133.4981  154.3136 C   0  0  0  0  0  0  0  0  0  0  0  0
  149.6636  132.4074  155.0312 N   0  0  0  0  0  0  0  0  0  0  0  0
  150.4604  132.5778  156.1090 C   0  0  0  0  0  0  0  0  0  0  0  0
  150.9667  133.8439  156.4656 C   0  0  0  0  0  0  0  0  0  0  0  0
  150.5945  134.9194  155.6321 C   0  0  0  0  0  0  0  0  0  0  0  0
  151.0616  136.3315  155.9162 C   0  0  0  0  0  0  0  0  0  0  0  0
  151.6241  136.9667  154.7297 N   0  0  0  0  0  0  0  0  0  0  0  0
  152.6485  137.9575  155.0421 C   0  0  0  0  0  0  0  0  0  0  0  0
  152.0271  139.3426  155.3050 C   0  0  1  0  0  0  0  0  0  0  0  0
  151.0220  139.5724  154.3397 O   0  0  0  0  0  0  0  0  0  0  0  0
  151.3616  139.4720  156.6895 C   0  0  0  0  0  0  0  0  0  0  0  0
  150.9739  140.8523  157.0139 N   0  0  0  0  0  0  0  0  0  0  0  0
  150.1852  141.7134  156.3152 C   0  0  0  0  0  0  0  0  0  0  0  0
  150.1136  142.8734  157.0242 N   0  3  0  0  0  0  0  0  0  0  0  0
  150.8667  142.7519  158.1936 C   0  0  0  0  0  0  0  0  0  0  0  0
  151.0986  143.6562  159.2232 C   0  0  0  0  0  0  0  0  0  0  0  0
  151.9269  143.2274  160.2845 C   0  0  0  0  0  0  0  0  0  0  0  0
  152.2038  144.1932  161.4242 C   0  0  0  0  0  0  0  0  0  0  0  0
  152.4924  141.9260  160.2885 C   0  0  0  0  0  0  0  0  0  0  0  0
  153.3890  141.4779  161.4303 C   0  0  0  0  0  0  0  0  0  0  0  0
  152.2392  141.0186  159.2350 C   0  0  0  0  0  0  0  0  0  0  0  0
  151.4216  141.4570  158.1952 C   0  0  0  0  0  0  0  0  0  0  0  0
  149.7957  134.7438  154.5561 N   0  0  0  0  0  0  0  0  0  0  0  0
  148.5500  132.2896  152.7226 H   0  0  0  0  0  0  0  0  0  0  0  0
  148.7488  133.9930  152.3079 H   0  0  0  0  0  0  0  0  0  0  0  0
  147.4387  133.4945  153.3855 H   0  0  0  0  0  0  0  0  0  0  0  0
  150.6936  131.6991  156.6917 H   0  0  0  0  0  0  0  0  0  0  0  0
  151.6018  133.9801  157.3285 H   0  0  0  0  0  0  0  0  0  0  0  0
  150.2139  136.9093  156.2868 H   0  0  0  0  0  0  0  0  0  0  0  0
  151.8002  136.3101  156.7188 H   0  0  0  0  0  0  0  0  0  0  0  0
  150.8774  137.4109  154.2053 H   0  0  0  0  0  0  0  0  0  0  0  0
  153.2458  137.6426  155.8990 H   0  0  0  0  0  0  0  0  0  0  0  0
  153.3325  138.0159  154.1964 H   0  0  0  0  0  0  0  0  0  0  0  0
  152.7874  140.1191  155.2070 H   0  0  0  0  0  0  0  0  0  0  0  0
  150.2019  139.2440  154.6756 H   0  0  0  0  0  0  0  0  0  0  0  0
  150.4478  138.8763  156.7167 H   0  0  0  0  0  0  0  0  0  0  0  0
  152.0030  139.0766  157.4772 H   0  0  0  0  0  0  0  0  0  0  0  0
  149.7025  141.5118  155.3697 H   0  0  0  0  0  0  0  0  0  0  0  0
  150.6667  144.6463  159.2116 H   0  0  0  0  0  0  0  0  0  0  0  0
  151.9022  143.7594  162.3781 H   0  0  0  0  0  0  0  0  0  0  0  0
  151.6568  145.1278  161.2966 H   0  0  0  0  0  0  0  0  0  0  0  0
  153.2665  144.4325  161.4722 H   0  0  0  0  0  0  0  0  0  0  0  0
  153.7808  140.4747  161.2600 H   0  0  0  0  0  0  0  0  0  0  0  0
  152.8355  141.4659  162.3694 H   0  0  0  0  0  0  0  0  0  0  0  0
  154.2393  142.1516  161.5373 H   0  0  0  0  0  0  0  0  0  0  0  0
  152.6734  140.0299  159.2406 H   0  0  0  0  0  0  0  0  0  0  0  0
  149.5888  143.6869  156.7290 H   0  0  0  0  0  0  0  0  0  0  0  0
  1  2  1  0  0  0  0
  1 25  1  0  0  0  0
  1 26  1  0  0  0  0
  1 27  1  0  0  0  0
  2 24  1  0  0  0  0
  2  3  2  0  0  0  0
  3  4  1  0  0  0  0
  4  5  2  0  0  0  0
  4 28  1  0  0  0  0
  5  6  1  0  0  0  0
  5 29  1  0  0  0  0
  6  7  1  0  0  0  0
  6 24  2  0  0  0  0
  7  8  1  0  0  0  0
  7 30  1  0  0  0  0
  7 31  1  0  0  0  0
  8  9  1  0  0  0  0
  8 32  1  0  0  0  0
  9 10  1  0  0  0  0
  9 33  1  0  0  0  0
  9 34  1  0  0  0  0
 10 11  1  0  0  0  0
 10 12  1  0  0  0  0
 10 35  1  0  0  0  0
 11 36  1  0  0  0  0
 12 13  1  0  0  0  0
 12 37  1  0  0  0  0
 12 38  1  0  0  0  0
 13 23  1  0  0  0  0
 13 14  1  0  0  0  0
 14 15  2  0  0  0  0
 14 39  1  0  0  0  0
 15 16  1  0  0  0  0
 15 48  1  0  0  0  0
 16 23  2  0  0  0  0
 16 17  1  0  0  0  0
 17 18  2  0  0  0  0
 17 40  1  0  0  0  0
 18 19  1  0  0  0  0
 18 20  1  0  0  0  0
 19 41  1  0  0  0  0
 19 42  1  0  0  0  0
 19 43  1  0  0  0  0
 20 21  1  0  0  0  0
 20 22  2  0  0  0  0
 21 44  1  0  0  0  0
 21 45  1  0  0  0  0
 21 46  1  0  0  0  0
 22 23  1  0  0  0  0
 22 47  1  0  0  0  0
M  CHG  1  15   1
M  END
> <s_m_source_file>
AV-unprocessed.smi

> <i_m_source_file_index>
1875

> <i_lp_mmshare_version>
43012

> <i_f3d_flags>
0

> <s_epik_input>
W0NIM11jMW5bY0hdW2NIXWMobjEpW0NIMl1bTkhdW0NIMl1bQ0BIXShbT0hdKVtDSDJdbihbY0hdbjIpYyhjMjMpW2NIXWMoW0NIM10pYyhbY0hdMylbQ0gzXQ==

> <s_epik_cmdline>
J2VwaWtfcHl0aG9uJywgJy1waCcsICc3LjAnLCAnLXRuJywgJzgnLCAnLW1hJywgJzIwMCcsICctbWV0YWxfYmluZGluZycsICctaW1hZScsICc8aW5maWxlLm1hZT4nLCAnLW9tYWUnLCAnPG91dGZpbGUubWFlPic=

> <r_epik_Ionization_Penalty>
2.02862

> <r_epik_Ionization_Penalty_Charging>
1.0004

> <r_epik_Ionization_Penalty_Neutral>
1.02823

> <r_epik_State_Penalty>
2.23022

> <r_epik_Charging_Adjusted_Penalty>
3.23062

> <i_epik_Tot_Q>
1

> <i_epik_Tot_abs_Q>
1

> <r_epik_Metal_State_Penalty>
2.31249

> <b_epik_Metal_Only>
0

> <s_epik_Chemistry_Notes>
This compound contains an electron-poor aromatic ring that is susceptible to covalent hydrolysis at low pH, typically resulting in measured values for nitrogen ring protonation that are around two units higher than predicted values.

> <s_lp_Force_Field>
OPLS_2005

> <r_lp_Energy>
17.8623

> <b_lp_Chiralities_Consistent>
1

> <s_lp_Variant>
AV-unprocessed.smi:1875-8

> <Gold.Version>
5.8.1

> <Gold.Id.Protein>
6NUR|6NUR_protein|mol2

> <Gold.PLP.Fitness>
58.3058

> <Gold.PLP.PLP>
-49.3613

> <Gold.PLP.part.hbond>
-3.0000

> <Gold.PLP.part.metal>
0.0000

> <Gold.PLP.part.buried>
-5.1602

> <Gold.PLP.part.nonpolar>
-42.3034

> <Gold.PLP.part.repulsive>
0.1803

> <Gold.PLP.ligand.clash>
0.0000

> <Gold.PLP.ligand.torsion>
0.6520

> <Gold.PLP.Chemscore.Hbond>
3.3900

> <Gold.PLP.Chemscore.CHOScore>
0.0000

> <Gold.PLP.Chemscore.Metal>
0.0000

> <Gold.Chemscore.Hbonds>
donor molecule, donor type, donor heavy atom, donor atom, acceptor molecule, acceptor atom, score
      L1  H    15    48       P1  8028  2.00
      P1  H  7989  7998       L1    11  1.00
      P1  H 10752 10763       L1     8  0.39

> <Gold.PLP.Chemscore.Internal.Correction>
0.0785

> <Gold.Rescore>
     Score         DG    S(hbond)    S(metal)    S(lipo)     H(rot)  DE(clash)    DE(int)     intcor
     17.71     -19.36       1.92        0.00     125.07       2.80       0.31       1.35       ----

> <Gold.Chemscore.Fitness>
17.7058

> <Gold.Chemscore.DG>
-19.3599

> <Gold.Chemscore.ZeroCoef>
-5.4800

> <Gold.Chemscore.Hbond>
1.9230

> <Gold.Chemscore.Metal>
0.0000

> <Gold.Chemscore.Lipo>
125.0712

> <Gold.Chemscore.Internal_Hbond>
0.0000

> <Gold.Chemscore.DEClash>
0.3051

> <Gold.Chemscore.DEInternal>
1.3490

> <Gold.Chemscore.Rot>
2.8032

> <Gold.Chemscore.Internal.Correction>
   9.000000E+99

> <Gold.Chemscore.Hbonds>
donor molecule, donor type, donor heavy atom, donor atom, acceptor molecule, acceptor atom, score
      L1  H    15    48       P1  8028  0.97
      P1  H  7989  7998       L1    11  0.35

> <Gold.Chemscore.Hbond.Weighted>
-6.4227

> <Gold.Chemscore.Metal.Weighted>
-0.0000

> <Gold.Chemscore.Lipo.Weighted>
-14.6333

> <Gold.Chemscore.Internal_Hbond.Weighted>
0.0000

> <Gold.Chemscore.DEClash.Weighted>
0.3051

> <Gold.Chemscore.DEInternal.Weighted>
1.3490

> <Gold.Chemscore.Rot.Weighted>
7.1761

> <Gold.Chemscore.Internal.Correction.Weighted>
   9.000000E+99

> <Gold.Protein.RotatedTorsions>
[ 6907 6896 6895 6894 ] final  121.85 input  -60.11 | X-H torsion
[ 7974 7965 7964 7962 ] final  134.73 input  175.53 | X-H torsion
[ 8008 7997 7996 7995 ] final  -64.48 input   59.86 | X-H torsion
[ 10167 10162 10161 10158 ] final  122.89 input  -65.29 | X-H torsion
[ 10718 10713 10712 10709 ] final  -22.42 input   66.30 | X-H torsion
[ 10763 10752 10751 10750 ] final   53.53 input  -60.55 | X-H torsion
[ 11005 11000 10999 10996 ] final  -70.56 input  -57.11 | X-H torsion

> <Gold.Protein.ActiveResidues>
 VAL166  LYS551  ARG553  GLY616  TRP617  ASP618  TYR619  PRO620  LYS621  CYS622 
 ASP623  PHE694  ASN695  SER759  ASP760  ASP761  ALA762  ILE779  LEU786  VAL792 
 PHE793  MET794  SER795  GLU796  ALA797  LYS798  CYS799  TRP800  GLU811  SER814 

> <Gold.Protein.RotatedAtoms>
  152.4289  133.7244  159.6551 H   0  0  0  0  0  0  0  0  0  0  0  0  # atno 6907 bound_to 6896
  150.8167  133.8313  159.3163 H   0  0  0  0  0  0  0  0  0  0  0  0  # atno 6908 bound_to 6896
  151.6007  135.1049  160.0111 H   0  0  0  0  0  0  0  0  0  0  0  0  # atno 6909 bound_to 6896
  144.9734  139.4581  143.5422 H   0  0  0  0  0  0  0  0  0  0  0  0  # atno 7974 bound_to 7965
  154.4614  140.0953  156.6903 H   0  0  0  0  0  0  0  0  0  0  0  0  # atno 8008 bound_to 7997
  155.4983  140.3473  155.4348 H   0  0  0  0  0  0  0  0  0  0  0  0  # atno 8009 bound_to 7997
  156.0877  140.1389  156.9621 H   0  0  0  0  0  0  0  0  0  0  0  0  # atno 8010 bound_to 7997
  139.5831  144.6995  151.3477 H   0  0  0  0  0  0  0  0  0  0  0  0  # atno 10167 bound_to 10162
  156.5048  130.4596  149.6681 H   0  0  0  0  0  0  0  0  0  0  0  0  # atno 10718 bound_to 10713
  152.9796  135.5776  154.4756 H   0  0  0  0  0  0  0  0  0  0  0  0  # atno 10763 bound_to 10752
  154.4312  135.2773  155.1913 H   0  0  0  0  0  0  0  0  0  0  0  0  # atno 10764 bound_to 10752
  154.3620  135.6186  153.5749 H   0  0  0  0  0  0  0  0  0  0  0  0  # atno 10765 bound_to 10752
  141.1576  133.6793  156.6771 H   0  0  0  0  0  0  0  0  0  0  0  0  # atno 11005 bound_to 11000
  146.3388  139.8961  142.8801 LP  0  0  0  0  0  0  0  0  0  0  0  0  # atno 17320 bound_to 7965
  145.2526  141.0049  143.3872 LP  0  0  0  0  0  0  0  0  0  0  0  0  # atno 17321 bound_to 7965
  140.7107  143.7398  150.7562 LP  0  0  0  0  0  0  0  0  0  0  0  0  # atno 17342 bound_to 10162
  140.0936  143.4854  152.2465 LP  0  0  0  0  0  0  0  0  0  0  0  0  # atno 17343 bound_to 10162
  156.3297  130.7325  151.2252 LP  0  0  0  0  0  0  0  0  0  0  0  0  # atno 17370 bound_to 10713
  157.7458  131.0433  150.4737 LP  0  0  0  0  0  0  0  0  0  0  0  0  # atno 17371 bound_to 10713
  140.3130  134.8070  157.4192 LP  0  0  0  0  0  0  0  0  0  0  0  0  # atno 17394 bound_to 11000
  140.1162  134.5280  155.8223 LP  0  0  0  0  0  0  0  0  0  0  0  0  # atno 17395 bound_to 11000

$$$$
