AV-unprocessed.smi:2568|AV-procd|sdf|10093|dock3
  -GOLD-   2272014113D 1   1.00000     0.00000
 Structure written by MMmdl.
 25 26  0  0  0  0  0  0  0  0  2 V2000
  153.1729  138.2871  154.4839 C   0  0  0  0  0  0  0  0  0  0  0  0
  152.3645  139.2664  155.2646 C   0  0  0  0  0  0  0  0  0  0  0  0
  152.7162  139.6294  156.4970 N   0  0  0  0  0  0  0  0  0  0  0  0
  151.7381  140.5004  156.8229 N   0  0  0  0  0  0  0  0  0  0  0  0
  150.8814  140.6051  155.8041 C   0  0  0  0  0  0  0  0  0  0  0  0
  149.6890  141.5073  155.8546 C   0  0  1  0  0  0  0  0  0  0  0  0
  148.8523  141.4495  154.5617 C   0  0  0  0  0  0  0  0  0  0  0  0
  147.6406  142.2794  154.7078 N   0  3  0  0  0  0  0  0  0  0  0  0
  146.8604  141.8913  155.8998 C   0  0  0  0  0  0  0  0  0  0  0  0
  147.7535  141.9250  157.1525 C   0  0  0  0  0  0  0  0  0  0  0  0
  148.8883  141.0872  156.9566 O   0  0  0  0  0  0  0  0  0  0  0  0
  151.2274  139.8423  154.7711 N   0  0  0  0  0  0  0  0  0  0  0  0
  151.6986  140.9747  157.7138 H   0  0  0  0  0  0  0  0  0  0  0  0
  154.1210  138.0799  154.9814 H   0  0  0  0  0  0  0  0  0  0  0  0
  153.3853  138.6801  153.4894 H   0  0  0  0  0  0  0  0  0  0  0  0
  152.6265  137.3498  154.3771 H   0  0  0  0  0  0  0  0  0  0  0  0
  150.0345  142.5279  156.0315 H   0  0  0  0  0  0  0  0  0  0  0  0
  149.4332  141.8029  153.7094 H   0  0  0  0  0  0  0  0  0  0  0  0
  148.5540  140.4226  154.3451 H   0  0  0  0  0  0  0  0  0  0  0  0
  147.9185  143.2458  154.8032 H   0  0  0  0  0  0  0  0  0  0  0  0
  146.0121  142.5665  156.0135 H   0  0  0  0  0  0  0  0  0  0  0  0
  146.4562  140.8889  155.7526 H   0  0  0  0  0  0  0  0  0  0  0  0
  148.0743  142.9439  157.3749 H   0  0  0  0  0  0  0  0  0  0  0  0
  147.1973  141.5701  158.0203 H   0  0  0  0  0  0  0  0  0  0  0  0
  147.0653  142.1820  153.8832 H   0  0  0  0  0  0  0  0  0  0  0  0
  1  2  1  0  0  0  0
  1 14  1  0  0  0  0
  1 15  1  0  0  0  0
  1 16  1  0  0  0  0
  2 12  1  0  0  0  0
  2  3  2  0  0  0  0
  3  4  1  0  0  0  0
  4 13  1  0  0  0  0
  4  5  1  0  0  0  0
  5  6  1  0  0  0  0
  5 12  2  0  0  0  0
  6 11  1  0  0  0  0
  6  7  1  0  0  0  0
  6 17  1  0  0  0  0
  7  8  1  0  0  0  0
  7 18  1  0  0  0  0
  7 19  1  0  0  0  0
  8  9  1  0  0  0  0
  8 20  1  0  0  0  0
  8 25  1  0  0  0  0
  9 10  1  0  0  0  0
  9 21  1  0  0  0  0
  9 22  1  0  0  0  0
 10 11  1  0  0  0  0
 10 23  1  0  0  0  0
 10 24  1  0  0  0  0
M  CHG  1   8   1
M  END
> <s_m_source_file>
AV-unprocessed.smi

> <i_m_source_file_index>
2568

> <i_lp_mmshare_version>
43012

> <i_f3d_flags>
0

> <s_epik_input>
W0NIM11jMW5bbkhdYyhuMSlbQ0BASF0yW0NIMl1bTkhdW0NIMl1bQ0gyXU8y

> <s_epik_cmdline>
J2VwaWtfcHl0aG9uJywgJy1waCcsICc3LjAnLCAnLXRuJywgJzgnLCAnLW1hJywgJzIwMCcsICctbWV0YWxfYmluZGluZycsICctaW1hZScsICc8aW5maWxlLm1hZT4nLCAnLW9tYWUnLCAnPG91dGZpbGUubWFlPic=

> <r_epik_Ionization_Penalty>
0.166663

> <r_epik_Ionization_Penalty_Charging>
0.125708

> <r_epik_Ionization_Penalty_Neutral>
0.0409555

> <r_epik_State_Penalty>
1.3004

> <r_epik_Charging_Adjusted_Penalty>
1.42611

> <i_epik_Tot_Q>
1

> <i_epik_Tot_abs_Q>
1

> <r_epik_Metal_State_Penalty>
1.60166

> <b_epik_Metal_Only>
0

> <s_lp_Force_Field>
OPLS_2005

> <r_lp_Energy>
12.4533

> <b_lp_Chiralities_Consistent>
1

> <s_lp_Variant>
AV-unprocessed.smi:2568-6

> <Gold.Version>
5.8.1

> <Gold.Id.Protein>
6NUR|6NUR_protein|mol2

> <Gold.PLP.Fitness>
33.3050

> <Gold.PLP.PLP>
-21.3084

> <Gold.PLP.part.hbond>
-3.0000

> <Gold.PLP.part.metal>
0.0000

> <Gold.PLP.part.buried>
-2.3839

> <Gold.PLP.part.nonpolar>
-16.3857

> <Gold.PLP.part.repulsive>
0.4124

> <Gold.PLP.ligand.clash>
0.0000

> <Gold.PLP.ligand.torsion>
0.0022

> <Gold.PLP.Chemscore.Hbond>
4.0000

> <Gold.PLP.Chemscore.CHOScore>
0.0000

> <Gold.PLP.Chemscore.Metal>
0.0000

> <Gold.Chemscore.Hbonds>
donor molecule, donor type, donor heavy atom, donor atom, acceptor molecule, acceptor atom, score
      L1  H     8    20       P1  8028  2.00
      P1  H  7989  7998       L1    12  1.00
      P1  H  7997  8010       L1     3  1.00

> <Gold.PLP.Chemscore.Internal.Correction>
0.0010

> <Gold.Rescore>
     Score         DG    S(hbond)    S(metal)    S(lipo)     H(rot)  DE(clash)    DE(int)     intcor
     14.69     -14.71       2.44        0.00      31.03       1.00       0.02       0.00       ----

> <Gold.Chemscore.Fitness>
14.6896

> <Gold.Chemscore.DG>
-14.7078

> <Gold.Chemscore.ZeroCoef>
-5.4800

> <Gold.Chemscore.Hbond>
2.4422

> <Gold.Chemscore.Metal>
0.0000

> <Gold.Chemscore.Lipo>
31.0318

> <Gold.Chemscore.Internal_Hbond>
0.0000

> <Gold.Chemscore.DEClash>
0.0174

> <Gold.Chemscore.DEInternal>
0.0008

> <Gold.Chemscore.Rot>
1.0000

> <Gold.Chemscore.Internal.Correction>
   9.000000E+99

> <Gold.Chemscore.Hbonds>
donor molecule, donor type, donor heavy atom, donor atom, acceptor molecule, acceptor atom, score
      L1  H     8    20       P1  8028  0.80
      P1  H  7989  7998       L1    12  0.46
      P1  H  7997  8010       L1     3  0.49

> <Gold.Chemscore.Hbond.Weighted>
-8.1571

> <Gold.Chemscore.Metal.Weighted>
-0.0000

> <Gold.Chemscore.Lipo.Weighted>
-3.6307

> <Gold.Chemscore.Internal_Hbond.Weighted>
0.0000

> <Gold.Chemscore.DEClash.Weighted>
0.0174

> <Gold.Chemscore.DEInternal.Weighted>
0.0008

> <Gold.Chemscore.Rot.Weighted>
2.5600

> <Gold.Chemscore.Internal.Correction.Weighted>
   9.000000E+99

> <Gold.Protein.RotatedTorsions>
[ 6907 6896 6895 6894 ] final    2.06 input  -60.11 | X-H torsion
[ 7974 7965 7964 7962 ] final  156.26 input  175.53 | X-H torsion
[ 8008 7997 7996 7995 ] final   75.94 input   59.86 | X-H torsion
[ 10167 10162 10161 10158 ] final  106.70 input  -65.29 | X-H torsion
[ 10718 10713 10712 10709 ] final  126.97 input   66.30 | X-H torsion
[ 10763 10752 10751 10750 ] final  149.66 input  -60.55 | X-H torsion
[ 11005 11000 10999 10996 ] final  -54.67 input  -57.11 | X-H torsion

> <Gold.Protein.ActiveResidues>
 VAL166  LYS551  ARG553  GLY616  TRP617  ASP618  TYR619  PRO620  LYS621  CYS622 
 ASP623  PHE694  ASN695  SER759  ASP760  ASP761  ALA762  ILE779  LEU786  VAL792 
 PHE793  MET794  SER795  GLU796  ALA797  LYS798  CYS799  TRP800  GLU811  SER814 

> <Gold.Protein.RotatedAtoms>
  151.6027  135.1046  160.0063 H   0  0  0  0  0  0  0  0  0  0  0  0  # atno 6907 bound_to 6896
  152.4249  133.7174  159.6525 H   0  0  0  0  0  0  0  0  0  0  0  0  # atno 6908 bound_to 6896
  150.8138  133.8302  159.3192 H   0  0  0  0  0  0  0  0  0  0  0  0  # atno 6909 bound_to 6896
  144.7974  139.7180  143.6196 H   0  0  0  0  0  0  0  0  0  0  0  0  # atno 7974 bound_to 7965
  155.8202  140.3470  155.5509 H   0  0  0  0  0  0  0  0  0  0  0  0  # atno 8008 bound_to 7997
  155.8350  140.0933  157.1789 H   0  0  0  0  0  0  0  0  0  0  0  0  # atno 8009 bound_to 7997
  154.4004  140.1405  156.3647 H   0  0  0  0  0  0  0  0  0  0  0  0  # atno 8010 bound_to 7997
  139.6987  144.7097  151.1222 H   0  0  0  0  0  0  0  0  0  0  0  0  # atno 10167 bound_to 10162
  157.5373  131.1097  150.8915 H   0  0  0  0  0  0  0  0  0  0  0  0  # atno 10718 bound_to 10713
  154.0747  135.2864  155.3301 H   0  0  0  0  0  0  0  0  0  0  0  0  # atno 10763 bound_to 10752
  154.6723  135.5295  153.8157 H   0  0  0  0  0  0  0  0  0  0  0  0  # atno 10764 bound_to 10752
  153.0471  135.6561  154.0926 H   0  0  0  0  0  0  0  0  0  0  0  0  # atno 10765 bound_to 10752
  141.1037  133.6615  156.4355 H   0  0  0  0  0  0  0  0  0  0  0  0  # atno 11005 bound_to 11000
  146.2245  139.5698  142.9596 LP  0  0  0  0  0  0  0  0  0  0  0  0  # atno 17320 bound_to 7965
  145.5640  141.0401  143.2211 LP  0  0  0  0  0  0  0  0  0  0  0  0  # atno 17321 bound_to 7965
  140.7704  143.5454  150.9265 LP  0  0  0  0  0  0  0  0  0  0  0  0  # atno 17342 bound_to 10162
  139.9135  143.6692  152.3110 LP  0  0  0  0  0  0  0  0  0  0  0  0  # atno 17343 bound_to 10162
  156.9478  130.5408  149.5281 LP  0  0  0  0  0  0  0  0  0  0  0  0  # atno 17370 bound_to 10713
  156.0469  130.5544  150.8900 LP  0  0  0  0  0  0  0  0  0  0  0  0  # atno 17371 bound_to 10713
  140.4957  134.6533  157.5228 LP  0  0  0  0  0  0  0  0  0  0  0  0  # atno 17394 bound_to 11000
  139.9898  134.7003  155.9709 LP  0  0  0  0  0  0  0  0  0  0  0  0  # atno 17395 bound_to 11000

$$$$
