AV-unprocessed.smi:2845|AV-procd|sdf|10945|dock7
  -GOLD-   2272015393D 1   1.00000     0.00000
 Structure written by MMmdl.
 42 44  0  0  0  0  0  0  0  0  1 V2000
  153.1999  142.4169  161.7830 C   0  0  0  0  0  0  0  0  0  0  0  0
  152.6167  142.0835  160.4211 C   0  0  0  0  0  0  0  0  0  0  0  0
  153.0273  140.8991  159.7688 C   0  0  0  0  0  0  0  0  0  0  0  0
  152.5102  140.5540  158.5008 C   0  0  0  0  0  0  0  0  0  0  0  0
  152.7694  139.4606  157.6920 N   0  0  0  0  0  0  0  0  0  0  0  0
  151.9854  139.7091  156.6471 C   0  0  0  0  0  0  0  0  0  0  0  0
  151.2476  140.8351  156.6829 N   0  0  0  0  0  0  0  0  0  0  0  0
  150.3286  141.3087  155.6631 C   0  0  0  0  0  0  0  0  0  0  0  0
  150.1094  140.2759  154.5415 C   0  0  2  0  0  0  0  0  0  0  0  0
  149.5258  140.9084  153.4174 O   0  0  0  0  0  0  0  0  0  0  0  0
  149.2194  139.1064  155.0029 C   0  0  0  0  0  0  0  0  0  0  0  0
  149.9224  137.8363  154.9888 N   0  0  0  0  0  0  0  0  0  0  0  0
  151.1759  137.5443  154.6294 C   0  0  0  0  0  0  0  0  0  0  0  0
  151.4815  136.2576  154.7347 N   0  0  0  0  0  0  0  0  0  0  0  0
  150.2859  135.7929  155.1999 C   0  0  0  0  0  0  0  0  0  0  0  0
  150.0284  134.0256  155.5526 S   0  0  2  0  0  0  0  0  0  0  0  0
  149.8645  133.5065  153.7793 C   0  0  0  0  0  0  0  0  0  0  0  0
  148.6374  133.9189  156.1812 O   0  0  0  0  0  0  0  0  0  0  0  0
  149.3151  136.6881  155.3713 N   0  0  0  0  0  0  0  0  0  0  0  0
  151.5625  141.4327  157.8988 C   0  0  0  0  0  0  0  0  0  0  0  0
  151.1467  142.6141  158.5378 C   0  0  0  0  0  0  0  0  0  0  0  0
  151.6735  142.9440  159.8041 C   0  0  0  0  0  0  0  0  0  0  0  0
  151.2191  144.2230  160.4851 C   0  0  0  0  0  0  0  0  0  0  0  0
  153.9059  141.6538  162.1117 H   0  0  0  0  0  0  0  0  0  0  0  0
  152.4098  142.4857  162.5309 H   0  0  0  0  0  0  0  0  0  0  0  0
  153.7294  143.3693  161.7487 H   0  0  0  0  0  0  0  0  0  0  0  0
  153.7465  140.2438  160.2379 H   0  0  0  0  0  0  0  0  0  0  0  0
  151.9452  139.0339  155.8048 H   0  0  0  0  0  0  0  0  0  0  0  0
  149.3796  141.5462  156.1457 H   0  0  0  0  0  0  0  0  0  0  0  0
  150.7109  142.2445  155.2534 H   0  0  0  0  0  0  0  0  0  0  0  0
  151.0781  139.8806  154.2326 H   0  0  0  0  0  0  0  0  0  0  0  0
  149.4528  140.2749  152.7197 H   0  0  0  0  0  0  0  0  0  0  0  0
  148.8673  139.2829  156.0200 H   0  0  0  0  0  0  0  0  0  0  0  0
  148.3304  139.0282  154.3747 H   0  0  0  0  0  0  0  0  0  0  0  0
  151.8769  138.2877  154.2791 H   0  0  0  0  0  0  0  0  0  0  0  0
  150.4224  134.1737  153.1217 H   0  0  0  0  0  0  0  0  0  0  0  0
  148.8168  133.5190  153.4783 H   0  0  0  0  0  0  0  0  0  0  0  0
  150.2499  132.4954  153.6489 H   0  0  0  0  0  0  0  0  0  0  0  0
  150.4308  143.2624  158.0545 H   0  0  0  0  0  0  0  0  0  0  0  0
  150.4819  144.7542  159.8823 H   0  0  0  0  0  0  0  0  0  0  0  0
  152.0653  144.8915  160.6451 H   0  0  0  0  0  0  0  0  0  0  0  0
  150.7639  144.0017  161.4507 H   0  0  0  0  0  0  0  0  0  0  0  0
  1  2  1  0  0  0  0
  1 24  1  0  0  0  0
  1 25  1  0  0  0  0
  1 26  1  0  0  0  0
  2 22  1  0  0  0  0
  2  3  2  0  0  0  0
  3  4  1  0  0  0  0
  3 27  1  0  0  0  0
  4 20  2  0  0  0  0
  4  5  1  0  0  0  0
  5  6  2  0  0  0  0
  6  7  1  0  0  0  0
  6 28  1  0  0  0  0
  7  8  1  0  0  0  0
  7 20  1  0  0  0  0
  8  9  1  0  0  0  0
  8 29  1  0  0  0  0
  8 30  1  0  0  0  0
  9 10  1  0  0  0  0
  9 11  1  0  0  0  0
  9 31  1  0  0  0  0
 10 32  1  0  0  0  0
 11 12  1  0  0  0  0
 11 33  1  0  0  0  0
 11 34  1  0  0  0  0
 12 19  1  0  0  0  0
 12 13  1  0  0  0  0
 13 14  2  0  0  0  0
 13 35  1  0  0  0  0
 14 15  1  0  0  0  0
 15 16  1  0  0  0  0
 15 19  2  0  0  0  0
 16 17  1  0  0  0  0
 16 18  2  0  0  0  0
 17 36  1  0  0  0  0
 17 37  1  0  0  0  0
 17 38  1  0  0  0  0
 20 21  1  0  0  0  0
 21 22  2  0  0  0  0
 21 39  1  0  0  0  0
 22 23  1  0  0  0  0
 23 40  1  0  0  0  0
 23 41  1  0  0  0  0
 23 42  1  0  0  0  0
M  END
> <s_m_source_file>
AV-unprocessed.smi

> <i_m_source_file_index>
2845

> <i_lp_mmshare_version>
43012

> <i_f3d_flags>
0

> <s_epik_input>
W0NIM11jKFtjSF0xKWMoW0NIM10pW2NIXWMoYzEyKW4oW2NIXW4yKVtDSDJdW0NASF0oW09IXSlbQ0gyXW4zW2NIXW5jKG4zKVtTQF0oPU8pW0NIM10=

> <s_epik_cmdline>
J2VwaWtfcHl0aG9uJywgJy1waCcsICc3LjAnLCAnLXRuJywgJzgnLCAnLW1hJywgJzIwMCcsICctbWV0YWxfYmluZGluZycsICctaW1hZScsICc8aW5maWxlLm1hZT4nLCAnLW9tYWUnLCAnPG91dGZpbGUubWFlPic=

> <r_lp_tautomer_probability>
1

> <r_epik_Ionization_Penalty>
0.0968684

> <r_epik_Ionization_Penalty_Charging>
0

> <r_epik_Ionization_Penalty_Neutral>
0.0968684

> <r_epik_State_Penalty>
0.0870047

> <r_epik_Charging_Adjusted_Penalty>
0.0870047

> <i_epik_Tot_Q>
0

> <i_epik_Tot_abs_Q>
0

> <r_epik_Metal_State_Penalty>
0.0746849

> <b_epik_Metal_Only>
0

> <s_lp_Force_Field>
OPLS_2005

> <r_lp_Energy>
9.81721

> <b_lp_Chiralities_Consistent>
1

> <s_lp_Variant>
AV-unprocessed.smi:2845-3

> <Gold.Version>
5.8.1

> <Gold.Id.Protein>
6NUR|6NUR_protein|mol2

> <Gold.PLP.Fitness>
55.6868

> <Gold.PLP.PLP>
-47.0937

> <Gold.PLP.part.hbond>
-4.5517

> <Gold.PLP.part.metal>
0.0000

> <Gold.PLP.part.buried>
-4.2794

> <Gold.PLP.part.nonpolar>
-38.4075

> <Gold.PLP.part.repulsive>
0.2781

> <Gold.PLP.ligand.clash>
0.0000

> <Gold.PLP.ligand.torsion>
1.6339

> <Gold.PLP.Chemscore.Hbond>
3.6055

> <Gold.PLP.Chemscore.CHOScore>
0.0000

> <Gold.PLP.Chemscore.Metal>
0.0000

> <Gold.Chemscore.Hbonds>
donor molecule, donor type, donor heavy atom, donor atom, acceptor molecule, acceptor atom, score
      L1  H    10    32       P1  7957  0.90
      P1  H  7997  8008       L1     5  0.65
      P1  H  8011  8017       L1    10  0.85
      P1  H 10752 10765       L1    14  1.00

> <Gold.PLP.Chemscore.Internal.Correction>
1.0443

> <Gold.Rescore>
     Score         DG    S(hbond)    S(metal)    S(lipo)     H(rot)  DE(clash)    DE(int)     intcor
     14.78     -16.94       1.98        0.00     100.76       2.71       0.56       1.60       ----

> <Gold.Chemscore.Fitness>
14.7838

> <Gold.Chemscore.DG>
-16.9434

> <Gold.Chemscore.ZeroCoef>
-5.4800

> <Gold.Chemscore.Hbond>
1.9803

> <Gold.Chemscore.Metal>
0.0000

> <Gold.Chemscore.Lipo>
100.7586

> <Gold.Chemscore.Internal_Hbond>
0.0000

> <Gold.Chemscore.DEClash>
0.5577

> <Gold.Chemscore.DEInternal>
1.6019

> <Gold.Chemscore.Rot>
2.7108

> <Gold.Chemscore.Internal.Correction>
   9.000000E+99

> <Gold.Chemscore.Hbonds>
donor molecule, donor type, donor heavy atom, donor atom, acceptor molecule, acceptor atom, score
      L1  H    10    32       P1  7957  0.85
      P1  H  7997  8008       L1     5  0.02
      P1  H  8011  8017       L1    10  0.15
      P1  H 10752 10765       L1    14  0.98

> <Gold.Chemscore.Hbond.Weighted>
-6.6143

> <Gold.Chemscore.Metal.Weighted>
-0.0000

> <Gold.Chemscore.Lipo.Weighted>
-11.7888

> <Gold.Chemscore.Internal_Hbond.Weighted>
0.0000

> <Gold.Chemscore.DEClash.Weighted>
0.5577

> <Gold.Chemscore.DEInternal.Weighted>
1.6019

> <Gold.Chemscore.Rot.Weighted>
6.9396

> <Gold.Chemscore.Internal.Correction.Weighted>
   9.000000E+99

> <Gold.Protein.RotatedTorsions>
[ 6907 6896 6895 6894 ] final   78.40 input  -60.11 | X-H torsion
[ 7974 7965 7964 7962 ] final  -84.49 input  175.53 | X-H torsion
[ 8008 7997 7996 7995 ] final  -65.25 input   59.86 | X-H torsion
[ 10167 10162 10161 10158 ] final  -56.30 input  -65.29 | X-H torsion
[ 10718 10713 10712 10709 ] final   59.12 input   66.30 | X-H torsion
[ 10763 10752 10751 10750 ] final  173.79 input  -60.55 | X-H torsion
[ 11005 11000 10999 10996 ] final  150.94 input  -57.11 | X-H torsion

> <Gold.Protein.ActiveResidues>
 VAL166  LYS551  ARG553  GLY616  TRP617  ASP618  TYR619  PRO620  LYS621  CYS622 
 ASP623  PHE694  ASN695  SER759  ASP760  ASP761  ALA762  ILE779  LEU786  VAL792 
 PHE793  MET794  SER795  GLU796  ALA797  LYS798  CYS799  TRP800  GLU811  SER814 

> <Gold.Protein.RotatedAtoms>
  152.5158  134.3670  159.9304 H   0  0  0  0  0  0  0  0  0  0  0  0  # atno 6907 bound_to 6896
  151.3624  133.3878  159.2699 H   0  0  0  0  0  0  0  0  0  0  0  0  # atno 6908 bound_to 6896
  150.9642  134.9044  159.7807 H   0  0  0  0  0  0  0  0  0  0  0  0  # atno 6909 bound_to 6896
  145.5059  140.9544  143.1734 H   0  0  0  0  0  0  0  0  0  0  0  0  # atno 7974 bound_to 7965
  154.4660  140.0937  156.7022 H   0  0  0  0  0  0  0  0  0  0  0  0  # atno 8008 bound_to 7997
  155.4856  140.3469  155.4328 H   0  0  0  0  0  0  0  0  0  0  0  0  # atno 8009 bound_to 7997
  156.0957  140.1409  156.9522 H   0  0  0  0  0  0  0  0  0  0  0  0  # atno 8010 bound_to 7997
  140.6325  143.2466  151.5203 H   0  0  0  0  0  0  0  0  0  0  0  0  # atno 10167 bound_to 10162
  157.5651  130.8865  149.9174 H   0  0  0  0  0  0  0  0  0  0  0  0  # atno 10718 bound_to 10713
  154.4449  135.2763  155.1821 H   0  0  0  0  0  0  0  0  0  0  0  0  # atno 10763 bound_to 10752
  154.3672  135.6116  153.5725 H   0  0  0  0  0  0  0  0  0  0  0  0  # atno 10764 bound_to 10752
  152.9843  135.5848  154.4784 H   0  0  0  0  0  0  0  0  0  0  0  0  # atno 10765 bound_to 10752
  140.1175  134.8885  157.2024 H   0  0  0  0  0  0  0  0  0  0  0  0  # atno 11005 bound_to 11000
  144.7754  139.6641  143.7177 LP  0  0  0  0  0  0  0  0  0  0  0  0  # atno 17320 bound_to 7965
  146.2197  139.5613  142.9626 LP  0  0  0  0  0  0  0  0  0  0  0  0  # atno 17321 bound_to 7965
  139.5538  144.2327  152.1577 LP  0  0  0  0  0  0  0  0  0  0  0  0  # atno 17342 bound_to 10162
  140.1575  144.5057  150.6651 LP  0  0  0  0  0  0  0  0  0  0  0  0  # atno 17343 bound_to 10162
  156.0700  130.3686  150.0797 LP  0  0  0  0  0  0  0  0  0  0  0  0  # atno 17370 bound_to 10713
  156.8956  130.9603  151.3583 LP  0  0  0  0  0  0  0  0  0  0  0  0  # atno 17371 bound_to 10713
  140.3009  134.3132  155.7290 LP  0  0  0  0  0  0  0  0  0  0  0  0  # atno 17394 bound_to 11000
  141.2144  133.7591  156.9639 LP  0  0  0  0  0  0  0  0  0  0  0  0  # atno 17395 bound_to 11000

$$$$
