AV-unprocessed.smi:1995|AV-procd|sdf|8079|dock8
  -GOLD-   2272010293D 1   1.00000     0.00000
 Structure written by MMmdl.
 43 44  0  0  0  0  0  0  0  0  2 V2000
  146.1179  141.2681  155.7797 C   0  0  0  0  0  0  0  0  0  0  0  0
  146.4167  141.1912  154.2715 C   0  0  0  0  0  0  0  0  0  0  0  0
  147.2343  139.9469  153.8067 C   0  0  2  0  0  0  0  0  0  0  0  0
  147.4167  140.0637  152.2705 C   0  0  0  0  0  0  0  0  0  0  0  0
  146.4406  138.6401  154.1206 C   0  0  0  0  0  0  0  0  0  0  0  0
  146.6893  137.5546  153.1719 N   0  0  0  0  0  0  0  0  0  0  0  0
  145.7884  136.6417  152.7794 C   0  0  0  0  0  0  0  0  0  0  0  0
  144.6179  136.6360  153.1614 O   0  0  0  0  0  0  0  0  0  0  0  0
  146.3320  135.7576  151.9251 N   0  0  0  0  0  0  0  0  0  0  0  0
  145.7082  134.6487  151.2956 C   0  0  0  0  0  0  0  0  0  0  0  0
  144.3855  134.5114  151.1466 N   0  0  0  0  0  0  0  0  0  0  0  0
  144.0521  133.3233  150.4913 C   0  0  0  0  0  0  0  0  0  0  0  0
  145.1414  132.5624  150.1457 C   0  0  0  0  0  0  0  0  0  0  0  0
  146.6381  133.3128  150.6325 S   0  0  0  0  0  0  0  0  0  0  0  0
  148.5768  139.9297  154.4952 N   0  3  0  0  0  0  0  0  0  0  0  0
  149.5721  138.9593  153.9564 C   0  0  0  0  0  0  0  0  0  0  0  0
  150.8035  138.8875  154.8732 C   0  0  0  0  0  0  0  0  0  0  0  0
  151.3841  140.1790  154.9875 O   0  0  0  0  0  0  0  0  0  0  0  0
  150.4849  141.1094  155.5735 C   0  0  0  0  0  0  0  0  0  0  0  0
  149.2322  141.2540  154.6924 C   0  0  0  0  0  0  0  0  0  0  0  0
  145.5480  142.1694  156.0066 H   0  0  0  0  0  0  0  0  0  0  0  0
  147.0310  141.3067  156.3731 H   0  0  0  0  0  0  0  0  0  0  0  0
  145.5278  140.4185  156.1232 H   0  0  0  0  0  0  0  0  0  0  0  0
  145.4781  141.2576  153.7219 H   0  0  0  0  0  0  0  0  0  0  0  0
  146.9522  142.1021  154.0023 H   0  0  0  0  0  0  0  0  0  0  0  0
  146.4783  140.3048  151.7699 H   0  0  0  0  0  0  0  0  0  0  0  0
  147.7669  139.1312  151.8273 H   0  0  0  0  0  0  0  0  0  0  0  0
  148.1309  140.8434  152.0046 H   0  0  0  0  0  0  0  0  0  0  0  0
  146.7156  138.2561  155.1023 H   0  0  0  0  0  0  0  0  0  0  0  0
  145.3692  138.8341  154.1704 H   0  0  0  0  0  0  0  0  0  0  0  0
  147.6258  137.4827  152.8014 H   0  0  0  0  0  0  0  0  0  0  0  0
  147.3076  135.8879  151.7022 H   0  0  0  0  0  0  0  0  0  0  0  0
  143.0114  133.0980  150.3109 H   0  0  0  0  0  0  0  0  0  0  0  0
  145.1535  131.6103  149.6361 H   0  0  0  0  0  0  0  0  0  0  0  0
  149.1534  137.9583  153.8728 H   0  0  0  0  0  0  0  0  0  0  0  0
  149.8932  139.2578  152.9585 H   0  0  0  0  0  0  0  0  0  0  0  0
  150.5362  138.5019  155.8586 H   0  0  0  0  0  0  0  0  0  0  0  0
  151.5435  138.2054  154.4538 H   0  0  0  0  0  0  0  0  0  0  0  0
  150.2163  140.7885  156.5813 H   0  0  0  0  0  0  0  0  0  0  0  0
  150.9880  142.0718  155.6705 H   0  0  0  0  0  0  0  0  0  0  0  0
  149.5114  141.6847  153.7306 H   0  0  0  0  0  0  0  0  0  0  0  0
  148.5683  141.9633  155.1828 H   0  0  0  0  0  0  0  0  0  0  0  0
  148.3710  139.6029  155.4284 H   0  0  0  0  0  0  0  0  0  0  0  0
  1  2  1  0  0  0  0
  1 21  1  0  0  0  0
  1 22  1  0  0  0  0
  1 23  1  0  0  0  0
  2  3  1  0  0  0  0
  2 24  1  0  0  0  0
  2 25  1  0  0  0  0
  3  4  1  0  0  0  0
  3  5  1  0  0  0  0
  3 15  1  0  0  0  0
  4 26  1  0  0  0  0
  4 27  1  0  0  0  0
  4 28  1  0  0  0  0
  5  6  1  0  0  0  0
  5 29  1  0  0  0  0
  5 30  1  0  0  0  0
  6  7  1  0  0  0  0
  6 31  1  0  0  0  0
  7  8  2  0  0  0  0
  7  9  1  0  0  0  0
  9 10  1  0  0  0  0
  9 32  1  0  0  0  0
 10 14  1  0  0  0  0
 10 11  2  0  0  0  0
 11 12  1  0  0  0  0
 12 13  2  0  0  0  0
 12 33  1  0  0  0  0
 13 14  1  0  0  0  0
 13 34  1  0  0  0  0
 15 20  1  0  0  0  0
 15 16  1  0  0  0  0
 15 43  1  0  0  0  0
 16 17  1  0  0  0  0
 16 35  1  0  0  0  0
 16 36  1  0  0  0  0
 17 18  1  0  0  0  0
 17 37  1  0  0  0  0
 17 38  1  0  0  0  0
 18 19  1  0  0  0  0
 19 20  1  0  0  0  0
 19 39  1  0  0  0  0
 19 40  1  0  0  0  0
 20 41  1  0  0  0  0
 20 42  1  0  0  0  0
M  CHG  1  15   1
M  END
> <s_m_source_file>
AV-unprocessed.smi

> <i_m_source_file_index>
1995

> <i_lp_mmshare_version>
43012

> <i_f3d_flags>
0

> <s_epik_input>
W0NIMl0xW0NIMl1PW0NIMl1bQ0gyXU4xW0NAQF0oW0NIM10pKFtDSDJdW0NIM10pW0NIMl1bTkhdQyg9TylbTkhdYzJuW2NIXVtjSF1zMg==

> <s_epik_cmdline>
J2VwaWtfcHl0aG9uJywgJy1waCcsICc3LjAnLCAnLXRuJywgJzgnLCAnLW1hJywgJzIwMCcsICctbWV0YWxfYmluZGluZycsICctaW1hZScsICc8aW5maWxlLm1hZT4nLCAnLW9tYWUnLCAnPG91dGZpbGUubWFlPic=

> <r_lp_tautomer_probability>
0.999

> <r_epik_Ionization_Penalty>
0.55406

> <r_epik_Ionization_Penalty_Charging>
0.553838

> <r_epik_Ionization_Penalty_Neutral>
0.000222147

> <r_epik_State_Penalty>
0.564424

> <r_epik_Charging_Adjusted_Penalty>
1.11826

> <i_epik_Tot_Q>
1

> <i_epik_Tot_abs_Q>
1

> <r_epik_Metal_State_Penalty>
0.573776

> <b_epik_Metal_Only>
0

> <s_lp_Force_Field>
OPLS_2005

> <r_lp_Energy>
26.593

> <b_lp_Chiralities_Consistent>
1

> <s_lp_Variant>
AV-unprocessed.smi:1995-4

> <Gold.Version>
5.8.1

> <Gold.Id.Protein>
6NUR|6NUR_protein|mol2

> <Gold.PLP.Fitness>
39.6845

> <Gold.PLP.PLP>
-30.2896

> <Gold.PLP.part.hbond>
-3.0000

> <Gold.PLP.part.metal>
0.0000

> <Gold.PLP.part.buried>
0.2632

> <Gold.PLP.part.nonpolar>
-27.7923

> <Gold.PLP.part.repulsive>
0.4872

> <Gold.PLP.ligand.clash>
0.0000

> <Gold.PLP.ligand.torsion>
1.2128

> <Gold.PLP.Chemscore.Hbond>
2.8960

> <Gold.PLP.Chemscore.CHOScore>
1.0000

> <Gold.PLP.Chemscore.Metal>
0.0000

> <Gold.Chemscore.Hbonds>
donor molecule, donor type, donor heavy atom, donor atom, acceptor molecule, acceptor atom, score
      L1  H     6    31       P1  7948  0.86
      L1  H     9    32       P1  7948  1.00
      P1  H  7989  7998       L1    18  1.00
      L1  C    12    33       P1 10186  1.00

> <Gold.PLP.Chemscore.Internal.Correction>
0.1326

> <Gold.Rescore>
     Score         DG    S(hbond)    S(metal)    S(lipo)     H(rot)  DE(clash)    DE(int)     intcor
     14.27     -18.90       2.46        0.00      83.83       1.79       2.20       2.43       ----

> <Gold.Chemscore.Fitness>
14.2687

> <Gold.Chemscore.DG>
-18.8987

> <Gold.Chemscore.ZeroCoef>
-5.4800

> <Gold.Chemscore.Hbond>
2.4561

> <Gold.Chemscore.Metal>
0.0000

> <Gold.Chemscore.Lipo>
83.8316

> <Gold.Chemscore.Internal_Hbond>
0.0000

> <Gold.Chemscore.DEClash>
2.2020

> <Gold.Chemscore.DEInternal>
2.4280

> <Gold.Chemscore.Rot>
1.7942

> <Gold.Chemscore.Internal.Correction>
   9.000000E+99

> <Gold.Chemscore.Hbonds>
donor molecule, donor type, donor heavy atom, donor atom, acceptor molecule, acceptor atom, score
      L1  H     6    31       P1  7948  0.80
      L1  H     9    32       P1  7948  1.00
      P1  H  7989  7998       L1    18  0.24

> <Gold.Chemscore.Hbond.Weighted>
-8.2034

> <Gold.Chemscore.Metal.Weighted>
-0.0000

> <Gold.Chemscore.Lipo.Weighted>
-9.8083

> <Gold.Chemscore.Internal_Hbond.Weighted>
0.0000

> <Gold.Chemscore.DEClash.Weighted>
2.2020

> <Gold.Chemscore.DEInternal.Weighted>
2.4280

> <Gold.Chemscore.Rot.Weighted>
4.5931

> <Gold.Chemscore.Internal.Correction.Weighted>
   9.000000E+99

> <Gold.Protein.RotatedTorsions>
[ 6907 6896 6895 6894 ] final   73.72 input  -60.11 | X-H torsion
[ 7974 7965 7964 7962 ] final  112.82 input  175.53 | X-H torsion
[ 8008 7997 7996 7995 ] final  116.18 input   59.86 | X-H torsion
[ 10167 10162 10161 10158 ] final -118.22 input  -65.29 | X-H torsion
[ 10718 10713 10712 10709 ] final   88.92 input   66.30 | X-H torsion
[ 10763 10752 10751 10750 ] final  150.95 input  -60.55 | X-H torsion
[ 11005 11000 10999 10996 ] final   44.76 input  -57.11 | X-H torsion

> <Gold.Protein.ActiveResidues>
 VAL166  LYS551  ARG553  GLY616  TRP617  ASP618  TYR619  PRO620  LYS621  CYS622 
 ASP623  PHE694  ASN695  SER759  ASP760  ASP761  ALA762  ILE779  LEU786  VAL792 
 PHE793  MET794  SER795  GLU796  ALA797  LYS798  CYS799  TRP800  GLU811  SER814 

> <Gold.Protein.RotatedAtoms>
  152.4938  134.4379  159.9533 H   0  0  0  0  0  0  0  0  0  0  0  0  # atno 6907 bound_to 6896
  151.4361  133.3650  159.2783 H   0  0  0  0  0  0  0  0  0  0  0  0  # atno 6908 bound_to 6896
  150.9120  134.8560  159.7491 H   0  0  0  0  0  0  0  0  0  0  0  0  # atno 6909 bound_to 6896
  145.2247  139.2846  143.4200 H   0  0  0  0  0  0  0  0  0  0  0  0  # atno 7974 bound_to 7965
  156.2424  140.2923  156.0483 H   0  0  0  0  0  0  0  0  0  0  0  0  # atno 8008 bound_to 7997
  155.1910  140.0407  157.2917 H   0  0  0  0  0  0  0  0  0  0  0  0  # atno 8009 bound_to 7997
  154.6195  140.2472  155.7574 H   0  0  0  0  0  0  0  0  0  0  0  0  # atno 8010 bound_to 7997
  140.0599  143.4978  152.2037 H   0  0  0  0  0  0  0  0  0  0  0  0  # atno 10167 bound_to 10162
  157.6952  131.0313  150.3347 H   0  0  0  0  0  0  0  0  0  0  0  0  # atno 10718 bound_to 10713
  154.0958  135.2849  155.3262 H   0  0  0  0  0  0  0  0  0  0  0  0  # atno 10763 bound_to 10752
  154.6589  135.5342  153.7997 H   0  0  0  0  0  0  0  0  0  0  0  0  # atno 10764 bound_to 10752
  153.0397  135.6529  154.1124 H   0  0  0  0  0  0  0  0  0  0  0  0  # atno 10765 bound_to 10752
  140.1522  134.4447  155.8374 H   0  0  0  0  0  0  0  0  0  0  0  0  # atno 11005 bound_to 11000
  146.3367  140.2564  142.8600 LP  0  0  0  0  0  0  0  0  0  0  0  0  # atno 17320 bound_to 7965
  144.9732  140.8389  143.5442 LP  0  0  0  0  0  0  0  0  0  0  0  0  # atno 17321 bound_to 7965
  139.5900  144.7546  151.3424 LP  0  0  0  0  0  0  0  0  0  0  0  0  # atno 17342 bound_to 10162
  140.7177  143.7222  150.7687 LP  0  0  0  0  0  0  0  0  0  0  0  0  # atno 17343 bound_to 10162
  156.3816  130.3881  149.7097 LP  0  0  0  0  0  0  0  0  0  0  0  0  # atno 17370 bound_to 10713
  156.4478  130.7892  151.2913 LP  0  0  0  0  0  0  0  0  0  0  0  0  # atno 17371 bound_to 10713
  141.2200  133.6877  156.7443 LP  0  0  0  0  0  0  0  0  0  0  0  0  # atno 17394 bound_to 11000
  140.2590  134.8481  157.3741 LP  0  0  0  0  0  0  0  0  0  0  0  0  # atno 17395 bound_to 11000

$$$$
