AV-unprocessed.smi:3186|AV-procd|sdf|12174|dock9
  -GOLD-   2272018 13D 1   1.00000     0.00000
 Structure written by MMmdl.
 37 38  0  0  0  0  0  0  0  0  2 V2000
  150.3074  138.8606  154.3095 C   0  0  0  0  0  0  0  0  0  0  0  0
  148.8678  139.3406  154.3620 C   0  0  0  0  0  0  0  0  0  0  0  0
  147.8169  138.4241  154.1373 C   0  0  0  0  0  0  0  0  0  0  0  0
  146.5113  138.7636  154.1632 N   0  0  0  0  0  0  0  0  0  0  0  0
  146.1990  140.0510  154.4159 C   0  0  0  0  0  0  0  0  0  0  0  0
  147.1654  141.0476  154.6539 C   0  0  0  0  0  0  0  0  0  0  0  0
  148.5302  140.6913  154.6268 C   0  0  0  0  0  0  0  0  0  0  0  0
  149.5835  141.7562  154.8886 C   0  0  0  0  0  0  0  0  0  0  0  0
  150.1149  141.7032  156.3278 C   0  0  0  0  0  0  0  0  0  0  0  0
  150.7188  142.9948  156.7170 N   0  3  0  0  0  0  0  0  0  0  0  0
  151.0964  143.1106  158.1435 C   0  0  1  0  0  0  0  0  0  0  0  0
  151.9496  141.9020  158.5900 C   0  0  0  0  0  0  0  0  0  0  0  0
  152.3226  141.9515  160.0808 C   0  0  0  0  0  0  0  0  0  0  0  0
  153.1494  143.1934  160.4405 C   0  0  0  0  0  0  0  0  0  0  0  0
  152.2158  144.7130  160.1182 S   0  0  0  0  0  0  0  0  0  0  0  0
  151.8490  144.4355  158.3641 C   0  0  0  0  0  0  0  0  0  0  0  0
  150.3575  137.7760  154.2056 H   0  0  0  0  0  0  0  0  0  0  0  0
  150.8424  139.1312  155.2195 H   0  0  0  0  0  0  0  0  0  0  0  0
  150.8240  139.3027  153.4574 H   0  0  0  0  0  0  0  0  0  0  0  0
  148.0280  137.3851  153.9302 H   0  0  0  0  0  0  0  0  0  0  0  0
  145.1471  140.2953  154.4307 H   0  0  0  0  0  0  0  0  0  0  0  0
  146.8594  142.0642  154.8533 H   0  0  0  0  0  0  0  0  0  0  0  0
  150.4023  141.6515  154.1765 H   0  0  0  0  0  0  0  0  0  0  0  0
  149.1457  142.7364  154.6939 H   0  0  0  0  0  0  0  0  0  0  0  0
  149.3018  141.4668  157.0156 H   0  0  0  0  0  0  0  0  0  0  0  0
  150.8514  140.9059  156.4187 H   0  0  0  0  0  0  0  0  0  0  0  0
  151.5364  143.1677  156.1498 H   0  0  0  0  0  0  0  0  0  0  0  0
  150.1792  143.1432  158.7340 H   0  0  0  0  0  0  0  0  0  0  0  0
  151.4118  140.9722  158.4071 H   0  0  0  0  0  0  0  0  0  0  0  0
  152.8587  141.8486  157.9893 H   0  0  0  0  0  0  0  0  0  0  0  0
  151.4183  141.9219  160.6899 H   0  0  0  0  0  0  0  0  0  0  0  0
  152.8913  141.0572  160.3378 H   0  0  0  0  0  0  0  0  0  0  0  0
  153.4272  143.1704  161.4946 H   0  0  0  0  0  0  0  0  0  0  0  0
  154.0758  143.2145  159.8655 H   0  0  0  0  0  0  0  0  0  0  0  0
  152.7839  144.4471  157.8022 H   0  0  0  0  0  0  0  0  0  0  0  0
  151.2524  145.2759  158.0076 H   0  0  0  0  0  0  0  0  0  0  0  0
  150.0362  143.7132  156.5211 H   0  0  0  0  0  0  0  0  0  0  0  0
  1  2  1  0  0  0  0
  1 17  1  0  0  0  0
  1 18  1  0  0  0  0
  1 19  1  0  0  0  0
  2  7  1  0  0  0  0
  2  3  2  0  0  0  0
  3  4  1  0  0  0  0
  3 20  1  0  0  0  0
  4  5  2  0  0  0  0
  5  6  1  0  0  0  0
  5 21  1  0  0  0  0
  6  7  2  0  0  0  0
  6 22  1  0  0  0  0
  7  8  1  0  0  0  0
  8  9  1  0  0  0  0
  8 23  1  0  0  0  0
  8 24  1  0  0  0  0
  9 10  1  0  0  0  0
  9 25  1  0  0  0  0
  9 26  1  0  0  0  0
 10 11  1  0  0  0  0
 10 27  1  0  0  0  0
 10 37  1  0  0  0  0
 11 16  1  0  0  0  0
 11 12  1  0  0  0  0
 11 28  1  0  0  0  0
 12 13  1  0  0  0  0
 12 29  1  0  0  0  0
 12 30  1  0  0  0  0
 13 14  1  0  0  0  0
 13 31  1  0  0  0  0
 13 32  1  0  0  0  0
 14 15  1  0  0  0  0
 14 33  1  0  0  0  0
 14 34  1  0  0  0  0
 15 16  1  0  0  0  0
 16 35  1  0  0  0  0
 16 36  1  0  0  0  0
M  CHG  1  10   1
M  END
> <s_m_source_file>
AV-unprocessed.smi

> <i_m_source_file_index>
3186

> <i_lp_mmshare_version>
43012

> <i_f3d_flags>
0

> <s_epik_input>
W0NIM11jMVtjSF1uW2NIXVtjSF1jMVtDSDJdW0NIMl1bTkhdW0NAQEhdMltDSDJdW0NIMl1bQ0gyXVNbQ0gyXTI=

> <s_epik_cmdline>
J2VwaWtfcHl0aG9uJywgJy1waCcsICc3LjAnLCAnLXRuJywgJzgnLCAnLW1hJywgJzIwMCcsICctbWV0YWxfYmluZGluZycsICctaW1hZScsICc8aW5maWxlLm1hZT4nLCAnLW9tYWUnLCAnPG91dGZpbGUubWFlPic=

> <r_epik_Ionization_Penalty>
0.00563987

> <r_epik_Ionization_Penalty_Charging>
0.00306352

> <r_epik_Ionization_Penalty_Neutral>
0.00257635

> <r_epik_State_Penalty>
0.00506628

> <r_epik_Charging_Adjusted_Penalty>
0.0081298

> <i_epik_Tot_Q>
1

> <i_epik_Tot_abs_Q>
1

> <r_epik_Metal_State_Penalty>
-0

> <b_epik_Metal_Only>
0

> <s_lp_Force_Field>
OPLS_2005

> <r_lp_Energy>
10.8164

> <b_lp_Chiralities_Consistent>
1

> <s_lp_Variant>
AV-unprocessed.smi:3186-2

> <Gold.Version>
5.8.1

> <Gold.Id.Protein>
6NUR|6NUR_protein|mol2

> <Gold.PLP.Fitness>
45.1345

> <Gold.PLP.PLP>
-33.9868

> <Gold.PLP.part.hbond>
-1.0000

> <Gold.PLP.part.metal>
0.0000

> <Gold.PLP.part.buried>
-2.1692

> <Gold.PLP.part.nonpolar>
-30.7945

> <Gold.PLP.part.repulsive>
0.1918

> <Gold.PLP.ligand.clash>
0.0000

> <Gold.PLP.ligand.torsion>
0.4311

> <Gold.PLP.Chemscore.Hbond>
2.0000

> <Gold.PLP.Chemscore.CHOScore>
2.0000

> <Gold.PLP.Chemscore.Metal>
0.0000

> <Gold.Chemscore.Hbonds>
donor molecule, donor type, donor heavy atom, donor atom, acceptor molecule, acceptor atom, score
      L1  H    10    37       P1  8028  2.00
      L1  C     3    20       P1  7948  0.98
      L1  C     5    21       P1 10175  0.93

> <Gold.PLP.Chemscore.Internal.Correction>
0.0098

> <Gold.Rescore>
     Score         DG    S(hbond)    S(metal)    S(lipo)     H(rot)  DE(clash)    DE(int)     intcor
     18.61     -19.39       0.99        0.00     119.20       1.30       0.40       0.38       ----

> <Gold.Chemscore.Fitness>
18.6123

> <Gold.Chemscore.DG>
-19.3938

> <Gold.Chemscore.ZeroCoef>
-5.4800

> <Gold.Chemscore.Hbond>
0.9890

> <Gold.Chemscore.Metal>
0.0000

> <Gold.Chemscore.Lipo>
119.2012

> <Gold.Chemscore.Internal_Hbond>
0.0000

> <Gold.Chemscore.DEClash>
0.3987

> <Gold.Chemscore.DEInternal>
0.3829

> <Gold.Chemscore.Rot>
1.3031

> <Gold.Chemscore.Internal.Correction>
   9.000000E+99

> <Gold.Chemscore.Hbonds>
donor molecule, donor type, donor heavy atom, donor atom, acceptor molecule, acceptor atom, score
      L1  H    10    37       P1  8028  1.00

> <Gold.Chemscore.Hbond.Weighted>
-3.3033

> <Gold.Chemscore.Metal.Weighted>
-0.0000

> <Gold.Chemscore.Lipo.Weighted>
-13.9465

> <Gold.Chemscore.Internal_Hbond.Weighted>
0.0000

> <Gold.Chemscore.DEClash.Weighted>
0.3987

> <Gold.Chemscore.DEInternal.Weighted>
0.3829

> <Gold.Chemscore.Rot.Weighted>
3.3361

> <Gold.Chemscore.Internal.Correction.Weighted>
   9.000000E+99

> <Gold.Protein.RotatedTorsions>
[ 6907 6896 6895 6894 ] final   98.84 input  -60.11 | X-H torsion
[ 7974 7965 7964 7962 ] final   62.62 input  175.53 | X-H torsion
[ 8008 7997 7996 7995 ] final  133.82 input   59.86 | X-H torsion
[ 10167 10162 10161 10158 ] final   52.29 input  -65.29 | X-H torsion
[ 10718 10713 10712 10709 ] final   88.91 input   66.30 | X-H torsion
[ 10763 10752 10751 10750 ] final  -12.62 input  -60.55 | X-H torsion
[ 11005 11000 10999 10996 ] final   55.19 input  -57.11 | X-H torsion

> <Gold.Protein.ActiveResidues>
 VAL166  LYS551  ARG553  GLY616  TRP617  ASP618  TYR619  PRO620  LYS621  CYS622 
 ASP623  PHE694  ASN695  SER759  ASP760  ASP761  ALA762  ILE779  LEU786  VAL792 
 PHE793  MET794  SER795  GLU796  ALA797  LYS798  CYS799  TRP800  GLU811  SER814 

> <Gold.Protein.RotatedAtoms>
  152.5402  134.0519  159.8113 H   0  0  0  0  0  0  0  0  0  0  0  0  # atno 6907 bound_to 6896
  151.0660  133.5498  159.2638 H   0  0  0  0  0  0  0  0  0  0  0  0  # atno 6908 bound_to 6896
  151.2379  135.0586  159.9067 H   0  0  0  0  0  0  0  0  0  0  0  0  # atno 6909 bound_to 6896
  145.8712  139.3379  143.0761 H   0  0  0  0  0  0  0  0  0  0  0  0  # atno 7974 bound_to 7965
  156.2995  140.2511  156.3316 H   0  0  0  0  0  0  0  0  0  0  0  0  # atno 8008 bound_to 7997
  154.9139  140.0402  157.1980 H   0  0  0  0  0  0  0  0  0  0  0  0  # atno 8009 bound_to 7997
  154.8378  140.2886  155.5684 H   0  0  0  0  0  0  0  0  0  0  0  0  # atno 8010 bound_to 7997
  140.2529  144.3459  150.6342 H   0  0  0  0  0  0  0  0  0  0  0  0  # atno 10167 bound_to 10162
  157.6952  131.0313  150.3345 H   0  0  0  0  0  0  0  0  0  0  0  0  # atno 10718 bound_to 10713
  153.5011  135.7017  153.5831 H   0  0  0  0  0  0  0  0  0  0  0  0  # atno 10763 bound_to 10752
  153.3962  135.3883  155.1957 H   0  0  0  0  0  0  0  0  0  0  0  0  # atno 10764 bound_to 10752
  154.8710  135.3870  154.4482 H   0  0  0  0  0  0  0  0  0  0  0  0  # atno 10765 bound_to 10752
  140.0626  134.5581  155.9135 H   0  0  0  0  0  0  0  0  0  0  0  0  # atno 11005 bound_to 11000
  145.9134  140.9164  143.0442 LP  0  0  0  0  0  0  0  0  0  0  0  0  # atno 17320 bound_to 7965
  144.6726  140.1191  143.7451 LP  0  0  0  0  0  0  0  0  0  0  0  0  # atno 17321 bound_to 7965
  140.6027  143.2167  151.7042 LP  0  0  0  0  0  0  0  0  0  0  0  0  # atno 17342 bound_to 10162
  139.5041  144.3768  152.0416 LP  0  0  0  0  0  0  0  0  0  0  0  0  # atno 17343 bound_to 10162
  156.3814  130.3881  149.7098 LP  0  0  0  0  0  0  0  0  0  0  0  0  # atno 17370 bound_to 10713
  156.4479  130.7893  151.2914 LP  0  0  0  0  0  0  0  0  0  0  0  0  # atno 17371 bound_to 10713
  141.1979  133.6599  156.5767 LP  0  0  0  0  0  0  0  0  0  0  0  0  # atno 17394 bound_to 11000
  140.3747  134.7575  157.4622 LP  0  0  0  0  0  0  0  0  0  0  0  0  # atno 17395 bound_to 11000

$$$$
