AV-unprocessed.smi:2761|AV-procd|sdf|10633|dock3
  -GOLD-   2272015 83D 1   1.00000     0.00000
 Structure written by MMmdl.
 27 28  0  0  0  0  0  0  0  0  1 V2000
  154.0218  140.9851  158.9850 O   0  0  0  0  0  0  0  0  0  0  0  0
  153.0607  141.6976  158.6865 C   0  0  0  0  0  0  0  0  0  0  0  0
  152.1342  141.3969  157.7505 N   0  0  0  0  0  0  0  0  0  0  0  0
  152.0667  140.2678  156.9268 C   0  0  0  0  0  0  0  0  0  0  0  0
  150.7704  140.1404  156.3052 C   0  0  0  0  0  0  0  0  0  0  0  0
  150.5708  139.0894  155.4808 C   0  0  0  0  0  0  0  0  0  0  0  0
  151.6334  138.1173  155.2262 C   0  0  0  0  0  0  0  0  0  0  0  0
  151.5245  137.1406  154.4889 O   0  0  0  0  0  0  0  0  0  0  0  0
  152.7855  138.3934  155.8928 N   0  0  0  0  0  0  0  0  0  0  0  0
  153.0631  139.4484  156.7540 N   0  0  0  0  0  0  0  0  0  0  0  0
  152.8390  143.0296  159.4188 C   0  0  1  0  0  0  0  0  0  0  0  0
  151.8162  143.9501  158.7124 C   0  0  0  0  0  0  0  0  0  0  0  0
  151.6439  145.1355  159.4782 O   0  0  0  0  0  0  0  0  0  0  0  0
  151.1678  144.8429  160.7843 C   0  0  0  0  0  0  0  0  0  0  0  0
  152.1879  143.9392  161.4952 C   0  0  0  0  0  0  0  0  0  0  0  0
  152.3641  142.7517  160.7342 O   0  0  0  0  0  0  0  0  0  0  0  0
  151.4039  142.0848  157.6368 H   0  0  0  0  0  0  0  0  0  0  0  0
  149.9630  140.8395  156.4692 H   0  0  0  0  0  0  0  0  0  0  0  0
  149.6119  138.9626  155.0000 H   0  0  0  0  0  0  0  0  0  0  0  0
  153.5669  137.7659  155.7669 H   0  0  0  0  0  0  0  0  0  0  0  0
  153.8042  143.5350  159.4838 H   0  0  0  0  0  0  0  0  0  0  0  0
  152.1713  144.2326  157.7207 H   0  0  0  0  0  0  0  0  0  0  0  0
  150.8556  143.4488  158.5805 H   0  0  0  0  0  0  0  0  0  0  0  0
  151.0388  145.7752  161.3340 H   0  0  0  0  0  0  0  0  0  0  0  0
  150.1899  144.3616  160.7313 H   0  0  0  0  0  0  0  0  0  0  0  0
  153.1426  144.4521  161.6210 H   0  0  0  0  0  0  0  0  0  0  0  0
  151.8310  143.6744  162.4905 H   0  0  0  0  0  0  0  0  0  0  0  0
  1  2  2  0  0  0  0
  2  3  1  0  0  0  0
  2 11  1  0  0  0  0
  3 17  1  0  0  0  0
  3  4  1  0  0  0  0
  4  5  1  0  0  0  0
  4 10  2  0  0  0  0
  5  6  2  0  0  0  0
  5 18  1  0  0  0  0
  6  7  1  0  0  0  0
  6 19  1  0  0  0  0
  7  8  2  0  0  0  0
  7  9  1  0  0  0  0
  9 10  1  0  0  0  0
  9 20  1  0  0  0  0
 11 16  1  0  0  0  0
 11 12  1  0  0  0  0
 11 21  1  0  0  0  0
 12 13  1  0  0  0  0
 12 22  1  0  0  0  0
 12 23  1  0  0  0  0
 13 14  1  0  0  0  0
 14 15  1  0  0  0  0
 14 24  1  0  0  0  0
 14 25  1  0  0  0  0
 15 16  1  0  0  0  0
 15 26  1  0  0  0  0
 15 27  1  0  0  0  0
M  END
> <s_m_source_file>
AV-unprocessed.smi

> <i_m_source_file_index>
2761

> <i_lp_mmshare_version>
43012

> <i_f3d_flags>
0

> <s_epik_input>
TzFbQ0gyXVtDSDJdT1tDSDJdW0NASF0xQyg9TylbTkhdYzJbY0hdW2NIXWMoW09IXSlubjI=

> <s_epik_cmdline>
J2VwaWtfcHl0aG9uJywgJy1waCcsICc3LjAnLCAnLXRuJywgJzgnLCAnLW1hJywgJzIwMCcsICctbWV0YWxfYmluZGluZycsICctaW1hZScsICc8aW5maWxlLm1hZT4nLCAnLW9tYWUnLCAnPG91dGZpbGUubWFlPic=

> <r_lp_tautomer_probability>
1

> <r_epik_Ionization_Penalty>
0.000593199

> <r_epik_Ionization_Penalty_Charging>
0.000590119

> <r_epik_Ionization_Penalty_Neutral>
3.08036e-06

> <r_epik_State_Penalty>
-0

> <r_epik_Charging_Adjusted_Penalty>
0.000590119

> <i_epik_Tot_Q>
0

> <i_epik_Tot_abs_Q>
0

> <r_epik_Metal_State_Penalty>
0.240077

> <b_epik_Metal_Only>
0

> <s_lp_Force_Field>
OPLS_2005

> <r_lp_Energy>
26.3126

> <b_lp_Chiralities_Consistent>
1

> <s_lp_Variant>
AV-unprocessed.smi:2761-2

> <Gold.Version>
5.8.1

> <Gold.Id.Protein>
6NUR|6NUR_protein|mol2

> <Gold.PLP.Fitness>
36.2555

> <Gold.PLP.PLP>
-31.4669

> <Gold.PLP.part.hbond>
-2.6480

> <Gold.PLP.part.metal>
0.0000

> <Gold.PLP.part.buried>
-3.4498

> <Gold.PLP.part.nonpolar>
-25.8131

> <Gold.PLP.part.repulsive>
0.5418

> <Gold.PLP.ligand.clash>
0.1133

> <Gold.PLP.ligand.torsion>
0.3888

> <Gold.PLP.Chemscore.Hbond>
1.8928

> <Gold.PLP.Chemscore.CHOScore>
0.0000

> <Gold.PLP.Chemscore.Metal>
0.0000

> <Gold.Chemscore.Hbonds>
donor molecule, donor type, donor heavy atom, donor atom, acceptor molecule, acceptor atom, score
      P1  H  7997  8010       L1    10  0.77
      P1  H 10752 10765       L1     8  0.78

> <Gold.PLP.Chemscore.Internal.Correction>
0.0012

> <Gold.Rescore>
     Score         DG    S(hbond)    S(metal)    S(lipo)     H(rot)  DE(clash)    DE(int)     intcor
     13.23     -15.29       1.74        0.00      56.11       1.00       0.24       1.82       ----

> <Gold.Chemscore.Fitness>
13.2329

> <Gold.Chemscore.DG>
-15.2902

> <Gold.Chemscore.ZeroCoef>
-5.4800

> <Gold.Chemscore.Hbond>
1.7382

> <Gold.Chemscore.Metal>
0.0000

> <Gold.Chemscore.Lipo>
56.1088

> <Gold.Chemscore.Internal_Hbond>
0.0000

> <Gold.Chemscore.DEClash>
0.2405

> <Gold.Chemscore.DEInternal>
1.8168

> <Gold.Chemscore.Rot>
1.0000

> <Gold.Chemscore.Internal.Correction>
   9.000000E+99

> <Gold.Chemscore.Hbonds>
donor molecule, donor type, donor heavy atom, donor atom, acceptor molecule, acceptor atom, score
      P1  H  7997  8010       L1    10  0.73
      P1  H 10752 10765       L1     8  0.73

> <Gold.Chemscore.Hbond.Weighted>
-5.8054

> <Gold.Chemscore.Metal.Weighted>
-0.0000

> <Gold.Chemscore.Lipo.Weighted>
-6.5647

> <Gold.Chemscore.Internal_Hbond.Weighted>
0.0000

> <Gold.Chemscore.DEClash.Weighted>
0.2405

> <Gold.Chemscore.DEInternal.Weighted>
1.8168

> <Gold.Chemscore.Rot.Weighted>
2.5600

> <Gold.Chemscore.Internal.Correction.Weighted>
   9.000000E+99

> <Gold.Protein.RotatedTorsions>
[ 6907 6896 6895 6894 ] final -168.82 input  -60.11 | X-H torsion
[ 7974 7965 7964 7962 ] final  -56.55 input  175.53 | X-H torsion
[ 8008 7997 7996 7995 ] final   36.47 input   59.86 | X-H torsion
[ 10167 10162 10161 10158 ] final  162.14 input  -65.29 | X-H torsion
[ 10718 10713 10712 10709 ] final  107.30 input   66.30 | X-H torsion
[ 10763 10752 10751 10750 ] final  146.59 input  -60.55 | X-H torsion
[ 11005 11000 10999 10996 ] final -112.03 input  -57.11 | X-H torsion

> <Gold.Protein.ActiveResidues>
 VAL166  LYS551  ARG553  GLY616  TRP617  ASP618  TYR619  PRO620  LYS621  CYS622 
 ASP623  PHE694  ASN695  SER759  ASP760  ASP761  ALA762  ILE779  LEU786  VAL792 
 PHE793  MET794  SER795  GLU796  ALA797  LYS798  CYS799  TRP800  GLU811  SER814 

> <Gold.Protein.RotatedAtoms>
  151.4818  133.3545  159.2839 H   0  0  0  0  0  0  0  0  0  0  0  0  # atno 6907 bound_to 6896
  150.8892  134.8296  159.7292 H   0  0  0  0  0  0  0  0  0  0  0  0  # atno 6908 bound_to 6896
  152.4812  134.4725  159.9692 H   0  0  0  0  0  0  0  0  0  0  0  0  # atno 6909 bound_to 6896
  145.8614  140.8283  142.9935 H   0  0  0  0  0  0  0  0  0  0  0  0  # atno 7974 bound_to 7965
  155.1880  140.3305  155.4363 H   0  0  0  0  0  0  0  0  0  0  0  0  # atno 8008 bound_to 7997
  156.2453  140.1915  156.6924 H   0  0  0  0  0  0  0  0  0  0  0  0  # atno 8009 bound_to 7997
  154.6226  140.0593  156.9619 H   0  0  0  0  0  0  0  0  0  0  0  0  # atno 8010 bound_to 7997
  139.4857  144.4467  151.8882 H   0  0  0  0  0  0  0  0  0  0  0  0  # atno 10167 bound_to 10162
  157.6634  131.0870  150.6136 H   0  0  0  0  0  0  0  0  0  0  0  0  # atno 10718 bound_to 10713
  154.0244  135.2903  155.3377 H   0  0  0  0  0  0  0  0  0  0  0  0  # atno 10763 bound_to 10752
  154.7027  135.5182  153.8553 H   0  0  0  0  0  0  0  0  0  0  0  0  # atno 10764 bound_to 10752
  153.0667  135.6633  154.0462 H   0  0  0  0  0  0  0  0  0  0  0  0  # atno 10765 bound_to 10752
  141.0699  133.9396  157.2505 H   0  0  0  0  0  0  0  0  0  0  0  0  # atno 11005 bound_to 11000
  144.6726  140.1101  143.7456 LP  0  0  0  0  0  0  0  0  0  0  0  0  # atno 17320 bound_to 7965
  145.9244  139.2566  143.1362 LP  0  0  0  0  0  0  0  0  0  0  0  0  # atno 17321 bound_to 7965
  140.3922  144.2601  150.5899 LP  0  0  0  0  0  0  0  0  0  0  0  0  # atno 17342 bound_to 10162
  140.5135  143.2284  151.8498 LP  0  0  0  0  0  0  0  0  0  0  0  0  # atno 17343 bound_to 10162
  156.6438  130.4466  149.5743 LP  0  0  0  0  0  0  0  0  0  0  0  0  # atno 17370 bound_to 10713
  156.2189  130.6725  151.1348 LP  0  0  0  0  0  0  0  0  0  0  0  0  # atno 17371 bound_to 10713
  139.9513  135.0175  156.9003 LP  0  0  0  0  0  0  0  0  0  0  0  0  # atno 17394 bound_to 11000
  140.5694  134.0457  155.7425 LP  0  0  0  0  0  0  0  0  0  0  0  0  # atno 17395 bound_to 11000

$$$$
