AV-unprocessed.smi:666|AV-procd|sdf|3254|dock2
  -GOLD-   22720 0203D 1   1.00000     0.00000
 Structure written by MMmdl.
 34 35  0  0  0  0  0  0  0  0  2 V2000
  155.0336  140.2938  159.3376 O   0  0  0  0  0  0  0  0  0  0  0  0
  153.9716  139.9491  159.8571 C   0  0  0  0  0  0  0  0  0  0  0  0
  153.0807  141.0081  160.5180 C   0  0  0  0  0  0  0  0  0  0  0  0
  152.6708  142.1662  159.6236 C   0  0  0  0  0  0  0  0  0  0  0  0
  151.9499  141.9852  158.4996 C   0  0  0  0  0  0  0  0  0  0  0  0
  151.5288  143.1078  157.5677 C   0  0  0  0  0  0  0  0  0  0  0  0
  152.2983  144.4116  157.8387 C   0  0  0  0  0  0  0  0  0  0  0  0
  152.4013  144.6909  159.3435 C   0  0  0  0  0  0  0  0  0  0  0  0
  153.1214  143.5479  160.0817 C   0  0  0  0  0  0  0  0  0  0  0  0
  153.4237  138.7140  159.9310 N   0  5  0  0  0  0  0  0  0  0  0  0
  152.9251  137.8839  158.6288 S   0  0  0  0  0  0  0  0  0  0  0  0
  154.0111  137.1005  158.0185 O   0  0  0  0  0  0  0  0  0  0  0  0
  151.6639  137.1754  158.8969 O   0  0  0  0  0  0  0  0  0  0  0  0
  152.5176  139.2298  157.4202 C   0  0  0  0  0  0  0  0  0  0  0  0
  152.4705  138.6952  156.0142 C   0  0  0  0  0  0  0  0  0  0  0  0
  152.2234  139.4006  154.8032 C   0  0  0  0  0  0  0  0  0  0  0  0
  152.3095  138.4330  153.8448 C   0  0  0  0  0  0  0  0  0  0  0  0
  152.5958  137.2321  154.4070 O   0  0  0  0  0  0  0  0  0  0  0  0
  152.7002  137.4099  155.7913 N   0  0  0  0  0  0  0  0  0  0  0  0
  152.1775  140.5671  160.9453 H   0  0  0  0  0  0  0  0  0  0  0  0
  153.6410  141.4078  161.3642 H   0  0  0  0  0  0  0  0  0  0  0  0
  151.6279  140.9912  158.2248 H   0  0  0  0  0  0  0  0  0  0  0  0
  151.6817  142.7948  156.5347 H   0  0  0  0  0  0  0  0  0  0  0  0
  150.4580  143.2682  157.6967 H   0  0  0  0  0  0  0  0  0  0  0  0
  153.3025  144.3360  157.4193 H   0  0  0  0  0  0  0  0  0  0  0  0
  151.8131  145.2442  157.3287 H   0  0  0  0  0  0  0  0  0  0  0  0
  152.9209  145.6330  159.5207 H   0  0  0  0  0  0  0  0  0  0  0  0
  151.3976  144.8112  159.7532 H   0  0  0  0  0  0  0  0  0  0  0  0
  152.9523  143.6483  161.1540 H   0  0  0  0  0  0  0  0  0  0  0  0
  154.1980  143.6206  159.9239 H   0  0  0  0  0  0  0  0  0  0  0  0
  151.5783  139.7041  157.7006 H   0  0  0  0  0  0  0  0  0  0  0  0
  153.2944  139.9892  157.5132 H   0  0  0  0  0  0  0  0  0  0  0  0
  152.0089  140.4494  154.6625 H   0  0  0  0  0  0  0  0  0  0  0  0
  152.2004  138.4411  152.7705 H   0  0  0  0  0  0  0  0  0  0  0  0
  1  2  2  0  0  0  0
  2  3  1  0  0  0  0
  2 10  1  0  0  0  0
  3  4  1  0  0  0  0
  3 20  1  0  0  0  0
  3 21  1  0  0  0  0
  4  9  1  0  0  0  0
  4  5  2  0  0  0  0
  5  6  1  0  0  0  0
  5 22  1  0  0  0  0
  6  7  1  0  0  0  0
  6 23  1  0  0  0  0
  6 24  1  0  0  0  0
  7  8  1  0  0  0  0
  7 25  1  0  0  0  0
  7 26  1  0  0  0  0
  8  9  1  0  0  0  0
  8 27  1  0  0  0  0
  8 28  1  0  0  0  0
  9 29  1  0  0  0  0
  9 30  1  0  0  0  0
 10 11  1  0  0  0  0
 11 12  2  0  0  0  0
 11 13  2  0  0  0  0
 11 14  1  0  0  0  0
 14 15  1  0  0  0  0
 14 31  1  0  0  0  0
 14 32  1  0  0  0  0
 15 19  2  0  0  0  0
 15 16  1  0  0  0  0
 16 17  2  0  0  0  0
 16 33  1  0  0  0  0
 17 18  1  0  0  0  0
 17 34  1  0  0  0  0
 18 19  1  0  0  0  0
M  CHG  1  10  -1
M  END
> <s_m_source_file>
AV-unprocessed.smi

> <i_m_source_file_index>
666

> <i_lp_mmshare_version>
43012

> <i_f3d_flags>
0

> <s_epik_input>
W0NIMl0xW0NIMl1bQ0gyXVtDSDJdW0NIXT1DMVtDSDJdQyg9TylbTkhdUyg9TykoPU8pW0NIMl1jMltjSF1bY0hdb24y

> <s_epik_cmdline>
J2VwaWtfcHl0aG9uJywgJy1waCcsICc3LjAnLCAnLXRuJywgJzgnLCAnLW1hJywgJzIwMCcsICctbWV0YWxfYmluZGluZycsICctaW1hZScsICc8aW5maWxlLm1hZT4nLCAnLW9tYWUnLCAnPG91dGZpbGUubWFlPic=

> <r_epik_Ionization_Penalty>
0.000833246

> <r_epik_Ionization_Penalty_Charging>
0.000833246

> <r_epik_Ionization_Penalty_Neutral>
1.62659e-10

> <r_epik_State_Penalty>
0.000536532

> <r_epik_Charging_Adjusted_Penalty>
0.00136978

> <i_epik_Tot_Q>
-1

> <i_epik_Tot_abs_Q>
1

> <r_epik_Metal_State_Penalty>
-0

> <b_epik_Metal_Only>
0

> <s_lp_Force_Field>
OPLS_2005

> <r_lp_Energy>
4.18867

> <b_lp_Chiralities_Consistent>
1

> <s_lp_Variant>
AV-unprocessed.smi:666-1

> <Gold.Version>
5.8.1

> <Gold.Id.Protein>
6NUR|6NUR_protein|mol2

> <Gold.PLP.Fitness>
48.3113

> <Gold.PLP.PLP>
-38.6389

> <Gold.PLP.part.hbond>
-3.9516

> <Gold.PLP.part.metal>
0.0000

> <Gold.PLP.part.buried>
-4.3632

> <Gold.PLP.part.nonpolar>
-31.0564

> <Gold.PLP.part.repulsive>
0.1372

> <Gold.PLP.ligand.clash>
0.0000

> <Gold.PLP.ligand.torsion>
1.6381

> <Gold.PLP.Chemscore.Hbond>
2.9520

> <Gold.PLP.Chemscore.CHOScore>
1.0000

> <Gold.PLP.Chemscore.Metal>
0.0000

> <Gold.Chemscore.Hbonds>
donor molecule, donor type, donor heavy atom, donor atom, acceptor molecule, acceptor atom, score
      P1  H  6896  6907       L1    13  0.36
      P1  H  7997  8008       L1     1  0.88
      P1  H 10752 10763       L1    18  0.59

> <Gold.PLP.Chemscore.Internal.Correction>
1.0926

> <Gold.Rescore>
     Score         DG    S(hbond)    S(metal)    S(lipo)     H(rot)  DE(clash)    DE(int)     intcor
     18.90     -22.11       2.62        0.00     104.76       1.70       0.00       3.21       ----

> <Gold.Chemscore.Fitness>
18.9009

> <Gold.Chemscore.DG>
-22.1133

> <Gold.Chemscore.ZeroCoef>
-5.4800

> <Gold.Chemscore.Hbond>
2.6167

> <Gold.Chemscore.Metal>
0.0000

> <Gold.Chemscore.Lipo>
104.7646

> <Gold.Chemscore.Internal_Hbond>
0.0000

> <Gold.Chemscore.DEClash>
0.0024

> <Gold.Chemscore.DEInternal>
3.2100

> <Gold.Chemscore.Rot>
1.7046

> <Gold.Chemscore.Internal.Correction>
   9.000000E+99

> <Gold.Chemscore.Hbonds>
donor molecule, donor type, donor heavy atom, donor atom, acceptor molecule, acceptor atom, score
      P1  H  6896  6907       L1    13  0.35
      P1  H  7997  8008       L1     1  0.78
      P1  H 10752 10763       L1    18  0.20

> <Gold.Chemscore.Hbond.Weighted>
-8.7397

> <Gold.Chemscore.Metal.Weighted>
-0.0000

> <Gold.Chemscore.Lipo.Weighted>
-12.2575

> <Gold.Chemscore.Internal_Hbond.Weighted>
0.0000

> <Gold.Chemscore.DEClash.Weighted>
0.0024

> <Gold.Chemscore.DEInternal.Weighted>
3.2100

> <Gold.Chemscore.Rot.Weighted>
4.3638

> <Gold.Chemscore.Internal.Correction.Weighted>
   9.000000E+99

> <Gold.Protein.RotatedTorsions>
[ 6907 6896 6895 6894 ] final  -13.13 input  -60.11 | X-H torsion
[ 7974 7965 7964 7962 ] final  -51.83 input  175.53 | X-H torsion
[ 8008 7997 7996 7995 ] final -124.58 input   59.86 | X-H torsion
[ 10167 10162 10161 10158 ] final   62.37 input  -65.29 | X-H torsion
[ 10718 10713 10712 10709 ] final -100.74 input   66.30 | X-H torsion
[ 10763 10752 10751 10750 ] final   38.52 input  -60.55 | X-H torsion
[ 11005 11000 10999 10996 ] final   47.80 input  -57.11 | X-H torsion

> <Gold.Protein.ActiveResidues>
 VAL166  LYS551  ARG553  GLY616  TRP617  ASP618  TYR619  PRO620  LYS621  CYS622 
 ASP623  PHE694  ASN695  SER759  ASP760  ASP761  ALA762  ILE779  LEU786  VAL792 
 PHE793  MET794  SER795  GLU796  ALA797  LYS798  CYS799  TRP800  GLU811  SER814 

> <Gold.Protein.RotatedAtoms>
  151.3597  135.0901  159.9429 H   0  0  0  0  0  0  0  0  0  0  0  0  # atno 6907 bound_to 6896
  152.5165  133.9271  159.7573 H   0  0  0  0  0  0  0  0  0  0  0  0  # atno 6908 bound_to 6896
  150.9663  133.6337  159.2775 H   0  0  0  0  0  0  0  0  0  0  0  0  # atno 6909 bound_to 6896
  145.9147  140.7885  142.9678 H   0  0  0  0  0  0  0  0  0  0  0  0  # atno 7974 bound_to 7965
  155.1992  140.0415  157.2914 H   0  0  0  0  0  0  0  0  0  0  0  0  # atno 8008 bound_to 7997
  154.6086  140.2471  155.7670 H   0  0  0  0  0  0  0  0  0  0  0  0  # atno 8009 bound_to 7997
  156.2365  140.2919  156.0337 H   0  0  0  0  0  0  0  0  0  0  0  0  # atno 8010 bound_to 7997
  140.1446  144.4520  150.6792 H   0  0  0  0  0  0  0  0  0  0  0  0  # atno 10167 bound_to 10162
  156.0172  130.5341  150.6861 H   0  0  0  0  0  0  0  0  0  0  0  0  # atno 10718 bound_to 10713
  152.9998  135.6247  154.2318 H   0  0  0  0  0  0  0  0  0  0  0  0  # atno 10763 bound_to 10752
  154.2060  135.2802  155.2976 H   0  0  0  0  0  0  0  0  0  0  0  0  # atno 10764 bound_to 10752
  154.5645  135.5695  153.7097 H   0  0  0  0  0  0  0  0  0  0  0  0  # atno 10765 bound_to 10752
  140.1247  134.4783  155.8569 H   0  0  0  0  0  0  0  0  0  0  0  0  # atno 11005 bound_to 11000
  144.6746  140.1880  143.7399 LP  0  0  0  0  0  0  0  0  0  0  0  0  # atno 17320 bound_to 7965
  145.8627  139.2231  143.1707 LP  0  0  0  0  0  0  0  0  0  0  0  0  # atno 17321 bound_to 7965
  140.6739  143.2297  151.5555 LP  0  0  0  0  0  0  0  0  0  0  0  0  # atno 17342 bound_to 10162
  139.5455  144.2533  152.1434 LP  0  0  0  0  0  0  0  0  0  0  0  0  # atno 17343 bound_to 10162
  157.4552  131.0877  151.0804 LP  0  0  0  0  0  0  0  0  0  0  0  0  # atno 17370 bound_to 10713
  157.1307  130.6101  149.5529 LP  0  0  0  0  0  0  0  0  0  0  0  0  # atno 17371 bound_to 10713
  141.2159  133.6773  156.6956 LP  0  0  0  0  0  0  0  0  0  0  0  0  # atno 17394 bound_to 11000
  140.2919  134.8234  157.4024 LP  0  0  0  0  0  0  0  0  0  0  0  0  # atno 17395 bound_to 11000

$$$$
