AV-unprocessed.smi:72|AV-procd|sdf|701|dock3
  -GOLD-   2262017 23D 1   1.00000     0.00000
 Structure written by MMmdl.
 30 31  0  0  0  0  0  0  0  0  2 V2000
  141.1376  136.1387  155.0315 N   0  0  0  0  0  0  0  0  0  0  0  0
  142.1149  135.9375  154.0793 C   0  0  0  0  0  0  0  0  0  0  0  0
  142.1285  134.7225  153.4194 N   0  3  0  0  0  0  0  0  0  0  0  0
  143.0166  134.3628  152.4831 C   0  0  0  0  0  0  0  0  0  0  0  0
  143.9854  135.1996  152.1622 N   0  0  0  0  0  0  0  0  0  0  0  0
  145.0191  134.8623  151.1109 C   0  0  2  0  0  0  0  0  0  0  0  0
  144.3612  134.5507  149.9250 O   0  0  0  0  0  0  0  0  0  0  0  0
  144.0889  133.1559  149.8995 C   0  0  1  0  0  0  0  0  0  0  0  0
  143.7691  132.7102  148.4655 C   0  0  0  0  0  0  0  0  0  0  0  0
  143.4329  133.8348  147.6812 O   0  0  0  0  0  0  0  0  0  0  0  0
  145.3895  132.5716  150.4552 C   0  0  2  0  0  0  0  0  0  0  0  0
  145.1379  131.3241  151.0699 O   0  0  0  0  0  0  0  0  0  0  0  0
  145.8288  133.6026  151.4948 C   0  0  1  0  0  0  0  0  0  0  0  0
  147.2196  133.8330  151.4039 O   0  0  0  0  0  0  0  0  0  0  0  0
  144.0122  136.4960  152.7400 C   0  0  0  0  0  0  0  0  0  0  0  0
  144.8607  137.3155  152.3891 O   0  0  0  0  0  0  0  0  0  0  0  0
  143.0419  136.7781  153.7121 N   0  0  0  0  0  0  0  0  0  0  0  0
  145.6100  135.7730  150.9968 H   0  0  0  0  0  0  0  0  0  0  0  0
  143.2628  132.9230  150.5750 H   0  0  0  0  0  0  0  0  0  0  0  0
  146.1305  132.4674  149.6604 H   0  0  0  0  0  0  0  0  0  0  0  0
  145.5791  133.2800  152.5067 H   0  0  0  0  0  0  0  0  0  0  0  0
  141.0459  136.9968  155.5568 H   0  0  0  0  0  0  0  0  0  0  0  0
  140.4397  135.4517  155.2787 H   0  0  0  0  0  0  0  0  0  0  0  0
  142.9045  133.3975  152.0072 H   0  0  0  0  0  0  0  0  0  0  0  0
  144.6044  132.1691  148.0199 H   0  0  0  0  0  0  0  0  0  0  0  0
  142.9092  132.0395  148.4638 H   0  0  0  0  0  0  0  0  0  0  0  0
  144.2302  134.2822  147.4412 H   0  0  0  0  0  0  0  0  0  0  0  0
  144.8143  130.7268  150.4123 H   0  0  0  0  0  0  0  0  0  0  0  0
  147.3981  134.7181  151.6853 H   0  0  0  0  0  0  0  0  0  0  0  0
  141.4077  134.0574  153.6616 H   0  0  0  0  0  0  0  0  0  0  0  0
  1  2  1  0  0  0  0
  1 22  1  0  0  0  0
  1 23  1  0  0  0  0
  2 17  2  0  0  0  0
  2  3  1  0  0  0  0
  3  4  2  0  0  0  0
  3 30  1  0  0  0  0
  4  5  1  0  0  0  0
  4 24  1  0  0  0  0
  5  6  1  0  0  0  0
  5 15  1  0  0  0  0
  6 18  1  0  0  0  0
  6 13  1  0  0  0  0
  6  7  1  0  0  0  0
  7  8  1  0  0  0  0
  8 19  1  0  0  0  0
  8  9  1  0  0  0  0
  8 11  1  0  0  0  0
  9 10  1  0  0  0  0
  9 25  1  0  0  0  0
  9 26  1  0  0  0  0
 10 27  1  0  0  0  0
 11 20  1  0  0  0  0
 11 12  1  0  0  0  0
 11 13  1  0  0  0  0
 12 28  1  0  0  0  0
 13 21  1  0  0  0  0
 13 14  1  0  0  0  0
 14 29  1  0  0  0  0
 15 16  2  0  0  0  0
 15 17  1  0  0  0  0
M  CHG  1   3   1
M  END
> <s_m_source_file>
AV-unprocessed.smi

> <i_m_source_file_index>
72

> <i_lp_mmshare_version>
43012

> <i_f3d_flags>
0

> <s_epik_input>
W05IMl1jMW5bY0hdbihjKD1PKW4xKVtDQEBIXTJPW0NASF0oW0NIMl1bT0hdKVtDQEBIXShbT0hdKVtDQEhdMltPSF0=

> <s_epik_cmdline>
J2VwaWtfcHl0aG9uJywgJy1waCcsICc3LjAnLCAnLXRuJywgJzgnLCAnLW1hJywgJzIwMCcsICctbWV0YWxfYmluZGluZycsICctaW1hZScsICc8aW5maWxlLm1hZT4nLCAnLW9tYWUnLCAnPG91dGZpbGUubWFlPic=

> <r_lp_tautomer_probability>
4.77166e-05

> <r_epik_Ionization_Penalty>
0.104979

> <r_epik_Ionization_Penalty_Charging>
0.0999619

> <r_epik_Ionization_Penalty_Neutral>
0.00501745

> <r_epik_State_Penalty>
2.51541

> <r_epik_Charging_Adjusted_Penalty>
2.61537

> <i_epik_Tot_Q>
1

> <i_epik_Tot_abs_Q>
1

> <r_epik_Metal_State_Penalty>
3.53763

> <b_epik_Metal_Only>
0

> <s_epik_Chemistry_Notes>
This compound contains an acetal/aminal-like group ( X-CH(R)-Y where X, Y are N, S, or O) that may be acid/base labile, releasing an aldehyde.

> <s_lp_Force_Field>
OPLS_2005

> <r_lp_Energy>
25.3585

> <b_lp_Chiralities_Consistent>
1

> <s_lp_Variant>
AV-unprocessed.smi:72-39

> <Gold.Version>
5.8.1

> <Gold.Id.Protein>
6NUR|6NUR_protein|mol2

> <Gold.PLP.Fitness>
38.2064

> <Gold.PLP.PLP>
-29.6987

> <Gold.PLP.part.hbond>
-5.8141

> <Gold.PLP.part.metal>
0.0000

> <Gold.PLP.part.buried>
-5.6568

> <Gold.PLP.part.nonpolar>
-18.7673

> <Gold.PLP.part.repulsive>
2.6845

> <Gold.PLP.ligand.clash>
0.0000

> <Gold.PLP.ligand.torsion>
0.6559

> <Gold.PLP.Chemscore.Hbond>
3.2579

> <Gold.PLP.Chemscore.CHOScore>
0.0000

> <Gold.PLP.Chemscore.Metal>
0.0000

> <Gold.Chemscore.Hbonds>
donor molecule, donor type, donor heavy atom, donor atom, acceptor molecule, acceptor atom, score
      L1  H     1    23       P1 11000  0.67
      L1  H    10    27       P1  7921  1.00
      L1  H    14    29       P1  7948  0.65
      P1  H 10192 10197       L1    10  1.00

> <Gold.PLP.Chemscore.Internal.Correction>
0.0458

> <Gold.Rescore>
     Score         DG    S(hbond)    S(metal)    S(lipo)     H(rot)  DE(clash)    DE(int)     intcor
      7.38      -9.25       3.03        0.00      35.11       4.08       0.37       1.50       ----

> <Gold.Chemscore.Fitness>
7.3790

> <Gold.Chemscore.DG>
-9.2522

> <Gold.Chemscore.ZeroCoef>
-5.4800

> <Gold.Chemscore.Hbond>
3.0253

> <Gold.Chemscore.Metal>
0.0000

> <Gold.Chemscore.Lipo>
35.1126

> <Gold.Chemscore.Internal_Hbond>
0.0000

> <Gold.Chemscore.DEClash>
0.3702

> <Gold.Chemscore.DEInternal>
1.5030

> <Gold.Chemscore.Rot>
4.0783

> <Gold.Chemscore.Internal.Correction>
   9.000000E+99

> <Gold.Chemscore.Hbonds>
donor molecule, donor type, donor heavy atom, donor atom, acceptor molecule, acceptor atom, score
      L1  H     1    23       P1 11000  0.49
      L1  H    10    27       P1  7921  0.98
      L1  H    14    29       P1  7948  0.38
      P1  H 10192 10197       L1    10  0.33

> <Gold.Chemscore.Hbond.Weighted>
-10.1044

> <Gold.Chemscore.Metal.Weighted>
-0.0000

> <Gold.Chemscore.Lipo.Weighted>
-4.1082

> <Gold.Chemscore.Internal_Hbond.Weighted>
0.0000

> <Gold.Chemscore.DEClash.Weighted>
0.3702

> <Gold.Chemscore.DEInternal.Weighted>
1.5030

> <Gold.Chemscore.Rot.Weighted>
10.4404

> <Gold.Chemscore.Internal.Correction.Weighted>
   9.000000E+99

> <Gold.Protein.RotatedTorsions>
[ 6907 6896 6895 6894 ] final   61.40 input  -60.11 | X-H torsion
[ 7974 7965 7964 7962 ] final  -26.02 input  175.53 | X-H torsion
[ 8008 7997 7996 7995 ] final   22.29 input   59.86 | X-H torsion
[ 10167 10162 10161 10158 ] final   74.59 input  -65.29 | X-H torsion
[ 10718 10713 10712 10709 ] final -178.84 input   66.30 | X-H torsion
[ 10763 10752 10751 10750 ] final  -97.69 input  -60.55 | X-H torsion
[ 11005 11000 10999 10996 ] final  -84.27 input  -57.11 | X-H torsion

> <Gold.Protein.ActiveResidues>
 VAL166  LYS551  ARG553  GLY616  TRP617  ASP618  TYR619  PRO620  LYS621  CYS622 
 ASP623  PHE694  ASN695  SER759  ASP760  ASP761  ALA762  ILE779  LEU786  VAL792 
 PHE793  MET794  SER795  GLU796  ALA797  LYS798  CYS799  TRP800  GLU811  SER814 

> <Gold.Protein.RotatedAtoms>
  152.4085  134.6165  160.0039 H   0  0  0  0  0  0  0  0  0  0  0  0  # atno 6907 bound_to 6896
  151.6349  133.3324  159.3125 H   0  0  0  0  0  0  0  0  0  0  0  0  # atno 6908 bound_to 6896
  150.7978  134.7091  159.6638 H   0  0  0  0  0  0  0  0  0  0  0  0  # atno 6909 bound_to 6896
  146.1453  140.4964  142.8634 H   0  0  0  0  0  0  0  0  0  0  0  0  # atno 7974 bound_to 7965
  154.9635  140.3081  155.5020 H   0  0  0  0  0  0  0  0  0  0  0  0  # atno 8008 bound_to 7997
  156.2974  140.2297  156.4661 H   0  0  0  0  0  0  0  0  0  0  0  0  # atno 8009 bound_to 7997
  154.7943  140.0438  157.1213 H   0  0  0  0  0  0  0  0  0  0  0  0  # atno 8010 bound_to 7997
  140.0120  144.5606  150.7650 H   0  0  0  0  0  0  0  0  0  0  0  0  # atno 10167 bound_to 10162
  156.8502  130.9716  151.3093 H   0  0  0  0  0  0  0  0  0  0  0  0  # atno 10718 bound_to 10713
  154.7349  135.5037  153.9026 H   0  0  0  0  0  0  0  0  0  0  0  0  # atno 10763 bound_to 10752
  153.0986  135.6679  153.9724 H   0  0  0  0  0  0  0  0  0  0  0  0  # atno 10764 bound_to 10752
  153.9516  135.3057  155.3417 H   0  0  0  0  0  0  0  0  0  0  0  0  # atno 10765 bound_to 10752
  141.1652  133.7337  156.8844 H   0  0  0  0  0  0  0  0  0  0  0  0  # atno 11005 bound_to 11000
  144.7839  140.5897  143.6587 LP  0  0  0  0  0  0  0  0  0  0  0  0  # atno 17320 bound_to 7965
  145.4952  139.1486  143.3688 LP  0  0  0  0  0  0  0  0  0  0  0  0  # atno 17321 bound_to 7965
  140.7377  143.2769  151.3714 LP  0  0  0  0  0  0  0  0  0  0  0  0  # atno 17342 bound_to 10162
  139.6198  144.0929  152.2380 LP  0  0  0  0  0  0  0  0  0  0  0  0  # atno 17343 bound_to 10162
  157.6307  130.8727  149.9270 LP  0  0  0  0  0  0  0  0  0  0  0  0  # atno 17370 bound_to 10713
  156.0832  130.3671  150.0538 LP  0  0  0  0  0  0  0  0  0  0  0  0  # atno 17371 bound_to 10713
  140.1693  134.9111  157.2813 LP  0  0  0  0  0  0  0  0  0  0  0  0  # atno 17394 bound_to 11000
  140.2521  134.3671  155.7438 LP  0  0  0  0  0  0  0  0  0  0  0  0  # atno 17395 bound_to 11000

$$$$
