AV-unprocessed.smi:828|AV-procd|sdf|3863|dock5
  -GOLD-   22720 1313D 1   1.00000     0.00000
 Structure written by MMmdl.
 34 35  0  0  0  0  0  0  0  0  3 V2000
  147.1996  136.3596  163.0544 C   0  0  0  0  0  0  0  0  0  0  0  0
  147.7088  135.9209  161.7244 C   0  0  0  0  0  0  0  0  0  0  0  0
  148.4650  136.7009  160.9482 N   0  0  0  0  0  0  0  0  0  0  0  0
  148.8181  136.0734  159.7624 N   0  0  0  0  0  0  0  0  0  0  0  0
  148.3195  134.8339  159.6544 C   0  0  0  0  0  0  0  0  0  0  0  0
  148.5496  134.0565  158.5832 N   0  5  0  0  0  0  0  0  0  0  0  0
  149.3309  134.5067  157.5770 C   0  0  0  0  0  0  0  0  0  0  0  0
  150.0491  135.5086  157.5984 O   0  0  0  0  0  0  0  0  0  0  0  0
  149.2636  133.7547  156.4701 N   0  0  0  0  0  0  0  0  0  0  0  0
  149.9463  134.0206  155.2068 C   0  0  0  0  0  0  0  0  0  0  0  0
  149.3192  133.2496  154.0217 C   0  0  1  0  0  0  0  0  0  0  0  0
  148.8103  131.8488  154.3582 C   0  0  0  0  0  0  0  0  0  0  0  0
  147.8687  131.5124  153.1978 C   0  0  0  0  0  0  0  0  0  0  0  0
  147.5610  132.8532  152.5085 C   0  0  0  0  0  0  0  0  0  0  0  0
  148.1866  133.9141  153.3297 N   0  3  1  0  0  0  0  0  0  0  0  0
  147.2008  134.5889  154.2108 C   0  0  0  0  0  0  0  0  0  0  0  0
  147.3696  134.3340  161.0538 S   0  0  0  0  0  0  0  0  0  0  0  0
  146.7745  137.3610  162.9834 H   0  0  0  0  0  0  0  0  0  0  0  0
  148.0140  136.3727  163.7788 H   0  0  0  0  0  0  0  0  0  0  0  0
  146.4266  135.6774  163.4080 H   0  0  0  0  0  0  0  0  0  0  0  0
  148.6777  132.9332  156.5083 H   0  0  0  0  0  0  0  0  0  0  0  0
  149.9338  135.0927  155.0043 H   0  0  0  0  0  0  0  0  0  0  0  0
  150.9958  133.7508  155.3262 H   0  0  0  0  0  0  0  0  0  0  0  0
  150.0911  133.1260  153.2602 H   0  0  0  0  0  0  0  0  0  0  0  0
  149.6191  131.1254  154.4659 H   0  0  0  0  0  0  0  0  0  0  0  0
  148.2517  131.8649  155.2950 H   0  0  0  0  0  0  0  0  0  0  0  0
  148.3454  130.8280  152.4951 H   0  0  0  0  0  0  0  0  0  0  0  0
  146.9611  131.0297  153.5616 H   0  0  0  0  0  0  0  0  0  0  0  0
  148.0285  132.8706  151.5231 H   0  0  0  0  0  0  0  0  0  0  0  0
  146.4914  133.0071  152.3581 H   0  0  0  0  0  0  0  0  0  0  0  0
  146.7752  133.8947  154.9360 H   0  0  0  0  0  0  0  0  0  0  0  0
  146.3839  135.0006  153.6173 H   0  0  0  0  0  0  0  0  0  0  0  0
  147.6457  135.4227  154.7523 H   0  0  0  0  0  0  0  0  0  0  0  0
  148.5623  134.6240  152.7166 H   0  0  0  0  0  0  0  0  0  0  0  0
  1  2  1  0  0  0  0
  1 18  1  0  0  0  0
  1 19  1  0  0  0  0
  1 20  1  0  0  0  0
  2 17  1  0  0  0  0
  2  3  2  0  0  0  0
  3  4  1  0  0  0  0
  4  5  2  0  0  0  0
  5  6  1  0  0  0  0
  5 17  1  0  0  0  0
  6  7  1  0  0  0  0
  7  8  2  0  0  0  0
  7  9  1  0  0  0  0
  9 10  1  0  0  0  0
  9 21  1  0  0  0  0
 10 11  1  0  0  0  0
 10 22  1  0  0  0  0
 10 23  1  0  0  0  0
 11 15  1  0  0  0  0
 11 12  1  0  0  0  0
 11 24  1  0  0  0  0
 12 13  1  0  0  0  0
 12 25  1  0  0  0  0
 12 26  1  0  0  0  0
 13 14  1  0  0  0  0
 13 27  1  0  0  0  0
 13 28  1  0  0  0  0
 14 15  1  0  0  0  0
 14 29  1  0  0  0  0
 14 30  1  0  0  0  0
 15 16  1  0  0  0  0
 15 34  1  0  0  0  0
 16 31  1  0  0  0  0
 16 32  1  0  0  0  0
 16 33  1  0  0  0  0
M  CHG  1   6  -1
M  CHG  1  15   1
M  END
> <s_m_source_file>
AV-unprocessed.smi

> <i_m_source_file_index>
828

> <i_lp_mmshare_version>
43012

> <i_f3d_flags>
0

> <s_epik_input>
W0NIM11jMW5uYyhzMSlbTkhdQyg9TylbTkhdW0NIMl1bQ0BASF0yW0NIMl1bQ0gyXVtDSDJdTjJbQ0gzXQ==

> <s_epik_cmdline>
J2VwaWtfcHl0aG9uJywgJy1waCcsICc3LjAnLCAnLXRuJywgJzgnLCAnLW1hJywgJzIwMCcsICctbWV0YWxfYmluZGluZycsICctaW1hZScsICc8aW5maWxlLm1hZT4nLCAnLW9tYWUnLCAnPG91dGZpbGUubWFlPic=

> <r_lp_tautomer_probability>
1

> <r_epik_Ionization_Penalty>
3.94379

> <r_epik_Ionization_Penalty_Charging>
3.83377

> <r_epik_Ionization_Penalty_Neutral>
0.110023

> <r_epik_State_Penalty>
3.83036

> <r_epik_Charging_Adjusted_Penalty>
7.66413

> <i_epik_Tot_Q>
0

> <i_epik_Tot_abs_Q>
2

> <r_epik_Metal_State_Penalty>
0.575095

> <b_epik_Metal_Only>
1

> <s_lp_Force_Field>
OPLS_2005

> <r_lp_Energy>
27.8836

> <b_lp_Chiralities_Consistent>
1

> <s_lp_Variant>
AV-unprocessed.smi:828-6

> <Gold.Version>
5.8.1

> <Gold.Id.Protein>
6NUR|6NUR_protein|mol2

> <Gold.PLP.Fitness>
34.9696

> <Gold.PLP.PLP>
-26.4117

> <Gold.PLP.part.hbond>
-3.4603

> <Gold.PLP.part.metal>
0.0000

> <Gold.PLP.part.buried>
-3.1152

> <Gold.PLP.part.nonpolar>
-21.2426

> <Gold.PLP.part.repulsive>
0.0418

> <Gold.PLP.ligand.clash>
0.0000

> <Gold.PLP.ligand.torsion>
0.4477

> <Gold.PLP.Chemscore.Hbond>
3.1492

> <Gold.PLP.Chemscore.CHOScore>
0.0000

> <Gold.PLP.Chemscore.Metal>
0.0000

> <Gold.Chemscore.Hbonds>
donor molecule, donor type, donor heavy atom, donor atom, acceptor molecule, acceptor atom, score
      L1  H    15    34       P1  7948  1.70
      P1  H  6896  6909       L1     8  0.08
      P1  H  6931  6943       L1     3  1.00

> <Gold.PLP.Chemscore.Internal.Correction>
0.0056

> <Gold.Rescore>
     Score         DG    S(hbond)    S(metal)    S(lipo)     H(rot)  DE(clash)    DE(int)     intcor
     13.03     -15.29       1.97        0.00      56.35       1.31       0.08       2.18       ----

> <Gold.Chemscore.Fitness>
13.0314

> <Gold.Chemscore.DG>
-15.2877

> <Gold.Chemscore.ZeroCoef>
-5.4800

> <Gold.Chemscore.Hbond>
1.9705

> <Gold.Chemscore.Metal>
0.0000

> <Gold.Chemscore.Lipo>
56.3459

> <Gold.Chemscore.Internal_Hbond>
0.0000

> <Gold.Chemscore.DEClash>
0.0751

> <Gold.Chemscore.DEInternal>
2.1813

> <Gold.Chemscore.Rot>
1.3149

> <Gold.Chemscore.Internal.Correction>
   9.000000E+99

> <Gold.Chemscore.Hbonds>
donor molecule, donor type, donor heavy atom, donor atom, acceptor molecule, acceptor atom, score
      L1  H    15    34       P1  7948  0.15
      P1  H  6931  6943       L1     3  0.77

> <Gold.Chemscore.Hbond.Weighted>
-6.5814

> <Gold.Chemscore.Metal.Weighted>
-0.0000

> <Gold.Chemscore.Lipo.Weighted>
-6.5925

> <Gold.Chemscore.Internal_Hbond.Weighted>
0.0000

> <Gold.Chemscore.DEClash.Weighted>
0.0751

> <Gold.Chemscore.DEInternal.Weighted>
2.1813

> <Gold.Chemscore.Rot.Weighted>
3.3662

> <Gold.Chemscore.Internal.Correction.Weighted>
   9.000000E+99

> <Gold.Protein.RotatedTorsions>
[ 6907 6896 6895 6894 ] final   63.52 input  -60.11 | X-H torsion
[ 7974 7965 7964 7962 ] final   61.90 input  175.53 | X-H torsion
[ 8008 7997 7996 7995 ] final  -81.71 input   59.86 | X-H torsion
[ 10167 10162 10161 10158 ] final -135.27 input  -65.29 | X-H torsion
[ 10718 10713 10712 10709 ] final   96.18 input   66.30 | X-H torsion
[ 10763 10752 10751 10750 ] final -176.30 input  -60.55 | X-H torsion
[ 11005 11000 10999 10996 ] final  119.66 input  -57.11 | X-H torsion

> <Gold.Protein.ActiveResidues>
 VAL166  LYS551  ARG553  GLY616  TRP617  ASP618  TYR619  PRO620  LYS621  CYS622 
 ASP623  PHE694  ASN695  SER759  ASP760  ASP761  ALA762  ILE779  LEU786  VAL792 
 PHE793  MET794  SER795  GLU796  ALA797  LYS798  CYS799  TRP800  GLU811  SER814 

> <Gold.Protein.RotatedAtoms>
  152.4260  134.5868  159.9962 H   0  0  0  0  0  0  0  0  0  0  0  0  # atno 6907 bound_to 6896
  151.6004  133.3351  159.3054 H   0  0  0  0  0  0  0  0  0  0  0  0  # atno 6908 bound_to 6896
  150.8149  134.7363  159.6786 H   0  0  0  0  0  0  0  0  0  0  0  0  # atno 6909 bound_to 6896
  145.8795  139.3433  143.0714 H   0  0  0  0  0  0  0  0  0  0  0  0  # atno 7974 bound_to 7965
  154.6011  140.0644  156.9369 H   0  0  0  0  0  0  0  0  0  0  0  0  # atno 8008 bound_to 7997
  155.2131  140.3324  155.4308 H   0  0  0  0  0  0  0  0  0  0  0  0  # atno 8009 bound_to 7997
  156.2318  140.1844  156.7205 H   0  0  0  0  0  0  0  0  0  0  0  0  # atno 8010 bound_to 7997
  139.8796  143.6856  152.2629 H   0  0  0  0  0  0  0  0  0  0  0  0  # atno 10167 bound_to 10162
  157.6930  131.0570  150.4452 H   0  0  0  0  0  0  0  0  0  0  0  0  # atno 10718 bound_to 10713
  154.5740  135.2830  155.0799 H   0  0  0  0  0  0  0  0  0  0  0  0  # atno 10763 bound_to 10752
  154.2161  135.6399  153.5134 H   0  0  0  0  0  0  0  0  0  0  0  0  # atno 10764 bound_to 10752
  153.0066  135.5503  154.6372 H   0  0  0  0  0  0  0  0  0  0  0  0  # atno 10765 bound_to 10752
  139.9155  134.9630  156.7689 H   0  0  0  0  0  0  0  0  0  0  0  0  # atno 11005 bound_to 11000
  145.9040  140.9224  143.0488 LP  0  0  0  0  0  0  0  0  0  0  0  0  # atno 17320 bound_to 7965
  144.6727  140.1071  143.7457 LP  0  0  0  0  0  0  0  0  0  0  0  0  # atno 17321 bound_to 7965
  139.7208  144.7603  151.0958 LP  0  0  0  0  0  0  0  0  0  0  0  0  # atno 17342 bound_to 10162
  140.7747  143.5210  150.9537 LP  0  0  0  0  0  0  0  0  0  0  0  0  # atno 17343 bound_to 10162
  156.4808  130.4073  149.6463 LP  0  0  0  0  0  0  0  0  0  0  0  0  # atno 17370 bound_to 10713
  156.3509  130.7431  151.2391 LP  0  0  0  0  0  0  0  0  0  0  0  0  # atno 17371 bound_to 10713
  140.6637  133.9622  155.7818 LP  0  0  0  0  0  0  0  0  0  0  0  0  # atno 17394 bound_to 11000
  141.0626  134.0324  157.3638 LP  0  0  0  0  0  0  0  0  0  0  0  0  # atno 17395 bound_to 11000

$$$$
