AV-unprocessed.smi:3056|AV-procd|sdf|11648|dock5
  -GOLD-   2272017 43D 1   1.00000     0.00000
 Structure written by MMmdl.
 48 49  0  0  0  0  0  0  0  0  2 V2000
  145.3486  132.6546  149.6558 C   0  0  0  0  0  0  0  0  0  0  0  0
  145.1305  133.6169  150.7877 C   0  0  0  0  0  0  0  0  0  0  0  0
  144.1160  133.5783  151.7846 C   0  0  0  0  0  0  0  0  0  0  0  0
  144.2079  134.5776  152.6457 N   0  0  0  0  0  0  0  0  0  0  0  0
  145.2747  135.2976  152.2299 N   0  0  0  0  0  0  0  0  0  0  0  0
  145.7155  136.4866  152.9555 C   0  0  1  0  0  0  0  0  0  0  0  0
  144.5994  137.5454  153.1054 C   0  0  0  0  0  0  0  0  0  0  0  0
  146.4245  136.1233  154.2903 C   0  0  1  0  0  0  0  0  0  0  0  0
  145.8591  134.8368  154.9133 C   0  0  0  0  0  0  0  0  0  0  0  0
  147.8944  135.9929  154.1472 N   0  3  0  0  0  0  0  0  0  0  0  0
  148.6897  136.3462  155.3426 C   0  0  0  0  0  0  0  0  0  0  0  0
  150.1157  136.7621  154.9666 C   0  0  0  0  0  0  0  0  0  0  0  0
  151.0212  135.9587  155.1885 O   0  0  0  0  0  0  0  0  0  0  0  0
  150.3434  137.9802  154.4187 N   0  0  0  0  0  0  0  0  0  0  0  0
  151.6863  138.5024  154.1562 C   0  0  0  0  0  0  0  0  0  0  0  0
  151.9117  139.7185  155.0734 C   0  0  0  0  0  0  0  0  0  0  0  0
  150.8972  140.6942  154.8408 O   0  0  0  0  0  0  0  0  0  0  0  0
  149.5729  140.2046  155.0490 C   0  0  1  0  0  0  0  0  0  0  0  0
  148.5905  141.3489  154.7770 C   0  0  0  0  0  0  0  0  0  0  0  0
  149.3363  139.0005  154.1170 C   0  0  0  0  0  0  0  0  0  0  0  0
  145.8511  134.7313  151.1111 C   0  0  0  0  0  0  0  0  0  0  0  0
  144.5099  131.9676  149.5397 H   0  0  0  0  0  0  0  0  0  0  0  0
  146.2413  132.0485  149.8104 H   0  0  0  0  0  0  0  0  0  0  0  0
  145.4711  133.1730  148.7047 H   0  0  0  0  0  0  0  0  0  0  0  0
  143.3232  132.8556  151.9102 H   0  0  0  0  0  0  0  0  0  0  0  0
  146.4727  136.9400  152.3138 H   0  0  0  0  0  0  0  0  0  0  0  0
  144.9845  138.4792  153.5133 H   0  0  0  0  0  0  0  0  0  0  0  0
  143.7966  137.2055  153.7603 H   0  0  0  0  0  0  0  0  0  0  0  0
  144.1571  137.7831  152.1373 H   0  0  0  0  0  0  0  0  0  0  0  0
  146.2202  136.9149  155.0132 H   0  0  0  0  0  0  0  0  0  0  0  0
  144.7796  134.9067  155.0512 H   0  0  0  0  0  0  0  0  0  0  0  0
  146.3000  134.6533  155.8938 H   0  0  0  0  0  0  0  0  0  0  0  0
  146.0614  133.9606  154.2973 H   0  0  0  0  0  0  0  0  0  0  0  0
  148.0903  135.0218  153.9501 H   0  0  0  0  0  0  0  0  0  0  0  0
  148.2159  137.1326  155.9267 H   0  0  0  0  0  0  0  0  0  0  0  0
  148.7476  135.4754  155.9972 H   0  0  0  0  0  0  0  0  0  0  0  0
  152.4718  137.7645  154.3239 H   0  0  0  0  0  0  0  0  0  0  0  0
  151.7661  138.7984  153.1092 H   0  0  0  0  0  0  0  0  0  0  0  0
  151.9049  139.4194  156.1229 H   0  0  0  0  0  0  0  0  0  0  0  0
  152.8852  140.1670  154.8752 H   0  0  0  0  0  0  0  0  0  0  0  0
  149.4664  139.8916  156.0893 H   0  0  0  0  0  0  0  0  0  0  0  0
  147.5599  141.0278  154.9261 H   0  0  0  0  0  0  0  0  0  0  0  0
  148.6822  141.7126  153.7533 H   0  0  0  0  0  0  0  0  0  0  0  0
  148.7764  142.1890  155.4466 H   0  0  0  0  0  0  0  0  0  0  0  0
  149.4391  139.3066  153.0748 H   0  0  0  0  0  0  0  0  0  0  0  0
  148.3145  138.6443  154.2148 H   0  0  0  0  0  0  0  0  0  0  0  0
  146.7220  135.1640  150.6408 H   0  0  0  0  0  0  0  0  0  0  0  0
  148.2015  136.5449  153.3590 H   0  0  0  0  0  0  0  0  0  0  0  0
  1  2  1  0  0  0  0
  1 22  1  0  0  0  0
  1 23  1  0  0  0  0
  1 24  1  0  0  0  0
  2 21  2  0  0  0  0
  2  3  1  0  0  0  0
  3  4  2  0  0  0  0
  3 25  1  0  0  0  0
  4  5  1  0  0  0  0
  5  6  1  0  0  0  0
  5 21  1  0  0  0  0
  6  7  1  0  0  0  0
  6  8  1  0  0  0  0
  6 26  1  0  0  0  0
  7 27  1  0  0  0  0
  7 28  1  0  0  0  0
  7 29  1  0  0  0  0
  8  9  1  0  0  0  0
  8 10  1  0  0  0  0
  8 30  1  0  0  0  0
  9 31  1  0  0  0  0
  9 32  1  0  0  0  0
  9 33  1  0  0  0  0
 10 11  1  0  0  0  0
 10 34  1  0  0  0  0
 10 48  1  0  0  0  0
 11 12  1  0  0  0  0
 11 35  1  0  0  0  0
 11 36  1  0  0  0  0
 12 13  2  0  0  0  0
 12 14  1  0  0  0  0
 14 20  1  0  0  0  0
 14 15  1  0  0  0  0
 15 16  1  0  0  0  0
 15 37  1  0  0  0  0
 15 38  1  0  0  0  0
 16 17  1  0  0  0  0
 16 39  1  0  0  0  0
 16 40  1  0  0  0  0
 17 18  1  0  0  0  0
 18 19  1  0  0  0  0
 18 20  1  0  0  0  0
 18 41  1  0  0  0  0
 19 42  1  0  0  0  0
 19 43  1  0  0  0  0
 19 44  1  0  0  0  0
 20 45  1  0  0  0  0
 20 46  1  0  0  0  0
 21 47  1  0  0  0  0
M  CHG  1  10   1
M  END
> <s_m_source_file>
AV-unprocessed.smi

> <i_m_source_file_index>
3056

> <i_lp_mmshare_version>
43012

> <i_f3d_flags>
0

> <s_epik_input>
W0NIM11jMVtjSF1ubihbY0hdMSlbQ0BIXShbQ0gzXSlbQ0BIXShbQ0gzXSlbTkhdW0NIMl1DKD1PKU4yW0NIMl1bQ0gyXU9bQ0BASF0oW0NIM10pW0NIMl0y

> <s_epik_cmdline>
J2VwaWtfcHl0aG9uJywgJy1waCcsICc3LjAnLCAnLXRuJywgJzgnLCAnLW1hJywgJzIwMCcsICctbWV0YWxfYmluZGluZycsICctaW1hZScsICc8aW5maWxlLm1hZT4nLCAnLW9tYWUnLCAnPG91dGZpbGUubWFlPic=

> <r_lp_tautomer_probability>
1

> <r_epik_Ionization_Penalty>
0.233715

> <r_epik_Ionization_Penalty_Charging>
0.233698

> <r_epik_Ionization_Penalty_Neutral>
1.68157e-05

> <r_epik_State_Penalty>
0.225221

> <r_epik_Charging_Adjusted_Penalty>
0.458919

> <i_epik_Tot_Q>
1

> <i_epik_Tot_abs_Q>
1

> <r_epik_Metal_State_Penalty>
0.225535

> <b_epik_Metal_Only>
0

> <s_lp_Force_Field>
OPLS_2005

> <r_lp_Energy>
30.0079

> <b_lp_Chiralities_Consistent>
1

> <s_lp_Variant>
AV-unprocessed.smi:3056-4

> <Gold.Version>
5.8.1

> <Gold.Id.Protein>
6NUR|6NUR_protein|mol2

> <Gold.PLP.Fitness>
46.7169

> <Gold.PLP.PLP>
-35.2729

> <Gold.PLP.part.hbond>
-2.8609

> <Gold.PLP.part.metal>
0.0000

> <Gold.PLP.part.buried>
-3.9414

> <Gold.PLP.part.nonpolar>
-28.9356

> <Gold.PLP.part.repulsive>
0.2268

> <Gold.PLP.ligand.clash>
0.0000

> <Gold.PLP.ligand.torsion>
1.8044

> <Gold.PLP.Chemscore.Hbond>
3.9520

> <Gold.PLP.Chemscore.CHOScore>
0.9789

> <Gold.PLP.Chemscore.Metal>
0.0000

> <Gold.Chemscore.Hbonds>
donor molecule, donor type, donor heavy atom, donor atom, acceptor molecule, acceptor atom, score
      L1  H    10    48       P1  7948  1.44
      P1  H  7989  7998       L1    17  0.19
      P1  H 10752 10765       L1    13  0.88
      L1  C    21    47       P1  7948  0.58

> <Gold.PLP.Chemscore.Internal.Correction>
0.2600

> <Gold.Rescore>
     Score         DG    S(hbond)    S(metal)    S(lipo)     H(rot)  DE(clash)    DE(int)     intcor
     15.52     -18.89       2.70        0.00      75.54       1.74       0.10       3.28       ----

> <Gold.Chemscore.Fitness>
15.5173

> <Gold.Chemscore.DG>
-18.8950

> <Gold.Chemscore.ZeroCoef>
-5.4800

> <Gold.Chemscore.Hbond>
2.7005

> <Gold.Chemscore.Metal>
0.0000

> <Gold.Chemscore.Lipo>
75.5366

> <Gold.Chemscore.Internal_Hbond>
0.0000

> <Gold.Chemscore.DEClash>
0.1013

> <Gold.Chemscore.DEInternal>
3.2764

> <Gold.Chemscore.Rot>
1.7354

> <Gold.Chemscore.Internal.Correction>
   9.000000E+99

> <Gold.Chemscore.Hbonds>
donor molecule, donor type, donor heavy atom, donor atom, acceptor molecule, acceptor atom, score
      L1  H    10    48       P1  7948  0.72
      P1  H 10752 10765       L1    13  0.84

> <Gold.Chemscore.Hbond.Weighted>
-9.0198

> <Gold.Chemscore.Metal.Weighted>
-0.0000

> <Gold.Chemscore.Lipo.Weighted>
-8.8378

> <Gold.Chemscore.Internal_Hbond.Weighted>
0.0000

> <Gold.Chemscore.DEClash.Weighted>
0.1013

> <Gold.Chemscore.DEInternal.Weighted>
3.2764

> <Gold.Chemscore.Rot.Weighted>
4.4426

> <Gold.Chemscore.Internal.Correction.Weighted>
   9.000000E+99

> <Gold.Protein.RotatedTorsions>
[ 6907 6896 6895 6894 ] final  109.95 input  -60.11 | X-H torsion
[ 7974 7965 7964 7962 ] final  167.88 input  175.53 | X-H torsion
[ 8008 7997 7996 7995 ] final  -13.28 input   59.86 | X-H torsion
[ 10167 10162 10161 10158 ] final -145.22 input  -65.29 | X-H torsion
[ 10718 10713 10712 10709 ] final -163.24 input   66.30 | X-H torsion
[ 10763 10752 10751 10750 ] final -160.72 input  -60.55 | X-H torsion
[ 11005 11000 10999 10996 ] final  -81.64 input  -57.11 | X-H torsion

> <Gold.Protein.ActiveResidues>
 VAL166  LYS551  ARG553  GLY616  TRP617  ASP618  TYR619  PRO620  LYS621  CYS622 
 ASP623  PHE694  ASN695  SER759  ASP760  ASP761  ALA762  ILE779  LEU786  VAL792 
 PHE793  MET794  SER795  GLU796  ALA797  LYS798  CYS799  TRP800  GLU811  SER814 

> <Gold.Protein.RotatedAtoms>
  152.5043  133.8870  159.7374 H   0  0  0  0  0  0  0  0  0  0  0  0  # atno 6907 bound_to 6896
  150.9318  133.6749  159.2816 H   0  0  0  0  0  0  0  0  0  0  0  0  # atno 6908 bound_to 6896
  151.4091  135.0987  159.9632 H   0  0  0  0  0  0  0  0  0  0  0  0  # atno 6909 bound_to 6896
  144.7408  139.8826  143.6397 H   0  0  0  0  0  0  0  0  0  0  0  0  # atno 7974 bound_to 7965
  154.5305  140.2253  155.8813 H   0  0  0  0  0  0  0  0  0  0  0  0  # atno 8008 bound_to 7997
  156.1759  140.3111  155.9022 H   0  0  0  0  0  0  0  0  0  0  0  0  # atno 8009 bound_to 7997
  155.3461  140.0453  157.3036 H   0  0  0  0  0  0  0  0  0  0  0  0  # atno 8010 bound_to 7997
  139.7826  143.8079  152.2640 H   0  0  0  0  0  0  0  0  0  0  0  0  # atno 10167 bound_to 10162
  156.6219  130.8894  151.2959 H   0  0  0  0  0  0  0  0  0  0  0  0  # atno 10718 bound_to 10713
  154.7366  135.3058  154.8801 H   0  0  0  0  0  0  0  0  0  0  0  0  # atno 10763 bound_to 10752
  153.9628  135.6751  153.4749 H   0  0  0  0  0  0  0  0  0  0  0  0  # atno 10764 bound_to 10752
  153.0968  135.4932  154.8716 H   0  0  0  0  0  0  0  0  0  0  0  0  # atno 10765 bound_to 10752
  141.1666  133.7206  156.8453 H   0  0  0  0  0  0  0  0  0  0  0  0  # atno 11005 bound_to 11000
  146.1200  139.4217  143.0234 LP  0  0  0  0  0  0  0  0  0  0  0  0  # atno 17320 bound_to 7965
  145.7318  141.0039  143.1347 LP  0  0  0  0  0  0  0  0  0  0  0  0  # atno 17321 bound_to 7965
  139.8146  144.7321  150.9652 LP  0  0  0  0  0  0  0  0  0  0  0  0  # atno 17342 bound_to 10162
  140.7819  143.4217  151.0831 LP  0  0  0  0  0  0  0  0  0  0  0  0  # atno 17343 bound_to 10162
  157.7225  130.9578  150.1497 LP  0  0  0  0  0  0  0  0  0  0  0  0  # atno 17370 bound_to 10713
  156.2305  130.3681  149.8451 LP  0  0  0  0  0  0  0  0  0  0  0  0  # atno 17371 bound_to 10713
  140.1954  134.8935  157.3108 LP  0  0  0  0  0  0  0  0  0  0  0  0  # atno 17394 bound_to 11000
  140.2245  134.3984  155.7550 LP  0  0  0  0  0  0  0  0  0  0  0  0  # atno 17395 bound_to 11000

$$$$
