AV-unprocessed.smi:2024|AV-procd|sdf|8191|dock2
  -GOLD-   2272010443D 1   1.00000     0.00000
 Structure written by MMmdl.
 44 45  0  0  0  0  0  0  0  0  2 V2000
  150.0702  141.6984  156.4016 C   0  0  0  0  0  0  0  0  0  0  0  0
  148.7383  142.0891  155.8846 N   0  3  0  0  0  0  0  0  0  0  0  0
  147.6056  141.4914  156.6275 C   0  0  0  0  0  0  0  0  0  0  0  0
  147.4058  140.0085  156.2554 C   0  0  0  0  0  0  0  0  0  0  0  0
  147.1555  139.8682  154.8109 N   0  0  0  0  0  0  0  0  0  0  0  0
  146.7096  138.5122  154.3885 C   0  0  0  0  0  0  0  0  0  0  0  0
  147.7947  137.4672  154.7537 C   0  0  0  0  0  0  0  0  0  0  0  0
  145.3856  138.1023  155.0775 C   0  0  0  0  0  0  0  0  0  0  0  0
  146.5018  138.4636  152.8446 C   0  0  0  0  0  0  0  0  0  0  0  0
  146.6385  137.1182  152.2845 N   0  0  0  0  0  0  0  0  0  0  0  0
  145.6292  136.3259  151.8947 C   0  0  0  0  0  0  0  0  0  0  0  0
  144.4440  136.6533  151.9560 O   0  0  0  0  0  0  0  0  0  0  0  0
  146.0862  135.1437  151.4462 N   0  0  0  0  0  0  0  0  0  0  0  0
  145.3374  134.0425  150.9542 C   0  0  0  0  0  0  0  0  0  0  0  0
  145.8234  133.1057  150.1316 N   0  0  0  0  0  0  0  0  0  0  0  0
  144.8652  132.1408  149.8114 C   0  0  0  0  0  0  0  0  0  0  0  0
  143.6458  132.3607  150.4023 C   0  0  0  0  0  0  0  0  0  0  0  0
  143.6533  133.7955  151.3926 S   0  0  0  0  0  0  0  0  0  0  0  0
  148.3456  140.3759  154.1075 C   0  0  0  0  0  0  0  0  0  0  0  0
  148.5690  141.8671  154.4307 C   0  0  0  0  0  0  0  0  0  0  0  0
  150.2506  140.6280  156.3014 H   0  0  0  0  0  0  0  0  0  0  0  0
  150.1606  141.9600  157.4562 H   0  0  0  0  0  0  0  0  0  0  0  0
  150.8575  142.2261  155.8625 H   0  0  0  0  0  0  0  0  0  0  0  0
  147.7662  141.5977  157.7011 H   0  0  0  0  0  0  0  0  0  0  0  0
  146.6989  142.0520  156.3951 H   0  0  0  0  0  0  0  0  0  0  0  0
  148.2735  139.4218  156.5569 H   0  0  0  0  0  0  0  0  0  0  0  0
  146.5632  139.6441  156.8381 H   0  0  0  0  0  0  0  0  0  0  0  0
  147.6004  136.5124  154.2634 H   0  0  0  0  0  0  0  0  0  0  0  0
  147.8265  137.2520  155.8215 H   0  0  0  0  0  0  0  0  0  0  0  0
  148.7908  137.7899  154.4482 H   0  0  0  0  0  0  0  0  0  0  0  0
  145.0882  137.0991  154.7701 H   0  0  0  0  0  0  0  0  0  0  0  0
  144.5600  138.7646  154.8178 H   0  0  0  0  0  0  0  0  0  0  0  0
  145.4710  138.0831  156.1637 H   0  0  0  0  0  0  0  0  0  0  0  0
  145.5249  138.8795  152.5913 H   0  0  0  0  0  0  0  0  0  0  0  0
  147.2045  139.1156  152.3272 H   0  0  0  0  0  0  0  0  0  0  0  0
  147.5781  136.7600  152.2005 H   0  0  0  0  0  0  0  0  0  0  0  0
  147.0867  135.0135  151.4615 H   0  0  0  0  0  0  0  0  0  0  0  0
  145.1376  131.3290  149.1534 H   0  0  0  0  0  0  0  0  0  0  0  0
  142.7473  131.7677  150.3157 H   0  0  0  0  0  0  0  0  0  0  0  0
  149.2286  139.7928  154.3690 H   0  0  0  0  0  0  0  0  0  0  0  0
  148.2276  140.3014  153.0287 H   0  0  0  0  0  0  0  0  0  0  0  0
  147.7130  142.4486  154.0852 H   0  0  0  0  0  0  0  0  0  0  0  0
  149.4372  142.2494  153.8924 H   0  0  0  0  0  0  0  0  0  0  0  0
  148.6793  143.0869  156.0293 H   0  0  0  0  0  0  0  0  0  0  0  0
  1  2  1  0  0  0  0
  1 21  1  0  0  0  0
  1 22  1  0  0  0  0
  1 23  1  0  0  0  0
  2 20  1  0  0  0  0
  2  3  1  0  0  0  0
  2 44  1  0  0  0  0
  3  4  1  0  0  0  0
  3 24  1  0  0  0  0
  3 25  1  0  0  0  0
  4  5  1  0  0  0  0
  4 26  1  0  0  0  0
  4 27  1  0  0  0  0
  5  6  1  0  0  0  0
  5 19  1  0  0  0  0
  6  7  1  0  0  0  0
  6  8  1  0  0  0  0
  6  9  1  0  0  0  0
  7 28  1  0  0  0  0
  7 29  1  0  0  0  0
  7 30  1  0  0  0  0
  8 31  1  0  0  0  0
  8 32  1  0  0  0  0
  8 33  1  0  0  0  0
  9 10  1  0  0  0  0
  9 34  1  0  0  0  0
  9 35  1  0  0  0  0
 10 11  1  0  0  0  0
 10 36  1  0  0  0  0
 11 12  2  0  0  0  0
 11 13  1  0  0  0  0
 13 14  1  0  0  0  0
 13 37  1  0  0  0  0
 14 18  1  0  0  0  0
 14 15  2  0  0  0  0
 15 16  1  0  0  0  0
 16 17  2  0  0  0  0
 16 38  1  0  0  0  0
 17 18  1  0  0  0  0
 17 39  1  0  0  0  0
 19 20  1  0  0  0  0
 19 40  1  0  0  0  0
 19 41  1  0  0  0  0
 20 42  1  0  0  0  0
 20 43  1  0  0  0  0
M  CHG  1   2   1
M  END
> <s_m_source_file>
AV-unprocessed.smi

> <i_m_source_file_index>
2024

> <i_lp_mmshare_version>
43012

> <i_f3d_flags>
0

> <s_epik_input>
W0NIM11OMVtDSDJdW0NIMl1OKFtDSDJdW0NIMl0xKUMoW0NIM10pKFtDSDNdKVtDSDJdW05IXUMoPU8pW05IXWMybltjSF1bY0hdczI=

> <s_epik_cmdline>
J2VwaWtfcHl0aG9uJywgJy1waCcsICc3LjAnLCAnLXRuJywgJzgnLCAnLW1hJywgJzIwMCcsICctbWV0YWxfYmluZGluZycsICctaW1hZScsICc8aW5maWxlLm1hZT4nLCAnLW9tYWUnLCAnPG91dGZpbGUubWFlPic=

> <r_lp_tautomer_probability>
0.999

> <r_epik_Ionization_Penalty>
0.025257

> <r_epik_Ionization_Penalty_Charging>
0.0242302

> <r_epik_Ionization_Penalty_Neutral>
0.00102675

> <r_epik_State_Penalty>
0.128805

> <r_epik_Charging_Adjusted_Penalty>
0.153036

> <i_epik_Tot_Q>
1

> <i_epik_Tot_abs_Q>
1

> <r_epik_Metal_State_Penalty>
0.161314

> <b_epik_Metal_Only>
0

> <s_lp_Force_Field>
OPLS_2005

> <r_lp_Energy>
25.0383

> <b_lp_Chiralities_Consistent>
1

> <s_lp_Variant>
AV-unprocessed.smi:2024-1

> <Gold.Version>
5.8.1

> <Gold.Id.Protein>
6NUR|6NUR_protein|mol2

> <Gold.PLP.Fitness>
40.0936

> <Gold.PLP.PLP>
-28.2660

> <Gold.PLP.part.hbond>
-2.8081

> <Gold.PLP.part.metal>
0.0000

> <Gold.PLP.part.buried>
-4.3575

> <Gold.PLP.part.nonpolar>
-22.4192

> <Gold.PLP.part.repulsive>
1.0858

> <Gold.PLP.ligand.clash>
0.0469

> <Gold.PLP.ligand.torsion>
0.6401

> <Gold.PLP.Chemscore.Hbond>
3.3758

> <Gold.PLP.Chemscore.CHOScore>
1.0000

> <Gold.PLP.Chemscore.Metal>
0.0000

> <Gold.Chemscore.Hbonds>
donor molecule, donor type, donor heavy atom, donor atom, acceptor molecule, acceptor atom, score
      L1  H     2    44       P1  8028  2.00
      L1  H    10    36       P1  7948  0.93
      L1  H    13    37       P1  7948  0.43
      L1  C    17    39       P1 10952  1.00

> <Gold.PLP.Chemscore.Internal.Correction>
0.0273

> <Gold.Rescore>
     Score         DG    S(hbond)    S(metal)    S(lipo)     H(rot)  DE(clash)    DE(int)     intcor
     14.74     -17.53       2.73        0.00      59.89       1.60       1.12       1.67       ----

> <Gold.Chemscore.Fitness>
14.7420

> <Gold.Chemscore.DG>
-17.5273

> <Gold.Chemscore.ZeroCoef>
-5.4800

> <Gold.Chemscore.Hbond>
2.7345

> <Gold.Chemscore.Metal>
0.0000

> <Gold.Chemscore.Lipo>
59.8932

> <Gold.Chemscore.Internal_Hbond>
0.0000

> <Gold.Chemscore.DEClash>
1.1178

> <Gold.Chemscore.DEInternal>
1.6675

> <Gold.Chemscore.Rot>
1.5991

> <Gold.Chemscore.Internal.Correction>
   9.000000E+99

> <Gold.Chemscore.Hbonds>
donor molecule, donor type, donor heavy atom, donor atom, acceptor molecule, acceptor atom, score
      L1  H     2    44       P1  8028  0.98
      L1  H    10    36       P1  7948  0.89
      L1  H    13    37       P1  7948  0.35

> <Gold.Chemscore.Hbond.Weighted>
-9.1334

> <Gold.Chemscore.Metal.Weighted>
-0.0000

> <Gold.Chemscore.Lipo.Weighted>
-7.0075

> <Gold.Chemscore.Internal_Hbond.Weighted>
0.0000

> <Gold.Chemscore.DEClash.Weighted>
1.1178

> <Gold.Chemscore.DEInternal.Weighted>
1.6675

> <Gold.Chemscore.Rot.Weighted>
4.0936

> <Gold.Chemscore.Internal.Correction.Weighted>
   9.000000E+99

> <Gold.Protein.RotatedTorsions>
[ 6907 6896 6895 6894 ] final  129.87 input  -60.11 | X-H torsion
[ 7974 7965 7964 7962 ] final  -35.47 input  175.53 | X-H torsion
[ 8008 7997 7996 7995 ] final  119.66 input   59.86 | X-H torsion
[ 10167 10162 10161 10158 ] final -102.90 input  -65.29 | X-H torsion
[ 10718 10713 10712 10709 ] final   89.01 input   66.30 | X-H torsion
[ 10763 10752 10751 10750 ] final  129.19 input  -60.55 | X-H torsion
[ 11005 11000 10999 10996 ] final  -90.89 input  -57.11 | X-H torsion

> <Gold.Protein.ActiveResidues>
 VAL166  LYS551  ARG553  GLY616  TRP617  ASP618  TYR619  PRO620  LYS621  CYS622 
 ASP623  PHE694  ASN695  SER759  ASP760  ASP761  ALA762  ILE779  LEU786  VAL792 
 PHE793  MET794  SER795  GLU796  ALA797  LYS798  CYS799  TRP800  GLU811  SER814 

> <Gold.Protein.RotatedAtoms>
  152.3582  133.6264  159.5995 H   0  0  0  0  0  0  0  0  0  0  0  0  # atno 6907 bound_to 6896
  150.7583  133.9466  159.3481 H   0  0  0  0  0  0  0  0  0  0  0  0  # atno 6908 bound_to 6896
  151.7308  135.0876  160.0351 H   0  0  0  0  0  0  0  0  0  0  0  0  # atno 6909 bound_to 6896
  146.0744  140.6162  142.8937 H   0  0  0  0  0  0  0  0  0  0  0  0  # atno 7974 bound_to 7965
  156.2606  140.2848  156.1027 H   0  0  0  0  0  0  0  0  0  0  0  0  # atno 8008 bound_to 7997
  155.1342  140.0394  157.2800 H   0  0  0  0  0  0  0  0  0  0  0  0  # atno 8009 bound_to 7997
  154.6577  140.2559  155.7149 H   0  0  0  0  0  0  0  0  0  0  0  0  # atno 8010 bound_to 7997
  140.2257  143.3643  152.0931 H   0  0  0  0  0  0  0  0  0  0  0  0  # atno 10167 bound_to 10162
  157.6953  131.0317  150.3362 H   0  0  0  0  0  0  0  0  0  0  0  0  # atno 10718 bound_to 10713
  153.7377  135.3229  155.3298 H   0  0  0  0  0  0  0  0  0  0  0  0  # atno 10763 bound_to 10752
  154.8305  135.4537  154.1058 H   0  0  0  0  0  0  0  0  0  0  0  0  # atno 10764 bound_to 10752
  153.2223  135.6950  153.8067 H   0  0  0  0  0  0  0  0  0  0  0  0  # atno 10765 bound_to 10752
  141.1556  133.7720  156.9802 H   0  0  0  0  0  0  0  0  0  0  0  0  # atno 11005 bound_to 11000
  144.7252  140.4502  143.6978 LP  0  0  0  0  0  0  0  0  0  0  0  0  # atno 17320 bound_to 7965
  145.6333  139.1539  143.2957 LP  0  0  0  0  0  0  0  0  0  0  0  0  # atno 17321 bound_to 7965
  139.5128  144.6922  151.5728 LP  0  0  0  0  0  0  0  0  0  0  0  0  # atno 17342 bound_to 10162
  140.6222  143.9236  150.6536 LP  0  0  0  0  0  0  0  0  0  0  0  0  # atno 17343 bound_to 10162
  156.3829  130.3883  149.7088 LP  0  0  0  0  0  0  0  0  0  0  0  0  # atno 17370 bound_to 10713
  156.4464  130.7886  151.2907 LP  0  0  0  0  0  0  0  0  0  0  0  0  # atno 17371 bound_to 10713
  140.1071  134.9500  157.2010 LP  0  0  0  0  0  0  0  0  0  0  0  0  # atno 17394 bound_to 11000
  140.3242  134.2882  155.7240 LP  0  0  0  0  0  0  0  0  0  0  0  0  # atno 17395 bound_to 11000

$$$$
