AV-unprocessed.smi:3094|AV-procd|sdf|11789|dock3
  -GOLD-   2272017163D 1   1.00000     0.00000
 Structure written by MMmdl.
 30 31  0  0  0  0  0  0  0  0  2 V2000
  148.4015  141.0825  157.3968 C   0  0  0  0  0  0  0  0  0  0  0  0
  149.8128  141.5443  157.0096 C   0  0  1  0  0  0  0  0  0  0  0  0
  150.0019  141.5373  155.4771 C   0  0  0  0  0  0  0  0  0  0  0  0
  150.2657  140.1984  154.9394 N   0  0  0  0  0  0  0  0  0  0  0  0
  151.2827  139.3486  155.2915 C   0  0  0  0  0  0  0  0  0  0  0  0
  151.1382  138.2251  154.5190 C   0  0  0  0  0  0  0  0  0  0  0  0
  150.0373  138.4342  153.7324 N   0  3  0  0  0  0  0  0  0  0  0  0
  149.5048  139.6323  153.9933 C   0  0  0  0  0  0  0  0  0  0  0  0
  150.0402  142.8783  157.5649 N   0  0  0  0  0  0  0  0  0  0  0  0
  150.8076  143.1678  158.6280 C   0  0  0  0  0  0  0  0  0  0  0  0
  151.4340  142.3139  159.2573 O   0  0  0  0  0  0  0  0  0  0  0  0
  150.8500  144.6215  158.9662 C   0  0  0  0  0  0  0  0  0  0  0  0
  152.1828  145.3294  158.8350 C   0  0  0  0  0  0  0  0  0  0  0  0
  151.6208  145.0356  160.2030 C   0  0  0  0  0  0  0  0  0  0  0  0
  148.2062  140.0726  157.0352 H   0  0  0  0  0  0  0  0  0  0  0  0
  147.6382  141.7393  156.9776 H   0  0  0  0  0  0  0  0  0  0  0  0
  148.2740  141.0721  158.4799 H   0  0  0  0  0  0  0  0  0  0  0  0
  150.5146  140.8367  157.4552 H   0  0  0  0  0  0  0  0  0  0  0  0
  149.1001  141.9037  154.9846 H   0  0  0  0  0  0  0  0  0  0  0  0
  150.8147  142.2021  155.1796 H   0  0  0  0  0  0  0  0  0  0  0  0
  152.0186  139.6032  156.0404 H   0  0  0  0  0  0  0  0  0  0  0  0
  151.7216  137.3174  154.4707 H   0  0  0  0  0  0  0  0  0  0  0  0
  148.6393  140.0630  153.5222 H   0  0  0  0  0  0  0  0  0  0  0  0
  149.5627  143.6436  157.1104 H   0  0  0  0  0  0  0  0  0  0  0  0
  149.9630  145.2048  158.7231 H   0  0  0  0  0  0  0  0  0  0  0  0
  153.0489  144.7525  158.5152 H   0  0  0  0  0  0  0  0  0  0  0  0
  152.1623  146.3595  158.4854 H   0  0  0  0  0  0  0  0  0  0  0  0
  151.2196  145.8665  160.7796 H   0  0  0  0  0  0  0  0  0  0  0  0
  152.1149  144.2647  160.7918 H   0  0  0  0  0  0  0  0  0  0  0  0
  149.6778  137.7798  153.0487 H   0  0  0  0  0  0  0  0  0  0  0  0
  1  2  1  0  0  0  0
  1 15  1  0  0  0  0
  1 16  1  0  0  0  0
  1 17  1  0  0  0  0
  2  3  1  0  0  0  0
  2  9  1  0  0  0  0
  2 18  1  0  0  0  0
  3  4  1  0  0  0  0
  3 19  1  0  0  0  0
  3 20  1  0  0  0  0
  4  8  1  0  0  0  0
  4  5  1  0  0  0  0
  5  6  2  0  0  0  0
  5 21  1  0  0  0  0
  6  7  1  0  0  0  0
  6 22  1  0  0  0  0
  7  8  2  0  0  0  0
  7 30  1  0  0  0  0
  8 23  1  0  0  0  0
  9 10  1  0  0  0  0
  9 24  1  0  0  0  0
 10 11  2  0  0  0  0
 10 12  1  0  0  0  0
 12 14  1  0  0  0  0
 12 13  1  0  0  0  0
 12 25  1  0  0  0  0
 13 14  1  0  0  0  0
 13 26  1  0  0  0  0
 13 27  1  0  0  0  0
 14 28  1  0  0  0  0
 14 29  1  0  0  0  0
M  CHG  1   7   1
M  END
> <s_m_source_file>
AV-unprocessed.smi

> <i_m_source_file_index>
3094

> <i_lp_mmshare_version>
43012

> <i_f3d_flags>
0

> <s_epik_input>
W0NIMl0xW0NIMl1bQ0hdMUMoPU8pW05IXVtDQEhdKFtDSDNdKVtDSDJdbjJbY0hdW2NIXW5bY0hdMg==

> <s_epik_cmdline>
J2VwaWtfcHl0aG9uJywgJy1waCcsICc3LjAnLCAnLXRuJywgJzgnLCAnLW1hJywgJzIwMCcsICctbWV0YWxfYmluZGluZycsICctaW1hZScsICc8aW5maWxlLm1hZT4nLCAnLW9tYWUnLCAnPG91dGZpbGUubWFlPic=

> <r_lp_tautomer_probability>
1

> <r_epik_Ionization_Penalty>
0.244425

> <r_epik_Ionization_Penalty_Charging>
0

> <r_epik_Ionization_Penalty_Neutral>
0.244425

> <r_epik_State_Penalty>
0.23553

> <r_epik_Charging_Adjusted_Penalty>
0.23553

> <i_epik_Tot_Q>
1

> <i_epik_Tot_abs_Q>
1

> <r_epik_Metal_State_Penalty>
0.528799

> <b_epik_Metal_Only>
0

> <s_lp_Force_Field>
OPLS_2005

> <r_lp_Energy>
8.84251

> <b_lp_Chiralities_Consistent>
1

> <s_lp_Variant>
AV-unprocessed.smi:3094-2

> <Gold.Version>
5.8.1

> <Gold.Id.Protein>
6NUR|6NUR_protein|mol2

> <Gold.PLP.Fitness>
41.8010

> <Gold.PLP.PLP>
-32.4065

> <Gold.PLP.part.hbond>
-2.7453

> <Gold.PLP.part.metal>
0.0000

> <Gold.PLP.part.buried>
-2.4832

> <Gold.PLP.part.nonpolar>
-27.5793

> <Gold.PLP.part.repulsive>
0.0919

> <Gold.PLP.ligand.clash>
0.0000

> <Gold.PLP.ligand.torsion>
0.3896

> <Gold.PLP.Chemscore.Hbond>
3.0000

> <Gold.PLP.Chemscore.CHOScore>
0.3647

> <Gold.PLP.Chemscore.Metal>
0.0000

> <Gold.Chemscore.Hbonds>
donor molecule, donor type, donor heavy atom, donor atom, acceptor molecule, acceptor atom, score
      L1  H     7    30       P1  7948  1.95
      L1  H     9    24       P1  8028  1.00
      L1  C     8    23       P1  7957  0.30

> <Gold.PLP.Chemscore.Internal.Correction>
0.0797

> <Gold.Rescore>
     Score         DG    S(hbond)    S(metal)    S(lipo)     H(rot)  DE(clash)    DE(int)     intcor
     14.55     -15.16       1.97        0.00      68.11       1.90       0.31       0.31       ----

> <Gold.Chemscore.Fitness>
14.5495

> <Gold.Chemscore.DG>
-15.1641

> <Gold.Chemscore.ZeroCoef>
-5.4800

> <Gold.Chemscore.Hbond>
1.9712

> <Gold.Chemscore.Metal>
0.0000

> <Gold.Chemscore.Lipo>
68.1119

> <Gold.Chemscore.Internal_Hbond>
0.0000

> <Gold.Chemscore.DEClash>
0.3072

> <Gold.Chemscore.DEInternal>
0.3074

> <Gold.Chemscore.Rot>
1.9019

> <Gold.Chemscore.Internal.Correction>
   9.000000E+99

> <Gold.Chemscore.Hbonds>
donor molecule, donor type, donor heavy atom, donor atom, acceptor molecule, acceptor atom, score
      L1  H     7    30       P1  7948  0.65
      L1  H     9    24       P1  8028  0.87

> <Gold.Chemscore.Hbond.Weighted>
-6.5839

> <Gold.Chemscore.Metal.Weighted>
-0.0000

> <Gold.Chemscore.Lipo.Weighted>
-7.9691

> <Gold.Chemscore.Internal_Hbond.Weighted>
0.0000

> <Gold.Chemscore.DEClash.Weighted>
0.3072

> <Gold.Chemscore.DEInternal.Weighted>
0.3074

> <Gold.Chemscore.Rot.Weighted>
4.8689

> <Gold.Chemscore.Internal.Correction.Weighted>
   9.000000E+99

> <Gold.Protein.RotatedTorsions>
[ 6907 6896 6895 6894 ] final  -18.81 input  -60.11 | X-H torsion
[ 7974 7965 7964 7962 ] final  173.79 input  175.53 | X-H torsion
[ 8008 7997 7996 7995 ] final  -74.05 input   59.86 | X-H torsion
[ 10167 10162 10161 10158 ] final  169.08 input  -65.29 | X-H torsion
[ 10718 10713 10712 10709 ] final  -75.58 input   66.30 | X-H torsion
[ 10763 10752 10751 10750 ] final  -35.60 input  -60.55 | X-H torsion
[ 11005 11000 10999 10996 ] final -126.78 input  -57.11 | X-H torsion

> <Gold.Protein.ActiveResidues>
 VAL166  LYS551  ARG553  GLY616  TRP617  ASP618  TYR619  PRO620  LYS621  CYS622 
 ASP623  PHE694  ASN695  SER759  ASP760  ASP761  ALA762  ILE779  LEU786  VAL792 
 PHE793  MET794  SER795  GLU796  ALA797  LYS798  CYS799  TRP800  GLU811  SER814 

> <Gold.Protein.RotatedAtoms>
  151.2725  135.0689  159.9139 H   0  0  0  0  0  0  0  0  0  0  0  0  # atno 6907 bound_to 6896
  152.5348  134.0115  159.7951 H   0  0  0  0  0  0  0  0  0  0  0  0  # atno 6908 bound_to 6896
  151.0356  133.5701  159.2687 H   0  0  0  0  0  0  0  0  0  0  0  0  # atno 6909 bound_to 6896
  144.7236  139.9700  143.6437 H   0  0  0  0  0  0  0  0  0  0  0  0  # atno 7974 bound_to 7965
  154.5298  140.0768  156.8324 H   0  0  0  0  0  0  0  0  0  0  0  0  # atno 8008 bound_to 7997
  155.3399  140.3406  155.4221 H   0  0  0  0  0  0  0  0  0  0  0  0  # atno 8009 bound_to 7997
  156.1769  140.1639  156.8332 H   0  0  0  0  0  0  0  0  0  0  0  0  # atno 8010 bound_to 7997
  139.4983  144.3745  151.9689 H   0  0  0  0  0  0  0  0  0  0  0  0  # atno 10167 bound_to 10162
  156.0203  130.4444  150.3064 H   0  0  0  0  0  0  0  0  0  0  0  0  # atno 10718 bound_to 10713
  153.8659  135.6835  153.4778 H   0  0  0  0  0  0  0  0  0  0  0  0  # atno 10763 bound_to 10752
  153.1315  135.4696  154.9354 H   0  0  0  0  0  0  0  0  0  0  0  0  # atno 10764 bound_to 10752
  154.7737  135.3246  154.8087 H   0  0  0  0  0  0  0  0  0  0  0  0  # atno 10765 bound_to 10752
  140.9653  134.0880  157.3926 H   0  0  0  0  0  0  0  0  0  0  0  0  # atno 11005 bound_to 11000
  146.0570  139.3566  143.0604 LP  0  0  0  0  0  0  0  0  0  0  0  0  # atno 17320 bound_to 7965
  145.8141  140.9711  143.0933 LP  0  0  0  0  0  0  0  0  0  0  0  0  # atno 17321 bound_to 7965
  140.3181  144.3459  150.6016 LP  0  0  0  0  0  0  0  0  0  0  0  0  # atno 17342 bound_to 10162
  140.5744  143.2178  151.7541 LP  0  0  0  0  0  0  0  0  0  0  0  0  # atno 17343 bound_to 10162
  157.1166  131.0235  151.3026 LP  0  0  0  0  0  0  0  0  0  0  0  0  # atno 17370 bound_to 10713
  157.4661  130.7682  149.7280 LP  0  0  0  0  0  0  0  0  0  0  0  0  # atno 17371 bound_to 10713
  139.8892  135.0103  156.6667 LP  0  0  0  0  0  0  0  0  0  0  0  0  # atno 17394 bound_to 11000
  140.7408  133.8979  155.8276 LP  0  0  0  0  0  0  0  0  0  0  0  0  # atno 17395 bound_to 11000

$$$$
