AV-unprocessed.smi:1247|AV-procd|sdf|5248|dock4
  -GOLD-   22720 4353D 1   1.00000     0.00000
 Structure written by MMmdl.
 47 48  0  0  0  0  0  0  0  0  2 V2000
  154.1468  141.9422  160.7842 C   0  0  0  0  0  0  0  0  0  0  0  0
  153.1298  142.5455  159.8608 C   0  0  0  0  0  0  0  0  0  0  0  0
  152.6939  142.0552  158.5956 C   0  0  0  0  0  0  0  0  0  0  0  0
  151.7724  142.9905  158.2110 C   0  0  0  0  0  0  0  0  0  0  0  0
  151.0278  143.0398  157.0742 N   0  0  0  0  0  0  0  0  0  0  0  0
  151.0134  142.1772  156.0428 C   0  0  0  0  0  0  0  0  0  0  0  0
  151.7017  141.1604  155.9508 O   0  0  0  0  0  0  0  0  0  0  0  0
  150.1416  142.5597  155.0985 N   0  0  0  0  0  0  0  0  0  0  0  0
  149.8804  141.8242  153.8664 C   0  0  0  0  0  0  0  0  0  0  0  0
  148.4616  142.0980  153.3316 C   0  0  0  0  0  0  0  0  0  0  0  0
  147.4868  142.3381  154.4245 N   0  3  1  0  0  0  0  0  0  0  0  0
  146.2116  142.9097  153.9338 C   0  0  0  0  0  0  0  0  0  0  0  0
  145.2787  143.2353  155.1140 C   0  0  1  0  0  0  0  0  0  0  0  0
  143.9138  143.7498  154.6436 C   0  0  0  0  0  0  0  0  0  0  0  0
  145.0604  142.0566  155.8847 O   0  0  0  0  0  0  0  0  0  0  0  0
  146.2446  141.4481  156.3995 C   0  0  2  0  0  0  0  0  0  0  0  0
  146.8749  142.2686  157.5389 C   0  0  0  0  0  0  0  0  0  0  0  0
  147.2247  141.1343  155.2519 C   0  0  0  0  0  0  0  0  0  0  0  0
  151.6810  143.9541  159.1914 N   0  0  0  0  0  0  0  0  0  0  0  0
  150.8506  145.1417  159.2444 C   0  0  0  0  0  0  0  0  0  0  0  0
  152.5251  143.6759  160.2085 N   0  0  0  0  0  0  0  0  0  0  0  0
  154.5431  141.0108  160.3790 H   0  0  0  0  0  0  0  0  0  0  0  0
  153.7105  141.7203  161.7583 H   0  0  0  0  0  0  0  0  0  0  0  0
  154.9866  142.6196  160.9399 H   0  0  0  0  0  0  0  0  0  0  0  0
  153.0171  141.1647  158.0780 H   0  0  0  0  0  0  0  0  0  0  0  0
  150.4042  143.8305  157.0041 H   0  0  0  0  0  0  0  0  0  0  0  0
  149.6139  143.4076  155.2480 H   0  0  0  0  0  0  0  0  0  0  0  0
  150.6429  142.0804  153.1303 H   0  0  0  0  0  0  0  0  0  0  0  0
  149.9985  140.7605  154.0751 H   0  0  0  0  0  0  0  0  0  0  0  0
  148.5080  142.9792  152.6898 H   0  0  0  0  0  0  0  0  0  0  0  0
  148.1098  141.2790  152.7022 H   0  0  0  0  0  0  0  0  0  0  0  0
  146.4092  143.8193  153.3651 H   0  0  0  0  0  0  0  0  0  0  0  0
  145.7332  142.2034  153.2528 H   0  0  0  0  0  0  0  0  0  0  0  0
  145.7322  144.0053  155.7387 H   0  0  0  0  0  0  0  0  0  0  0  0
  144.0189  144.6615  154.0551 H   0  0  0  0  0  0  0  0  0  0  0  0
  143.2690  143.9763  155.4930 H   0  0  0  0  0  0  0  0  0  0  0  0
  143.4031  143.0095  154.0268 H   0  0  0  0  0  0  0  0  0  0  0  0
  145.9295  140.4991  156.8343 H   0  0  0  0  0  0  0  0  0  0  0  0
  147.6885  141.7153  158.0087 H   0  0  0  0  0  0  0  0  0  0  0  0
  146.1382  142.4884  158.3121 H   0  0  0  0  0  0  0  0  0  0  0  0
  147.2872  143.2150  157.1902 H   0  0  0  0  0  0  0  0  0  0  0  0
  146.8019  140.3534  154.6177 H   0  0  0  0  0  0  0  0  0  0  0  0
  148.1514  140.7342  155.6621 H   0  0  0  0  0  0  0  0  0  0  0  0
  149.8310  144.8932  158.9483 H   0  0  0  0  0  0  0  0  0  0  0  0
  151.2476  145.8949  158.5634 H   0  0  0  0  0  0  0  0  0  0  0  0
  150.8317  145.5508  160.2556 H   0  0  0  0  0  0  0  0  0  0  0  0
  147.8954  143.0354  155.0304 H   0  0  0  0  0  0  0  0  0  0  0  0
  1  2  1  0  0  0  0
  1 22  1  0  0  0  0
  1 23  1  0  0  0  0
  1 24  1  0  0  0  0
  2 21  2  0  0  0  0
  2  3  1  0  0  0  0
  3  4  2  0  0  0  0
  3 25  1  0  0  0  0
  4  5  1  0  0  0  0
  4 19  1  0  0  0  0
  5  6  1  0  0  0  0
  5 26  1  0  0  0  0
  6  7  2  0  0  0  0
  6  8  1  0  0  0  0
  8  9  1  0  0  0  0
  8 27  1  0  0  0  0
  9 10  1  0  0  0  0
  9 28  1  0  0  0  0
  9 29  1  0  0  0  0
 10 11  1  0  0  0  0
 10 30  1  0  0  0  0
 10 31  1  0  0  0  0
 11 18  1  0  0  0  0
 11 12  1  0  0  0  0
 11 47  1  0  0  0  0
 12 13  1  0  0  0  0
 12 32  1  0  0  0  0
 12 33  1  0  0  0  0
 13 14  1  0  0  0  0
 13 15  1  0  0  0  0
 13 34  1  0  0  0  0
 14 35  1  0  0  0  0
 14 36  1  0  0  0  0
 14 37  1  0  0  0  0
 15 16  1  0  0  0  0
 16 17  1  0  0  0  0
 16 18  1  0  0  0  0
 16 38  1  0  0  0  0
 17 39  1  0  0  0  0
 17 40  1  0  0  0  0
 17 41  1  0  0  0  0
 18 42  1  0  0  0  0
 18 43  1  0  0  0  0
 19 20  1  0  0  0  0
 19 21  1  0  0  0  0
 20 44  1  0  0  0  0
 20 45  1  0  0  0  0
 20 46  1  0  0  0  0
M  CHG  1  11   1
M  END
> <s_m_source_file>
AV-unprocessed.smi

> <i_m_source_file_index>
1247

> <i_lp_mmshare_version>
43012

> <i_f3d_flags>
0

> <s_epik_input>
W0NIM11jMVtjSF1jKG4objEpW0NIM10pW05IXUMoPU8pW05IXVtDSDJdW0NIMl1OMltDSDJdW0NAQEhdKFtDSDNdKU9bQ0BASF0oW0NIM10pW0NIMl0y

> <s_epik_cmdline>
J2VwaWtfcHl0aG9uJywgJy1waCcsICc3LjAnLCAnLXRuJywgJzgnLCAnLW1hJywgJzIwMCcsICctbWV0YWxfYmluZGluZycsICctaW1hZScsICc8aW5maWxlLm1hZT4nLCAnLW9tYWUnLCAnPG91dGZpbGUubWFlPic=

> <r_lp_tautomer_probability>
1

> <r_epik_Ionization_Penalty>
0.663902

> <r_epik_Ionization_Penalty_Charging>
0.663826

> <r_epik_Ionization_Penalty_Neutral>
7.65444e-05

> <r_epik_State_Penalty>
0.683414

> <r_epik_Charging_Adjusted_Penalty>
1.34724

> <i_epik_Tot_Q>
1

> <i_epik_Tot_abs_Q>
1

> <r_epik_Metal_State_Penalty>
0.683419

> <b_epik_Metal_Only>
0

> <s_lp_Force_Field>
OPLS_2005

> <r_lp_Energy>
18.4757

> <b_lp_Chiralities_Consistent>
1

> <s_lp_Variant>
AV-unprocessed.smi:1247-6

> <Gold.Version>
5.8.1

> <Gold.Id.Protein>
6NUR|6NUR_protein|mol2

> <Gold.PLP.Fitness>
52.6716

> <Gold.PLP.PLP>
-42.8588

> <Gold.PLP.part.hbond>
-2.9387

> <Gold.PLP.part.metal>
0.0000

> <Gold.PLP.part.buried>
-6.0300

> <Gold.PLP.part.nonpolar>
-33.1155

> <Gold.PLP.part.repulsive>
0.4127

> <Gold.PLP.ligand.clash>
0.0000

> <Gold.PLP.ligand.torsion>
0.4024

> <Gold.PLP.Chemscore.Hbond>
3.5301

> <Gold.PLP.Chemscore.CHOScore>
0.0000

> <Gold.PLP.Chemscore.Metal>
0.0000

> <Gold.Chemscore.Hbonds>
donor molecule, donor type, donor heavy atom, donor atom, acceptor molecule, acceptor atom, score
      L1  H     5    26       P1  8028  0.50
      L1  H     8    27       P1  8028  1.00
      L1  H    11    47       P1  8028  2.00

> <Gold.PLP.Chemscore.Internal.Correction>
0.0273

> <Gold.Rescore>
     Score         DG    S(hbond)    S(metal)    S(lipo)     H(rot)  DE(clash)    DE(int)     intcor
     16.88     -19.05       2.26        0.00      84.86       1.52       0.58       1.59       ----

> <Gold.Chemscore.Fitness>
16.8804

> <Gold.Chemscore.DG>
-19.0520

> <Gold.Chemscore.ZeroCoef>
-5.4800

> <Gold.Chemscore.Hbond>
2.2576

> <Gold.Chemscore.Metal>
0.0000

> <Gold.Chemscore.Lipo>
84.8562

> <Gold.Chemscore.Internal_Hbond>
0.0000

> <Gold.Chemscore.DEClash>
0.5785

> <Gold.Chemscore.DEInternal>
1.5932

> <Gold.Chemscore.Rot>
1.5221

> <Gold.Chemscore.Internal.Correction>
   9.000000E+99

> <Gold.Chemscore.Hbonds>
donor molecule, donor type, donor heavy atom, donor atom, acceptor molecule, acceptor atom, score
      L1  H     5    26       P1  8028  0.48
      L1  H     8    27       P1  8028  0.95
      L1  H    11    47       P1  8028  0.77
      P1  H  7989  7998       L1     7  0.01

> <Gold.Chemscore.Hbond.Weighted>
-7.5405

> <Gold.Chemscore.Metal.Weighted>
-0.0000

> <Gold.Chemscore.Lipo.Weighted>
-9.9282

> <Gold.Chemscore.Internal_Hbond.Weighted>
0.0000

> <Gold.Chemscore.DEClash.Weighted>
0.5785

> <Gold.Chemscore.DEInternal.Weighted>
1.5932

> <Gold.Chemscore.Rot.Weighted>
3.8967

> <Gold.Chemscore.Internal.Correction.Weighted>
   9.000000E+99

> <Gold.Protein.RotatedTorsions>
[ 6907 6896 6895 6894 ] final  -11.50 input  -60.11 | X-H torsion
[ 7974 7965 7964 7962 ] final   99.14 input  175.53 | X-H torsion
[ 8008 7997 7996 7995 ] final  -35.86 input   59.86 | X-H torsion
[ 10167 10162 10161 10158 ] final  -79.20 input  -65.29 | X-H torsion
[ 10718 10713 10712 10709 ] final -106.49 input   66.30 | X-H torsion
[ 10763 10752 10751 10750 ] final   -1.39 input  -60.55 | X-H torsion
[ 11005 11000 10999 10996 ] final  177.64 input  -57.11 | X-H torsion

> <Gold.Protein.ActiveResidues>
 VAL166  LYS551  ARG553  GLY616  TRP617  ASP618  TYR619  PRO620  LYS621  CYS622 
 ASP623  PHE694  ASN695  SER759  ASP760  ASP761  ALA762  ILE779  LEU786  VAL792 
 PHE793  MET794  SER795  GLU796  ALA797  LYS798  CYS799  TRP800  GLU811  SER814 

> <Gold.Protein.RotatedAtoms>
  151.3852  135.0946  159.9508 H   0  0  0  0  0  0  0  0  0  0  0  0  # atno 6907 bound_to 6896
  152.5096  133.9033  159.7462 H   0  0  0  0  0  0  0  0  0  0  0  0  # atno 6908 bound_to 6896
  150.9475  133.6531  159.2807 H   0  0  0  0  0  0  0  0  0  0  0  0  # atno 6909 bound_to 6896
  145.4029  139.2345  143.3290 H   0  0  0  0  0  0  0  0  0  0  0  0  # atno 7974 bound_to 7965
  154.4086  140.1646  156.2280 H   0  0  0  0  0  0  0  0  0  0  0  0  # atno 8008 bound_to 7997
  155.9307  140.3415  155.6224 H   0  0  0  0  0  0  0  0  0  0  0  0  # atno 8009 bound_to 7997
  155.7110  140.0756  157.2362 H   0  0  0  0  0  0  0  0  0  0  0  0  # atno 8010 bound_to 7997
  140.4615  143.2452  151.8342 H   0  0  0  0  0  0  0  0  0  0  0  0  # atno 10167 bound_to 10162
  156.0393  130.5615  150.7689 H   0  0  0  0  0  0  0  0  0  0  0  0  # atno 10718 bound_to 10713
  153.3442  135.6982  153.6841 H   0  0  0  0  0  0  0  0  0  0  0  0  # atno 10763 bound_to 10752
  153.5594  135.3538  155.2793 H   0  0  0  0  0  0  0  0  0  0  0  0  # atno 10764 bound_to 10752
  154.8642  135.4245  154.2662 H   0  0  0  0  0  0  0  0  0  0  0  0  # atno 10765 bound_to 10752
  140.3863  134.6902  157.4481 H   0  0  0  0  0  0  0  0  0  0  0  0  # atno 11005 bound_to 11000
  146.2743  140.4729  142.8802 LP  0  0  0  0  0  0  0  0  0  0  0  0  # atno 17320 bound_to 7965
  144.8362  140.6785  143.6259 LP  0  0  0  0  0  0  0  0  0  0  0  0  # atno 17321 bound_to 7965
  139.4807  144.5002  151.9070 LP  0  0  0  0  0  0  0  0  0  0  0  0  # atno 17342 bound_to 10162
  140.4088  144.2396  150.5889 LP  0  0  0  0  0  0  0  0  0  0  0  0  # atno 17343 bound_to 10162
  157.5188  131.0930  151.0105 LP  0  0  0  0  0  0  0  0  0  0  0  0  # atno 17370 bound_to 10713
  157.0441  130.5761  149.5360 LP  0  0  0  0  0  0  0  0  0  0  0  0  # atno 17371 bound_to 10713
  140.0440  134.6226  155.8944 LP  0  0  0  0  0  0  0  0  0  0  0  0  # atno 17394 bound_to 11000
  141.1906  133.6569  156.5420 LP  0  0  0  0  0  0  0  0  0  0  0  0  # atno 17395 bound_to 11000

$$$$
