AV-unprocessed.smi:1388|AV-procd|sdf|5643|dock4
  -GOLD-   22720 5263D 1   1.00000     0.00000
 Structure written by MMmdl.
 46 47  0  0  0  0  0  0  0  0  2 V2000
  142.0778  138.3892  154.9164 C   0  0  0  0  0  0  0  0  0  0  0  0
  142.8445  139.6242  154.8503 N   0  0  0  0  0  0  0  0  0  0  0  0
  143.3603  140.2489  155.9180 C   0  0  0  0  0  0  0  0  0  0  0  0
  143.2276  139.8359  157.0707 O   0  0  0  0  0  0  0  0  0  0  0  0
  144.1265  141.5460  155.6387 C   0  0  0  0  0  0  0  0  0  0  0  0
  145.3296  141.3414  154.7910 N   0  3  2  0  0  0  0  0  0  0  0  0
  146.3344  140.4605  155.4389 C   0  0  0  0  0  0  0  0  0  0  0  0
  147.5019  140.1480  154.4847 C   0  0  0  0  0  0  0  0  0  0  0  0
  148.1643  141.4258  153.9416 C   0  0  2  0  0  0  0  0  0  0  0  0
  148.9277  142.0947  154.9946 N   0  0  0  0  0  0  0  0  0  0  0  0
  149.8397  141.5059  155.7824 C   0  0  0  0  0  0  0  0  0  0  0  0
  150.1404  140.3152  155.6962 O   0  0  0  0  0  0  0  0  0  0  0  0
  150.3714  142.3847  156.6505 N   0  0  0  0  0  0  0  0  0  0  0  0
  151.3512  142.1523  157.6567 C   0  0  0  0  0  0  0  0  0  0  0  0
  151.8028  140.9107  157.9648 N   0  0  0  0  0  0  0  0  0  0  0  0
  152.7286  140.7609  158.9340 C   0  0  0  0  0  0  0  0  0  0  0  0
  153.2636  141.8402  159.6576 C   0  0  0  0  0  0  0  0  0  0  0  0
  152.8072  143.1335  159.3506 C   0  0  0  0  0  0  0  0  0  0  0  0
  151.8379  143.2999  158.3386 C   0  0  0  0  0  0  0  0  0  0  0  0
  151.3437  144.6983  158.0053 C   0  0  0  0  0  0  0  0  0  0  0  0
  147.0897  142.3517  153.3381 C   0  0  0  0  0  0  0  0  0  0  0  0
  145.9382  142.6159  154.3240 C   0  0  0  0  0  0  0  0  0  0  0  0
  141.7941  138.0734  153.9125 H   0  0  0  0  0  0  0  0  0  0  0  0
  141.1667  138.5282  155.5000 H   0  0  0  0  0  0  0  0  0  0  0  0
  142.6645  137.5902  155.3711 H   0  0  0  0  0  0  0  0  0  0  0  0
  142.9873  140.0286  153.9359 H   0  0  0  0  0  0  0  0  0  0  0  0
  143.4698  142.2892  155.1835 H   0  0  0  0  0  0  0  0  0  0  0  0
  144.4245  141.9440  156.6094 H   0  0  0  0  0  0  0  0  0  0  0  0
  146.7025  140.9350  156.3499 H   0  0  0  0  0  0  0  0  0  0  0  0
  145.8629  139.5240  155.7394 H   0  0  0  0  0  0  0  0  0  0  0  0
  148.2406  139.5228  154.9878 H   0  0  0  0  0  0  0  0  0  0  0  0
  147.1265  139.5579  153.6476 H   0  0  0  0  0  0  0  0  0  0  0  0
  148.8610  141.1344  153.1533 H   0  0  0  0  0  0  0  0  0  0  0  0
  148.7401  143.0757  155.1412 H   0  0  0  0  0  0  0  0  0  0  0  0
  150.0381  143.3350  156.5871 H   0  0  0  0  0  0  0  0  0  0  0  0
  153.0518  139.7508  159.1378 H   0  0  0  0  0  0  0  0  0  0  0  0
  154.0039  141.6800  160.4271 H   0  0  0  0  0  0  0  0  0  0  0  0
  153.1982  143.9851  159.8877 H   0  0  0  0  0  0  0  0  0  0  0  0
  151.8467  145.4521  158.6115 H   0  0  0  0  0  0  0  0  0  0  0  0
  150.2726  144.7785  158.1912 H   0  0  0  0  0  0  0  0  0  0  0  0
  151.5332  144.9312  156.9574 H   0  0  0  0  0  0  0  0  0  0  0  0
  147.5309  143.2957  153.0161 H   0  0  0  0  0  0  0  0  0  0  0  0
  146.6851  141.8883  152.4373 H   0  0  0  0  0  0  0  0  0  0  0  0
  145.1861  143.2336  153.8327 H   0  0  0  0  0  0  0  0  0  0  0  0
  146.2986  143.1863  155.1814 H   0  0  0  0  0  0  0  0  0  0  0  0
  145.0103  140.8501  153.9677 H   0  0  0  0  0  0  0  0  0  0  0  0
  1  2  1  0  0  0  0
  1 23  1  0  0  0  0
  1 24  1  0  0  0  0
  1 25  1  0  0  0  0
  2  3  1  0  0  0  0
  2 26  1  0  0  0  0
  3  4  2  0  0  0  0
  3  5  1  0  0  0  0
  5  6  1  0  0  0  0
  5 27  1  0  0  0  0
  5 28  1  0  0  0  0
  6 22  1  0  0  0  0
  6  7  1  0  0  0  0
  6 46  1  0  0  0  0
  7  8  1  0  0  0  0
  7 29  1  0  0  0  0
  7 30  1  0  0  0  0
  8  9  1  0  0  0  0
  8 31  1  0  0  0  0
  8 32  1  0  0  0  0
  9 10  1  0  0  0  0
  9 21  1  0  0  0  0
  9 33  1  0  0  0  0
 10 11  1  0  0  0  0
 10 34  1  0  0  0  0
 11 12  2  0  0  0  0
 11 13  1  0  0  0  0
 13 14  1  0  0  0  0
 13 35  1  0  0  0  0
 14 19  1  0  0  0  0
 14 15  2  0  0  0  0
 15 16  1  0  0  0  0
 16 17  2  0  0  0  0
 16 36  1  0  0  0  0
 17 18  1  0  0  0  0
 17 37  1  0  0  0  0
 18 19  2  0  0  0  0
 18 38  1  0  0  0  0
 19 20  1  0  0  0  0
 20 39  1  0  0  0  0
 20 40  1  0  0  0  0
 20 41  1  0  0  0  0
 21 22  1  0  0  0  0
 21 42  1  0  0  0  0
 21 43  1  0  0  0  0
 22 44  1  0  0  0  0
 22 45  1  0  0  0  0
M  CHG  1   6   1
M  END
> <s_m_source_file>
AV-unprocessed.smi

> <i_m_source_file_index>
1388

> <i_lp_mmshare_version>
43012

> <i_f3d_flags>
0

> <s_epik_input>
W0NIM11bTkhdQyg9TylbQ0gyXU4xW0NIMl1bQ0gyXVtDSF0oW0NIMl1bQ0gyXTEpW05IXUMoPU8pW05IXWMybltjSF1bY0hdW2NIXWMyW0NIM10=

> <s_epik_cmdline>
J2VwaWtfcHl0aG9uJywgJy1waCcsICc3LjAnLCAnLXRuJywgJzgnLCAnLW1hJywgJzIwMCcsICctbWV0YWxfYmluZGluZycsICctaW1hZScsICc8aW5maWxlLm1hZT4nLCAnLW9tYWUnLCAnPG91dGZpbGUubWFlPic=

> <r_epik_Ionization_Penalty>
0.83891

> <r_epik_Ionization_Penalty_Charging>
0.838844

> <r_epik_Ionization_Penalty_Neutral>
6.58477e-05

> <r_epik_State_Penalty>
0.8734

> <r_epik_Charging_Adjusted_Penalty>
1.71224

> <i_epik_Tot_Q>
1

> <i_epik_Tot_abs_Q>
1

> <r_epik_Metal_State_Penalty>
0.877924

> <b_epik_Metal_Only>
0

> <s_lp_Force_Field>
OPLS_2005

> <r_lp_Energy>
16.2558

> <b_lp_Chiralities_Consistent>
1

> <s_lp_Variant>
AV-unprocessed.smi:1388-3

> <Gold.Version>
5.8.1

> <Gold.Id.Protein>
6NUR|6NUR_protein|mol2

> <Gold.PLP.Fitness>
51.2805

> <Gold.PLP.PLP>
-36.4613

> <Gold.PLP.part.hbond>
-4.0000

> <Gold.PLP.part.metal>
0.0000

> <Gold.PLP.part.buried>
-7.0298

> <Gold.PLP.part.nonpolar>
-25.9045

> <Gold.PLP.part.repulsive>
0.3132

> <Gold.PLP.ligand.clash>
0.0000

> <Gold.PLP.ligand.torsion>
0.1021

> <Gold.PLP.Chemscore.Hbond>
5.0000

> <Gold.PLP.Chemscore.CHOScore>
0.0000

> <Gold.PLP.Chemscore.Metal>
0.0000

> <Gold.Chemscore.Hbonds>
donor molecule, donor type, donor heavy atom, donor atom, acceptor molecule, acceptor atom, score
      L1  H     2    26       P1 10175  1.00
      L1  H     6    46       P1 10175  2.00
      L1  H    10    34       P1  8028  1.00
      L1  H    13    35       P1  8028  1.00

> <Gold.PLP.Chemscore.Internal.Correction>
0.0234

> <Gold.Rescore>
     Score         DG    S(hbond)    S(metal)    S(lipo)     H(rot)  DE(clash)    DE(int)     intcor
     20.34     -24.22       3.82        0.00      87.90       1.69       1.42       2.46       ----

> <Gold.Chemscore.Fitness>
20.3435

> <Gold.Chemscore.DG>
-24.2232

> <Gold.Chemscore.ZeroCoef>
-5.4800

> <Gold.Chemscore.Hbond>
3.8243

> <Gold.Chemscore.Metal>
0.0000

> <Gold.Chemscore.Lipo>
87.9012

> <Gold.Chemscore.Internal_Hbond>
0.0000

> <Gold.Chemscore.DEClash>
1.4235

> <Gold.Chemscore.DEInternal>
2.4561

> <Gold.Chemscore.Rot>
1.6853

> <Gold.Chemscore.Internal.Correction>
   9.000000E+99

> <Gold.Chemscore.Hbonds>
donor molecule, donor type, donor heavy atom, donor atom, acceptor molecule, acceptor atom, score
      L1  H     2    26       P1 10175  0.99
      L1  H     6    46       P1 10175  0.86
      L1  H    10    34       P1  8028  1.00
      L1  H    13    35       P1  8028  0.89

> <Gold.Chemscore.Hbond.Weighted>
-12.7730

> <Gold.Chemscore.Metal.Weighted>
-0.0000

> <Gold.Chemscore.Lipo.Weighted>
-10.2844

> <Gold.Chemscore.Internal_Hbond.Weighted>
0.0000

> <Gold.Chemscore.DEClash.Weighted>
1.4235

> <Gold.Chemscore.DEInternal.Weighted>
2.4561

> <Gold.Chemscore.Rot.Weighted>
4.3143

> <Gold.Chemscore.Internal.Correction.Weighted>
   9.000000E+99

> <Gold.Protein.RotatedTorsions>
[ 6907 6896 6895 6894 ] final  -11.63 input  -60.11 | X-H torsion
[ 7974 7965 7964 7962 ] final   -5.16 input  175.53 | X-H torsion
[ 8008 7997 7996 7995 ] final  152.03 input   59.86 | X-H torsion
[ 10167 10162 10161 10158 ] final  -32.20 input  -65.29 | X-H torsion
[ 10718 10713 10712 10709 ] final  107.85 input   66.30 | X-H torsion
[ 10763 10752 10751 10750 ] final    2.09 input  -60.55 | X-H torsion
[ 11005 11000 10999 10996 ] final  -65.96 input  -57.11 | X-H torsion

> <Gold.Protein.ActiveResidues>
 VAL166  LYS551  ARG553  GLY616  TRP617  ASP618  TYR619  PRO620  LYS621  CYS622 
 ASP623  PHE694  ASN695  SER759  ASP760  ASP761  ALA762  ILE779  LEU786  VAL792 
 PHE793  MET794  SER795  GLU796  ALA797  LYS798  CYS799  TRP800  GLU811  SER814 

> <Gold.Protein.RotatedAtoms>
  151.3831  135.0943  159.9502 H   0  0  0  0  0  0  0  0  0  0  0  0  # atno 6907 bound_to 6896
  152.5102  133.9052  159.7471 H   0  0  0  0  0  0  0  0  0  0  0  0  # atno 6908 bound_to 6896
  150.9490  133.6515  159.2804 H   0  0  0  0  0  0  0  0  0  0  0  0  # atno 6909 bound_to 6896
  146.2358  140.1979  142.8333 H   0  0  0  0  0  0  0  0  0  0  0  0  # atno 7974 bound_to 7965
  156.2648  140.2032  156.6268 H   0  0  0  0  0  0  0  0  0  0  0  0  # atno 8008 bound_to 7997
  154.6714  140.0550  157.0193 H   0  0  0  0  0  0  0  0  0  0  0  0  # atno 8009 bound_to 7997
  155.1132  140.3217  155.4519 H   0  0  0  0  0  0  0  0  0  0  0  0  # atno 8010 bound_to 7997
  140.7225  143.3712  151.1774 H   0  0  0  0  0  0  0  0  0  0  0  0  # atno 10167 bound_to 10162
  157.6611  131.0881  150.6218 H   0  0  0  0  0  0  0  0  0  0  0  0  # atno 10718 bound_to 10713
  153.2999  135.6955  153.7213 H   0  0  0  0  0  0  0  0  0  0  0  0  # atno 10763 bound_to 10752
  153.6131  135.3441  155.2986 H   0  0  0  0  0  0  0  0  0  0  0  0  # atno 10764 bound_to 10752
  154.8548  135.4368  154.2107 H   0  0  0  0  0  0  0  0  0  0  0  0  # atno 10765 bound_to 10752
  141.1469  133.6690  156.6066 H   0  0  0  0  0  0  0  0  0  0  0  0  # atno 11005 bound_to 11000
  144.9805  140.8455  143.5400 LP  0  0  0  0  0  0  0  0  0  0  0  0  # atno 17320 bound_to 7965
  145.1972  139.2270  143.5212 LP  0  0  0  0  0  0  0  0  0  0  0  0  # atno 17321 bound_to 7965
  139.7284  143.9112  152.3011 LP  0  0  0  0  0  0  0  0  0  0  0  0  # atno 17342 bound_to 10162
  139.8892  144.6975  150.8789 LP  0  0  0  0  0  0  0  0  0  0  0  0  # atno 17343 bound_to 10162
  156.6521  130.4488  149.5716 LP  0  0  0  0  0  0  0  0  0  0  0  0  # atno 17370 bound_to 10713
  156.2130  130.6690  151.1289 LP  0  0  0  0  0  0  0  0  0  0  0  0  # atno 17371 bound_to 10713
  140.3647  134.7657  157.4558 LP  0  0  0  0  0  0  0  0  0  0  0  0  # atno 17394 bound_to 11000
  140.0757  134.5800  155.8594 LP  0  0  0  0  0  0  0  0  0  0  0  0  # atno 17395 bound_to 11000

$$$$
