AV-unprocessed.smi:137|AV-procd|sdf|1175|dock3
  -GOLD-   2262018323D 1   1.00000     0.00000
 Structure written by MMmdl.
 51 54  0  0  0  0  0  0  0  0  1 V2000
  146.0115  129.7779  151.7805 C   0  0  0  0  0  0  0  0  0  0  0  0
  145.7427  131.1966  151.2541 C   0  0  2  0  0  0  0  0  0  0  0  0
  146.3383  132.2254  152.2376 C   0  0  0  0  0  0  0  0  0  0  0  0
  146.0366  133.6297  151.9425 N   0  0  0  0  0  0  0  0  0  0  0  0
  146.2822  134.5570  152.9145 C   0  0  0  0  0  0  0  0  0  0  0  0
  146.8009  134.1383  154.1016 N   0  0  0  0  0  0  0  0  0  0  0  0
  147.0776  135.0080  155.0761 C   0  0  0  0  0  0  0  0  0  0  0  0
  146.9123  136.3299  155.0833 N   0  0  0  0  0  0  0  0  0  0  0  0
  146.3781  136.7656  153.9076 C   0  0  0  0  0  0  0  0  0  0  0  0
  146.0386  135.9594  152.7811 C   0  0  0  0  0  0  0  0  0  0  0  0
  145.5248  136.7709  151.7743 N   0  0  0  0  0  0  0  0  0  0  0  0
  145.5760  137.9778  152.2661 C   0  0  0  0  0  0  0  0  0  0  0  0
  146.0515  138.0633  153.5535 N   0  0  0  0  0  0  0  0  0  0  0  0
  146.2582  139.2617  154.3126 C   0  0  0  0  0  0  0  0  0  0  0  0
  147.0384  140.4459  153.7365 C   0  0  0  0  0  0  0  0  0  0  0  0
  147.5382  140.7945  155.1560 C   0  0  0  0  0  0  0  0  0  0  0  0
  149.0112  141.2260  155.2454 C   0  0  0  0  0  0  0  0  0  0  0  0
  149.2601  142.3651  154.4468 O   0  0  0  0  0  0  0  0  0  0  0  0
  146.6680  141.8072  155.9282 C   0  0  0  0  0  0  0  0  0  0  0  0
  146.6213  143.0552  155.2672 O   0  0  0  0  0  0  0  0  0  0  0  0
  147.2574  139.3072  155.4710 C   0  0  0  0  0  0  0  0  0  0  0  0
  145.9378  134.0910  150.5585 C   0  0  0  0  0  0  0  0  0  0  0  0
  144.4823  134.1047  150.0595 C   0  0  0  0  0  0  0  0  0  0  0  0
  143.9682  132.4235  149.4600 S   0  0  1  0  0  0  0  0  0  0  0  0
  144.9727  131.9793  148.3946 O   0  0  0  0  0  0  0  0  0  0  0  0
  144.2328  131.4039  150.9944 C   0  0  0  0  0  0  0  0  0  0  0  0
  145.4939  129.5989  152.7236 H   0  0  0  0  0  0  0  0  0  0  0  0
  147.0766  129.6159  151.9489 H   0  0  0  0  0  0  0  0  0  0  0  0
  145.6768  129.0233  151.0679 H   0  0  0  0  0  0  0  0  0  0  0  0
  146.2889  131.2645  150.3143 H   0  0  0  0  0  0  0  0  0  0  0  0
  145.9570  131.9977  153.2344 H   0  0  0  0  0  0  0  0  0  0  0  0
  147.4212  132.0999  152.2807 H   0  0  0  0  0  0  0  0  0  0  0  0
  147.4921  134.5834  155.9785 H   0  0  0  0  0  0  0  0  0  0  0  0
  145.2617  138.8423  151.6995 H   0  0  0  0  0  0  0  0  0  0  0  0
  145.2683  139.5777  154.6453 H   0  0  0  0  0  0  0  0  0  0  0  0
  147.8405  140.1294  153.0669 H   0  0  0  0  0  0  0  0  0  0  0  0
  146.4183  141.2107  153.2676 H   0  0  0  0  0  0  0  0  0  0  0  0
  149.3054  141.4423  156.2726 H   0  0  0  0  0  0  0  0  0  0  0  0
  149.6705  140.4288  154.9012 H   0  0  0  0  0  0  0  0  0  0  0  0
  149.2085  143.1327  154.9956 H   0  0  0  0  0  0  0  0  0  0  0  0
  145.6493  141.4419  156.0593 H   0  0  0  0  0  0  0  0  0  0  0  0
  147.0569  141.9786  156.9320 H   0  0  0  0  0  0  0  0  0  0  0  0
  147.5058  143.3699  155.1577 H   0  0  0  0  0  0  0  0  0  0  0  0
  146.8183  139.1145  156.4504 H   0  0  0  0  0  0  0  0  0  0  0  0
  148.1236  138.6651  155.3005 H   0  0  0  0  0  0  0  0  0  0  0  0
  146.3612  135.0916  150.4715 H   0  0  0  0  0  0  0  0  0  0  0  0
  146.5601  133.4756  149.9091 H   0  0  0  0  0  0  0  0  0  0  0  0
  143.7938  134.4446  150.8330 H   0  0  0  0  0  0  0  0  0  0  0  0
  144.3881  134.7943  149.2208 H   0  0  0  0  0  0  0  0  0  0  0  0
  143.7484  130.4447  150.8096 H   0  0  0  0  0  0  0  0  0  0  0  0
  143.7249  131.8524  151.8490 H   0  0  0  0  0  0  0  0  0  0  0  0
  1  2  1  0  0  0  0
  1 27  1  0  0  0  0
  1 28  1  0  0  0  0
  1 29  1  0  0  0  0
  2 26  1  0  0  0  0
  2  3  1  0  0  0  0
  2 30  1  0  0  0  0
  3  4  1  0  0  0  0
  3 31  1  0  0  0  0
  3 32  1  0  0  0  0
  4  5  1  0  0  0  0
  4 22  1  0  0  0  0
  5 10  1  0  0  0  0
  5  6  2  0  0  0  0
  6  7  1  0  0  0  0
  7  8  2  0  0  0  0
  7 33  1  0  0  0  0
  8  9  1  0  0  0  0
  9 13  1  0  0  0  0
  9 10  2  0  0  0  0
 10 11  1  0  0  0  0
 11 12  2  0  0  0  0
 12 13  1  0  0  0  0
 12 34  1  0  0  0  0
 13 14  1  0  0  0  0
 14 21  1  0  0  0  0
 14 15  1  0  0  0  0
 14 35  1  0  0  0  0
 15 16  1  0  0  0  0
 15 36  1  0  0  0  0
 15 37  1  0  0  0  0
 16 17  1  0  0  0  0
 16 19  1  0  0  0  0
 16 21  1  0  0  0  0
 17 18  1  0  0  0  0
 17 38  1  0  0  0  0
 17 39  1  0  0  0  0
 18 40  1  0  0  0  0
 19 20  1  0  0  0  0
 19 41  1  0  0  0  0
 19 42  1  0  0  0  0
 20 43  1  0  0  0  0
 21 44  1  0  0  0  0
 21 45  1  0  0  0  0
 22 23  1  0  0  0  0
 22 46  1  0  0  0  0
 22 47  1  0  0  0  0
 23 24  1  0  0  0  0
 23 48  1  0  0  0  0
 23 49  1  0  0  0  0
 24 25  2  0  0  0  0
 24 26  1  0  0  0  0
 26 50  1  0  0  0  0
 26 51  1  0  0  0  0
M  END
> <s_m_source_file>
AV-unprocessed.smi

> <i_m_source_file_index>
137

> <i_lp_mmshare_version>
43012

> <i_f3d_flags>
0

> <s_epik_input>
Tz1bU0BAXShbQ0gyXTEpW0NIMl1bQ0gyXU4oW0NIMl1bQ0BIXTFbQ0gzXSljKG5bY0hdbjIpYyhjMjMpbltjSF1uM1tDSF0oW0NIMl00KVtDSDJdQzQoW0NIMl1bT0hdKVtDSDJdW09IXQ==

> <s_epik_cmdline>
J2VwaWtfcHl0aG9uJywgJy1waCcsICc3LjAnLCAnLXRuJywgJzgnLCAnLW1hJywgJzIwMCcsICctbWV0YWxfYmluZGluZycsICctaW1hZScsICc8aW5maWxlLm1hZT4nLCAnLW9tYWUnLCAnPG91dGZpbGUubWFlPic=

> <r_lp_tautomer_probability>
1

> <r_epik_Ionization_Penalty>
0.000811024

> <r_epik_Ionization_Penalty_Charging>
0

> <r_epik_Ionization_Penalty_Neutral>
0.000811024

> <r_epik_State_Penalty>
0.000429598

> <r_epik_Charging_Adjusted_Penalty>
0.000429598

> <i_epik_Tot_Q>
0

> <i_epik_Tot_abs_Q>
0

> <r_epik_Metal_State_Penalty>
-0

> <b_epik_Metal_Only>
0

> <s_lp_Force_Field>
OPLS_2005

> <r_lp_Energy>
41.7942

> <b_lp_Chiralities_Consistent>
1

> <s_lp_Variant>
AV-unprocessed.smi:137-1

> <Gold.Version>
5.8.1

> <Gold.Id.Protein>
6NUR|6NUR_protein|mol2

> <Gold.PLP.Fitness>
43.4338

> <Gold.PLP.PLP>
-33.1075

> <Gold.PLP.part.hbond>
-5.0000

> <Gold.PLP.part.metal>
0.0000

> <Gold.PLP.part.buried>
-0.0899

> <Gold.PLP.part.nonpolar>
-27.7932

> <Gold.PLP.part.repulsive>
0.5859

> <Gold.PLP.ligand.clash>
0.0000

> <Gold.PLP.ligand.torsion>
0.7511

> <Gold.PLP.Chemscore.Hbond>
1.8937

> <Gold.PLP.Chemscore.CHOScore>
1.8502

> <Gold.PLP.Chemscore.Metal>
0.0000

> <Gold.Chemscore.Hbonds>
donor molecule, donor type, donor heavy atom, donor atom, acceptor molecule, acceptor atom, score
      L1  H    18    40       P1  8028  1.00
      L1  H    20    43       P1  8028  0.84
      P1  H  8011  8017       L1    18  0.12
      L1  C    12    34       P1 10171  0.83
      L1  C    12    34       P1 10175  0.91

> <Gold.PLP.Chemscore.Internal.Correction>
0.5967

> <Gold.Rescore>
     Score         DG    S(hbond)    S(metal)    S(lipo)     H(rot)  DE(clash)    DE(int)     intcor
      8.82     -11.90       1.49        0.00      75.06       2.87       0.26       2.81       ----

> <Gold.Chemscore.Fitness>
8.8208

> <Gold.Chemscore.DG>
-11.8998

> <Gold.Chemscore.ZeroCoef>
-5.4800

> <Gold.Chemscore.Hbond>
1.4946

> <Gold.Chemscore.Metal>
0.0000

> <Gold.Chemscore.Lipo>
75.0556

> <Gold.Chemscore.Internal_Hbond>
0.0000

> <Gold.Chemscore.DEClash>
0.2642

> <Gold.Chemscore.DEInternal>
2.8149

> <Gold.Chemscore.Rot>
2.8725

> <Gold.Chemscore.Internal.Correction>
   9.000000E+99

> <Gold.Chemscore.Hbonds>
donor molecule, donor type, donor heavy atom, donor atom, acceptor molecule, acceptor atom, score
      L1  H    18    40       P1  8028  1.00
      L1  H    20    43       P1  8028  0.16
      P1  H  8011  8017       L1    18  0.12

> <Gold.Chemscore.Hbond.Weighted>
-4.9919

> <Gold.Chemscore.Metal.Weighted>
-0.0000

> <Gold.Chemscore.Lipo.Weighted>
-8.7815

> <Gold.Chemscore.Internal_Hbond.Weighted>
0.0000

> <Gold.Chemscore.DEClash.Weighted>
0.2642

> <Gold.Chemscore.DEInternal.Weighted>
2.8149

> <Gold.Chemscore.Rot.Weighted>
7.3535

> <Gold.Chemscore.Internal.Correction.Weighted>
   9.000000E+99

> <Gold.Protein.RotatedTorsions>
[ 6907 6896 6895 6894 ] final   97.85 input  -60.11 | X-H torsion
[ 7974 7965 7964 7962 ] final -102.83 input  175.53 | X-H torsion
[ 8008 7997 7996 7995 ] final   68.45 input   59.86 | X-H torsion
[ 10167 10162 10161 10158 ] final  -40.35 input  -65.29 | X-H torsion
[ 10718 10713 10712 10709 ] final  -82.52 input   66.30 | X-H torsion
[ 10763 10752 10751 10750 ] final   16.79 input  -60.55 | X-H torsion
[ 11005 11000 10999 10996 ] final   89.75 input  -57.11 | X-H torsion

> <Gold.Protein.ActiveResidues>
 VAL166  LYS551  ARG553  GLY616  TRP617  ASP618  TYR619  PRO620  LYS621  CYS622 
 ASP623  PHE694  ASN695  SER759  ASP760  ASP761  ALA762  ILE779  LEU786  VAL792 
 PHE793  MET794  SER795  GLU796  ALA797  LYS798  CYS799  TRP800  GLU811  SER814 

> <Gold.Protein.RotatedAtoms>
  152.5418  134.0671  159.8177 H   0  0  0  0  0  0  0  0  0  0  0  0  # atno 6907 bound_to 6896
  151.0790  133.5397  159.2629 H   0  0  0  0  0  0  0  0  0  0  0  0  # atno 6908 bound_to 6896
  151.2232  135.0535  159.9012 H   0  0  0  0  0  0  0  0  0  0  0  0  # atno 6909 bound_to 6896
  145.2637  140.9277  143.3026 H   0  0  0  0  0  0  0  0  0  0  0  0  # atno 7974 bound_to 7965
  155.7085  140.3494  155.4963 H   0  0  0  0  0  0  0  0  0  0  0  0  # atno 8008 bound_to 7997
  155.9377  140.1096  157.1103 H   0  0  0  0  0  0  0  0  0  0  0  0  # atno 8009 bound_to 7997
  154.4096  140.1219  156.4872 H   0  0  0  0  0  0  0  0  0  0  0  0  # atno 8010 bound_to 7997
  140.7037  143.3159  151.2912 H   0  0  0  0  0  0  0  0  0  0  0  0  # atno 10167 bound_to 10162
  156.0032  130.4637  150.4118 H   0  0  0  0  0  0  0  0  0  0  0  0  # atno 10718 bound_to 10713
  153.1398  135.6757  153.9045 H   0  0  0  0  0  0  0  0  0  0  0  0  # atno 10763 bound_to 10752
  153.8505  135.3094  155.3433 H   0  0  0  0  0  0  0  0  0  0  0  0  # atno 10764 bound_to 10752
  154.7778  135.4905  153.9864 H   0  0  0  0  0  0  0  0  0  0  0  0  # atno 10765 bound_to 10752
  139.8869  134.8571  156.3186 H   0  0  0  0  0  0  0  0  0  0  0  0  # atno 11005 bound_to 11000
  144.9395  139.4205  143.6456 LP  0  0  0  0  0  0  0  0  0  0  0  0  # atno 17320 bound_to 7965
  146.3267  139.8348  142.8901 LP  0  0  0  0  0  0  0  0  0  0  0  0  # atno 17321 bound_to 7965
  139.6597  144.0212  152.2684 LP  0  0  0  0  0  0  0  0  0  0  0  0  # atno 17342 bound_to 10162
  139.9775  144.6451  150.7931 LP  0  0  0  0  0  0  0  0  0  0  0  0  # atno 17343 bound_to 10162
  157.2180  131.0476  151.2562 LP  0  0  0  0  0  0  0  0  0  0  0  0  # atno 17370 bound_to 10713
  157.3827  130.7240  149.6641 LP  0  0  0  0  0  0  0  0  0  0  0  0  # atno 17371 bound_to 10713
  140.9802  133.7272  156.0661 LP  0  0  0  0  0  0  0  0  0  0  0  0  # atno 17394 bound_to 11000
  140.7759  134.3780  157.5498 LP  0  0  0  0  0  0  0  0  0  0  0  0  # atno 17395 bound_to 11000

$$$$
