AV-unprocessed.smi:3148|AV-procd|sdf|11995|dock7
  -GOLD-   2272017403D 1   1.00000     0.00000
 Structure written by MMmdl.
 35 37  0  0  0  0  0  0  0  0  2 V2000
  153.6938  140.8483  160.3393 C   0  0  0  0  0  0  0  0  0  0  0  0
  152.5979  140.6059  159.4635 O   0  0  0  0  0  0  0  0  0  0  0  0
  152.0038  141.6867  158.8451 C   0  0  0  0  0  0  0  0  0  0  0  0
  152.3826  142.9889  159.2105 C   0  0  0  0  0  0  0  0  0  0  0  0
  151.7440  144.0524  158.5440 C   0  0  0  0  0  0  0  0  0  0  0  0
  152.0689  145.5003  158.8425 C   0  0  0  0  0  0  0  0  0  0  0  0
  150.8074  143.7967  157.5968 N   0  3  0  0  0  0  0  0  0  0  0  0
  150.4912  142.5292  157.2925 C   0  0  0  0  0  0  0  0  0  0  0  0
  149.5362  142.3247  156.3130 N   0  0  0  0  0  0  0  0  0  0  0  0
  149.0872  141.0099  155.8728 C   0  0  2  0  0  0  0  0  0  0  0  0
  150.2466  140.0549  155.5606 C   0  0  0  0  0  0  0  0  0  0  0  0
  149.9482  139.6598  154.1091 C   0  0  1  0  0  0  0  0  0  0  0  0
  148.6992  138.7756  153.9926 C   0  0  0  0  0  0  0  0  0  0  0  0
  147.5785  139.7822  154.2512 C   0  0  0  0  0  0  0  0  0  0  0  0
  148.3665  141.0724  154.5161 C   0  0  2  0  0  0  0  0  0  0  0  0
  149.4473  140.8895  153.6157 O   0  0  0  0  0  0  0  0  0  0  0  0
  151.0649  141.4772  157.8932 N   0  0  0  0  0  0  0  0  0  0  0  0
  154.0432  139.9014  160.7505 H   0  0  0  0  0  0  0  0  0  0  0  0
  153.4030  141.4848  161.1765 H   0  0  0  0  0  0  0  0  0  0  0  0
  154.5311  141.3094  159.8134 H   0  0  0  0  0  0  0  0  0  0  0  0
  153.1328  143.1614  159.9686 H   0  0  0  0  0  0  0  0  0  0  0  0
  152.7491  145.5845  159.6905 H   0  0  0  0  0  0  0  0  0  0  0  0
  151.1601  146.0542  159.0798 H   0  0  0  0  0  0  0  0  0  0  0  0
  152.5415  145.9672  157.9780 H   0  0  0  0  0  0  0  0  0  0  0  0
  149.2408  143.1275  155.7767 H   0  0  0  0  0  0  0  0  0  0  0  0
  148.4211  140.5933  156.6296 H   0  0  0  0  0  0  0  0  0  0  0  0
  151.2131  140.5579  155.6210 H   0  0  0  0  0  0  0  0  0  0  0  0
  150.2732  139.1941  156.2296 H   0  0  0  0  0  0  0  0  0  0  0  0
  150.8142  139.2780  153.5678 H   0  0  0  0  0  0  0  0  0  0  0  0
  148.6111  138.3548  152.9903 H   0  0  0  0  0  0  0  0  0  0  0  0
  148.7060  137.9540  154.7095 H   0  0  0  0  0  0  0  0  0  0  0  0
  146.9497  139.8886  153.3664 H   0  0  0  0  0  0  0  0  0  0  0  0
  146.9409  139.5014  155.0901 H   0  0  0  0  0  0  0  0  0  0  0  0
  147.7841  141.9797  154.3514 H   0  0  0  0  0  0  0  0  0  0  0  0
  150.3539  144.5759  157.1192 H   0  0  0  0  0  0  0  0  0  0  0  0
  1  2  1  0  0  0  0
  1 18  1  0  0  0  0
  1 19  1  0  0  0  0
  1 20  1  0  0  0  0
  2  3  1  0  0  0  0
  3 17  1  0  0  0  0
  3  4  2  0  0  0  0
  4  5  1  0  0  0  0
  4 21  1  0  0  0  0
  5  6  1  0  0  0  0
  5  7  2  0  0  0  0
  6 22  1  0  0  0  0
  6 23  1  0  0  0  0
  6 24  1  0  0  0  0
  7  8  1  0  0  0  0
  7 35  1  0  0  0  0
  8  9  1  0  0  0  0
  8 17  2  0  0  0  0
  9 10  1  0  0  0  0
  9 25  1  0  0  0  0
 10 15  1  0  0  0  0
 10 11  1  0  0  0  0
 10 26  1  0  0  0  0
 11 12  1  0  0  0  0
 11 27  1  0  0  0  0
 11 28  1  0  0  0  0
 12 16  1  0  0  0  0
 12 13  1  0  0  0  0
 12 29  1  0  0  0  0
 13 14  1  0  0  0  0
 13 30  1  0  0  0  0
 13 31  1  0  0  0  0
 14 15  1  0  0  0  0
 14 32  1  0  0  0  0
 14 33  1  0  0  0  0
 15 16  1  0  0  0  0
 15 34  1  0  0  0  0
M  CHG  1   7   1
M  END
> <s_m_source_file>
AV-unprocessed.smi

> <i_m_source_file_index>
3148

> <i_lp_mmshare_version>
43012

> <i_f3d_flags>
0

> <s_epik_input>
W0NIM11PYzFbY0hdYyhbQ0gzXSluYyhuMSlbTkhdW0NASF0oW0NIMl1bQ0BASF0yMylbQ0BASF0oTzMpW0NIMl1bQ0gyXTI=

> <s_epik_cmdline>
J2VwaWtfcHl0aG9uJywgJy1waCcsICc3LjAnLCAnLXRuJywgJzgnLCAnLW1hJywgJzIwMCcsICctbWV0YWxfYmluZGluZycsICctaW1hZScsICc8aW5maWxlLm1hZT4nLCAnLW9tYWUnLCAnPG91dGZpbGUubWFlPic=

> <r_lp_tautomer_probability>
0.999985

> <r_epik_Ionization_Penalty>
1.09461

> <r_epik_Ionization_Penalty_Charging>
1.0946

> <r_epik_Ionization_Penalty_Neutral>
6.69406e-06

> <r_epik_State_Penalty>
1.15119

> <r_epik_Charging_Adjusted_Penalty>
2.24579

> <i_epik_Tot_Q>
1

> <i_epik_Tot_abs_Q>
1

> <r_epik_Metal_State_Penalty>
1.2392

> <b_epik_Metal_Only>
0

> <s_lp_Force_Field>
OPLS_2005

> <r_lp_Energy>
35.8621

> <b_lp_Chiralities_Consistent>
1

> <s_lp_Variant>
AV-unprocessed.smi:3148-5

> <Gold.Version>
5.8.1

> <Gold.Id.Protein>
6NUR|6NUR_protein|mol2

> <Gold.PLP.Fitness>
42.7012

> <Gold.PLP.PLP>
-29.8628

> <Gold.PLP.part.hbond>
-4.0000

> <Gold.PLP.part.metal>
0.0000

> <Gold.PLP.part.buried>
-1.0052

> <Gold.PLP.part.nonpolar>
-28.0934

> <Gold.PLP.part.repulsive>
3.5725

> <Gold.PLP.ligand.clash>
0.0000

> <Gold.PLP.ligand.torsion>
0.2300

> <Gold.PLP.Chemscore.Hbond>
4.4265

> <Gold.PLP.Chemscore.CHOScore>
0.0000

> <Gold.PLP.Chemscore.Metal>
0.0000

> <Gold.Chemscore.Hbonds>
donor molecule, donor type, donor heavy atom, donor atom, acceptor molecule, acceptor atom, score
      L1  H     7    35       P1  8028  1.40
      L1  H     9    25       P1  8028  2.00
      P1  H  8011  8017       L1    16  1.00

> <Gold.PLP.Chemscore.Internal.Correction>
0.0190

> <Gold.Rescore>
     Score         DG    S(hbond)    S(metal)    S(lipo)     H(rot)  DE(clash)    DE(int)     intcor
     16.22     -20.25       2.45        0.00      83.37       1.24       2.71       1.33       ----

> <Gold.Chemscore.Fitness>
16.2186

> <Gold.Chemscore.DG>
-20.2506

> <Gold.Chemscore.ZeroCoef>
-5.4800

> <Gold.Chemscore.Hbond>
2.4503

> <Gold.Chemscore.Metal>
0.0000

> <Gold.Chemscore.Lipo>
83.3735

> <Gold.Chemscore.Internal_Hbond>
0.0000

> <Gold.Chemscore.DEClash>
2.7065

> <Gold.Chemscore.DEInternal>
1.3255

> <Gold.Chemscore.Rot>
1.2376

> <Gold.Chemscore.Internal.Correction>
   9.000000E+99

> <Gold.Chemscore.Hbonds>
donor molecule, donor type, donor heavy atom, donor atom, acceptor molecule, acceptor atom, score
      L1  H     7    35       P1  8028  0.43
      L1  H     9    25       P1  8028  0.96
      P1  H  8011  8017       L1    16  0.85

> <Gold.Chemscore.Hbond.Weighted>
-8.1840

> <Gold.Chemscore.Metal.Weighted>
-0.0000

> <Gold.Chemscore.Lipo.Weighted>
-9.7547

> <Gold.Chemscore.Internal_Hbond.Weighted>
0.0000

> <Gold.Chemscore.DEClash.Weighted>
2.7065

> <Gold.Chemscore.DEInternal.Weighted>
1.3255

> <Gold.Chemscore.Rot.Weighted>
3.1681

> <Gold.Chemscore.Internal.Correction.Weighted>
   9.000000E+99

> <Gold.Protein.RotatedTorsions>
[ 6907 6896 6895 6894 ] final -127.76 input  -60.11 | X-H torsion
[ 7974 7965 7964 7962 ] final  160.33 input  175.53 | X-H torsion
[ 8008 7997 7996 7995 ] final  -14.26 input   59.86 | X-H torsion
[ 10167 10162 10161 10158 ] final  143.32 input  -65.29 | X-H torsion
[ 10718 10713 10712 10709 ] final -148.32 input   66.30 | X-H torsion
[ 10763 10752 10751 10750 ] final -147.98 input  -60.55 | X-H torsion
[ 11005 11000 10999 10996 ] final  127.09 input  -57.11 | X-H torsion

> <Gold.Protein.ActiveResidues>
 VAL166  LYS551  ARG553  GLY616  TRP617  ASP618  TYR619  PRO620  LYS621  CYS622 
 ASP623  PHE694  ASN695  SER759  ASP760  ASP761  ALA762  ILE779  LEU786  VAL792 
 PHE793  MET794  SER795  GLU796  ALA797  LYS798  CYS799  TRP800  GLU811  SER814 

> <Gold.Protein.RotatedAtoms>
  150.9107  133.7002  159.2855 H   0  0  0  0  0  0  0  0  0  0  0  0  # atno 6907 bound_to 6896
  151.4489  135.1026  159.9701 H   0  0  0  0  0  0  0  0  0  0  0  0  # atno 6908 bound_to 6896
  152.4928  133.8497  159.7250 H   0  0  0  0  0  0  0  0  0  0  0  0  # atno 6909 bound_to 6896
  144.7742  139.7742  143.6285 H   0  0  0  0  0  0  0  0  0  0  0  0  # atno 7974 bound_to 7965
  154.5224  140.2227  155.8951 H   0  0  0  0  0  0  0  0  0  0  0  0  # atno 8008 bound_to 7997
  156.1677  140.3128  155.8882 H   0  0  0  0  0  0  0  0  0  0  0  0  # atno 8009 bound_to 7997
  155.3623  140.0462  157.3037 H   0  0  0  0  0  0  0  0  0  0  0  0  # atno 8010 bound_to 7997
  139.4972  144.6048  151.6402 H   0  0  0  0  0  0  0  0  0  0  0  0  # atno 10167 bound_to 10162
  156.4188  130.8018  151.2240 H   0  0  0  0  0  0  0  0  0  0  0  0  # atno 10718 bound_to 10713
  154.8257  135.3346  154.6903 H   0  0  0  0  0  0  0  0  0  0  0  0  # atno 10763 bound_to 10752
  153.7529  135.6938  153.4946 H   0  0  0  0  0  0  0  0  0  0  0  0  # atno 10764 bound_to 10752
  153.2163  135.4464  155.0389 H   0  0  0  0  0  0  0  0  0  0  0  0  # atno 10765 bound_to 10752
  139.9489  134.9625  156.8804 H   0  0  0  0  0  0  0  0  0  0  0  0  # atno 11005 bound_to 11000
  146.1911  139.5152  142.9804 LP  0  0  0  0  0  0  0  0  0  0  0  0  # atno 17320 bound_to 7965
  145.6233  141.0318  143.1903 LP  0  0  0  0  0  0  0  0  0  0  0  0  # atno 17321 bound_to 7965
  140.5707  144.0113  150.6215 LP  0  0  0  0  0  0  0  0  0  0  0  0  # atno 17342 bound_to 10162
  140.3230  143.3125  152.0765 LP  0  0  0  0  0  0  0  0  0  0  0  0  # atno 17343 bound_to 10162
  157.7508  131.0235  150.3835 LP  0  0  0  0  0  0  0  0  0  0  0  0  # atno 17370 bound_to 10713
  156.4148  130.3941  149.6866 LP  0  0  0  0  0  0  0  0  0  0  0  0  # atno 17371 bound_to 10713
  140.5766  134.0392  155.7449 LP  0  0  0  0  0  0  0  0  0  0  0  0  # atno 17394 bound_to 11000
  141.1147  133.9559  157.2844 LP  0  0  0  0  0  0  0  0  0  0  0  0  # atno 17395 bound_to 11000

$$$$
