AV-unprocessed.smi:249|AV-procd|sdf|1927|dock1
  -GOLD-   2262021 43D 1   1.00000     0.00000
 Structure written by MMmdl.
 64 67  0  0  0  0  0  0  0  0  2 V2000
  146.6475  128.3807  151.6879 C   0  0  0  0  0  0  0  0  0  0  0  0
  146.3947  129.6277  152.5515 C   0  0  0  0  0  0  0  0  0  0  0  0
  146.7458  130.9082  151.8709 N   0  3  1  0  0  0  0  0  0  0  0  0
  145.6441  131.3850  150.9852 C   0  0  0  0  0  0  0  0  0  0  0  0
  146.0240  132.6609  150.2177 C   0  0  0  0  0  0  0  0  0  0  0  0
  146.4046  133.8015  151.1761 C   0  0  1  0  0  0  0  0  0  0  0  0
  145.2540  134.2807  151.9596 N   0  0  0  0  0  0  0  0  0  0  0  0
  144.1337  134.8541  151.2203 C   0  0  0  0  0  0  0  0  0  0  0  0
  145.5579  135.0534  153.0262 C   0  0  0  0  0  0  0  0  0  0  0  0
  145.5183  134.4689  154.2485 N   0  0  0  0  0  0  0  0  0  0  0  0
  145.8186  135.1830  155.3379 C   0  0  0  0  0  0  0  0  0  0  0  0
  146.1740  136.4671  155.4232 N   0  0  0  0  0  0  0  0  0  0  0  0
  146.2060  137.0567  154.1934 C   0  0  0  0  0  0  0  0  0  0  0  0
  145.9128  136.4291  152.9510 C   0  0  0  0  0  0  0  0  0  0  0  0
  146.0465  137.3421  151.9122 N   0  0  0  0  0  0  0  0  0  0  0  0
  146.3955  138.4501  152.5078 C   0  0  0  0  0  0  0  0  0  0  0  0
  146.5127  138.3682  153.8768 N   0  0  0  0  0  0  0  0  0  0  0  0
  146.8813  139.4429  154.7801 C   0  0  0  0  0  0  0  0  0  0  0  0
  147.5603  140.6470  154.0701 C   0  0  1  0  0  0  0  0  0  0  0  0
  146.9329  142.0141  154.4391 C   0  0  0  0  0  0  0  0  0  0  0  0
  147.7065  143.0987  153.9680 O   0  0  0  0  0  0  0  0  0  0  0  0
  149.0978  140.6957  154.2773 C   0  0  1  0  0  0  0  0  0  0  0  0
  149.6009  141.3723  155.5516 C   0  0  0  0  0  0  0  0  0  0  0  0
  150.8517  140.5714  155.9288 C   0  0  0  0  0  0  0  0  0  0  0  0
  151.0950  139.7073  154.8265 O   0  0  0  0  0  0  0  0  0  0  0  0
  149.8346  139.3552  154.2824 C   0  0  0  0  0  0  0  0  0  0  0  0
  147.5697  133.2727  152.0407 C   0  0  0  0  0  0  0  0  0  0  0  0
  147.2094  131.9808  152.8108 C   0  0  2  0  0  0  0  0  0  0  0  0
  148.4279  131.5593  153.6581 C   0  0  0  0  0  0  0  0  0  0  0  0
  146.5372  127.4766  152.2867 H   0  0  0  0  0  0  0  0  0  0  0  0
  147.6573  128.3805  151.2766 H   0  0  0  0  0  0  0  0  0  0  0  0
  145.9411  128.2978  150.8624 H   0  0  0  0  0  0  0  0  0  0  0  0
  145.3556  129.6558  152.8824 H   0  0  0  0  0  0  0  0  0  0  0  0
  147.0013  129.4970  153.4446 H   0  0  0  0  0  0  0  0  0  0  0  0
  145.3924  130.6248  150.2476 H   0  0  0  0  0  0  0  0  0  0  0  0
  144.7450  131.5543  151.5798 H   0  0  0  0  0  0  0  0  0  0  0  0
  146.8690  132.4440  149.5628 H   0  0  0  0  0  0  0  0  0  0  0  0
  145.2122  132.9577  149.5536 H   0  0  0  0  0  0  0  0  0  0  0  0
  146.7677  134.6381  150.5784 H   0  0  0  0  0  0  0  0  0  0  0  0
  143.4677  135.4292  151.8663 H   0  0  0  0  0  0  0  0  0  0  0  0
  143.5379  134.0629  150.7654 H   0  0  0  0  0  0  0  0  0  0  0  0
  144.4903  135.5136  150.4282 H   0  0  0  0  0  0  0  0  0  0  0  0
  145.7675  134.6494  156.2755 H   0  0  0  0  0  0  0  0  0  0  0  0
  146.5736  139.3656  151.9628 H   0  0  0  0  0  0  0  0  0  0  0  0
  145.9842  139.7583  155.3113 H   0  0  0  0  0  0  0  0  0  0  0  0
  147.5440  139.0126  155.5295 H   0  0  0  0  0  0  0  0  0  0  0  0
  147.4148  140.5088  152.9973 H   0  0  0  0  0  0  0  0  0  0  0  0
  145.9166  142.0920  154.0514 H   0  0  0  0  0  0  0  0  0  0  0  0
  146.8651  142.1257  155.5217 H   0  0  0  0  0  0  0  0  0  0  0  0
  147.8639  143.6903  154.6882 H   0  0  0  0  0  0  0  0  0  0  0  0
  149.5201  141.2556  153.4409 H   0  0  0  0  0  0  0  0  0  0  0  0
  149.8389  142.4198  155.3627 H   0  0  0  0  0  0  0  0  0  0  0  0
  148.8782  141.3448  156.3662 H   0  0  0  0  0  0  0  0  0  0  0  0
  151.7142  141.2090  156.1237 H   0  0  0  0  0  0  0  0  0  0  0  0
  150.6654  139.9706  156.8201 H   0  0  0  0  0  0  0  0  0  0  0  0
  149.3684  138.6164  154.9340 H   0  0  0  0  0  0  0  0  0  0  0  0
  149.9335  138.9245  153.2856 H   0  0  0  0  0  0  0  0  0  0  0  0
  148.4226  133.0702  151.3907 H   0  0  0  0  0  0  0  0  0  0  0  0
  147.9192  134.0411  152.7309 H   0  0  0  0  0  0  0  0  0  0  0  0
  146.3894  132.2027  153.4951 H   0  0  0  0  0  0  0  0  0  0  0  0
  148.8305  132.4095  154.2099 H   0  0  0  0  0  0  0  0  0  0  0  0
  149.2305  131.1645  153.0344 H   0  0  0  0  0  0  0  0  0  0  0  0
  148.1752  130.8104  154.4077 H   0  0  0  0  0  0  0  0  0  0  0  0
  147.5308  130.7061  151.2682 H   0  0  0  0  0  0  0  0  0  0  0  0
  1  2  1  0  0  0  0
  1 30  1  0  0  0  0
  1 31  1  0  0  0  0
  1 32  1  0  0  0  0
  2  3  1  0  0  0  0
  2 33  1  0  0  0  0
  2 34  1  0  0  0  0
  3 28  1  0  0  0  0
  3  4  1  0  0  0  0
  3 64  1  0  0  0  0
  4  5  1  0  0  0  0
  4 35  1  0  0  0  0
  4 36  1  0  0  0  0
  5  6  1  0  0  0  0
  5 37  1  0  0  0  0
  5 38  1  0  0  0  0
  6  7  1  0  0  0  0
  6 27  1  0  0  0  0
  6 39  1  0  0  0  0
  7  8  1  0  0  0  0
  7  9  1  0  0  0  0
  8 40  1  0  0  0  0
  8 41  1  0  0  0  0
  8 42  1  0  0  0  0
  9 14  1  0  0  0  0
  9 10  2  0  0  0  0
 10 11  1  0  0  0  0
 11 12  2  0  0  0  0
 11 43  1  0  0  0  0
 12 13  1  0  0  0  0
 13 17  1  0  0  0  0
 13 14  2  0  0  0  0
 14 15  1  0  0  0  0
 15 16  2  0  0  0  0
 16 17  1  0  0  0  0
 16 44  1  0  0  0  0
 17 18  1  0  0  0  0
 18 19  1  0  0  0  0
 18 45  1  0  0  0  0
 18 46  1  0  0  0  0
 19 20  1  0  0  0  0
 19 22  1  0  0  0  0
 19 47  1  0  0  0  0
 20 21  1  0  0  0  0
 20 48  1  0  0  0  0
 20 49  1  0  0  0  0
 21 50  1  0  0  0  0
 22 26  1  0  0  0  0
 22 23  1  0  0  0  0
 22 51  1  0  0  0  0
 23 24  1  0  0  0  0
 23 52  1  0  0  0  0
 23 53  1  0  0  0  0
 24 25  1  0  0  0  0
 24 54  1  0  0  0  0
 24 55  1  0  0  0  0
 25 26  1  0  0  0  0
 26 56  1  0  0  0  0
 26 57  1  0  0  0  0
 27 28  1  0  0  0  0
 27 58  1  0  0  0  0
 27 59  1  0  0  0  0
 28 29  1  0  0  0  0
 28 60  1  0  0  0  0
 29 61  1  0  0  0  0
 29 62  1  0  0  0  0
 29 63  1  0  0  0  0
M  CHG  1   3   1
M  END
> <s_m_source_file>
AV-unprocessed.smi

> <i_m_source_file_index>
249

> <i_lp_mmshare_version>
43012

> <i_f3d_flags>
0

> <s_epik_input>
W0NIM11bQ0gyXU4xW0NIMl1bQ0gyXVtDQEhdKFtDSDJdW0NASF0xW0NIM10pTihbQ0gzXSljKG5bY0hdbjIpYyhjMjMpbltjSF1uM1tDSDJdW0NASF0oW0NIMl1bT0hdKVtDQEBIXTRbQ0gyXVtDSDJdT1tDSDJdNA==

> <s_epik_cmdline>
J2VwaWtfcHl0aG9uJywgJy1waCcsICc3LjAnLCAnLXRuJywgJzgnLCAnLW1hJywgJzIwMCcsICctbWV0YWxfYmluZGluZycsICctaW1hZScsICc8aW5maWxlLm1hZT4nLCAnLW9tYWUnLCAnPG91dGZpbGUubWFlPic=

> <r_lp_tautomer_probability>
1

> <r_epik_Ionization_Penalty>
0.00294688

> <r_epik_Ionization_Penalty_Charging>
0.00169971

> <r_epik_Ionization_Penalty_Neutral>
0.00124717

> <r_epik_State_Penalty>
-0

> <r_epik_Charging_Adjusted_Penalty>
0.00169971

> <i_epik_Tot_Q>
1

> <i_epik_Tot_abs_Q>
1

> <r_epik_Metal_State_Penalty>
-0

> <b_epik_Metal_Only>
0

> <s_lp_Force_Field>
OPLS_2005

> <r_lp_Energy>
57.5801

> <b_lp_Chiralities_Consistent>
1

> <s_lp_Variant>
AV-unprocessed.smi:249-30

> <Gold.Version>
5.8.1

> <Gold.Id.Protein>
6NUR|6NUR_protein|mol2

> <Gold.PLP.Fitness>
52.7221

> <Gold.PLP.PLP>
-47.0722

> <Gold.PLP.part.hbond>
-5.0000

> <Gold.PLP.part.metal>
0.0000

> <Gold.PLP.part.buried>
-2.3517

> <Gold.PLP.part.nonpolar>
-41.1642

> <Gold.PLP.part.repulsive>
0.6531

> <Gold.PLP.ligand.clash>
0.0000

> <Gold.PLP.ligand.torsion>
2.0554

> <Gold.PLP.Chemscore.Hbond>
3.0000

> <Gold.PLP.Chemscore.CHOScore>
0.0000

> <Gold.PLP.Chemscore.Metal>
0.0000

> <Gold.Chemscore.Hbonds>
donor molecule, donor type, donor heavy atom, donor atom, acceptor molecule, acceptor atom, score
      L1  H     3    64       P1 10747  1.00
      L1  H    21    50       P1  8028  1.00
      P1  H  7989  7998       L1    25  0.90

> <Gold.PLP.Chemscore.Internal.Correction>
0.7607

> <Gold.Rescore>
     Score         DG    S(hbond)    S(metal)    S(lipo)     H(rot)  DE(clash)    DE(int)     intcor
     15.62     -18.26       1.98        0.00     116.13       2.90       0.72       1.92       ----

> <Gold.Chemscore.Fitness>
15.6226

> <Gold.Chemscore.DG>
-18.2591

> <Gold.Chemscore.ZeroCoef>
-5.4800

> <Gold.Chemscore.Hbond>
1.9812

> <Gold.Chemscore.Metal>
0.0000

> <Gold.Chemscore.Lipo>
116.1337

> <Gold.Chemscore.Internal_Hbond>
0.0000

> <Gold.Chemscore.DEClash>
0.7181

> <Gold.Chemscore.DEInternal>
1.9184

> <Gold.Chemscore.Rot>
2.9006

> <Gold.Chemscore.Internal.Correction>
   9.000000E+99

> <Gold.Chemscore.Hbonds>
donor molecule, donor type, donor heavy atom, donor atom, acceptor molecule, acceptor atom, score
      L1  H     3    64       P1 10747  1.00
      L1  H    21    50       P1  8028  0.44
      P1  H  7989  7998       L1    25  0.07

> <Gold.Chemscore.Hbond.Weighted>
-6.6171

> <Gold.Chemscore.Metal.Weighted>
-0.0000

> <Gold.Chemscore.Lipo.Weighted>
-13.5876

> <Gold.Chemscore.Internal_Hbond.Weighted>
0.0000

> <Gold.Chemscore.DEClash.Weighted>
0.7181

> <Gold.Chemscore.DEInternal.Weighted>
1.9184

> <Gold.Chemscore.Rot.Weighted>
7.4256

> <Gold.Chemscore.Internal.Correction.Weighted>
   9.000000E+99

> <Gold.Protein.RotatedTorsions>
[ 6907 6896 6895 6894 ] final  156.19 input  -60.11 | X-H torsion
[ 7974 7965 7964 7962 ] final -100.43 input  175.53 | X-H torsion
[ 8008 7997 7996 7995 ] final -172.31 input   59.86 | X-H torsion
[ 10167 10162 10161 10158 ] final  127.48 input  -65.29 | X-H torsion
[ 10718 10713 10712 10709 ] final -169.70 input   66.30 | X-H torsion
[ 10763 10752 10751 10750 ] final   95.28 input  -60.55 | X-H torsion
[ 11005 11000 10999 10996 ] final -170.59 input  -57.11 | X-H torsion

> <Gold.Protein.ActiveResidues>
 VAL166  LYS551  ARG553  GLY616  TRP617  ASP618  TYR619  PRO620  LYS621  CYS622 
 ASP623  PHE694  ASN695  SER759  ASP760  ASP761  ALA762  ILE779  LEU786  VAL792 
 PHE793  MET794  SER795  GLU796  ALA797  LYS798  CYS799  TRP800  GLU811  SER814 

> <Gold.Protein.RotatedAtoms>
  152.0333  133.3946  159.4306 H   0  0  0  0  0  0  0  0  0  0  0  0  # atno 6907 bound_to 6896
  150.6880  134.3496  159.4912 H   0  0  0  0  0  0  0  0  0  0  0  0  # atno 6908 bound_to 6896
  152.1285  134.9152  160.0610 H   0  0  0  0  0  0  0  0  0  0  0  0  # atno 6909 bound_to 6896
  145.2947  140.9362  143.2858 H   0  0  0  0  0  0  0  0  0  0  0  0  # atno 7974 bound_to 7965
  155.9429  140.1112  157.1040 H   0  0  0  0  0  0  0  0  0  0  0  0  # atno 8008 bound_to 7997
  154.4093  140.1215  156.5017 H   0  0  0  0  0  0  0  0  0  0  0  0  # atno 8009 bound_to 7997
  155.6939  140.3472  155.4907 H   0  0  0  0  0  0  0  0  0  0  0  0  # atno 8010 bound_to 7997
  139.5576  144.6860  151.4136 H   0  0  0  0  0  0  0  0  0  0  0  0  # atno 10167 bound_to 10162
  156.7153  130.9249  151.3093 H   0  0  0  0  0  0  0  0  0  0  0  0  # atno 10718 bound_to 10713
  153.2513  135.4260  155.0800 H   0  0  0  0  0  0  0  0  0  0  0  0  # atno 10763 bound_to 10752
  154.8383  135.3426  154.6508 H   0  0  0  0  0  0  0  0  0  0  0  0  # atno 10764 bound_to 10752
  153.6930  135.7032  153.5141 H   0  0  0  0  0  0  0  0  0  0  0  0  # atno 10765 bound_to 10752
  140.5177  134.5739  157.5038 H   0  0  0  0  0  0  0  0  0  0  0  0  # atno 11005 bound_to 11000
  144.9143  139.4489  143.6572 LP  0  0  0  0  0  0  0  0  0  0  0  0  # atno 17320 bound_to 7965
  146.3173  139.7969  142.8973 LP  0  0  0  0  0  0  0  0  0  0  0  0  # atno 17321 bound_to 7965
  140.6851  143.7992  150.7175 LP  0  0  0  0  0  0  0  0  0  0  0  0  # atno 17342 bound_to 10162
  140.1457  143.4402  152.2164 LP  0  0  0  0  0  0  0  0  0  0  0  0  # atno 17343 bound_to 10162
  157.6920  130.9243  150.0539 LP  0  0  0  0  0  0  0  0  0  0  0  0  # atno 17370 bound_to 10713
  156.1632  130.3644  149.9269 LP  0  0  0  0  0  0  0  0  0  0  0  0  # atno 17371 bound_to 10713
  139.9623  134.7432  156.0211 LP  0  0  0  0  0  0  0  0  0  0  0  0  # atno 17394 bound_to 11000
  141.1351  133.6577  156.3571 LP  0  0  0  0  0  0  0  0  0  0  0  0  # atno 17395 bound_to 11000

$$$$
