AV-unprocessed.smi:2336|AV-procd|sdf|9332|dock10
  -GOLD-   2272012553D 1   1.00000     0.00000
 Structure written by MMmdl.
 49 50  0  0  0  0  0  0  0  0  1 V2000
  156.1953  137.0883  164.5752 C   0  0  0  0  0  0  0  0  0  0  0  0
  154.8219  137.1173  163.8805 C   0  0  0  0  0  0  0  0  0  0  0  0
  153.7048  136.7498  164.8756 C   0  0  0  0  0  0  0  0  0  0  0  0
  154.7839  136.3239  162.5288 C   0  0  1  0  0  0  0  0  0  0  0  0
  155.4533  137.1249  161.3731 C   0  0  0  0  0  0  0  0  0  0  0  0
  155.2682  138.5655  161.5204 N   0  0  0  0  0  0  0  0  0  0  0  0
  154.2581  139.2808  161.0089 C   0  0  0  0  0  0  0  0  0  0  0  0
  153.3670  138.7989  160.3097 O   0  0  0  0  0  0  0  0  0  0  0  0
  154.3656  140.5749  161.3537 N   0  0  0  0  0  0  0  0  0  0  0  0
  153.4803  141.6511  161.0737 C   0  0  0  0  0  0  0  0  0  0  0  0
  152.7818  141.8102  159.8521 C   0  0  0  0  0  0  0  0  0  0  0  0
  151.9126  142.9107  159.7107 C   0  0  0  0  0  0  0  0  0  0  0  0
  151.7022  143.8229  160.6832 N   0  0  0  0  0  0  0  0  0  0  0  0
  152.3606  143.6611  161.8502 C   0  0  0  0  0  0  0  0  0  0  0  0
  153.2509  142.5967  162.0955 C   0  0  0  0  0  0  0  0  0  0  0  0
  153.8755  142.4899  163.2934 F   0  0  0  0  0  0  0  0  0  0  0  0
  155.2678  134.9217  162.6237 N   0  0  0  0  0  0  0  0  0  0  0  0
  155.0942  134.1807  161.3630 C   0  0  0  0  0  0  0  0  0  0  0  0
  155.6184  132.7358  161.4528 C   0  0  0  0  0  0  0  0  0  0  0  0
  154.9417  131.9890  162.5068 N   0  0  0  0  0  0  0  0  0  0  0  0
  155.4259  130.6196  162.5877 C   0  0  0  0  0  0  0  0  0  0  0  0
  155.1266  132.6991  163.7669 C   0  0  0  0  0  0  0  0  0  0  0  0
  154.6034  134.1451  163.6830 C   0  0  0  0  0  0  0  0  0  0  0  0
  156.4035  136.1233  165.0368 H   0  0  0  0  0  0  0  0  0  0  0  0
  156.2410  137.8345  165.3690 H   0  0  0  0  0  0  0  0  0  0  0  0
  156.9991  137.3104  163.8730 H   0  0  0  0  0  0  0  0  0  0  0  0
  154.6898  138.1707  163.6402 H   0  0  0  0  0  0  0  0  0  0  0  0
  153.8552  135.7628  165.3105 H   0  0  0  0  0  0  0  0  0  0  0  0
  152.7221  136.7639  164.4045 H   0  0  0  0  0  0  0  0  0  0  0  0
  153.6776  137.4605  165.7020 H   0  0  0  0  0  0  0  0  0  0  0  0
  153.7262  136.2719  162.2649 H   0  0  0  0  0  0  0  0  0  0  0  0
  156.5245  136.9277  161.3450 H   0  0  0  0  0  0  0  0  0  0  0  0
  155.1019  136.7799  160.4022 H   0  0  0  0  0  0  0  0  0  0  0  0
  155.9551  139.0479  162.0820 H   0  0  0  0  0  0  0  0  0  0  0  0
  155.2035  140.8309  161.8556 H   0  0  0  0  0  0  0  0  0  0  0  0
  152.8814  141.1134  159.0346 H   0  0  0  0  0  0  0  0  0  0  0  0
  151.3649  143.0578  158.7915 H   0  0  0  0  0  0  0  0  0  0  0  0
  152.1700  144.4008  162.6137 H   0  0  0  0  0  0  0  0  0  0  0  0
  154.0412  134.1724  161.0765 H   0  0  0  0  0  0  0  0  0  0  0  0
  155.6360  134.6650  160.5529 H   0  0  0  0  0  0  0  0  0  0  0  0
  155.4672  132.2377  160.4946 H   0  0  0  0  0  0  0  0  0  0  0  0
  156.6949  132.7473  161.6320 H   0  0  0  0  0  0  0  0  0  0  0  0
  154.9003  130.0699  163.3691 H   0  0  0  0  0  0  0  0  0  0  0  0
  156.4934  130.5906  162.8109 H   0  0  0  0  0  0  0  0  0  0  0  0
  155.2615  130.0959  161.6454 H   0  0  0  0  0  0  0  0  0  0  0  0
  154.6027  132.1729  164.5655 H   0  0  0  0  0  0  0  0  0  0  0  0
  156.1831  132.7084  164.0405 H   0  0  0  0  0  0  0  0  0  0  0  0
  154.7814  134.5942  164.6579 H   0  0  0  0  0  0  0  0  0  0  0  0
  153.5239  134.1409  163.5251 H   0  0  0  0  0  0  0  0  0  0  0  0
  1  2  1  0  0  0  0
  1 24  1  0  0  0  0
  1 25  1  0  0  0  0
  1 26  1  0  0  0  0
  2  3  1  0  0  0  0
  2  4  1  0  0  0  0
  2 27  1  0  0  0  0
  3 28  1  0  0  0  0
  3 29  1  0  0  0  0
  3 30  1  0  0  0  0
  4  5  1  0  0  0  0
  4 17  1  0  0  0  0
  4 31  1  0  0  0  0
  5  6  1  0  0  0  0
  5 32  1  0  0  0  0
  5 33  1  0  0  0  0
  6  7  1  0  0  0  0
  6 34  1  0  0  0  0
  7  8  2  0  0  0  0
  7  9  1  0  0  0  0
  9 10  1  0  0  0  0
  9 35  1  0  0  0  0
 10 15  1  0  0  0  0
 10 11  2  0  0  0  0
 11 12  1  0  0  0  0
 11 36  1  0  0  0  0
 12 13  2  0  0  0  0
 12 37  1  0  0  0  0
 13 14  1  0  0  0  0
 14 15  2  0  0  0  0
 14 38  1  0  0  0  0
 15 16  1  0  0  0  0
 17 23  1  0  0  0  0
 17 18  1  0  0  0  0
 18 19  1  0  0  0  0
 18 39  1  0  0  0  0
 18 40  1  0  0  0  0
 19 20  1  0  0  0  0
 19 41  1  0  0  0  0
 19 42  1  0  0  0  0
 20 21  1  0  0  0  0
 20 22  1  0  0  0  0
 21 43  1  0  0  0  0
 21 44  1  0  0  0  0
 21 45  1  0  0  0  0
 22 23  1  0  0  0  0
 22 46  1  0  0  0  0
 22 47  1  0  0  0  0
 23 48  1  0  0  0  0
 23 49  1  0  0  0  0
M  END
> <s_m_source_file>
AV-unprocessed.smi

> <i_m_source_file_index>
2336

> <i_lp_mmshare_version>
43012

> <i_f3d_flags>
0

> <s_epik_input>
W0NIMl0xW0NIMl1OKFtDSDNdKVtDSDJdW0NIMl1OMVtDQEhdKFtDSF0oW0NIM10pW0NIM10pW0NIMl1bTkhdQyg9TylbTkhdYzJbY0hdW2NIXW5bY0hdYzJG

> <s_epik_cmdline>
J2VwaWtfcHl0aG9uJywgJy1waCcsICc3LjAnLCAnLXRuJywgJzgnLCAnLW1hJywgJzIwMCcsICctbWV0YWxfYmluZGluZycsICctaW1hZScsICc8aW5maWxlLm1hZT4nLCAnLW9tYWUnLCAnPG91dGZpbGUubWFlPic=

> <r_epik_Ionization_Penalty>
2.58102

> <r_epik_Ionization_Penalty_Charging>
0

> <r_epik_Ionization_Penalty_Neutral>
2.58102

> <r_epik_State_Penalty>
2.00874

> <r_epik_Charging_Adjusted_Penalty>
2.00874

> <i_epik_Tot_Q>
0

> <i_epik_Tot_abs_Q>
0

> <r_epik_Metal_State_Penalty>
2.00867

> <b_epik_Metal_Only>
0

> <s_lp_Force_Field>
OPLS_2005

> <r_lp_Energy>
52.4608

> <b_lp_Chiralities_Consistent>
1

> <s_lp_Variant>
AV-unprocessed.smi:2336-6

> <Gold.Version>
5.8.1

> <Gold.Id.Protein>
6NUR|6NUR_protein|mol2

> <Gold.PLP.Fitness>
40.0315

> <Gold.PLP.PLP>
-41.8016

> <Gold.PLP.part.hbond>
0.0000

> <Gold.PLP.part.metal>
0.0000

> <Gold.PLP.part.buried>
-5.6888

> <Gold.PLP.part.nonpolar>
-35.7550

> <Gold.PLP.part.repulsive>
0.1011

> <Gold.PLP.ligand.clash>
0.0000

> <Gold.PLP.ligand.torsion>
1.0274

> <Gold.PLP.Chemscore.Hbond>
0.0000

> <Gold.PLP.Chemscore.CHOScore>
0.0000

> <Gold.PLP.Chemscore.Metal>
0.0000

> <Gold.PLP.Chemscore.Internal.Correction>
0.2846

> <Gold.Rescore>
     Score         DG    S(hbond)    S(metal)    S(lipo)     H(rot)  DE(clash)    DE(int)     intcor
     12.81     -14.00       0.00        0.00     108.40       1.63       0.04       1.14       ----

> <Gold.Chemscore.Fitness>
12.8140

> <Gold.Chemscore.DG>
-13.9963

> <Gold.Chemscore.ZeroCoef>
-5.4800

> <Gold.Chemscore.Hbond>
0.0000

> <Gold.Chemscore.Metal>
0.0000

> <Gold.Chemscore.Lipo>
108.4035

> <Gold.Chemscore.Internal_Hbond>
0.0000

> <Gold.Chemscore.DEClash>
0.0396

> <Gold.Chemscore.DEInternal>
1.1426

> <Gold.Chemscore.Rot>
1.6277

> <Gold.Chemscore.Internal.Correction>
   9.000000E+99

> <Gold.Chemscore.Hbond.Weighted>
-0.0000

> <Gold.Chemscore.Metal.Weighted>
-0.0000

> <Gold.Chemscore.Lipo.Weighted>
-12.6832

> <Gold.Chemscore.Internal_Hbond.Weighted>
0.0000

> <Gold.Chemscore.DEClash.Weighted>
0.0396

> <Gold.Chemscore.DEInternal.Weighted>
1.1426

> <Gold.Chemscore.Rot.Weighted>
4.1670

> <Gold.Chemscore.Internal.Correction.Weighted>
   9.000000E+99

> <Gold.Protein.RotatedTorsions>
[ 6907 6896 6895 6894 ] final   72.85 input  -60.11 | X-H torsion
[ 7974 7965 7964 7962 ] final  134.34 input  175.53 | X-H torsion
[ 8008 7997 7996 7995 ] final  -67.85 input   59.86 | X-H torsion
[ 10167 10162 10161 10158 ] final -107.20 input  -65.29 | X-H torsion
[ 10718 10713 10712 10709 ] final   54.74 input   66.30 | X-H torsion
[ 10763 10752 10751 10750 ] final  167.27 input  -60.55 | X-H torsion
[ 11005 11000 10999 10996 ] final   40.63 input  -57.11 | X-H torsion

> <Gold.Protein.ActiveResidues>
 VAL166  LYS551  ARG553  GLY616  TRP617  ASP618  TYR619  PRO620  LYS621  CYS622 
 ASP623  PHE694  ASN695  SER759  ASP760  ASP761  ALA762  ILE779  LEU786  VAL792 
 PHE793  MET794  SER795  GLU796  ALA797  LYS798  CYS799  TRP800  GLU811  SER814 

> <Gold.Protein.RotatedAtoms>
  152.4891  134.4509  159.9573 H   0  0  0  0  0  0  0  0  0  0  0  0  # atno 6907 bound_to 6896
  151.4500  133.3614  159.2801 H   0  0  0  0  0  0  0  0  0  0  0  0  # atno 6908 bound_to 6896
  150.9028  134.8466  159.7432 H   0  0  0  0  0  0  0  0  0  0  0  0  # atno 6909 bound_to 6896
  144.9773  139.4542  143.5403 H   0  0  0  0  0  0  0  0  0  0  0  0  # atno 7974 bound_to 7965
  154.4828  140.0884  156.7416 H   0  0  0  0  0  0  0  0  0  0  0  0  # atno 8008 bound_to 7997
  155.4427  140.3454  155.4273 H   0  0  0  0  0  0  0  0  0  0  0  0  # atno 8009 bound_to 7997
  156.1216  140.1476  156.9184 H   0  0  0  0  0  0  0  0  0  0  0  0  # atno 8010 bound_to 7997
  140.1795  143.3978  152.1292 H   0  0  0  0  0  0  0  0  0  0  0  0  # atno 10167 bound_to 10162
  157.5284  130.8613  149.8653 H   0  0  0  0  0  0  0  0  0  0  0  0  # atno 10718 bound_to 10713
  154.3513  135.2753  155.2370 H   0  0  0  0  0  0  0  0  0  0  0  0  # atno 10763 bound_to 10752
  154.4598  135.5910  153.6251 H   0  0  0  0  0  0  0  0  0  0  0  0  # atno 10764 bound_to 10752
  152.9849  135.6062  154.3724 H   0  0  0  0  0  0  0  0  0  0  0  0  # atno 10765 bound_to 10752
  140.1912  134.3984  155.8145 H   0  0  0  0  0  0  0  0  0  0  0  0  # atno 11005 bound_to 11000
  146.3399  139.9023  142.8792 LP  0  0  0  0  0  0  0  0  0  0  0  0  # atno 17320 bound_to 7965
  145.2472  141.0031  143.3902 LP  0  0  0  0  0  0  0  0  0  0  0  0  # atno 17321 bound_to 7965
  139.5302  144.7150  151.5082 LP  0  0  0  0  0  0  0  0  0  0  0  0  # atno 17342 bound_to 10162
  140.6529  143.8659  150.6804 LP  0  0  0  0  0  0  0  0  0  0  0  0  # atno 17343 bound_to 10162
  156.0404  130.3740  150.1450 LP  0  0  0  0  0  0  0  0  0  0  0  0  # atno 17370 bound_to 10713
  156.9636  130.9812  151.3474 LP  0  0  0  0  0  0  0  0  0  0  0  0  # atno 17371 bound_to 10713
  141.2226  133.7047  156.8099 LP  0  0  0  0  0  0  0  0  0  0  0  0  # atno 17394 bound_to 11000
  140.2157  134.8794  157.3323 LP  0  0  0  0  0  0  0  0  0  0  0  0  # atno 17395 bound_to 11000

$$$$
