AV-unprocessed.smi:1300|AV-procd|sdf|5420|dock5
  -GOLD-   22720 4583D 1   1.00000     0.00000
 Structure written by MMmdl.
 35 36  0  0  0  0  0  0  0  0  1 V2000
  156.3258  140.0112  164.5074 C   0  0  0  0  0  0  0  0  0  0  0  0
  155.5968  139.6714  163.2332 C   0  0  0  0  0  0  0  0  0  0  0  0
  155.1977  140.6857  162.5391 N   0  0  0  0  0  0  0  0  0  0  0  0
  154.5132  140.5249  161.3518 N   0  0  0  0  0  0  0  0  0  0  0  0
  154.1472  141.7890  160.7004 C   0  0  0  0  0  0  0  0  0  0  0  0
  152.9189  142.4580  161.3548 C   0  0  1  0  0  0  0  0  0  0  0  0
  153.2922  142.9483  162.6289 O   0  0  0  0  0  0  0  0  0  0  0  0
  152.3695  143.5635  160.4616 C   0  0  0  0  0  0  0  0  0  0  0  0
  152.3572  144.9061  160.9039 C   0  0  0  0  0  0  0  0  0  0  0  0
  151.8615  145.9267  160.0699 C   0  0  0  0  0  0  0  0  0  0  0  0
  151.3791  145.6143  158.7853 C   0  0  0  0  0  0  0  0  0  0  0  0
  151.3955  144.2809  158.3345 C   0  0  0  0  0  0  0  0  0  0  0  0
  151.8907  143.2581  159.1670 C   0  0  0  0  0  0  0  0  0  0  0  0
  151.9085  141.9821  158.7121 F   0  0  0  0  0  0  0  0  0  0  0  0
  154.1926  139.3215  160.7978 C   0  0  0  0  0  0  0  0  0  0  0  0
  153.5782  139.2243  159.7344 O   0  0  0  0  0  0  0  0  0  0  0  0
  154.6470  138.1736  161.5854 C   0  0  0  0  0  0  0  0  0  0  0  0
  154.3282  136.8936  161.0393 C   0  0  0  0  0  0  0  0  0  0  0  0
  154.0527  135.8553  160.6078 N   0  0  0  0  0  0  0  0  0  0  0  0
  155.3243  138.3169  162.7527 C   0  0  0  0  0  0  0  0  0  0  0  0
  155.8156  137.1481  163.5961 C   0  0  0  0  0  0  0  0  0  0  0  0
  156.6047  139.1326  165.0861 H   0  0  0  0  0  0  0  0  0  0  0  0
  155.7049  140.6368  165.1498 H   0  0  0  0  0  0  0  0  0  0  0  0
  157.2409  140.5630  164.2906 H   0  0  0  0  0  0  0  0  0  0  0  0
  154.9914  142.4816  160.6801 H   0  0  0  0  0  0  0  0  0  0  0  0
  153.9315  141.5795  159.6507 H   0  0  0  0  0  0  0  0  0  0  0  0
  152.1301  141.7231  161.5169 H   0  0  0  0  0  0  0  0  0  0  0  0
  154.1741  143.2834  162.5734 H   0  0  0  0  0  0  0  0  0  0  0  0
  152.7319  145.1614  161.8844 H   0  0  0  0  0  0  0  0  0  0  0  0
  151.8539  146.9501  160.4153 H   0  0  0  0  0  0  0  0  0  0  0  0
  151.0004  146.3969  158.1447 H   0  0  0  0  0  0  0  0  0  0  0  0
  151.0299  144.0418  157.3467 H   0  0  0  0  0  0  0  0  0  0  0  0
  155.5936  136.1847  163.1387 H   0  0  0  0  0  0  0  0  0  0  0  0
  155.3422  137.1605  164.5784 H   0  0  0  0  0  0  0  0  0  0  0  0
  156.8968  137.2010  163.7300 H   0  0  0  0  0  0  0  0  0  0  0  0
  1  2  1  0  0  0  0
  1 22  1  0  0  0  0
  1 23  1  0  0  0  0
  1 24  1  0  0  0  0
  2 20  1  0  0  0  0
  2  3  2  0  0  0  0
  3  4  1  0  0  0  0
  4  5  1  0  0  0  0
  4 15  1  0  0  0  0
  5  6  1  0  0  0  0
  5 25  1  0  0  0  0
  5 26  1  0  0  0  0
  6  7  1  0  0  0  0
  6  8  1  0  0  0  0
  6 27  1  0  0  0  0
  7 28  1  0  0  0  0
  8 13  1  0  0  0  0
  8  9  2  0  0  0  0
  9 10  1  0  0  0  0
  9 29  1  0  0  0  0
 10 11  2  0  0  0  0
 10 30  1  0  0  0  0
 11 12  1  0  0  0  0
 11 31  1  0  0  0  0
 12 13  2  0  0  0  0
 12 32  1  0  0  0  0
 13 14  1  0  0  0  0
 15 16  2  0  0  0  0
 15 17  1  0  0  0  0
 17 18  1  0  0  0  0
 17 20  2  0  0  0  0
 18 19  3  0  0  0  0
 20 21  1  0  0  0  0
 21 33  1  0  0  0  0
 21 34  1  0  0  0  0
 21 35  1  0  0  0  0
M  END
> <s_m_source_file>
AV-unprocessed.smi

> <i_m_source_file_index>
1300

> <i_lp_mmshare_version>
43012

> <i_f3d_flags>
0

> <s_epik_input>
TiNDYyhjMVtDSDNdKWMoPU8pbihuYzFbQ0gzXSlbQ0gyXVtDQEhdKFtPSF0pYzJbY0hdW2NIXVtjSF1bY0hdYzJG

> <s_epik_cmdline>
J2VwaWtfcHl0aG9uJywgJy1waCcsICc3LjAnLCAnLXRuJywgJzgnLCAnLW1hJywgJzIwMCcsICctbWV0YWxfYmluZGluZycsICctaW1hZScsICc8aW5maWxlLm1hZT4nLCAnLW9tYWUnLCAnPG91dGZpbGUubWFlPic=

> <r_lp_tautomer_probability>
1

> <r_epik_Ionization_Penalty>
7.1854e-08

> <r_epik_Ionization_Penalty_Charging>
1.40848e-10

> <r_epik_Ionization_Penalty_Neutral>
7.17131e-08

> <r_epik_State_Penalty>
-0

> <r_epik_Charging_Adjusted_Penalty>
1.40848e-10

> <i_epik_Tot_Q>
0

> <i_epik_Tot_abs_Q>
0

> <r_epik_Metal_State_Penalty>
-0

> <b_epik_Metal_Only>
0

> <s_lp_Force_Field>
OPLS_2005

> <r_lp_Energy>
29.2167

> <b_lp_Chiralities_Consistent>
1

> <s_lp_Variant>
AV-unprocessed.smi:1300-2

> <Gold.Version>
5.8.1

> <Gold.Id.Protein>
6NUR|6NUR_protein|mol2

> <Gold.PLP.Fitness>
47.7647

> <Gold.PLP.PLP>
-45.4235

> <Gold.PLP.part.hbond>
-1.2203

> <Gold.PLP.part.metal>
0.0000

> <Gold.PLP.part.buried>
-5.9452

> <Gold.PLP.part.nonpolar>
-37.3697

> <Gold.PLP.part.repulsive>
0.0000

> <Gold.PLP.ligand.clash>
0.0000

> <Gold.PLP.ligand.torsion>
0.3335

> <Gold.PLP.Chemscore.Hbond>
1.0000

> <Gold.PLP.Chemscore.CHOScore>
0.0000

> <Gold.PLP.Chemscore.Metal>
0.0000

> <Gold.Chemscore.Hbonds>
donor molecule, donor type, donor heavy atom, donor atom, acceptor molecule, acceptor atom, score
      P1  H  6896  6907       L1    19  0.89

> <Gold.PLP.Chemscore.Internal.Correction>
0.0082

> <Gold.Rescore>
     Score         DG    S(hbond)    S(metal)    S(lipo)     H(rot)  DE(clash)    DE(int)     intcor
     16.79     -18.06       0.99        0.00     122.84       2.00       0.02       1.24       ----

> <Gold.Chemscore.Fitness>
16.7916

> <Gold.Chemscore.DG>
-18.0606

> <Gold.Chemscore.ZeroCoef>
-5.4800

> <Gold.Chemscore.Hbond>
0.9934

> <Gold.Chemscore.Metal>
0.0000

> <Gold.Chemscore.Lipo>
122.8411

> <Gold.Chemscore.Internal_Hbond>
0.0000

> <Gold.Chemscore.DEClash>
0.0240

> <Gold.Chemscore.DEInternal>
1.2450

> <Gold.Chemscore.Rot>
1.9960

> <Gold.Chemscore.Internal.Correction>
   9.000000E+99

> <Gold.Chemscore.Hbonds>
donor molecule, donor type, donor heavy atom, donor atom, acceptor molecule, acceptor atom, score
      P1  H  6896  6907       L1    19  0.86

> <Gold.Chemscore.Hbond.Weighted>
-3.3180

> <Gold.Chemscore.Metal.Weighted>
-0.0000

> <Gold.Chemscore.Lipo.Weighted>
-14.3724

> <Gold.Chemscore.Internal_Hbond.Weighted>
0.0000

> <Gold.Chemscore.DEClash.Weighted>
0.0240

> <Gold.Chemscore.DEInternal.Weighted>
1.2450

> <Gold.Chemscore.Rot.Weighted>
5.1097

> <Gold.Chemscore.Internal.Correction.Weighted>
   9.000000E+99

> <Gold.Protein.RotatedTorsions>
[ 6907 6896 6895 6894 ] final   61.24 input  -60.11 | X-H torsion
[ 7974 7965 7964 7962 ] final   51.39 input  175.53 | X-H torsion
[ 8008 7997 7996 7995 ] final -161.76 input   59.86 | X-H torsion
[ 10167 10162 10161 10158 ] final -136.50 input  -65.29 | X-H torsion
[ 10718 10713 10712 10709 ] final   29.74 input   66.30 | X-H torsion
[ 10763 10752 10751 10750 ] final  -11.84 input  -60.55 | X-H torsion
[ 11005 11000 10999 10996 ] final    1.84 input  -57.11 | X-H torsion

> <Gold.Protein.ActiveResidues>
 VAL166  LYS551  ARG553  GLY616  TRP617  ASP618  TYR619  PRO620  LYS621  CYS622 
 ASP623  PHE694  ASN695  SER759  ASP760  ASP761  ALA762  ILE779  LEU786  VAL792 
 PHE793  MET794  SER795  GLU796  ALA797  LYS798  CYS799  TRP800  GLU811  SER814 

> <Gold.Protein.RotatedAtoms>
  152.4072  134.6186  160.0044 H   0  0  0  0  0  0  0  0  0  0  0  0  # atno 6907 bound_to 6896
  151.6374  133.3322  159.3130 H   0  0  0  0  0  0  0  0  0  0  0  0  # atno 6908 bound_to 6896
  150.7966  134.7071  159.6627 H   0  0  0  0  0  0  0  0  0  0  0  0  # atno 6909 bound_to 6896
  145.9918  139.4347  143.0069 H   0  0  0  0  0  0  0  0  0  0  0  0  # atno 7974 bound_to 7965
  155.7969  140.0886  157.1978 H   0  0  0  0  0  0  0  0  0  0  0  0  # atno 8008 bound_to 7997
  154.3983  140.1479  156.3288 H   0  0  0  0  0  0  0  0  0  0  0  0  # atno 8009 bound_to 7997
  155.8502  140.3435  155.5691 H   0  0  0  0  0  0  0  0  0  0  0  0  # atno 8010 bound_to 7997
  139.8672  143.7003  152.2644 H   0  0  0  0  0  0  0  0  0  0  0  0  # atno 10167 bound_to 10162
  157.2505  130.7113  149.6403 H   0  0  0  0  0  0  0  0  0  0  0  0  # atno 10718 bound_to 10713
  153.4897  135.7017  153.5891 H   0  0  0  0  0  0  0  0  0  0  0  0  # atno 10763 bound_to 10752
  153.4068  135.3858  155.2024 H   0  0  0  0  0  0  0  0  0  0  0  0  # atno 10764 bound_to 10752
  154.8717  135.3895  154.4356 H   0  0  0  0  0  0  0  0  0  0  0  0  # atno 10765 bound_to 10752
  140.6110  133.9748  155.8177 H   0  0  0  0  0  0  0  0  0  0  0  0  # atno 11005 bound_to 11000
  145.7618  140.9932  143.1196 LP  0  0  0  0  0  0  0  0  0  0  0  0  # atno 17320 bound_to 7965
  144.6891  139.9340  143.7473 LP  0  0  0  0  0  0  0  0  0  0  0  0  # atno 17321 bound_to 7965
  139.7318  144.7580  151.0790 LP  0  0  0  0  0  0  0  0  0  0  0  0  # atno 17342 bound_to 10162
  140.7766  143.5079  150.9689 LP  0  0  0  0  0  0  0  0  0  0  0  0  # atno 17343 bound_to 10162
  155.9666  130.4429  150.5400 LP  0  0  0  0  0  0  0  0  0  0  0  0  # atno 17370 bound_to 10713
  157.3283  131.0695  151.1880 LP  0  0  0  0  0  0  0  0  0  0  0  0  # atno 17371 bound_to 10713
  141.0808  134.0065  157.3389 LP  0  0  0  0  0  0  0  0  0  0  0  0  # atno 17394 bound_to 11000
  139.9192  135.0199  156.8000 LP  0  0  0  0  0  0  0  0  0  0  0  0  # atno 17395 bound_to 11000

$$$$
