AV-unprocessed.smi:2878|AV-procd|sdf|11046|dock2
  -GOLD-   2272015513D 1   1.00000     0.00000
 Structure written by MMmdl.
 42 43  0  0  0  0  0  0  0  0  1 V2000
  145.8327  128.7592  151.9130 C   0  0  0  0  0  0  0  0  0  0  0  0
  146.6464  130.1241  152.7856 S   0  0  0  0  0  0  0  0  0  0  0  0
  146.0572  131.5584  151.8288 C   0  0  1  0  0  0  0  0  0  0  0  0
  144.6659  131.2728  151.2303 C   0  0  0  0  0  0  0  0  0  0  0  0
  144.1580  132.4575  150.3937 C   0  0  0  0  0  0  0  0  0  0  0  0
  144.1378  133.7529  151.2185 C   0  0  0  0  0  0  0  0  0  0  0  0
  145.5222  134.0511  151.8192 C   0  0  0  0  0  0  0  0  0  0  0  0
  146.0649  132.8703  152.6523 C   0  0  1  0  0  0  0  0  0  0  0  0
  145.3006  132.7195  153.8910 N   0  0  0  0  0  0  0  0  0  0  0  0
  145.7633  132.9725  155.1226 C   0  0  0  0  0  0  0  0  0  0  0  0
  146.8991  133.3815  155.3647 O   0  0  0  0  0  0  0  0  0  0  0  0
  144.8387  132.7262  156.0606 N   0  0  0  0  0  0  0  0  0  0  0  0
  145.0427  132.8911  157.4951 C   0  0  0  0  0  0  0  0  0  0  0  0
  145.0905  131.5387  158.2246 C   0  0  0  0  0  0  0  0  0  0  0  0
  143.7436  130.9076  158.3374 C   0  0  0  0  0  0  0  0  0  0  0  0
  143.4031  129.6708  157.9835 N   0  0  0  0  0  0  0  0  0  0  0  0
  142.0967  129.6411  158.3657 C   0  0  0  0  0  0  0  0  0  0  0  0
  141.2264  128.4456  158.1783 C   0  0  0  0  0  0  0  0  0  0  0  0
  141.6326  130.7469  158.9347 N   0  0  0  0  0  0  0  0  0  0  0  0
  142.7426  131.6036  158.9286 O   0  0  0  0  0  0  0  0  0  0  0  0
  146.0289  127.8195  152.4292 H   0  0  0  0  0  0  0  0  0  0  0  0
  146.2076  128.6702  150.8940 H   0  0  0  0  0  0  0  0  0  0  0  0
  144.7546  128.9153  151.8789 H   0  0  0  0  0  0  0  0  0  0  0  0
  146.7508  131.6790  150.9954 H   0  0  0  0  0  0  0  0  0  0  0  0
  144.7068  130.3788  150.6073 H   0  0  0  0  0  0  0  0  0  0  0  0
  143.9537  131.0571  152.0279 H   0  0  0  0  0  0  0  0  0  0  0  0
  144.7994  132.5897  149.5216 H   0  0  0  0  0  0  0  0  0  0  0  0
  143.1590  132.2433  150.0130 H   0  0  0  0  0  0  0  0  0  0  0  0
  143.8185  134.5865  150.5922 H   0  0  0  0  0  0  0  0  0  0  0  0
  143.3993  133.6682  152.0166 H   0  0  0  0  0  0  0  0  0  0  0  0
  146.2210  134.2655  151.0097 H   0  0  0  0  0  0  0  0  0  0  0  0
  145.4785  134.9562  152.4263 H   0  0  0  0  0  0  0  0  0  0  0  0
  147.0995  133.1002  152.9088 H   0  0  0  0  0  0  0  0  0  0  0  0
  144.3530  132.3837  153.7989 H   0  0  0  0  0  0  0  0  0  0  0  0
  143.9339  132.3915  155.7627 H   0  0  0  0  0  0  0  0  0  0  0  0
  145.9814  133.4256  157.6435 H   0  0  0  0  0  0  0  0  0  0  0  0
  144.2560  133.5226  157.9118 H   0  0  0  0  0  0  0  0  0  0  0  0
  145.7512  130.8454  157.7026 H   0  0  0  0  0  0  0  0  0  0  0  0
  145.5007  131.6667  159.2271 H   0  0  0  0  0  0  0  0  0  0  0  0
  140.1940  128.7464  157.9970 H   0  0  0  0  0  0  0  0  0  0  0  0
  141.2543  127.8176  159.0690 H   0  0  0  0  0  0  0  0  0  0  0  0
  141.5656  127.8552  157.3266 H   0  0  0  0  0  0  0  0  0  0  0  0
  1  2  1  0  0  0  0
  1 21  1  0  0  0  0
  1 22  1  0  0  0  0
  1 23  1  0  0  0  0
  2  3  1  0  0  0  0
  3  8  1  0  0  0  0
  3  4  1  0  0  0  0
  3 24  1  0  0  0  0
  4  5  1  0  0  0  0
  4 25  1  0  0  0  0
  4 26  1  0  0  0  0
  5  6  1  0  0  0  0
  5 27  1  0  0  0  0
  5 28  1  0  0  0  0
  6  7  1  0  0  0  0
  6 29  1  0  0  0  0
  6 30  1  0  0  0  0
  7  8  1  0  0  0  0
  7 31  1  0  0  0  0
  7 32  1  0  0  0  0
  8  9  1  0  0  0  0
  8 33  1  0  0  0  0
  9 10  1  0  0  0  0
  9 34  1  0  0  0  0
 10 11  2  0  0  0  0
 10 12  1  0  0  0  0
 12 13  1  0  0  0  0
 12 35  1  0  0  0  0
 13 14  1  0  0  0  0
 13 36  1  0  0  0  0
 13 37  1  0  0  0  0
 14 15  1  0  0  0  0
 14 38  1  0  0  0  0
 14 39  1  0  0  0  0
 15 20  1  0  0  0  0
 15 16  2  0  0  0  0
 16 17  1  0  0  0  0
 17 18  1  0  0  0  0
 17 19  2  0  0  0  0
 18 40  1  0  0  0  0
 18 41  1  0  0  0  0
 18 42  1  0  0  0  0
 19 20  1  0  0  0  0
M  END
> <s_m_source_file>
AV-unprocessed.smi

> <i_m_source_file_index>
2878

> <i_lp_mmshare_version>
43012

> <i_f3d_flags>
0

> <s_epik_input>
W0NIM11TW0NAQEhdMVtDSDJdW0NIMl1bQ0gyXVtDSDJdW0NASF0xW05IXUMoPU8pW05IXVtDSDJdW0NIMl1jMm5jKFtDSDNdKW5vMg==

> <s_epik_cmdline>
J2VwaWtfcHl0aG9uJywgJy1waCcsICc3LjAnLCAnLXRuJywgJzgnLCAnLW1hJywgJzIwMCcsICctbWV0YWxfYmluZGluZycsICctaW1hZScsICc8aW5maWxlLm1hZT4nLCAnLW9tYWUnLCAnPG91dGZpbGUubWFlPic=

> <r_lp_tautomer_probability>
1

> <r_epik_Ionization_Penalty>
4.9299e-05

> <r_epik_Ionization_Penalty_Charging>
0

> <r_epik_Ionization_Penalty_Neutral>
4.9299e-05

> <r_epik_State_Penalty>
-0

> <r_epik_Charging_Adjusted_Penalty>
0

> <i_epik_Tot_Q>
0

> <i_epik_Tot_abs_Q>
0

> <r_epik_Metal_State_Penalty>
-0

> <b_epik_Metal_Only>
0

> <s_lp_Force_Field>
OPLS_2005

> <r_lp_Energy>
0.0435146

> <b_lp_Chiralities_Consistent>
1

> <s_lp_Variant>
AV-unprocessed.smi:2878-2

> <Gold.Version>
5.8.1

> <Gold.Id.Protein>
6NUR|6NUR_protein|mol2

> <Gold.PLP.Fitness>
35.2021

> <Gold.PLP.PLP>
-30.3945

> <Gold.PLP.part.hbond>
-2.0000

> <Gold.PLP.part.metal>
0.0000

> <Gold.PLP.part.buried>
-6.7268

> <Gold.PLP.part.nonpolar>
-23.4392

> <Gold.PLP.part.repulsive>
0.4082

> <Gold.PLP.ligand.clash>
0.0000

> <Gold.PLP.ligand.torsion>
0.5169

> <Gold.PLP.Chemscore.Hbond>
1.9199

> <Gold.PLP.Chemscore.CHOScore>
0.0000

> <Gold.PLP.Chemscore.Metal>
0.0000

> <Gold.Chemscore.Hbonds>
donor molecule, donor type, donor heavy atom, donor atom, acceptor molecule, acceptor atom, score
      L1  H     9    34       P1 10957  0.92
      L1  H    12    35       P1 10957  1.00

> <Gold.PLP.Chemscore.Internal.Correction>
0.0817

> <Gold.Rescore>
     Score         DG    S(hbond)    S(metal)    S(lipo)     H(rot)  DE(clash)    DE(int)     intcor
     12.93     -13.45       1.62        0.00      67.70       2.09       0.07       0.45       ----

> <Gold.Chemscore.Fitness>
12.9290

> <Gold.Chemscore.DG>
-13.4544

> <Gold.Chemscore.ZeroCoef>
-5.4800

> <Gold.Chemscore.Hbond>
1.6198

> <Gold.Chemscore.Metal>
0.0000

> <Gold.Chemscore.Lipo>
67.6957

> <Gold.Chemscore.Internal_Hbond>
0.0000

> <Gold.Chemscore.DEClash>
0.0727

> <Gold.Chemscore.DEInternal>
0.4527

> <Gold.Chemscore.Rot>
2.0923

> <Gold.Chemscore.Internal.Correction>
   9.000000E+99

> <Gold.Chemscore.Hbonds>
donor molecule, donor type, donor heavy atom, donor atom, acceptor molecule, acceptor atom, score
      L1  H     9    34       P1 10957  0.25
      L1  H    12    35       P1 10957  1.00

> <Gold.Chemscore.Hbond.Weighted>
-5.4103

> <Gold.Chemscore.Metal.Weighted>
-0.0000

> <Gold.Chemscore.Lipo.Weighted>
-7.9204

> <Gold.Chemscore.Internal_Hbond.Weighted>
0.0000

> <Gold.Chemscore.DEClash.Weighted>
0.0727

> <Gold.Chemscore.DEInternal.Weighted>
0.4527

> <Gold.Chemscore.Rot.Weighted>
5.3562

> <Gold.Chemscore.Internal.Correction.Weighted>
   9.000000E+99

> <Gold.Protein.RotatedTorsions>
[ 6907 6896 6895 6894 ] final  105.87 input  -60.11 | X-H torsion
[ 7974 7965 7964 7962 ] final   98.02 input  175.53 | X-H torsion
[ 8008 7997 7996 7995 ] final  151.53 input   59.86 | X-H torsion
[ 10167 10162 10161 10158 ] final  -58.88 input  -65.29 | X-H torsion
[ 10718 10713 10712 10709 ] final  -46.46 input   66.30 | X-H torsion
[ 10763 10752 10751 10750 ] final -158.82 input  -60.55 | X-H torsion
[ 11005 11000 10999 10996 ] final   35.23 input  -57.11 | X-H torsion

> <Gold.Protein.ActiveResidues>
 VAL166  LYS551  ARG553  GLY616  TRP617  ASP618  TYR619  PRO620  LYS621  CYS622 
 ASP623  PHE694  ASN695  SER759  ASP760  ASP761  ALA762  ILE779  LEU786  VAL792 
 PHE793  MET794  SER795  GLU796  ALA797  LYS798  CYS799  TRP800  GLU811  SER814 

> <Gold.Protein.RotatedAtoms>
  152.5215  133.9465  159.7651 H   0  0  0  0  0  0  0  0  0  0  0  0  # atno 6907 bound_to 6896
  150.9784  133.6263  159.2733 H   0  0  0  0  0  0  0  0  0  0  0  0  # atno 6908 bound_to 6896
  151.3449  135.0877  159.9436 H   0  0  0  0  0  0  0  0  0  0  0  0  # atno 6909 bound_to 6896
  145.4177  139.2325  143.3213 H   0  0  0  0  0  0  0  0  0  0  0  0  # atno 7974 bound_to 7965
  156.2669  140.2045  156.6191 H   0  0  0  0  0  0  0  0  0  0  0  0  # atno 8008 bound_to 7997
  154.6771  140.0544  157.0251 H   0  0  0  0  0  0  0  0  0  0  0  0  # atno 8009 bound_to 7997
  155.1053  140.3210  155.4539 H   0  0  0  0  0  0  0  0  0  0  0  0  # atno 8010 bound_to 7997
  140.6170  143.2406  151.5573 H   0  0  0  0  0  0  0  0  0  0  0  0  # atno 10167 bound_to 10162
  156.2181  130.4164  149.9028 H   0  0  0  0  0  0  0  0  0  0  0  0  # atno 10718 bound_to 10713
  154.7525  135.3096  154.8531 H   0  0  0  0  0  0  0  0  0  0  0  0  # atno 10763 bound_to 10752
  153.9314  135.6785  153.4749 H   0  0  0  0  0  0  0  0  0  0  0  0  # atno 10764 bound_to 10752
  153.1122  135.4861  154.8982 H   0  0  0  0  0  0  0  0  0  0  0  0  # atno 10765 bound_to 10752
  140.2448  134.3372  155.7912 H   0  0  0  0  0  0  0  0  0  0  0  0  # atno 11005 bound_to 11000
  146.2672  140.4897  142.8829 LP  0  0  0  0  0  0  0  0  0  0  0  0  # atno 17320 bound_to 7965
  144.8266  140.6639  143.6318 LP  0  0  0  0  0  0  0  0  0  0  0  0  # atno 17321 bound_to 7965
  139.5407  144.2657  152.1344 LP  0  0  0  0  0  0  0  0  0  0  0  0  # atno 17342 bound_to 10162
  140.1868  144.4791  150.6499 LP  0  0  0  0  0  0  0  0  0  0  0  0  # atno 17343 bound_to 10162
  156.6684  130.8810  151.3558 LP  0  0  0  0  0  0  0  0  0  0  0  0  # atno 17370 bound_to 10713
  157.7073  130.9400  150.0974 LP  0  0  0  0  0  0  0  0  0  0  0  0  # atno 17371 bound_to 10713
  141.2207  133.7319  156.8943 LP  0  0  0  0  0  0  0  0  0  0  0  0  # atno 17394 bound_to 11000
  140.1617  134.9161  157.2723 LP  0  0  0  0  0  0  0  0  0  0  0  0  # atno 17395 bound_to 11000

$$$$
