AV-unprocessed.smi:598|AV-procd|sdf|3023|dock6
  -GOLD-   2262023533D 1   1.00000     0.00000
 Structure written by MMmdl.
 43 44  0  0  0  0  0  0  0  0  3 V2000
  151.7524  145.5782  159.7294 C   0  0  0  0  0  0  0  0  0  0  0  0
  151.7292  144.1094  160.1919 C   0  0  2  0  0  0  0  0  0  0  0  0
  152.5727  143.9599  161.4736 C   0  0  0  0  0  0  0  0  0  0  0  0
  152.5568  142.5216  162.0010 C   0  0  0  0  0  0  0  0  0  0  0  0
  153.0619  141.5504  160.9305 C   0  0  0  0  0  0  0  0  0  0  0  0
  152.2333  141.6597  159.6355 C   0  0  2  0  0  0  0  0  0  0  0  0
  152.7851  140.7488  158.6334 N   0  0  0  0  0  0  0  0  0  0  0  0
  152.6586  139.4131  158.6415 C   0  0  0  0  0  0  0  0  0  0  0  0
  152.0387  138.7981  159.5102 O   0  0  0  0  0  0  0  0  0  0  0  0
  153.3249  138.6686  157.4757 C   0  0  0  0  0  0  0  0  0  0  0  0
  152.3569  138.0913  156.5280 N   0  0  0  0  0  0  0  0  0  0  0  0
  151.7765  136.8557  156.8773 C   0  0  0  0  0  0  0  0  0  0  0  0
  150.8843  136.2335  156.0820 C   0  0  0  0  0  0  0  0  0  0  0  0
  150.3030  134.9622  156.4536 N   0  3  0  0  0  0  0  0  0  0  0  0
  149.6211  134.3634  155.6280 O   0  0  0  0  0  0  0  0  0  0  0  0
  150.5067  134.5209  157.5807 O   0  5  0  0  0  0  0  0  0  0  0  0
  150.5276  136.8802  154.8340 C   0  0  0  0  0  0  0  0  0  0  0  0
  151.0823  138.0599  154.4923 C   0  0  0  0  0  0  0  0  0  0  0  0
  152.0566  138.7329  155.3573 C   0  0  0  0  0  0  0  0  0  0  0  0
  152.5712  139.8078  155.0482 O   0  0  0  0  0  0  0  0  0  0  0  0
  152.1978  143.1142  159.0919 C   0  0  1  0  0  0  0  0  0  0  0  0
  151.3273  143.2091  157.8194 C   0  0  0  0  0  0  0  0  0  0  0  0
  152.7398  145.8649  159.3658 H   0  0  0  0  0  0  0  0  0  0  0  0
  151.4941  146.2500  160.5485 H   0  0  0  0  0  0  0  0  0  0  0  0
  151.0321  145.7656  158.9339 H   0  0  0  0  0  0  0  0  0  0  0  0
  150.6971  143.8653  160.4494 H   0  0  0  0  0  0  0  0  0  0  0  0
  153.6018  144.2636  161.2760 H   0  0  0  0  0  0  0  0  0  0  0  0
  152.1979  144.6300  162.2483 H   0  0  0  0  0  0  0  0  0  0  0  0
  153.1769  142.4457  162.8944 H   0  0  0  0  0  0  0  0  0  0  0  0
  151.5446  142.2481  162.3010 H   0  0  0  0  0  0  0  0  0  0  0  0
  154.1114  141.7594  160.7179 H   0  0  0  0  0  0  0  0  0  0  0  0
  153.0232  140.5320  161.3191 H   0  0  0  0  0  0  0  0  0  0  0  0
  151.2065  141.3616  159.8573 H   0  0  0  0  0  0  0  0  0  0  0  0
  153.3067  141.1695  157.8781 H   0  0  0  0  0  0  0  0  0  0  0  0
  153.9924  139.3652  156.9665 H   0  0  0  0  0  0  0  0  0  0  0  0
  153.9774  137.8866  157.8689 H   0  0  0  0  0  0  0  0  0  0  0  0
  152.1132  136.4536  157.8220 H   0  0  0  0  0  0  0  0  0  0  0  0
  149.8143  136.4233  154.1641 H   0  0  0  0  0  0  0  0  0  0  0  0
  150.8027  138.5231  153.5574 H   0  0  0  0  0  0  0  0  0  0  0  0
  153.2167  143.3873  158.8119 H   0  0  0  0  0  0  0  0  0  0  0  0
  150.2803  143.0015  158.0420 H   0  0  0  0  0  0  0  0  0  0  0  0
  151.6464  142.5030  157.0531 H   0  0  0  0  0  0  0  0  0  0  0  0
  151.3833  144.1962  157.3627 H   0  0  0  0  0  0  0  0  0  0  0  0
  1  2  1  0  0  0  0
  1 23  1  0  0  0  0
  1 24  1  0  0  0  0
  1 25  1  0  0  0  0
  2 21  1  0  0  0  0
  2  3  1  0  0  0  0
  2 26  1  0  0  0  0
  3  4  1  0  0  0  0
  3 27  1  0  0  0  0
  3 28  1  0  0  0  0
  4  5  1  0  0  0  0
  4 29  1  0  0  0  0
  4 30  1  0  0  0  0
  5  6  1  0  0  0  0
  5 31  1  0  0  0  0
  5 32  1  0  0  0  0
  6  7  1  0  0  0  0
  6 21  1  0  0  0  0
  6 33  1  0  0  0  0
  7  8  1  0  0  0  0
  7 34  1  0  0  0  0
  8  9  2  0  0  0  0
  8 10  1  0  0  0  0
 10 11  1  0  0  0  0
 10 35  1  0  0  0  0
 10 36  1  0  0  0  0
 11 19  1  0  0  0  0
 11 12  1  0  0  0  0
 12 13  2  0  0  0  0
 12 37  1  0  0  0  0
 13 14  1  0  0  0  0
 13 17  1  0  0  0  0
 14 15  2  0  0  0  0
 14 16  1  0  0  0  0
 17 18  2  0  0  0  0
 17 38  1  0  0  0  0
 18 19  1  0  0  0  0
 18 39  1  0  0  0  0
 19 20  2  0  0  0  0
 21 22  1  0  0  0  0
 21 40  1  0  0  0  0
 22 41  1  0  0  0  0
 22 42  1  0  0  0  0
 22 43  1  0  0  0  0
M  CHG  1  14   1
M  CHG  1  16  -1
M  END
> <s_m_source_file>
AV-unprocessed.smi

> <i_m_source_file_index>
598

> <i_lp_mmshare_version>
43012

> <i_f3d_flags>
0

> <s_epik_input>
W0NIM11bQ0BASF0xW0NIMl1bQ0gyXVtDSDJdW0NASF0oW0NASF0xW0NIM10pW05IXUMoPU8pW0NIMl1uMltjSF1jKFtOK10oPU8pW08tXSlbY0hdW2NIXWMyPU8=

> <s_epik_cmdline>
J2VwaWtfcHl0aG9uJywgJy1waCcsICc3LjAnLCAnLXRuJywgJzgnLCAnLW1hJywgJzIwMCcsICctbWV0YWxfYmluZGluZycsICctaW1hZScsICc8aW5maWxlLm1hZT4nLCAnLW9tYWUnLCAnPG91dGZpbGUubWFlPic=

> <r_lp_tautomer_probability>
1

> <r_epik_Ionization_Penalty>
1.91291e-08

> <r_epik_Ionization_Penalty_Charging>
8.21931e-11

> <r_epik_Ionization_Penalty_Neutral>
1.90469e-08

> <r_epik_State_Penalty>
-0

> <r_epik_Charging_Adjusted_Penalty>
8.21931e-11

> <i_epik_Tot_Q>
0

> <i_epik_Tot_abs_Q>
2

> <r_epik_Metal_State_Penalty>
-0

> <b_epik_Metal_Only>
0

> <s_lp_Force_Field>
OPLS_2005

> <r_lp_Energy>
24.1223

> <b_lp_Chiralities_Consistent>
1

> <s_lp_Variant>
AV-unprocessed.smi:598-3

> <Gold.Version>
5.8.1

> <Gold.Id.Protein>
6NUR|6NUR_protein|mol2

> <Gold.PLP.Fitness>
47.9123

> <Gold.PLP.PLP>
-43.0310

> <Gold.PLP.part.hbond>
-3.0000

> <Gold.PLP.part.metal>
0.0000

> <Gold.PLP.part.buried>
-2.7929

> <Gold.PLP.part.nonpolar>
-38.0831

> <Gold.PLP.part.repulsive>
0.1925

> <Gold.PLP.ligand.clash>
0.0000

> <Gold.PLP.ligand.torsion>
0.6244

> <Gold.PLP.Chemscore.Hbond>
2.0400

> <Gold.PLP.Chemscore.CHOScore>
0.0000

> <Gold.PLP.Chemscore.Metal>
0.0000

> <Gold.Chemscore.Hbonds>
donor molecule, donor type, donor heavy atom, donor atom, acceptor molecule, acceptor atom, score
      P1  H  6896  6909       L1    16  0.56
      P1  H  7989  7998       L1    20  0.53
      P1  H  7997  8009       L1    20  0.84

> <Gold.PLP.Chemscore.Internal.Correction>
0.0101

> <Gold.Rescore>
     Score         DG    S(hbond)    S(metal)    S(lipo)     H(rot)  DE(clash)    DE(int)     intcor
     19.95     -21.01       1.83        0.00     114.32       1.54       0.45       0.61       ----

> <Gold.Chemscore.Fitness>
19.9480

> <Gold.Chemscore.DG>
-21.0122

> <Gold.Chemscore.ZeroCoef>
-5.4800

> <Gold.Chemscore.Hbond>
1.8255

> <Gold.Chemscore.Metal>
0.0000

> <Gold.Chemscore.Lipo>
114.3234

> <Gold.Chemscore.Internal_Hbond>
0.0000

> <Gold.Chemscore.DEClash>
0.4541

> <Gold.Chemscore.DEInternal>
0.6100

> <Gold.Chemscore.Rot>
1.5393

> <Gold.Chemscore.Internal.Correction>
   9.000000E+99

> <Gold.Chemscore.Hbonds>
donor molecule, donor type, donor heavy atom, donor atom, acceptor molecule, acceptor atom, score
      P1  H  6896  6909       L1    16  0.56
      P1  H  7989  7998       L1    20  0.49
      P1  H  7997  8009       L1    20  0.76

> <Gold.Chemscore.Hbond.Weighted>
-6.0970

> <Gold.Chemscore.Metal.Weighted>
-0.0000

> <Gold.Chemscore.Lipo.Weighted>
-13.3758

> <Gold.Chemscore.Internal_Hbond.Weighted>
0.0000

> <Gold.Chemscore.DEClash.Weighted>
0.4541

> <Gold.Chemscore.DEInternal.Weighted>
0.6100

> <Gold.Chemscore.Rot.Weighted>
3.9407

> <Gold.Chemscore.Internal.Correction.Weighted>
   9.000000E+99

> <Gold.Protein.RotatedTorsions>
[ 6907 6896 6895 6894 ] final    4.19 input  -60.11 | X-H torsion
[ 7974 7965 7964 7962 ] final  -30.12 input  175.53 | X-H torsion
[ 8008 7997 7996 7995 ] final -141.28 input   59.86 | X-H torsion
[ 10167 10162 10161 10158 ] final   41.04 input  -65.29 | X-H torsion
[ 10718 10713 10712 10709 ] final   58.12 input   66.30 | X-H torsion
[ 10763 10752 10751 10750 ] final  -39.78 input  -60.55 | X-H torsion
[ 11005 11000 10999 10996 ] final   56.77 input  -57.11 | X-H torsion

> <Gold.Protein.ActiveResidues>
 VAL166  LYS551  ARG553  GLY616  TRP617  ASP618  TYR619  PRO620  LYS621  CYS622 
 ASP623  PHE694  ASN695  SER759  ASP760  ASP761  ALA762  ILE779  LEU786  VAL792 
 PHE793  MET794  SER795  GLU796  ALA797  LYS798  CYS799  TRP800  GLU811  SER814 

> <Gold.Protein.RotatedAtoms>
  151.6373  135.1016  160.0133 H   0  0  0  0  0  0  0  0  0  0  0  0  # atno 6907 bound_to 6896
  152.4073  133.6905  159.6376 H   0  0  0  0  0  0  0  0  0  0  0  0  # atno 6908 bound_to 6896
  150.7967  133.8603  159.3271 H   0  0  0  0  0  0  0  0  0  0  0  0  # atno 6909 bound_to 6896
  146.1166  140.5500  142.8754 H   0  0  0  0  0  0  0  0  0  0  0  0  # atno 7974 bound_to 7965
  155.4751  140.0556  157.2974 H   0  0  0  0  0  0  0  0  0  0  0  0  # atno 8008 bound_to 7997
  154.4682  140.2028  156.0015 H   0  0  0  0  0  0  0  0  0  0  0  0  # atno 8009 bound_to 7997
  156.1012  140.3219  155.7948 H   0  0  0  0  0  0  0  0  0  0  0  0  # atno 8010 bound_to 7997
  140.3682  144.2139  150.6134 H   0  0  0  0  0  0  0  0  0  0  0  0  # atno 10167 bound_to 10162
  157.5570  130.8808  149.9052 H   0  0  0  0  0  0  0  0  0  0  0  0  # atno 10718 bound_to 10713
  153.9351  135.6767  153.4745 H   0  0  0  0  0  0  0  0  0  0  0  0  # atno 10763 bound_to 10752
  153.0960  135.4851  154.8776 H   0  0  0  0  0  0  0  0  0  0  0  0  # atno 10764 bound_to 10752
  154.7407  135.3160  154.8691 H   0  0  0  0  0  0  0  0  0  0  0  0  # atno 10765 bound_to 10752
  140.0504  134.5745  155.9271 H   0  0  0  0  0  0  0  0  0  0  0  0  # atno 11005 bound_to 11000
  144.7559  140.5305  143.6769 LP  0  0  0  0  0  0  0  0  0  0  0  0  # atno 17320 bound_to 7965
  145.5553  139.1478  143.3371 LP  0  0  0  0  0  0  0  0  0  0  0  0  # atno 17321 bound_to 7965
  140.5059  143.2304  151.8608 LP  0  0  0  0  0  0  0  0  0  0  0  0  # atno 17342 bound_to 10162
  139.4806  144.5005  151.9066 LP  0  0  0  0  0  0  0  0  0  0  0  0  # atno 17343 bound_to 10162
  156.0628  130.3697  150.0944 LP  0  0  0  0  0  0  0  0  0  0  0  0  # atno 17370 bound_to 10713
  156.9112  130.9652  151.3562 LP  0  0  0  0  0  0  0  0  0  0  0  0  # atno 17371 bound_to 10713
  141.1927  133.6576  156.5515 LP  0  0  0  0  0  0  0  0  0  0  0  0  # atno 17394 bound_to 11000
  140.3927  134.7426  157.4731 LP  0  0  0  0  0  0  0  0  0  0  0  0  # atno 17395 bound_to 11000

$$$$
