AV-unprocessed.smi:3071|AV-procd|sdf|11715|dock4
  -GOLD-   2272017113D 1   1.00000     0.00000
 Structure written by MMmdl.
 29 30  0  0  0  0  0  0  0  0  3 V2000
  144.6727  135.5684  151.1263 C   0  0  0  0  0  0  0  0  0  0  0  0
  144.6133  134.1025  150.8391 C   0  0  0  0  0  0  0  0  0  0  0  0
  143.5173  133.4262  150.4758 N   0  3  0  0  0  0  0  0  0  0  0  0
  143.8106  132.1014  150.2999 C   0  0  0  0  0  0  0  0  0  0  0  0
  145.1472  131.9623  150.5674 C   0  0  0  0  0  0  0  0  0  0  0  0
  145.6171  133.2099  150.8932 N   0  0  0  0  0  0  0  0  0  0  0  0
  146.9994  133.5535  151.2568 C   0  0  0  0  0  0  0  0  0  0  0  0
  147.4739  132.8501  152.5428 C   0  0  2  0  0  0  0  0  0  0  0  0
  146.4019  132.6803  153.6239 C   0  0  0  0  0  0  0  0  0  0  0  0
  147.2276  132.5327  154.8961 C   0  0  0  0  0  0  0  0  0  0  0  0
  148.4126  133.4728  154.6614 C   0  0  0  0  0  0  0  0  0  0  0  0
  148.5790  133.5798  153.1972 N   0  3  0  0  0  0  0  0  0  0  0  0
  143.6923  136.0074  150.9380 H   0  0  0  0  0  0  0  0  0  0  0  0
  145.4144  136.0274  150.4736 H   0  0  0  0  0  0  0  0  0  0  0  0
  144.9477  135.7099  152.1717 H   0  0  0  0  0  0  0  0  0  0  0  0
  143.0654  131.3763  150.0063 H   0  0  0  0  0  0  0  0  0  0  0  0
  145.7824  131.0883  150.5481 H   0  0  0  0  0  0  0  0  0  0  0  0
  147.6508  133.3101  150.4167 H   0  0  0  0  0  0  0  0  0  0  0  0
  147.0444  134.6367  151.3802 H   0  0  0  0  0  0  0  0  0  0  0  0
  147.8601  131.8608  152.2939 H   0  0  0  0  0  0  0  0  0  0  0  0
  145.7811  133.5751  153.6906 H   0  0  0  0  0  0  0  0  0  0  0  0
  145.7470  131.8272  153.4435 H   0  0  0  0  0  0  0  0  0  0  0  0
  146.6661  132.7758  155.7987 H   0  0  0  0  0  0  0  0  0  0  0  0
  147.5817  131.5047  154.9880 H   0  0  0  0  0  0  0  0  0  0  0  0
  148.1936  134.4657  155.0557 H   0  0  0  0  0  0  0  0  0  0  0  0
  149.3244  133.1143  155.1401 H   0  0  0  0  0  0  0  0  0  0  0  0
  149.4672  133.1927  152.9110 H   0  0  0  0  0  0  0  0  0  0  0  0
  148.5384  134.5566  152.9421 H   0  0  0  0  0  0  0  0  0  0  0  0
  142.6009  133.8385  150.3520 H   0  0  0  0  0  0  0  0  0  0  0  0
  1  2  1  0  0  0  0
  1 13  1  0  0  0  0
  1 14  1  0  0  0  0
  1 15  1  0  0  0  0
  2  6  1  0  0  0  0
  2  3  2  0  0  0  0
  3  4  1  0  0  0  0
  3 29  1  0  0  0  0
  4  5  2  0  0  0  0
  4 16  1  0  0  0  0
  5  6  1  0  0  0  0
  5 17  1  0  0  0  0
  6  7  1  0  0  0  0
  7  8  1  0  0  0  0
  7 18  1  0  0  0  0
  7 19  1  0  0  0  0
  8 12  1  0  0  0  0
  8  9  1  0  0  0  0
  8 20  1  0  0  0  0
  9 10  1  0  0  0  0
  9 21  1  0  0  0  0
  9 22  1  0  0  0  0
 10 11  1  0  0  0  0
 10 23  1  0  0  0  0
 10 24  1  0  0  0  0
 11 12  1  0  0  0  0
 11 25  1  0  0  0  0
 11 26  1  0  0  0  0
 12 27  1  0  0  0  0
 12 28  1  0  0  0  0
M  CHG  1   3   1
M  CHG  1  12   1
M  END
> <s_m_source_file>
AV-unprocessed.smi

> <i_m_source_file_index>
3071

> <i_lp_mmshare_version>
43012

> <i_f3d_flags>
0

> <s_epik_input>
W0NIM11jMW5bY0hdW2NIXW4xW0NIMl1bQ0BASF0yW0NIMl1bQ0gyXVtDSDJdW05IXTI=

> <s_epik_cmdline>
J2VwaWtfcHl0aG9uJywgJy1waCcsICc3LjAnLCAnLXRuJywgJzgnLCAnLW1hJywgJzIwMCcsICctbWV0YWxfYmluZGluZycsICctaW1hZScsICc8aW5maWxlLm1hZT4nLCAnLW9tYWUnLCAnPG91dGZpbGUubWFlPic=

> <r_lp_tautomer_probability>
1

> <r_epik_Ionization_Penalty>
0.770167

> <r_epik_Ionization_Penalty_Charging>
0.000985251

> <r_epik_Ionization_Penalty_Neutral>
0.769181

> <r_epik_State_Penalty>
0.493256

> <r_epik_Charging_Adjusted_Penalty>
0.494241

> <i_epik_Tot_Q>
2

> <i_epik_Tot_abs_Q>
2

> <r_epik_Metal_State_Penalty>
4.24699

> <b_epik_Metal_Only>
0

> <s_lp_Force_Field>
OPLS_2005

> <r_lp_Energy>
34.2939

> <b_lp_Chiralities_Consistent>
1

> <s_lp_Variant>
AV-unprocessed.smi:3071-3

> <Gold.Version>
5.8.1

> <Gold.Id.Protein>
6NUR|6NUR_protein|mol2

> <Gold.PLP.Fitness>
35.7114

> <Gold.PLP.PLP>
-24.2347

> <Gold.PLP.part.hbond>
-2.0000

> <Gold.PLP.part.metal>
0.0000

> <Gold.PLP.part.buried>
-4.4798

> <Gold.PLP.part.nonpolar>
-17.2375

> <Gold.PLP.part.repulsive>
0.0159

> <Gold.PLP.ligand.clash>
0.0000

> <Gold.PLP.ligand.torsion>
0.2619

> <Gold.PLP.Chemscore.Hbond>
4.0000

> <Gold.PLP.Chemscore.CHOScore>
0.0000

> <Gold.PLP.Chemscore.Metal>
0.0000

> <Gold.Chemscore.Hbonds>
donor molecule, donor type, donor heavy atom, donor atom, acceptor molecule, acceptor atom, score
      L1  H     3    29       P1 10186  2.00
      L1  H    12    28       P1  7948  1.90

> <Gold.PLP.Chemscore.Internal.Correction>
0.0005

> <Gold.Rescore>
     Score         DG    S(hbond)    S(metal)    S(lipo)     H(rot)  DE(clash)    DE(int)     intcor
     13.65     -13.97       1.84        0.00      47.29       1.25       0.05       0.28       ----

> <Gold.Chemscore.Fitness>
13.6479

> <Gold.Chemscore.DG>
-13.9723

> <Gold.Chemscore.ZeroCoef>
-5.4800

> <Gold.Chemscore.Hbond>
1.8425

> <Gold.Chemscore.Metal>
0.0000

> <Gold.Chemscore.Lipo>
47.2852

> <Gold.Chemscore.Internal_Hbond>
0.0000

> <Gold.Chemscore.DEClash>
0.0477

> <Gold.Chemscore.DEInternal>
0.2767

> <Gold.Chemscore.Rot>
1.2477

> <Gold.Chemscore.Internal.Correction>
   9.000000E+99

> <Gold.Chemscore.Hbonds>
donor molecule, donor type, donor heavy atom, donor atom, acceptor molecule, acceptor atom, score
      L1  H     3    29       P1 10186  0.97
      L1  H    12    28       P1  7948  0.20

> <Gold.Chemscore.Hbond.Weighted>
-6.1540

> <Gold.Chemscore.Metal.Weighted>
-0.0000

> <Gold.Chemscore.Lipo.Weighted>
-5.5324

> <Gold.Chemscore.Internal_Hbond.Weighted>
0.0000

> <Gold.Chemscore.DEClash.Weighted>
0.0477

> <Gold.Chemscore.DEInternal.Weighted>
0.2767

> <Gold.Chemscore.Rot.Weighted>
3.1941

> <Gold.Chemscore.Internal.Correction.Weighted>
   9.000000E+99

> <Gold.Protein.RotatedTorsions>
[ 6907 6896 6895 6894 ] final -135.47 input  -60.11 | X-H torsion
[ 7974 7965 7964 7962 ] final  -63.30 input  175.53 | X-H torsion
[ 8008 7997 7996 7995 ] final  -86.93 input   59.86 | X-H torsion
[ 10167 10162 10161 10158 ] final    7.53 input  -65.29 | X-H torsion
[ 10718 10713 10712 10709 ] final  141.58 input   66.30 | X-H torsion
[ 10763 10752 10751 10750 ] final   26.62 input  -60.55 | X-H torsion
[ 11005 11000 10999 10996 ] final  -93.97 input  -57.11 | X-H torsion

> <Gold.Protein.ActiveResidues>
 VAL166  LYS551  ARG553  GLY616  TRP617  ASP618  TYR619  PRO620  LYS621  CYS622 
 ASP623  PHE694  ASN695  SER759  ASP760  ASP761  ALA762  ILE779  LEU786  VAL792 
 PHE793  MET794  SER795  GLU796  ALA797  LYS798  CYS799  TRP800  GLU811  SER814 

> <Gold.Protein.RotatedAtoms>
  150.9983  133.6082  159.2698 H   0  0  0  0  0  0  0  0  0  0  0  0  # atno 6907 bound_to 6896
  151.3277  135.0833  159.9337 H   0  0  0  0  0  0  0  0  0  0  0  0  # atno 6908 bound_to 6896
  152.5266  133.9618  159.7775 H   0  0  0  0  0  0  0  0  0  0  0  0  # atno 6909 bound_to 6896
  145.7807  140.8763  143.0332 H   0  0  0  0  0  0  0  0  0  0  0  0  # atno 7974 bound_to 7965
  154.6574  140.0572  157.0024 H   0  0  0  0  0  0  0  0  0  0  0  0  # atno 8008 bound_to 7997
  155.1280  140.3254  155.4462 H   0  0  0  0  0  0  0  0  0  0  0  0  # atno 8009 bound_to 7997
  156.2603  140.1986  156.6400 H   0  0  0  0  0  0  0  0  0  0  0  0  # atno 8010 bound_to 7997
  140.6366  143.7871  150.7368 H   0  0  0  0  0  0  0  0  0  0  0  0  # atno 10167 bound_to 10162
  157.3904  131.1004  151.0652 H   0  0  0  0  0  0  0  0  0  0  0  0  # atno 10718 bound_to 10713
  153.0610  135.6556  154.0463 H   0  0  0  0  0  0  0  0  0  0  0  0  # atno 10763 bound_to 10752
  154.0131  135.2926  155.3391 H   0  0  0  0  0  0  0  0  0  0  0  0  # atno 10764 bound_to 10752
  154.6948  135.5268  153.8511 H   0  0  0  0  0  0  0  0  0  0  0  0  # atno 10765 bound_to 10752
  141.1483  133.7924  157.0233 H   0  0  0  0  0  0  0  0  0  0  0  0  # atno 11005 bound_to 11000
  144.6797  139.9985  143.7484 LP  0  0  0  0  0  0  0  0  0  0  0  0  # atno 17320 bound_to 7965
  146.0077  139.3143  143.0889 LP  0  0  0  0  0  0  0  0  0  0  0  0  # atno 17321 bound_to 7965
  140.1494  143.4371  152.2141 LP  0  0  0  0  0  0  0  0  0  0  0  0  # atno 17342 bound_to 10162
  139.5576  144.7384  151.4248 LP  0  0  0  0  0  0  0  0  0  0  0  0  # atno 17343 bound_to 10162
  157.1688  130.6258  149.5634 LP  0  0  0  0  0  0  0  0  0  0  0  0  # atno 17370 bound_to 10713
  155.9797  130.4792  150.6730 LP  0  0  0  0  0  0  0  0  0  0  0  0  # atno 17371 bound_to 10713
  140.0801  134.9653  157.1611 LP  0  0  0  0  0  0  0  0  0  0  0  0  # atno 17394 bound_to 11000
  140.3588  134.2517  155.7189 LP  0  0  0  0  0  0  0  0  0  0  0  0  # atno 17395 bound_to 11000

$$$$
