AV-unprocessed.smi:1228|AV-procd|sdf|5149|dock9
  -GOLD-   22720 4223D 1   1.00000     0.00000
 Structure written by MMmdl.
 43 45  0  0  0  0  0  0  0  0  1 V2000
  153.3183  142.2156  161.2059 C   0  0  0  0  0  0  0  0  0  0  0  0
  152.6834  142.6662  159.9235 C   0  0  0  0  0  0  0  0  0  0  0  0
  151.7184  141.9774  159.1323 C   0  0  0  0  0  0  0  0  0  0  0  0
  151.5029  142.8453  158.0968 C   0  0  0  0  0  0  0  0  0  0  0  0
  150.6701  142.7145  157.0300 N   0  0  0  0  0  0  0  0  0  0  0  0
  150.3938  141.6138  156.3089 C   0  0  0  0  0  0  0  0  0  0  0  0
  150.8706  140.4950  156.5010 O   0  0  0  0  0  0  0  0  0  0  0  0
  149.5176  141.8849  155.3308 N   0  0  0  0  0  0  0  0  0  0  0  0
  149.0042  140.9153  154.3677 C   0  0  0  0  0  0  0  0  0  0  0  0
  147.7254  141.4376  153.6890 C   0  0  0  0  0  0  0  0  0  0  0  0
  147.0938  140.3580  152.7928 C   0  0  0  0  0  0  0  0  0  0  0  0
  146.7881  139.1619  153.5785 N   0  0  0  0  0  0  0  0  0  0  0  0
  146.1549  138.1811  152.7121 C   0  0  0  0  0  0  0  0  0  0  0  0
  144.8897  137.5215  153.2111 C   0  0  0  0  0  0  0  0  0  0  0  0
  146.1778  136.7362  153.1560 C   0  0  0  0  0  0  0  0  0  0  0  0
  148.0234  138.5911  154.1156 C   0  0  0  0  0  0  0  0  0  0  0  0
  148.6929  139.5885  155.0776 C   0  0  0  0  0  0  0  0  0  0  0  0
  152.2921  143.9593  158.2785 N   0  0  0  0  0  0  0  0  0  0  0  0
  152.4125  145.1473  157.4559 C   0  0  0  0  0  0  0  0  0  0  0  0
  153.0200  143.8443  159.4103 N   0  0  0  0  0  0  0  0  0  0  0  0
  152.9242  141.2497  161.5224 H   0  0  0  0  0  0  0  0  0  0  0  0
  153.1313  142.9287  162.0091 H   0  0  0  0  0  0  0  0  0  0  0  0
  154.3978  142.1127  161.0945 H   0  0  0  0  0  0  0  0  0  0  0  0
  151.2726  141.0110  159.3138 H   0  0  0  0  0  0  0  0  0  0  0  0
  150.1999  143.5612  156.7461 H   0  0  0  0  0  0  0  0  0  0  0  0
  149.1786  142.8319  155.2445 H   0  0  0  0  0  0  0  0  0  0  0  0
  149.7619  140.7258  153.6046 H   0  0  0  0  0  0  0  0  0  0  0  0
  147.0018  141.7497  154.4438 H   0  0  0  0  0  0  0  0  0  0  0  0
  147.9501  142.3220  153.0919 H   0  0  0  0  0  0  0  0  0  0  0  0
  146.1761  140.7468  152.3498 H   0  0  0  0  0  0  0  0  0  0  0  0
  147.7656  140.1072  151.9702 H   0  0  0  0  0  0  0  0  0  0  0  0
  146.2023  138.3344  151.6350 H   0  0  0  0  0  0  0  0  0  0  0  0
  144.5185  137.8068  154.1937 H   0  0  0  0  0  0  0  0  0  0  0  0
  144.1242  137.2855  152.4748 H   0  0  0  0  0  0  0  0  0  0  0  0
  146.2703  135.9759  152.3831 H   0  0  0  0  0  0  0  0  0  0  0  0
  146.6614  136.5001  154.1022 H   0  0  0  0  0  0  0  0  0  0  0  0
  147.7960  137.6680  154.6500 H   0  0  0  0  0  0  0  0  0  0  0  0
  148.7044  138.3315  153.3035 H   0  0  0  0  0  0  0  0  0  0  0  0
  149.6098  139.1548  155.4782 H   0  0  0  0  0  0  0  0  0  0  0  0
  148.0348  139.7645  155.9302 H   0  0  0  0  0  0  0  0  0  0  0  0
  152.6174  144.8606  156.4240 H   0  0  0  0  0  0  0  0  0  0  0  0
  153.2257  145.7808  157.8131 H   0  0  0  0  0  0  0  0  0  0  0  0
  151.4808  145.7123  157.4917 H   0  0  0  0  0  0  0  0  0  0  0  0
  1  2  1  0  0  0  0
  1 21  1  0  0  0  0
  1 22  1  0  0  0  0
  1 23  1  0  0  0  0
  2 20  2  0  0  0  0
  2  3  1  0  0  0  0
  3  4  2  0  0  0  0
  3 24  1  0  0  0  0
  4  5  1  0  0  0  0
  4 18  1  0  0  0  0
  5  6  1  0  0  0  0
  5 25  1  0  0  0  0
  6  7  2  0  0  0  0
  6  8  1  0  0  0  0
  8  9  1  0  0  0  0
  8 26  1  0  0  0  0
  9 17  1  0  0  0  0
  9 10  1  0  0  0  0
  9 27  1  0  0  0  0
 10 11  1  0  0  0  0
 10 28  1  0  0  0  0
 10 29  1  0  0  0  0
 11 12  1  0  0  0  0
 11 30  1  0  0  0  0
 11 31  1  0  0  0  0
 12 13  1  0  0  0  0
 12 16  1  0  0  0  0
 13 15  1  0  0  0  0
 13 14  1  0  0  0  0
 13 32  1  0  0  0  0
 14 15  1  0  0  0  0
 14 33  1  0  0  0  0
 14 34  1  0  0  0  0
 15 35  1  0  0  0  0
 15 36  1  0  0  0  0
 16 17  1  0  0  0  0
 16 37  1  0  0  0  0
 16 38  1  0  0  0  0
 17 39  1  0  0  0  0
 17 40  1  0  0  0  0
 18 19  1  0  0  0  0
 18 20  1  0  0  0  0
 19 41  1  0  0  0  0
 19 42  1  0  0  0  0
 19 43  1  0  0  0  0
M  END
> <s_m_source_file>
AV-unprocessed.smi

> <i_m_source_file_index>
1228

> <i_lp_mmshare_version>
43012

> <i_f3d_flags>
0

> <s_epik_input>
W0NIM11jMVtjSF1jKG4objEpW0NIM10pW05IXUMoPU8pW05IXVtDSF0yW0NIMl1bQ0gyXU4oW0NIMl1bQ0gyXTIpW0NIXTNbQ0gyXVtDSDJdMw==

> <s_epik_cmdline>
J2VwaWtfcHl0aG9uJywgJy1waCcsICc3LjAnLCAnLXRuJywgJzgnLCAnLW1hJywgJzIwMCcsICctbWV0YWxfYmluZGluZycsICctaW1hZScsICc8aW5maWxlLm1hZT4nLCAnLW9tYWUnLCAnPG91dGZpbGUubWFlPic=

> <r_lp_tautomer_probability>
1

> <r_epik_Ionization_Penalty>
1.01084

> <r_epik_Ionization_Penalty_Charging>
0

> <r_epik_Ionization_Penalty_Neutral>
1.01084

> <r_epik_State_Penalty>
1.06014

> <r_epik_Charging_Adjusted_Penalty>
1.06014

> <i_epik_Tot_Q>
0

> <i_epik_Tot_abs_Q>
0

> <r_epik_Metal_State_Penalty>
1.06013

> <b_epik_Metal_Only>
0

> <s_lp_Force_Field>
OPLS_2005

> <r_lp_Energy>
22.8061

> <b_lp_Chiralities_Consistent>
1

> <s_lp_Variant>
AV-unprocessed.smi:1228-3

> <Gold.Version>
5.8.1

> <Gold.Id.Protein>
6NUR|6NUR_protein|mol2

> <Gold.PLP.Fitness>
41.8154

> <Gold.PLP.PLP>
-37.4647

> <Gold.PLP.part.hbond>
-2.0000

> <Gold.PLP.part.metal>
0.0000

> <Gold.PLP.part.buried>
-4.2544

> <Gold.PLP.part.nonpolar>
-32.6471

> <Gold.PLP.part.repulsive>
0.4053

> <Gold.PLP.ligand.clash>
0.0000

> <Gold.PLP.ligand.torsion>
1.4085

> <Gold.PLP.Chemscore.Hbond>
2.0000

> <Gold.PLP.Chemscore.CHOScore>
0.0000

> <Gold.PLP.Chemscore.Metal>
0.0000

> <Gold.Chemscore.Hbonds>
donor molecule, donor type, donor heavy atom, donor atom, acceptor molecule, acceptor atom, score
      L1  H     5    25       P1  8028  0.94
      L1  H     8    26       P1  8028  1.00

> <Gold.PLP.Chemscore.Internal.Correction>
1.1678

> <Gold.Rescore>
     Score         DG    S(hbond)    S(metal)    S(lipo)     H(rot)  DE(clash)    DE(int)     intcor
     15.03     -19.81       1.97        0.00      92.54       1.19       1.99       2.80       ----

> <Gold.Chemscore.Fitness>
15.0287

> <Gold.Chemscore.DG>
-19.8122

> <Gold.Chemscore.ZeroCoef>
-5.4800

> <Gold.Chemscore.Hbond>
1.9652

> <Gold.Chemscore.Metal>
0.0000

> <Gold.Chemscore.Lipo>
92.5403

> <Gold.Chemscore.Internal_Hbond>
0.0000

> <Gold.Chemscore.DEClash>
1.9863

> <Gold.Chemscore.DEInternal>
2.7972

> <Gold.Chemscore.Rot>
1.1948

> <Gold.Chemscore.Internal.Correction>
   9.000000E+99

> <Gold.Chemscore.Hbonds>
donor molecule, donor type, donor heavy atom, donor atom, acceptor molecule, acceptor atom, score
      L1  H     5    25       P1  8028  0.89
      L1  H     8    26       P1  8028  0.99

> <Gold.Chemscore.Hbond.Weighted>
-6.5636

> <Gold.Chemscore.Metal.Weighted>
-0.0000

> <Gold.Chemscore.Lipo.Weighted>
-10.8272

> <Gold.Chemscore.Internal_Hbond.Weighted>
0.0000

> <Gold.Chemscore.DEClash.Weighted>
1.9863

> <Gold.Chemscore.DEInternal.Weighted>
2.7972

> <Gold.Chemscore.Rot.Weighted>
3.0587

> <Gold.Chemscore.Internal.Correction.Weighted>
   9.000000E+99

> <Gold.Protein.RotatedTorsions>
[ 6907 6896 6895 6894 ] final   52.13 input  -60.11 | X-H torsion
[ 7974 7965 7964 7962 ] final   17.02 input  175.53 | X-H torsion
[ 8008 7997 7996 7995 ] final -166.90 input   59.86 | X-H torsion
[ 10167 10162 10161 10158 ] final   49.71 input  -65.29 | X-H torsion
[ 10718 10713 10712 10709 ] final   91.55 input   66.30 | X-H torsion
[ 10763 10752 10751 10750 ] final   -5.66 input  -60.55 | X-H torsion
[ 11005 11000 10999 10996 ] final   24.77 input  -57.11 | X-H torsion

> <Gold.Protein.ActiveResidues>
 VAL166  LYS551  ARG553  GLY616  TRP617  ASP618  TYR619  PRO620  LYS621  CYS622 
 ASP623  PHE694  ASN695  SER759  ASP760  ASP761  ALA762  ILE779  LEU786  VAL792 
 PHE793  MET794  SER795  GLU796  ALA797  LYS798  CYS799  TRP800  GLU811  SER814 

> <Gold.Protein.RotatedAtoms>
  152.3200  134.7392  160.0315 H   0  0  0  0  0  0  0  0  0  0  0  0  # atno 6907 bound_to 6896
  151.7844  133.3347  159.3489 H   0  0  0  0  0  0  0  0  0  0  0  0  # atno 6908 bound_to 6896
  150.7365  134.5832  159.5994 H   0  0  0  0  0  0  0  0  0  0  0  0  # atno 6909 bound_to 6896
  146.2231  139.8662  142.8595 H   0  0  0  0  0  0  0  0  0  0  0  0  # atno 7974 bound_to 7965
  155.8703  140.0992  157.1555 H   0  0  0  0  0  0  0  0  0  0  0  0  # atno 8008 bound_to 7997
  154.3996  140.1348  156.4132 H   0  0  0  0  0  0  0  0  0  0  0  0  # atno 8009 bound_to 7997
  155.7758  140.3459  155.5273 H   0  0  0  0  0  0  0  0  0  0  0  0  # atno 8010 bound_to 7997
  140.2801  144.3166  150.6266 H   0  0  0  0  0  0  0  0  0  0  0  0  # atno 10167 bound_to 10162
  157.6960  131.0411  150.3747 H   0  0  0  0  0  0  0  0  0  0  0  0  # atno 10718 bound_to 10713
  153.4016  135.7005  153.6422 H   0  0  0  0  0  0  0  0  0  0  0  0  # atno 10763 bound_to 10752
  153.4953  135.3664  155.2513 H   0  0  0  0  0  0  0  0  0  0  0  0  # atno 10764 bound_to 10752
  154.8711  135.4099  154.3352 H   0  0  0  0  0  0  0  0  0  0  0  0  # atno 10765 bound_to 10752
  140.3551  134.2186  155.7676 H   0  0  0  0  0  0  0  0  0  0  0  0  # atno 11005 bound_to 11000
  145.2654  141.0091  143.3802 LP  0  0  0  0  0  0  0  0  0  0  0  0  # atno 17320 bound_to 7965
  144.9265  139.4349  143.6516 LP  0  0  0  0  0  0  0  0  0  0  0  0  # atno 17321 bound_to 7965
  140.5819  143.2172  151.7413 LP  0  0  0  0  0  0  0  0  0  0  0  0  # atno 17342 bound_to 10162
  139.4965  144.4068  152.0123 LP  0  0  0  0  0  0  0  0  0  0  0  0  # atno 17343 bound_to 10162
  156.4168  130.3945  149.6853 LP  0  0  0  0  0  0  0  0  0  0  0  0  # atno 17370 bound_to 10713
  156.4118  130.7726  151.2739 LP  0  0  0  0  0  0  0  0  0  0  0  0  # atno 17371 bound_to 10713
  141.2001  133.7996  157.0506 LP  0  0  0  0  0  0  0  0  0  0  0  0  # atno 17394 bound_to 11000
  140.0672  134.9722  157.1405 LP  0  0  0  0  0  0  0  0  0  0  0  0  # atno 17395 bound_to 11000

$$$$
