AV-unprocessed.smi:1890|AV-procd|sdf|7664|dock3
  -GOLD-   22720 9403D 1   1.00000     0.00000
 Structure written by MMmdl.
 51 52  0  0  0  0  0  0  0  0  1 V2000
  153.1915  142.2006  161.6392 C   0  0  0  0  0  0  0  0  0  0  0  0
  153.5847  141.5853  160.2870 C   0  0  0  0  0  0  0  0  0  0  0  0
  152.6566  141.9273  159.2082 N   0  0  0  0  0  0  0  0  0  0  0  0
  151.8610  143.1447  159.3754 C   0  0  0  0  0  0  0  0  0  0  0  0
  152.5043  144.3675  158.7048 C   0  0  0  0  0  0  0  0  0  0  0  0
  152.0538  140.8974  158.4473 C   0  0  0  0  0  0  0  0  0  0  0  0
  150.6514  140.8144  158.2619 C   0  0  0  0  0  0  0  0  0  0  0  0
  150.1223  139.7688  157.4820 C   0  0  0  0  0  0  0  0  0  0  0  0
  150.9944  138.8239  156.9092 C   0  0  0  0  0  0  0  0  0  0  0  0
  150.4304  137.7964  156.1053 N   0  0  0  0  0  0  0  0  0  0  0  0
  150.9136  136.5684  155.8504 C   0  0  0  0  0  0  0  0  0  0  0  0
  151.9310  136.0851  156.3464 O   0  0  0  0  0  0  0  0  0  0  0  0
  150.1259  135.9089  154.9891 N   0  0  0  0  0  0  0  0  0  0  0  0
  150.3592  134.5529  154.5016 C   0  0  0  0  0  0  0  0  0  0  0  0
  149.1139  134.0564  153.7357 C   0  0  0  0  0  0  0  0  0  0  0  0
  149.2368  132.5655  153.3724 C   0  0  0  0  0  0  0  0  0  0  0  0
  149.4699  131.7990  154.6014 N   0  0  0  0  0  0  0  0  0  0  0  0
  148.5299  130.9929  155.1511 C   0  0  0  0  0  0  0  0  0  0  0  0
  147.1997  130.7895  154.4226 C   0  0  0  0  0  0  0  0  0  0  0  0
  148.6998  130.4048  156.2192 O   0  0  0  0  0  0  0  0  0  0  0  0
  150.7604  132.1399  155.2127 C   0  0  0  0  0  0  0  0  0  0  0  0
  150.7182  133.6082  155.6721 C   0  0  0  0  0  0  0  0  0  0  0  0
  152.3802  138.9904  157.1397 C   0  0  0  0  0  0  0  0  0  0  0  0
  152.8910  139.9929  157.8848 N   0  0  0  0  0  0  0  0  0  0  0  0
  153.8836  141.8830  162.4191 H   0  0  0  0  0  0  0  0  0  0  0  0
  152.1919  141.8820  161.9360 H   0  0  0  0  0  0  0  0  0  0  0  0
  153.2011  143.2898  161.6189 H   0  0  0  0  0  0  0  0  0  0  0  0
  154.5994  141.8743  160.0132 H   0  0  0  0  0  0  0  0  0  0  0  0
  153.6094  140.5008  160.3987 H   0  0  0  0  0  0  0  0  0  0  0  0
  150.8745  142.9754  158.9427 H   0  0  0  0  0  0  0  0  0  0  0  0
  151.6805  143.3504  160.4306 H   0  0  0  0  0  0  0  0  0  0  0  0
  151.8812  145.2517  158.8386 H   0  0  0  0  0  0  0  0  0  0  0  0
  152.6332  144.2125  157.6336 H   0  0  0  0  0  0  0  0  0  0  0  0
  153.4830  144.5863  159.1332 H   0  0  0  0  0  0  0  0  0  0  0  0
  149.9728  141.5353  158.6907 H   0  0  0  0  0  0  0  0  0  0  0  0
  149.0557  139.6975  157.3265 H   0  0  0  0  0  0  0  0  0  0  0  0
  149.5356  138.0148  155.6922 H   0  0  0  0  0  0  0  0  0  0  0  0
  149.3052  136.3814  154.6394 H   0  0  0  0  0  0  0  0  0  0  0  0
  151.1943  134.5620  153.7983 H   0  0  0  0  0  0  0  0  0  0  0  0
  148.2211  134.2000  154.3464 H   0  0  0  0  0  0  0  0  0  0  0  0
  148.9685  134.6491  152.8320 H   0  0  0  0  0  0  0  0  0  0  0  0
  148.3463  132.2400  152.8334 H   0  0  0  0  0  0  0  0  0  0  0  0
  150.0708  132.4131  152.6859 H   0  0  0  0  0  0  0  0  0  0  0  0
  147.3632  130.3854  153.4234 H   0  0  0  0  0  0  0  0  0  0  0  0
  146.6559  131.7310  154.3415 H   0  0  0  0  0  0  0  0  0  0  0  0
  146.5681  130.0858  154.9662 H   0  0  0  0  0  0  0  0  0  0  0  0
  151.0320  131.4960  156.0478 H   0  0  0  0  0  0  0  0  0  0  0  0
  151.5528  132.0054  154.4748 H   0  0  0  0  0  0  0  0  0  0  0  0
  151.6806  133.8895  156.1011 H   0  0  0  0  0  0  0  0  0  0  0  0
  149.9822  133.7111  156.4709 H   0  0  0  0  0  0  0  0  0  0  0  0
  153.1176  138.3324  156.7082 H   0  0  0  0  0  0  0  0  0  0  0  0
  1  2  1  0  0  0  0
  1 25  1  0  0  0  0
  1 26  1  0  0  0  0
  1 27  1  0  0  0  0
  2  3  1  0  0  0  0
  2 28  1  0  0  0  0
  2 29  1  0  0  0  0
  3  4  1  0  0  0  0
  3  6  1  0  0  0  0
  4  5  1  0  0  0  0
  4 30  1  0  0  0  0
  4 31  1  0  0  0  0
  5 32  1  0  0  0  0
  5 33  1  0  0  0  0
  5 34  1  0  0  0  0
  6 24  1  0  0  0  0
  6  7  2  0  0  0  0
  7  8  1  0  0  0  0
  7 35  1  0  0  0  0
  8  9  2  0  0  0  0
  8 36  1  0  0  0  0
  9 10  1  0  0  0  0
  9 23  1  0  0  0  0
 10 11  1  0  0  0  0
 10 37  1  0  0  0  0
 11 12  2  0  0  0  0
 11 13  1  0  0  0  0
 13 14  1  0  0  0  0
 13 38  1  0  0  0  0
 14 22  1  0  0  0  0
 14 15  1  0  0  0  0
 14 39  1  0  0  0  0
 15 16  1  0  0  0  0
 15 40  1  0  0  0  0
 15 41  1  0  0  0  0
 16 17  1  0  0  0  0
 16 42  1  0  0  0  0
 16 43  1  0  0  0  0
 17 18  1  0  0  0  0
 17 21  1  0  0  0  0
 18 19  1  0  0  0  0
 18 20  2  0  0  0  0
 19 44  1  0  0  0  0
 19 45  1  0  0  0  0
 19 46  1  0  0  0  0
 21 22  1  0  0  0  0
 21 47  1  0  0  0  0
 21 48  1  0  0  0  0
 22 49  1  0  0  0  0
 22 50  1  0  0  0  0
 23 24  2  0  0  0  0
 23 51  1  0  0  0  0
M  END
> <s_m_source_file>
AV-unprocessed.smi

> <i_m_source_file_index>
1890

> <i_lp_mmshare_version>
43012

> <i_f3d_flags>
0

> <s_epik_input>
W0NIM11bQ0gyXU4oW0NIMl1bQ0gzXSljMVtjSF1bY0hdYyhbY0hdbjEpW05IXUMoPU8pW05IXVtDSF0yW0NIMl1bQ0gyXU4oQyg9TylbQ0gzXSlbQ0gyXVtDSDJdMg==

> <s_epik_cmdline>
J2VwaWtfcHl0aG9uJywgJy1waCcsICc3LjAnLCAnLXRuJywgJzgnLCAnLW1hJywgJzIwMCcsICctbWV0YWxfYmluZGluZycsICctaW1hZScsICc8aW5maWxlLm1hZT4nLCAnLW9tYWUnLCAnPG91dGZpbGUubWFlPic=

> <r_lp_tautomer_probability>
1

> <r_epik_Ionization_Penalty>
0.700493

> <r_epik_Ionization_Penalty_Charging>
0

> <r_epik_Ionization_Penalty_Neutral>
0.700493

> <r_epik_State_Penalty>
2.19132

> <r_epik_Charging_Adjusted_Penalty>
2.19132

> <i_epik_Tot_Q>
0

> <i_epik_Tot_abs_Q>
0

> <r_epik_Metal_State_Penalty>
1.54624

> <b_epik_Metal_Only>
0

> <s_lp_Force_Field>
OPLS_2005

> <r_lp_Energy>
30.5228

> <b_lp_Chiralities_Consistent>
1

> <s_lp_Variant>
AV-unprocessed.smi:1890-2

> <Gold.Version>
5.8.1

> <Gold.Id.Protein>
6NUR|6NUR_protein|mol2

> <Gold.PLP.Fitness>
45.7764

> <Gold.PLP.PLP>
-41.2701

> <Gold.PLP.part.hbond>
-2.0000

> <Gold.PLP.part.metal>
0.0000

> <Gold.PLP.part.buried>
-3.9321

> <Gold.PLP.part.nonpolar>
-35.1265

> <Gold.PLP.part.repulsive>
0.0620

> <Gold.PLP.ligand.clash>
0.0000

> <Gold.PLP.ligand.torsion>
1.2410

> <Gold.PLP.Chemscore.Hbond>
2.0000

> <Gold.PLP.Chemscore.CHOScore>
0.0000

> <Gold.PLP.Chemscore.Metal>
0.0000

> <Gold.Chemscore.Hbonds>
donor molecule, donor type, donor heavy atom, donor atom, acceptor molecule, acceptor atom, score
      P1  H  7997  8008       L1    24  0.70
      P1  H 10752 10763       L1    12  1.00

> <Gold.PLP.Chemscore.Internal.Correction>
0.9882

> <Gold.Rescore>
     Score         DG    S(hbond)    S(metal)    S(lipo)     H(rot)  DE(clash)    DE(int)     intcor
     16.58     -19.43       1.91        0.00      93.77       1.33       0.07       2.78       ----

> <Gold.Chemscore.Fitness>
16.5820

> <Gold.Chemscore.DG>
-19.4322

> <Gold.Chemscore.ZeroCoef>
-5.4800

> <Gold.Chemscore.Hbond>
1.9115

> <Gold.Chemscore.Metal>
0.0000

> <Gold.Chemscore.Lipo>
93.7708

> <Gold.Chemscore.Internal_Hbond>
0.0000

> <Gold.Chemscore.DEClash>
0.0663

> <Gold.Chemscore.DEInternal>
2.7839

> <Gold.Chemscore.Rot>
1.3294

> <Gold.Chemscore.Internal.Correction>
   9.000000E+99

> <Gold.Chemscore.Hbonds>
donor molecule, donor type, donor heavy atom, donor atom, acceptor molecule, acceptor atom, score
      P1  H  7997  8008       L1    24  0.07
      P1  H 10752 10763       L1    12  0.48

> <Gold.Chemscore.Hbond.Weighted>
-6.3844

> <Gold.Chemscore.Metal.Weighted>
-0.0000

> <Gold.Chemscore.Lipo.Weighted>
-10.9712

> <Gold.Chemscore.Internal_Hbond.Weighted>
0.0000

> <Gold.Chemscore.DEClash.Weighted>
0.0663

> <Gold.Chemscore.DEInternal.Weighted>
2.7839

> <Gold.Chemscore.Rot.Weighted>
3.4034

> <Gold.Chemscore.Internal.Correction.Weighted>
   9.000000E+99

> <Gold.Protein.RotatedTorsions>
[ 6907 6896 6895 6894 ] final   79.88 input  -60.11 | X-H torsion
[ 7974 7965 7964 7962 ] final  -63.11 input  175.53 | X-H torsion
[ 8008 7997 7996 7995 ] final  -77.36 input   59.86 | X-H torsion
[ 10167 10162 10161 10158 ] final   57.16 input  -65.29 | X-H torsion
[ 10718 10713 10712 10709 ] final   38.96 input   66.30 | X-H torsion
[ 10763 10752 10751 10750 ] final   72.80 input  -60.55 | X-H torsion
[ 11005 11000 10999 10996 ] final  172.52 input  -57.11 | X-H torsion

> <Gold.Protein.ActiveResidues>
 VAL166  LYS551  ARG553  GLY616  TRP617  ASP618  TYR619  PRO620  LYS621  CYS622 
 ASP623  PHE694  ASN695  SER759  ASP760  ASP761  ALA762  ILE779  LEU786  VAL792 
 PHE793  MET794  SER795  GLU796  ALA797  LYS798  CYS799  TRP800  GLU811  SER814 

> <Gold.Protein.RotatedAtoms>
  152.5215  134.3443  159.9227 H   0  0  0  0  0  0  0  0  0  0  0  0  # atno 6907 bound_to 6896
  151.3393  133.3962  159.2677 H   0  0  0  0  0  0  0  0  0  0  0  0  # atno 6908 bound_to 6896
  150.9816  134.9188  159.7905 H   0  0  0  0  0  0  0  0  0  0  0  0  # atno 6909 bound_to 6896
  145.7831  140.8751  143.0320 H   0  0  0  0  0  0  0  0  0  0  0  0  # atno 7974 bound_to 7965
  154.5589  140.0712  156.8788 H   0  0  0  0  0  0  0  0  0  0  0  0  # atno 8008 bound_to 7997
  155.2849  140.3374  155.4238 H   0  0  0  0  0  0  0  0  0  0  0  0  # atno 8009 bound_to 7997
  156.2026  140.1727  156.7854 H   0  0  0  0  0  0  0  0  0  0  0  0  # atno 8010 bound_to 7997
  140.2009  144.3989  150.6529 H   0  0  0  0  0  0  0  0  0  0  0  0  # atno 10167 bound_to 10162
  157.3649  130.7670  149.7075 H   0  0  0  0  0  0  0  0  0  0  0  0  # atno 10718 bound_to 10713
  153.0481  135.5086  154.7798 H   0  0  0  0  0  0  0  0  0  0  0  0  # atno 10763 bound_to 10752
  154.6682  135.2949  154.9780 H   0  0  0  0  0  0  0  0  0  0  0  0  # atno 10764 bound_to 10752
  154.0607  135.6691  153.4864 H   0  0  0  0  0  0  0  0  0  0  0  0  # atno 10765 bound_to 10752
  140.3306  134.7361  157.4131 H   0  0  0  0  0  0  0  0  0  0  0  0  # atno 11005 bound_to 11000
  144.6793  140.0017  143.7484 LP  0  0  0  0  0  0  0  0  0  0  0  0  # atno 17320 bound_to 7965
  146.0054  139.3125  143.0902 LP  0  0  0  0  0  0  0  0  0  0  0  0  # atno 17321 bound_to 7965
  140.6391  143.2200  151.6330 LP  0  0  0  0  0  0  0  0  0  0  0  0  # atno 17342 bound_to 10162
  139.5217  144.3183  152.0932 LP  0  0  0  0  0  0  0  0  0  0  0  0  # atno 17343 bound_to 10162
  155.9744  130.4103  150.3924 LP  0  0  0  0  0  0  0  0  0  0  0  0  # atno 17370 bound_to 10713
  157.2007  131.0437  151.2652 LP  0  0  0  0  0  0  0  0  0  0  0  0  # atno 17371 bound_to 10713
  140.0864  134.5661  155.8488 LP  0  0  0  0  0  0  0  0  0  0  0  0  # atno 17394 bound_to 11000
  141.2064  133.6655  156.6241 LP  0  0  0  0  0  0  0  0  0  0  0  0  # atno 17395 bound_to 11000

$$$$
