AV-unprocessed.smi:1389|AV-procd|sdf|5654|dock8
  -GOLD-   22720 5273D 1   1.00000     0.00000
 Structure written by MMmdl.
 52 54  0  0  0  0  0  0  0  0  4 V2000
  154.8296  136.2369  159.1328 C   0  0  0  0  0  0  0  0  0  0  0  0
  153.9110  137.3892  159.6023 C   0  0  2  0  0  0  0  0  0  0  0  0
  153.9014  138.6076  158.6197 C   0  0  0  0  0  0  0  0  0  0  0  0
  153.8346  138.1547  157.2291 N   0  5  0  0  0  0  0  0  0  0  0  0
  152.8582  138.5015  156.3484 C   0  0  0  0  0  0  0  0  0  0  0  0
  152.4759  137.8698  155.3563 O   0  0  0  0  0  0  0  0  0  0  0  0
  152.2831  139.6733  156.6672 N   0  0  0  0  0  0  0  0  0  0  0  0
  151.1734  140.3087  156.0447 C   0  0  0  0  0  0  0  0  0  0  0  0
  150.3616  139.6099  155.1159 C   0  0  0  0  0  0  0  0  0  0  0  0
  149.3133  140.2792  154.4571 C   0  0  0  0  0  0  0  0  0  0  0  0
  149.1049  141.6434  154.7230 C   0  0  0  0  0  0  0  0  0  0  0  0
  149.9050  142.2841  155.6004 N   0  3  0  0  0  0  0  0  0  0  0  0
  150.9203  141.6911  156.2777 C   0  0  0  0  0  0  0  0  0  0  0  0
  151.6696  142.4864  157.1746 N   0  0  0  0  0  0  0  0  0  0  0  0
  151.5502  143.9393  157.1528 C   0  0  0  0  0  0  0  0  0  0  0  0
  152.2069  144.4095  158.4479 C   0  0  0  0  0  0  0  0  0  0  0  0
  151.8458  143.2930  159.4232 C   0  0  0  0  0  0  0  0  0  0  0  0
  151.8488  142.0332  158.5509 C   0  0  0  0  0  0  0  0  0  0  0  0
  154.1910  137.7114  161.0432 N   0  3  0  0  0  0  0  0  0  0  0  0
  154.1614  136.5917  162.0256 C   0  0  0  0  0  0  0  0  0  0  0  0
  154.2028  137.1511  163.4570 C   0  0  0  0  0  0  0  0  0  0  0  0
  155.3597  137.9631  163.6217 O   0  0  0  0  0  0  0  0  0  0  0  0
  155.3578  139.0838  162.7448 C   0  0  0  0  0  0  0  0  0  0  0  0
  155.3580  138.6010  161.2853 C   0  0  0  0  0  0  0  0  0  0  0  0
  154.5230  135.8361  158.1647 H   0  0  0  0  0  0  0  0  0  0  0  0
  154.7934  135.4060  159.8380 H   0  0  0  0  0  0  0  0  0  0  0  0
  155.8740  136.5397  159.0435 H   0  0  0  0  0  0  0  0  0  0  0  0
  152.9030  136.9712  159.6053 H   0  0  0  0  0  0  0  0  0  0  0  0
  153.0628  139.2603  158.8642 H   0  0  0  0  0  0  0  0  0  0  0  0
  154.7898  139.2135  158.7981 H   0  0  0  0  0  0  0  0  0  0  0  0
  152.5885  140.0799  157.5395 H   0  0  0  0  0  0  0  0  0  0  0  0
  150.5443  138.5712  154.8846 H   0  0  0  0  0  0  0  0  0  0  0  0
  148.6882  139.7553  153.7489 H   0  0  0  0  0  0  0  0  0  0  0  0
  148.3319  142.2397  154.2607 H   0  0  0  0  0  0  0  0  0  0  0  0
  152.0356  144.3660  156.2744 H   0  0  0  0  0  0  0  0  0  0  0  0
  150.5002  144.2352  157.1453 H   0  0  0  0  0  0  0  0  0  0  0  0
  153.2896  144.4573  158.3220 H   0  0  0  0  0  0  0  0  0  0  0  0
  151.8576  145.3906  158.7710 H   0  0  0  0  0  0  0  0  0  0  0  0
  152.5322  143.2250  160.2676 H   0  0  0  0  0  0  0  0  0  0  0  0
  150.8433  143.4631  159.8183 H   0  0  0  0  0  0  0  0  0  0  0  0
  151.0701  141.3345  158.8605 H   0  0  0  0  0  0  0  0  0  0  0  0
  152.8110  141.5260  158.6316 H   0  0  0  0  0  0  0  0  0  0  0  0
  153.2609  135.9918  161.8984 H   0  0  0  0  0  0  0  0  0  0  0  0
  155.0145  135.9283  161.8771 H   0  0  0  0  0  0  0  0  0  0  0  0
  153.3035  137.7292  163.6758 H   0  0  0  0  0  0  0  0  0  0  0  0
  154.2393  136.3345  164.1781 H   0  0  0  0  0  0  0  0  0  0  0  0
  154.4916  139.7161  162.9461 H   0  0  0  0  0  0  0  0  0  0  0  0
  156.2442  139.6875  162.9402 H   0  0  0  0  0  0  0  0  0  0  0  0
  156.2891  138.0730  161.0765 H   0  0  0  0  0  0  0  0  0  0  0  0
  155.3200  139.4616  160.6165 H   0  0  0  0  0  0  0  0  0  0  0  0
  153.4005  138.2844  161.3013 H   0  0  0  0  0  0  0  0  0  0  0  0
  149.7304  143.2744  155.7706 H   0  0  0  0  0  0  0  0  0  0  0  0
  1  2  1  0  0  0  0
  1 25  1  0  0  0  0
  1 26  1  0  0  0  0
  1 27  1  0  0  0  0
  2  3  1  0  0  0  0
  2 19  1  0  0  0  0
  2 28  1  0  0  0  0
  3  4  1  0  0  0  0
  3 29  1  0  0  0  0
  3 30  1  0  0  0  0
  4  5  1  0  0  0  0
  5  6  2  0  0  0  0
  5  7  1  0  0  0  0
  7  8  1  0  0  0  0
  7 31  1  0  0  0  0
  8 13  1  0  0  0  0
  8  9  2  0  0  0  0
  9 10  1  0  0  0  0
  9 32  1  0  0  0  0
 10 11  2  0  0  0  0
 10 33  1  0  0  0  0
 11 12  1  0  0  0  0
 11 34  1  0  0  0  0
 12 13  2  0  0  0  0
 12 52  1  0  0  0  0
 13 14  1  0  0  0  0
 14 18  1  0  0  0  0
 14 15  1  0  0  0  0
 15 16  1  0  0  0  0
 15 35  1  0  0  0  0
 15 36  1  0  0  0  0
 16 17  1  0  0  0  0
 16 37  1  0  0  0  0
 16 38  1  0  0  0  0
 17 18  1  0  0  0  0
 17 39  1  0  0  0  0
 17 40  1  0  0  0  0
 18 41  1  0  0  0  0
 18 42  1  0  0  0  0
 19 24  1  0  0  0  0
 19 20  1  0  0  0  0
 19 51  1  0  0  0  0
 20 21  1  0  0  0  0
 20 43  1  0  0  0  0
 20 44  1  0  0  0  0
 21 22  1  0  0  0  0
 21 45  1  0  0  0  0
 21 46  1  0  0  0  0
 22 23  1  0  0  0  0
 23 24  1  0  0  0  0
 23 47  1  0  0  0  0
 23 48  1  0  0  0  0
 24 49  1  0  0  0  0
 24 50  1  0  0  0  0
M  CHG  1   4  -1
M  CHG  1  12   1
M  CHG  1  19   1
M  END
> <s_m_source_file>
AV-unprocessed.smi

> <i_m_source_file_index>
1389

> <i_lp_mmshare_version>
43012

> <i_f3d_flags>
0

> <s_epik_input>
W0NIMl0xW0NIMl1PW0NIMl1bQ0gyXU4xW0NASF0oW0NIM10pW0NIMl1bTkhdQyg9TylbTkhdYzJbY0hdW2NIXVtjSF1uYzJOM1tDSDJdW0NIMl1bQ0gyXVtDSDJdMw==

> <s_epik_cmdline>
J2VwaWtfcHl0aG9uJywgJy1waCcsICc3LjAnLCAnLXRuJywgJzgnLCAnLW1hJywgJzIwMCcsICctbWV0YWxfYmluZGluZycsICctaW1hZScsICc8aW5maWxlLm1hZT4nLCAnLW9tYWUnLCAnPG91dGZpbGUubWFlPic=

> <r_lp_tautomer_probability>
0.999994

> <r_epik_Ionization_Penalty>
8.58362

> <r_epik_Ionization_Penalty_Charging>
8.58361

> <r_epik_Ionization_Penalty_Neutral>
3.55275e-06

> <r_epik_State_Penalty>
8.57766

> <r_epik_Charging_Adjusted_Penalty>
17.1613

> <i_epik_Tot_Q>
1

> <i_epik_Tot_abs_Q>
3

> <r_epik_Metal_State_Penalty>
4.57399

> <b_epik_Metal_Only>
1

> <s_lp_Force_Field>
OPLS_2005

> <r_lp_Energy>
52.6414

> <b_lp_Chiralities_Consistent>
1

> <s_lp_Variant>
AV-unprocessed.smi:1389-9

> <Gold.Version>
5.8.1

> <Gold.Id.Protein>
6NUR|6NUR_protein|mol2

> <Gold.PLP.Fitness>
45.9344

> <Gold.PLP.PLP>
-40.4957

> <Gold.PLP.part.hbond>
-2.5372

> <Gold.PLP.part.metal>
0.0000

> <Gold.PLP.part.buried>
0.1270

> <Gold.PLP.part.nonpolar>
-37.3122

> <Gold.PLP.part.repulsive>
0.4512

> <Gold.PLP.ligand.clash>
0.0428

> <Gold.PLP.ligand.torsion>
0.6521

> <Gold.PLP.Chemscore.Hbond>
2.0000

> <Gold.PLP.Chemscore.CHOScore>
0.0000

> <Gold.PLP.Chemscore.Metal>
0.0000

> <Gold.Chemscore.Hbonds>
donor molecule, donor type, donor heavy atom, donor atom, acceptor molecule, acceptor atom, score
      L1  H    12    52       P1  8028  2.00

> <Gold.PLP.Chemscore.Internal.Correction>
0.7858

> <Gold.Rescore>
     Score         DG    S(hbond)    S(metal)    S(lipo)     H(rot)  DE(clash)    DE(int)     intcor
     15.54     -17.79       1.09        0.00     109.86       1.63       0.20       2.05       ----

> <Gold.Chemscore.Fitness>
15.5425

> <Gold.Chemscore.DG>
-17.7910

> <Gold.Chemscore.ZeroCoef>
-5.4800

> <Gold.Chemscore.Hbond>
1.0875

> <Gold.Chemscore.Metal>
0.0000

> <Gold.Chemscore.Lipo>
109.8561

> <Gold.Chemscore.Internal_Hbond>
0.0000

> <Gold.Chemscore.DEClash>
0.2006

> <Gold.Chemscore.DEInternal>
2.0480

> <Gold.Chemscore.Rot>
1.6307

> <Gold.Chemscore.Internal.Correction>
   9.000000E+99

> <Gold.Chemscore.Hbonds>
donor molecule, donor type, donor heavy atom, donor atom, acceptor molecule, acceptor atom, score
      L1  H    12    52       P1  8028  0.98

> <Gold.Chemscore.Hbond.Weighted>
-3.6324

> <Gold.Chemscore.Metal.Weighted>
-0.0000

> <Gold.Chemscore.Lipo.Weighted>
-12.8532

> <Gold.Chemscore.Internal_Hbond.Weighted>
0.0000

> <Gold.Chemscore.DEClash.Weighted>
0.2006

> <Gold.Chemscore.DEInternal.Weighted>
2.0480

> <Gold.Chemscore.Rot.Weighted>
4.1746

> <Gold.Chemscore.Internal.Correction.Weighted>
   9.000000E+99

> <Gold.Protein.RotatedTorsions>
[ 6907 6896 6895 6894 ] final  -22.71 input  -60.11 | X-H torsion
[ 7974 7965 7964 7962 ] final   24.43 input  175.53 | X-H torsion
[ 8008 7997 7996 7995 ] final  117.11 input   59.86 | X-H torsion
[ 10167 10162 10161 10158 ] final  -72.46 input  -65.29 | X-H torsion
[ 10718 10713 10712 10709 ] final -114.75 input   66.30 | X-H torsion
[ 10763 10752 10751 10750 ] final  -90.19 input  -60.55 | X-H torsion
[ 11005 11000 10999 10996 ] final -152.66 input  -57.11 | X-H torsion

> <Gold.Protein.ActiveResidues>
 VAL166  LYS551  ARG553  GLY616  TRP617  ASP618  TYR619  PRO620  LYS621  CYS622 
 ASP623  PHE694  ASN695  SER759  ASP760  ASP761  ALA762  ILE779  LEU786  VAL792 
 PHE793  MET794  SER795  GLU796  ALA797  LYS798  CYS799  TRP800  GLU811  SER814 

> <Gold.Protein.RotatedAtoms>
  151.2146  135.0495  159.8924 H   0  0  0  0  0  0  0  0  0  0  0  0  # atno 6907 bound_to 6896
  152.5421  134.0707  159.8203 H   0  0  0  0  0  0  0  0  0  0  0  0  # atno 6908 bound_to 6896
  151.0865  133.5301  159.2649 H   0  0  0  0  0  0  0  0  0  0  0  0  # atno 6909 bound_to 6896
  146.1938  139.7606  142.8812 H   0  0  0  0  0  0  0  0  0  0  0  0  # atno 7974 bound_to 7965
  156.2476  140.2903  156.0627 H   0  0  0  0  0  0  0  0  0  0  0  0  # atno 8008 bound_to 7997
  155.1758  140.0403  157.2889 H   0  0  0  0  0  0  0  0  0  0  0  0  # atno 8009 bound_to 7997
  154.6294  140.2495  155.7459 H   0  0  0  0  0  0  0  0  0  0  0  0  # atno 8010 bound_to 7997
  140.5190  143.2334  151.7463 H   0  0  0  0  0  0  0  0  0  0  0  0  # atno 10167 bound_to 10162
  156.0850  130.6044  150.8816 H   0  0  0  0  0  0  0  0  0  0  0  0  # atno 10718 bound_to 10713
  154.6632  135.5313  153.8044 H   0  0  0  0  0  0  0  0  0  0  0  0  # atno 10763 bound_to 10752
  153.0455  135.6511  154.0839 H   0  0  0  0  0  0  0  0  0  0  0  0  # atno 10764 bound_to 10752
  154.0746  135.2951  155.3282 H   0  0  0  0  0  0  0  0  0  0  0  0  # atno 10765 bound_to 10752
  140.7165  134.3774  157.5190 H   0  0  0  0  0  0  0  0  0  0  0  0  # atno 11005 bound_to 11000
  145.3710  141.0342  143.3231 LP  0  0  0  0  0  0  0  0  0  0  0  0  # atno 17320 bound_to 7965
  144.8538  139.5280  143.6844 LP  0  0  0  0  0  0  0  0  0  0  0  0  # atno 17321 bound_to 7965
  139.4918  144.4282  151.9902 LP  0  0  0  0  0  0  0  0  0  0  0  0  # atno 17342 bound_to 10162
  140.3378  144.3240  150.5973 LP  0  0  0  0  0  0  0  0  0  0  0  0  # atno 17343 bound_to 10162
  157.5982  131.0942  150.9006 LP  0  0  0  0  0  0  0  0  0  0  0  0  # atno 17370 bound_to 10713
  156.9168  130.5300  149.5279 LP  0  0  0  0  0  0  0  0  0  0  0  0  # atno 17371 bound_to 10713
  139.8858  134.8926  156.2619 LP  0  0  0  0  0  0  0  0  0  0  0  0  # atno 17394 bound_to 11000
  141.0040  133.7135  156.1005 LP  0  0  0  0  0  0  0  0  0  0  0  0  # atno 17395 bound_to 11000

$$$$
