AV-unprocessed.smi:3316|AV-procd|sdf|12757|dock6
  -GOLD-   2272019 93D 1   1.00000     0.00000
 Structure written by MMmdl.
 41 43  0  0  0  0  0  0  0  0  2 V2000
  146.4013  135.7056  153.8137 C   0  0  0  0  0  0  0  0  0  0  0  0
  145.8759  135.9283  152.3868 C   0  0  2  0  0  0  0  0  0  0  0  0
  144.7292  136.9574  152.3619 C   0  0  0  0  0  0  0  0  0  0  0  0
  145.1415  138.2473  152.9523 N   0  3  0  0  0  0  0  0  0  0  0  0
  146.4599  138.7240  152.4921 C   0  0  0  0  0  0  0  0  0  0  0  0
  147.2293  139.4193  153.6299 C   0  0  2  0  0  0  0  0  0  0  0  0
  146.3199  139.9084  154.8022 C   0  0  0  0  0  0  0  0  0  0  0  0
  146.6599  141.4129  154.9081 C   0  0  1  0  0  0  0  0  0  0  0  0
  148.1070  141.5403  155.3348 C   0  0  0  0  0  0  0  0  0  0  0  0
  148.8597  141.1442  154.3067 C   0  0  0  0  0  0  0  0  0  0  0  0
  147.9196  140.7371  153.1906 C   0  0  2  0  0  0  0  0  0  0  0  0
  146.7903  141.7502  153.4203 C   0  0  0  0  0  0  0  0  0  0  0  0
  145.4800  134.6103  151.7321 C   0  0  0  0  0  0  0  0  0  0  0  0
  146.4521  133.6233  151.4646 C   0  0  0  0  0  0  0  0  0  0  0  0
  146.0431  132.4206  150.8542 C   0  0  0  0  0  0  0  0  0  0  0  0
  144.7642  132.1633  150.5074 N   0  0  0  0  0  0  0  0  0  0  0  0
  143.8368  133.1095  150.7662 C   0  0  0  0  0  0  0  0  0  0  0  0
  144.1407  134.3453  151.3719 C   0  0  0  0  0  0  0  0  0  0  0  0
  147.2490  135.0196  153.8152 H   0  0  0  0  0  0  0  0  0  0  0  0
  145.6342  135.2871  154.4659 H   0  0  0  0  0  0  0  0  0  0  0  0
  146.7373  136.6426  154.2586 H   0  0  0  0  0  0  0  0  0  0  0  0
  146.7014  136.3477  151.8092 H   0  0  0  0  0  0  0  0  0  0  0  0
  144.3839  137.1220  151.3403 H   0  0  0  0  0  0  0  0  0  0  0  0
  143.8784  136.5725  152.9254 H   0  0  0  0  0  0  0  0  0  0  0  0
  144.4497  138.9449  152.7176 H   0  0  0  0  0  0  0  0  0  0  0  0
  147.0330  137.8680  152.1335 H   0  0  0  0  0  0  0  0  0  0  0  0
  146.3262  139.3956  151.6437 H   0  0  0  0  0  0  0  0  0  0  0  0
  147.9866  138.7276  154.0042 H   0  0  0  0  0  0  0  0  0  0  0  0
  145.2617  139.7737  154.5731 H   0  0  0  0  0  0  0  0  0  0  0  0
  146.5266  139.3772  155.7321 H   0  0  0  0  0  0  0  0  0  0  0  0
  145.9586  142.0308  155.4693 H   0  0  0  0  0  0  0  0  0  0  0  0
  148.4370  141.8658  156.3103 H   0  0  0  0  0  0  0  0  0  0  0  0
  149.9365  141.0742  154.2635 H   0  0  0  0  0  0  0  0  0  0  0  0
  148.3669  140.7473  152.1962 H   0  0  0  0  0  0  0  0  0  0  0  0
  145.8855  141.5568  152.8421 H   0  0  0  0  0  0  0  0  0  0  0  0
  147.1016  142.7819  153.2433 H   0  0  0  0  0  0  0  0  0  0  0  0
  147.4902  133.7757  151.7214 H   0  0  0  0  0  0  0  0  0  0  0  0
  146.7633  131.6455  150.6375 H   0  0  0  0  0  0  0  0  0  0  0  0
  142.8218  132.8761  150.4809 H   0  0  0  0  0  0  0  0  0  0  0  0
  143.3583  135.0669  151.5557 H   0  0  0  0  0  0  0  0  0  0  0  0
  145.1688  138.1458  153.9571 H   0  0  0  0  0  0  0  0  0  0  0  0
  1  2  1  0  0  0  0
  1 19  1  0  0  0  0
  1 20  1  0  0  0  0
  1 21  1  0  0  0  0
  2  3  1  0  0  0  0
  2 13  1  0  0  0  0
  2 22  1  0  0  0  0
  3  4  1  0  0  0  0
  3 23  1  0  0  0  0
  3 24  1  0  0  0  0
  4  5  1  0  0  0  0
  4 25  1  0  0  0  0
  4 41  1  0  0  0  0
  5  6  1  0  0  0  0
  5 26  1  0  0  0  0
  5 27  1  0  0  0  0
  6 11  1  0  0  0  0
  6  7  1  0  0  0  0
  6 28  1  0  0  0  0
  7  8  1  0  0  0  0
  7 29  1  0  0  0  0
  7 30  1  0  0  0  0
  8 12  1  0  0  0  0
  8  9  1  0  0  0  0
  8 31  1  0  0  0  0
  9 10  2  0  0  0  0
  9 32  1  0  0  0  0
 10 11  1  0  0  0  0
 10 33  1  0  0  0  0
 11 12  1  0  0  0  0
 11 34  1  0  0  0  0
 12 35  1  0  0  0  0
 12 36  1  0  0  0  0
 13 18  1  0  0  0  0
 13 14  2  0  0  0  0
 14 15  1  0  0  0  0
 14 37  1  0  0  0  0
 15 16  2  0  0  0  0
 15 38  1  0  0  0  0
 16 17  1  0  0  0  0
 17 18  2  0  0  0  0
 17 39  1  0  0  0  0
 18 40  1  0  0  0  0
M  CHG  1   4   1
M  END
> <s_m_source_file>
AV-unprocessed.smi

> <i_m_source_file_index>
3316

> <i_lp_mmshare_version>
43012

> <i_f3d_flags>
0

> <s_epik_input>
W2NIXTFbY0hdbltjSF1bY0hdYzFbQ0BIXShbQ0gzXSlbQ0gyXVtOSF1bQ0gyXVtDQEhdKFtDSDJdW0NASF0yMylbQ0BIXShbQ0gyXTMpW0NIXT1bQ0hdMg==

> <s_epik_cmdline>
J2VwaWtfcHl0aG9uJywgJy1waCcsICc3LjAnLCAnLXRuJywgJzgnLCAnLW1hJywgJzIwMCcsICctbWV0YWxfYmluZGluZycsICctaW1hZScsICc8aW5maWxlLm1hZT4nLCAnLW9tYWUnLCAnPG91dGZpbGUubWFlPic=

> <r_lp_tautomer_probability>
1

> <r_epik_Ionization_Penalty>
0.00280406

> <r_epik_Ionization_Penalty_Charging>
0.000446589

> <r_epik_Ionization_Penalty_Neutral>
0.00235747

> <r_epik_State_Penalty>
-0

> <r_epik_Charging_Adjusted_Penalty>
0.000446589

> <i_epik_Tot_Q>
1

> <i_epik_Tot_abs_Q>
1

> <r_epik_Metal_State_Penalty>
-0

> <b_epik_Metal_Only>
0

> <s_lp_Force_Field>
OPLS_2005

> <r_lp_Energy>
65.5539

> <b_lp_Chiralities_Consistent>
1

> <s_lp_Variant>
AV-unprocessed.smi:3316-5

> <Gold.Version>
5.8.1

> <Gold.Id.Protein>
6NUR|6NUR_protein|mol2

> <Gold.PLP.Fitness>
40.5113

> <Gold.PLP.PLP>
-30.4279

> <Gold.PLP.part.hbond>
-1.0000

> <Gold.PLP.part.metal>
0.0000

> <Gold.PLP.part.buried>
-0.8082

> <Gold.PLP.part.nonpolar>
-29.0669

> <Gold.PLP.part.repulsive>
0.1364

> <Gold.PLP.ligand.clash>
0.0000

> <Gold.PLP.ligand.torsion>
1.0140

> <Gold.PLP.Chemscore.Hbond>
2.0000

> <Gold.PLP.Chemscore.CHOScore>
2.0000

> <Gold.PLP.Chemscore.Metal>
0.0000

> <Gold.Chemscore.Hbonds>
donor molecule, donor type, donor heavy atom, donor atom, acceptor molecule, acceptor atom, score
      L1  H     4    25       P1 10175  2.00
      L1  C    15    38       P1 10747  1.00
      L1  C    17    39       P1 10186  0.93

> <Gold.PLP.Chemscore.Internal.Correction>
0.1115

> <Gold.Rescore>
     Score         DG    S(hbond)    S(metal)    S(lipo)     H(rot)  DE(clash)    DE(int)     intcor
     14.10     -14.97       1.00        0.00      82.46       1.36       0.01       0.86       ----

> <Gold.Chemscore.Fitness>
14.1033

> <Gold.Chemscore.DG>
-14.9683

> <Gold.Chemscore.ZeroCoef>
-5.4800

> <Gold.Chemscore.Hbond>
0.9978

> <Gold.Chemscore.Metal>
0.0000

> <Gold.Chemscore.Lipo>
82.4573

> <Gold.Chemscore.Internal_Hbond>
0.0000

> <Gold.Chemscore.DEClash>
0.0078

> <Gold.Chemscore.DEInternal>
0.8573

> <Gold.Chemscore.Rot>
1.3640

> <Gold.Chemscore.Internal.Correction>
   9.000000E+99

> <Gold.Chemscore.Hbonds>
donor molecule, donor type, donor heavy atom, donor atom, acceptor molecule, acceptor atom, score
      L1  H     4    25       P1 10175  1.00

> <Gold.Chemscore.Hbond.Weighted>
-3.3327

> <Gold.Chemscore.Metal.Weighted>
-0.0000

> <Gold.Chemscore.Lipo.Weighted>
-9.6475

> <Gold.Chemscore.Internal_Hbond.Weighted>
0.0000

> <Gold.Chemscore.DEClash.Weighted>
0.0078

> <Gold.Chemscore.DEInternal.Weighted>
0.8573

> <Gold.Chemscore.Rot.Weighted>
3.4919

> <Gold.Chemscore.Internal.Correction.Weighted>
   9.000000E+99

> <Gold.Protein.RotatedTorsions>
[ 6907 6896 6895 6894 ] final   92.17 input  -60.11 | X-H torsion
[ 7974 7965 7964 7962 ] final  122.44 input  175.53 | X-H torsion
[ 8008 7997 7996 7995 ] final  177.51 input   59.86 | X-H torsion
[ 10167 10162 10161 10158 ] final   18.09 input  -65.29 | X-H torsion
[ 10718 10713 10712 10709 ] final  -72.41 input   66.30 | X-H torsion
[ 10763 10752 10751 10750 ] final  105.02 input  -60.55 | X-H torsion
[ 11005 11000 10999 10996 ] final -173.61 input  -57.11 | X-H torsion

> <Gold.Protein.ActiveResidues>
 VAL166  LYS551  ARG553  GLY616  TRP617  ASP618  TYR619  PRO620  LYS621  CYS622 
 ASP623  PHE694  ASN695  SER759  ASP760  ASP761  ALA762  ILE779  LEU786  VAL792 
 PHE793  MET794  SER795  GLU796  ALA797  LYS798  CYS799  TRP800  GLU811  SER814 

> <Gold.Protein.RotatedAtoms>
  152.5452  134.1543  159.8531 H   0  0  0  0  0  0  0  0  0  0  0  0  # atno 6907 bound_to 6896
  151.1567  133.4864  159.2602 H   0  0  0  0  0  0  0  0  0  0  0  0  # atno 6908 bound_to 6896
  151.1415  135.0193  159.8683 H   0  0  0  0  0  0  0  0  0  0  0  0  # atno 6909 bound_to 6896
  145.1075  139.3475  143.4780 H   0  0  0  0  0  0  0  0  0  0  0  0  # atno 7974 bound_to 7965
  156.0649  140.1356  156.9898 H   0  0  0  0  0  0  0  0  0  0  0  0  # atno 8008 bound_to 7997
  154.4500  140.0984  156.6643 H   0  0  0  0  0  0  0  0  0  0  0  0  # atno 8009 bound_to 7997
  155.5320  140.3459  155.4430 H   0  0  0  0  0  0  0  0  0  0  0  0  # atno 8010 bound_to 7997
  140.5678  143.9217  150.6690 H   0  0  0  0  0  0  0  0  0  0  0  0  # atno 10167 bound_to 10162
  156.0321  130.4372  150.2589 H   0  0  0  0  0  0  0  0  0  0  0  0  # atno 10718 bound_to 10713
  153.3738  135.3923  155.1807 H   0  0  0  0  0  0  0  0  0  0  0  0  # atno 10763 bound_to 10752
  154.8698  135.3709  154.4944 H   0  0  0  0  0  0  0  0  0  0  0  0  # atno 10764 bound_to 10752
  153.5414  135.7084  153.5695 H   0  0  0  0  0  0  0  0  0  0  0  0  # atno 10765 bound_to 10752
  140.4838  134.6050  157.4929 H   0  0  0  0  0  0  0  0  0  0  0  0  # atno 11005 bound_to 11000
  146.3527  140.0979  142.8609 LP  0  0  0  0  0  0  0  0  0  0  0  0  # atno 17320 bound_to 7965
  145.0885  140.9268  143.4783 LP  0  0  0  0  0  0  0  0  0  0  0  0  # atno 17321 bound_to 7965
  140.2685  143.3473  152.1259 LP  0  0  0  0  0  0  0  0  0  0  0  0  # atno 17342 bound_to 10162
  139.5102  144.6880  151.5836 LP  0  0  0  0  0  0  0  0  0  0  0  0  # atno 17343 bound_to 10162
  157.0691  131.0111  151.3196 LP  0  0  0  0  0  0  0  0  0  0  0  0  # atno 17370 bound_to 10713
  157.5013  130.7881  149.7607 LP  0  0  0  0  0  0  0  0  0  0  0  0  # atno 17371 bound_to 10713
  139.9810  134.7137  155.9859 LP  0  0  0  0  0  0  0  0  0  0  0  0  # atno 17394 bound_to 11000
  141.1518  133.6547  156.4037 LP  0  0  0  0  0  0  0  0  0  0  0  0  # atno 17395 bound_to 11000

$$$$
