AV-unprocessed.smi:1235|AV-procd|sdf|5178|dock3
  -GOLD-   22720 4253D 1   1.00000     0.00000
 Structure written by MMmdl.
 50 51  0  0  0  0  0  0  0  0  2 V2000
  156.1411  137.9952  150.4110 C   0  0  0  0  0  0  0  0  0  0  0  0
  155.7140  138.4992  151.6644 O   0  0  0  0  0  0  0  0  0  0  0  0
  154.5510  137.8460  152.1436 C   0  0  0  0  0  0  0  0  0  0  0  0
  153.8473  138.7627  153.1559 C   0  0  0  0  0  0  0  0  0  0  0  0
  152.6335  138.1394  153.6935 N   0  0  0  0  0  0  0  0  0  0  0  0
  152.6167  136.7578  153.5957 N   0  0  0  0  0  0  0  0  0  0  0  0
  151.5963  136.0885  154.0259 C   0  0  0  0  0  0  0  0  0  0  0  0
  151.5391  134.6023  153.9442 C   0  0  0  0  0  0  0  0  0  0  0  0
  152.3954  133.8881  154.4687 O   0  0  0  0  0  0  0  0  0  0  0  0
  150.4975  134.0989  153.2570 N   0  0  0  0  0  0  0  0  0  0  0  0
  150.2461  132.6783  153.0422 C   0  0  0  0  0  0  0  0  0  0  0  0
  148.7504  132.3387  153.2176 C   0  0  0  0  0  0  0  0  0  0  0  0
  148.3406  131.0840  152.5221 N   0  3  1  0  0  0  0  0  0  0  0  0
  149.2136  129.9338  152.8990 C   0  0  0  0  0  0  0  0  0  0  0  0
  148.8789  128.6652  152.1025 C   0  0  0  0  0  0  0  0  0  0  0  0
  147.4135  128.2812  152.2987 C   0  0  0  0  0  0  0  0  0  0  0  0
  146.5275  129.4628  151.9002 C   0  0  0  0  0  0  0  0  0  0  0  0
  146.8856  130.7486  152.6788 C   0  0  2  0  0  0  0  0  0  0  0  0
  145.9431  131.8777  152.2100 C   0  0  0  0  0  0  0  0  0  0  0  0
  150.4549  136.7683  154.6151 C   0  0  0  0  0  0  0  0  0  0  0  0
  150.4854  138.1161  154.7020 C   0  0  0  0  0  0  0  0  0  0  0  0
  151.6257  138.8977  154.2215 C   0  0  0  0  0  0  0  0  0  0  0  0
  151.6734  140.1258  154.2822 O   0  0  0  0  0  0  0  0  0  0  0  0
  157.0361  138.5270  150.0882 H   0  0  0  0  0  0  0  0  0  0  0  0
  155.3743  138.1335  149.6476 H   0  0  0  0  0  0  0  0  0  0  0  0
  156.3848  136.9337  150.4741 H   0  0  0  0  0  0  0  0  0  0  0  0
  153.8848  137.6157  151.3106 H   0  0  0  0  0  0  0  0  0  0  0  0
  154.8239  136.9022  152.6189 H   0  0  0  0  0  0  0  0  0  0  0  0
  154.5356  138.9985  153.9695 H   0  0  0  0  0  0  0  0  0  0  0  0
  153.6097  139.7212  152.6909 H   0  0  0  0  0  0  0  0  0  0  0  0
  149.8348  134.7493  152.8585 H   0  0  0  0  0  0  0  0  0  0  0  0
  150.5942  132.3832  152.0507 H   0  0  0  0  0  0  0  0  0  0  0  0
  150.8621  132.1434  153.7631 H   0  0  0  0  0  0  0  0  0  0  0  0
  148.4944  132.2716  154.2761 H   0  0  0  0  0  0  0  0  0  0  0  0
  148.1947  133.1850  152.8232 H   0  0  0  0  0  0  0  0  0  0  0  0
  150.2609  130.1668  152.7179 H   0  0  0  0  0  0  0  0  0  0  0  0
  149.1154  129.7387  153.9681 H   0  0  0  0  0  0  0  0  0  0  0  0
  149.0816  128.8288  151.0432 H   0  0  0  0  0  0  0  0  0  0  0  0
  149.5237  127.8447  152.4191 H   0  0  0  0  0  0  0  0  0  0  0  0
  147.1678  127.4042  151.6988 H   0  0  0  0  0  0  0  0  0  0  0  0
  147.2326  128.0119  153.3401 H   0  0  0  0  0  0  0  0  0  0  0  0
  146.6243  129.6419  150.8281 H   0  0  0  0  0  0  0  0  0  0  0  0
  145.4834  129.1988  152.0728 H   0  0  0  0  0  0  0  0  0  0  0  0
  146.6963  130.5681  153.7384 H   0  0  0  0  0  0  0  0  0  0  0  0
  144.9102  131.5304  152.1710 H   0  0  0  0  0  0  0  0  0  0  0  0
  146.2069  132.2294  151.2123 H   0  0  0  0  0  0  0  0  0  0  0  0
  145.9427  132.7316  152.8864 H   0  0  0  0  0  0  0  0  0  0  0  0
  149.5991  136.2174  154.9774 H   0  0  0  0  0  0  0  0  0  0  0  0
  149.6440  138.6343  155.1381 H   0  0  0  0  0  0  0  0  0  0  0  0
  148.4836  131.2464  151.5355 H   0  0  0  0  0  0  0  0  0  0  0  0
  1  2  1  0  0  0  0
  1 24  1  0  0  0  0
  1 25  1  0  0  0  0
  1 26  1  0  0  0  0
  2  3  1  0  0  0  0
  3  4  1  0  0  0  0
  3 27  1  0  0  0  0
  3 28  1  0  0  0  0
  4  5  1  0  0  0  0
  4 29  1  0  0  0  0
  4 30  1  0  0  0  0
  5 22  1  0  0  0  0
  5  6  1  0  0  0  0
  6  7  2  0  0  0  0
  7  8  1  0  0  0  0
  7 20  1  0  0  0  0
  8  9  2  0  0  0  0
  8 10  1  0  0  0  0
 10 11  1  0  0  0  0
 10 31  1  0  0  0  0
 11 12  1  0  0  0  0
 11 32  1  0  0  0  0
 11 33  1  0  0  0  0
 12 13  1  0  0  0  0
 12 34  1  0  0  0  0
 12 35  1  0  0  0  0
 13 18  1  0  0  0  0
 13 14  1  0  0  0  0
 13 50  1  0  0  0  0
 14 15  1  0  0  0  0
 14 36  1  0  0  0  0
 14 37  1  0  0  0  0
 15 16  1  0  0  0  0
 15 38  1  0  0  0  0
 15 39  1  0  0  0  0
 16 17  1  0  0  0  0
 16 40  1  0  0  0  0
 16 41  1  0  0  0  0
 17 18  1  0  0  0  0
 17 42  1  0  0  0  0
 17 43  1  0  0  0  0
 18 19  1  0  0  0  0
 18 44  1  0  0  0  0
 19 45  1  0  0  0  0
 19 46  1  0  0  0  0
 19 47  1  0  0  0  0
 20 21  2  0  0  0  0
 20 48  1  0  0  0  0
 21 22  1  0  0  0  0
 21 49  1  0  0  0  0
 22 23  2  0  0  0  0
M  CHG  1  13   1
M  END
> <s_m_source_file>
AV-unprocessed.smi

> <i_m_source_file_index>
1235

> <i_lp_mmshare_version>
43012

> <i_f3d_flags>
0

> <s_epik_input>
W0NIM11PW0NIMl1bQ0gyXW4xbmMoW2NIXVtjSF1jMT1PKUMoPU8pW05IXVtDSDJdW0NIMl1OMltDSDJdW0NIMl1bQ0gyXVtDSDJdW0NASF0yW0NIM10=

> <s_epik_cmdline>
J2VwaWtfcHl0aG9uJywgJy1waCcsICc3LjAnLCAnLXRuJywgJzgnLCAnLW1hJywgJzIwMCcsICctbWV0YWxfYmluZGluZycsICctaW1hZScsICc8aW5maWxlLm1hZT4nLCAnLW9tYWUnLCAnPG91dGZpbGUubWFlPic=

> <r_lp_tautomer_probability>
1

> <r_epik_Ionization_Penalty>
0.00271975

> <r_epik_Ionization_Penalty_Charging>
0.00271407

> <r_epik_Ionization_Penalty_Neutral>
5.6803e-06

> <r_epik_State_Penalty>
0.00189271

> <r_epik_Charging_Adjusted_Penalty>
0.00460678

> <i_epik_Tot_Q>
1

> <i_epik_Tot_abs_Q>
1

> <r_epik_Metal_State_Penalty>
-0

> <b_epik_Metal_Only>
0

> <s_lp_Force_Field>
OPLS_2005

> <r_lp_Energy>
40.1633

> <b_lp_Chiralities_Consistent>
1

> <s_lp_Variant>
AV-unprocessed.smi:1235-4

> <Gold.Version>
5.8.1

> <Gold.Id.Protein>
6NUR|6NUR_protein|mol2

> <Gold.PLP.Fitness>
51.1683

> <Gold.PLP.PLP>
-41.5682

> <Gold.PLP.part.hbond>
-5.0000

> <Gold.PLP.part.metal>
0.0000

> <Gold.PLP.part.buried>
-0.8871

> <Gold.PLP.part.nonpolar>
-35.6783

> <Gold.PLP.part.repulsive>
0.2508

> <Gold.PLP.ligand.clash>
0.0000

> <Gold.PLP.ligand.torsion>
1.7612

> <Gold.PLP.Chemscore.Hbond>
4.2828

> <Gold.PLP.Chemscore.CHOScore>
0.0000

> <Gold.PLP.Chemscore.Metal>
0.0000

> <Gold.Chemscore.Hbonds>
donor molecule, donor type, donor heavy atom, donor atom, acceptor molecule, acceptor atom, score
      L1  H    13    50       P1 10747  0.67

> <Gold.PLP.Chemscore.Internal.Correction>
0.2742

> <Gold.Rescore>
     Score         DG    S(hbond)    S(metal)    S(lipo)     H(rot)  DE(clash)    DE(int)     intcor
     18.37     -22.64       3.16        0.00     100.34       2.00       2.19       2.08       ----

> <Gold.Chemscore.Fitness>
18.3700

> <Gold.Chemscore.DG>
-22.6394

> <Gold.Chemscore.ZeroCoef>
-5.4800

> <Gold.Chemscore.Hbond>
3.1570

> <Gold.Chemscore.Metal>
0.0000

> <Gold.Chemscore.Lipo>
100.3436

> <Gold.Chemscore.Internal_Hbond>
0.0000

> <Gold.Chemscore.DEClash>
2.1888

> <Gold.Chemscore.DEInternal>
2.0806

> <Gold.Chemscore.Rot>
2.0020

> <Gold.Chemscore.Internal.Correction>
   9.000000E+99

> <Gold.Chemscore.Hbonds>
donor molecule, donor type, donor heavy atom, donor atom, acceptor molecule, acceptor atom, score
      L1  H    13    50       P1 10747  0.63
      P1  H  7989  7998       L1    23  0.02

> <Gold.Chemscore.Hbond.Weighted>
-10.5443

> <Gold.Chemscore.Metal.Weighted>
-0.0000

> <Gold.Chemscore.Lipo.Weighted>
-11.7402

> <Gold.Chemscore.Internal_Hbond.Weighted>
0.0000

> <Gold.Chemscore.DEClash.Weighted>
2.1888

> <Gold.Chemscore.DEInternal.Weighted>
2.0806

> <Gold.Chemscore.Rot.Weighted>
5.1252

> <Gold.Chemscore.Internal.Correction.Weighted>
   9.000000E+99

> <Gold.Protein.RotatedTorsions>
[ 6907 6896 6895 6894 ] final -123.59 input  -60.11 | X-H torsion
[ 7974 7965 7964 7962 ] final   29.49 input  175.53 | X-H torsion
[ 8008 7997 7996 7995 ] final  -74.71 input   59.86 | X-H torsion
[ 10167 10162 10161 10158 ] final   26.65 input  -65.29 | X-H torsion
[ 10718 10713 10712 10709 ] final  -13.41 input   66.30 | X-H torsion
[ 10763 10752 10751 10750 ] final  -58.32 input  -60.55 | X-H torsion
[ 11005 11000 10999 10996 ] final -151.76 input  -57.11 | X-H torsion

> <Gold.Protein.ActiveResidues>
 VAL166  LYS551  ARG553  GLY616  TRP617  ASP618  TYR619  PRO620  LYS621  CYS622 
 ASP623  PHE694  ASN695  SER759  ASP760  ASP761  ALA762  ILE779  LEU786  VAL792 
 PHE793  MET794  SER795  GLU796  ALA797  LYS798  CYS799  TRP800  GLU811  SER814 

> <Gold.Protein.RotatedAtoms>
  150.8685  133.7539  159.2968 H   0  0  0  0  0  0  0  0  0  0  0  0  # atno 6907 bound_to 6896
  151.5158  135.1064  159.9875 H   0  0  0  0  0  0  0  0  0  0  0  0  # atno 6908 bound_to 6896
  152.4678  133.7918  159.6961 H   0  0  0  0  0  0  0  0  0  0  0  0  # atno 6909 bound_to 6896
  146.1668  139.6915  142.8995 H   0  0  0  0  0  0  0  0  0  0  0  0  # atno 7974 bound_to 7965
  154.5354  140.0756  156.8418 H   0  0  0  0  0  0  0  0  0  0  0  0  # atno 8008 bound_to 7997
  155.3289  140.3400  155.4221 H   0  0  0  0  0  0  0  0  0  0  0  0  # atno 8009 bound_to 7997
  156.1823  140.1656  156.8238 H   0  0  0  0  0  0  0  0  0  0  0  0  # atno 8010 bound_to 7997
  140.5005  144.0322  150.6331 H   0  0  0  0  0  0  0  0  0  0  0  0  # atno 10167 bound_to 10162
  156.6306  130.4900  149.6130 H   0  0  0  0  0  0  0  0  0  0  0  0  # atno 10718 bound_to 10713
  154.2363  135.6351  153.5192 H   0  0  0  0  0  0  0  0  0  0  0  0  # atno 10763 bound_to 10752
  152.9939  135.5531  154.5958 H   0  0  0  0  0  0  0  0  0  0  0  0  # atno 10764 bound_to 10752
  154.5453  135.2897  155.1032 H   0  0  0  0  0  0  0  0  0  0  0  0  # atno 10765 bound_to 10752
  140.7261  134.3673  157.5175 H   0  0  0  0  0  0  0  0  0  0  0  0  # atno 11005 bound_to 11000
  145.4446  141.0424  143.2838 LP  0  0  0  0  0  0  0  0  0  0  0  0  # atno 17320 bound_to 7965
  144.8104  139.5972  143.7032 LP  0  0  0  0  0  0  0  0  0  0  0  0  # atno 17321 bound_to 7965
  140.3617  143.2904  152.0376 LP  0  0  0  0  0  0  0  0  0  0  0  0  # atno 17342 bound_to 10162
  139.4871  144.6298  151.7093 LP  0  0  0  0  0  0  0  0  0  0  0  0  # atno 17343 bound_to 10162
  156.2238  130.6753  151.1395 LP  0  0  0  0  0  0  0  0  0  0  0  0  # atno 17370 bound_to 10713
  157.7201  131.0686  150.6170 LP  0  0  0  0  0  0  0  0  0  0  0  0  # atno 17371 bound_to 10713
  139.8837  134.8987  156.2751 LP  0  0  0  0  0  0  0  0  0  0  0  0  # atno 17394 bound_to 11000
  140.9961  133.7179  156.0889 LP  0  0  0  0  0  0  0  0  0  0  0  0  # atno 17395 bound_to 11000

$$$$
