AV-unprocessed.smi:110|AV-procd|sdf|1078|dock5
  -GOLD-   2262018163D 1   1.00000     0.00000
 Structure written by MMmdl.
 46 50  0  0  0  0  0  0  0  0  1 V2000
  145.5492  136.9939  156.4097 O   0  0  0  0  0  0  0  0  0  0  0  0
  146.9513  137.0784  156.2718 C   0  0  0  0  0  0  0  0  0  0  0  0
  147.3169  137.5019  154.8407 C   0  0  2  0  0  0  0  0  0  0  0  0
  148.7293  137.6881  154.7228 O   0  0  0  0  0  0  0  0  0  0  0  0
  149.0484  138.8744  154.0531 C   0  0  2  0  0  0  0  0  0  0  0  0
  149.5831  139.8728  155.0481 N   0  0  0  0  0  0  0  0  0  0  0  0
  149.1466  141.1645  155.2542 C   0  0  0  0  0  0  0  0  0  0  0  0
  149.7975  141.8439  156.1568 N   0  0  0  0  0  0  0  0  0  0  0  0
  150.7952  140.9785  156.5862 C   0  0  0  0  0  0  0  0  0  0  0  0
  151.8610  141.0787  157.5300 C   0  0  0  0  0  0  0  0  0  0  0  0
  152.0862  142.1740  158.3040 N   0  0  0  0  0  0  0  0  0  0  0  0
  151.5336  143.4759  157.8977 C   0  0  0  0  0  0  0  0  0  0  0  0
  151.4888  144.3832  159.1387 C   0  0  0  0  0  0  0  0  0  0  0  0
  152.1693  143.5169  160.1454 C   0  0  0  0  0  0  0  0  0  0  0  0
  152.4892  143.8546  161.4718 C   0  0  0  0  0  0  0  0  0  0  0  0
  153.1496  142.8916  162.2628 C   0  0  0  0  0  0  0  0  0  0  0  0
  153.4806  141.6293  161.7198 C   0  0  0  0  0  0  0  0  0  0  0  0
  153.1512  141.3129  160.3831 C   0  0  0  0  0  0  0  0  0  0  0  0
  152.4754  142.2732  159.5983 C   0  0  0  0  0  0  0  0  0  0  0  0
  152.6707  139.9972  157.6643 N   0  0  0  0  0  0  0  0  0  0  0  0
  152.4708  138.9041  156.9258 C   0  0  0  0  0  0  0  0  0  0  0  0
  151.5245  138.6779  156.0155 N   0  0  0  0  0  0  0  0  0  0  0  0
  150.6866  139.7463  155.8763 C   0  0  0  0  0  0  0  0  0  0  0  0
  147.7362  139.3809  153.4390 C   0  0  1  0  0  0  0  0  0  0  0  0
  147.5630  138.8745  152.1285 O   0  0  0  0  0  0  0  0  0  0  0  0
  146.7193  138.8504  154.4367 C   0  0  1  0  0  0  0  0  0  0  0  0
  145.4180  138.7465  153.8910 O   0  0  0  0  0  0  0  0  0  0  0  0
  147.0116  136.7422  154.1187 H   0  0  0  0  0  0  0  0  0  0  0  0
  149.8662  138.7468  153.3428 H   0  0  0  0  0  0  0  0  0  0  0  0
  147.7050  140.4674  153.3727 H   0  0  0  0  0  0  0  0  0  0  0  0
  146.6901  139.5157  155.3014 H   0  0  0  0  0  0  0  0  0  0  0  0
  145.3511  136.6810  157.2791 H   0  0  0  0  0  0  0  0  0  0  0  0
  147.3035  137.8264  156.9831 H   0  0  0  0  0  0  0  0  0  0  0  0
  147.4203  136.1324  156.5420 H   0  0  0  0  0  0  0  0  0  0  0  0
  148.3207  141.6005  154.7115 H   0  0  0  0  0  0  0  0  0  0  0  0
  152.1845  143.9172  157.1421 H   0  0  0  0  0  0  0  0  0  0  0  0
  150.5401  143.3643  157.4612 H   0  0  0  0  0  0  0  0  0  0  0  0
  152.0275  145.3193  158.9887 H   0  0  0  0  0  0  0  0  0  0  0  0
  150.4664  144.5972  159.4515 H   0  0  0  0  0  0  0  0  0  0  0  0
  152.2395  144.8256  161.8736 H   0  0  0  0  0  0  0  0  0  0  0  0
  153.4088  143.1228  163.2856 H   0  0  0  0  0  0  0  0  0  0  0  0
  153.9943  140.9015  162.3304 H   0  0  0  0  0  0  0  0  0  0  0  0
  153.4284  140.3505  159.9807 H   0  0  0  0  0  0  0  0  0  0  0  0
  153.1667  138.0946  157.0889 H   0  0  0  0  0  0  0  0  0  0  0  0
  148.1141  138.1130  152.0284 H   0  0  0  0  0  0  0  0  0  0  0  0
  145.2084  139.5600  153.4581 H   0  0  0  0  0  0  0  0  0  0  0  0
  1  2  1  0  0  0  0
  1 32  1  0  0  0  0
  2  3  1  0  0  0  0
  2 33  1  0  0  0  0
  2 34  1  0  0  0  0
  3 28  1  0  0  0  0
  3 26  1  0  0  0  0
  3  4  1  0  0  0  0
  4  5  1  0  0  0  0
  5 29  1  0  0  0  0
  5  6  1  0  0  0  0
  5 24  1  0  0  0  0
  6 23  1  0  0  0  0
  6  7  1  0  0  0  0
  7  8  2  0  0  0  0
  7 35  1  0  0  0  0
  8  9  1  0  0  0  0
  9 23  2  0  0  0  0
  9 10  1  0  0  0  0
 10 11  1  0  0  0  0
 10 20  2  0  0  0  0
 11 19  1  0  0  0  0
 11 12  1  0  0  0  0
 12 13  1  0  0  0  0
 12 36  1  0  0  0  0
 12 37  1  0  0  0  0
 13 14  1  0  0  0  0
 13 38  1  0  0  0  0
 13 39  1  0  0  0  0
 14 19  2  0  0  0  0
 14 15  1  0  0  0  0
 15 16  2  0  0  0  0
 15 40  1  0  0  0  0
 16 17  1  0  0  0  0
 16 41  1  0  0  0  0
 17 18  2  0  0  0  0
 17 42  1  0  0  0  0
 18 19  1  0  0  0  0
 18 43  1  0  0  0  0
 20 21  1  0  0  0  0
 21 22  2  0  0  0  0
 21 44  1  0  0  0  0
 22 23  1  0  0  0  0
 24 30  1  0  0  0  0
 24 25  1  0  0  0  0
 24 26  1  0  0  0  0
 25 45  1  0  0  0  0
 26 31  1  0  0  0  0
 26 27  1  0  0  0  0
 27 46  1  0  0  0  0
M  END
> <s_m_source_file>
AV-unprocessed.smi

> <i_m_source_file_index>
110

> <i_lp_mmshare_version>
43012

> <i_f3d_flags>
0

> <s_epik_input>
W09IXVtDSDJdW0NASF0xT1tDQEhdKFtDQEhdKFtPSF0pW0NAQEhdMVtPSF0pbihbY0hdbjIpYyhjMjMpbltjSF1uYzNOKFtDSDJdW0NIMl00KWMoYzQ1KVtjSF1bY0hdW2NIXVtjSF01

> <s_epik_cmdline>
J2VwaWtfcHl0aG9uJywgJy1waCcsICc3LjAnLCAnLXRuJywgJzgnLCAnLW1hJywgJzIwMCcsICctbWV0YWxfYmluZGluZycsICctaW1hZScsICc8aW5maWxlLm1hZT4nLCAnLW9tYWUnLCAnPG91dGZpbGUubWFlPic=

> <r_lp_tautomer_probability>
1

> <r_epik_Ionization_Penalty>
0.00068475

> <r_epik_Ionization_Penalty_Charging>
0

> <r_epik_Ionization_Penalty_Neutral>
0.00068475

> <r_epik_State_Penalty>
0.000417442

> <r_epik_Charging_Adjusted_Penalty>
0.000417442

> <i_epik_Tot_Q>
0

> <i_epik_Tot_abs_Q>
0

> <r_epik_Metal_State_Penalty>
-0

> <b_epik_Metal_Only>
0

> <s_epik_Chemistry_Notes>
This compound contains an acetal/aminal-like group ( X-CH(R)-Y where X, Y are N, S, or O) that may be acid/base labile, releasing an aldehyde.

> <s_lp_Force_Field>
OPLS_2005

> <r_lp_Energy>
62.7544

> <b_lp_Chiralities_Consistent>
1

> <s_lp_Variant>
AV-unprocessed.smi:110-16

> <Gold.Version>
5.8.1

> <Gold.Id.Protein>
6NUR|6NUR_protein|mol2

> <Gold.PLP.Fitness>
55.3041

> <Gold.PLP.PLP>
-49.2478

> <Gold.PLP.part.hbond>
-4.0000

> <Gold.PLP.part.metal>
0.0000

> <Gold.PLP.part.buried>
-6.2655

> <Gold.PLP.part.nonpolar>
-39.4102

> <Gold.PLP.part.repulsive>
0.6185

> <Gold.PLP.ligand.clash>
0.0000

> <Gold.PLP.ligand.torsion>
0.4782

> <Gold.PLP.Chemscore.Hbond>
2.2930

> <Gold.PLP.Chemscore.CHOScore>
0.0000

> <Gold.PLP.Chemscore.Metal>
0.0000

> <Gold.Chemscore.Hbonds>
donor molecule, donor type, donor heavy atom, donor atom, acceptor molecule, acceptor atom, score
      L1  H    25    45       P1  7948  0.99
      L1  H    27    46       P1 10175  0.81
      P1  H  7997  8009       L1    20  0.42

> <Gold.PLP.Chemscore.Internal.Correction>
0.1337

> <Gold.Rescore>
     Score         DG    S(hbond)    S(metal)    S(lipo)     H(rot)  DE(clash)    DE(int)     intcor
     13.67     -15.44       1.99        0.00     102.40       3.38       0.10       1.66       ----

> <Gold.Chemscore.Fitness>
13.6689

> <Gold.Chemscore.DG>
-15.4364

> <Gold.Chemscore.ZeroCoef>
-5.4800

> <Gold.Chemscore.Hbond>
1.9873

> <Gold.Chemscore.Metal>
0.0000

> <Gold.Chemscore.Lipo>
102.4032

> <Gold.Chemscore.Internal_Hbond>
0.0000

> <Gold.Chemscore.DEClash>
0.1027

> <Gold.Chemscore.DEInternal>
1.6648

> <Gold.Chemscore.Rot>
3.3837

> <Gold.Chemscore.Internal.Correction>
   9.000000E+99

> <Gold.Chemscore.Hbonds>
donor molecule, donor type, donor heavy atom, donor atom, acceptor molecule, acceptor atom, score
      L1  H    25    45       P1  7948  0.92
      L1  H    27    46       P1 10175  0.75
      P1  H  7997  8009       L1    20  0.01

> <Gold.Chemscore.Hbond.Weighted>
-6.6374

> <Gold.Chemscore.Metal.Weighted>
-0.0000

> <Gold.Chemscore.Lipo.Weighted>
-11.9812

> <Gold.Chemscore.Internal_Hbond.Weighted>
0.0000

> <Gold.Chemscore.DEClash.Weighted>
0.1027

> <Gold.Chemscore.DEInternal.Weighted>
1.6648

> <Gold.Chemscore.Rot.Weighted>
8.6622

> <Gold.Chemscore.Internal.Correction.Weighted>
   9.000000E+99

> <Gold.Protein.RotatedTorsions>
[ 6907 6896 6895 6894 ] final  171.77 input  -60.11 | X-H torsion
[ 7974 7965 7964 7962 ] final -176.30 input  175.53 | X-H torsion
[ 8008 7997 7996 7995 ] final  154.77 input   59.86 | X-H torsion
[ 10167 10162 10161 10158 ] final  -59.03 input  -65.29 | X-H torsion
[ 10718 10713 10712 10709 ] final  107.95 input   66.30 | X-H torsion
[ 10763 10752 10751 10750 ] final   40.00 input  -60.55 | X-H torsion
[ 11005 11000 10999 10996 ] final -153.67 input  -57.11 | X-H torsion

> <Gold.Protein.ActiveResidues>
 VAL166  LYS551  ARG553  GLY616  TRP617  ASP618  TYR619  PRO620  LYS621  CYS622 
 ASP623  PHE694  ASN695  SER759  ASP760  ASP761  ALA762  ILE779  LEU786  VAL792 
 PHE793  MET794  SER795  GLU796  ALA797  LYS798  CYS799  TRP800  GLU811  SER814 

> <Gold.Protein.RotatedAtoms>
  151.7950  133.3363  159.3509 H   0  0  0  0  0  0  0  0  0  0  0  0  # atno 6907 bound_to 6896
  150.7378  134.5807  159.5946 H   0  0  0  0  0  0  0  0  0  0  0  0  # atno 6908 bound_to 6896
  152.3183  134.7413  160.0371 H   0  0  0  0  0  0  0  0  0  0  0  0  # atno 6909 bound_to 6896
  144.7127  140.1191  143.6406 H   0  0  0  0  0  0  0  0  0  0  0  0  # atno 7974 bound_to 7965
  156.2514  140.1957  156.6698 H   0  0  0  0  0  0  0  0  0  0  0  0  # atno 8008 bound_to 7997
  154.6401  140.0584  156.9861 H   0  0  0  0  0  0  0  0  0  0  0  0  # atno 8009 bound_to 7997
  155.1576  140.3257  155.4421 H   0  0  0  0  0  0  0  0  0  0  0  0  # atno 8010 bound_to 7997
  140.6161  143.2403  151.5595 H   0  0  0  0  0  0  0  0  0  0  0  0  # atno 10167 bound_to 10162
  157.6607  131.0883  150.6233 H   0  0  0  0  0  0  0  0  0  0  0  0  # atno 10718 bound_to 10713
  152.9949  135.6204  154.2556 H   0  0  0  0  0  0  0  0  0  0  0  0  # atno 10763 bound_to 10752
  154.2294  135.2793  155.2897 H   0  0  0  0  0  0  0  0  0  0  0  0  # atno 10764 bound_to 10752
  154.5462  135.5746  153.6940 H   0  0  0  0  0  0  0  0  0  0  0  0  # atno 10765 bound_to 10752
  140.7056  134.3889  157.5204 H   0  0  0  0  0  0  0  0  0  0  0  0  # atno 11005 bound_to 11000
  145.9387  139.2654  143.1281 LP  0  0  0  0  0  0  0  0  0  0  0  0  # atno 17320 bound_to 7965
  145.9446  140.8954  143.0290 LP  0  0  0  0  0  0  0  0  0  0  0  0  # atno 17321 bound_to 7965
  139.5399  144.2675  152.1330 LP  0  0  0  0  0  0  0  0  0  0  0  0  # atno 17342 bound_to 10162
  140.1885  144.4775  150.6491 LP  0  0  0  0  0  0  0  0  0  0  0  0  # atno 17343 bound_to 10162
  156.6536  130.4492  149.5711 LP  0  0  0  0  0  0  0  0  0  0  0  0  # atno 17370 bound_to 10713
  156.2119  130.6684  151.1278 LP  0  0  0  0  0  0  0  0  0  0  0  0  # atno 17371 bound_to 10713
  139.8885  134.8855  156.2471 LP  0  0  0  0  0  0  0  0  0  0  0  0  # atno 17394 bound_to 11000
  141.0127  133.7086  156.1138 LP  0  0  0  0  0  0  0  0  0  0  0  0  # atno 17395 bound_to 11000

$$$$
