AV-unprocessed.smi:658|AV-procd|sdf|3237|dock8
  -GOLD-   22720 0183D 1   1.00000     0.00000
 Structure written by MMmdl.
 37 37  0  0  0  0  0  0  0  0  3 V2000
  144.0739  136.2113  152.2182 C   0  0  0  0  0  0  0  0  0  0  0  0
  145.5825  136.1434  151.9110 C   0  0  1  0  0  0  0  0  0  0  0  0
  146.3445  137.0517  152.8004 N   0  3  0  0  0  0  0  0  0  0  0  0
  146.0620  138.4917  152.6344 C   0  0  0  0  0  0  0  0  0  0  0  0
  146.9090  139.3229  153.6033 C   0  0  0  0  0  0  0  0  0  0  0  0
  148.3543  138.8154  153.7019 C   0  0  0  0  0  0  0  0  0  0  0  0
  149.4611  140.0624  154.4913 S   0  0  0  0  0  0  0  0  0  0  0  0
  149.2436  141.3222  153.5064 N   0  5  0  0  0  0  0  0  0  0  0  0
  148.9201  140.3113  155.8362 O   0  0  0  0  0  0  0  0  0  0  0  0
  150.8196  139.5083  154.3900 O   0  0  0  0  0  0  0  0  0  0  0  0
  146.1340  134.6959  151.9930 C   0  0  1  0  0  0  0  0  0  0  0  0
  146.0803  134.1116  153.4162 C   0  0  0  0  0  0  0  0  0  0  0  0
  145.5187  133.7958  151.0211 N   0  0  0  0  0  0  0  0  0  0  0  0
  145.9253  132.5381  150.6176 C   0  0  0  0  0  0  0  0  0  0  0  0
  145.0114  132.0819  149.7121 C   0  0  0  0  0  0  0  0  0  0  0  0
  144.0641  133.1391  149.6265 C   0  0  0  0  0  0  0  0  0  0  0  0
  144.3671  134.1584  150.4134 N   0  0  0  0  0  0  0  0  0  0  0  0
  143.5196  135.4989  151.6068 H   0  0  0  0  0  0  0  0  0  0  0  0
  143.6626  137.1981  152.0073 H   0  0  0  0  0  0  0  0  0  0  0  0
  143.8646  135.9829  153.2638 H   0  0  0  0  0  0  0  0  0  0  0  0
  145.7299  136.4833  150.8847 H   0  0  0  0  0  0  0  0  0  0  0  0
  146.1726  136.7897  153.7607 H   0  0  0  0  0  0  0  0  0  0  0  0
  146.2772  138.7871  151.6067 H   0  0  0  0  0  0  0  0  0  0  0  0
  145.0049  138.6859  152.8145 H   0  0  0  0  0  0  0  0  0  0  0  0
  146.9129  140.3642  153.2782 H   0  0  0  0  0  0  0  0  0  0  0  0
  146.4485  139.3085  154.5918 H   0  0  0  0  0  0  0  0  0  0  0  0
  148.3892  137.9149  154.3152 H   0  0  0  0  0  0  0  0  0  0  0  0
  148.7649  138.5608  152.7245 H   0  0  0  0  0  0  0  0  0  0  0  0
  149.4157  141.0088  152.5435 H   0  0  0  0  0  0  0  0  0  0  0  0
  147.1948  134.7516  151.7403 H   0  0  0  0  0  0  0  0  0  0  0  0
  146.6225  134.7450  154.1186 H   0  0  0  0  0  0  0  0  0  0  0  0
  146.5383  133.1223  153.4486 H   0  0  0  0  0  0  0  0  0  0  0  0
  145.0579  134.0142  153.7819 H   0  0  0  0  0  0  0  0  0  0  0  0
  146.8214  132.0738  151.0022 H   0  0  0  0  0  0  0  0  0  0  0  0
  145.0175  131.1359  149.1909 H   0  0  0  0  0  0  0  0  0  0  0  0
  143.1702  133.1947  149.0229 H   0  0  0  0  0  0  0  0  0  0  0  0
  147.3261  136.9179  152.6041 H   0  0  0  0  0  0  0  0  0  0  0  0
  1  2  1  0  0  0  0
  1 18  1  0  0  0  0
  1 19  1  0  0  0  0
  1 20  1  0  0  0  0
  2  3  1  0  0  0  0
  2 11  1  0  0  0  0
  2 21  1  0  0  0  0
  3  4  1  0  0  0  0
  3 22  1  0  0  0  0
  3 37  1  0  0  0  0
  4  5  1  0  0  0  0
  4 23  1  0  0  0  0
  4 24  1  0  0  0  0
  5  6  1  0  0  0  0
  5 25  1  0  0  0  0
  5 26  1  0  0  0  0
  6  7  1  0  0  0  0
  6 27  1  0  0  0  0
  6 28  1  0  0  0  0
  7  8  1  0  0  0  0
  7  9  2  0  0  0  0
  7 10  2  0  0  0  0
  8 29  1  0  0  0  0
 11 12  1  0  0  0  0
 11 13  1  0  0  0  0
 11 30  1  0  0  0  0
 12 31  1  0  0  0  0
 12 32  1  0  0  0  0
 12 33  1  0  0  0  0
 13 17  1  0  0  0  0
 13 14  1  0  0  0  0
 14 15  2  0  0  0  0
 14 34  1  0  0  0  0
 15 16  1  0  0  0  0
 15 35  1  0  0  0  0
 16 17  2  0  0  0  0
 16 36  1  0  0  0  0
M  CHG  1   3   1
M  CHG  1   8  -1
M  END
> <s_m_source_file>
AV-unprocessed.smi

> <i_m_source_file_index>
658

> <i_lp_mmshare_version>
43012

> <i_f3d_flags>
0

> <s_epik_input>
bjFbY0hdW2NIXVtjSF1uMVtDQEBIXShbQ0gzXSlbQ0BIXShbQ0gzXSlbTkhdW0NIMl1bQ0gyXVtDSDJdUyg9TykoPU8pW05IMl0=

> <s_epik_cmdline>
J2VwaWtfcHl0aG9uJywgJy1waCcsICc3LjAnLCAnLXRuJywgJzgnLCAnLW1hJywgJzIwMCcsICctbWV0YWxfYmluZGluZycsICctaW1hZScsICc8aW5maWxlLm1hZT4nLCAnLW9tYWUnLCAnPG91dGZpbGUubWFlPic=

> <r_lp_tautomer_probability>
1

> <r_epik_Ionization_Penalty>
4.63642

> <r_epik_Ionization_Penalty_Charging>
4.63641

> <r_epik_Ionization_Penalty_Neutral>
1.08396e-05

> <r_epik_State_Penalty>
4.63466

> <r_epik_Charging_Adjusted_Penalty>
9.27106

> <i_epik_Tot_Q>
0

> <i_epik_Tot_abs_Q>
2

> <r_epik_Metal_State_Penalty>
0.890424

> <b_epik_Metal_Only>
1

> <s_lp_Force_Field>
OPLS_2005

> <r_lp_Energy>
1.41706

> <b_lp_Chiralities_Consistent>
1

> <s_lp_Variant>
AV-unprocessed.smi:658-8

> <Gold.Version>
5.8.1

> <Gold.Id.Protein>
6NUR|6NUR_protein|mol2

> <Gold.PLP.Fitness>
46.8437

> <Gold.PLP.PLP>
-29.8997

> <Gold.PLP.part.hbond>
-5.0000

> <Gold.PLP.part.metal>
0.0000

> <Gold.PLP.part.buried>
-2.2325

> <Gold.PLP.part.nonpolar>
-23.4439

> <Gold.PLP.part.repulsive>
0.3877

> <Gold.PLP.ligand.clash>
0.0301

> <Gold.PLP.ligand.torsion>
0.4475

> <Gold.PLP.Chemscore.Hbond>
4.0000

> <Gold.PLP.Chemscore.CHOScore>
1.8709

> <Gold.PLP.Chemscore.Metal>
0.0000

> <Gold.Chemscore.Hbonds>
donor molecule, donor type, donor heavy atom, donor atom, acceptor molecule, acceptor atom, score
      L1  H     3    37       P1  7948  2.00
      L1  H     8    29       P1  7957  1.00
      P1  H  7989  7998       L1    10  1.00
      L1  C    14    34       P1 10747  0.88
      L1  C    16    36       P1 10186  0.96

> <Gold.PLP.Chemscore.Internal.Correction>
0.2567

> <Gold.Rescore>
     Score         DG    S(hbond)    S(metal)    S(lipo)     H(rot)  DE(clash)    DE(int)     intcor
     12.99     -14.73       2.89        0.00      63.17       3.04       0.08       1.66       ----

> <Gold.Chemscore.Fitness>
12.9874

> <Gold.Chemscore.DG>
-14.7258

> <Gold.Chemscore.ZeroCoef>
-5.4800

> <Gold.Chemscore.Hbond>
2.8861

> <Gold.Chemscore.Metal>
0.0000

> <Gold.Chemscore.Lipo>
63.1702

> <Gold.Chemscore.Internal_Hbond>
0.0000

> <Gold.Chemscore.DEClash>
0.0811

> <Gold.Chemscore.DEInternal>
1.6573

> <Gold.Chemscore.Rot>
3.0409

> <Gold.Chemscore.Internal.Correction>
   9.000000E+99

> <Gold.Chemscore.Hbonds>
donor molecule, donor type, donor heavy atom, donor atom, acceptor molecule, acceptor atom, score
      L1  H     3    37       P1  7948  0.99
      L1  H     8    29       P1  7957  1.00
      P1  H  7989  7998       L1    10  0.26

> <Gold.Chemscore.Hbond.Weighted>
-9.6397

> <Gold.Chemscore.Metal.Weighted>
-0.0000

> <Gold.Chemscore.Lipo.Weighted>
-7.3909

> <Gold.Chemscore.Internal_Hbond.Weighted>
0.0000

> <Gold.Chemscore.DEClash.Weighted>
0.0811

> <Gold.Chemscore.DEInternal.Weighted>
1.6573

> <Gold.Chemscore.Rot.Weighted>
7.7848

> <Gold.Chemscore.Internal.Correction.Weighted>
   9.000000E+99

> <Gold.Protein.RotatedTorsions>
[ 6907 6896 6895 6894 ] final   68.94 input  -60.11 | X-H torsion
[ 7974 7965 7964 7962 ] final -139.00 input  175.53 | X-H torsion
[ 8008 7997 7996 7995 ] final   90.75 input   59.86 | X-H torsion
[ 10167 10162 10161 10158 ] final  117.67 input  -65.29 | X-H torsion
[ 10718 10713 10712 10709 ] final  117.78 input   66.30 | X-H torsion
[ 10763 10752 10751 10750 ] final   48.84 input  -60.55 | X-H torsion
[ 11005 11000 10999 10996 ] final   59.80 input  -57.11 | X-H torsion

> <Gold.Protein.ActiveResidues>
 VAL166  LYS551  ARG553  GLY616  TRP617  ASP618  TYR619  PRO620  LYS621  CYS622 
 ASP623  PHE694  ASN695  SER759  ASP760  ASP761  ALA762  ILE779  LEU786  VAL792 
 PHE793  MET794  SER795  GLU796  ALA797  LYS798  CYS799  TRP800  GLU811  SER814 

> <Gold.Protein.RotatedAtoms>
  152.4654  134.5088  159.9747 H   0  0  0  0  0  0  0  0  0  0  0  0  # atno 6907 bound_to 6896
  151.5127  133.3476  159.2895 H   0  0  0  0  0  0  0  0  0  0  0  0  # atno 6908 bound_to 6896
  150.8636  134.8022  159.7163 H   0  0  0  0  0  0  0  0  0  0  0  0  # atno 6909 bound_to 6896
  144.8713  140.6370  143.5265 H   0  0  0  0  0  0  0  0  0  0  0  0  # atno 7974 bound_to 7965
  156.0156  140.3346  155.6986 H   0  0  0  0  0  0  0  0  0  0  0  0  # atno 8008 bound_to 7997
  155.6095  140.0664  157.2728 H   0  0  0  0  0  0  0  0  0  0  0  0  # atno 8009 bound_to 7997
  154.4297  140.1796  156.1245 H   0  0  0  0  0  0  0  0  0  0  0  0  # atno 8010 bound_to 7997
  139.6163  144.7092  151.2732 H   0  0  0  0  0  0  0  0  0  0  0  0  # atno 10167 bound_to 10162
  157.6073  131.1041  150.7664 H   0  0  0  0  0  0  0  0  0  0  0  0  # atno 10718 bound_to 10713
  152.9789  135.5931  154.3992 H   0  0  0  0  0  0  0  0  0  0  0  0  # atno 10763 bound_to 10752
  154.3639  135.2767  155.2306 H   0  0  0  0  0  0  0  0  0  0  0  0  # atno 10764 bound_to 10752
  154.4291  135.6040  153.6112 H   0  0  0  0  0  0  0  0  0  0  0  0  # atno 10765 bound_to 10752
  140.0278  134.6057  155.9549 H   0  0  0  0  0  0  0  0  0  0  0  0  # atno 11005 bound_to 11000
  145.4126  139.1577  143.4118 LP  0  0  0  0  0  0  0  0  0  0  0  0  # atno 17320 bound_to 7965
  146.2932  140.4231  142.8731 LP  0  0  0  0  0  0  0  0  0  0  0  0  # atno 17321 bound_to 7965
  140.7353  143.6741  150.8057 LP  0  0  0  0  0  0  0  0  0  0  0  0  # atno 17342 bound_to 10162
  140.0344  143.5410  152.2746 LP  0  0  0  0  0  0  0  0  0  0  0  0  # atno 17343 bound_to 10162
  156.8049  130.4933  149.5364 LP  0  0  0  0  0  0  0  0  0  0  0  0  # atno 17370 bound_to 10713
  156.1164  130.6078  151.0127 LP  0  0  0  0  0  0  0  0  0  0  0  0  # atno 17371 bound_to 10713
  141.1813  133.6547  156.5031 LP  0  0  0  0  0  0  0  0  0  0  0  0  # atno 17394 bound_to 11000
  140.4277  134.7129  157.4925 LP  0  0  0  0  0  0  0  0  0  0  0  0  # atno 17395 bound_to 11000

$$$$
