AV-unprocessed.smi:2472|AV-procd|sdf|9742|dock3
  -GOLD-   2272013383D 1   1.00000     0.00000
 Structure written by MMmdl.
 48 50  0  0  0  0  0  0  0  0  2 V2000
  150.2966  138.9557  154.4612 C   0  0  0  0  0  0  0  0  0  0  0  0
  149.2092  140.0081  154.3330 C   0  0  0  0  0  0  0  0  0  0  0  0
  149.4743  141.3359  154.7340 C   0  0  0  0  0  0  0  0  0  0  0  0
  148.5164  142.2809  154.6270 N   0  3  0  0  0  0  0  0  0  0  0  0
  147.2822  142.0184  154.1494 C   0  0  0  0  0  0  0  0  0  0  0  0
  146.9535  140.7134  153.7320 C   0  0  0  0  0  0  0  0  0  0  0  0
  147.9307  139.6887  153.8082 C   0  0  0  0  0  0  0  0  0  0  0  0
  147.6629  138.3457  153.4221 N   0  0  0  0  0  0  0  0  0  0  0  0
  146.4884  137.6944  153.4628 C   0  0  0  0  0  0  0  0  0  0  0  0
  145.4290  138.1734  153.8668 O   0  0  0  0  0  0  0  0  0  0  0  0
  146.6045  136.4494  152.9671 N   0  0  0  0  0  0  0  0  0  0  0  0
  145.5429  135.4383  152.8039 C   0  0  0  0  0  0  0  0  0  0  0  0
  146.0995  134.0080  152.5472 C   0  0  0  0  0  0  0  0  0  0  0  0
  145.3235  133.0631  152.3978 O   0  0  0  0  0  0  0  0  0  0  0  0
  147.4322  133.8437  152.5135 N   0  0  0  0  0  0  0  0  0  0  0  0
  148.1152  132.5822  152.2731 C   0  0  0  0  0  0  0  0  0  0  0  0
  148.9906  132.1363  153.4253 C   0  0  0  0  0  0  0  0  0  0  0  0
  148.5512  132.3547  154.8541 C   0  0  0  0  0  0  0  0  0  0  0  0
  149.7099  133.1432  154.2918 C   0  0  0  0  0  0  0  0  0  0  0  0
  144.6956  135.4139  154.0990 C   0  0  0  0  0  0  0  0  0  0  0  0
  143.2522  135.1682  153.6650 C   0  0  0  0  0  0  0  0  0  0  0  0
  143.1300  135.9324  152.3537 C   0  0  0  0  0  0  0  0  0  0  0  0
  144.5190  135.8667  151.7055 C   0  0  0  0  0  0  0  0  0  0  0  0
  151.2227  139.3875  154.8417 H   0  0  0  0  0  0  0  0  0  0  0  0
  150.5095  138.5066  153.4906 H   0  0  0  0  0  0  0  0  0  0  0  0
  149.9847  138.1678  155.1473 H   0  0  0  0  0  0  0  0  0  0  0  0
  150.4190  141.6708  155.1374 H   0  0  0  0  0  0  0  0  0  0  0  0
  146.5967  142.8526  154.1210 H   0  0  0  0  0  0  0  0  0  0  0  0
  145.9549  140.5174  153.3717 H   0  0  0  0  0  0  0  0  0  0  0  0
  148.4261  137.8607  152.9733 H   0  0  0  0  0  0  0  0  0  0  0  0
  147.5221  136.1637  152.6585 H   0  0  0  0  0  0  0  0  0  0  0  0
  148.0121  134.6584  152.6494 H   0  0  0  0  0  0  0  0  0  0  0  0
  147.3762  131.8094  152.0566 H   0  0  0  0  0  0  0  0  0  0  0  0
  148.7440  132.6776  151.3863 H   0  0  0  0  0  0  0  0  0  0  0  0
  149.5165  131.2017  153.2373 H   0  0  0  0  0  0  0  0  0  0  0  0
  147.6171  132.8870  155.0230 H   0  0  0  0  0  0  0  0  0  0  0  0
  148.7788  131.5721  155.5749 H   0  0  0  0  0  0  0  0  0  0  0  0
  150.7096  132.8853  154.6359 H   0  0  0  0  0  0  0  0  0  0  0  0
  149.5456  134.1993  154.0869 H   0  0  0  0  0  0  0  0  0  0  0  0
  145.0291  134.6678  154.8226 H   0  0  0  0  0  0  0  0  0  0  0  0
  144.7460  136.3795  154.6052 H   0  0  0  0  0  0  0  0  0  0  0  0
  143.0910  134.1036  153.4915 H   0  0  0  0  0  0  0  0  0  0  0  0
  142.5274  135.4969  154.4102 H   0  0  0  0  0  0  0  0  0  0  0  0
  142.3493  135.5281  151.7086 H   0  0  0  0  0  0  0  0  0  0  0  0
  142.8762  136.9722  152.5638 H   0  0  0  0  0  0  0  0  0  0  0  0
  144.7505  136.8381  151.2674 H   0  0  0  0  0  0  0  0  0  0  0  0
  144.5025  135.1661  150.8693 H   0  0  0  0  0  0  0  0  0  0  0  0
  148.7329  143.2326  154.9245 H   0  0  0  0  0  0  0  0  0  0  0  0
  1  2  1  0  0  0  0
  1 24  1  0  0  0  0
  1 25  1  0  0  0  0
  1 26  1  0  0  0  0
  2  7  1  0  0  0  0
  2  3  2  0  0  0  0
  3  4  1  0  0  0  0
  3 27  1  0  0  0  0
  4  5  2  0  0  0  0
  4 48  1  0  0  0  0
  5  6  1  0  0  0  0
  5 28  1  0  0  0  0
  6  7  2  0  0  0  0
  6 29  1  0  0  0  0
  7  8  1  0  0  0  0
  8  9  1  0  0  0  0
  8 30  1  0  0  0  0
  9 10  2  0  0  0  0
  9 11  1  0  0  0  0
 11 12  1  0  0  0  0
 11 31  1  0  0  0  0
 12 23  1  0  0  0  0
 12 13  1  0  0  0  0
 12 20  1  0  0  0  0
 13 14  2  0  0  0  0
 13 15  1  0  0  0  0
 15 16  1  0  0  0  0
 15 32  1  0  0  0  0
 16 17  1  0  0  0  0
 16 33  1  0  0  0  0
 16 34  1  0  0  0  0
 17 19  1  0  0  0  0
 17 18  1  0  0  0  0
 17 35  1  0  0  0  0
 18 19  1  0  0  0  0
 18 36  1  0  0  0  0
 18 37  1  0  0  0  0
 19 38  1  0  0  0  0
 19 39  1  0  0  0  0
 20 21  1  0  0  0  0
 20 40  1  0  0  0  0
 20 41  1  0  0  0  0
 21 22  1  0  0  0  0
 21 42  1  0  0  0  0
 21 43  1  0  0  0  0
 22 23  1  0  0  0  0
 22 44  1  0  0  0  0
 22 45  1  0  0  0  0
 23 46  1  0  0  0  0
 23 47  1  0  0  0  0
M  CHG  1   4   1
M  END
> <s_m_source_file>
AV-unprocessed.smi

> <i_m_source_file_index>
2472

> <i_lp_mmshare_version>
43012

> <i_f3d_flags>
0

> <s_epik_input>
W0NIM11jMVtjSF1uW2NIXVtjSF1jMVtOSF1DKD1PKVtOSF1DMihbQ0gyXVtDSDJdW0NIMl1bQ0gyXTIpQyg9TylbTkhdW0NIMl1bQ0hdM1tDSDJdW0NIMl0z

> <s_epik_cmdline>
J2VwaWtfcHl0aG9uJywgJy1waCcsICc3LjAnLCAnLXRuJywgJzgnLCAnLW1hJywgJzIwMCcsICctbWV0YWxfYmluZGluZycsICctaW1hZScsICc8aW5maWxlLm1hZT4nLCAnLW9tYWUnLCAnPG91dGZpbGUubWFlPic=

> <r_epik_Ionization_Penalty>
0.772167

> <r_epik_Ionization_Penalty_Charging>
0.772149

> <r_epik_Ionization_Penalty_Neutral>
1.87678e-05

> <r_epik_State_Penalty>
0.800952

> <r_epik_Charging_Adjusted_Penalty>
1.5731

> <i_epik_Tot_Q>
1

> <i_epik_Tot_abs_Q>
1

> <r_epik_Metal_State_Penalty>
0.9454

> <b_epik_Metal_Only>
0

> <s_lp_Force_Field>
OPLS_2005

> <r_lp_Energy>
39.076

> <b_lp_Chiralities_Consistent>
1

> <s_lp_Variant>
AV-unprocessed.smi:2472-2

> <Gold.Version>
5.8.1

> <Gold.Id.Protein>
6NUR|6NUR_protein|mol2

> <Gold.PLP.Fitness>
50.1536

> <Gold.PLP.PLP>
-36.3291

> <Gold.PLP.part.hbond>
-4.0000

> <Gold.PLP.part.metal>
0.0000

> <Gold.PLP.part.buried>
-2.2299

> <Gold.PLP.part.nonpolar>
-31.0493

> <Gold.PLP.part.repulsive>
0.7236

> <Gold.PLP.ligand.clash>
0.0000

> <Gold.PLP.ligand.torsion>
0.7217

> <Gold.PLP.Chemscore.Hbond>
4.8720

> <Gold.PLP.Chemscore.CHOScore>
0.0000

> <Gold.PLP.Chemscore.Metal>
0.0000

> <Gold.Chemscore.Hbonds>
donor molecule, donor type, donor heavy atom, donor atom, acceptor molecule, acceptor atom, score
      L1  H     4    48       P1  8028  2.00
      L1  H     8    30       P1  7948  0.93
      L1  H    11    31       P1  7948  1.00
      L1  H    15    32       P1  7948  0.94

> <Gold.PLP.Chemscore.Internal.Correction>
0.6519

> <Gold.Rescore>
     Score         DG    S(hbond)    S(metal)    S(lipo)     H(rot)  DE(clash)    DE(int)     intcor
     18.07     -22.64       3.47        0.00      83.37       1.63       1.41       3.16       ----

> <Gold.Chemscore.Fitness>
18.0748

> <Gold.Chemscore.DG>
-22.6433

> <Gold.Chemscore.ZeroCoef>
-5.4800

> <Gold.Chemscore.Hbond>
3.4667

> <Gold.Chemscore.Metal>
0.0000

> <Gold.Chemscore.Lipo>
83.3664

> <Gold.Chemscore.Internal_Hbond>
0.0000

> <Gold.Chemscore.DEClash>
1.4084

> <Gold.Chemscore.DEInternal>
3.1602

> <Gold.Chemscore.Rot>
1.6286

> <Gold.Chemscore.Internal.Correction>
   9.000000E+99

> <Gold.Chemscore.Hbonds>
donor molecule, donor type, donor heavy atom, donor atom, acceptor molecule, acceptor atom, score
      L1  H     4    48       P1  8028  1.00
      L1  H     8    30       P1  7948  0.84
      L1  H    11    31       P1  7948  0.99
      L1  H    15    32       P1  7948  0.59

> <Gold.Chemscore.Hbond.Weighted>
-11.5787

> <Gold.Chemscore.Metal.Weighted>
-0.0000

> <Gold.Chemscore.Lipo.Weighted>
-9.7539

> <Gold.Chemscore.Internal_Hbond.Weighted>
0.0000

> <Gold.Chemscore.DEClash.Weighted>
1.4084

> <Gold.Chemscore.DEInternal.Weighted>
3.1602

> <Gold.Chemscore.Rot.Weighted>
4.1692

> <Gold.Chemscore.Internal.Correction.Weighted>
   9.000000E+99

> <Gold.Protein.RotatedTorsions>
[ 6907 6896 6895 6894 ] final   28.21 input  -60.11 | X-H torsion
[ 7974 7965 7964 7962 ] final -172.54 input  175.53 | X-H torsion
[ 8008 7997 7996 7995 ] final  -73.06 input   59.86 | X-H torsion
[ 10167 10162 10161 10158 ] final  153.75 input  -65.29 | X-H torsion
[ 10718 10713 10712 10709 ] final  -51.50 input   66.30 | X-H torsion
[ 10763 10752 10751 10750 ] final  -54.42 input  -60.55 | X-H torsion
[ 11005 11000 10999 10996 ] final  166.41 input  -57.11 | X-H torsion

> <Gold.Protein.ActiveResidues>
 VAL166  LYS551  ARG553  GLY616  TRP617  ASP618  TYR619  PRO620  LYS621  CYS622 
 ASP623  PHE694  ASN695  SER759  ASP760  ASP761  ALA762  ILE779  LEU786  VAL792 
 PHE793  MET794  SER795  GLU796  ALA797  LYS798  CYS799  TRP800  GLU811  SER814 

> <Gold.Protein.RotatedAtoms>
  152.0136  134.9862  160.0568 H   0  0  0  0  0  0  0  0  0  0  0  0  # atno 6907 bound_to 6896
  152.1405  133.4456  159.4772 H   0  0  0  0  0  0  0  0  0  0  0  0  # atno 6908 bound_to 6896
  150.6864  134.2230  159.4447 H   0  0  0  0  0  0  0  0  0  0  0  0  # atno 6909 bound_to 6896
  144.7145  140.1756  143.6363 H   0  0  0  0  0  0  0  0  0  0  0  0  # atno 7974 bound_to 7965
  154.5216  140.0786  156.8182 H   0  0  0  0  0  0  0  0  0  0  0  0  # atno 8008 bound_to 7997
  155.3564  140.3415  155.4222 H   0  0  0  0  0  0  0  0  0  0  0  0  # atno 8009 bound_to 7997
  156.1687  140.1612  156.8473 H   0  0  0  0  0  0  0  0  0  0  0  0  # atno 8010 bound_to 7997
  139.4826  144.5246  151.7821 H   0  0  0  0  0  0  0  0  0  0  0  0  # atno 10167 bound_to 10162
  156.1704  130.4149  149.9655 H   0  0  0  0  0  0  0  0  0  0  0  0  # atno 10718 bound_to 10713
  154.1745  135.6453  153.5018 H   0  0  0  0  0  0  0  0  0  0  0  0  # atno 10763 bound_to 10752
  153.0075  135.5391  154.6578 H   0  0  0  0  0  0  0  0  0  0  0  0  # atno 10764 bound_to 10752
  154.5926  135.2935  155.0592 H   0  0  0  0  0  0  0  0  0  0  0  0  # atno 10765 bound_to 10752
  140.2661  134.7863  157.3634 H   0  0  0  0  0  0  0  0  0  0  0  0  # atno 11005 bound_to 11000
  145.8903  139.2372  143.1553 LP  0  0  0  0  0  0  0  0  0  0  0  0  # atno 17320 bound_to 7965
  145.9910  140.8603  143.0066 LP  0  0  0  0  0  0  0  0  0  0  0  0  # atno 17321 bound_to 7965
  140.4765  144.1512  150.5925 LP  0  0  0  0  0  0  0  0  0  0  0  0  # atno 17342 bound_to 10162
  140.4325  143.2562  151.9577 LP  0  0  0  0  0  0  0  0  0  0  0  0  # atno 17343 bound_to 10162
  156.7457  130.9096  151.3634 LP  0  0  0  0  0  0  0  0  0  0  0  0  # atno 17370 bound_to 10713
  157.6799  130.9129  150.0241 LP  0  0  0  0  0  0  0  0  0  0  0  0  # atno 17371 bound_to 10713
  140.1417  134.4963  155.8026 LP  0  0  0  0  0  0  0  0  0  0  0  0  # atno 17394 bound_to 11000
  141.2184  133.6828  156.7222 LP  0  0  0  0  0  0  0  0  0  0  0  0  # atno 17395 bound_to 11000

$$$$
