AV-unprocessed.smi:1983|AV-procd|sdf|8031|dock3
  -GOLD-   2272010223D 1   1.00000     0.00000
 Structure written by MMmdl.
 49 50  0  0  0  0  0  0  0  0  1 V2000
  148.2253  133.7279  155.0391 C   0  0  0  0  0  0  0  0  0  0  0  0
  149.1557  134.8499  155.5239 C   0  0  1  0  0  0  0  0  0  0  0  0
  150.6251  134.3912  155.6164 C   0  0  0  0  0  0  0  0  0  0  0  0
  151.4330  135.4218  156.1439 O   0  0  0  0  0  0  0  0  0  0  0  0
  149.0341  135.9927  154.6226 N   0  0  0  0  0  0  0  0  0  0  0  0
  148.6400  137.2230  154.9813 C   0  0  0  0  0  0  0  0  0  0  0  0
  148.3298  137.5414  156.1296 O   0  0  0  0  0  0  0  0  0  0  0  0
  148.6354  138.0686  153.9413 N   0  0  0  0  0  0  0  0  0  0  0  0
  148.2958  139.4841  154.0276 C   0  0  0  0  0  0  0  0  0  0  0  0
  149.0821  140.2118  155.1037 C   0  0  0  0  0  0  0  0  0  0  0  0
  150.4870  140.1253  155.1591 C   0  0  0  0  0  0  0  0  0  0  0  0
  151.1719  140.8072  156.1827 C   0  0  0  0  0  0  0  0  0  0  0  0
  150.4309  141.5559  157.1273 C   0  0  0  0  0  0  0  0  0  0  0  0
  151.1003  142.2415  158.1623 N   0  0  0  0  0  0  0  0  0  0  0  0
  151.8649  141.4538  159.1245 C   0  0  0  0  0  0  0  0  0  0  0  0
  152.7829  142.3692  159.9533 C   0  0  2  0  0  0  0  0  0  0  0  0
  153.5108  141.5994  161.0600 C   0  0  0  0  0  0  0  0  0  0  0  0
  152.0048  143.3967  160.5662 O   0  0  0  0  0  0  0  0  0  0  0  0
  151.2596  144.2084  159.6551 C   0  0  1  0  0  0  0  0  0  0  0  0
  152.1640  145.1515  158.8418 C   0  0  0  0  0  0  0  0  0  0  0  0
  150.3459  143.3282  158.7790 C   0  0  0  0  0  0  0  0  0  0  0  0
  149.0780  141.6327  157.0723 N   0  0  0  0  0  0  0  0  0  0  0  0
  148.4266  140.9807  156.0863 C   0  0  0  0  0  0  0  0  0  0  0  0
  148.2529  132.8724  155.7144 H   0  0  0  0  0  0  0  0  0  0  0  0
  148.5097  133.3770  154.0467 H   0  0  0  0  0  0  0  0  0  0  0  0
  147.1911  134.0698  154.9885 H   0  0  0  0  0  0  0  0  0  0  0  0
  148.8199  135.1625  156.5147 H   0  0  0  0  0  0  0  0  0  0  0  0
  150.7203  133.4979  156.2345 H   0  0  0  0  0  0  0  0  0  0  0  0
  151.0164  134.1414  154.6295 H   0  0  0  0  0  0  0  0  0  0  0  0
  150.8696  136.1029  156.4784 H   0  0  0  0  0  0  0  0  0  0  0  0
  149.2705  135.8329  153.6544 H   0  0  0  0  0  0  0  0  0  0  0  0
  148.9015  137.7150  153.0341 H   0  0  0  0  0  0  0  0  0  0  0  0
  148.5135  139.9479  153.0652 H   0  0  0  0  0  0  0  0  0  0  0  0
  147.2235  139.6048  154.1916 H   0  0  0  0  0  0  0  0  0  0  0  0
  151.0329  139.5423  154.4320 H   0  0  0  0  0  0  0  0  0  0  0  0
  152.2479  140.7375  156.2429 H   0  0  0  0  0  0  0  0  0  0  0  0
  151.1753  140.9181  159.7784 H   0  0  0  0  0  0  0  0  0  0  0  0
  152.4685  140.7079  158.6056 H   0  0  0  0  0  0  0  0  0  0  0  0
  153.5360  142.8162  159.3038 H   0  0  0  0  0  0  0  0  0  0  0  0
  154.1345  140.8088  160.6423 H   0  0  0  0  0  0  0  0  0  0  0  0
  152.8048  141.1395  161.7520 H   0  0  0  0  0  0  0  0  0  0  0  0
  154.1567  142.2630  161.6356 H   0  0  0  0  0  0  0  0  0  0  0  0
  150.6182  144.8413  160.2690 H   0  0  0  0  0  0  0  0  0  0  0  0
  151.5653  145.8477  158.2542 H   0  0  0  0  0  0  0  0  0  0  0  0
  152.8064  144.6121  158.1461 H   0  0  0  0  0  0  0  0  0  0  0  0
  152.8026  145.7404  159.5004 H   0  0  0  0  0  0  0  0  0  0  0  0
  149.8445  143.9483  158.0367 H   0  0  0  0  0  0  0  0  0  0  0  0
  149.5624  142.8879  159.3972 H   0  0  0  0  0  0  0  0  0  0  0  0
  147.3503  141.0707  156.0888 H   0  0  0  0  0  0  0  0  0  0  0  0
  1  2  1  0  0  0  0
  1 24  1  0  0  0  0
  1 25  1  0  0  0  0
  1 26  1  0  0  0  0
  2  3  1  0  0  0  0
  2  5  1  0  0  0  0
  2 27  1  0  0  0  0
  3  4  1  0  0  0  0
  3 28  1  0  0  0  0
  3 29  1  0  0  0  0
  4 30  1  0  0  0  0
  5  6  1  0  0  0  0
  5 31  1  0  0  0  0
  6  7  2  0  0  0  0
  6  8  1  0  0  0  0
  8  9  1  0  0  0  0
  8 32  1  0  0  0  0
  9 10  1  0  0  0  0
  9 33  1  0  0  0  0
  9 34  1  0  0  0  0
 10 23  1  0  0  0  0
 10 11  2  0  0  0  0
 11 12  1  0  0  0  0
 11 35  1  0  0  0  0
 12 13  2  0  0  0  0
 12 36  1  0  0  0  0
 13 14  1  0  0  0  0
 13 22  1  0  0  0  0
 14 21  1  0  0  0  0
 14 15  1  0  0  0  0
 15 16  1  0  0  0  0
 15 37  1  0  0  0  0
 15 38  1  0  0  0  0
 16 17  1  0  0  0  0
 16 18  1  0  0  0  0
 16 39  1  0  0  0  0
 17 40  1  0  0  0  0
 17 41  1  0  0  0  0
 17 42  1  0  0  0  0
 18 19  1  0  0  0  0
 19 20  1  0  0  0  0
 19 21  1  0  0  0  0
 19 43  1  0  0  0  0
 20 44  1  0  0  0  0
 20 45  1  0  0  0  0
 20 46  1  0  0  0  0
 21 47  1  0  0  0  0
 21 48  1  0  0  0  0
 22 23  2  0  0  0  0
 23 49  1  0  0  0  0
M  END
> <s_m_source_file>
AV-unprocessed.smi

> <i_m_source_file_index>
1983

> <i_lp_mmshare_version>
43012

> <i_f3d_flags>
0

> <s_epik_input>
W09IXVtDSDJdW0NAQEhdKFtDSDNdKVtOSF1DKD1PKVtOSF1bQ0gyXWMxW2NIXVtjSF1jKG5bY0hdMSlOMltDSDJdW0NAQEhdKFtDSDNdKU9bQ0BASF0oW0NIM10pW0NIMl0y

> <s_epik_cmdline>
J2VwaWtfcHl0aG9uJywgJy1waCcsICc3LjAnLCAnLXRuJywgJzgnLCAnLW1hJywgJzIwMCcsICctbWV0YWxfYmluZGluZycsICctaW1hZScsICc8aW5maWxlLm1hZT4nLCAnLW9tYWUnLCAnPG91dGZpbGUubWFlPic=

> <r_lp_tautomer_probability>
1

> <r_epik_Ionization_Penalty>
0.00801967

> <r_epik_Ionization_Penalty_Charging>
0

> <r_epik_Ionization_Penalty_Neutral>
0.00801967

> <r_epik_State_Penalty>
0.00598289

> <r_epik_Charging_Adjusted_Penalty>
0.00598289

> <i_epik_Tot_Q>
0

> <i_epik_Tot_abs_Q>
0

> <r_epik_Metal_State_Penalty>
0.00590297

> <b_epik_Metal_Only>
0

> <s_lp_Force_Field>
OPLS_2005

> <r_lp_Energy>
16.1949

> <b_lp_Chiralities_Consistent>
1

> <s_lp_Variant>
AV-unprocessed.smi:1983-4

> <Gold.Version>
5.8.1

> <Gold.Id.Protein>
6NUR|6NUR_protein|mol2

> <Gold.PLP.Fitness>
47.7908

> <Gold.PLP.PLP>
-39.2287

> <Gold.PLP.part.hbond>
-3.0000

> <Gold.PLP.part.metal>
0.0000

> <Gold.PLP.part.buried>
-5.0543

> <Gold.PLP.part.nonpolar>
-31.8452

> <Gold.PLP.part.repulsive>
0.2331

> <Gold.PLP.ligand.clash>
0.0000

> <Gold.PLP.ligand.torsion>
0.4038

> <Gold.PLP.Chemscore.Hbond>
3.0000

> <Gold.PLP.Chemscore.CHOScore>
0.0000

> <Gold.PLP.Chemscore.Metal>
0.0000

> <Gold.Chemscore.Hbonds>
donor molecule, donor type, donor heavy atom, donor atom, acceptor molecule, acceptor atom, score
      L1  H     5    31       P1  7948  0.99
      L1  H     8    32       P1  7948  0.98
      P1  H 10752 10763       L1     4  0.91

> <Gold.PLP.Chemscore.Internal.Correction>
0.3697

> <Gold.Rescore>
     Score         DG    S(hbond)    S(metal)    S(lipo)     H(rot)  DE(clash)    DE(int)     intcor
     18.81     -20.71       2.86        0.00     105.55       2.61       0.08       1.82       ----

> <Gold.Chemscore.Fitness>
18.8056

> <Gold.Chemscore.DG>
-20.7083

> <Gold.Chemscore.ZeroCoef>
-5.4800

> <Gold.Chemscore.Hbond>
2.8623

> <Gold.Chemscore.Metal>
0.0000

> <Gold.Chemscore.Lipo>
105.5478

> <Gold.Chemscore.Internal_Hbond>
0.0000

> <Gold.Chemscore.DEClash>
0.0835

> <Gold.Chemscore.DEInternal>
1.8192

> <Gold.Chemscore.Rot>
2.6097

> <Gold.Chemscore.Internal.Correction>
   9.000000E+99

> <Gold.Chemscore.Hbonds>
donor molecule, donor type, donor heavy atom, donor atom, acceptor molecule, acceptor atom, score
      L1  H     5    31       P1  7948  0.66
      L1  H     8    32       P1  7948  0.92
      P1  H 10752 10763       L1     4  0.29

> <Gold.Chemscore.Hbond.Weighted>
-9.5601

> <Gold.Chemscore.Metal.Weighted>
-0.0000

> <Gold.Chemscore.Lipo.Weighted>
-12.3491

> <Gold.Chemscore.Internal_Hbond.Weighted>
0.0000

> <Gold.Chemscore.DEClash.Weighted>
0.0835

> <Gold.Chemscore.DEInternal.Weighted>
1.8192

> <Gold.Chemscore.Rot.Weighted>
6.6809

> <Gold.Chemscore.Internal.Correction.Weighted>
   9.000000E+99

> <Gold.Protein.RotatedTorsions>
[ 6907 6896 6895 6894 ] final  128.84 input  -60.11 | X-H torsion
[ 7974 7965 7964 7962 ] final   41.15 input  175.53 | X-H torsion
[ 8008 7997 7996 7995 ] final  -41.98 input   59.86 | X-H torsion
[ 10167 10162 10161 10158 ] final  154.08 input  -65.29 | X-H torsion
[ 10718 10713 10712 10709 ] final  -78.06 input   66.30 | X-H torsion
[ 10763 10752 10751 10750 ] final   69.80 input  -60.55 | X-H torsion
[ 11005 11000 10999 10996 ] final  -89.97 input  -57.11 | X-H torsion

> <Gold.Protein.ActiveResidues>
 VAL166  LYS551  ARG553  GLY616  TRP617  ASP618  TYR619  PRO620  LYS621  CYS622 
 ASP623  PHE694  ASN695  SER759  ASP760  ASP761  ALA762  ILE779  LEU786  VAL792 
 PHE793  MET794  SER795  GLU796  ALA797  LYS798  CYS799  TRP800  GLU811  SER814 

> <Gold.Protein.RotatedAtoms>
  152.3681  133.6383  159.6065 H   0  0  0  0  0  0  0  0  0  0  0  0  # atno 6907 bound_to 6896
  150.7649  133.9314  159.3437 H   0  0  0  0  0  0  0  0  0  0  0  0  # atno 6908 bound_to 6896
  151.7142  135.0908  160.0324 H   0  0  0  0  0  0  0  0  0  0  0  0  # atno 6909 bound_to 6896
  146.0847  139.5449  142.9514 H   0  0  0  0  0  0  0  0  0  0  0  0  # atno 7974 bound_to 7965
  154.4001  140.1485  156.3279 H   0  0  0  0  0  0  0  0  0  0  0  0  # atno 8008 bound_to 7997
  155.8470  140.3459  155.5647 H   0  0  0  0  0  0  0  0  0  0  0  0  # atno 8009 bound_to 7997
  155.8026  140.0872  157.1939 H   0  0  0  0  0  0  0  0  0  0  0  0  # atno 8010 bound_to 7997
  139.4824  144.5218  151.7864 H   0  0  0  0  0  0  0  0  0  0  0  0  # atno 10167 bound_to 10162
  156.0127  130.4508  150.3440 H   0  0  0  0  0  0  0  0  0  0  0  0  # atno 10718 bound_to 10713
  153.0307  135.5197  154.7344 H   0  0  0  0  0  0  0  0  0  0  0  0  # atno 10763 bound_to 10752
  154.6362  135.2906  155.0160 H   0  0  0  0  0  0  0  0  0  0  0  0  # atno 10764 bound_to 10752
  154.1094  135.6624  153.4935 H   0  0  0  0  0  0  0  0  0  0  0  0  # atno 10765 bound_to 10752
  141.1574  133.7663  156.9672 H   0  0  0  0  0  0  0  0  0  0  0  0  # atno 11005 bound_to 11000
  145.6152  141.0332  143.1945 LP  0  0  0  0  0  0  0  0  0  0  0  0  # atno 17320 bound_to 7965
  144.7317  139.7705  143.7344 LP  0  0  0  0  0  0  0  0  0  0  0  0  # atno 17321 bound_to 7965
  140.4732  144.1556  150.5921 LP  0  0  0  0  0  0  0  0  0  0  0  0  # atno 17342 bound_to 10162
  140.4359  143.2547  151.9536 LP  0  0  0  0  0  0  0  0  0  0  0  0  # atno 17343 bound_to 10162
  157.1534  131.0327  151.2874 LP  0  0  0  0  0  0  0  0  0  0  0  0  # atno 17370 bound_to 10713
  157.4372  130.7524  149.7039 LP  0  0  0  0  0  0  0  0  0  0  0  0  # atno 17371 bound_to 10713
  140.1154  134.9451  157.2126 LP  0  0  0  0  0  0  0  0  0  0  0  0  # atno 17394 bound_to 11000
  140.3140  134.2991  155.7260 LP  0  0  0  0  0  0  0  0  0  0  0  0  # atno 17395 bound_to 11000

$$$$
