AV-unprocessed.smi:657|AV-procd|sdf|3221|dock2
  -GOLD-   22720 0163D 1   1.00000     0.00000
 Structure written by MMmdl.
 47 48  0  0  0  0  0  0  0  0  2 V2000
  150.2381  134.9128  155.0047 C   0  0  0  0  0  0  0  0  0  0  0  0
  150.5549  136.4218  154.9214 C   0  0  0  0  0  0  0  0  0  0  0  0
  151.2183  136.8480  156.2478 C   0  0  0  0  0  0  0  0  0  0  0  0
  149.3467  137.2566  154.5977 N   0  3  1  0  0  0  0  0  0  0  0  0
  148.2816  137.2175  155.6492 C   0  0  0  0  0  0  0  0  0  0  0  0
  146.9940  137.9316  155.2053 C   0  0  0  0  0  0  0  0  0  0  0  0
  147.2733  139.3713  154.7732 C   0  0  0  0  0  0  0  0  0  0  0  0
  148.3283  139.3611  153.6628 C   0  0  0  0  0  0  0  0  0  0  0  0
  149.6302  138.6490  154.0986 C   0  0  1  0  0  0  0  0  0  0  0  0
  150.4607  139.5427  155.0466 C   0  0  0  0  0  0  0  0  0  0  0  0
  151.5709  139.9652  154.7250 O   0  0  0  0  0  0  0  0  0  0  0  0
  149.9056  139.7956  156.2417 N   0  0  0  0  0  0  0  0  0  0  0  0
  150.5377  140.5312  157.3339 C   0  0  0  0  0  0  0  0  0  0  0  0
  151.2699  141.8066  156.8636 C   0  0  0  0  0  0  0  0  0  0  0  0
  151.6047  142.7456  157.9938 C   0  0  0  0  0  0  0  0  0  0  0  0
  152.5939  142.5890  159.0064 C   0  0  0  0  0  0  0  0  0  0  0  0
  152.6592  143.6259  159.8255 N   0  0  0  0  0  0  0  0  0  0  0  0
  151.7095  144.4709  159.3746 N   0  0  0  0  0  0  0  0  0  0  0  0
  151.5040  145.7377  160.0428 C   0  0  0  0  0  0  0  0  0  0  0  0
  151.0515  143.9623  158.2766 C   0  0  0  0  0  0  0  0  0  0  0  0
  151.1100  134.3469  155.3349 H   0  0  0  0  0  0  0  0  0  0  0  0
  149.9573  134.4939  154.0386 H   0  0  0  0  0  0  0  0  0  0  0  0
  149.4318  134.7131  155.7113 H   0  0  0  0  0  0  0  0  0  0  0  0
  151.2936  136.5596  154.1314 H   0  0  0  0  0  0  0  0  0  0  0  0
  152.0056  136.1498  156.5348 H   0  0  0  0  0  0  0  0  0  0  0  0
  150.4951  136.8785  157.0635 H   0  0  0  0  0  0  0  0  0  0  0  0
  151.6979  137.8237  156.1788 H   0  0  0  0  0  0  0  0  0  0  0  0
  148.0031  136.1908  155.8756 H   0  0  0  0  0  0  0  0  0  0  0  0
  148.6470  137.6446  156.5826 H   0  0  0  0  0  0  0  0  0  0  0  0
  146.5393  137.3837  154.3788 H   0  0  0  0  0  0  0  0  0  0  0  0
  146.2661  137.9225  156.0173 H   0  0  0  0  0  0  0  0  0  0  0  0
  146.3574  139.8445  154.4183 H   0  0  0  0  0  0  0  0  0  0  0  0
  147.6184  139.9580  155.6250 H   0  0  0  0  0  0  0  0  0  0  0  0
  147.9197  138.8557  152.7866 H   0  0  0  0  0  0  0  0  0  0  0  0
  148.5342  140.3842  153.3430 H   0  0  0  0  0  0  0  0  0  0  0  0
  150.2114  138.5499  153.1820 H   0  0  0  0  0  0  0  0  0  0  0  0
  148.9917  139.4093  156.4299 H   0  0  0  0  0  0  0  0  0  0  0  0
  149.8079  140.7684  158.1093 H   0  0  0  0  0  0  0  0  0  0  0  0
  151.2607  139.8538  157.7891 H   0  0  0  0  0  0  0  0  0  0  0  0
  152.1813  141.5126  156.3419 H   0  0  0  0  0  0  0  0  0  0  0  0
  150.6606  142.3098  156.1129 H   0  0  0  0  0  0  0  0  0  0  0  0
  153.2746  141.7642  159.1579 H   0  0  0  0  0  0  0  0  0  0  0  0
  150.6182  146.2316  159.6427 H   0  0  0  0  0  0  0  0  0  0  0  0
  152.3704  146.3807  159.8854 H   0  0  0  0  0  0  0  0  0  0  0  0
  151.3658  145.5753  161.1124 H   0  0  0  0  0  0  0  0  0  0  0  0
  150.2627  144.5092  157.7812 H   0  0  0  0  0  0  0  0  0  0  0  0
  148.9293  136.7941  153.8030 H   0  0  0  0  0  0  0  0  0  0  0  0
  1  2  1  0  0  0  0
  1 21  1  0  0  0  0
  1 22  1  0  0  0  0
  1 23  1  0  0  0  0
  2  3  1  0  0  0  0
  2  4  1  0  0  0  0
  2 24  1  0  0  0  0
  3 25  1  0  0  0  0
  3 26  1  0  0  0  0
  3 27  1  0  0  0  0
  4  9  1  0  0  0  0
  4  5  1  0  0  0  0
  4 47  1  0  0  0  0
  5  6  1  0  0  0  0
  5 28  1  0  0  0  0
  5 29  1  0  0  0  0
  6  7  1  0  0  0  0
  6 30  1  0  0  0  0
  6 31  1  0  0  0  0
  7  8  1  0  0  0  0
  7 32  1  0  0  0  0
  7 33  1  0  0  0  0
  8  9  1  0  0  0  0
  8 34  1  0  0  0  0
  8 35  1  0  0  0  0
  9 10  1  0  0  0  0
  9 36  1  0  0  0  0
 10 11  2  0  0  0  0
 10 12  1  0  0  0  0
 12 13  1  0  0  0  0
 12 37  1  0  0  0  0
 13 14  1  0  0  0  0
 13 38  1  0  0  0  0
 13 39  1  0  0  0  0
 14 15  1  0  0  0  0
 14 40  1  0  0  0  0
 14 41  1  0  0  0  0
 15 20  2  0  0  0  0
 15 16  1  0  0  0  0
 16 17  2  0  0  0  0
 16 42  1  0  0  0  0
 17 18  1  0  0  0  0
 18 19  1  0  0  0  0
 18 20  1  0  0  0  0
 19 43  1  0  0  0  0
 19 44  1  0  0  0  0
 19 45  1  0  0  0  0
 20 46  1  0  0  0  0
M  CHG  1   4   1
M  END
> <s_m_source_file>
AV-unprocessed.smi

> <i_m_source_file_index>
657

> <i_lp_mmshare_version>
43012

> <i_f3d_flags>
0

> <s_epik_input>
W0NIM11bQ0hdKFtDSDNdKU4xW0NIMl1bQ0gyXVtDSDJdW0NIMl1bQ0BIXTFDKD1PKVtOSF1bQ0gyXVtDSDJdYzJbY0hdbm4oW0NIM10pW2NIXTI=

> <s_epik_cmdline>
J2VwaWtfcHl0aG9uJywgJy1waCcsICc3LjAnLCAnLXRuJywgJzgnLCAnLW1hJywgJzIwMCcsICctbWV0YWxfYmluZGluZycsICctaW1hZScsICc8aW5maWxlLm1hZT4nLCAnLW9tYWUnLCAnPG91dGZpbGUubWFlPic=

> <r_lp_tautomer_probability>
1

> <r_epik_Ionization_Penalty>
0.0244317

> <r_epik_Ionization_Penalty_Charging>
0.0240236

> <r_epik_Ionization_Penalty_Neutral>
0.00040815

> <r_epik_State_Penalty>
0.0194773

> <r_epik_Charging_Adjusted_Penalty>
0.0435009

> <i_epik_Tot_Q>
1

> <i_epik_Tot_abs_Q>
1

> <r_epik_Metal_State_Penalty>
0.0361957

> <b_epik_Metal_Only>
0

> <s_lp_Force_Field>
OPLS_2005

> <r_lp_Energy>
18.2294

> <b_lp_Chiralities_Consistent>
1

> <s_lp_Variant>
AV-unprocessed.smi:657-2

> <Gold.Version>
5.8.1

> <Gold.Id.Protein>
6NUR|6NUR_protein|mol2

> <Gold.PLP.Fitness>
46.0189

> <Gold.PLP.PLP>
-34.6043

> <Gold.PLP.part.hbond>
-1.8567

> <Gold.PLP.part.metal>
0.0000

> <Gold.PLP.part.buried>
-3.6285

> <Gold.PLP.part.nonpolar>
-29.8017

> <Gold.PLP.part.repulsive>
0.1020

> <Gold.PLP.ligand.clash>
0.0000

> <Gold.PLP.ligand.torsion>
0.4542

> <Gold.PLP.Chemscore.Hbond>
2.9913

> <Gold.PLP.Chemscore.CHOScore>
1.0411

> <Gold.PLP.Chemscore.Metal>
0.0000

> <Gold.Chemscore.Hbonds>
donor molecule, donor type, donor heavy atom, donor atom, acceptor molecule, acceptor atom, score
      L1  H     4    47       P1  7948  2.00
      P1  H  7989  7998       L1    11  0.98
      L1  C    20    46       P1  8028  0.98
      L1  C    20    46       P1  8029  0.10

> <Gold.PLP.Chemscore.Internal.Correction>
0.2261

> <Gold.Rescore>
     Score         DG    S(hbond)    S(metal)    S(lipo)     H(rot)  DE(clash)    DE(int)     intcor
     13.98     -17.29       1.72        0.00      87.48       1.63       0.60       2.71       ----

> <Gold.Chemscore.Fitness>
13.9769

> <Gold.Chemscore.DG>
-17.2853

> <Gold.Chemscore.ZeroCoef>
-5.4800

> <Gold.Chemscore.Hbond>
1.7179

> <Gold.Chemscore.Metal>
0.0000

> <Gold.Chemscore.Lipo>
87.4780

> <Gold.Chemscore.Internal_Hbond>
0.0000

> <Gold.Chemscore.DEClash>
0.5989

> <Gold.Chemscore.DEInternal>
2.7095

> <Gold.Chemscore.Rot>
1.6279

> <Gold.Chemscore.Internal.Correction>
   9.000000E+99

> <Gold.Chemscore.Hbonds>
donor molecule, donor type, donor heavy atom, donor atom, acceptor molecule, acceptor atom, score
      L1  H     4    47       P1  7948  0.90
      P1  H  7989  7998       L1    11  0.86

> <Gold.Chemscore.Hbond.Weighted>
-5.7377

> <Gold.Chemscore.Metal.Weighted>
-0.0000

> <Gold.Chemscore.Lipo.Weighted>
-10.2349

> <Gold.Chemscore.Internal_Hbond.Weighted>
0.0000

> <Gold.Chemscore.DEClash.Weighted>
0.5989

> <Gold.Chemscore.DEInternal.Weighted>
2.7095

> <Gold.Chemscore.Rot.Weighted>
4.1673

> <Gold.Chemscore.Internal.Correction.Weighted>
   9.000000E+99

> <Gold.Protein.RotatedTorsions>
[ 6907 6896 6895 6894 ] final  -81.18 input  -60.11 | X-H torsion
[ 7974 7965 7964 7962 ] final -172.54 input  175.53 | X-H torsion
[ 8008 7997 7996 7995 ] final   68.61 input   59.86 | X-H torsion
[ 10167 10162 10161 10158 ] final  -67.69 input  -65.29 | X-H torsion
[ 10718 10713 10712 10709 ] final  -77.41 input   66.30 | X-H torsion
[ 10763 10752 10751 10750 ] final -111.33 input  -60.55 | X-H torsion
[ 11005 11000 10999 10996 ] final -116.36 input  -57.11 | X-H torsion

> <Gold.Protein.ActiveResidues>
 VAL166  LYS551  ARG553  GLY616  TRP617  ASP618  TYR619  PRO620  LYS621  CYS622 
 ASP623  PHE694  ASN695  SER759  ASP760  ASP761  ALA762  ILE779  LEU786  VAL792 
 PHE793  MET794  SER795  GLU796  ALA797  LYS798  CYS799  TRP800  GLU811  SER814 

> <Gold.Protein.RotatedAtoms>
  150.6916  134.3857  159.5053 H   0  0  0  0  0  0  0  0  0  0  0  0  # atno 6907 bound_to 6896
  152.1653  134.8876  160.0548 H   0  0  0  0  0  0  0  0  0  0  0  0  # atno 6908 bound_to 6896
  151.9923  133.3760  159.4186 H   0  0  0  0  0  0  0  0  0  0  0  0  # atno 6909 bound_to 6896
  144.7145  140.1757  143.6363 H   0  0  0  0  0  0  0  0  0  0  0  0  # atno 7974 bound_to 7965
  155.7110  140.3494  155.4974 H   0  0  0  0  0  0  0  0  0  0  0  0  # atno 8008 bound_to 7997
  155.9355  140.1092  157.1119 H   0  0  0  0  0  0  0  0  0  0  0  0  # atno 8009 bound_to 7997
  154.4093  140.1223  156.4846 H   0  0  0  0  0  0  0  0  0  0  0  0  # atno 8010 bound_to 7997
  140.5564  143.2312  151.6813 H   0  0  0  0  0  0  0  0  0  0  0  0  # atno 10167 bound_to 10162
  156.0146  130.4490  150.3340 H   0  0  0  0  0  0  0  0  0  0  0  0  # atno 10718 bound_to 10713
  154.8294  135.4531  154.1022 H   0  0  0  0  0  0  0  0  0  0  0  0  # atno 10763 bound_to 10752
  153.2308  135.6905  153.7898 H   0  0  0  0  0  0  0  0  0  0  0  0  # atno 10764 bound_to 10752
  153.7282  135.3331  155.3257 H   0  0  0  0  0  0  0  0  0  0  0  0  # atno 10765 bound_to 10752
  141.0427  133.9810  157.2968 H   0  0  0  0  0  0  0  0  0  0  0  0  # atno 11005 bound_to 11000
  145.8902  139.2372  143.1554 LP  0  0  0  0  0  0  0  0  0  0  0  0  # atno 17320 bound_to 7965
  145.9910  140.8602  143.0066 LP  0  0  0  0  0  0  0  0  0  0  0  0  # atno 17321 bound_to 7965
  139.5050  144.3734  152.0448 LP  0  0  0  0  0  0  0  0  0  0  0  0  # atno 17342 bound_to 10162
  140.2856  144.3811  150.6105 LP  0  0  0  0  0  0  0  0  0  0  0  0  # atno 17343 bound_to 10162
  157.1437  131.0303  151.2916 LP  0  0  0  0  0  0  0  0  0  0  0  0  # atno 17370 bound_to 10713
  157.4450  130.7566  149.7102 LP  0  0  0  0  0  0  0  0  0  0  0  0  # atno 17371 bound_to 10713
  139.9288  135.0201  156.8329 LP  0  0  0  0  0  0  0  0  0  0  0  0  # atno 17394 bound_to 11000
  140.6204  133.9999  155.7616 LP  0  0  0  0  0  0  0  0  0  0  0  0  # atno 17395 bound_to 11000

$$$$
