AV-unprocessed.smi:370|AV-procd|sdf|2437|dock8
  -GOLD-   2262022373D 1   1.00000     0.00000
 Structure written by MMmdl.
 43 44  0  0  0  0  0  0  0  0  2 V2000
  152.5666  139.1450  158.0962 C   0  0  0  0  0  0  0  0  0  0  0  0
  151.9085  138.9636  156.7717 C   0  0  0  0  0  0  0  0  0  0  0  0
  150.7388  138.3713  156.3867 C   0  0  0  0  0  0  0  0  0  0  0  0
  150.7332  138.5603  154.9792 C   0  0  0  0  0  0  0  0  0  0  0  0
  149.6593  138.0833  154.1849 N   0  0  0  0  0  0  0  0  0  0  0  0
  148.3583  138.0283  154.5168 C   0  0  0  0  0  0  0  0  0  0  0  0
  147.8799  138.4226  155.5805 O   0  0  0  0  0  0  0  0  0  0  0  0
  147.6272  137.4782  153.5358 N   0  0  0  0  0  0  0  0  0  0  0  0
  146.1785  137.2722  153.5674 C   0  0  0  0  0  0  0  0  0  0  0  0
  145.5850  136.6731  152.2543 C   0  0  0  0  0  0  0  0  0  0  0  0
  144.0487  136.5588  152.4420 C   0  0  0  0  0  0  0  0  0  0  0  0
  145.8436  137.6117  151.0497 C   0  0  0  0  0  0  0  0  0  0  0  0
  146.2082  135.3163  152.0264 N   0  3  0  0  0  0  0  0  0  0  0  0
  146.2670  134.4075  153.2077 C   0  0  0  0  0  0  0  0  0  0  0  0
  147.0527  133.1259  152.8764 C   0  0  0  0  0  0  0  0  0  0  0  0
  146.4780  132.4738  151.7539 O   0  0  0  0  0  0  0  0  0  0  0  0
  146.5154  133.2971  150.5979 C   0  0  0  0  0  0  0  0  0  0  0  0
  145.6820  134.5625  150.8514 C   0  0  0  0  0  0  0  0  0  0  0  0
  151.8019  139.2098  154.5443 N   0  0  0  0  0  0  0  0  0  0  0  0
  152.5609  139.4715  155.6911 O   0  0  0  0  0  0  0  0  0  0  0  0
  151.9945  138.6570  158.8853 H   0  0  0  0  0  0  0  0  0  0  0  0
  152.6509  140.2032  158.3437 H   0  0  0  0  0  0  0  0  0  0  0  0
  153.5693  138.7171  158.0909 H   0  0  0  0  0  0  0  0  0  0  0  0
  150.0077  137.8826  157.0137 H   0  0  0  0  0  0  0  0  0  0  0  0
  149.9118  137.7377  153.2708 H   0  0  0  0  0  0  0  0  0  0  0  0
  148.1076  137.1830  152.6982 H   0  0  0  0  0  0  0  0  0  0  0  0
  145.9369  136.6627  154.4367 H   0  0  0  0  0  0  0  0  0  0  0  0
  145.7221  138.2438  153.7599 H   0  0  0  0  0  0  0  0  0  0  0  0
  143.5959  137.5129  152.7114 H   0  0  0  0  0  0  0  0  0  0  0  0
  143.7933  135.8470  153.2280 H   0  0  0  0  0  0  0  0  0  0  0  0
  143.5441  136.2491  151.5264 H   0  0  0  0  0  0  0  0  0  0  0  0
  145.2831  138.5424  151.1408 H   0  0  0  0  0  0  0  0  0  0  0  0
  145.5395  137.1545  150.1082 H   0  0  0  0  0  0  0  0  0  0  0  0
  146.8949  137.8871  150.9625 H   0  0  0  0  0  0  0  0  0  0  0  0
  146.7737  134.8749  154.0501 H   0  0  0  0  0  0  0  0  0  0  0  0
  145.2580  134.1534  153.5342 H   0  0  0  0  0  0  0  0  0  0  0  0
  148.1014  133.3545  152.6793 H   0  0  0  0  0  0  0  0  0  0  0  0
  147.0321  132.4444  153.7271 H   0  0  0  0  0  0  0  0  0  0  0  0
  147.5456  133.5492  150.3409 H   0  0  0  0  0  0  0  0  0  0  0  0
  146.1044  132.7390  149.7565 H   0  0  0  0  0  0  0  0  0  0  0  0
  144.6460  134.2695  151.0255 H   0  0  0  0  0  0  0  0  0  0  0  0
  145.6922  135.1655  149.9463 H   0  0  0  0  0  0  0  0  0  0  0  0
  147.1746  135.5148  151.8098 H   0  0  0  0  0  0  0  0  0  0  0  0
  1  2  1  0  0  0  0
  1 21  1  0  0  0  0
  1 22  1  0  0  0  0
  1 23  1  0  0  0  0
  2 20  1  0  0  0  0
  2  3  2  0  0  0  0
  3  4  1  0  0  0  0
  3 24  1  0  0  0  0
  4  5  1  0  0  0  0
  4 19  2  0  0  0  0
  5  6  1  0  0  0  0
  5 25  1  0  0  0  0
  6  7  2  0  0  0  0
  6  8  1  0  0  0  0
  8  9  1  0  0  0  0
  8 26  1  0  0  0  0
  9 10  1  0  0  0  0
  9 27  1  0  0  0  0
  9 28  1  0  0  0  0
 10 11  1  0  0  0  0
 10 12  1  0  0  0  0
 10 13  1  0  0  0  0
 11 29  1  0  0  0  0
 11 30  1  0  0  0  0
 11 31  1  0  0  0  0
 12 32  1  0  0  0  0
 12 33  1  0  0  0  0
 12 34  1  0  0  0  0
 13 18  1  0  0  0  0
 13 14  1  0  0  0  0
 13 43  1  0  0  0  0
 14 15  1  0  0  0  0
 14 35  1  0  0  0  0
 14 36  1  0  0  0  0
 15 16  1  0  0  0  0
 15 37  1  0  0  0  0
 15 38  1  0  0  0  0
 16 17  1  0  0  0  0
 17 18  1  0  0  0  0
 17 39  1  0  0  0  0
 17 40  1  0  0  0  0
 18 41  1  0  0  0  0
 18 42  1  0  0  0  0
 19 20  1  0  0  0  0
M  CHG  1  13   1
M  END
> <s_m_source_file>
AV-unprocessed.smi

> <i_m_source_file_index>
370

> <i_lp_mmshare_version>
43012

> <i_f3d_flags>
0

> <s_epik_input>
W0NIM11jMVtjSF1jKG5vMSlbTkhdQyg9TylbTkhdW0NIMl1DKFtDSDNdKShbQ0gzXSlOMltDSDJdW0NIMl1PW0NIMl1bQ0gyXTI=

> <s_epik_cmdline>
J2VwaWtfcHl0aG9uJywgJy1waCcsICc3LjAnLCAnLXRuJywgJzgnLCAnLW1hJywgJzIwMCcsICctbWV0YWxfYmluZGluZycsICctaW1hZScsICc8aW5maWxlLm1hZT4nLCAnLW9tYWUnLCAnPG91dGZpbGUubWFlPic=

> <r_epik_Ionization_Penalty>
0.707076

> <r_epik_Ionization_Penalty_Charging>
0.707039

> <r_epik_Ionization_Penalty_Neutral>
3.67886e-05

> <r_epik_State_Penalty>
0.730276

> <r_epik_Charging_Adjusted_Penalty>
1.43732

> <i_epik_Tot_Q>
1

> <i_epik_Tot_abs_Q>
1

> <r_epik_Metal_State_Penalty>
0.743216

> <b_epik_Metal_Only>
0

> <s_lp_Force_Field>
OPLS_2005

> <r_lp_Energy>
23.7539

> <b_lp_Chiralities_Consistent>
1

> <s_lp_Variant>
AV-unprocessed.smi:370-2

> <Gold.Version>
5.8.1

> <Gold.Id.Protein>
6NUR|6NUR_protein|mol2

> <Gold.PLP.Fitness>
40.0509

> <Gold.PLP.PLP>
-24.7923

> <Gold.PLP.part.hbond>
-4.7839

> <Gold.PLP.part.metal>
0.0000

> <Gold.PLP.part.buried>
0.6974

> <Gold.PLP.part.nonpolar>
-21.2363

> <Gold.PLP.part.repulsive>
0.3391

> <Gold.PLP.ligand.clash>
0.0000

> <Gold.PLP.ligand.torsion>
0.3730

> <Gold.PLP.Chemscore.Hbond>
5.3043

> <Gold.PLP.Chemscore.CHOScore>
0.0000

> <Gold.PLP.Chemscore.Metal>
0.0000

> <Gold.Chemscore.Hbonds>
donor molecule, donor type, donor heavy atom, donor atom, acceptor molecule, acceptor atom, score
      L1  H     5    25       P1  7948  0.35
      L1  H     8    26       P1  7948  0.96
      L1  H    13    43       P1  7948  2.00
      P1  H  7989  7998       L1    19  1.00
      P1  H  7997  8010       L1    20  1.00

> <Gold.PLP.Chemscore.Internal.Correction>
0.0917

> <Gold.Rescore>
     Score         DG    S(hbond)    S(metal)    S(lipo)     H(rot)  DE(clash)    DE(int)     intcor
     19.30     -21.44       3.97        0.00      58.17       1.60       1.68       0.46       ----

> <Gold.Chemscore.Fitness>
19.2971

> <Gold.Chemscore.DG>
-21.4398

> <Gold.Chemscore.ZeroCoef>
-5.4800

> <Gold.Chemscore.Hbond>
3.9656

> <Gold.Chemscore.Metal>
0.0000

> <Gold.Chemscore.Lipo>
58.1653

> <Gold.Chemscore.Internal_Hbond>
0.0000

> <Gold.Chemscore.DEClash>
1.6802

> <Gold.Chemscore.DEInternal>
0.4624

> <Gold.Chemscore.Rot>
1.5979

> <Gold.Chemscore.Internal.Correction>
   9.000000E+99

> <Gold.Chemscore.Hbonds>
donor molecule, donor type, donor heavy atom, donor atom, acceptor molecule, acceptor atom, score
      L1  H     5    25       P1  7948  0.17
      L1  H     8    26       P1  7948  0.89
      L1  H    13    43       P1  7948  1.00
      P1  H  7989  7998       L1    19  0.65
      P1  H  7997  8010       L1    20  0.91

> <Gold.Chemscore.Hbond.Weighted>
-13.2451

> <Gold.Chemscore.Metal.Weighted>
-0.0000

> <Gold.Chemscore.Lipo.Weighted>
-6.8053

> <Gold.Chemscore.Internal_Hbond.Weighted>
0.0000

> <Gold.Chemscore.DEClash.Weighted>
1.6802

> <Gold.Chemscore.DEInternal.Weighted>
0.4624

> <Gold.Chemscore.Rot.Weighted>
4.0906

> <Gold.Chemscore.Internal.Correction.Weighted>
   9.000000E+99

> <Gold.Protein.RotatedTorsions>
[ 6907 6896 6895 6894 ] final    9.57 input  -60.11 | X-H torsion
[ 7974 7965 7964 7962 ] final  -60.69 input  175.53 | X-H torsion
[ 8008 7997 7996 7995 ] final  103.07 input   59.86 | X-H torsion
[ 10167 10162 10161 10158 ] final    8.24 input  -65.29 | X-H torsion
[ 10718 10713 10712 10709 ] final   21.13 input   66.30 | X-H torsion
[ 10763 10752 10751 10750 ] final  -80.35 input  -60.55 | X-H torsion
[ 11005 11000 10999 10996 ] final -123.93 input  -57.11 | X-H torsion

> <Gold.Protein.ActiveResidues>
 VAL166  LYS551  ARG553  GLY616  TRP617  ASP618  TYR619  PRO620  LYS621  CYS622 
 ASP623  PHE694  ASN695  SER759  ASP760  ASP761  ALA762  ILE779  LEU786  VAL792 
 PHE793  MET794  SER795  GLU796  ALA797  LYS798  CYS799  TRP800  GLU811  SER814 

> <Gold.Protein.RotatedAtoms>
  151.7242  135.0888  160.0289 H   0  0  0  0  0  0  0  0  0  0  0  0  # atno 6907 bound_to 6896
  152.3582  133.6259  159.6004 H   0  0  0  0  0  0  0  0  0  0  0  0  # atno 6908 bound_to 6896
  150.7586  133.9382  159.3489 H   0  0  0  0  0  0  0  0  0  0  0  0  # atno 6909 bound_to 6896
  145.8125  140.8590  143.0174 H   0  0  0  0  0  0  0  0  0  0  0  0  # atno 7974 bound_to 7965
  156.1451  140.3171  155.8557 H   0  0  0  0  0  0  0  0  0  0  0  0  # atno 8008 bound_to 7997
  155.4080  140.0504  157.3050 H   0  0  0  0  0  0  0  0  0  0  0  0  # atno 8009 bound_to 7997
  154.5009  140.2129  155.9360 H   0  0  0  0  0  0  0  0  0  0  0  0  # atno 8010 bound_to 7997
  140.6325  143.7960  150.7315 H   0  0  0  0  0  0  0  0  0  0  0  0  # atno 10167 bound_to 10162
  157.1342  130.6604  149.5961 H   0  0  0  0  0  0  0  0  0  0  0  0  # atno 10718 bound_to 10713
  154.5501  135.5664  153.6914 H   0  0  0  0  0  0  0  0  0  0  0  0  # atno 10763 bound_to 10752
  152.9987  135.6248  154.2386 H   0  0  0  0  0  0  0  0  0  0  0  0  # atno 10764 bound_to 10752
  154.2320  135.2865  155.2866 H   0  0  0  0  0  0  0  0  0  0  0  0  # atno 10765 bound_to 10752
  140.9881  134.0578  157.3687 H   0  0  0  0  0  0  0  0  0  0  0  0  # atno 11005 bound_to 11000
  144.6756  140.0416  143.7481 LP  0  0  0  0  0  0  0  0  0  0  0  0  # atno 17320 bound_to 7965
  145.9762  139.2906  143.1069 LP  0  0  0  0  0  0  0  0  0  0  0  0  # atno 17321 bound_to 7965
  140.1575  143.4304  152.2090 LP  0  0  0  0  0  0  0  0  0  0  0  0  # atno 17342 bound_to 10162
  139.5538  144.7358  151.4355 LP  0  0  0  0  0  0  0  0  0  0  0  0  # atno 17343 bound_to 10162
  155.9801  130.4800  150.6756 LP  0  0  0  0  0  0  0  0  0  0  0  0  # atno 17370 bound_to 10713
  157.4365  131.0856  151.0987 LP  0  0  0  0  0  0  0  0  0  0  0  0  # atno 17371 bound_to 10713
  139.8979  135.0152  156.7125 LP  0  0  0  0  0  0  0  0  0  0  0  0  # atno 17394 bound_to 11000
  140.7083  133.9245  155.8068 LP  0  0  0  0  0  0  0  0  0  0  0  0  # atno 17395 bound_to 11000

$$$$
