AV-unprocessed.smi:812|AV-procd|sdf|3816|dock3
  -GOLD-   22720 1253D 1   1.00000     0.00000
 Structure written by MMmdl.
 38 40  0  0  0  0  0  0  0  0  1 V2000
  154.8955  132.5548  160.6650 C   0  0  0  0  0  0  0  0  0  0  0  0
  154.7624  133.6975  161.5878 N   0  0  0  0  0  0  0  0  0  0  0  0
  154.4097  134.9151  161.0676 C   0  0  0  0  0  0  0  0  0  0  0  0
  154.1925  135.1331  159.8750 O   0  0  0  0  0  0  0  0  0  0  0  0
  154.3078  135.9828  162.0694 C   0  0  0  0  0  0  0  0  0  0  0  0
  154.5454  135.7816  163.3891 C   0  0  0  0  0  0  0  0  0  0  0  0
  154.3872  136.9572  164.1148 N   0  0  0  0  0  0  0  0  0  0  0  0
  154.0539  137.8305  163.1641 C   0  0  0  0  0  0  0  0  0  0  0  0
  153.9853  137.3311  161.9137 N   0  0  0  0  0  0  0  0  0  0  0  0
  153.6502  138.0799  160.7111 C   0  0  0  0  0  0  0  0  0  0  0  0
  154.6416  139.2272  160.4272 C   0  0  1  0  0  0  0  0  0  0  0  0
  155.1478  139.1298  159.1099 O   0  0  0  0  0  0  0  0  0  0  0  0
  154.0071  140.5831  160.6928 C   0  0  0  0  0  0  0  0  0  0  0  0
  153.5516  141.3816  159.6205 C   0  0  0  0  0  0  0  0  0  0  0  0
  152.9617  142.6359  159.8698 C   0  0  0  0  0  0  0  0  0  0  0  0
  152.8217  143.0982  161.1924 C   0  0  0  0  0  0  0  0  0  0  0  0
  152.2542  144.3038  161.4321 F   0  0  0  0  0  0  0  0  0  0  0  0
  153.2710  142.3048  162.2655 C   0  0  0  0  0  0  0  0  0  0  0  0
  153.8610  141.0501  162.0168 C   0  0  0  0  0  0  0  0  0  0  0  0
  154.9061  134.4788  163.8204 N   0  0  0  0  0  0  0  0  0  0  0  0
  155.1695  134.2450  165.2429 C   0  0  0  0  0  0  0  0  0  0  0  0
  155.0176  133.4449  162.9247 C   0  0  0  0  0  0  0  0  0  0  0  0
  155.3406  132.3180  163.3116 O   0  0  0  0  0  0  0  0  0  0  0  0
  154.6312  132.7681  159.6288 H   0  0  0  0  0  0  0  0  0  0  0  0
  154.2539  131.7298  160.9796 H   0  0  0  0  0  0  0  0  0  0  0  0
  155.9253  132.1942  160.6577 H   0  0  0  0  0  0  0  0  0  0  0  0
  153.8558  138.8694  163.3838 H   0  0  0  0  0  0  0  0  0  0  0  0
  153.5841  137.3972  159.8653 H   0  0  0  0  0  0  0  0  0  0  0  0
  152.6470  138.4885  160.8397 H   0  0  0  0  0  0  0  0  0  0  0  0
  155.4982  139.1146  161.0933 H   0  0  0  0  0  0  0  0  0  0  0  0
  155.2367  138.2151  158.8896 H   0  0  0  0  0  0  0  0  0  0  0  0
  153.6528  141.0331  158.6028 H   0  0  0  0  0  0  0  0  0  0  0  0
  152.6161  143.2426  159.0459 H   0  0  0  0  0  0  0  0  0  0  0  0
  153.1628  142.6585  163.2803 H   0  0  0  0  0  0  0  0  0  0  0  0
  154.2007  140.4490  162.8475 H   0  0  0  0  0  0  0  0  0  0  0  0
  154.5006  133.4783  165.6367 H   0  0  0  0  0  0  0  0  0  0  0  0
  155.0301  135.1382  165.8513 H   0  0  0  0  0  0  0  0  0  0  0  0
  156.1967  133.9093  165.3904 H   0  0  0  0  0  0  0  0  0  0  0  0
  1  2  1  0  0  0  0
  1 24  1  0  0  0  0
  1 25  1  0  0  0  0
  1 26  1  0  0  0  0
  2 22  1  0  0  0  0
  2  3  1  0  0  0  0
  3  4  2  0  0  0  0
  3  5  1  0  0  0  0
  5  9  1  0  0  0  0
  5  6  2  0  0  0  0
  6  7  1  0  0  0  0
  6 20  1  0  0  0  0
  7  8  2  0  0  0  0
  8  9  1  0  0  0  0
  8 27  1  0  0  0  0
  9 10  1  0  0  0  0
 10 11  1  0  0  0  0
 10 28  1  0  0  0  0
 10 29  1  0  0  0  0
 11 12  1  0  0  0  0
 11 13  1  0  0  0  0
 11 30  1  0  0  0  0
 12 31  1  0  0  0  0
 13 19  1  0  0  0  0
 13 14  2  0  0  0  0
 14 15  1  0  0  0  0
 14 32  1  0  0  0  0
 15 16  2  0  0  0  0
 15 33  1  0  0  0  0
 16 17  1  0  0  0  0
 16 18  1  0  0  0  0
 18 19  2  0  0  0  0
 18 34  1  0  0  0  0
 19 35  1  0  0  0  0
 20 21  1  0  0  0  0
 20 22  1  0  0  0  0
 21 36  1  0  0  0  0
 21 37  1  0  0  0  0
 21 38  1  0  0  0  0
 22 23  2  0  0  0  0
M  END
> <s_m_source_file>
AV-unprocessed.smi

> <i_m_source_file_index>
812

> <i_lp_mmshare_version>
43012

> <i_f3d_flags>
0

> <s_epik_input>
Tz1jMW4oW0NIM10pYyg9TyluKFtDSDNdKWMoYzEyKW5bY0hdbjJbQ0gyXVtDQEhdKFtPSF0pYzNbY0hdW2NIXWMoRilbY0hdW2NIXTM=

> <s_epik_cmdline>
J2VwaWtfcHl0aG9uJywgJy1waCcsICc3LjAnLCAnLXRuJywgJzgnLCAnLW1hJywgJzIwMCcsICctbWV0YWxfYmluZGluZycsICctaW1hZScsICc8aW5maWxlLm1hZT4nLCAnLW9tYWUnLCAnPG91dGZpbGUubWFlPic=

> <r_lp_tautomer_probability>
1

> <r_epik_Ionization_Penalty>
1.45649e-06

> <r_epik_Ionization_Penalty_Charging>
3.74189e-09

> <r_epik_Ionization_Penalty_Neutral>
1.45275e-06

> <r_epik_State_Penalty>
-0

> <r_epik_Charging_Adjusted_Penalty>
3.74189e-09

> <i_epik_Tot_Q>
0

> <i_epik_Tot_abs_Q>
0

> <r_epik_Metal_State_Penalty>
-0

> <b_epik_Metal_Only>
0

> <s_lp_Force_Field>
OPLS_2005

> <r_lp_Energy>
35.4349

> <b_lp_Chiralities_Consistent>
1

> <s_lp_Variant>
AV-unprocessed.smi:812-2

> <Gold.Version>
5.8.1

> <Gold.Id.Protein>
6NUR|6NUR_protein|mol2

> <Gold.PLP.Fitness>
46.6433

> <Gold.PLP.PLP>
-43.1213

> <Gold.PLP.part.hbond>
-2.0000

> <Gold.PLP.part.metal>
0.0000

> <Gold.PLP.part.buried>
-4.5761

> <Gold.PLP.part.nonpolar>
-36.4900

> <Gold.PLP.part.repulsive>
0.0540

> <Gold.PLP.ligand.clash>
0.0000

> <Gold.PLP.ligand.torsion>
1.2514

> <Gold.PLP.Chemscore.Hbond>
2.0000

> <Gold.PLP.Chemscore.CHOScore>
0.0000

> <Gold.PLP.Chemscore.Metal>
0.0000

> <Gold.Chemscore.Hbonds>
donor molecule, donor type, donor heavy atom, donor atom, acceptor molecule, acceptor atom, score
      P1  H  6896  6909       L1     4  0.65
      P1  H  7997  8008       L1    12  1.00

> <Gold.PLP.Chemscore.Internal.Correction>
0.0249

> <Gold.Rescore>
     Score         DG    S(hbond)    S(metal)    S(lipo)     H(rot)  DE(clash)    DE(int)     intcor
     15.45     -16.13       1.95        0.00      84.44       2.24       0.00       0.68       ----

> <Gold.Chemscore.Fitness>
15.4489

> <Gold.Chemscore.DG>
-16.1282

> <Gold.Chemscore.ZeroCoef>
-5.4800

> <Gold.Chemscore.Hbond>
1.9454

> <Gold.Chemscore.Metal>
0.0000

> <Gold.Chemscore.Lipo>
84.4368

> <Gold.Chemscore.Internal_Hbond>
0.0000

> <Gold.Chemscore.DEClash>
0.0000

> <Gold.Chemscore.DEInternal>
0.6793

> <Gold.Chemscore.Rot>
2.2377

> <Gold.Chemscore.Internal.Correction>
   9.000000E+99

> <Gold.Chemscore.Hbonds>
donor molecule, donor type, donor heavy atom, donor atom, acceptor molecule, acceptor atom, score
      P1  H  6896  6909       L1     4  0.06
      P1  H  7997  8008       L1    12  0.39

> <Gold.Chemscore.Hbond.Weighted>
-6.4977

> <Gold.Chemscore.Metal.Weighted>
-0.0000

> <Gold.Chemscore.Lipo.Weighted>
-9.8791

> <Gold.Chemscore.Internal_Hbond.Weighted>
0.0000

> <Gold.Chemscore.DEClash.Weighted>
0.0000

> <Gold.Chemscore.DEInternal.Weighted>
0.6793

> <Gold.Chemscore.Rot.Weighted>
5.7286

> <Gold.Chemscore.Internal.Correction.Weighted>
   9.000000E+99

> <Gold.Protein.RotatedTorsions>
[ 6907 6896 6895 6894 ] final -178.72 input  -60.11 | X-H torsion
[ 7974 7965 7964 7962 ] final  172.62 input  175.53 | X-H torsion
[ 8008 7997 7996 7995 ] final -130.36 input   59.86 | X-H torsion
[ 10167 10162 10161 10158 ] final  -11.63 input  -65.29 | X-H torsion
[ 10718 10713 10712 10709 ] final  100.48 input   66.30 | X-H torsion
[ 10763 10752 10751 10750 ] final  122.98 input  -60.55 | X-H torsion
[ 11005 11000 10999 10996 ] final  100.47 input  -57.11 | X-H torsion

> <Gold.Protein.ActiveResidues>
 VAL166  LYS551  ARG553  GLY616  TRP617  ASP618  TYR619  PRO620  LYS621  CYS622 
 ASP623  PHE694  ASN695  SER759  ASP760  ASP761  ALA762  ILE779  LEU786  VAL792 
 PHE793  MET794  SER795  GLU796  ALA797  LYS798  CYS799  TRP800  GLU811  SER814 

> <Gold.Protein.RotatedAtoms>
  151.6419  133.3325  159.3131 H   0  0  0  0  0  0  0  0  0  0  0  0  # atno 6907 bound_to 6896
  150.8004  134.7097  159.6606 H   0  0  0  0  0  0  0  0  0  0  0  0  # atno 6908 bound_to 6896
  152.4095  134.6153  160.0088 H   0  0  0  0  0  0  0  0  0  0  0  0  # atno 6909 bound_to 6896
  144.7263  139.9526  143.6432 H   0  0  0  0  0  0  0  0  0  0  0  0  # atno 7974 bound_to 7965
  155.2945  140.0450  157.3025 H   0  0  0  0  0  0  0  0  0  0  0  0  # atno 8008 bound_to 7997
  154.5522  140.2321  155.8435 H   0  0  0  0  0  0  0  0  0  0  0  0  # atno 8009 bound_to 7997
  156.1976  140.3034  155.9467 H   0  0  0  0  0  0  0  0  0  0  0  0  # atno 8010 bound_to 7997
  140.7143  143.5619  150.9186 H   0  0  0  0  0  0  0  0  0  0  0  0  # atno 10167 bound_to 10162
  157.6853  131.0699  150.5108 H   0  0  0  0  0  0  0  0  0  0  0  0  # atno 10718 bound_to 10713
  153.6383  135.3384  155.3063 H   0  0  0  0  0  0  0  0  0  0  0  0  # atno 10763 bound_to 10752
  154.8565  135.4312  154.2032 H   0  0  0  0  0  0  0  0  0  0  0  0  # atno 10764 bound_to 10752
  153.2944  135.7019  153.7336 H   0  0  0  0  0  0  0  0  0  0  0  0  # atno 10765 bound_to 10752
  139.8771  134.9142  156.4762 H   0  0  0  0  0  0  0  0  0  0  0  0  # atno 11005 bound_to 11000
  146.0700  139.3689  143.0529 LP  0  0  0  0  0  0  0  0  0  0  0  0  # atno 17320 bound_to 7965
  145.7981  140.9784  143.1013 LP  0  0  0  0  0  0  0  0  0  0  0  0  # atno 17321 bound_to 7965
  139.9344  143.6455  152.3069 LP  0  0  0  0  0  0  0  0  0  0  0  0  # atno 17342 bound_to 10162
  139.6917  144.7646  151.1427 LP  0  0  0  0  0  0  0  0  0  0  0  0  # atno 17343 bound_to 10162
  156.5425  130.4211  149.6147 LP  0  0  0  0  0  0  0  0  0  0  0  0  # atno 17370 bound_to 10713
  156.2973  130.7157  151.2021 LP  0  0  0  0  0  0  0  0  0  0  0  0  # atno 17371 bound_to 10713
  140.8760  133.7953  155.9415 LP  0  0  0  0  0  0  0  0  0  0  0  0  # atno 17394 bound_to 11000
  140.8903  134.2503  157.5098 LP  0  0  0  0  0  0  0  0  0  0  0  0  # atno 17395 bound_to 11000

$$$$
