AV-unprocessed.smi:527|AV-procd|sdf|2821|dock3
  -GOLD-   2262023303D 1   1.00000     0.00000
 Structure written by MMmdl.
 42 43  0  0  0  0  0  0  0  0  1 V2000
  146.5195  141.7793  154.3399 C   0  0  0  0  0  0  0  0  0  0  0  0
  147.5572  140.7328  154.7790 C   0  0  2  0  0  0  0  0  0  0  0  0
  149.0006  141.2255  154.5497 C   0  0  0  0  0  0  0  0  0  0  0  0
  150.0308  140.2182  155.0843 C   0  0  0  0  0  0  0  0  0  0  0  0
  149.8117  138.8166  154.4946 C   0  0  0  0  0  0  0  0  0  0  0  0
  148.3686  138.3301  154.7304 C   0  0  2  0  0  0  0  0  0  0  0  0
  148.2053  136.9838  154.1862 N   0  0  0  0  0  0  0  0  0  0  0  0
  147.5683  135.9714  154.7932 C   0  0  0  0  0  0  0  0  0  0  0  0
  147.0336  136.0718  155.8995 O   0  0  0  0  0  0  0  0  0  0  0  0
  147.5934  134.8628  154.0298 N   0  0  0  0  0  0  0  0  0  0  0  0
  147.0496  133.6591  154.3053 C   0  0  0  0  0  0  0  0  0  0  0  0
  146.4432  133.3733  155.3393 O   0  0  0  0  0  0  0  0  0  0  0  0
  147.2274  132.5887  153.2253 C   0  0  0  0  0  0  0  0  0  0  0  0
  146.2607  132.7477  152.1534 N   0  0  0  0  0  0  0  0  0  0  0  0
  146.5271  132.8894  150.7972 C   0  0  0  0  0  0  0  0  0  0  0  0
  145.3091  133.0181  150.1687 C   0  0  0  0  0  0  0  0  0  0  0  0
  144.2861  132.9572  151.1121 N   0  0  0  0  0  0  0  0  0  0  0  0
  144.9252  132.7947  152.2631 C   0  0  0  0  0  0  0  0  0  0  0  0
  147.3264  139.3297  154.1565 C   0  0  2  0  0  0  0  0  0  0  0  0
  147.2788  139.3392  152.6108 C   0  0  0  0  0  0  0  0  0  0  0  0
  146.6304  142.0453  153.2888 H   0  0  0  0  0  0  0  0  0  0  0  0
  146.6265  142.6972  154.9186 H   0  0  0  0  0  0  0  0  0  0  0  0
  145.5033  141.4143  154.4903 H   0  0  0  0  0  0  0  0  0  0  0  0
  147.4301  140.6200  155.8570 H   0  0  0  0  0  0  0  0  0  0  0  0
  149.1744  141.4024  153.4879 H   0  0  0  0  0  0  0  0  0  0  0  0
  149.1472  142.1860  155.0450 H   0  0  0  0  0  0  0  0  0  0  0  0
  151.0402  140.5632  154.8586 H   0  0  0  0  0  0  0  0  0  0  0  0
  149.9587  140.1686  156.1715 H   0  0  0  0  0  0  0  0  0  0  0  0
  150.0383  138.8285  153.4279 H   0  0  0  0  0  0  0  0  0  0  0  0
  150.5181  138.1200  154.9479 H   0  0  0  0  0  0  0  0  0  0  0  0
  148.2236  138.2710  155.8111 H   0  0  0  0  0  0  0  0  0  0  0  0
  148.5948  136.8178  153.2698 H   0  0  0  0  0  0  0  0  0  0  0  0
  148.0609  134.9442  153.1389 H   0  0  0  0  0  0  0  0  0  0  0  0
  148.2350  132.6473  152.8120 H   0  0  0  0  0  0  0  0  0  0  0  0
  147.1121  131.5933  153.6568 H   0  0  0  0  0  0  0  0  0  0  0  0
  147.5324  132.8895  150.4023 H   0  0  0  0  0  0  0  0  0  0  0  0
  145.0921  133.1497  149.1189 H   0  0  0  0  0  0  0  0  0  0  0  0
  144.4106  132.7131  153.2094 H   0  0  0  0  0  0  0  0  0  0  0  0
  146.3424  138.9950  154.4884 H   0  0  0  0  0  0  0  0  0  0  0  0
  148.2147  139.6849  152.1735 H   0  0  0  0  0  0  0  0  0  0  0  0
  146.4839  139.9852  152.2400 H   0  0  0  0  0  0  0  0  0  0  0  0
  147.0768  138.3462  152.2096 H   0  0  0  0  0  0  0  0  0  0  0  0
  1  2  1  0  0  0  0
  1 21  1  0  0  0  0
  1 22  1  0  0  0  0
  1 23  1  0  0  0  0
  2 19  1  0  0  0  0
  2  3  1  0  0  0  0
  2 24  1  0  0  0  0
  3  4  1  0  0  0  0
  3 25  1  0  0  0  0
  3 26  1  0  0  0  0
  4  5  1  0  0  0  0
  4 27  1  0  0  0  0
  4 28  1  0  0  0  0
  5  6  1  0  0  0  0
  5 29  1  0  0  0  0
  5 30  1  0  0  0  0
  6  7  1  0  0  0  0
  6 19  1  0  0  0  0
  6 31  1  0  0  0  0
  7  8  1  0  0  0  0
  7 32  1  0  0  0  0
  8  9  2  0  0  0  0
  8 10  1  0  0  0  0
 10 11  1  0  0  0  0
 10 33  1  0  0  0  0
 11 12  2  0  0  0  0
 11 13  1  0  0  0  0
 13 14  1  0  0  0  0
 13 34  1  0  0  0  0
 13 35  1  0  0  0  0
 14 18  1  0  0  0  0
 14 15  1  0  0  0  0
 15 16  2  0  0  0  0
 15 36  1  0  0  0  0
 16 17  1  0  0  0  0
 16 37  1  0  0  0  0
 17 18  2  0  0  0  0
 18 38  1  0  0  0  0
 19 20  1  0  0  0  0
 19 39  1  0  0  0  0
 20 40  1  0  0  0  0
 20 41  1  0  0  0  0
 20 42  1  0  0  0  0
M  END
> <s_m_source_file>
AV-unprocessed.smi

> <i_m_source_file_index>
527

> <i_lp_mmshare_version>
43012

> <i_f3d_flags>
0

> <s_epik_input>
W0NIM11bQ0BASF0xW0NIMl1bQ0gyXVtDSDJdW0NASF0oW0NASF0xW0NIM10pW05IXUMoPU8pW05IXUMoPU8pW0NIMl1uMltjSF1bY0hdbltjSF0y

> <s_epik_cmdline>
J2VwaWtfcHl0aG9uJywgJy1waCcsICc3LjAnLCAnLXRuJywgJzgnLCAnLW1hJywgJzIwMCcsICctbWV0YWxfYmluZGluZycsICctaW1hZScsICc8aW5maWxlLm1hZT4nLCAnLW9tYWUnLCAnPG91dGZpbGUubWFlPic=

> <r_lp_tautomer_probability>
1

> <r_epik_Ionization_Penalty>
0.172132

> <r_epik_Ionization_Penalty_Charging>
0.172105

> <r_epik_Ionization_Penalty_Neutral>
2.71747e-05

> <r_epik_State_Penalty>
0.161503

> <r_epik_Charging_Adjusted_Penalty>
0.333607

> <i_epik_Tot_Q>
0

> <i_epik_Tot_abs_Q>
0

> <r_epik_Metal_State_Penalty>
0.124763

> <b_epik_Metal_Only>
0

> <s_lp_Force_Field>
OPLS_2005

> <r_lp_Energy>
16.867

> <b_lp_Chiralities_Consistent>
1

> <s_lp_Variant>
AV-unprocessed.smi:527-7

> <Gold.Version>
5.8.1

> <Gold.Id.Protein>
6NUR|6NUR_protein|mol2

> <Gold.PLP.Fitness>
40.7163

> <Gold.PLP.PLP>
-27.5709

> <Gold.PLP.part.hbond>
-1.9661

> <Gold.PLP.part.metal>
0.0000

> <Gold.PLP.part.buried>
-0.1066

> <Gold.PLP.part.nonpolar>
-26.2296

> <Gold.PLP.part.repulsive>
0.2184

> <Gold.PLP.ligand.clash>
0.0000

> <Gold.PLP.ligand.torsion>
0.5672

> <Gold.PLP.Chemscore.Hbond>
1.9120

> <Gold.PLP.Chemscore.CHOScore>
2.8307

> <Gold.PLP.Chemscore.Metal>
0.0000

> <Gold.Chemscore.Hbonds>
donor molecule, donor type, donor heavy atom, donor atom, acceptor molecule, acceptor atom, score
      L1  H     7    32       P1  7948  1.00
      L1  H    10    33       P1  7948  0.91
      L1  C    15    36       P1 10747  0.90
      L1  C    16    37       P1  7921  0.92
      L1  C    18    38       P1 10957  1.00

> <Gold.PLP.Chemscore.Internal.Correction>
0.0515

> <Gold.Rescore>
     Score         DG    S(hbond)    S(metal)    S(lipo)     H(rot)  DE(clash)    DE(int)     intcor
     13.70     -15.75       1.95        0.00      68.42       1.66       0.05       2.00       ----

> <Gold.Chemscore.Fitness>
13.7046

> <Gold.Chemscore.DG>
-15.7532

> <Gold.Chemscore.ZeroCoef>
-5.4800

> <Gold.Chemscore.Hbond>
1.9536

> <Gold.Chemscore.Metal>
0.0000

> <Gold.Chemscore.Lipo>
68.4208

> <Gold.Chemscore.Internal_Hbond>
0.0000

> <Gold.Chemscore.DEClash>
0.0504

> <Gold.Chemscore.DEInternal>
1.9981

> <Gold.Chemscore.Rot>
1.6629

> <Gold.Chemscore.Internal.Correction>
   9.000000E+99

> <Gold.Chemscore.Hbonds>
donor molecule, donor type, donor heavy atom, donor atom, acceptor molecule, acceptor atom, score
      L1  H     7    32       P1  7948  0.96
      L1  H    10    33       P1  7948  0.82

> <Gold.Chemscore.Hbond.Weighted>
-6.5249

> <Gold.Chemscore.Metal.Weighted>
-0.0000

> <Gold.Chemscore.Lipo.Weighted>
-8.0052

> <Gold.Chemscore.Internal_Hbond.Weighted>
0.0000

> <Gold.Chemscore.DEClash.Weighted>
0.0504

> <Gold.Chemscore.DEInternal.Weighted>
1.9981

> <Gold.Chemscore.Rot.Weighted>
4.2569

> <Gold.Chemscore.Internal.Correction.Weighted>
   9.000000E+99

> <Gold.Protein.RotatedTorsions>
[ 6907 6896 6895 6894 ] final  146.55 input  -60.11 | X-H torsion
[ 7974 7965 7964 7962 ] final -106.51 input  175.53 | X-H torsion
[ 8008 7997 7996 7995 ] final  121.24 input   59.86 | X-H torsion
[ 10167 10162 10161 10158 ] final  -58.99 input  -65.29 | X-H torsion
[ 10718 10713 10712 10709 ] final  -38.47 input   66.30 | X-H torsion
[ 10763 10752 10751 10750 ] final  169.66 input  -60.55 | X-H torsion
[ 11005 11000 10999 10996 ] final  141.28 input  -57.11 | X-H torsion

> <Gold.Protein.ActiveResidues>
 VAL166  LYS551  ARG553  GLY616  TRP617  ASP618  TYR619  PRO620  LYS621  CYS622 
 ASP623  PHE694  ASN695  SER759  ASP760  ASP761  ALA762  ILE779  LEU786  VAL792 
 PHE793  MET794  SER795  GLU796  ALA797  LYS798  CYS799  TRP800  GLU811  SER814 

> <Gold.Protein.RotatedAtoms>
  152.1665  133.4615  159.4886 H   0  0  0  0  0  0  0  0  0  0  0  0  # atno 6907 bound_to 6896
  150.6913  134.2007  159.4330 H   0  0  0  0  0  0  0  0  0  0  0  0  # atno 6908 bound_to 6896
  151.9912  134.9978  160.0612 H   0  0  0  0  0  0  0  0  0  0  0  0  # atno 6909 bound_to 6896
  145.2170  140.9119  143.3281 H   0  0  0  0  0  0  0  0  0  0  0  0  # atno 7974 bound_to 7965
  156.2678  140.2813  156.1277 H   0  0  0  0  0  0  0  0  0  0  0  0  # atno 8008 bound_to 7997
  155.1088  140.0390  157.2735 H   0  0  0  0  0  0  0  0  0  0  0  0  # atno 8009 bound_to 7997
  154.6759  140.2598  155.6965 H   0  0  0  0  0  0  0  0  0  0  0  0  # atno 8010 bound_to 7997
  140.6163  143.2403  151.5590 H   0  0  0  0  0  0  0  0  0  0  0  0  # atno 10167 bound_to 10162
  156.3034  130.4243  149.8121 H   0  0  0  0  0  0  0  0  0  0  0  0  # atno 10718 bound_to 10713
  154.3863  135.2753  155.2181 H   0  0  0  0  0  0  0  0  0  0  0  0  # atno 10763 bound_to 10752
  154.4266  135.5987  153.6046 H   0  0  0  0  0  0  0  0  0  0  0  0  # atno 10764 bound_to 10752
  152.9833  135.5985  154.4113 H   0  0  0  0  0  0  0  0  0  0  0  0  # atno 10765 bound_to 10752
  140.0389  134.9314  157.0806 H   0  0  0  0  0  0  0  0  0  0  0  0  # atno 11005 bound_to 11000
  144.9802  139.3791  143.6266 LP  0  0  0  0  0  0  0  0  0  0  0  0  # atno 17320 bound_to 7965
  146.3385  139.8939  142.8805 LP  0  0  0  0  0  0  0  0  0  0  0  0  # atno 17321 bound_to 7965
  139.5401  144.2671  152.1333 LP  0  0  0  0  0  0  0  0  0  0  0  0  # atno 17342 bound_to 10162
  140.1881  144.4779  150.6493 LP  0  0  0  0  0  0  0  0  0  0  0  0  # atno 17343 bound_to 10162
  156.5490  130.8333  151.3293 LP  0  0  0  0  0  0  0  0  0  0  0  0  # atno 17370 bound_to 10713
  157.7373  130.9794  150.2188 LP  0  0  0  0  0  0  0  0  0  0  0  0  # atno 17371 bound_to 10713
  140.4101  134.1990  155.7163 LP  0  0  0  0  0  0  0  0  0  0  0  0  # atno 17394 bound_to 11000
  141.1872  133.8285  157.1039 LP  0  0  0  0  0  0  0  0  0  0  0  0  # atno 17395 bound_to 11000

$$$$
