AV-unprocessed.smi:1467|AV-procd|sdf|5956|dock5
  -GOLD-   22720 6 43D 1   1.00000     0.00000
 Structure written by MMmdl.
 41 42  0  0  0  0  0  0  0  0  2 V2000
  150.5902  141.0935  155.8798 C   0  0  0  0  0  0  0  0  0  0  0  0
  151.3626  139.8446  155.4490 C   0  0  0  0  0  0  0  0  0  0  0  0
  152.5085  139.6980  155.8736 O   0  0  0  0  0  0  0  0  0  0  0  0
  150.7693  138.9488  154.6238 N   0  0  0  0  0  0  0  0  0  0  0  0
  149.3830  139.0118  154.1520 C   0  0  0  0  0  0  0  0  0  0  0  0
  148.5894  137.8467  154.7707 C   0  0  0  0  0  0  0  0  0  0  0  0
  149.2248  136.5333  154.4775 N   0  3  0  0  0  0  0  0  0  0  0  0
  148.4600  135.4029  155.0618 C   0  0  0  0  0  0  0  0  0  0  0  0
  149.0550  134.0302  154.6933 C   0  0  0  0  0  0  0  0  0  0  0  0
  148.5913  133.5817  153.3853 N   0  0  0  0  0  0  0  0  0  0  0  0
  147.3116  133.5834  152.9858 C   0  0  0  0  0  0  0  0  0  0  0  0
  146.3811  133.9618  153.6977 O   0  0  0  0  0  0  0  0  0  0  0  0
  147.1872  133.1169  151.7325 N   0  0  0  0  0  0  0  0  0  0  0  0
  145.9950  132.9969  150.9737 C   0  0  0  0  0  0  0  0  0  0  0  0
  145.7780  132.0313  149.9533 C   0  0  0  0  0  0  0  0  0  0  0  0
  144.5750  132.1612  149.4126 N   0  0  0  0  0  0  0  0  0  0  0  0
  144.0229  133.2020  150.0763 N   0  0  0  0  0  0  0  0  0  0  0  0
  144.8512  133.7426  151.0349 C   0  0  0  0  0  0  0  0  0  0  0  0
  150.6749  136.5086  154.8175 C   0  0  0  0  0  0  0  0  0  0  0  0
  151.4203  137.7061  154.2003 C   0  0  0  0  0  0  0  0  0  0  0  0
  143.0909  133.5296  149.8648 H   0  0  0  0  0  0  0  0  0  0  0  0
  149.6880  140.8219  156.4280 H   0  0  0  0  0  0  0  0  0  0  0  0
  150.3135  141.6954  155.0140 H   0  0  0  0  0  0  0  0  0  0  0  0
  151.2018  141.7157  156.5340 H   0  0  0  0  0  0  0  0  0  0  0  0
  148.8846  139.9533  154.3773 H   0  0  0  0  0  0  0  0  0  0  0  0
  149.3749  138.9307  153.0639 H   0  0  0  0  0  0  0  0  0  0  0  0
  148.5192  137.9806  155.8517 H   0  0  0  0  0  0  0  0  0  0  0  0
  147.5699  137.8558  154.3828 H   0  0  0  0  0  0  0  0  0  0  0  0
  148.3984  135.5189  156.1450 H   0  0  0  0  0  0  0  0  0  0  0  0
  147.4355  135.4461  154.6890 H   0  0  0  0  0  0  0  0  0  0  0  0
  150.1458  134.0676  154.7110 H   0  0  0  0  0  0  0  0  0  0  0  0
  148.7578  133.2711  155.4160 H   0  0  0  0  0  0  0  0  0  0  0  0
  149.2933  133.2559  152.7367 H   0  0  0  0  0  0  0  0  0  0  0  0
  148.0334  132.8188  151.2698 H   0  0  0  0  0  0  0  0  0  0  0  0
  146.4393  131.2563  149.5947 H   0  0  0  0  0  0  0  0  0  0  0  0
  144.5558  134.5817  151.6473 H   0  0  0  0  0  0  0  0  0  0  0  0
  150.7929  136.5222  155.9023 H   0  0  0  0  0  0  0  0  0  0  0  0
  151.1326  135.5871  154.4603 H   0  0  0  0  0  0  0  0  0  0  0  0
  151.3955  137.6429  153.1115 H   0  0  0  0  0  0  0  0  0  0  0  0
  152.4753  137.6643  154.4748 H   0  0  0  0  0  0  0  0  0  0  0  0
  149.1673  136.4251  153.4748 H   0  0  0  0  0  0  0  0  0  0  0  0
  1  2  1  0  0  0  0
  1 22  1  0  0  0  0
  1 23  1  0  0  0  0
  1 24  1  0  0  0  0
  2  3  2  0  0  0  0
  2  4  1  0  0  0  0
  4 20  1  0  0  0  0
  4  5  1  0  0  0  0
  5  6  1  0  0  0  0
  5 25  1  0  0  0  0
  5 26  1  0  0  0  0
  6  7  1  0  0  0  0
  6 27  1  0  0  0  0
  6 28  1  0  0  0  0
  7  8  1  0  0  0  0
  7 19  1  0  0  0  0
  7 41  1  0  0  0  0
  8  9  1  0  0  0  0
  8 29  1  0  0  0  0
  8 30  1  0  0  0  0
  9 10  1  0  0  0  0
  9 31  1  0  0  0  0
  9 32  1  0  0  0  0
 10 11  1  0  0  0  0
 10 33  1  0  0  0  0
 11 12  2  0  0  0  0
 11 13  1  0  0  0  0
 13 14  1  0  0  0  0
 13 34  1  0  0  0  0
 14 18  2  0  0  0  0
 14 15  1  0  0  0  0
 15 16  2  0  0  0  0
 15 35  1  0  0  0  0
 16 17  1  0  0  0  0
 17 21  1  0  0  0  0
 17 18  1  0  0  0  0
 18 36  1  0  0  0  0
 19 20  1  0  0  0  0
 19 37  1  0  0  0  0
 19 38  1  0  0  0  0
 20 39  1  0  0  0  0
 20 40  1  0  0  0  0
M  CHG  1   7   1
M  END
> <s_m_source_file>
AV-unprocessed.smi

> <i_m_source_file_index>
1467

> <i_lp_mmshare_version>
43012

> <i_f3d_flags>
0

> <s_epik_input>
W0NIM11DKD1PKU4xW0NIMl1bQ0gyXU4oW0NIMl1bQ0gyXTEpW0NIMl1bQ0gyXVtOSF1DKD1PKVtOSF1jMltjSF1uW25IXVtjSF0y

> <s_epik_cmdline>
J2VwaWtfcHl0aG9uJywgJy1waCcsICc3LjAnLCAnLXRuJywgJzgnLCAnLW1hJywgJzIwMCcsICctbWV0YWxfYmluZGluZycsICctaW1hZScsICc8aW5maWxlLm1hZT4nLCAnLW9tYWUnLCAnPG91dGZpbGUubWFlPic=

> <r_lp_tautomer_probability>
0.5

> <r_epik_Ionization_Penalty>
0.630073

> <r_epik_Ionization_Penalty_Charging>
0.630034

> <r_epik_Ionization_Penalty_Neutral>
3.91951e-05

> <r_epik_State_Penalty>
0.646805

> <r_epik_Charging_Adjusted_Penalty>
1.27684

> <i_epik_Tot_Q>
1

> <i_epik_Tot_abs_Q>
1

> <r_epik_Metal_State_Penalty>
0.646807

> <b_epik_Metal_Only>
0

> <s_lp_Force_Field>
OPLS_2005

> <r_lp_Energy>
42.6294

> <b_lp_Chiralities_Consistent>
1

> <s_lp_Variant>
AV-unprocessed.smi:1467-2

> <Gold.Version>
5.8.1

> <Gold.Id.Protein>
6NUR|6NUR_protein|mol2

> <Gold.PLP.Fitness>
48.0874

> <Gold.PLP.PLP>
-35.9551

> <Gold.PLP.part.hbond>
-4.2153

> <Gold.PLP.part.metal>
0.0000

> <Gold.PLP.part.buried>
-3.1314

> <Gold.PLP.part.nonpolar>
-28.7037

> <Gold.PLP.part.repulsive>
0.3792

> <Gold.PLP.ligand.clash>
0.0000

> <Gold.PLP.ligand.torsion>
0.3755

> <Gold.PLP.Chemscore.Hbond>
3.3444

> <Gold.PLP.Chemscore.CHOScore>
0.9344

> <Gold.PLP.Chemscore.Metal>
0.0000

> <Gold.Chemscore.Hbonds>
donor molecule, donor type, donor heavy atom, donor atom, acceptor molecule, acceptor atom, score
      L1  H     7    41       P1  7948  2.00
      L1  H    13    34       P1 10747  0.09
      L1  H    17    21       P1 10186  0.36
      P1  H  7997  8009       L1     3  1.00
      L1  C    15    35       P1 10747  0.71

> <Gold.PLP.Chemscore.Internal.Correction>
0.0469

> <Gold.Rescore>
     Score         DG    S(hbond)    S(metal)    S(lipo)     H(rot)  DE(clash)    DE(int)     intcor
     16.45     -18.19       2.95        0.00      62.87       1.75       0.01       1.73       ----

> <Gold.Chemscore.Fitness>
16.4461

> <Gold.Chemscore.DG>
-18.1890

> <Gold.Chemscore.ZeroCoef>
-5.4800

> <Gold.Chemscore.Hbond>
2.9451

> <Gold.Chemscore.Metal>
0.0000

> <Gold.Chemscore.Lipo>
62.8678

> <Gold.Chemscore.Internal_Hbond>
0.0000

> <Gold.Chemscore.DEClash>
0.0081

> <Gold.Chemscore.DEInternal>
1.7347

> <Gold.Chemscore.Rot>
1.7513

> <Gold.Chemscore.Internal.Correction>
   9.000000E+99

> <Gold.Chemscore.Hbonds>
donor molecule, donor type, donor heavy atom, donor atom, acceptor molecule, acceptor atom, score
      L1  H     7    41       P1  7948  0.96
      L1  H    13    34       P1 10747  0.12
      L1  H    17    21       P1 10186  0.35
      P1  H  7997  8009       L1     3  1.00

> <Gold.Chemscore.Hbond.Weighted>
-9.8368

> <Gold.Chemscore.Metal.Weighted>
-0.0000

> <Gold.Chemscore.Lipo.Weighted>
-7.3555

> <Gold.Chemscore.Internal_Hbond.Weighted>
0.0000

> <Gold.Chemscore.DEClash.Weighted>
0.0081

> <Gold.Chemscore.DEInternal.Weighted>
1.7347

> <Gold.Chemscore.Rot.Weighted>
4.4833

> <Gold.Chemscore.Internal.Correction.Weighted>
   9.000000E+99

> <Gold.Protein.RotatedTorsions>
[ 6907 6896 6895 6894 ] final -109.49 input  -60.11 | X-H torsion
[ 7974 7965 7964 7962 ] final   39.71 input  175.53 | X-H torsion
[ 8008 7997 7996 7995 ] final -157.34 input   59.86 | X-H torsion
[ 10167 10162 10161 10158 ] final  -35.09 input  -65.29 | X-H torsion
[ 10718 10713 10712 10709 ] final  -78.16 input   66.30 | X-H torsion
[ 10763 10752 10751 10750 ] final  -98.68 input  -60.55 | X-H torsion
[ 11005 11000 10999 10996 ] final  176.86 input  -57.11 | X-H torsion

> <Gold.Protein.ActiveResidues>
 VAL166  LYS551  ARG553  GLY616  TRP617  ASP618  TYR619  PRO620  LYS621  CYS622 
 ASP623  PHE694  ASN695  SER759  ASP760  ASP761  ALA762  ILE779  LEU786  VAL792 
 PHE793  MET794  SER795  GLU796  ALA797  LYS798  CYS799  TRP800  GLU811  SER814 

> <Gold.Protein.RotatedAtoms>
  150.7565  133.9521  159.3488 H   0  0  0  0  0  0  0  0  0  0  0  0  # atno 6907 bound_to 6896
  151.7440  135.0846  160.0329 H   0  0  0  0  0  0  0  0  0  0  0  0  # atno 6908 bound_to 6896
  152.3510  133.6142  159.5981 H   0  0  0  0  0  0  0  0  0  0  0  0  # atno 6909 bound_to 6896
  146.0963  139.5620  142.9443 H   0  0  0  0  0  0  0  0  0  0  0  0  # atno 7974 bound_to 7965
  155.7309  140.0802  157.2289 H   0  0  0  0  0  0  0  0  0  0  0  0  # atno 8008 bound_to 7997
  154.4033  140.1595  156.2563 H   0  0  0  0  0  0  0  0  0  0  0  0  # atno 8009 bound_to 7997
  155.9109  140.3404  155.6101 H   0  0  0  0  0  0  0  0  0  0  0  0  # atno 8010 bound_to 7997
  140.7172  143.3502  151.2173 H   0  0  0  0  0  0  0  0  0  0  0  0  # atno 10167 bound_to 10162
  156.0125  130.4510  150.3454 H   0  0  0  0  0  0  0  0  0  0  0  0  # atno 10718 bound_to 10713
  154.7434  135.5000  153.9162 H   0  0  0  0  0  0  0  0  0  0  0  0  # atno 10763 bound_to 10752
  153.1067  135.6699  153.9582 H   0  0  0  0  0  0  0  0  0  0  0  0  # atno 10764 bound_to 10752
  153.9353  135.3073  155.3423 H   0  0  0  0  0  0  0  0  0  0  0  0  # atno 10765 bound_to 10752
  140.3777  134.6974  157.4432 H   0  0  0  0  0  0  0  0  0  0  0  0  # atno 11005 bound_to 11000
  145.5942  141.0365  143.2054 LP  0  0  0  0  0  0  0  0  0  0  0  0  # atno 17320 bound_to 7965
  144.7398  139.7482  143.7315 LP  0  0  0  0  0  0  0  0  0  0  0  0  # atno 17321 bound_to 7965
  139.7030  143.9501  152.2914 LP  0  0  0  0  0  0  0  0  0  0  0  0  # atno 17342 bound_to 10162
  139.9200  144.6805  150.8471 LP  0  0  0  0  0  0  0  0  0  0  0  0  # atno 17343 bound_to 10162
  157.1548  131.0330  151.2868 LP  0  0  0  0  0  0  0  0  0  0  0  0  # atno 17370 bound_to 10713
  157.4361  130.7518  149.7030 LP  0  0  0  0  0  0  0  0  0  0  0  0  # atno 17371 bound_to 10713
  140.0502  134.6141  155.8871 LP  0  0  0  0  0  0  0  0  0  0  0  0  # atno 17394 bound_to 11000
  141.1934  133.6578  156.5545 LP  0  0  0  0  0  0  0  0  0  0  0  0  # atno 17395 bound_to 11000

$$$$
