AV-unprocessed.smi:1639|AV-procd|sdf|6550|dock3
  -GOLD-   22720 7233D 1   1.00000     0.00000
 Structure written by MMmdl.
 38 39  0  0  0  0  0  0  0  0  2 V2000
  152.1161  141.6642  159.3362 C   0  0  0  0  0  0  0  0  0  0  0  0
  151.4553  140.6028  158.4541 C   0  0  0  0  0  0  0  0  0  0  0  0
  152.3401  140.2675  157.3976 O   0  0  0  0  0  0  0  0  0  0  0  0
  151.8238  139.2930  156.5023 C   0  0  2  0  0  0  0  0  0  0  0  0
  152.9454  138.8503  155.5480 C   0  0  0  0  0  0  0  0  0  0  0  0
  152.3819  137.9145  154.4659 C   0  0  0  0  0  0  0  0  0  0  0  0
  151.1966  138.5687  153.7338 C   0  0  0  0  0  0  0  0  0  0  0  0
  150.1788  139.0118  154.6837 N   0  0  0  0  0  0  0  0  0  0  0  0
  149.0038  139.4551  154.0640 C   0  0  0  0  0  0  0  0  0  0  0  0
  148.3728  140.6426  154.4797 C   0  0  0  0  0  0  0  0  0  0  0  0
  147.2032  141.0137  153.7941 C   0  0  0  0  0  0  0  0  0  0  0  0
  146.4422  142.2739  154.1478 C   0  0  0  0  0  0  0  0  0  0  0  0
  146.7074  140.2645  152.7880 N   0  0  0  0  0  0  0  0  0  0  0  0
  147.3516  139.1444  152.4414 C   0  0  0  0  0  0  0  0  0  0  0  0
  146.8388  138.3874  151.4152 N   0  0  0  0  0  0  0  0  0  0  0  0
  148.4731  138.7266  153.0466 N   0  3  0  0  0  0  0  0  0  0  0  0
  150.6649  139.9258  155.7140 C   0  0  0  0  0  0  0  0  0  0  0  0
  151.4628  141.9468  160.1619 H   0  0  0  0  0  0  0  0  0  0  0  0
  152.3391  142.5649  158.7636 H   0  0  0  0  0  0  0  0  0  0  0  0
  153.0506  141.2956  159.7597 H   0  0  0  0  0  0  0  0  0  0  0  0
  151.2244  139.7152  159.0451 H   0  0  0  0  0  0  0  0  0  0  0  0
  150.5180  140.9882  158.0500 H   0  0  0  0  0  0  0  0  0  0  0  0
  151.4474  138.4162  157.0342 H   0  0  0  0  0  0  0  0  0  0  0  0
  153.3948  139.7250  155.0758 H   0  0  0  0  0  0  0  0  0  0  0  0
  153.7398  138.3515  156.1038 H   0  0  0  0  0  0  0  0  0  0  0  0
  153.1641  137.6530  153.7526 H   0  0  0  0  0  0  0  0  0  0  0  0
  152.0559  136.9806  154.9257 H   0  0  0  0  0  0  0  0  0  0  0  0
  151.5474  139.4222  153.1516 H   0  0  0  0  0  0  0  0  0  0  0  0
  150.7598  137.8594  153.0294 H   0  0  0  0  0  0  0  0  0  0  0  0
  148.7741  141.2407  155.2852 H   0  0  0  0  0  0  0  0  0  0  0  0
  146.9250  142.8079  154.9670 H   0  0  0  0  0  0  0  0  0  0  0  0
  145.4244  142.0306  154.4534 H   0  0  0  0  0  0  0  0  0  0  0  0
  146.3937  142.9430  153.2882 H   0  0  0  0  0  0  0  0  0  0  0  0
  145.9962  138.6758  150.9393 H   0  0  0  0  0  0  0  0  0  0  0  0
  147.2944  137.5331  151.1286 H   0  0  0  0  0  0  0  0  0  0  0  0
  149.8506  140.1820  156.3933 H   0  0  0  0  0  0  0  0  0  0  0  0
  150.9988  140.8547  155.2488 H   0  0  0  0  0  0  0  0  0  0  0  0
  148.9375  137.8674  152.7525 H   0  0  0  0  0  0  0  0  0  0  0  0
  1  2  1  0  0  0  0
  1 18  1  0  0  0  0
  1 19  1  0  0  0  0
  1 20  1  0  0  0  0
  2  3  1  0  0  0  0
  2 21  1  0  0  0  0
  2 22  1  0  0  0  0
  3  4  1  0  0  0  0
  4 17  1  0  0  0  0
  4  5  1  0  0  0  0
  4 23  1  0  0  0  0
  5  6  1  0  0  0  0
  5 24  1  0  0  0  0
  5 25  1  0  0  0  0
  6  7  1  0  0  0  0
  6 26  1  0  0  0  0
  6 27  1  0  0  0  0
  7  8  1  0  0  0  0
  7 28  1  0  0  0  0
  7 29  1  0  0  0  0
  8  9  1  0  0  0  0
  8 17  1  0  0  0  0
  9 16  1  0  0  0  0
  9 10  2  0  0  0  0
 10 11  1  0  0  0  0
 10 30  1  0  0  0  0
 11 12  1  0  0  0  0
 11 13  2  0  0  0  0
 12 31  1  0  0  0  0
 12 32  1  0  0  0  0
 12 33  1  0  0  0  0
 13 14  1  0  0  0  0
 14 15  1  0  0  0  0
 14 16  2  0  0  0  0
 15 34  1  0  0  0  0
 15 35  1  0  0  0  0
 16 38  1  0  0  0  0
 17 36  1  0  0  0  0
 17 37  1  0  0  0  0
M  CHG  1  16   1
M  END
> <s_m_source_file>
AV-unprocessed.smi

> <i_m_source_file_index>
1639

> <i_lp_mmshare_version>
43012

> <i_f3d_flags>
0

> <s_epik_input>
W0NIM11bQ0gyXU9bQ0BASF0xW0NIMl1bQ0gyXVtDSDJdTihbQ0gyXTEpYzJbY0hdYyhbQ0gzXSluYyhuMilbTkgyXQ==

> <s_epik_cmdline>
J2VwaWtfcHl0aG9uJywgJy1waCcsICc3LjAnLCAnLXRuJywgJzgnLCAnLW1hJywgJzIwMCcsICctbWV0YWxfYmluZGluZycsICctaW1hZScsICc8aW5maWxlLm1hZT4nLCAnLW9tYWUnLCAnPG91dGZpbGUubWFlPic=

> <r_lp_tautomer_probability>
0.424989

> <r_epik_Ionization_Penalty>
0.443088

> <r_epik_Ionization_Penalty_Charging>
0.443085

> <r_epik_Ionization_Penalty_Neutral>
3.21819e-06

> <r_epik_State_Penalty>
1.26241

> <r_epik_Charging_Adjusted_Penalty>
1.70549

> <i_epik_Tot_Q>
1

> <i_epik_Tot_abs_Q>
1

> <r_epik_Metal_State_Penalty>
1.59997

> <b_epik_Metal_Only>
0

> <s_lp_Force_Field>
OPLS_2005

> <r_lp_Energy>
14.3037

> <b_lp_Chiralities_Consistent>
1

> <s_lp_Variant>
AV-unprocessed.smi:1639-3

> <Gold.Version>
5.8.1

> <Gold.Id.Protein>
6NUR|6NUR_protein|mol2

> <Gold.PLP.Fitness>
39.6073

> <Gold.PLP.PLP>
-29.6956

> <Gold.PLP.part.hbond>
-4.0000

> <Gold.PLP.part.metal>
0.0000

> <Gold.PLP.part.buried>
1.5184

> <Gold.PLP.part.nonpolar>
-27.7835

> <Gold.PLP.part.repulsive>
1.1640

> <Gold.PLP.ligand.clash>
1.7971

> <Gold.PLP.ligand.torsion>
0.2392

> <Gold.PLP.Chemscore.Hbond>
4.0104

> <Gold.PLP.Chemscore.CHOScore>
0.0000

> <Gold.PLP.Chemscore.Metal>
0.0000

> <Gold.Chemscore.Hbonds>
donor molecule, donor type, donor heavy atom, donor atom, acceptor molecule, acceptor atom, score
      L1  H    15    34       P1 10171  0.10
      L1  H    15    35       P1  7948  0.92
      L1  H    16    38       P1  7948  2.00
      P1  H  7997  8008       L1     3  0.49

> <Gold.PLP.Chemscore.Internal.Correction>
0.1560

> <Gold.Rescore>
     Score         DG    S(hbond)    S(metal)    S(lipo)     H(rot)  DE(clash)    DE(int)     intcor
     16.47     -18.79       2.58        0.00      71.84       1.46       2.04       0.28       ----

> <Gold.Chemscore.Fitness>
16.4731

> <Gold.Chemscore.DG>
-18.7855

> <Gold.Chemscore.ZeroCoef>
-5.4800

> <Gold.Chemscore.Hbond>
2.5831

> <Gold.Chemscore.Metal>
0.0000

> <Gold.Chemscore.Lipo>
71.8392

> <Gold.Chemscore.Internal_Hbond>
0.0000

> <Gold.Chemscore.DEClash>
2.0372

> <Gold.Chemscore.DEInternal>
0.2752

> <Gold.Chemscore.Rot>
1.4560

> <Gold.Chemscore.Internal.Correction>
   9.000000E+99

> <Gold.Chemscore.Hbonds>
donor molecule, donor type, donor heavy atom, donor atom, acceptor molecule, acceptor atom, score
      L1  H    15    34       P1 10171  0.13
      L1  H    15    35       P1  7948  0.46
      L1  H    16    38       P1  7948  0.97
      P1  H  7997  8008       L1     3  0.06

> <Gold.Chemscore.Hbond.Weighted>
-8.6275

> <Gold.Chemscore.Metal.Weighted>
-0.0000

> <Gold.Chemscore.Lipo.Weighted>
-8.4052

> <Gold.Chemscore.Internal_Hbond.Weighted>
0.0000

> <Gold.Chemscore.DEClash.Weighted>
2.0372

> <Gold.Chemscore.DEInternal.Weighted>
0.2752

> <Gold.Chemscore.Rot.Weighted>
3.7272

> <Gold.Chemscore.Internal.Correction.Weighted>
   9.000000E+99

> <Gold.Protein.RotatedTorsions>
[ 6907 6896 6895 6894 ] final  -93.04 input  -60.11 | X-H torsion
[ 7974 7965 7964 7962 ] final -135.76 input  175.53 | X-H torsion
[ 8008 7997 7996 7995 ] final  -63.01 input   59.86 | X-H torsion
[ 10167 10162 10161 10158 ] final   33.92 input  -65.29 | X-H torsion
[ 10718 10713 10712 10709 ] final  170.30 input   66.30 | X-H torsion
[ 10763 10752 10751 10750 ] final   74.12 input  -60.55 | X-H torsion
[ 11005 11000 10999 10996 ] final -143.17 input  -57.11 | X-H torsion

> <Gold.Protein.ActiveResidues>
 VAL166  LYS551  ARG553  GLY616  TRP617  ASP618  TYR619  PRO620  LYS621  CYS622 
 ASP623  PHE694  ASN695  SER759  ASP760  ASP761  ALA762  ILE779  LEU786  VAL792 
 PHE793  MET794  SER795  GLU796  ALA797  LYS798  CYS799  TRP800  GLU811  SER814 

> <Gold.Protein.RotatedAtoms>
  150.6916  134.2029  159.4329 H   0  0  0  0  0  0  0  0  0  0  0  0  # atno 6907 bound_to 6896
  151.9995  134.9933  160.0574 H   0  0  0  0  0  0  0  0  0  0  0  0  # atno 6908 bound_to 6896
  152.1592  133.4536  159.4889 H   0  0  0  0  0  0  0  0  0  0  0  0  # atno 6909 bound_to 6896
  144.8986  140.6740  143.5100 H   0  0  0  0  0  0  0  0  0  0  0  0  # atno 7974 bound_to 7965
  154.4530  140.0984  156.6676 H   0  0  0  0  0  0  0  0  0  0  0  0  # atno 8008 bound_to 7997
  155.5224  140.3479  155.4391 H   0  0  0  0  0  0  0  0  0  0  0  0  # atno 8009 bound_to 7997
  156.0721  140.1352  156.9805 H   0  0  0  0  0  0  0  0  0  0  0  0  # atno 8010 bound_to 7997
  140.4363  144.1253  150.6167 H   0  0  0  0  0  0  0  0  0  0  0  0  # atno 10167 bound_to 10162
  157.0102  131.0202  151.2805 H   0  0  0  0  0  0  0  0  0  0  0  0  # atno 10718 bound_to 10713
  153.0566  135.5037  154.7995 H   0  0  0  0  0  0  0  0  0  0  0  0  # atno 10763 bound_to 10752
  154.6817  135.2969  154.9606 H   0  0  0  0  0  0  0  0  0  0  0  0  # atno 10764 bound_to 10752
  154.0391  135.6719  153.4841 H   0  0  0  0  0  0  0  0  0  0  0  0  # atno 10765 bound_to 10752
  140.8152  134.2697  157.4924 H   0  0  0  0  0  0  0  0  0  0  0  0  # atno 11005 bound_to 11000
  145.3657  139.1671  143.4359 LP  0  0  0  0  0  0  0  0  0  0  0  0  # atno 17320 bound_to 7965
  146.3095  140.3723  142.8675 LP  0  0  0  0  0  0  0  0  0  0  0  0  # atno 17321 bound_to 7965
  140.4370  143.2543  151.9522 LP  0  0  0  0  0  0  0  0  0  0  0  0  # atno 17342 bound_to 10162
  139.4787  144.5690  151.8118 LP  0  0  0  0  0  0  0  0  0  0  0  0  # atno 17343 bound_to 10162
  157.5326  130.8068  149.7935 LP  0  0  0  0  0  0  0  0  0  0  0  0  # atno 17370 bound_to 10713
  156.0139  130.3821  150.2174 LP  0  0  0  0  0  0  0  0  0  0  0  0  # atno 17371 bound_to 10713
  139.8711  134.9505  156.4057 LP  0  0  0  0  0  0  0  0  0  0  0  0  # atno 17394 bound_to 11000
  140.9157  133.7680  155.9845 LP  0  0  0  0  0  0  0  0  0  0  0  0  # atno 17395 bound_to 11000

$$$$
