AV-unprocessed.smi:2612|AV-procd|sdf|10211|dock1
  -GOLD-   2272014213D 1   1.00000     0.00000
 Structure written by MMmdl.
 40 41  0  0  0  0  0  0  0  0  1 V2000
  145.2580  134.9722  152.9390 C   0  0  0  0  0  0  0  0  0  0  0  0
  145.5891  133.5896  152.9879 O   0  0  0  0  0  0  0  0  0  0  0  0
  145.3871  132.7849  151.8180 C   0  0  0  0  0  0  0  0  0  0  0  0
  145.8924  131.3866  152.2609 C   0  0  0  0  0  0  0  0  0  0  0  0
  147.3341  131.3471  152.4982 N   0  0  0  0  0  0  0  0  0  0  0  0
  147.9134  131.8901  153.6542 C   0  0  0  0  0  0  0  0  0  0  0  0
  148.4634  131.0046  154.6064 C   0  0  0  0  0  0  0  0  0  0  0  0
  149.0536  131.5352  155.7704 C   0  0  0  0  0  0  0  0  0  0  0  0
  149.0734  132.9337  155.9311 C   0  0  0  0  0  0  0  0  0  0  0  0
  149.7703  133.6669  157.4038 S   0  0  0  0  0  0  0  0  0  0  0  0
  151.2688  132.6523  157.7289 C   0  0  0  0  0  0  0  0  0  0  0  0
  150.2067  135.0317  157.0711 O   0  0  0  0  0  0  0  0  0  0  0  0
  148.8257  133.4539  158.5111 O   0  0  0  0  0  0  0  0  0  0  0  0
  148.4850  133.7423  154.9392 C   0  0  0  0  0  0  0  0  0  0  0  0
  147.9188  133.2342  153.8236 N   0  0  0  0  0  0  0  0  0  0  0  0
  143.9181  132.7596  151.3181 C   0  0  0  0  0  0  0  0  0  0  0  0
  143.7908  132.0311  149.9682 C   0  0  0  0  0  0  0  0  0  0  0  0
  144.6353  132.6505  149.0048 O   0  0  0  0  0  0  0  0  0  0  0  0
  146.0153  132.5817  149.3465 C   0  0  0  0  0  0  0  0  0  0  0  0
  146.2708  133.3266  150.6701 C   0  0  0  0  0  0  0  0  0  0  0  0
  145.5936  135.4468  153.8606 H   0  0  0  0  0  0  0  0  0  0  0  0
  144.1804  135.1225  152.8770 H   0  0  0  0  0  0  0  0  0  0  0  0
  145.7371  135.4930  152.1115 H   0  0  0  0  0  0  0  0  0  0  0  0
  145.3397  131.0214  153.1244 H   0  0  0  0  0  0  0  0  0  0  0  0
  145.6867  130.6680  151.4670 H   0  0  0  0  0  0  0  0  0  0  0  0
  147.9243  131.2273  151.6874 H   0  0  0  0  0  0  0  0  0  0  0  0
  148.4376  129.9360  154.4496 H   0  0  0  0  0  0  0  0  0  0  0  0
  149.4780  130.8813  156.5177 H   0  0  0  0  0  0  0  0  0  0  0  0
  151.7675  133.0202  158.6252 H   0  0  0  0  0  0  0  0  0  0  0  0
  151.9493  132.7243  156.8807 H   0  0  0  0  0  0  0  0  0  0  0  0
  150.9802  131.6118  157.8762 H   0  0  0  0  0  0  0  0  0  0  0  0
  148.4617  134.8173  155.0381 H   0  0  0  0  0  0  0  0  0  0  0  0
  143.2550  132.3126  152.0580 H   0  0  0  0  0  0  0  0  0  0  0  0
  143.5522  133.7735  151.1590 H   0  0  0  0  0  0  0  0  0  0  0  0
  144.0355  130.9729  150.0539 H   0  0  0  0  0  0  0  0  0  0  0  0
  142.7611  132.0849  149.6145 H   0  0  0  0  0  0  0  0  0  0  0  0
  146.3371  131.5415  149.4027 H   0  0  0  0  0  0  0  0  0  0  0  0
  146.5937  133.0419  148.5455 H   0  0  0  0  0  0  0  0  0  0  0  0
  146.0663  134.3820  150.4967 H   0  0  0  0  0  0  0  0  0  0  0  0
  147.3260  133.2638  150.9386 H   0  0  0  0  0  0  0  0  0  0  0  0
  1  2  1  0  0  0  0
  1 21  1  0  0  0  0
  1 22  1  0  0  0  0
  1 23  1  0  0  0  0
  2  3  1  0  0  0  0
  3 20  1  0  0  0  0
  3  4  1  0  0  0  0
  3 16  1  0  0  0  0
  4  5  1  0  0  0  0
  4 24  1  0  0  0  0
  4 25  1  0  0  0  0
  5  6  1  0  0  0  0
  5 26  1  0  0  0  0
  6 15  1  0  0  0  0
  6  7  2  0  0  0  0
  7  8  1  0  0  0  0
  7 27  1  0  0  0  0
  8  9  2  0  0  0  0
  8 28  1  0  0  0  0
  9 10  1  0  0  0  0
  9 14  1  0  0  0  0
 10 11  1  0  0  0  0
 10 12  2  0  0  0  0
 10 13  2  0  0  0  0
 11 29  1  0  0  0  0
 11 30  1  0  0  0  0
 11 31  1  0  0  0  0
 14 15  2  0  0  0  0
 14 32  1  0  0  0  0
 16 17  1  0  0  0  0
 16 33  1  0  0  0  0
 16 34  1  0  0  0  0
 17 18  1  0  0  0  0
 17 35  1  0  0  0  0
 17 36  1  0  0  0  0
 18 19  1  0  0  0  0
 19 20  1  0  0  0  0
 19 37  1  0  0  0  0
 19 38  1  0  0  0  0
 20 39  1  0  0  0  0
 20 40  1  0  0  0  0
M  END
> <s_m_source_file>
AV-unprocessed.smi

> <i_m_source_file_index>
2612

> <i_lp_mmshare_version>
43012

> <i_f3d_flags>
0

> <s_epik_input>
W0NIMl0xW0NIMl1PW0NIMl1bQ0gyXUMxKE9bQ0gzXSlbQ0gyXVtOSF1jMltjSF1bY0hdYyhbY0hdbjIpUyg9TykoPU8pW0NIM10=

> <s_epik_cmdline>
J2VwaWtfcHl0aG9uJywgJy1waCcsICc3LjAnLCAnLXRuJywgJzgnLCAnLW1hJywgJzIwMCcsICctbWV0YWxfYmluZGluZycsICctaW1hZScsICc8aW5maWxlLm1hZT4nLCAnLW9tYWUnLCAnPG91dGZpbGUubWFlPic=

> <r_lp_tautomer_probability>
1

> <r_epik_Ionization_Penalty>
1.02976e-06

> <r_epik_Ionization_Penalty_Charging>
0

> <r_epik_Ionization_Penalty_Neutral>
1.02976e-06

> <r_epik_State_Penalty>
-0

> <r_epik_Charging_Adjusted_Penalty>
0

> <i_epik_Tot_Q>
0

> <i_epik_Tot_abs_Q>
0

> <r_epik_Metal_State_Penalty>
-0

> <b_epik_Metal_Only>
0

> <s_lp_Force_Field>
OPLS_2005

> <r_lp_Energy>
16.1681

> <b_lp_Chiralities_Consistent>
1

> <s_lp_Variant>
AV-unprocessed.smi:2612-1

> <Gold.Version>
5.8.1

> <Gold.Id.Protein>
6NUR|6NUR_protein|mol2

> <Gold.PLP.Fitness>
45.1733

> <Gold.PLP.PLP>
-35.4675

> <Gold.PLP.part.hbond>
-3.5622

> <Gold.PLP.part.metal>
0.0000

> <Gold.PLP.part.buried>
-4.0202

> <Gold.PLP.part.nonpolar>
-27.8101

> <Gold.PLP.part.repulsive>
0.5485

> <Gold.PLP.ligand.clash>
0.0000

> <Gold.PLP.ligand.torsion>
1.9858

> <Gold.PLP.Chemscore.Hbond>
2.9600

> <Gold.PLP.Chemscore.CHOScore>
0.8832

> <Gold.PLP.Chemscore.Metal>
0.0000

> <Gold.Chemscore.Hbonds>
donor molecule, donor type, donor heavy atom, donor atom, acceptor molecule, acceptor atom, score
      L1  H     5    26       P1 10747  1.00

> <Gold.PLP.Chemscore.Internal.Correction>
2.1477

> <Gold.Rescore>
     Score         DG    S(hbond)    S(metal)    S(lipo)     H(rot)  DE(clash)    DE(int)     intcor
     17.63     -20.11       2.64        0.00      81.33       1.45       0.35       2.12       ----

> <Gold.Chemscore.Fitness>
17.6337

> <Gold.Chemscore.DG>
-20.1085

> <Gold.Chemscore.ZeroCoef>
-5.4800

> <Gold.Chemscore.Hbond>
2.6415

> <Gold.Chemscore.Metal>
0.0000

> <Gold.Chemscore.Lipo>
81.3271

> <Gold.Chemscore.Internal_Hbond>
0.0000

> <Gold.Chemscore.DEClash>
0.3531

> <Gold.Chemscore.DEInternal>
2.1217

> <Gold.Chemscore.Rot>
1.4490

> <Gold.Chemscore.Internal.Correction>
   9.000000E+99

> <Gold.Chemscore.Hbonds>
donor molecule, donor type, donor heavy atom, donor atom, acceptor molecule, acceptor atom, score
      L1  H     5    26       P1 10747  1.00

> <Gold.Chemscore.Hbond.Weighted>
-8.8226

> <Gold.Chemscore.Metal.Weighted>
-0.0000

> <Gold.Chemscore.Lipo.Weighted>
-9.5153

> <Gold.Chemscore.Internal_Hbond.Weighted>
0.0000

> <Gold.Chemscore.DEClash.Weighted>
0.3531

> <Gold.Chemscore.DEInternal.Weighted>
2.1217

> <Gold.Chemscore.Rot.Weighted>
3.7094

> <Gold.Chemscore.Internal.Correction.Weighted>
   9.000000E+99

> <Gold.Protein.RotatedTorsions>
[ 6907 6896 6895 6894 ] final -108.44 input  -60.11 | X-H torsion
[ 7974 7965 7964 7962 ] final -153.47 input  175.53 | X-H torsion
[ 8008 7997 7996 7995 ] final -164.33 input   59.86 | X-H torsion
[ 10167 10162 10161 10158 ] final  -58.91 input  -65.29 | X-H torsion
[ 10718 10713 10712 10709 ] final   14.82 input   66.30 | X-H torsion
[ 10763 10752 10751 10750 ] final  -33.13 input  -60.55 | X-H torsion
[ 11005 11000 10999 10996 ] final   50.44 input  -57.11 | X-H torsion

> <Gold.Protein.ActiveResidues>
 VAL166  LYS551  ARG553  GLY616  TRP617  ASP618  TYR619  PRO620  LYS621  CYS622 
 ASP623  PHE694  ASN695  SER759  ASP760  ASP761  ALA762  ILE779  LEU786  VAL792 
 PHE793  MET794  SER795  GLU796  ALA797  LYS798  CYS799  TRP800  GLU811  SER814 

> <Gold.Protein.RotatedAtoms>
  150.7502  133.9677  159.3535 H   0  0  0  0  0  0  0  0  0  0  0  0  # atno 6907 bound_to 6896
  151.7608  135.0808  160.0354 H   0  0  0  0  0  0  0  0  0  0  0  0  # atno 6908 bound_to 6896
  152.3404  133.6023  159.5908 H   0  0  0  0  0  0  0  0  0  0  0  0  # atno 6909 bound_to 6896
  144.7739  140.4521  143.5887 H   0  0  0  0  0  0  0  0  0  0  0  0  # atno 7974 bound_to 7965
  155.8340  140.0938  157.1775 H   0  0  0  0  0  0  0  0  0  0  0  0  # atno 8008 bound_to 7997
  154.3980  140.1413  156.3709 H   0  0  0  0  0  0  0  0  0  0  0  0  # atno 8009 bound_to 7997
  155.8135  140.3449  155.5474 H   0  0  0  0  0  0  0  0  0  0  0  0  # atno 8010 bound_to 7997
  140.6168  143.2405  151.5577 H   0  0  0  0  0  0  0  0  0  0  0  0  # atno 10167 bound_to 10162
  157.0447  130.6245  149.5757 H   0  0  0  0  0  0  0  0  0  0  0  0  # atno 10718 bound_to 10713
  153.8252  135.6871  153.4822 H   0  0  0  0  0  0  0  0  0  0  0  0  # atno 10763 bound_to 10752
  153.1544  135.4605  154.9682 H   0  0  0  0  0  0  0  0  0  0  0  0  # atno 10764 bound_to 10752
  154.7910  135.3302  154.7721 H   0  0  0  0  0  0  0  0  0  0  0  0  # atno 10765 bound_to 10752
  140.1017  134.5072  155.8756 H   0  0  0  0  0  0  0  0  0  0  0  0  # atno 11005 bound_to 11000
  145.6243  139.1528  143.3004 LP  0  0  0  0  0  0  0  0  0  0  0  0  # atno 17320 bound_to 7965
  146.1905  140.6351  142.9148 LP  0  0  0  0  0  0  0  0  0  0  0  0  # atno 17321 bound_to 7965
  139.5405  144.2660  152.1341 LP  0  0  0  0  0  0  0  0  0  0  0  0  # atno 17342 bound_to 10162
  140.1871  144.4788  150.6498 LP  0  0  0  0  0  0  0  0  0  0  0  0  # atno 17343 bound_to 10162
  156.0027  130.5109  150.7720 LP  0  0  0  0  0  0  0  0  0  0  0  0  # atno 17370 bound_to 10713
  157.5077  131.0923  151.0236 LP  0  0  0  0  0  0  0  0  0  0  0  0  # atno 17371 bound_to 10713
  141.2107  133.6698  156.6531 LP  0  0  0  0  0  0  0  0  0  0  0  0  # atno 17394 bound_to 11000
  140.3211  134.8007  157.4253 LP  0  0  0  0  0  0  0  0  0  0  0  0  # atno 17395 bound_to 11000

$$$$
