AV-unprocessed.smi:1047|AV-procd|sdf|4587|dock4
  -GOLD-   22720 3 63D 1   1.00000     0.00000
 Structure written by MMmdl.
 58 60  0  0  0  0  0  0  0  0  4 V2000
  147.6955  132.3318  153.4292 C   0  0  0  0  0  0  0  0  0  0  0  0
  149.1647  131.9592  153.1857 C   0  0  0  0  0  0  0  0  0  0  0  0
  150.0911  132.6561  154.1129 N   0  3  2  0  0  0  0  0  0  0  0  0
  150.0961  132.0891  155.4839 C   0  0  0  0  0  0  0  0  0  0  0  0
  151.0903  132.8492  156.3772 C   0  0  0  0  0  0  0  0  0  0  0  0
  150.7704  134.2357  156.3803 O   0  0  0  0  0  0  0  0  0  0  0  0
  150.8646  134.8152  155.0831 C   0  0  2  0  0  0  0  0  0  0  0  0
  150.5851  136.3211  155.2081 C   0  0  0  0  0  0  0  0  0  0  0  0
  150.8366  137.0231  153.9335 N   0  3  0  0  0  0  0  0  0  0  0  0
  151.1550  138.4572  154.0876 C   0  0  0  0  0  0  0  0  0  0  0  0
  152.2669  138.6729  155.1319 C   0  0  1  0  0  0  0  0  0  0  0  0
  153.1215  139.7044  154.6820 O   0  0  0  0  0  0  0  0  0  0  0  0
  151.7532  139.0713  156.5301 C   0  0  0  0  0  0  0  0  0  0  0  0
  151.2700  140.4579  156.5936 N   0  0  0  0  0  0  0  0  0  0  0  0
  150.4484  141.1265  155.7389 C   0  0  0  0  0  0  0  0  0  0  0  0
  150.2822  142.3859  156.2286 N   0  3  0  0  0  0  0  0  0  0  0  0
  151.0033  142.5236  157.4161 C   0  0  0  0  0  0  0  0  0  0  0  0
  151.1431  143.6080  158.2736 C   0  0  0  0  0  0  0  0  0  0  0  0
  151.9569  143.4276  159.4144 C   0  0  0  0  0  0  0  0  0  0  0  0
  152.1290  144.5928  160.3740 C   0  0  0  0  0  0  0  0  0  0  0  0
  152.6000  142.1876  159.6635 C   0  0  0  0  0  0  0  0  0  0  0  0
  153.4740  142.0053  160.8931 C   0  0  0  0  0  0  0  0  0  0  0  0
  152.4448  141.0960  158.7792 C   0  0  0  0  0  0  0  0  0  0  0  0
  151.6384  141.2896  157.6592 C   0  0  0  0  0  0  0  0  0  0  0  0
  149.8451  134.1176  154.1605 C   0  0  0  0  0  0  0  0  0  0  0  0
  147.0395  131.7318  152.7982 H   0  0  0  0  0  0  0  0  0  0  0  0
  147.4946  133.3775  153.1987 H   0  0  0  0  0  0  0  0  0  0  0  0
  147.4091  132.1526  154.4658 H   0  0  0  0  0  0  0  0  0  0  0  0
  149.2631  130.8823  153.3279 H   0  0  0  0  0  0  0  0  0  0  0  0
  149.4459  132.1611  152.1511 H   0  0  0  0  0  0  0  0  0  0  0  0
  149.0930  132.1493  155.9094 H   0  0  0  0  0  0  0  0  0  0  0  0
  150.3704  131.0349  155.4600 H   0  0  0  0  0  0  0  0  0  0  0  0
  151.0390  132.4729  157.3992 H   0  0  0  0  0  0  0  0  0  0  0  0
  152.1155  132.6999  156.0347 H   0  0  0  0  0  0  0  0  0  0  0  0
  151.8716  134.6696  154.6867 H   0  0  0  0  0  0  0  0  0  0  0  0
  149.5429  136.4801  155.4887 H   0  0  0  0  0  0  0  0  0  0  0  0
  151.1997  136.7567  155.9972 H   0  0  0  0  0  0  0  0  0  0  0  0
  151.6080  136.5718  153.4625 H   0  0  0  0  0  0  0  0  0  0  0  0
  151.4493  138.8782  153.1251 H   0  0  0  0  0  0  0  0  0  0  0  0
  150.2428  138.9685  154.3958 H   0  0  0  0  0  0  0  0  0  0  0  0
  152.8590  137.7608  155.2209 H   0  0  0  0  0  0  0  0  0  0  0  0
  153.2479  139.6119  153.7495 H   0  0  0  0  0  0  0  0  0  0  0  0
  150.9140  138.4332  156.8107 H   0  0  0  0  0  0  0  0  0  0  0  0
  152.5167  138.9173  157.2926 H   0  0  0  0  0  0  0  0  0  0  0  0
  150.0055  140.7293  154.8367 H   0  0  0  0  0  0  0  0  0  0  0  0
  150.6498  144.5491  158.0776 H   0  0  0  0  0  0  0  0  0  0  0  0
  151.7635  144.3286  161.3665 H   0  0  0  0  0  0  0  0  0  0  0  0
  151.5762  145.4710  160.0387 H   0  0  0  0  0  0  0  0  0  0  0  0
  153.1800  144.8716  160.4541 H   0  0  0  0  0  0  0  0  0  0  0  0
  153.8903  140.9985  160.9419 H   0  0  0  0  0  0  0  0  0  0  0  0
  152.8955  142.1703  161.8025 H   0  0  0  0  0  0  0  0  0  0  0  0
  154.3065  142.7094  160.8795 H   0  0  0  0  0  0  0  0  0  0  0  0
  152.9363  140.1546  158.9742 H   0  0  0  0  0  0  0  0  0  0  0  0
  149.9176  134.5327  153.1541 H   0  0  0  0  0  0  0  0  0  0  0  0
  148.8287  134.3043  154.5115 H   0  0  0  0  0  0  0  0  0  0  0  0
  150.0152  136.9447  153.3502 H   0  0  0  0  0  0  0  0  0  0  0  0
  151.0207  132.5341  153.7370 H   0  0  0  0  0  0  0  0  0  0  0  0
  149.7128  143.0961  155.7857 H   0  0  0  0  0  0  0  0  0  0  0  0
  1  2  1  0  0  0  0
  1 26  1  0  0  0  0
  1 27  1  0  0  0  0
  1 28  1  0  0  0  0
  2  3  1  0  0  0  0
  2 29  1  0  0  0  0
  2 30  1  0  0  0  0
  3 25  1  0  0  0  0
  3  4  1  0  0  0  0
  3 57  1  0  0  0  0
  4  5  1  0  0  0  0
  4 31  1  0  0  0  0
  4 32  1  0  0  0  0
  5  6  1  0  0  0  0
  5 33  1  0  0  0  0
  5 34  1  0  0  0  0
  6  7  1  0  0  0  0
  7  8  1  0  0  0  0
  7 25  1  0  0  0  0
  7 35  1  0  0  0  0
  8  9  1  0  0  0  0
  8 36  1  0  0  0  0
  8 37  1  0  0  0  0
  9 10  1  0  0  0  0
  9 38  1  0  0  0  0
  9 56  1  0  0  0  0
 10 11  1  0  0  0  0
 10 39  1  0  0  0  0
 10 40  1  0  0  0  0
 11 12  1  0  0  0  0
 11 13  1  0  0  0  0
 11 41  1  0  0  0  0
 12 42  1  0  0  0  0
 13 14  1  0  0  0  0
 13 43  1  0  0  0  0
 13 44  1  0  0  0  0
 14 24  1  0  0  0  0
 14 15  1  0  0  0  0
 15 16  2  0  0  0  0
 15 45  1  0  0  0  0
 16 17  1  0  0  0  0
 16 58  1  0  0  0  0
 17 24  2  0  0  0  0
 17 18  1  0  0  0  0
 18 19  2  0  0  0  0
 18 46  1  0  0  0  0
 19 20  1  0  0  0  0
 19 21  1  0  0  0  0
 20 47  1  0  0  0  0
 20 48  1  0  0  0  0
 20 49  1  0  0  0  0
 21 22  1  0  0  0  0
 21 23  2  0  0  0  0
 22 50  1  0  0  0  0
 22 51  1  0  0  0  0
 22 52  1  0  0  0  0
 23 24  1  0  0  0  0
 23 53  1  0  0  0  0
 25 54  1  0  0  0  0
 25 55  1  0  0  0  0
M  CHG  1   3   1
M  CHG  1   9   1
M  CHG  1  16   1
M  END
> <s_m_source_file>
AV-unprocessed.smi

> <i_m_source_file_index>
1047

> <i_lp_mmshare_version>
43012

> <i_f3d_flags>
0

> <s_epik_input>
W0NIM11bQ0gyXU4xW0NIMl1bQ0gyXU9bQ0BIXShbQ0gyXTEpW0NIMl1bTkhdW0NIMl1bQ0BIXShbT0hdKVtDSDJdbihbY0hdbjIpYyhjMjMpW2NIXWMoW0NIM10pYyhbY0hdMylbQ0gzXQ==

> <s_epik_cmdline>
J2VwaWtfcHl0aG9uJywgJy1waCcsICc3LjAnLCAnLXRuJywgJzgnLCAnLW1hJywgJzIwMCcsICctbWV0YWxfYmluZGluZycsICctaW1hZScsICc8aW5maWxlLm1hZT4nLCAnLW9tYWUnLCAnPG91dGZpbGUubWFlPic=

> <r_epik_Ionization_Penalty>
1.6114

> <r_epik_Ionization_Penalty_Charging>
1.61139

> <r_epik_Ionization_Penalty_Neutral>
5.04732e-06

> <r_epik_State_Penalty>
1.63724

> <r_epik_Charging_Adjusted_Penalty>
3.24864

> <i_epik_Tot_Q>
3

> <i_epik_Tot_abs_Q>
3

> <r_epik_Metal_State_Penalty>
5.64594

> <b_epik_Metal_Only>
0

> <s_lp_Force_Field>
OPLS_2005

> <r_lp_Energy>
41.4775

> <b_lp_Chiralities_Consistent>
1

> <s_lp_Variant>
AV-unprocessed.smi:1047-28

> <Gold.Version>
5.8.1

> <Gold.Id.Protein>
6NUR|6NUR_protein|mol2

> <Gold.PLP.Fitness>
70.2898

> <Gold.PLP.PLP>
-56.1342

> <Gold.PLP.part.hbond>
-5.0000

> <Gold.PLP.part.metal>
0.0000

> <Gold.PLP.part.buried>
-7.1887

> <Gold.PLP.part.nonpolar>
-44.0513

> <Gold.PLP.part.repulsive>
0.2049

> <Gold.PLP.ligand.clash>
0.0000

> <Gold.PLP.ligand.torsion>
1.0748

> <Gold.PLP.Chemscore.Hbond>
5.3771

> <Gold.PLP.Chemscore.CHOScore>
0.0000

> <Gold.PLP.Chemscore.Metal>
0.0000

> <Gold.Chemscore.Hbonds>
donor molecule, donor type, donor heavy atom, donor atom, acceptor molecule, acceptor atom, score
      L1  H     9    38       P1  7949  0.48
      L1  H     9    56       P1  7948  1.80
      L1  H    16    58       P1  8028  2.00
      P1  H  7997  8009       L1    12  1.00

> <Gold.PLP.Chemscore.Internal.Correction>
0.1739

> <Gold.Rescore>
     Score         DG    S(hbond)    S(metal)    S(lipo)     H(rot)  DE(clash)    DE(int)     intcor
     22.11     -23.17       2.67        0.00     135.98       2.78       0.04       1.02       ----

> <Gold.Chemscore.Fitness>
22.1102

> <Gold.Chemscore.DG>
-23.1682

> <Gold.Chemscore.ZeroCoef>
-5.4800

> <Gold.Chemscore.Hbond>
2.6669

> <Gold.Chemscore.Metal>
0.0000

> <Gold.Chemscore.Lipo>
135.9821

> <Gold.Chemscore.Internal_Hbond>
0.0000

> <Gold.Chemscore.DEClash>
0.0402

> <Gold.Chemscore.DEInternal>
1.0178

> <Gold.Chemscore.Rot>
2.7848

> <Gold.Chemscore.Internal.Correction>
   9.000000E+99

> <Gold.Chemscore.Hbonds>
donor molecule, donor type, donor heavy atom, donor atom, acceptor molecule, acceptor atom, score
      L1  H     9    38       P1  7949  0.21
      L1  H     9    56       P1  7948  0.17
      L1  H    16    58       P1  8028  0.99
      P1  H  7997  8009       L1    12  0.94

> <Gold.Chemscore.Hbond.Weighted>
-8.9074

> <Gold.Chemscore.Metal.Weighted>
-0.0000

> <Gold.Chemscore.Lipo.Weighted>
-15.9099

> <Gold.Chemscore.Internal_Hbond.Weighted>
0.0000

> <Gold.Chemscore.DEClash.Weighted>
0.0402

> <Gold.Chemscore.DEInternal.Weighted>
1.0178

> <Gold.Chemscore.Rot.Weighted>
7.1291

> <Gold.Chemscore.Internal.Correction.Weighted>
   9.000000E+99

> <Gold.Protein.RotatedTorsions>
[ 6907 6896 6895 6894 ] final  -59.27 input  -60.11 | X-H torsion
[ 7974 7965 7964 7962 ] final   25.31 input  175.53 | X-H torsion
[ 8008 7997 7996 7995 ] final -132.27 input   59.86 | X-H torsion
[ 10167 10162 10161 10158 ] final  130.18 input  -65.29 | X-H torsion
[ 10718 10713 10712 10709 ] final -160.25 input   66.30 | X-H torsion
[ 10763 10752 10751 10750 ] final -174.45 input  -60.55 | X-H torsion
[ 11005 11000 10999 10996 ] final  -67.07 input  -57.11 | X-H torsion

> <Gold.Protein.ActiveResidues>
 VAL166  LYS551  ARG553  GLY616  TRP617  ASP618  TYR619  PRO620  LYS621  CYS622 
 ASP623  PHE694  ASN695  SER759  ASP760  ASP761  ALA762  ILE779  LEU786  VAL792 
 PHE793  MET794  SER795  GLU796  ALA797  LYS798  CYS799  TRP800  GLU811  SER814 

> <Gold.Protein.RotatedAtoms>
  150.7943  134.6990  159.6539 H   0  0  0  0  0  0  0  0  0  0  0  0  # atno 6907 bound_to 6896
  152.4053  134.6214  160.0061 H   0  0  0  0  0  0  0  0  0  0  0  0  # atno 6908 bound_to 6896
  151.6473  133.3286  159.3180 H   0  0  0  0  0  0  0  0  0  0  0  0  # atno 6909 bound_to 6896
  146.1895  139.7483  142.8842 H   0  0  0  0  0  0  0  0  0  0  0  0  # atno 7974 bound_to 7965
  155.3262  140.0464  157.3041 H   0  0  0  0  0  0  0  0  0  0  0  0  # atno 8008 bound_to 7997
  154.5353  140.2270  155.8699 H   0  0  0  0  0  0  0  0  0  0  0  0  # atno 8009 bound_to 7997
  156.1829  140.3069  155.9189 H   0  0  0  0  0  0  0  0  0  0  0  0  # atno 8010 bound_to 7997
  139.5442  144.6758  151.4526 H   0  0  0  0  0  0  0  0  0  0  0  0  # atno 10167 bound_to 10162
  156.5795  130.8723  151.2860 H   0  0  0  0  0  0  0  0  0  0  0  0  # atno 10718 bound_to 10713
  154.5961  135.2850  155.0584 H   0  0  0  0  0  0  0  0  0  0  0  0  # atno 10763 bound_to 10752
  154.1867  135.6447  153.5052 H   0  0  0  0  0  0  0  0  0  0  0  0  # atno 10764 bound_to 10752
  153.0139  135.5436  154.6664 H   0  0  0  0  0  0  0  0  0  0  0  0  # atno 10765 bound_to 10752
  141.1499  133.6712  156.6237 H   0  0  0  0  0  0  0  0  0  0  0  0  # atno 11005 bound_to 11000
  145.3837  141.0362  143.3163 LP  0  0  0  0  0  0  0  0  0  0  0  0  # atno 17320 bound_to 7965
  144.8459  139.5398  143.6879 LP  0  0  0  0  0  0  0  0  0  0  0  0  # atno 17321 bound_to 7965
  140.6684  143.8347  150.6970 LP  0  0  0  0  0  0  0  0  0  0  0  0  # atno 17342 bound_to 10162
  140.1763  143.4152  152.1965 LP  0  0  0  0  0  0  0  0  0  0  0  0  # atno 17343 bound_to 10162
  157.7330  130.9723  150.1955 LP  0  0  0  0  0  0  0  0  0  0  0  0  # atno 17370 bound_to 10713
  156.2644  130.3714  149.8096 LP  0  0  0  0  0  0  0  0  0  0  0  0  # atno 17371 bound_to 10713
  140.3521  134.7760  157.4474 LP  0  0  0  0  0  0  0  0  0  0  0  0  # atno 17394 bound_to 11000
  140.0852  134.5676  155.8499 LP  0  0  0  0  0  0  0  0  0  0  0  0  # atno 17395 bound_to 11000

$$$$
