AV-unprocessed.smi:2808|AV-procd|sdf|10824|dock4
  -GOLD-   2272015263D 1   1.00000     0.00000
 Structure written by MMmdl.
 43 44  0  0  0  0  0  0  0  0  1 V2000
  148.6605  131.9607  158.9608 C   0  0  0  0  0  0  0  0  0  0  0  0
  148.6960  133.4514  158.6793 C   0  0  0  0  0  0  0  0  0  0  0  0
  149.0141  133.9315  157.3505 C   0  0  0  0  0  0  0  0  0  0  0  0
  149.0414  135.2524  157.1187 C   0  0  0  0  0  0  0  0  0  0  0  0
  148.7692  136.1907  158.1297 N   0  0  0  0  0  0  0  0  0  0  0  0
  148.8351  137.6149  157.7612 C   0  0  0  0  0  0  0  0  0  0  0  0
  150.2714  138.1517  157.6935 C   0  0  0  0  0  0  0  0  0  0  0  0
  151.2313  137.3864  157.7870 O   0  0  0  0  0  0  0  0  0  0  0  0
  150.3956  139.4774  157.5151 N   0  0  0  0  0  0  0  0  0  0  0  0
  151.6405  140.2471  157.4220 C   0  0  0  0  0  0  0  0  0  0  0  0
  152.3992  139.8539  156.2179 C   0  0  0  0  0  0  0  0  0  0  0  0
  152.9946  139.5458  155.2748 N   0  0  0  0  0  0  0  0  0  0  0  0
  151.2516  141.7361  157.2493 C   0  0  0  0  0  0  0  0  0  0  0  0
  150.9069  142.5003  158.5402 C   0  0  0  0  0  0  0  0  0  0  0  0
  152.1445  143.1430  159.1925 C   0  0  0  0  0  0  0  0  0  0  0  0
  153.1050  142.1559  159.8746 C   0  0  0  0  0  0  0  0  0  0  0  0
  153.6006  141.0078  158.9774 C   0  0  0  0  0  0  0  0  0  0  0  0
  152.4978  139.9762  158.6868 C   0  0  0  0  0  0  0  0  0  0  0  0
  148.4651  135.8105  159.4073 C   0  0  0  0  0  0  0  0  0  0  0  0
  148.2309  136.6386  160.2899 O   0  0  0  0  0  0  0  0  0  0  0  0
  148.4377  134.3595  159.6508 C   0  0  0  0  0  0  0  0  0  0  0  0
  148.1205  133.9630  160.9850 C   0  0  0  0  0  0  0  0  0  0  0  0
  147.8744  133.6227  162.0637 N   0  0  0  0  0  0  0  0  0  0  0  0
  148.8832  131.3839  158.0628 H   0  0  0  0  0  0  0  0  0  0  0  0
  147.6739  131.6634  159.3172 H   0  0  0  0  0  0  0  0  0  0  0  0
  149.3960  131.6988  159.7221 H   0  0  0  0  0  0  0  0  0  0  0  0
  149.2323  133.2376  156.5520 H   0  0  0  0  0  0  0  0  0  0  0  0
  149.2796  135.6717  156.1518 H   0  0  0  0  0  0  0  0  0  0  0  0
  148.3651  137.7847  156.7917 H   0  0  0  0  0  0  0  0  0  0  0  0
  148.2531  138.2090  158.4687 H   0  0  0  0  0  0  0  0  0  0  0  0
  149.5422  140.0121  157.4446 H   0  0  0  0  0  0  0  0  0  0  0  0
  152.0528  142.2680  156.7339 H   0  0  0  0  0  0  0  0  0  0  0  0
  150.4035  141.8004  156.5655 H   0  0  0  0  0  0  0  0  0  0  0  0
  150.2178  143.3045  158.2808 H   0  0  0  0  0  0  0  0  0  0  0  0
  150.3702  141.8660  159.2464 H   0  0  0  0  0  0  0  0  0  0  0  0
  152.6892  143.7257  158.4487 H   0  0  0  0  0  0  0  0  0  0  0  0
  151.8099  143.8636  159.9396 H   0  0  0  0  0  0  0  0  0  0  0  0
  153.9687  142.7151  160.2355 H   0  0  0  0  0  0  0  0  0  0  0  0
  152.6309  141.7437  160.7661 H   0  0  0  0  0  0  0  0  0  0  0  0
  154.0422  141.3861  158.0550 H   0  0  0  0  0  0  0  0  0  0  0  0
  154.4074  140.5002  159.5073 H   0  0  0  0  0  0  0  0  0  0  0  0
  151.8598  139.8780  159.5667 H   0  0  0  0  0  0  0  0  0  0  0  0
  152.9715  138.9999  158.5769 H   0  0  0  0  0  0  0  0  0  0  0  0
  1  2  1  0  0  0  0
  1 24  1  0  0  0  0
  1 25  1  0  0  0  0
  1 26  1  0  0  0  0
  2 21  2  0  0  0  0
  2  3  1  0  0  0  0
  3  4  2  0  0  0  0
  3 27  1  0  0  0  0
  4  5  1  0  0  0  0
  4 28  1  0  0  0  0
  5  6  1  0  0  0  0
  5 19  1  0  0  0  0
  6  7  1  0  0  0  0
  6 29  1  0  0  0  0
  6 30  1  0  0  0  0
  7  8  2  0  0  0  0
  7  9  1  0  0  0  0
  9 10  1  0  0  0  0
  9 31  1  0  0  0  0
 10 18  1  0  0  0  0
 10 11  1  0  0  0  0
 10 13  1  0  0  0  0
 11 12  3  0  0  0  0
 13 14  1  0  0  0  0
 13 32  1  0  0  0  0
 13 33  1  0  0  0  0
 14 15  1  0  0  0  0
 14 34  1  0  0  0  0
 14 35  1  0  0  0  0
 15 16  1  0  0  0  0
 15 36  1  0  0  0  0
 15 37  1  0  0  0  0
 16 17  1  0  0  0  0
 16 38  1  0  0  0  0
 16 39  1  0  0  0  0
 17 18  1  0  0  0  0
 17 40  1  0  0  0  0
 17 41  1  0  0  0  0
 18 42  1  0  0  0  0
 18 43  1  0  0  0  0
 19 20  2  0  0  0  0
 19 21  1  0  0  0  0
 21 22  1  0  0  0  0
 22 23  3  0  0  0  0
M  END
> <s_m_source_file>
AV-unprocessed.smi

> <i_m_source_file_index>
2808

> <i_lp_mmshare_version>
43012

> <i_f3d_flags>
0

> <s_epik_input>
W0NIM11jMVtjSF1bY0hdbihjKD1PKWMxQyNOKVtDSDJdQyg9TylbTkhdQzIoQyNOKVtDSDJdW0NIMl1bQ0gyXVtDSDJdW0NIMl1bQ0gyXTI=

> <s_epik_cmdline>
J2VwaWtfcHl0aG9uJywgJy1waCcsICc3LjAnLCAnLXRuJywgJzgnLCAnLW1hJywgJzIwMCcsICctbWV0YWxfYmluZGluZycsICctaW1hZScsICc8aW5maWxlLm1hZT4nLCAnLW9tYWUnLCAnPG91dGZpbGUubWFlPic=

> <r_lp_tautomer_probability>
1

> <r_epik_Ionization_Penalty>
4.51384e-07

> <r_epik_Ionization_Penalty_Charging>
2.41788e-10

> <r_epik_Ionization_Penalty_Neutral>
4.51142e-07

> <r_epik_State_Penalty>
-0

> <r_epik_Charging_Adjusted_Penalty>
2.41788e-10

> <i_epik_Tot_Q>
0

> <i_epik_Tot_abs_Q>
0

> <r_epik_Metal_State_Penalty>
-0

> <b_epik_Metal_Only>
0

> <s_lp_Force_Field>
OPLS_2005

> <r_lp_Energy>
25.2429

> <b_lp_Chiralities_Consistent>
1

> <s_lp_Variant>
AV-unprocessed.smi:2808-1

> <Gold.Version>
5.8.1

> <Gold.Id.Protein>
6NUR|6NUR_protein|mol2

> <Gold.PLP.Fitness>
49.0653

> <Gold.PLP.PLP>
-41.3687

> <Gold.PLP.part.hbond>
-4.2356

> <Gold.PLP.part.metal>
0.0000

> <Gold.PLP.part.buried>
-5.8142

> <Gold.PLP.part.nonpolar>
-31.1303

> <Gold.PLP.part.repulsive>
0.1723

> <Gold.PLP.ligand.clash>
0.0000

> <Gold.PLP.ligand.torsion>
0.3467

> <Gold.PLP.Chemscore.Hbond>
2.7920

> <Gold.PLP.Chemscore.CHOScore>
0.0000

> <Gold.PLP.Chemscore.Metal>
0.0000

> <Gold.Chemscore.Hbonds>
donor molecule, donor type, donor heavy atom, donor atom, acceptor molecule, acceptor atom, score
      P1  H  6931  6943       L1    20  0.04
      P1  H  7997  8009       L1    12  0.50

> <Gold.PLP.Chemscore.Internal.Correction>
0.0139

> <Gold.Rescore>
     Score         DG    S(hbond)    S(metal)    S(lipo)     H(rot)  DE(clash)    DE(int)     intcor
     17.86     -19.33       2.66        0.00      75.83       1.52       0.19       1.28       ----

> <Gold.Chemscore.Fitness>
17.8618

> <Gold.Chemscore.DG>
-19.3331

> <Gold.Chemscore.ZeroCoef>
-5.4800

> <Gold.Chemscore.Hbond>
2.6589

> <Gold.Chemscore.Metal>
0.0000

> <Gold.Chemscore.Lipo>
75.8273

> <Gold.Chemscore.Internal_Hbond>
0.0000

> <Gold.Chemscore.DEClash>
0.1889

> <Gold.Chemscore.DEInternal>
1.2824

> <Gold.Chemscore.Rot>
1.5232

> <Gold.Chemscore.Internal.Correction>
   9.000000E+99

> <Gold.Chemscore.Hbonds>
donor molecule, donor type, donor heavy atom, donor atom, acceptor molecule, acceptor atom, score
      P1  H  6931  6943       L1    20  0.09
      P1  H  7997  8009       L1    12  0.02

> <Gold.Chemscore.Hbond.Weighted>
-8.8808

> <Gold.Chemscore.Metal.Weighted>
-0.0000

> <Gold.Chemscore.Lipo.Weighted>
-8.8718

> <Gold.Chemscore.Internal_Hbond.Weighted>
0.0000

> <Gold.Chemscore.DEClash.Weighted>
0.1889

> <Gold.Chemscore.DEInternal.Weighted>
1.2824

> <Gold.Chemscore.Rot.Weighted>
3.8995

> <Gold.Chemscore.Internal.Correction.Weighted>
   9.000000E+99

> <Gold.Protein.RotatedTorsions>
[ 6907 6896 6895 6894 ] final  179.45 input  -60.11 | X-H torsion
[ 7974 7965 7964 7962 ] final   46.81 input  175.53 | X-H torsion
[ 8008 7997 7996 7995 ] final -141.41 input   59.86 | X-H torsion
[ 10167 10162 10161 10158 ] final   85.05 input  -65.29 | X-H torsion
[ 10718 10713 10712 10709 ] final  -97.77 input   66.30 | X-H torsion
[ 10763 10752 10751 10750 ] final   10.66 input  -60.55 | X-H torsion
[ 11005 11000 10999 10996 ] final    3.78 input  -57.11 | X-H torsion

> <Gold.Protein.ActiveResidues>
 VAL166  LYS551  ARG553  GLY616  TRP617  ASP618  TYR619  PRO620  LYS621  CYS622 
 ASP623  PHE694  ASN695  SER759  ASP760  ASP761  ALA762  ILE779  LEU786  VAL792 
 PHE793  MET794  SER795  GLU796  ALA797  LYS798  CYS799  TRP800  GLU811  SER814 

> <Gold.Protein.RotatedAtoms>
  151.6715  133.3314  159.3197 H   0  0  0  0  0  0  0  0  0  0  0  0  # atno 6907 bound_to 6896
  150.7866  134.6859  159.6479 H   0  0  0  0  0  0  0  0  0  0  0  0  # atno 6908 bound_to 6896
  152.3936  134.6404  160.0150 H   0  0  0  0  0  0  0  0  0  0  0  0  # atno 6909 bound_to 6896
  146.0356  139.4816  142.9810 H   0  0  0  0  0  0  0  0  0  0  0  0  # atno 7974 bound_to 7965
  155.4773  140.0557  157.2972 H   0  0  0  0  0  0  0  0  0  0  0  0  # atno 8008 bound_to 7997
  154.4674  140.2025  156.0035 H   0  0  0  0  0  0  0  0  0  0  0  0  # atno 8009 bound_to 7997
  156.0998  140.3221  155.7931 H   0  0  0  0  0  0  0  0  0  0  0  0  # atno 8010 bound_to 7997
  139.9017  144.6325  150.8630 H   0  0  0  0  0  0  0  0  0  0  0  0  # atno 10167 bound_to 10162
  156.0091  130.5209  150.6424 H   0  0  0  0  0  0  0  0  0  0  0  0  # atno 10718 bound_to 10713
  153.2009  135.6856  153.8233 H   0  0  0  0  0  0  0  0  0  0  0  0  # atno 10763 bound_to 10752
  153.7499  135.3225  155.3320 H   0  0  0  0  0  0  0  0  0  0  0  0  # atno 10764 bound_to 10752
  154.8170  135.4678  154.0774 H   0  0  0  0  0  0  0  0  0  0  0  0  # atno 10765 bound_to 10752
  140.5892  133.9940  155.8081 H   0  0  0  0  0  0  0  0  0  0  0  0  # atno 11005 bound_to 11000
  145.6970  141.0147  143.1525 LP  0  0  0  0  0  0  0  0  0  0  0  0  # atno 17320 bound_to 7965
  144.7050  139.8599  143.7433 LP  0  0  0  0  0  0  0  0  0  0  0  0  # atno 17321 bound_to 7965
  140.7705  143.3432  151.2165 LP  0  0  0  0  0  0  0  0  0  0  0  0  # atno 17342 bound_to 10162
  139.7019  143.9518  152.2909 LP  0  0  0  0  0  0  0  0  0  0  0  0  # atno 17343 bound_to 10162
  157.4202  131.0835  151.1138 LP  0  0  0  0  0  0  0  0  0  0  0  0  # atno 17370 bound_to 10713
  157.1743  130.6281  149.5650 LP  0  0  0  0  0  0  0  0  0  0  0  0  # atno 17371 bound_to 10713
  141.0946  133.9864  157.3182 LP  0  0  0  0  0  0  0  0  0  0  0  0  # atno 17394 bound_to 11000
  139.9282  135.0201  156.8307 LP  0  0  0  0  0  0  0  0  0  0  0  0  # atno 17395 bound_to 11000

$$$$
