AV-unprocessed.smi:2923|AV-procd|sdf|11215|dock8
  -GOLD-   2272016103D 1   1.00000     0.00000
 Structure written by MMmdl.
 46 48  0  0  0  0  0  0  0  0  1 V2000
  153.3151  142.2652  162.9493 C   0  0  0  0  0  0  0  0  0  0  0  0
  153.4550  141.5445  161.6898 N   0  0  0  0  0  0  0  0  0  0  0  0
  154.3838  140.4231  161.5935 C   0  0  0  0  0  0  0  0  0  0  0  0
  152.6392  141.8787  160.5846 C   0  0  0  0  0  0  0  0  0  0  0  0
  152.2476  143.2171  160.3319 C   0  0  0  0  0  0  0  0  0  0  0  0
  151.4312  143.5004  159.2204 C   0  0  0  0  0  0  0  0  0  0  0  0
  151.0285  142.4398  158.3766 C   0  0  0  0  0  0  0  0  0  0  0  0
  150.1867  142.5922  157.2420 N   0  0  0  0  0  0  0  0  0  0  0  0
  149.7024  141.6416  156.4250 C   0  0  0  0  0  0  0  0  0  0  0  0
  149.8583  140.4293  156.5694 O   0  0  0  0  0  0  0  0  0  0  0  0
  149.0008  142.1797  155.4188 N   0  0  0  0  0  0  0  0  0  0  0  0
  148.3487  141.4089  154.3648 C   0  0  1  0  0  0  0  0  0  0  0  0
  147.6996  140.1205  154.8936 C   0  0  2  0  0  0  0  0  0  0  0  0
  148.2256  138.7813  154.4537 C   0  0  0  0  0  0  0  0  0  0  0  0
  147.3021  138.4185  153.2873 C   0  0  0  0  0  0  0  0  0  0  0  0
  146.7740  139.6668  152.8447 O   0  0  0  0  0  0  0  0  0  0  0  0
  146.5128  140.4557  154.0030 C   0  0  2  0  0  0  0  0  0  0  0  0
  146.9509  141.9344  153.9475 C   0  0  0  0  0  0  0  0  0  0  0  0
  146.2104  142.8463  154.9364 C   0  0  0  0  0  0  0  0  0  0  0  0
  146.8651  142.6086  152.5775 C   0  0  0  0  0  0  0  0  0  0  0  0
  151.4582  141.1415  158.7127 C   0  0  0  0  0  0  0  0  0  0  0  0
  152.2405  140.8657  159.7767 N   0  0  0  0  0  0  0  0  0  0  0  0
  152.3017  142.1641  163.3386 H   0  0  0  0  0  0  0  0  0  0  0  0
  153.5333  143.3243  162.8102 H   0  0  0  0  0  0  0  0  0  0  0  0
  154.0009  141.8817  163.7048 H   0  0  0  0  0  0  0  0  0  0  0  0
  153.8462  139.4985  161.3810 H   0  0  0  0  0  0  0  0  0  0  0  0
  154.9360  140.2825  162.5227 H   0  0  0  0  0  0  0  0  0  0  0  0
  155.1092  140.5935  160.7972 H   0  0  0  0  0  0  0  0  0  0  0  0
  152.5508  144.0327  160.9708 H   0  0  0  0  0  0  0  0  0  0  0  0
  151.1209  144.5195  159.0502 H   0  0  0  0  0  0  0  0  0  0  0  0
  149.8939  143.5381  157.0458 H   0  0  0  0  0  0  0  0  0  0  0  0
  148.9151  143.1844  155.3741 H   0  0  0  0  0  0  0  0  0  0  0  0
  148.9908  141.2128  153.5030 H   0  0  0  0  0  0  0  0  0  0  0  0
  147.4359  140.1829  155.9511 H   0  0  0  0  0  0  0  0  0  0  0  0
  149.2607  138.8602  154.1198 H   0  0  0  0  0  0  0  0  0  0  0  0
  148.1846  138.0332  155.2458 H   0  0  0  0  0  0  0  0  0  0  0  0
  147.8218  137.8939  152.4854 H   0  0  0  0  0  0  0  0  0  0  0  0
  146.4804  137.7887  153.6314 H   0  0  0  0  0  0  0  0  0  0  0  0
  145.5420  140.2560  154.4594 H   0  0  0  0  0  0  0  0  0  0  0  0
  145.1643  142.9708  154.6551 H   0  0  0  0  0  0  0  0  0  0  0  0
  146.6564  143.8407  154.9806 H   0  0  0  0  0  0  0  0  0  0  0  0
  146.2216  142.4405  155.9484 H   0  0  0  0  0  0  0  0  0  0  0  0
  145.8321  142.7044  152.2423 H   0  0  0  0  0  0  0  0  0  0  0  0
  147.4002  142.0410  151.8156 H   0  0  0  0  0  0  0  0  0  0  0  0
  147.3018  143.6076  152.5958 H   0  0  0  0  0  0  0  0  0  0  0  0
  151.1681  140.2940  158.1087 H   0  0  0  0  0  0  0  0  0  0  0  0
  1  2  1  0  0  0  0
  1 23  1  0  0  0  0
  1 24  1  0  0  0  0
  1 25  1  0  0  0  0
  2  3  1  0  0  0  0
  2  4  1  0  0  0  0
  3 26  1  0  0  0  0
  3 27  1  0  0  0  0
  3 28  1  0  0  0  0
  4 22  1  0  0  0  0
  4  5  2  0  0  0  0
  5  6  1  0  0  0  0
  5 29  1  0  0  0  0
  6  7  2  0  0  0  0
  6 30  1  0  0  0  0
  7  8  1  0  0  0  0
  7 21  1  0  0  0  0
  8  9  1  0  0  0  0
  8 31  1  0  0  0  0
  9 10  2  0  0  0  0
  9 11  1  0  0  0  0
 11 12  1  0  0  0  0
 11 32  1  0  0  0  0
 12 18  1  0  0  0  0
 12 13  1  0  0  0  0
 12 33  1  0  0  0  0
 13 17  1  0  0  0  0
 13 14  1  0  0  0  0
 13 34  1  0  0  0  0
 14 15  1  0  0  0  0
 14 35  1  0  0  0  0
 14 36  1  0  0  0  0
 15 16  1  0  0  0  0
 15 37  1  0  0  0  0
 15 38  1  0  0  0  0
 16 17  1  0  0  0  0
 17 18  1  0  0  0  0
 17 39  1  0  0  0  0
 18 19  1  0  0  0  0
 18 20  1  0  0  0  0
 19 40  1  0  0  0  0
 19 41  1  0  0  0  0
 19 42  1  0  0  0  0
 20 43  1  0  0  0  0
 20 44  1  0  0  0  0
 20 45  1  0  0  0  0
 21 22  2  0  0  0  0
 21 46  1  0  0  0  0
M  END
> <s_m_source_file>
AV-unprocessed.smi

> <i_m_source_file_index>
2923

> <i_lp_mmshare_version>
43012

> <i_f3d_flags>
0

> <s_epik_input>
W0NIM11OKFtDSDNdKWMxW2NIXVtjSF1jKFtjSF1uMSlbTkhdQyg9TylbTkhdW0NASF0yQyhbQ0gzXSkoW0NIM10pW0NAQEhdKFtDQEhdMjMpT1tDSDJdW0NIMl0z

> <s_epik_cmdline>
J2VwaWtfcHl0aG9uJywgJy1waCcsICc3LjAnLCAnLXRuJywgJzgnLCAnLW1hJywgJzIwMCcsICctbWV0YWxfYmluZGluZycsICctaW1hZScsICc8aW5maWxlLm1hZT4nLCAnLW9tYWUnLCAnPG91dGZpbGUubWFlPic=

> <r_lp_tautomer_probability>
1

> <r_epik_Ionization_Penalty>
0.628785

> <r_epik_Ionization_Penalty_Charging>
0

> <r_epik_Ionization_Penalty_Neutral>
0.628785

> <r_epik_State_Penalty>
0.644286

> <r_epik_Charging_Adjusted_Penalty>
0.644286

> <i_epik_Tot_Q>
0

> <i_epik_Tot_abs_Q>
0

> <r_epik_Metal_State_Penalty>
0.308404

> <b_epik_Metal_Only>
0

> <s_lp_Force_Field>
OPLS_2005

> <r_lp_Energy>
39.1675

> <b_lp_Chiralities_Consistent>
1

> <s_lp_Variant>
AV-unprocessed.smi:2923-14

> <Gold.Version>
5.8.1

> <Gold.Id.Protein>
6NUR|6NUR_protein|mol2

> <Gold.PLP.Fitness>
42.1798

> <Gold.PLP.PLP>
-37.8792

> <Gold.PLP.part.hbond>
-1.9842

> <Gold.PLP.part.metal>
0.0000

> <Gold.PLP.part.buried>
-5.4099

> <Gold.PLP.part.nonpolar>
-30.3968

> <Gold.PLP.part.repulsive>
0.4701

> <Gold.PLP.ligand.clash>
0.0000

> <Gold.PLP.ligand.torsion>
0.7478

> <Gold.PLP.Chemscore.Hbond>
1.8723

> <Gold.PLP.Chemscore.CHOScore>
0.0000

> <Gold.PLP.Chemscore.Metal>
0.0000

> <Gold.Chemscore.Hbonds>
donor molecule, donor type, donor heavy atom, donor atom, acceptor molecule, acceptor atom, score
      L1  H     8    31       P1  8028  0.79
      L1  H    11    32       P1  8028  1.00

> <Gold.PLP.Chemscore.Internal.Correction>
0.1792

> <Gold.Rescore>
     Score         DG    S(hbond)    S(metal)    S(lipo)     H(rot)  DE(clash)    DE(int)     intcor
     15.26     -21.13       1.90        0.00     101.31       1.00       2.46       3.40       ----

> <Gold.Chemscore.Fitness>
15.2617

> <Gold.Chemscore.DG>
-21.1270

> <Gold.Chemscore.ZeroCoef>
-5.4800

> <Gold.Chemscore.Hbond>
1.9023

> <Gold.Chemscore.Metal>
0.0000

> <Gold.Chemscore.Lipo>
101.3101

> <Gold.Chemscore.Internal_Hbond>
0.0000

> <Gold.Chemscore.DEClash>
2.4633

> <Gold.Chemscore.DEInternal>
3.4020

> <Gold.Chemscore.Rot>
1.0000

> <Gold.Chemscore.Internal.Correction>
   9.000000E+99

> <Gold.Chemscore.Hbonds>
donor molecule, donor type, donor heavy atom, donor atom, acceptor molecule, acceptor atom, score
      L1  H     8    31       P1  8028  0.74
      L1  H    11    32       P1  8028  0.95

> <Gold.Chemscore.Hbond.Weighted>
-6.3537

> <Gold.Chemscore.Metal.Weighted>
-0.0000

> <Gold.Chemscore.Lipo.Weighted>
-11.8533

> <Gold.Chemscore.Internal_Hbond.Weighted>
0.0000

> <Gold.Chemscore.DEClash.Weighted>
2.4633

> <Gold.Chemscore.DEInternal.Weighted>
3.4020

> <Gold.Chemscore.Rot.Weighted>
2.5600

> <Gold.Chemscore.Internal.Correction.Weighted>
   9.000000E+99

> <Gold.Protein.RotatedTorsions>
[ 6907 6896 6895 6894 ] final  115.91 input  -60.11 | X-H torsion
[ 7974 7965 7964 7962 ] final  -30.01 input  175.53 | X-H torsion
[ 8008 7997 7996 7995 ] final -109.01 input   59.86 | X-H torsion
[ 10167 10162 10161 10158 ] final  -76.53 input  -65.29 | X-H torsion
[ 10718 10713 10712 10709 ] final   22.65 input   66.30 | X-H torsion
[ 10763 10752 10751 10750 ] final  -61.38 input  -60.55 | X-H torsion
[ 11005 11000 10999 10996 ] final  -14.27 input  -57.11 | X-H torsion

> <Gold.Protein.ActiveResidues>
 VAL166  LYS551  ARG553  GLY616  TRP617  ASP618  TYR619  PRO620  LYS621  CYS622 
 ASP623  PHE694  ASN695  SER759  ASP760  ASP761  ALA762  ILE779  LEU786  VAL792 
 PHE793  MET794  SER795  GLU796  ALA797  LYS798  CYS799  TRP800  GLU811  SER814 

> <Gold.Protein.RotatedAtoms>
  152.4712  133.8033  159.6964 H   0  0  0  0  0  0  0  0  0  0  0  0  # atno 6907 bound_to 6896
  150.8702  133.7507  159.2970 H   0  0  0  0  0  0  0  0  0  0  0  0  # atno 6908 bound_to 6896
  151.5044  135.1066  159.9889 H   0  0  0  0  0  0  0  0  0  0  0  0  # atno 6909 bound_to 6896
  146.1175  140.5485  142.8750 H   0  0  0  0  0  0  0  0  0  0  0  0  # atno 7974 bound_to 7965
  154.9529  140.0400  157.2153 H   0  0  0  0  0  0  0  0  0  0  0  0  # atno 8008 bound_to 7997
  154.7961  140.2844  155.5933 H   0  0  0  0  0  0  0  0  0  0  0  0  # atno 8009 bound_to 7997
  156.2956  140.2564  156.2819 H   0  0  0  0  0  0  0  0  0  0  0  0  # atno 8010 bound_to 7997
  140.4849  143.2393  151.7999 H   0  0  0  0  0  0  0  0  0  0  0  0  # atno 10167 bound_to 10162
  157.1552  130.6692  149.6025 H   0  0  0  0  0  0  0  0  0  0  0  0  # atno 10718 bound_to 10713
  154.2837  135.6267  153.5357 H   0  0  0  0  0  0  0  0  0  0  0  0  # atno 10763 bound_to 10752
  152.9862  135.5639  154.5467 H   0  0  0  0  0  0  0  0  0  0  0  0  # atno 10764 bound_to 10752
  154.5063  135.2874  155.1355 H   0  0  0  0  0  0  0  0  0  0  0  0  # atno 10765 bound_to 10752
  140.7847  133.8335  155.9324 H   0  0  0  0  0  0  0  0  0  0  0  0  # atno 11005 bound_to 11000
  144.7566  140.5322  143.6765 LP  0  0  0  0  0  0  0  0  0  0  0  0  # atno 17320 bound_to 7965
  145.5537  139.1477  143.3380 LP  0  0  0  0  0  0  0  0  0  0  0  0  # atno 17321 bound_to 7965
  139.4840  144.4725  151.9408 LP  0  0  0  0  0  0  0  0  0  0  0  0  # atno 17342 bound_to 10162
  140.3811  144.2735  150.5908 LP  0  0  0  0  0  0  0  0  0  0  0  0  # atno 17343 bound_to 10162
  155.9763  130.4730  150.6521 LP  0  0  0  0  0  0  0  0  0  0  0  0  # atno 17370 bound_to 10713
  157.4183  131.0833  151.1155 LP  0  0  0  0  0  0  0  0  0  0  0  0  # atno 17371 bound_to 10713
  140.9448  134.1855  157.4771 LP  0  0  0  0  0  0  0  0  0  0  0  0  # atno 17394 bound_to 11000
  139.8738  134.9886  156.5419 LP  0  0  0  0  0  0  0  0  0  0  0  0  # atno 17395 bound_to 11000

$$$$
