AV-unprocessed.smi:261|AV-procd|sdf|1991|dock8
  -GOLD-   2262021173D 1   1.00000     0.00000
 Structure written by MMmdl.
 51 54  0  0  0  0  0  0  0  0  1 V2000
  152.3782  144.8953  159.2539 C   0  0  0  0  0  0  0  0  0  0  0  0
  152.1166  144.3424  157.9745 O   0  0  0  0  0  0  0  0  0  0  0  0
  151.3145  143.1709  158.0150 C   0  0  1  0  0  0  0  0  0  0  0  0
  150.7155  142.7967  156.6602 C   0  0  0  0  0  0  0  0  0  0  0  0
  150.4629  141.2854  156.7767 C   0  0  1  0  0  0  0  0  0  0  0  0
  150.4503  140.6240  155.3843 C   0  0  0  0  0  0  0  0  0  0  0  0
  149.3860  140.8021  154.5948 N   0  0  0  0  0  0  0  0  0  0  0  0
  151.4139  139.9527  155.0222 O   0  0  0  0  0  0  0  0  0  0  0  0
  151.5269  140.8224  157.6786 N   0  0  0  0  0  0  0  0  0  0  0  0
  151.4850  139.6106  158.2980 C   0  0  0  0  0  0  0  0  0  0  0  0
  152.6106  139.1231  158.8850 N   0  0  0  0  0  0  0  0  0  0  0  0
  152.5968  137.9417  159.5082 C   0  0  0  0  0  0  0  0  0  0  0  0
  151.5790  137.0949  159.6671 N   0  0  0  0  0  0  0  0  0  0  0  0
  150.4431  137.5772  159.0883 C   0  0  0  0  0  0  0  0  0  0  0  0
  150.3068  138.8121  158.3913 C   0  0  0  0  0  0  0  0  0  0  0  0
  148.9926  138.9608  157.9595 N   0  0  0  0  0  0  0  0  0  0  0  0
  148.3936  137.8747  158.3652 C   0  0  0  0  0  0  0  0  0  0  0  0
  149.1911  136.9906  159.0543 N   0  0  0  0  0  0  0  0  0  0  0  0
  148.7920  135.7186  159.6312 C   0  0  0  0  0  0  0  0  0  0  0  0
  147.8830  135.8873  160.8648 C   0  0  2  0  0  0  0  0  0  0  0  0
  148.5360  136.7117  161.8118 O   0  0  0  0  0  0  0  0  0  0  0  0
  147.5420  134.5396  161.5274 C   0  0  1  0  0  0  0  0  0  0  0  0
  146.4808  134.6237  162.6250 C   0  0  0  0  0  0  0  0  0  0  0  0
  145.9706  133.2013  162.6654 C   0  0  0  0  0  0  0  0  0  0  0  0
  145.9940  132.8131  161.1893 C   0  0  0  0  0  0  0  0  0  0  0  0
  146.9770  133.6430  160.5740 O   0  0  0  0  0  0  0  0  0  0  0  0
  152.1633  141.9465  158.3562 C   0  0  0  0  0  0  0  0  0  0  0  0
  150.5198  143.2677  158.7575 H   0  0  0  0  0  0  0  0  0  0  0  0
  149.4938  141.1298  157.2538 H   0  0  0  0  0  0  0  0  0  0  0  0
  153.0157  145.7730  159.1470 H   0  0  0  0  0  0  0  0  0  0  0  0
  152.8969  144.1807  159.8939 H   0  0  0  0  0  0  0  0  0  0  0  0
  151.4599  145.2088  159.7511 H   0  0  0  0  0  0  0  0  0  0  0  0
  149.8055  143.3542  156.4362 H   0  0  0  0  0  0  0  0  0  0  0  0
  151.4400  143.0090  155.8713 H   0  0  0  0  0  0  0  0  0  0  0  0
  149.3611  140.3727  153.6814 H   0  0  0  0  0  0  0  0  0  0  0  0
  148.6104  141.3625  154.9170 H   0  0  0  0  0  0  0  0  0  0  0  0
  153.5357  137.6321  159.9432 H   0  0  0  0  0  0  0  0  0  0  0  0
  147.3464  137.6897  158.1744 H   0  0  0  0  0  0  0  0  0  0  0  0
  148.2780  135.1482  158.8568 H   0  0  0  0  0  0  0  0  0  0  0  0
  149.6883  135.1530  159.8897 H   0  0  0  0  0  0  0  0  0  0  0  0
  146.9584  136.3837  160.5671 H   0  0  0  0  0  0  0  0  0  0  0  0
  149.0905  136.1683  162.3505 H   0  0  0  0  0  0  0  0  0  0  0  0
  148.4431  134.0742  161.9310 H   0  0  0  0  0  0  0  0  0  0  0  0
  146.8816  134.9595  163.5817 H   0  0  0  0  0  0  0  0  0  0  0  0
  145.6766  135.3008  162.3331 H   0  0  0  0  0  0  0  0  0  0  0  0
  146.6617  132.5736  163.2295 H   0  0  0  0  0  0  0  0  0  0  0  0
  144.9814  133.1109  163.1149 H   0  0  0  0  0  0  0  0  0  0  0  0
  146.2229  131.7566  161.0476 H   0  0  0  0  0  0  0  0  0  0  0  0
  145.0298  133.0157  160.7224 H   0  0  0  0  0  0  0  0  0  0  0  0
  153.1757  142.0535  157.9643 H   0  0  0  0  0  0  0  0  0  0  0  0
  152.2297  141.8167  159.4374 H   0  0  0  0  0  0  0  0  0  0  0  0
  1  2  1  0  0  0  0
  1 30  1  0  0  0  0
  1 31  1  0  0  0  0
  1 32  1  0  0  0  0
  2  3  1  0  0  0  0
  3 28  1  0  0  0  0
  3 27  1  0  0  0  0
  3  4  1  0  0  0  0
  4  5  1  0  0  0  0
  4 33  1  0  0  0  0
  4 34  1  0  0  0  0
  5 29  1  0  0  0  0
  5  6  1  0  0  0  0
  5  9  1  0  0  0  0
  6  7  1  0  0  0  0
  6  8  2  0  0  0  0
  7 35  1  0  0  0  0
  7 36  1  0  0  0  0
  9 10  1  0  0  0  0
  9 27  1  0  0  0  0
 10 15  1  0  0  0  0
 10 11  2  0  0  0  0
 11 12  1  0  0  0  0
 12 13  2  0  0  0  0
 12 37  1  0  0  0  0
 13 14  1  0  0  0  0
 14 18  1  0  0  0  0
 14 15  2  0  0  0  0
 15 16  1  0  0  0  0
 16 17  2  0  0  0  0
 17 18  1  0  0  0  0
 17 38  1  0  0  0  0
 18 19  1  0  0  0  0
 19 20  1  0  0  0  0
 19 39  1  0  0  0  0
 19 40  1  0  0  0  0
 20 21  1  0  0  0  0
 20 22  1  0  0  0  0
 20 41  1  0  0  0  0
 21 42  1  0  0  0  0
 22 26  1  0  0  0  0
 22 23  1  0  0  0  0
 22 43  1  0  0  0  0
 23 24  1  0  0  0  0
 23 44  1  0  0  0  0
 23 45  1  0  0  0  0
 24 25  1  0  0  0  0
 24 46  1  0  0  0  0
 24 47  1  0  0  0  0
 25 26  1  0  0  0  0
 25 48  1  0  0  0  0
 25 49  1  0  0  0  0
 27 50  1  0  0  0  0
 27 51  1  0  0  0  0
M  END
> <s_m_source_file>
AV-unprocessed.smi

> <i_m_source_file_index>
261

> <i_lp_mmshare_version>
43012

> <i_f3d_flags>
0

> <s_epik_input>
W0NIM11PW0NASF0xW0NIMl1bQ0BASF0oQyg9TylbTkgyXSlOKFtDSDJdMSljKG5bY0hdbjIpYyhjMjMpbltjSF1uM1tDSDJdW0NASF0oW09IXSlbQ0BASF00W0NIMl1bQ0gyXVtDSDJdTzQ=

> <s_epik_cmdline>
J2VwaWtfcHl0aG9uJywgJy1waCcsICc3LjAnLCAnLXRuJywgJzgnLCAnLW1hJywgJzIwMCcsICctbWV0YWxfYmluZGluZycsICctaW1hZScsICc8aW5maWxlLm1hZT4nLCAnLW9tYWUnLCAnPG91dGZpbGUubWFlPic=

> <r_lp_tautomer_probability>
1

> <r_epik_Ionization_Penalty>
0.000713824

> <r_epik_Ionization_Penalty_Charging>
0

> <r_epik_Ionization_Penalty_Neutral>
0.000713824

> <r_epik_State_Penalty>
0.000402132

> <r_epik_Charging_Adjusted_Penalty>
0.000402132

> <i_epik_Tot_Q>
0

> <i_epik_Tot_abs_Q>
0

> <r_epik_Metal_State_Penalty>
-0

> <b_epik_Metal_Only>
0

> <s_lp_Force_Field>
OPLS_2005

> <r_lp_Energy>
46.441

> <b_lp_Chiralities_Consistent>
1

> <s_lp_Variant>
AV-unprocessed.smi:261-9

> <Gold.Version>
5.8.1

> <Gold.Id.Protein>
6NUR|6NUR_protein|mol2

> <Gold.PLP.Fitness>
50.7776

> <Gold.PLP.PLP>
-43.5459

> <Gold.PLP.part.hbond>
-3.0000

> <Gold.PLP.part.metal>
0.0000

> <Gold.PLP.part.buried>
-5.9996

> <Gold.PLP.part.nonpolar>
-33.8013

> <Gold.PLP.part.repulsive>
0.2831

> <Gold.PLP.ligand.clash>
0.0000

> <Gold.PLP.ligand.torsion>
1.0972

> <Gold.PLP.Chemscore.Hbond>
3.0000

> <Gold.PLP.Chemscore.CHOScore>
0.0000

> <Gold.PLP.Chemscore.Metal>
0.0000

> <Gold.Chemscore.Hbonds>
donor molecule, donor type, donor heavy atom, donor atom, acceptor molecule, acceptor atom, score
      P1  H  6896  6908       L1    13  1.00
      P1  H  6931  6943       L1    21  1.00
      P1  H  7989  7998       L1     8  0.70

> <Gold.PLP.Chemscore.Internal.Correction>
0.4262

> <Gold.Rescore>
     Score         DG    S(hbond)    S(metal)    S(lipo)     H(rot)  DE(clash)    DE(int)     intcor
     13.00     -16.88       2.82        0.00      86.58       3.18       1.79       2.08       ----

> <Gold.Chemscore.Fitness>
13.0032

> <Gold.Chemscore.DG>
-16.8783

> <Gold.Chemscore.ZeroCoef>
-5.4800

> <Gold.Chemscore.Hbond>
2.8196

> <Gold.Chemscore.Metal>
0.0000

> <Gold.Chemscore.Lipo>
86.5765

> <Gold.Chemscore.Internal_Hbond>
0.0000

> <Gold.Chemscore.DEClash>
1.7912

> <Gold.Chemscore.DEInternal>
2.0839

> <Gold.Chemscore.Rot>
3.1831

> <Gold.Chemscore.Internal.Correction>
   9.000000E+99

> <Gold.Chemscore.Hbonds>
donor molecule, donor type, donor heavy atom, donor atom, acceptor molecule, acceptor atom, score
      P1  H  6896  6908       L1    13  0.59
      P1  H  6931  6943       L1    21  0.65
      P1  H  7989  7998       L1     8  0.07

> <Gold.Chemscore.Hbond.Weighted>
-9.4175

> <Gold.Chemscore.Metal.Weighted>
-0.0000

> <Gold.Chemscore.Lipo.Weighted>
-10.1294

> <Gold.Chemscore.Internal_Hbond.Weighted>
0.0000

> <Gold.Chemscore.DEClash.Weighted>
1.7912

> <Gold.Chemscore.DEInternal.Weighted>
2.0839

> <Gold.Chemscore.Rot.Weighted>
8.1486

> <Gold.Chemscore.Internal.Correction.Weighted>
   9.000000E+99

> <Gold.Protein.RotatedTorsions>
[ 6907 6896 6895 6894 ] final -135.79 input  -60.11 | X-H torsion
[ 7974 7965 7964 7962 ] final  -29.64 input  175.53 | X-H torsion
[ 8008 7997 7996 7995 ] final  -67.01 input   59.86 | X-H torsion
[ 10167 10162 10161 10158 ] final  -97.43 input  -65.29 | X-H torsion
[ 10718 10713 10712 10709 ] final  -20.42 input   66.30 | X-H torsion
[ 10763 10752 10751 10750 ] final  -48.80 input  -60.55 | X-H torsion
[ 11005 11000 10999 10996 ] final  -35.92 input  -57.11 | X-H torsion

> <Gold.Protein.ActiveResidues>
 VAL166  LYS551  ARG553  GLY616  TRP617  ASP618  TYR619  PRO620  LYS621  CYS622 
 ASP623  PHE694  ASN695  SER759  ASP760  ASP761  ALA762  ILE779  LEU786  VAL792 
 PHE793  MET794  SER795  GLU796  ALA797  LYS798  CYS799  TRP800  GLU811  SER814 

> <Gold.Protein.RotatedAtoms>
  151.0022  133.6045  159.2693 H   0  0  0  0  0  0  0  0  0  0  0  0  # atno 6907 bound_to 6896
  151.3227  135.0821  159.9321 H   0  0  0  0  0  0  0  0  0  0  0  0  # atno 6908 bound_to 6896
  152.5277  133.9666  159.7796 H   0  0  0  0  0  0  0  0  0  0  0  0  # atno 6909 bound_to 6896
  146.1201  140.5438  142.8739 H   0  0  0  0  0  0  0  0  0  0  0  0  # atno 7974 bound_to 7965
  154.4772  140.0901  156.7290 H   0  0  0  0  0  0  0  0  0  0  0  0  # atno 8008 bound_to 7997
  155.4566  140.3459  155.4289 H   0  0  0  0  0  0  0  0  0  0  0  0  # atno 8009 bound_to 7997
  156.1135  140.1454  156.9294 H   0  0  0  0  0  0  0  0  0  0  0  0  # atno 8010 bound_to 7997
  140.2835  143.3267  152.0417 H   0  0  0  0  0  0  0  0  0  0  0  0  # atno 10167 bound_to 10162
  156.5322  130.4658  149.6541 H   0  0  0  0  0  0  0  0  0  0  0  0  # atno 10718 bound_to 10713
  154.0836  135.6587  153.4841 H   0  0  0  0  0  0  0  0  0  0  0  0  # atno 10763 bound_to 10752
  153.0347  135.5186  154.7449 H   0  0  0  0  0  0  0  0  0  0  0  0  # atno 10764 bound_to 10752
  154.6552  135.3007  154.9905 H   0  0  0  0  0  0  0  0  0  0  0  0  # atno 10765 bound_to 10752
  140.9834  133.7044  156.1723 H   0  0  0  0  0  0  0  0  0  0  0  0  # atno 11005 bound_to 11000
  144.7589  140.5375  143.6749 LP  0  0  0  0  0  0  0  0  0  0  0  0  # atno 17320 bound_to 7965
  145.5483  139.1476  143.3408 LP  0  0  0  0  0  0  0  0  0  0  0  0  # atno 17321 bound_to 7965
  139.4956  144.6575  151.6539 LP  0  0  0  0  0  0  0  0  0  0  0  0  # atno 17342 bound_to 10162
  140.5792  143.9976  150.6258 LP  0  0  0  0  0  0  0  0  0  0  0  0  # atno 17343 bound_to 10162
  156.3049  130.7197  151.2077 LP  0  0  0  0  0  0  0  0  0  0  0  0  # atno 17370 bound_to 10713
  157.7420  131.0496  150.5058 LP  0  0  0  0  0  0  0  0  0  0  0  0  # atno 17371 bound_to 10713
  140.7152  134.4418  157.5579 LP  0  0  0  0  0  0  0  0  0  0  0  0  # atno 17394 bound_to 11000
  139.8960  134.8670  156.2108 LP  0  0  0  0  0  0  0  0  0  0  0  0  # atno 17395 bound_to 11000

$$$$
