AV-unprocessed.smi:855|AV-procd|sdf|3958|dock10
  -GOLD-   22720 1433D 1   1.00000     0.00000
 Structure written by MMmdl.
 35 36  0  0  0  0  0  0  0  0  3 V2000
  153.3205  141.0853  160.3695 C   0  0  0  0  0  0  0  0  0  0  0  0
  152.6303  140.6381  159.1269 C   0  0  0  0  0  0  0  0  0  0  0  0
  151.4348  140.9711  158.5550 C   0  0  0  0  0  0  0  0  0  0  0  0
  151.4037  140.1672  157.3842 C   0  0  0  0  0  0  0  0  0  0  0  0
  150.2946  140.2206  156.4988 N   0  0  0  0  0  0  0  0  0  0  0  0
  150.2607  139.9791  155.1754 C   0  0  0  0  0  0  0  0  0  0  0  0
  151.2949  139.6754  154.5690 O   0  0  0  0  0  0  0  0  0  0  0  0
  149.0076  140.1122  154.6605 N   0  5  0  0  0  0  0  0  0  0  0  0
  147.9736  140.9872  155.2152 C   0  0  0  0  0  0  0  0  0  0  0  0
  146.5882  140.5530  154.6958 C   0  0  0  0  0  0  0  0  0  0  0  0
  145.6888  141.7043  154.4140 N   0  3  0  0  0  0  0  0  0  0  0  0
  145.0024  142.2553  155.6073 C   0  0  0  0  0  0  0  0  0  0  0  0
  145.0095  143.7834  155.4654 C   0  0  0  0  0  0  0  0  0  0  0  0
  145.3969  144.0357  154.0125 C   0  0  0  0  0  0  0  0  0  0  0  0
  146.2942  142.8464  153.6895 C   0  0  0  0  0  0  0  0  0  0  0  0
  152.4850  139.4129  157.2538 N   0  0  0  0  0  0  0  0  0  0  0  0
  153.2763  139.7110  158.3693 O   0  0  0  0  0  0  0  0  0  0  0  0
  152.6713  141.7254  160.9672 H   0  0  0  0  0  0  0  0  0  0  0  0
  154.2223  141.6480  160.1284 H   0  0  0  0  0  0  0  0  0  0  0  0
  153.6075  140.2301  160.9813 H   0  0  0  0  0  0  0  0  0  0  0  0
  150.7013  141.6756  158.9179 H   0  0  0  0  0  0  0  0  0  0  0  0
  149.4127  140.4683  156.9217 H   0  0  0  0  0  0  0  0  0  0  0  0
  147.9639  140.9571  156.3051 H   0  0  0  0  0  0  0  0  0  0  0  0
  148.1384  142.0317  154.9473 H   0  0  0  0  0  0  0  0  0  0  0  0
  146.7389  139.9861  153.7755 H   0  0  0  0  0  0  0  0  0  0  0  0
  146.1111  139.8684  155.3977 H   0  0  0  0  0  0  0  0  0  0  0  0
  143.9844  141.8654  155.6355 H   0  0  0  0  0  0  0  0  0  0  0  0
  145.4954  141.9622  156.5355 H   0  0  0  0  0  0  0  0  0  0  0  0
  144.0524  144.2350  155.7283 H   0  0  0  0  0  0  0  0  0  0  0  0
  145.7684  144.2082  156.1238 H   0  0  0  0  0  0  0  0  0  0  0  0
  144.5079  144.0129  153.3809 H   0  0  0  0  0  0  0  0  0  0  0  0
  145.8931  144.9953  153.8647 H   0  0  0  0  0  0  0  0  0  0  0  0
  147.3006  143.0354  154.0667 H   0  0  0  0  0  0  0  0  0  0  0  0
  146.3635  142.6597  152.6174 H   0  0  0  0  0  0  0  0  0  0  0  0
  144.9550  141.3425  153.8204 H   0  0  0  0  0  0  0  0  0  0  0  0
  1  2  1  0  0  0  0
  1 18  1  0  0  0  0
  1 19  1  0  0  0  0
  1 20  1  0  0  0  0
  2 17  1  0  0  0  0
  2  3  2  0  0  0  0
  3  4  1  0  0  0  0
  3 21  1  0  0  0  0
  4  5  1  0  0  0  0
  4 16  2  0  0  0  0
  5  6  1  0  0  0  0
  5 22  1  0  0  0  0
  6  7  2  0  0  0  0
  6  8  1  0  0  0  0
  8  9  1  0  0  0  0
  9 10  1  0  0  0  0
  9 23  1  0  0  0  0
  9 24  1  0  0  0  0
 10 11  1  0  0  0  0
 10 25  1  0  0  0  0
 10 26  1  0  0  0  0
 11 15  1  0  0  0  0
 11 12  1  0  0  0  0
 11 35  1  0  0  0  0
 12 13  1  0  0  0  0
 12 27  1  0  0  0  0
 12 28  1  0  0  0  0
 13 14  1  0  0  0  0
 13 29  1  0  0  0  0
 13 30  1  0  0  0  0
 14 15  1  0  0  0  0
 14 31  1  0  0  0  0
 14 32  1  0  0  0  0
 15 33  1  0  0  0  0
 15 34  1  0  0  0  0
 16 17  1  0  0  0  0
M  CHG  1   8  -1
M  CHG  1  11   1
M  END
> <s_m_source_file>
AV-unprocessed.smi

> <i_m_source_file_index>
855

> <i_lp_mmshare_version>
43012

> <i_f3d_flags>
0

> <s_epik_input>
W0NIM11jMVtjSF1jKG5vMSlbTkhdQyg9TylbTkhdW0NIMl1bQ0gyXU4yW0NIMl1bQ0gyXVtDSDJdW0NIMl0y

> <s_epik_cmdline>
J2VwaWtfcHl0aG9uJywgJy1waCcsICc3LjAnLCAnLXRuJywgJzgnLCAnLW1hJywgJzIwMCcsICctbWV0YWxfYmluZGluZycsICctaW1hZScsICc8aW5maWxlLm1hZT4nLCAnLW9tYWUnLCAnPG91dGZpbGUubWFlPic=

> <r_epik_Ionization_Penalty>
6.76467

> <r_epik_Ionization_Penalty_Charging>
6.76466

> <r_epik_Ionization_Penalty_Neutral>
5.76722e-06

> <r_epik_State_Penalty>
6.79042

> <r_epik_Charging_Adjusted_Penalty>
13.5551

> <i_epik_Tot_Q>
0

> <i_epik_Tot_abs_Q>
2

> <r_epik_Metal_State_Penalty>
2.72416

> <b_epik_Metal_Only>
1

> <s_lp_Force_Field>
OPLS_2005

> <r_lp_Energy>
21.5232

> <b_lp_Chiralities_Consistent>
1

> <s_lp_Variant>
AV-unprocessed.smi:855-3

> <Gold.Version>
5.8.1

> <Gold.Id.Protein>
6NUR|6NUR_protein|mol2

> <Gold.PLP.Fitness>
37.3191

> <Gold.PLP.PLP>
-28.2243

> <Gold.PLP.part.hbond>
-4.0000

> <Gold.PLP.part.metal>
0.0000

> <Gold.PLP.part.buried>
-5.5017

> <Gold.PLP.part.nonpolar>
-19.3034

> <Gold.PLP.part.repulsive>
0.2256

> <Gold.PLP.ligand.clash>
0.0000

> <Gold.PLP.ligand.torsion>
0.8843

> <Gold.PLP.Chemscore.Hbond>
3.6000

> <Gold.PLP.Chemscore.CHOScore>
0.0000

> <Gold.PLP.Chemscore.Metal>
0.0000

> <Gold.Chemscore.Hbonds>
donor molecule, donor type, donor heavy atom, donor atom, acceptor molecule, acceptor atom, score
      L1  H    11    35       P1 10175  2.00
      P1  H  7989  7998       L1     7  1.00
      P1  H  7997  8008       L1    17  0.60

> <Gold.PLP.Chemscore.Internal.Correction>
0.0634

> <Gold.Rescore>
     Score         DG    S(hbond)    S(metal)    S(lipo)     H(rot)  DE(clash)    DE(int)     intcor
     11.75     -13.84       1.91        0.00      51.22       1.57       0.04       2.05       ----

> <Gold.Chemscore.Fitness>
11.7491

> <Gold.Chemscore.DG>
-13.8396

> <Gold.Chemscore.ZeroCoef>
-5.4800

> <Gold.Chemscore.Hbond>
1.9145

> <Gold.Chemscore.Metal>
0.0000

> <Gold.Chemscore.Lipo>
51.2155

> <Gold.Chemscore.Internal_Hbond>
0.0000

> <Gold.Chemscore.DEClash>
0.0449

> <Gold.Chemscore.DEInternal>
2.0457

> <Gold.Chemscore.Rot>
1.5731

> <Gold.Chemscore.Internal.Correction>
   9.000000E+99

> <Gold.Chemscore.Hbonds>
donor molecule, donor type, donor heavy atom, donor atom, acceptor molecule, acceptor atom, score
      L1  H    11    35       P1 10175  0.37
      P1  H  7989  7998       L1     7  0.70
      P1  H  7997  8008       L1    17  0.06

> <Gold.Chemscore.Hbond.Weighted>
-6.3945

> <Gold.Chemscore.Metal.Weighted>
-0.0000

> <Gold.Chemscore.Lipo.Weighted>
-5.9922

> <Gold.Chemscore.Internal_Hbond.Weighted>
0.0000

> <Gold.Chemscore.DEClash.Weighted>
0.0449

> <Gold.Chemscore.DEInternal.Weighted>
2.0457

> <Gold.Chemscore.Rot.Weighted>
4.0271

> <Gold.Chemscore.Internal.Correction.Weighted>
   9.000000E+99

> <Gold.Protein.RotatedTorsions>
[ 6907 6896 6895 6894 ] final -176.58 input  -60.11 | X-H torsion
[ 7974 7965 7964 7962 ] final  175.61 input  175.53 | X-H torsion
[ 8008 7997 7996 7995 ] final -111.18 input   59.86 | X-H torsion
[ 10167 10162 10161 10158 ] final   60.34 input  -65.29 | X-H torsion
[ 10718 10713 10712 10709 ] final -122.23 input   66.30 | X-H torsion
[ 10763 10752 10751 10750 ] final   40.62 input  -60.55 | X-H torsion
[ 11005 11000 10999 10996 ] final  -68.05 input  -57.11 | X-H torsion

> <Gold.Protein.ActiveResidues>
 VAL166  LYS551  ARG553  GLY616  TRP617  ASP618  TYR619  PRO620  LYS621  CYS622 
 ASP623  PHE694  ASN695  SER759  ASP760  ASP761  ALA762  ILE779  LEU786  VAL792 
 PHE793  MET794  SER795  GLU796  ALA797  LYS798  CYS799  TRP800  GLU811  SER814 

> <Gold.Protein.RotatedAtoms>
  151.6071  133.3350  159.3059 H   0  0  0  0  0  0  0  0  0  0  0  0  # atno 6907 bound_to 6896
  150.8176  134.7370  159.6755 H   0  0  0  0  0  0  0  0  0  0  0  0  # atno 6908 bound_to 6896
  152.4271  134.5853  160.0010 H   0  0  0  0  0  0  0  0  0  0  0  0  # atno 6909 bound_to 6896
  144.7198  139.9973  143.6440 H   0  0  0  0  0  0  0  0  0  0  0  0  # atno 7974 bound_to 7965
  154.9858  140.0395  157.2298 H   0  0  0  0  0  0  0  0  0  0  0  0  # atno 8008 bound_to 7997
  154.7672  140.2795  155.6144 H   0  0  0  0  0  0  0  0  0  0  0  0  # atno 8009 bound_to 7997
  156.2915  140.2617  156.2466 H   0  0  0  0  0  0  0  0  0  0  0  0  # atno 8010 bound_to 7997
  140.1667  144.4317  150.6682 H   0  0  0  0  0  0  0  0  0  0  0  0  # atno 10167 bound_to 10162
  156.1401  130.6459  150.9758 H   0  0  0  0  0  0  0  0  0  0  0  0  # atno 10718 bound_to 10713
  152.9931  135.6186  154.2656 H   0  0  0  0  0  0  0  0  0  0  0  0  # atno 10763 bound_to 10752
  154.2390  135.2789  155.2863 H   0  0  0  0  0  0  0  0  0  0  0  0  # atno 10764 bound_to 10752
  154.5385  135.5768  153.6877 H   0  0  0  0  0  0  0  0  0  0  0  0  # atno 10765 bound_to 10752
  141.1523  133.6732  156.6387 H   0  0  0  0  0  0  0  0  0  0  0  0  # atno 11005 bound_to 11000
  146.0364  139.3381  143.0724 LP  0  0  0  0  0  0  0  0  0  0  0  0  # atno 17320 bound_to 7965
  145.8390  140.9591  143.0809 LP  0  0  0  0  0  0  0  0  0  0  0  0  # atno 17321 bound_to 7965
  140.6608  143.2251  151.5859 LP  0  0  0  0  0  0  0  0  0  0  0  0  # atno 17342 bound_to 10162
  139.5356  144.2790  152.1244 LP  0  0  0  0  0  0  0  0  0  0  0  0  # atno 17343 bound_to 10162
  157.6568  131.0888  150.7929 LP  0  0  0  0  0  0  0  0  0  0  0  0  # atno 17370 bound_to 10713
  156.8005  130.4919  149.5370 LP  0  0  0  0  0  0  0  0  0  0  0  0  # atno 17371 bound_to 10713
  140.3410  134.7849  157.4398 LP  0  0  0  0  0  0  0  0  0  0  0  0  # atno 17394 bound_to 11000
  140.0938  134.5565  155.8418 LP  0  0  0  0  0  0  0  0  0  0  0  0  # atno 17395 bound_to 11000

$$$$
