AV-unprocessed.smi:3230|AV-procd|sdf|12330|dock4
  -GOLD-   2272018183D 1   1.00000     0.00000
 Structure written by MMmdl.
 40 40  0  0  0  0  0  0  0  0  1 V2000
  146.6299  142.8491  153.9345 C   0  0  0  0  0  0  0  0  0  0  0  0
  147.0755  141.3922  153.7396 C   0  0  0  0  0  0  0  0  0  0  0  0
  148.5637  141.1206  154.0775 C   0  0  0  0  0  0  0  0  0  0  0  0
  148.9087  139.6140  153.9505 C   0  0  0  0  0  0  0  0  0  0  0  0
  147.9664  138.6808  154.7257 C   0  0  0  0  0  0  0  0  0  0  0  0
  148.9731  141.7084  155.4579 C   0  0  1  0  0  0  0  0  0  0  0  0
  148.1239  141.1734  156.4555 O   0  0  0  0  0  0  0  0  0  0  0  0
  150.4422  141.4151  155.8411 C   0  0  0  0  0  0  0  0  0  0  0  0
  151.0071  142.4612  156.6867 N   0  0  0  0  0  0  0  0  0  0  0  0
  150.5814  142.7730  157.9208 C   0  0  0  0  0  0  0  0  0  0  0  0
  149.6465  142.2009  158.4808 O   0  0  0  0  0  0  0  0  0  0  0  0
  151.3184  143.9085  158.6317 C   0  0  0  0  0  0  0  0  0  0  0  0
  152.0397  143.3826  159.8431 C   0  0  0  0  0  0  0  0  0  0  0  0
  151.9432  143.8272  161.1910 C   0  0  0  0  0  0  0  0  0  0  0  0
  152.8065  143.0102  161.8640 C   0  0  0  0  0  0  0  0  0  0  0  0
  153.2051  142.9119  163.2965 C   0  0  0  0  0  0  0  0  0  0  0  0
  153.3900  142.1356  161.0049 O   0  0  0  0  0  0  0  0  0  0  0  0
  152.8965  142.3810  159.7188 N   0  0  0  0  0  0  0  0  0  0  0  0
  145.6176  142.9928  153.5566 H   0  0  0  0  0  0  0  0  0  0  0  0
  147.2828  143.5376  153.3976 H   0  0  0  0  0  0  0  0  0  0  0  0
  146.6226  143.1367  154.9852 H   0  0  0  0  0  0  0  0  0  0  0  0
  146.4304  140.7332  154.3214 H   0  0  0  0  0  0  0  0  0  0  0  0
  146.8868  141.1408  152.6970 H   0  0  0  0  0  0  0  0  0  0  0  0
  149.1570  141.6458  153.3275 H   0  0  0  0  0  0  0  0  0  0  0  0
  148.8659  139.3100  152.9054 H   0  0  0  0  0  0  0  0  0  0  0  0
  149.9371  139.4379  154.2684 H   0  0  0  0  0  0  0  0  0  0  0  0
  148.2054  137.6378  154.5173 H   0  0  0  0  0  0  0  0  0  0  0  0
  146.9270  138.8436  154.4399 H   0  0  0  0  0  0  0  0  0  0  0  0
  148.0463  138.8194  155.8031 H   0  0  0  0  0  0  0  0  0  0  0  0
  148.8361  142.7889  155.4382 H   0  0  0  0  0  0  0  0  0  0  0  0
  148.6152  140.5418  156.9589 H   0  0  0  0  0  0  0  0  0  0  0  0
  150.5564  140.4323  156.3025 H   0  0  0  0  0  0  0  0  0  0  0  0
  151.0576  141.3984  154.9412 H   0  0  0  0  0  0  0  0  0  0  0  0
  151.7846  142.9829  156.3078 H   0  0  0  0  0  0  0  0  0  0  0  0
  152.0118  144.3853  157.9372 H   0  0  0  0  0  0  0  0  0  0  0  0
  150.6003  144.6752  158.9245 H   0  0  0  0  0  0  0  0  0  0  0  0
  151.3342  144.6202  161.5988 H   0  0  0  0  0  0  0  0  0  0  0  0
  152.5918  143.5652  163.9174 H   0  0  0  0  0  0  0  0  0  0  0  0
  154.2475  143.2019  163.4278 H   0  0  0  0  0  0  0  0  0  0  0  0
  153.0881  141.8914  163.6617 H   0  0  0  0  0  0  0  0  0  0  0  0
  1  2  1  0  0  0  0
  1 19  1  0  0  0  0
  1 20  1  0  0  0  0
  1 21  1  0  0  0  0
  2  3  1  0  0  0  0
  2 22  1  0  0  0  0
  2 23  1  0  0  0  0
  3  4  1  0  0  0  0
  3  6  1  0  0  0  0
  3 24  1  0  0  0  0
  4  5  1  0  0  0  0
  4 25  1  0  0  0  0
  4 26  1  0  0  0  0
  5 27  1  0  0  0  0
  5 28  1  0  0  0  0
  5 29  1  0  0  0  0
  6  7  1  0  0  0  0
  6  8  1  0  0  0  0
  6 30  1  0  0  0  0
  7 31  1  0  0  0  0
  8  9  1  0  0  0  0
  8 32  1  0  0  0  0
  8 33  1  0  0  0  0
  9 10  1  0  0  0  0
  9 34  1  0  0  0  0
 10 11  2  0  0  0  0
 10 12  1  0  0  0  0
 12 13  1  0  0  0  0
 12 35  1  0  0  0  0
 12 36  1  0  0  0  0
 13 18  2  0  0  0  0
 13 14  1  0  0  0  0
 14 15  2  0  0  0  0
 14 37  1  0  0  0  0
 15 16  1  0  0  0  0
 15 17  1  0  0  0  0
 16 38  1  0  0  0  0
 16 39  1  0  0  0  0
 16 40  1  0  0  0  0
 17 18  1  0  0  0  0
M  END
> <s_m_source_file>
AV-unprocessed.smi

> <i_m_source_file_index>
3230

> <i_lp_mmshare_version>
43012

> <i_f3d_flags>
0

> <s_epik_input>
W0NIM11bQ0gyXVtDSF0oW0NIMl1bQ0gzXSlbQ0BIXShbT0hdKVtDSDJdW05IXUMoPU8pW0NIMl1jMVtjSF1jKFtDSDNdKW9uMQ==

> <s_epik_cmdline>
J2VwaWtfcHl0aG9uJywgJy1waCcsICc3LjAnLCAnLXRuJywgJzgnLCAnLW1hJywgJzIwMCcsICctbWV0YWxfYmluZGluZycsICctaW1hZScsICc8aW5maWxlLm1hZT4nLCAnLW9tYWUnLCAnPG91dGZpbGUubWFlPic=

> <r_lp_tautomer_probability>
1

> <r_epik_Ionization_Penalty>
2.40054e-07

> <r_epik_Ionization_Penalty_Charging>
0

> <r_epik_Ionization_Penalty_Neutral>
2.40054e-07

> <r_epik_State_Penalty>
-0

> <r_epik_Charging_Adjusted_Penalty>
0

> <i_epik_Tot_Q>
0

> <i_epik_Tot_abs_Q>
0

> <r_epik_Metal_State_Penalty>
-0

> <b_epik_Metal_Only>
0

> <s_lp_Force_Field>
OPLS_2005

> <r_lp_Energy>
9.12341

> <b_lp_Chiralities_Consistent>
1

> <s_lp_Variant>
AV-unprocessed.smi:3230-2

> <Gold.Version>
5.8.1

> <Gold.Id.Protein>
6NUR|6NUR_protein|mol2

> <Gold.PLP.Fitness>
38.7987

> <Gold.PLP.PLP>
-39.6577

> <Gold.PLP.part.hbond>
-0.2262

> <Gold.PLP.part.metal>
0.0000

> <Gold.PLP.part.buried>
-5.0874

> <Gold.PLP.part.nonpolar>
-33.7084

> <Gold.PLP.part.repulsive>
0.1536

> <Gold.PLP.ligand.clash>
0.0000

> <Gold.PLP.ligand.torsion>
0.5705

> <Gold.PLP.Chemscore.Hbond>
0.0000

> <Gold.PLP.Chemscore.CHOScore>
0.0000

> <Gold.PLP.Chemscore.Metal>
0.0000

> <Gold.PLP.Chemscore.Internal.Correction>
0.2821

> <Gold.Rescore>
     Score         DG    S(hbond)    S(metal)    S(lipo)     H(rot)  DE(clash)    DE(int)     intcor
      8.48     -10.59       0.00        0.00      99.95       2.57       0.03       2.08       ----

> <Gold.Chemscore.Fitness>
8.4832

> <Gold.Chemscore.DG>
-10.5907

> <Gold.Chemscore.ZeroCoef>
-5.4800

> <Gold.Chemscore.Hbond>
0.0000

> <Gold.Chemscore.Metal>
0.0000

> <Gold.Chemscore.Lipo>
99.9469

> <Gold.Chemscore.Internal_Hbond>
0.0000

> <Gold.Chemscore.DEClash>
0.0299

> <Gold.Chemscore.DEInternal>
2.0776

> <Gold.Chemscore.Rot>
2.5715

> <Gold.Chemscore.Internal.Correction>
   9.000000E+99

> <Gold.Chemscore.Hbond.Weighted>
-0.0000

> <Gold.Chemscore.Metal.Weighted>
-0.0000

> <Gold.Chemscore.Lipo.Weighted>
-11.6938

> <Gold.Chemscore.Internal_Hbond.Weighted>
0.0000

> <Gold.Chemscore.DEClash.Weighted>
0.0299

> <Gold.Chemscore.DEInternal.Weighted>
2.0776

> <Gold.Chemscore.Rot.Weighted>
6.5831

> <Gold.Chemscore.Internal.Correction.Weighted>
   9.000000E+99

> <Gold.Protein.RotatedTorsions>
[ 6907 6896 6895 6894 ] final   69.94 input  -60.11 | X-H torsion
[ 7974 7965 7964 7962 ] final -159.18 input  175.53 | X-H torsion
[ 8008 7997 7996 7995 ] final  121.95 input   59.86 | X-H torsion
[ 10167 10162 10161 10158 ] final -145.77 input  -65.29 | X-H torsion
[ 10718 10713 10712 10709 ] final -120.77 input   66.30 | X-H torsion
[ 10763 10752 10751 10750 ] final  147.06 input  -60.55 | X-H torsion
[ 11005 11000 10999 10996 ] final  -78.19 input  -57.11 | X-H torsion

> <Gold.Protein.ActiveResidues>
 VAL166  LYS551  ARG553  GLY616  TRP617  ASP618  TYR619  PRO620  LYS621  CYS622 
 ASP623  PHE694  ASN695  SER759  ASP760  ASP761  ALA762  ILE779  LEU786  VAL792 
 PHE793  MET794  SER795  GLU796  ALA797  LYS798  CYS799  TRP800  GLU811  SER814 

> <Gold.Protein.RotatedAtoms>
  152.4718  134.4941  159.9704 H   0  0  0  0  0  0  0  0  0  0  0  0  # atno 6907 bound_to 6896
  151.4966  133.3507  159.2870 H   0  0  0  0  0  0  0  0  0  0  0  0  # atno 6908 bound_to 6896
  150.8733  134.8138  159.7232 H   0  0  0  0  0  0  0  0  0  0  0  0  # atno 6909 bound_to 6896
  144.7475  140.3722  143.6073 H   0  0  0  0  0  0  0  0  0  0  0  0  # atno 7974 bound_to 7965
  156.2708  140.2797  156.1390 H   0  0  0  0  0  0  0  0  0  0  0  0  # atno 8008 bound_to 7997
  155.0973  140.0389  157.2704 H   0  0  0  0  0  0  0  0  0  0  0  0  # atno 8009 bound_to 7997
  154.6842  140.2615  155.6883 H   0  0  0  0  0  0  0  0  0  0  0  0  # atno 8010 bound_to 7997
  139.7775  143.8148  152.2634 H   0  0  0  0  0  0  0  0  0  0  0  0  # atno 10167 bound_to 10162
  156.1284  130.6377  150.9581 H   0  0  0  0  0  0  0  0  0  0  0  0  # atno 10718 bound_to 10713
  154.0320  135.2897  155.3367 H   0  0  0  0  0  0  0  0  0  0  0  0  # atno 10763 bound_to 10752
  154.6982  135.5199  153.8491 H   0  0  0  0  0  0  0  0  0  0  0  0  # atno 10764 bound_to 10752
  153.0636  135.6622  154.0532 H   0  0  0  0  0  0  0  0  0  0  0  0  # atno 10765 bound_to 10752
  141.1664  133.7053  156.7934 H   0  0  0  0  0  0  0  0  0  0  0  0  # atno 11005 bound_to 11000
  145.7065  139.1674  143.2563 LP  0  0  0  0  0  0  0  0  0  0  0  0  # atno 17320 bound_to 7965
  146.1377  140.7099  142.9381 LP  0  0  0  0  0  0  0  0  0  0  0  0  # atno 17321 bound_to 7965
  139.8201  144.7299  150.9584 LP  0  0  0  0  0  0  0  0  0  0  0  0  # atno 17342 bound_to 10162
  140.7817  143.4167  151.0906 LP  0  0  0  0  0  0  0  0  0  0  0  0  # atno 17343 bound_to 10162
  157.6464  131.0903  150.8144 LP  0  0  0  0  0  0  0  0  0  0  0  0  # atno 17370 bound_to 10713
  156.8232  130.4991  149.5340 LP  0  0  0  0  0  0  0  0  0  0  0  0  # atno 17371 bound_to 10713
  140.2309  134.8687  157.3475 LP  0  0  0  0  0  0  0  0  0  0  0  0  # atno 17394 bound_to 11000
  140.1892  134.4392  155.7725 LP  0  0  0  0  0  0  0  0  0  0  0  0  # atno 17395 bound_to 11000

$$$$
