AV-unprocessed.smi:1971|AV-procd|sdf|7964|dock8
  -GOLD-   2272010133D 1   1.00000     0.00000
 Structure written by MMmdl.
 44 45  0  0  0  0  0  0  0  0  2 V2000
  151.0088  141.2043  156.0947 C   0  0  0  0  0  0  0  0  0  0  0  0
  149.8386  140.2187  155.9637 C   0  0  0  0  0  0  0  0  0  0  0  0
  149.6528  139.7664  154.5826 N   0  0  0  0  0  0  0  0  0  0  0  0
  150.7871  138.9759  154.0966 C   0  0  0  0  0  0  0  0  0  0  0  0
  150.8498  137.5837  154.7595 C   0  0  0  0  0  0  0  0  0  0  0  0
  149.5866  136.8399  154.5133 N   0  3  0  0  0  0  0  0  0  0  0  0
  149.5736  135.4149  154.9572 C   0  0  2  0  0  0  0  0  0  0  0  0
  148.1736  134.7672  154.8688 C   0  0  0  0  0  0  0  0  0  0  0  0
  150.2059  135.2757  156.3585 C   0  0  0  0  0  0  0  0  0  0  0  0
  149.4683  136.0348  157.3634 N   0  0  0  0  0  0  0  0  0  0  0  0
  148.8756  135.4969  158.4383 C   0  0  0  0  0  0  0  0  0  0  0  0
  148.8805  134.2894  158.6790 O   0  0  0  0  0  0  0  0  0  0  0  0
  148.2881  136.4390  159.1971 N   0  0  0  0  0  0  0  0  0  0  0  0
  147.6126  136.2714  160.4348 C   0  0  0  0  0  0  0  0  0  0  0  0
  147.1359  137.2784  161.1761 N   0  0  0  0  0  0  0  0  0  0  0  0
  146.5112  136.8231  162.3400 C   0  0  0  0  0  0  0  0  0  0  0  0
  146.5211  135.4566  162.4697 C   0  0  0  0  0  0  0  0  0  0  0  0
  147.3181  134.6825  161.1260 S   0  0  0  0  0  0  0  0  0  0  0  0
  148.4243  137.6280  154.9941 C   0  0  0  0  0  0  0  0  0  0  0  0
  148.4125  139.0231  154.3343 C   0  0  0  0  0  0  0  0  0  0  0  0
  151.2104  141.4163  157.1448 H   0  0  0  0  0  0  0  0  0  0  0  0
  150.7991  142.1571  155.6097 H   0  0  0  0  0  0  0  0  0  0  0  0
  151.9220  140.7950  155.6614 H   0  0  0  0  0  0  0  0  0  0  0  0
  150.0640  139.3490  156.5822 H   0  0  0  0  0  0  0  0  0  0  0  0
  148.9287  140.6584  156.3706 H   0  0  0  0  0  0  0  0  0  0  0  0
  150.6956  138.8623  153.0155 H   0  0  0  0  0  0  0  0  0  0  0  0
  151.7161  139.5207  154.2689 H   0  0  0  0  0  0  0  0  0  0  0  0
  151.6950  137.0372  154.3431 H   0  0  0  0  0  0  0  0  0  0  0  0
  151.0390  137.6816  155.8287 H   0  0  0  0  0  0  0  0  0  0  0  0
  150.2260  134.8678  154.2749 H   0  0  0  0  0  0  0  0  0  0  0  0
  148.2240  133.6934  155.0498 H   0  0  0  0  0  0  0  0  0  0  0  0
  147.7277  134.8992  153.8834 H   0  0  0  0  0  0  0  0  0  0  0  0
  147.4877  135.1839  155.6065 H   0  0  0  0  0  0  0  0  0  0  0  0
  150.2222  134.2280  156.6621 H   0  0  0  0  0  0  0  0  0  0  0  0
  151.2423  135.6146  156.3382 H   0  0  0  0  0  0  0  0  0  0  0  0
  149.4126  137.0348  157.2366 H   0  0  0  0  0  0  0  0  0  0  0  0
  148.3432  137.3889  158.8607 H   0  0  0  0  0  0  0  0  0  0  0  0
  146.0850  137.5433  163.0227 H   0  0  0  0  0  0  0  0  0  0  0  0
  146.1086  134.8614  163.2707 H   0  0  0  0  0  0  0  0  0  0  0  0
  147.5009  137.1095  154.7342 H   0  0  0  0  0  0  0  0  0  0  0  0
  148.4371  137.7113  156.0806 H   0  0  0  0  0  0  0  0  0  0  0  0
  147.5486  139.5951  154.6704 H   0  0  0  0  0  0  0  0  0  0  0  0
  148.2922  138.9096  153.2561 H   0  0  0  0  0  0  0  0  0  0  0  0
  149.4803  136.8051  153.5096 H   0  0  0  0  0  0  0  0  0  0  0  0
  1  2  1  0  0  0  0
  1 21  1  0  0  0  0
  1 22  1  0  0  0  0
  1 23  1  0  0  0  0
  2  3  1  0  0  0  0
  2 24  1  0  0  0  0
  2 25  1  0  0  0  0
  3 20  1  0  0  0  0
  3  4  1  0  0  0  0
  4  5  1  0  0  0  0
  4 26  1  0  0  0  0
  4 27  1  0  0  0  0
  5  6  1  0  0  0  0
  5 28  1  0  0  0  0
  5 29  1  0  0  0  0
  6  7  1  0  0  0  0
  6 19  1  0  0  0  0
  6 44  1  0  0  0  0
  7  8  1  0  0  0  0
  7  9  1  0  0  0  0
  7 30  1  0  0  0  0
  8 31  1  0  0  0  0
  8 32  1  0  0  0  0
  8 33  1  0  0  0  0
  9 10  1  0  0  0  0
  9 34  1  0  0  0  0
  9 35  1  0  0  0  0
 10 11  1  0  0  0  0
 10 36  1  0  0  0  0
 11 12  2  0  0  0  0
 11 13  1  0  0  0  0
 13 14  1  0  0  0  0
 13 37  1  0  0  0  0
 14 18  1  0  0  0  0
 14 15  2  0  0  0  0
 15 16  1  0  0  0  0
 16 17  2  0  0  0  0
 16 38  1  0  0  0  0
 17 18  1  0  0  0  0
 17 39  1  0  0  0  0
 19 20  1  0  0  0  0
 19 40  1  0  0  0  0
 19 41  1  0  0  0  0
 20 42  1  0  0  0  0
 20 43  1  0  0  0  0
M  CHG  1   6   1
M  END
> <s_m_source_file>
AV-unprocessed.smi

> <i_m_source_file_index>
1971

> <i_lp_mmshare_version>
43012

> <i_f3d_flags>
0

> <s_epik_input>
W0NIM11bQ0gyXU4xW0NIMl1bQ0gyXU4oW0NIMl1bQ0gyXTEpW0NASF0oW0NIM10pW0NIMl1bTkhdQyg9TylbTkhdYzJuW2NIXVtjSF1zMg==

> <s_epik_cmdline>
J2VwaWtfcHl0aG9uJywgJy1waCcsICc3LjAnLCAnLXRuJywgJzgnLCAnLW1hJywgJzIwMCcsICctbWV0YWxfYmluZGluZycsICctaW1hZScsICc8aW5maWxlLm1hZT4nLCAnLW9tYWUnLCAnPG91dGZpbGUubWFlPic=

> <r_epik_Ionization_Penalty>
0.150098

> <r_epik_Ionization_Penalty_Charging>
0.148467

> <r_epik_Ionization_Penalty_Neutral>
0.00163072

> <r_epik_State_Penalty>
0.974087

> <r_epik_Charging_Adjusted_Penalty>
1.12255

> <i_epik_Tot_Q>
1

> <i_epik_Tot_abs_Q>
1

> <r_epik_Metal_State_Penalty>
1.00741

> <b_epik_Metal_Only>
0

> <s_lp_Force_Field>
OPLS_2005

> <r_lp_Energy>
20.3005

> <b_lp_Chiralities_Consistent>
1

> <s_lp_Variant>
AV-unprocessed.smi:1971-3

> <Gold.Version>
5.8.1

> <Gold.Id.Protein>
6NUR|6NUR_protein|mol2

> <Gold.PLP.Fitness>
44.1946

> <Gold.PLP.PLP>
-30.1933

> <Gold.PLP.part.hbond>
-4.0000

> <Gold.PLP.part.metal>
0.0000

> <Gold.PLP.part.buried>
-2.5269

> <Gold.PLP.part.nonpolar>
-23.2744

> <Gold.PLP.part.repulsive>
0.3613

> <Gold.PLP.ligand.clash>
0.0000

> <Gold.PLP.ligand.torsion>
0.3553

> <Gold.PLP.Chemscore.Hbond>
4.8642

> <Gold.PLP.Chemscore.CHOScore>
0.0000

> <Gold.PLP.Chemscore.Metal>
0.0000

> <Gold.Chemscore.Hbonds>
donor molecule, donor type, donor heavy atom, donor atom, acceptor molecule, acceptor atom, score
      L1  H     6    44       P1  7948  2.00
      P1  H  6896  6908       L1    12  0.95
      P1  H  6931  6943       L1    15  0.35
      P1  H  6934  6947       L1    15  1.00

> <Gold.PLP.Chemscore.Internal.Correction>
0.1194

> <Gold.Rescore>
     Score         DG    S(hbond)    S(metal)    S(lipo)     H(rot)  DE(clash)    DE(int)     intcor
     17.64     -19.56       3.17        0.00      69.24       1.79       0.09       1.83       ----

> <Gold.Chemscore.Fitness>
17.6421

> <Gold.Chemscore.DG>
-19.5627

> <Gold.Chemscore.ZeroCoef>
-5.4800

> <Gold.Chemscore.Hbond>
3.1658

> <Gold.Chemscore.Metal>
0.0000

> <Gold.Chemscore.Lipo>
69.2369

> <Gold.Chemscore.Internal_Hbond>
0.0000

> <Gold.Chemscore.DEClash>
0.0949

> <Gold.Chemscore.DEInternal>
1.8257

> <Gold.Chemscore.Rot>
1.7937

> <Gold.Chemscore.Internal.Correction>
   9.000000E+99

> <Gold.Chemscore.Hbonds>
donor molecule, donor type, donor heavy atom, donor atom, acceptor molecule, acceptor atom, score
      L1  H     6    44       P1  7948  0.85
      P1  H  6896  6908       L1    12  0.22
      P1  H  6931  6943       L1    15  0.06
      P1  H  6934  6947       L1    15  0.92

> <Gold.Chemscore.Hbond.Weighted>
-10.5739

> <Gold.Chemscore.Metal.Weighted>
-0.0000

> <Gold.Chemscore.Lipo.Weighted>
-8.1007

> <Gold.Chemscore.Internal_Hbond.Weighted>
0.0000

> <Gold.Chemscore.DEClash.Weighted>
0.0949

> <Gold.Chemscore.DEInternal.Weighted>
1.8257

> <Gold.Chemscore.Rot.Weighted>
4.5919

> <Gold.Chemscore.Internal.Correction.Weighted>
   9.000000E+99

> <Gold.Protein.RotatedTorsions>
[ 6907 6896 6895 6894 ] final  142.01 input  -60.11 | X-H torsion
[ 7974 7965 7964 7962 ] final -108.26 input  175.53 | X-H torsion
[ 8008 7997 7996 7995 ] final  150.87 input   59.86 | X-H torsion
[ 10167 10162 10161 10158 ] final  108.99 input  -65.29 | X-H torsion
[ 10718 10713 10712 10709 ] final  -50.24 input   66.30 | X-H torsion
[ 10763 10752 10751 10750 ] final   77.88 input  -60.55 | X-H torsion
[ 11005 11000 10999 10996 ] final -168.12 input  -57.11 | X-H torsion

> <Gold.Protein.ActiveResidues>
 VAL166  LYS551  ARG553  GLY616  TRP617  ASP618  TYR619  PRO620  LYS621  CYS622 
 ASP623  PHE694  ASN695  SER759  ASP760  ASP761  ALA762  ILE779  LEU786  VAL792 
 PHE793  MET794  SER795  GLU796  ALA797  LYS798  CYS799  TRP800  GLU811  SER814 

> <Gold.Protein.RotatedAtoms>
  152.2240  133.5005  159.5177 H   0  0  0  0  0  0  0  0  0  0  0  0  # atno 6907 bound_to 6896
  150.7020  134.1305  159.4077 H   0  0  0  0  0  0  0  0  0  0  0  0  # atno 6908 bound_to 6896
  151.9226  135.0291  160.0574 H   0  0  0  0  0  0  0  0  0  0  0  0  # atno 6909 bound_to 6896
  145.1950  140.9031  143.3402 H   0  0  0  0  0  0  0  0  0  0  0  0  # atno 7974 bound_to 7965
  156.2698  140.2063  156.6085 H   0  0  0  0  0  0  0  0  0  0  0  0  # atno 8008 bound_to 7997
  154.6850  140.0536  157.0329 H   0  0  0  0  0  0  0  0  0  0  0  0  # atno 8009 bound_to 7997
  155.0946  140.3200  155.4567 H   0  0  0  0  0  0  0  0  0  0  0  0  # atno 8010 bound_to 7997
  139.6802  144.7119  151.1529 H   0  0  0  0  0  0  0  0  0  0  0  0  # atno 10167 bound_to 10162
  156.1819  130.4150  149.9494 H   0  0  0  0  0  0  0  0  0  0  0  0  # atno 10718 bound_to 10713
  153.0831  135.4898  154.8544 H   0  0  0  0  0  0  0  0  0  0  0  0  # atno 10763 bound_to 10752
  154.7177  135.3033  154.9100 H   0  0  0  0  0  0  0  0  0  0  0  0  # atno 10764 bound_to 10752
  153.9774  135.6794  153.4802 H   0  0  0  0  0  0  0  0  0  0  0  0  # atno 10765 bound_to 10752
  140.5455  134.5480  157.5110 H   0  0  0  0  0  0  0  0  0  0  0  0  # atno 11005 bound_to 11000
  145.0003  139.3604  143.6171 LP  0  0  0  0  0  0  0  0  0  0  0  0  # atno 17320 bound_to 7965
  146.3429  139.9224  142.8765 LP  0  0  0  0  0  0  0  0  0  0  0  0  # atno 17321 bound_to 7965
  140.7649  143.5711  150.8995 LP  0  0  0  0  0  0  0  0  0  0  0  0  # atno 17342 bound_to 10162
  139.9382  143.6413  152.3060 LP  0  0  0  0  0  0  0  0  0  0  0  0  # atno 17343 bound_to 10162
  156.7262  130.9026  151.3622 LP  0  0  0  0  0  0  0  0  0  0  0  0  # atno 17370 bound_to 10713
  157.6874  130.9199  150.0421 LP  0  0  0  0  0  0  0  0  0  0  0  0  # atno 17371 bound_to 10713
  139.9482  134.7664  156.0512 LP  0  0  0  0  0  0  0  0  0  0  0  0  # atno 17394 bound_to 11000
  141.1202  133.6615  156.3196 LP  0  0  0  0  0  0  0  0  0  0  0  0  # atno 17395 bound_to 11000

$$$$
