AV-unprocessed.smi:157|AV-procd|sdf|1296|dock4
  -GOLD-   2262018583D 1   1.00000     0.00000
 Structure written by MMmdl.
 35 37  0  0  0  0  0  0  0  0  1 V2000
  147.8191  142.7933  153.9003 O   0  0  0  0  0  0  0  0  0  0  0  0
  147.2083  141.9528  154.8565 C   0  0  0  0  0  0  0  0  0  0  0  0
  148.2452  140.9972  155.4725 C   0  0  2  0  0  0  0  0  0  0  0  0
  149.2305  141.7203  156.2104 O   0  0  0  0  0  0  0  0  0  0  0  0
  150.4920  141.1590  156.0040 C   0  0  1  0  0  0  0  0  0  0  0  0
  151.1732  140.9738  157.3258 N   0  0  0  0  0  0  0  0  0  0  0  0
  151.5358  139.7924  157.8399 C   0  0  0  0  0  0  0  0  0  0  0  0
  152.1200  139.8612  159.0236 N   0  0  0  0  0  0  0  0  0  0  0  0
  152.1498  141.2258  159.3049 C   0  0  0  0  0  0  0  0  0  0  0  0
  151.5723  141.9372  158.2621 C   0  0  0  0  0  0  0  0  0  0  0  0
  151.3218  143.2696  157.9941 N   0  0  0  0  0  0  0  0  0  0  0  0
  152.0029  144.1601  158.6433 C   0  0  0  0  0  0  0  0  0  0  0  0
  152.9133  144.0083  159.6789 N   0  0  0  0  0  0  0  0  0  0  0  0
  152.6383  143.2083  160.8599 C   0  0  0  0  0  0  0  0  0  0  0  0
  152.7236  141.6971  160.6112 C   0  0  2  0  0  0  0  0  0  0  0  0
  154.0787  141.2972  160.6370 O   0  0  0  0  0  0  0  0  0  0  0  0
  150.2946  139.8247  155.2844 C   0  0  0  0  0  0  0  0  0  0  0  0
  149.0277  140.0965  154.5011 C   0  0  2  0  0  0  0  0  0  0  0  0
  149.3268  140.7439  153.2780 O   0  0  0  0  0  0  0  0  0  0  0  0
  147.7414  140.3545  156.1967 H   0  0  0  0  0  0  0  0  0  0  0  0
  151.1158  141.8570  155.4434 H   0  0  0  0  0  0  0  0  0  0  0  0
  152.2294  141.1849  161.4375 H   0  0  0  0  0  0  0  0  0  0  0  0
  148.4842  139.1780  154.2783 H   0  0  0  0  0  0  0  0  0  0  0  0
  148.2575  143.4962  154.3555 H   0  0  0  0  0  0  0  0  0  0  0  0
  146.7153  142.5551  155.6197 H   0  0  0  0  0  0  0  0  0  0  0  0
  146.4292  141.3780  154.3554 H   0  0  0  0  0  0  0  0  0  0  0  0
  151.3601  138.8541  157.3345 H   0  0  0  0  0  0  0  0  0  0  0  0
  151.8688  145.2097  158.3782 H   0  0  0  0  0  0  0  0  0  0  0  0
  153.5288  144.7791  159.8952 H   0  0  0  0  0  0  0  0  0  0  0  0
  153.2974  143.5074  161.6754 H   0  0  0  0  0  0  0  0  0  0  0  0
  151.6253  143.4517  161.1836 H   0  0  0  0  0  0  0  0  0  0  0  0
  154.5611  141.9257  161.1527 H   0  0  0  0  0  0  0  0  0  0  0  0
  151.1607  139.5669  154.6738 H   0  0  0  0  0  0  0  0  0  0  0  0
  150.1240  139.0287  156.0097 H   0  0  0  0  0  0  0  0  0  0  0  0
  149.1521  140.1407  152.5716 H   0  0  0  0  0  0  0  0  0  0  0  0
  1  2  1  0  0  0  0
  1 24  1  0  0  0  0
  2  3  1  0  0  0  0
  2 25  1  0  0  0  0
  2 26  1  0  0  0  0
  3 20  1  0  0  0  0
  3 18  1  0  0  0  0
  3  4  1  0  0  0  0
  4  5  1  0  0  0  0
  5 21  1  0  0  0  0
  5  6  1  0  0  0  0
  5 17  1  0  0  0  0
  6 10  1  0  0  0  0
  6  7  1  0  0  0  0
  7  8  2  0  0  0  0
  7 27  1  0  0  0  0
  8  9  1  0  0  0  0
  9 15  1  0  0  0  0
  9 10  2  0  0  0  0
 10 11  1  0  0  0  0
 11 12  2  0  0  0  0
 12 13  1  0  0  0  0
 12 28  1  0  0  0  0
 13 14  1  0  0  0  0
 13 29  1  0  0  0  0
 14 15  1  0  0  0  0
 14 30  1  0  0  0  0
 14 31  1  0  0  0  0
 15 22  1  0  0  0  0
 15 16  1  0  0  0  0
 16 32  1  0  0  0  0
 17 18  1  0  0  0  0
 17 33  1  0  0  0  0
 17 34  1  0  0  0  0
 18 23  1  0  0  0  0
 18 19  1  0  0  0  0
 19 35  1  0  0  0  0
M  END
> <s_m_source_file>
AV-unprocessed.smi

> <i_m_source_file_index>
157

> <i_lp_mmshare_version>
43012

> <i_f3d_flags>
0

> <s_epik_input>
W09IXVtDSDJdW0NASF0xT1tDQEhdKFtDSDJdW0NAQEhdMVtPSF0pbihbY0hdbjIpYyhjMjMpTj1bQ0hdW05IXVtDSDJdW0NASF0zW09IXQ==

> <s_epik_cmdline>
J2VwaWtfcHl0aG9uJywgJy1waCcsICc3LjAnLCAnLXRuJywgJzgnLCAnLW1hJywgJzIwMCcsICctbWV0YWxfYmluZGluZycsICctaW1hZScsICc8aW5maWxlLm1hZT4nLCAnLW9tYWUnLCAnPG91dGZpbGUubWFlPic=

> <r_lp_tautomer_probability>
1

> <r_epik_Ionization_Penalty>
0.0357149

> <r_epik_Ionization_Penalty_Charging>
0.0355056

> <r_epik_Ionization_Penalty_Neutral>
0.000209255

> <r_epik_State_Penalty>
0.0296046

> <r_epik_Charging_Adjusted_Penalty>
0.0651102

> <i_epik_Tot_Q>
0

> <i_epik_Tot_abs_Q>
0

> <r_epik_Metal_State_Penalty>
3.03559e-05

> <b_epik_Metal_Only>
0

> <s_epik_Chemistry_Notes>
This compound has an imine and may undergo hydrolysis. This compound contains an acetal/aminal-like group ( X-CH(R)-Y where X, Y are N, S, or O) that may be acid/base labile, releasing an aldehyde.

> <s_lp_Force_Field>
OPLS_2005

> <r_lp_Energy>
46.6241

> <b_lp_Chiralities_Consistent>
1

> <s_lp_Variant>
AV-unprocessed.smi:157-6

> <Gold.Version>
5.8.1

> <Gold.Id.Protein>
6NUR|6NUR_protein|mol2

> <Gold.PLP.Fitness>
45.7721

> <Gold.PLP.PLP>
-37.9486

> <Gold.PLP.part.hbond>
-5.1202

> <Gold.PLP.part.metal>
0.0000

> <Gold.PLP.part.buried>
-5.3168

> <Gold.PLP.part.nonpolar>
-28.8610

> <Gold.PLP.part.repulsive>
0.8407

> <Gold.PLP.ligand.clash>
0.0000

> <Gold.PLP.ligand.torsion>
0.0231

> <Gold.PLP.Chemscore.Hbond>
2.6225

> <Gold.PLP.Chemscore.CHOScore>
0.0000

> <Gold.PLP.Chemscore.Metal>
0.0000

> <Gold.Chemscore.Hbonds>
donor molecule, donor type, donor heavy atom, donor atom, acceptor molecule, acceptor atom, score
      L1  H     1    24       P1  8028  1.00
      L1  H    19    35       P1  7957  0.61
      P1  H  7989  7998       L1    19  0.10
      P1  H  8011  8017       L1    19  1.00

> <Gold.PLP.Chemscore.Internal.Correction>
0.0024

> <Gold.Rescore>
     Score         DG    S(hbond)    S(metal)    S(lipo)     H(rot)  DE(clash)    DE(int)     intcor
      8.09      -8.52       1.79        0.00      54.33       3.64       0.36       0.08       ----

> <Gold.Chemscore.Fitness>
8.0855

> <Gold.Chemscore.DG>
-8.5190

> <Gold.Chemscore.ZeroCoef>
-5.4800

> <Gold.Chemscore.Hbond>
1.7936

> <Gold.Chemscore.Metal>
0.0000

> <Gold.Chemscore.Lipo>
54.3325

> <Gold.Chemscore.Internal_Hbond>
0.0000

> <Gold.Chemscore.DEClash>
0.3582

> <Gold.Chemscore.DEInternal>
0.0752

> <Gold.Chemscore.Rot>
3.6362

> <Gold.Chemscore.Internal.Correction>
   9.000000E+99

> <Gold.Chemscore.Hbonds>
donor molecule, donor type, donor heavy atom, donor atom, acceptor molecule, acceptor atom, score
      L1  H     1    24       P1  8028  0.96
      L1  H    19    35       P1  7957  0.58
      P1  H  7989  7998       L1    19  0.01
      P1  H  8011  8017       L1    19  0.39

> <Gold.Chemscore.Hbond.Weighted>
-5.9908

> <Gold.Chemscore.Metal.Weighted>
-0.0000

> <Gold.Chemscore.Lipo.Weighted>
-6.3569

> <Gold.Chemscore.Internal_Hbond.Weighted>
0.0000

> <Gold.Chemscore.DEClash.Weighted>
0.3582

> <Gold.Chemscore.DEInternal.Weighted>
0.0752

> <Gold.Chemscore.Rot.Weighted>
9.3087

> <Gold.Chemscore.Internal.Correction.Weighted>
   9.000000E+99

> <Gold.Protein.RotatedTorsions>
[ 6907 6896 6895 6894 ] final   94.15 input  -60.11 | X-H torsion
[ 7974 7965 7964 7962 ] final -169.93 input  175.53 | X-H torsion
[ 8008 7997 7996 7995 ] final  -96.19 input   59.86 | X-H torsion
[ 10167 10162 10161 10158 ] final    1.08 input  -65.29 | X-H torsion
[ 10718 10713 10712 10709 ] final -141.33 input   66.30 | X-H torsion
[ 10763 10752 10751 10750 ] final  -85.69 input  -60.55 | X-H torsion
[ 11005 11000 10999 10996 ] final   30.45 input  -57.11 | X-H torsion

> <Gold.Protein.ActiveResidues>
 VAL166  LYS551  ARG553  GLY616  TRP617  ASP618  TYR619  PRO620  LYS621  CYS622 
 ASP623  PHE694  ASN695  SER759  ASP760  ASP761  ALA762  ILE779  LEU786  VAL792 
 PHE793  MET794  SER795  GLU796  ALA797  LYS798  CYS799  TRP800  GLU811  SER814 

> <Gold.Protein.RotatedAtoms>
  152.5450  134.1238  159.8409 H   0  0  0  0  0  0  0  0  0  0  0  0  # atno 6907 bound_to 6896
  151.1291  133.5042  159.2607 H   0  0  0  0  0  0  0  0  0  0  0  0  # atno 6908 bound_to 6896
  151.1695  135.0321  159.8800 H   0  0  0  0  0  0  0  0  0  0  0  0  # atno 6909 bound_to 6896
  144.7177  140.2147  143.6323 H   0  0  0  0  0  0  0  0  0  0  0  0  # atno 7974 bound_to 7965
  154.7713  140.0473  157.1053 H   0  0  0  0  0  0  0  0  0  0  0  0  # atno 8008 bound_to 7997
  154.9817  140.3102  155.4924 H   0  0  0  0  0  0  0  0  0  0  0  0  # atno 8009 bound_to 7997
  156.2921  140.2234  156.4917 H   0  0  0  0  0  0  0  0  0  0  0  0  # atno 8010 bound_to 7997
  140.6699  143.7076  150.7902 H   0  0  0  0  0  0  0  0  0  0  0  0  # atno 10167 bound_to 10162
  156.3327  130.7595  151.1716 H   0  0  0  0  0  0  0  0  0  0  0  0  # atno 10718 bound_to 10713
  154.6139  135.5476  153.7503 H   0  0  0  0  0  0  0  0  0  0  0  0  # atno 10763 bound_to 10752
  153.0207  135.6396  154.1538 H   0  0  0  0  0  0  0  0  0  0  0  0  # atno 10764 bound_to 10752
  154.1475  135.2904  155.3124 H   0  0  0  0  0  0  0  0  0  0  0  0  # atno 10765 bound_to 10752
  140.2943  134.2829  155.7768 H   0  0  0  0  0  0  0  0  0  0  0  0  # atno 11005 bound_to 11000
  145.8557  139.2197  143.1746 LP  0  0  0  0  0  0  0  0  0  0  0  0  # atno 17320 bound_to 7965
  146.0219  140.8339  142.9919 LP  0  0  0  0  0  0  0  0  0  0  0  0  # atno 17321 bound_to 7965
  140.0760  143.5015  152.2555 LP  0  0  0  0  0  0  0  0  0  0  0  0  # atno 17342 bound_to 10162
  139.5963  144.7568  151.3278 LP  0  0  0  0  0  0  0  0  0  0  0  0  # atno 17343 bound_to 10162
  157.7433  131.0476  150.4955 LP  0  0  0  0  0  0  0  0  0  0  0  0  # atno 17370 bound_to 10713
  156.5124  130.4142  149.6294 LP  0  0  0  0  0  0  0  0  0  0  0  0  # atno 17371 bound_to 10713
  141.2140  133.7605  156.9671 LP  0  0  0  0  0  0  0  0  0  0  0  0  # atno 17394 bound_to 11000
  140.1167  134.9443  157.2144 LP  0  0  0  0  0  0  0  0  0  0  0  0  # atno 17395 bound_to 11000

$$$$
