AV-unprocessed.smi:72|AV-procd|sdf|747|dock2
  -GOLD-   2262017 83D 1   1.00000     0.00000
 Structure written by MMmdl.
 29 30  0  0  0  0  0  0  0  0  1 V2000
  150.9070  134.4445  156.0675 N   0  0  0  0  0  0  0  0  0  0  0  0
  150.9166  135.7919  155.7729 C   0  0  0  0  0  0  0  0  0  0  0  0
  149.6829  136.3655  155.4352 N   0  0  0  0  0  0  0  0  0  0  0  0
  149.6869  137.6326  155.1655 C   0  0  0  0  0  0  0  0  0  0  0  0
  150.9103  138.4123  155.2273 N   0  0  0  0  0  0  0  0  0  0  0  0
  150.9275  139.8875  154.8966 C   0  0  2  0  0  0  0  0  0  0  0  0
  151.4435  140.5958  155.9842 O   0  0  0  0  0  0  0  0  0  0  0  0
  150.6999  141.7945  156.1635 C   0  0  2  0  0  0  0  0  0  0  0  0
  150.8615  142.3463  157.5910 C   0  0  0  0  0  0  0  0  0  0  0  0
  150.1690  143.5696  157.7212 O   0  0  0  0  0  0  0  0  0  0  0  0
  149.2745  141.3827  155.7693 C   0  0  2  0  0  0  0  0  0  0  0  0
  148.6087  140.7438  156.8436 O   0  0  0  0  0  0  0  0  0  0  0  0
  149.5018  140.4006  154.6264 C   0  0  1  0  0  0  0  0  0  0  0  0
  149.4303  141.0754  153.3866 O   0  0  0  0  0  0  0  0  0  0  0  0
  152.1317  137.7602  155.5487 C   0  0  0  0  0  0  0  0  0  0  0  0
  153.1877  138.3929  155.5604 O   0  0  0  0  0  0  0  0  0  0  0  0
  152.0711  136.3914  155.8367 N   0  0  0  0  0  0  0  0  0  0  0  0
  151.6092  140.0088  154.0530 H   0  0  0  0  0  0  0  0  0  0  0  0
  151.0518  142.5288  155.4357 H   0  0  0  0  0  0  0  0  0  0  0  0
  148.6740  142.2428  155.4697 H   0  0  0  0  0  0  0  0  0  0  0  0
  148.7754  139.5860  154.6237 H   0  0  0  0  0  0  0  0  0  0  0  0
  151.7344  133.9251  156.3218 H   0  0  0  0  0  0  0  0  0  0  0  0
  150.0720  133.8773  156.0496 H   0  0  0  0  0  0  0  0  0  0  0  0
  148.7908  138.1832  154.8767 H   0  0  0  0  0  0  0  0  0  0  0  0
  150.4300  141.6521  158.3128 H   0  0  0  0  0  0  0  0  0  0  0  0
  151.9126  142.4769  157.8510 H   0  0  0  0  0  0  0  0  0  0  0  0
  149.8069  143.8018  156.8798 H   0  0  0  0  0  0  0  0  0  0  0  0
  147.9893  140.1253  156.4878 H   0  0  0  0  0  0  0  0  0  0  0  0
  149.1689  140.4550  152.7231 H   0  0  0  0  0  0  0  0  0  0  0  0
  1  2  1  0  0  0  0
  1 22  1  0  0  0  0
  1 23  1  0  0  0  0
  2 17  2  0  0  0  0
  2  3  1  0  0  0  0
  3  4  2  0  0  0  0
  4  5  1  0  0  0  0
  4 24  1  0  0  0  0
  5  6  1  0  0  0  0
  5 15  1  0  0  0  0
  6 18  1  0  0  0  0
  6 13  1  0  0  0  0
  6  7  1  0  0  0  0
  7  8  1  0  0  0  0
  8 19  1  0  0  0  0
  8  9  1  0  0  0  0
  8 11  1  0  0  0  0
  9 10  1  0  0  0  0
  9 25  1  0  0  0  0
  9 26  1  0  0  0  0
 10 27  1  0  0  0  0
 11 20  1  0  0  0  0
 11 12  1  0  0  0  0
 11 13  1  0  0  0  0
 12 28  1  0  0  0  0
 13 21  1  0  0  0  0
 13 14  1  0  0  0  0
 14 29  1  0  0  0  0
 15 16  2  0  0  0  0
 15 17  1  0  0  0  0
M  END
> <s_m_source_file>
AV-unprocessed.smi

> <i_m_source_file_index>
72

> <i_lp_mmshare_version>
43012

> <i_f3d_flags>
0

> <s_epik_input>
W05IMl1jMW5bY0hdbihjKD1PKW4xKVtDQEBIXTJPW0NASF0oW0NIMl1bT0hdKVtDQEBIXShbT0hdKVtDQEhdMltPSF0=

> <s_epik_cmdline>
J2VwaWtfcHl0aG9uJywgJy1waCcsICc3LjAnLCAnLXRuJywgJzgnLCAnLW1hJywgJzIwMCcsICctbWV0YWxfYmluZGluZycsICctaW1hZScsICc8aW5maWxlLm1hZT4nLCAnLW9tYWUnLCAnPG91dGZpbGUubWFlPic=

> <r_lp_tautomer_probability>
4.77166e-05

> <r_epik_Ionization_Penalty>
1.3546

> <r_epik_Ionization_Penalty_Charging>
1.46833e-10

> <r_epik_Ionization_Penalty_Neutral>
1.3546

> <r_epik_State_Penalty>
3.51908

> <r_epik_Charging_Adjusted_Penalty>
3.51908

> <i_epik_Tot_Q>
0

> <i_epik_Tot_abs_Q>
0

> <r_epik_Metal_State_Penalty>
3.44088

> <b_epik_Metal_Only>
1

> <s_epik_Chemistry_Notes>
This compound contains an acetal/aminal-like group ( X-CH(R)-Y where X, Y are N, S, or O) that may be acid/base labile, releasing an aldehyde.

> <s_lp_Force_Field>
OPLS_2005

> <r_lp_Energy>
27.1219

> <b_lp_Chiralities_Consistent>
1

> <s_lp_Variant>
AV-unprocessed.smi:72-85

> <Gold.Version>
5.8.1

> <Gold.Id.Protein>
6NUR|6NUR_protein|mol2

> <Gold.PLP.Fitness>
38.8688

> <Gold.PLP.PLP>
-24.9137

> <Gold.PLP.part.hbond>
-6.3665

> <Gold.PLP.part.metal>
0.0000

> <Gold.PLP.part.buried>
-2.5722

> <Gold.PLP.part.nonpolar>
-17.0129

> <Gold.PLP.part.repulsive>
0.2709

> <Gold.PLP.ligand.clash>
0.0000

> <Gold.PLP.ligand.torsion>
0.0308

> <Gold.PLP.Chemscore.Hbond>
4.6682

> <Gold.PLP.Chemscore.CHOScore>
0.0000

> <Gold.PLP.Chemscore.Metal>
0.0000

> <Gold.Chemscore.Hbonds>
donor molecule, donor type, donor heavy atom, donor atom, acceptor molecule, acceptor atom, score
      L1  H    10    27       P1  8028  1.00
      L1  H    14    29       P1  7957  0.75
      P1  H  7989  7998       L1    14  0.02
      P1  H  7997  8010       L1    16  0.60
      P1  H  8011  8017       L1    14  0.90
      P1  H 10752 10765       L1    17  1.00

> <Gold.PLP.Chemscore.Internal.Correction>
0.0120

> <Gold.Rescore>
     Score         DG    S(hbond)    S(metal)    S(lipo)     H(rot)  DE(clash)    DE(int)     intcor
      8.17      -8.82       3.18        0.00      26.50       4.06       0.24       0.40       ----

> <Gold.Chemscore.Fitness>
8.1733

> <Gold.Chemscore.DG>
-8.8166

> <Gold.Chemscore.ZeroCoef>
-5.4800

> <Gold.Chemscore.Hbond>
3.1826

> <Gold.Chemscore.Metal>
0.0000

> <Gold.Chemscore.Lipo>
26.4987

> <Gold.Chemscore.Internal_Hbond>
0.0000

> <Gold.Chemscore.DEClash>
0.2387

> <Gold.Chemscore.DEInternal>
0.4045

> <Gold.Chemscore.Rot>
4.0600

> <Gold.Chemscore.Internal.Correction>
   9.000000E+99

> <Gold.Chemscore.Hbonds>
donor molecule, donor type, donor heavy atom, donor atom, acceptor molecule, acceptor atom, score
      L1  H    10    27       P1  8028  0.97
      L1  H    14    29       P1  7957  0.76
      P1  H  7997  8010       L1    16  0.57
      P1  H  8011  8017       L1    14  0.18
      P1  H 10752 10765       L1    17  0.67

> <Gold.Chemscore.Hbond.Weighted>
-10.6298

> <Gold.Chemscore.Metal.Weighted>
-0.0000

> <Gold.Chemscore.Lipo.Weighted>
-3.1004

> <Gold.Chemscore.Internal_Hbond.Weighted>
0.0000

> <Gold.Chemscore.DEClash.Weighted>
0.2387

> <Gold.Chemscore.DEInternal.Weighted>
0.4045

> <Gold.Chemscore.Rot.Weighted>
10.3936

> <Gold.Chemscore.Internal.Correction.Weighted>
   9.000000E+99

> <Gold.Protein.RotatedTorsions>
[ 6907 6896 6895 6894 ] final   18.73 input  -60.11 | X-H torsion
[ 7974 7965 7964 7962 ] final  -54.98 input  175.53 | X-H torsion
[ 8008 7997 7996 7995 ] final   90.72 input   59.86 | X-H torsion
[ 10167 10162 10161 10158 ] final  -64.08 input  -65.29 | X-H torsion
[ 10718 10713 10712 10709 ] final  -86.49 input   66.30 | X-H torsion
[ 10763 10752 10751 10750 ] final -142.94 input  -60.55 | X-H torsion
[ 11005 11000 10999 10996 ] final  107.57 input  -57.11 | X-H torsion

> <Gold.Protein.ActiveResidues>
 VAL166  LYS551  ARG553  GLY616  TRP617  ASP618  TYR619  PRO620  LYS621  CYS622 
 ASP623  PHE694  ASN695  SER759  ASP760  ASP761  ALA762  ILE779  LEU786  VAL792 
 PHE793  MET794  SER795  GLU796  ALA797  LYS798  CYS799  TRP800  GLU811  SER814 

> <Gold.Protein.RotatedAtoms>
  151.8699  135.0493  160.0477 H   0  0  0  0  0  0  0  0  0  0  0  0  # atno 6907 bound_to 6896
  152.2597  133.5282  159.5382 H   0  0  0  0  0  0  0  0  0  0  0  0  # atno 6908 bound_to 6896
  150.7112  134.0763  159.3924 H   0  0  0  0  0  0  0  0  0  0  0  0  # atno 6909 bound_to 6896
  145.8794  140.8156  142.9848 H   0  0  0  0  0  0  0  0  0  0  0  0  # atno 7974 bound_to 7965
  156.0153  140.3346  155.6982 H   0  0  0  0  0  0  0  0  0  0  0  0  # atno 8008 bound_to 7997
  155.6100  140.0664  157.2726 H   0  0  0  0  0  0  0  0  0  0  0  0  # atno 8009 bound_to 7997
  154.4296  140.1795  156.1250 H   0  0  0  0  0  0  0  0  0  0  0  0  # atno 8010 bound_to 7997
  140.5826  143.2329  151.6310 H   0  0  0  0  0  0  0  0  0  0  0  0  # atno 10167 bound_to 10162
  155.9989  130.4767  150.4723 H   0  0  0  0  0  0  0  0  0  0  0  0  # atno 10718 bound_to 10713
  154.8490  135.3482  154.6108 H   0  0  0  0  0  0  0  0  0  0  0  0  # atno 10763 bound_to 10752
  153.6716  135.6984  153.5150 H   0  0  0  0  0  0  0  0  0  0  0  0  # atno 10764 bound_to 10752
  153.2738  135.4285  155.0970 H   0  0  0  0  0  0  0  0  0  0  0  0  # atno 10765 bound_to 10752
  139.8830  134.9404  156.5839 H   0  0  0  0  0  0  0  0  0  0  0  0  # atno 11005 bound_to 11000
  144.6727  140.1360  143.7440 LP  0  0  0  0  0  0  0  0  0  0  0  0  # atno 17320 bound_to 7965
  145.9042  139.2448  143.1475 LP  0  0  0  0  0  0  0  0  0  0  0  0  # atno 17321 bound_to 7965
  139.5179  144.3302  152.0833 LP  0  0  0  0  0  0  0  0  0  0  0  0  # atno 17342 bound_to 10162
  140.2454  144.4225  150.6243 LP  0  0  0  0  0  0  0  0  0  0  0  0  # atno 17343 bound_to 10162
  157.2737  131.0592  151.2243 LP  0  0  0  0  0  0  0  0  0  0  0  0  # atno 17370 bound_to 10713
  157.3314  130.6987  149.6327 LP  0  0  0  0  0  0  0  0  0  0  0  0  # atno 17371 bound_to 10713
  140.8006  133.8508  155.8724 LP  0  0  0  0  0  0  0  0  0  0  0  0  # atno 17394 bound_to 11000
  140.9596  134.1673  157.4665 LP  0  0  0  0  0  0  0  0  0  0  0  0  # atno 17395 bound_to 11000

$$$$
