AV-unprocessed.smi:265|AV-procd|sdf|2015|dock5
  -GOLD-   2262021213D 1   1.00000     0.00000
 Structure written by MMmdl.
 52 56  0  0  0  0  0  0  0  0  1 V2000
  157.8497  133.3568  163.8419 C   0  0  0  0  0  0  0  0  0  0  0  0
  156.4402  133.5329  164.4263 C   0  0  2  0  0  0  0  0  0  0  0  0
  155.5456  132.5614  163.8897 O   0  0  0  0  0  0  0  0  0  0  0  0
  154.2464  133.1238  163.7280 C   0  0  0  0  0  0  0  0  0  0  0  0
  154.3045  134.4931  164.3978 C   0  0  0  0  0  0  0  0  0  0  0  0
  155.7601  134.8965  164.1958 C   0  0  1  0  0  0  0  0  0  0  0  0
  156.1320  135.8077  165.2132 O   0  0  0  0  0  0  0  0  0  0  0  0
  156.0523  135.5253  162.8064 C   0  0  0  0  0  0  0  0  0  0  0  0
  155.3333  136.7656  162.5585 N   0  0  0  0  0  0  0  0  0  0  0  0
  153.9879  136.9063  162.3040 C   0  0  0  0  0  0  0  0  0  0  0  0
  153.5815  138.1329  162.1193 N   0  0  0  0  0  0  0  0  0  0  0  0
  154.7337  138.8978  162.2594 C   0  0  0  0  0  0  0  0  0  0  0  0
  155.0132  140.2923  162.1917 C   0  0  0  0  0  0  0  0  0  0  0  0
  154.0604  141.2202  161.9208 N   0  0  0  0  0  0  0  0  0  0  0  0
  153.8039  142.2445  162.9395 C   0  0  0  0  0  0  0  0  0  0  0  0
  152.4940  143.0029  162.6547 C   0  0  0  0  0  0  0  0  0  0  0  0
  152.5152  143.5618  161.2265 C   0  0  2  0  0  0  0  0  0  0  0  0
  151.2884  144.1870  160.8809 O   0  0  0  0  0  0  0  0  0  0  0  0
  151.3294  144.8561  159.6156 C   0  0  0  0  0  0  0  0  0  0  0  0
  151.9587  143.9921  158.5017 C   0  0  0  0  0  0  0  0  0  0  0  0
  151.8416  144.3292  157.3260 O   0  0  0  0  0  0  0  0  0  0  0  0
  152.6607  142.9053  158.8623 N   0  0  0  0  0  0  0  0  0  0  0  0
  152.7179  142.4092  160.2308 C   0  0  1  0  0  0  0  0  0  0  0  0
  154.0386  141.6822  160.5307 C   0  0  0  0  0  0  0  0  0  0  0  0
  156.2973  140.6835  162.4116 N   0  0  0  0  0  0  0  0  0  0  0  0
  157.2450  139.7775  162.6698 C   0  0  0  0  0  0  0  0  0  0  0  0
  157.1295  138.4512  162.7566 N   0  0  0  0  0  0  0  0  0  0  0  0
  155.8428  138.0523  162.5455 C   0  0  0  0  0  0  0  0  0  0  0  0
  153.3266  144.2887  161.1464 H   0  0  0  0  0  0  0  0  0  0  0  0
  151.8983  141.6965  160.3395 H   0  0  0  0  0  0  0  0  0  0  0  0
  158.5309  134.1167  164.2249 H   0  0  0  0  0  0  0  0  0  0  0  0
  157.8479  133.4195  162.7537 H   0  0  0  0  0  0  0  0  0  0  0  0
  158.2572  132.3817  164.1095 H   0  0  0  0  0  0  0  0  0  0  0  0
  156.4852  133.3402  165.5000 H   0  0  0  0  0  0  0  0  0  0  0  0
  154.0399  133.2251  162.6621 H   0  0  0  0  0  0  0  0  0  0  0  0
  153.4780  132.4834  164.1612 H   0  0  0  0  0  0  0  0  0  0  0  0
  153.5736  135.1969  164.0009 H   0  0  0  0  0  0  0  0  0  0  0  0
  154.0906  134.3734  165.4615 H   0  0  0  0  0  0  0  0  0  0  0  0
  156.9276  136.2435  164.9484 H   0  0  0  0  0  0  0  0  0  0  0  0
  157.1182  135.7284  162.6962 H   0  0  0  0  0  0  0  0  0  0  0  0
  155.7960  134.8229  162.0126 H   0  0  0  0  0  0  0  0  0  0  0  0
  153.3124  136.0645  162.2579 H   0  0  0  0  0  0  0  0  0  0  0  0
  153.7468  141.7823  163.9261 H   0  0  0  0  0  0  0  0  0  0  0  0
  154.6391  142.9461  162.9603 H   0  0  0  0  0  0  0  0  0  0  0  0
  151.6442  142.3302  162.7782 H   0  0  0  0  0  0  0  0  0  0  0  0
  152.3621  143.8101  163.3755 H   0  0  0  0  0  0  0  0  0  0  0  0
  150.3164  145.1431  159.3325 H   0  0  0  0  0  0  0  0  0  0  0  0
  151.9089  145.7748  159.7142 H   0  0  0  0  0  0  0  0  0  0  0  0
  153.1052  142.3533  158.1431 H   0  0  0  0  0  0  0  0  0  0  0  0
  154.8830  142.3542  160.3708 H   0  0  0  0  0  0  0  0  0  0  0  0
  154.1615  140.8526  159.8353 H   0  0  0  0  0  0  0  0  0  0  0  0
  158.2376  140.1717  162.8310 H   0  0  0  0  0  0  0  0  0  0  0  0
  1  2  1  0  0  0  0
  1 31  1  0  0  0  0
  1 32  1  0  0  0  0
  1 33  1  0  0  0  0
  2  6  1  0  0  0  0
  2  3  1  0  0  0  0
  2 34  1  0  0  0  0
  3  4  1  0  0  0  0
  4  5  1  0  0  0  0
  4 35  1  0  0  0  0
  4 36  1  0  0  0  0
  5  6  1  0  0  0  0
  5 37  1  0  0  0  0
  5 38  1  0  0  0  0
  6  7  1  0  0  0  0
  6  8  1  0  0  0  0
  7 39  1  0  0  0  0
  8  9  1  0  0  0  0
  8 40  1  0  0  0  0
  8 41  1  0  0  0  0
  9 28  1  0  0  0  0
  9 10  1  0  0  0  0
 10 11  2  0  0  0  0
 10 42  1  0  0  0  0
 11 12  1  0  0  0  0
 12 28  2  0  0  0  0
 12 13  1  0  0  0  0
 13 14  1  0  0  0  0
 13 25  2  0  0  0  0
 14 24  1  0  0  0  0
 14 15  1  0  0  0  0
 15 16  1  0  0  0  0
 15 43  1  0  0  0  0
 15 44  1  0  0  0  0
 16 17  1  0  0  0  0
 16 45  1  0  0  0  0
 16 46  1  0  0  0  0
 17 29  1  0  0  0  0
 17 23  1  0  0  0  0
 17 18  1  0  0  0  0
 18 19  1  0  0  0  0
 19 20  1  0  0  0  0
 19 47  1  0  0  0  0
 19 48  1  0  0  0  0
 20 21  2  0  0  0  0
 20 22  1  0  0  0  0
 22 23  1  0  0  0  0
 22 49  1  0  0  0  0
 23 30  1  0  0  0  0
 23 24  1  0  0  0  0
 24 50  1  0  0  0  0
 24 51  1  0  0  0  0
 25 26  1  0  0  0  0
 26 27  2  0  0  0  0
 26 52  1  0  0  0  0
 27 28  1  0  0  0  0
M  END
> <s_m_source_file>
AV-unprocessed.smi

> <i_m_source_file_index>
265

> <i_lp_mmshare_version>
43012

> <i_f3d_flags>
0

> <s_epik_input>
W0NIMl0xW0NIMl1PW0NAQEhdKFtDSDNdKVtDQEBdMShbT0hdKVtDSDJdbihbY0hdbjIpYyhjMjMpbltjSF1uYzNOKFtDSDJdW0NIMl00KVtDSDJdW0NAQEhdKFtDQEhdNDUpW05IXUMoPU8pW0NIMl1PNQ==

> <s_epik_cmdline>
J2VwaWtfcHl0aG9uJywgJy1waCcsICc3LjAnLCAnLXRuJywgJzgnLCAnLW1hJywgJzIwMCcsICctbWV0YWxfYmluZGluZycsICctaW1hZScsICc8aW5maWxlLm1hZT4nLCAnLW9tYWUnLCAnPG91dGZpbGUubWFlPic=

> <r_lp_tautomer_probability>
1

> <r_epik_Ionization_Penalty>
0.00221504

> <r_epik_Ionization_Penalty_Charging>
0

> <r_epik_Ionization_Penalty_Neutral>
0.00221504

> <r_epik_State_Penalty>
-0

> <r_epik_Charging_Adjusted_Penalty>
0

> <i_epik_Tot_Q>
0

> <i_epik_Tot_abs_Q>
0

> <r_epik_Metal_State_Penalty>
-0

> <b_epik_Metal_Only>
0

> <s_lp_Force_Field>
OPLS_2005

> <r_lp_Energy>
45.3858

> <b_lp_Chiralities_Consistent>
1

> <s_lp_Variant>
AV-unprocessed.smi:265-1

> <Gold.Version>
5.8.1

> <Gold.Id.Protein>
6NUR|6NUR_protein|mol2

> <Gold.PLP.Fitness>
42.3028

> <Gold.PLP.PLP>
-42.7592

> <Gold.PLP.part.hbond>
-1.6676

> <Gold.PLP.part.metal>
0.0000

> <Gold.PLP.part.buried>
-1.3651

> <Gold.PLP.part.nonpolar>
-39.6616

> <Gold.PLP.part.repulsive>
0.3156

> <Gold.PLP.ligand.clash>
0.0000

> <Gold.PLP.ligand.torsion>
0.4398

> <Gold.PLP.Chemscore.Hbond>
0.0000

> <Gold.PLP.Chemscore.CHOScore>
0.0000

> <Gold.PLP.Chemscore.Metal>
0.0000

> <Gold.PLP.Chemscore.Internal.Correction>
0.4232

> <Gold.Rescore>
     Score         DG    S(hbond)    S(metal)    S(lipo)     H(rot)  DE(clash)    DE(int)     intcor
      9.10     -10.98       0.00        0.00      96.11       2.25       1.48       0.40       ----

> <Gold.Chemscore.Fitness>
9.0986

> <Gold.Chemscore.DG>
-10.9771

> <Gold.Chemscore.ZeroCoef>
-5.4800

> <Gold.Chemscore.Hbond>
0.0000

> <Gold.Chemscore.Metal>
0.0000

> <Gold.Chemscore.Lipo>
96.1109

> <Gold.Chemscore.Internal_Hbond>
0.0000

> <Gold.Chemscore.DEClash>
1.4826

> <Gold.Chemscore.DEInternal>
0.3959

> <Gold.Chemscore.Rot>
2.2453

> <Gold.Chemscore.Internal.Correction>
   9.000000E+99

> <Gold.Chemscore.Hbond.Weighted>
-0.0000

> <Gold.Chemscore.Metal.Weighted>
-0.0000

> <Gold.Chemscore.Lipo.Weighted>
-11.2450

> <Gold.Chemscore.Internal_Hbond.Weighted>
0.0000

> <Gold.Chemscore.DEClash.Weighted>
1.4826

> <Gold.Chemscore.DEInternal.Weighted>
0.3959

> <Gold.Chemscore.Rot.Weighted>
5.7479

> <Gold.Chemscore.Internal.Correction.Weighted>
   9.000000E+99

> <Gold.Protein.RotatedTorsions>
[ 6907 6896 6895 6894 ] final   29.18 input  -60.11 | X-H torsion
[ 7974 7965 7964 7962 ] final   12.61 input  175.53 | X-H torsion
[ 8008 7997 7996 7995 ] final  107.28 input   59.86 | X-H torsion
[ 10167 10162 10161 10158 ] final  101.78 input  -65.29 | X-H torsion
[ 10718 10713 10712 10709 ] final  -65.32 input   66.30 | X-H torsion
[ 10763 10752 10751 10750 ] final   81.71 input  -60.55 | X-H torsion
[ 11005 11000 10999 10996 ] final -113.59 input  -57.11 | X-H torsion

> <Gold.Protein.ActiveResidues>
 VAL166  LYS551  ARG553  GLY616  TRP617  ASP618  TYR619  PRO620  LYS621  CYS622 
 ASP623  PHE694  ASN695  SER759  ASP760  ASP761  ALA762  ILE779  LEU786  VAL792 
 PHE793  MET794  SER795  GLU796  ALA797  LYS798  CYS799  TRP800  GLU811  SER814 

> <Gold.Protein.RotatedAtoms>
  152.0277  134.9786  160.0571 H   0  0  0  0  0  0  0  0  0  0  0  0  # atno 6907 bound_to 6896
  152.1275  133.4383  159.4713 H   0  0  0  0  0  0  0  0  0  0  0  0  # atno 6908 bound_to 6896
  150.6853  134.2380  159.4504 H   0  0  0  0  0  0  0  0  0  0  0  0  # atno 6909 bound_to 6896
  146.2347  139.9311  142.8496 H   0  0  0  0  0  0  0  0  0  0  0  0  # atno 7974 bound_to 7965
  156.1811  140.3097  155.9151 H   0  0  0  0  0  0  0  0  0  0  0  0  # atno 8008 bound_to 7997
  155.3381  140.0464  157.3061 H   0  0  0  0  0  0  0  0  0  0  0  0  # atno 8009 bound_to 7997
  154.5344  140.2241  155.8758 H   0  0  0  0  0  0  0  0  0  0  0  0  # atno 8010 bound_to 7997
  139.7408  144.7012  151.0579 H   0  0  0  0  0  0  0  0  0  0  0  0  # atno 10167 bound_to 10162
  156.0676  130.4245  150.1547 H   0  0  0  0  0  0  0  0  0  0  0  0  # atno 10718 bound_to 10713
  153.1140  135.4755  154.9084 H   0  0  0  0  0  0  0  0  0  0  0  0  # atno 10763 bound_to 10752
  154.7510  135.3106  154.8560 H   0  0  0  0  0  0  0  0  0  0  0  0  # atno 10764 bound_to 10752
  153.9142  135.6862  153.4803 H   0  0  0  0  0  0  0  0  0  0  0  0  # atno 10765 bound_to 10752
  141.0605  133.9544  157.2676 H   0  0  0  0  0  0  0  0  0  0  0  0  # atno 11005 bound_to 11000
  145.2044  140.9868  143.4137 LP  0  0  0  0  0  0  0  0  0  0  0  0  # atno 17320 bound_to 7965
  144.9746  139.3845  143.6292 LP  0  0  0  0  0  0  0  0  0  0  0  0  # atno 17321 bound_to 7965
  140.7785  143.4927  150.9872 LP  0  0  0  0  0  0  0  0  0  0  0  0  # atno 17342 bound_to 10162
  139.8616  143.7308  152.3173 LP  0  0  0  0  0  0  0  0  0  0  0  0  # atno 17343 bound_to 10162
  156.9604  130.9803  151.3480 LP  0  0  0  0  0  0  0  0  0  0  0  0  # atno 17370 bound_to 10713
  157.5728  130.8322  149.8415 LP  0  0  0  0  0  0  0  0  0  0  0  0  # atno 17371 bound_to 10713
  139.9428  135.0188  156.8760 LP  0  0  0  0  0  0  0  0  0  0  0  0  # atno 17394 bound_to 11000
  140.5879  134.0290  155.7488 LP  0  0  0  0  0  0  0  0  0  0  0  0  # atno 17395 bound_to 11000

$$$$
