AV-unprocessed.smi:730|AV-procd|sdf|3525|dock10
  -GOLD-   22720 0523D 1   1.00000     0.00000
 Structure written by MMmdl.
 40 41  0  0  0  0  0  0  0  0  1 V2000
  146.6758  133.3559  150.3061 C   0  0  0  0  0  0  0  0  0  0  0  0
  145.2678  133.3684  150.9343 C   0  0  0  0  0  0  0  0  0  0  0  0
  144.2453  133.0032  149.8418 C   0  0  0  0  0  0  0  0  0  0  0  0
  145.2234  132.3036  152.0462 C   0  0  0  0  0  0  0  0  0  0  0  0
  144.9482  134.7222  151.5047 C   0  0  0  0  0  0  0  0  0  0  0  0
  145.6134  135.9185  151.5222 C   0  0  0  0  0  0  0  0  0  0  0  0
  144.7284  136.7734  152.2306 C   0  0  0  0  0  0  0  0  0  0  0  0
  145.0625  138.1312  152.4681 N   0  0  0  0  0  0  0  0  0  0  0  0
  146.2737  138.6383  152.7542 C   0  0  0  0  0  0  0  0  0  0  0  0
  147.3074  137.9807  152.8771 O   0  0  0  0  0  0  0  0  0  0  0  0
  146.2239  139.9712  152.8912 N   0  0  0  0  0  0  0  0  0  0  0  0
  147.3672  140.8274  153.2008 C   0  0  1  0  0  0  0  0  0  0  0  0
  146.8958  142.1495  153.8363 C   0  0  0  0  0  0  0  0  0  0  0  0
  147.0990  141.9750  155.3402 C   0  0  0  0  0  0  0  0  0  0  0  0
  148.3659  141.1320  155.4367 C   0  0  0  0  0  0  0  0  0  0  0  0
  148.2738  140.1545  154.2568 C   0  0  2  0  0  0  0  0  0  0  0  0
  149.5633  139.8905  153.7438 O   0  0  0  0  0  0  0  0  0  0  0  0
  143.6210  136.1599  152.6152 N   0  0  0  0  0  0  0  0  0  0  0  0
  143.7559  134.8460  152.1535 O   0  0  0  0  0  0  0  0  0  0  0  0
  146.9166  132.3782  149.8873 H   0  0  0  0  0  0  0  0  0  0  0  0
  147.4436  133.5923  151.0439 H   0  0  0  0  0  0  0  0  0  0  0  0
  146.7585  134.0850  149.4989 H   0  0  0  0  0  0  0  0  0  0  0  0
  144.2534  133.7342  149.0323 H   0  0  0  0  0  0  0  0  0  0  0  0
  143.2306  132.9670  150.2400 H   0  0  0  0  0  0  0  0  0  0  0  0
  144.4586  132.0267  149.4058 H   0  0  0  0  0  0  0  0  0  0  0  0
  145.4647  131.3129  151.6592 H   0  0  0  0  0  0  0  0  0  0  0  0
  144.2348  132.2428  152.5028 H   0  0  0  0  0  0  0  0  0  0  0  0
  145.9373  132.5296  152.8391 H   0  0  0  0  0  0  0  0  0  0  0  0
  146.5791  136.1447  151.0954 H   0  0  0  0  0  0  0  0  0  0  0  0
  144.2985  138.7874  152.4055 H   0  0  0  0  0  0  0  0  0  0  0  0
  145.3328  140.4301  152.7718 H   0  0  0  0  0  0  0  0  0  0  0  0
  147.9229  141.0370  152.2840 H   0  0  0  0  0  0  0  0  0  0  0  0
  147.5320  142.9622  153.4832 H   0  0  0  0  0  0  0  0  0  0  0  0
  145.8687  142.4167  153.5843 H   0  0  0  0  0  0  0  0  0  0  0  0
  147.1849  142.9260  155.8664 H   0  0  0  0  0  0  0  0  0  0  0  0
  146.2569  141.4289  155.7672 H   0  0  0  0  0  0  0  0  0  0  0  0
  149.2322  141.7861  155.3231 H   0  0  0  0  0  0  0  0  0  0  0  0
  148.4617  140.6235  156.3964 H   0  0  0  0  0  0  0  0  0  0  0  0
  147.8386  139.2146  154.6008 H   0  0  0  0  0  0  0  0  0  0  0  0
  149.6205  140.2568  152.8745 H   0  0  0  0  0  0  0  0  0  0  0  0
  1  2  1  0  0  0  0
  1 20  1  0  0  0  0
  1 21  1  0  0  0  0
  1 22  1  0  0  0  0
  2  3  1  0  0  0  0
  2  4  1  0  0  0  0
  2  5  1  0  0  0  0
  3 23  1  0  0  0  0
  3 24  1  0  0  0  0
  3 25  1  0  0  0  0
  4 26  1  0  0  0  0
  4 27  1  0  0  0  0
  4 28  1  0  0  0  0
  5 19  1  0  0  0  0
  5  6  2  0  0  0  0
  6  7  1  0  0  0  0
  6 29  1  0  0  0  0
  7  8  1  0  0  0  0
  7 18  2  0  0  0  0
  8  9  1  0  0  0  0
  8 30  1  0  0  0  0
  9 10  2  0  0  0  0
  9 11  1  0  0  0  0
 11 12  1  0  0  0  0
 11 31  1  0  0  0  0
 12 16  1  0  0  0  0
 12 13  1  0  0  0  0
 12 32  1  0  0  0  0
 13 14  1  0  0  0  0
 13 33  1  0  0  0  0
 13 34  1  0  0  0  0
 14 15  1  0  0  0  0
 14 35  1  0  0  0  0
 14 36  1  0  0  0  0
 15 16  1  0  0  0  0
 15 37  1  0  0  0  0
 15 38  1  0  0  0  0
 16 17  1  0  0  0  0
 16 39  1  0  0  0  0
 17 40  1  0  0  0  0
 18 19  1  0  0  0  0
M  END
> <s_m_source_file>
AV-unprocessed.smi

> <i_m_source_file_index>
730

> <i_lp_mmshare_version>
43012

> <i_f3d_flags>
0

> <s_epik_input>
W0NIM11DKFtDSDNdKShbQ0gzXSljMVtjSF1jKG5vMSlbTkhdQyg9TylbTkhdW0NAQEhdMltDSDJdW0NIMl1bQ0gyXVtDQEhdMltPSF0=

> <s_epik_cmdline>
J2VwaWtfcHl0aG9uJywgJy1waCcsICc3LjAnLCAnLXRuJywgJzgnLCAnLW1hJywgJzIwMCcsICctbWV0YWxfYmluZGluZycsICctaW1hZScsICc8aW5maWxlLm1hZT4nLCAnLW9tYWUnLCAnPG91dGZpbGUubWFlPic=

> <r_lp_tautomer_probability>
1

> <r_epik_Ionization_Penalty>
2.23071e-05

> <r_epik_Ionization_Penalty_Charging>
0

> <r_epik_Ionization_Penalty_Neutral>
2.23071e-05

> <r_epik_State_Penalty>
-0

> <r_epik_Charging_Adjusted_Penalty>
0

> <i_epik_Tot_Q>
0

> <i_epik_Tot_abs_Q>
0

> <r_epik_Metal_State_Penalty>
-0

> <b_epik_Metal_Only>
0

> <s_lp_Force_Field>
OPLS_2005

> <r_lp_Energy>
16.5613

> <b_lp_Chiralities_Consistent>
1

> <s_lp_Variant>
AV-unprocessed.smi:730-4

> <Gold.Version>
5.8.1

> <Gold.Id.Protein>
6NUR|6NUR_protein|mol2

> <Gold.PLP.Fitness>
38.1279

> <Gold.PLP.PLP>
-30.3469

> <Gold.PLP.part.hbond>
-4.6250

> <Gold.PLP.part.metal>
0.0000

> <Gold.PLP.part.buried>
-5.0561

> <Gold.PLP.part.nonpolar>
-24.0800

> <Gold.PLP.part.repulsive>
3.5917

> <Gold.PLP.ligand.clash>
0.0000

> <Gold.PLP.ligand.torsion>
0.6127

> <Gold.PLP.Chemscore.Hbond>
3.0000

> <Gold.PLP.Chemscore.CHOScore>
0.0000

> <Gold.PLP.Chemscore.Metal>
0.0000

> <Gold.Chemscore.Hbonds>
donor molecule, donor type, donor heavy atom, donor atom, acceptor molecule, acceptor atom, score
      L1  H     8    30       P1 10175  1.00
      L1  H    11    31       P1 10175  1.00
      L1  H    17    40       P1  7957  1.00

> <Gold.PLP.Chemscore.Internal.Correction>
0.0064

> <Gold.Rescore>
     Score         DG    S(hbond)    S(metal)    S(lipo)     H(rot)  DE(clash)    DE(int)     intcor
     14.15     -18.74       2.79        0.00      71.08       1.71       1.60       3.00       ----

> <Gold.Chemscore.Fitness>
14.1466

> <Gold.Chemscore.DG>
-18.7423

> <Gold.Chemscore.ZeroCoef>
-5.4800

> <Gold.Chemscore.Hbond>
2.7934

> <Gold.Chemscore.Metal>
0.0000

> <Gold.Chemscore.Lipo>
71.0809

> <Gold.Chemscore.Internal_Hbond>
0.0000

> <Gold.Chemscore.DEClash>
1.6005

> <Gold.Chemscore.DEInternal>
2.9952

> <Gold.Chemscore.Rot>
1.7125

> <Gold.Chemscore.Internal.Correction>
   9.000000E+99

> <Gold.Chemscore.Hbonds>
donor molecule, donor type, donor heavy atom, donor atom, acceptor molecule, acceptor atom, score
      L1  H     8    30       P1 10175  0.96
      L1  H    11    31       P1 10175  0.80
      L1  H    17    40       P1  7957  0.94

> <Gold.Chemscore.Hbond.Weighted>
-9.3299

> <Gold.Chemscore.Metal.Weighted>
-0.0000

> <Gold.Chemscore.Lipo.Weighted>
-8.3165

> <Gold.Chemscore.Internal_Hbond.Weighted>
0.0000

> <Gold.Chemscore.DEClash.Weighted>
1.6005

> <Gold.Chemscore.DEInternal.Weighted>
2.9952

> <Gold.Chemscore.Rot.Weighted>
4.3841

> <Gold.Chemscore.Internal.Correction.Weighted>
   9.000000E+99

> <Gold.Protein.RotatedTorsions>
[ 6907 6896 6895 6894 ] final  179.60 input  -60.11 | X-H torsion
[ 7974 7965 7964 7962 ] final -139.67 input  175.53 | X-H torsion
[ 8008 7997 7996 7995 ] final    4.90 input   59.86 | X-H torsion
[ 10167 10162 10161 10158 ] final  152.21 input  -65.29 | X-H torsion
[ 10718 10713 10712 10709 ] final  114.66 input   66.30 | X-H torsion
[ 10763 10752 10751 10750 ] final  102.63 input  -60.55 | X-H torsion
[ 11005 11000 10999 10996 ] final -179.17 input  -57.11 | X-H torsion

> <Gold.Protein.ActiveResidues>
 VAL166  LYS551  ARG553  GLY616  TRP617  ASP618  TYR619  PRO620  LYS621  CYS622 
 ASP623  PHE694  ASN695  SER759  ASP760  ASP761  ALA762  ILE779  LEU786  VAL792 
 PHE793  MET794  SER795  GLU796  ALA797  LYS798  CYS799  TRP800  GLU811  SER814 

> <Gold.Protein.RotatedAtoms>
  151.6691  133.3314  159.3191 H   0  0  0  0  0  0  0  0  0  0  0  0  # atno 6907 bound_to 6896
  150.7876  134.6878  159.6489 H   0  0  0  0  0  0  0  0  0  0  0  0  # atno 6908 bound_to 6896
  152.3949  134.6384  160.0145 H   0  0  0  0  0  0  0  0  0  0  0  0  # atno 6909 bound_to 6896
  144.8658  140.6291  143.5299 H   0  0  0  0  0  0  0  0  0  0  0  0  # atno 7974 bound_to 7965
  154.7217  140.2713  155.6535 H   0  0  0  0  0  0  0  0  0  0  0  0  # atno 8008 bound_to 7997
  156.2825  140.2733  156.1815 H   0  0  0  0  0  0  0  0  0  0  0  0  # atno 8009 bound_to 7997
  155.0498  140.0371  157.2529 H   0  0  0  0  0  0  0  0  0  0  0  0  # atno 8010 bound_to 7997
  139.4834  144.5377  151.7618 H   0  0  0  0  0  0  0  0  0  0  0  0  # atno 10167 bound_to 10162
  157.6268  131.1002  150.7218 H   0  0  0  0  0  0  0  0  0  0  0  0  # atno 10718 bound_to 10713
  153.3421  135.4004  155.1580 H   0  0  0  0  0  0  0  0  0  0  0  0  # atno 10763 bound_to 10752
  154.8645  135.3636  154.5332 H   0  0  0  0  0  0  0  0  0  0  0  0  # atno 10764 bound_to 10752
  153.5778  135.7077  153.5536 H   0  0  0  0  0  0  0  0  0  0  0  0  # atno 10765 bound_to 10752
  140.4217  134.6600  157.4667 H   0  0  0  0  0  0  0  0  0  0  0  0  # atno 11005 bound_to 11000
  145.4224  139.1562  143.4066 LP  0  0  0  0  0  0  0  0  0  0  0  0  # atno 17320 bound_to 7965
  146.2894  140.4336  142.8745 LP  0  0  0  0  0  0  0  0  0  0  0  0  # atno 17321 bound_to 7965
  140.4912  144.1308  150.5950 LP  0  0  0  0  0  0  0  0  0  0  0  0  # atno 17342 bound_to 10162
  140.4169  143.2630  151.9763 LP  0  0  0  0  0  0  0  0  0  0  0  0  # atno 17343 bound_to 10162
  156.7565  130.4785  149.5446 LP  0  0  0  0  0  0  0  0  0  0  0  0  # atno 17370 bound_to 10713
  156.1445  130.6267  151.0512 LP  0  0  0  0  0  0  0  0  0  0  0  0  # atno 17371 bound_to 10713
  140.0196  134.6567  155.9259 LP  0  0  0  0  0  0  0  0  0  0  0  0  # atno 17394 bound_to 11000
  141.1781  133.6543  156.4911 LP  0  0  0  0  0  0  0  0  0  0  0  0  # atno 17395 bound_to 11000

$$$$
