AV-unprocessed.smi:2409|AV-procd|sdf|9523|dock2
  -GOLD-   2272013153D 1   1.00000     0.00000
 Structure written by MMmdl.
 35 36  0  0  0  0  0  0  0  0  1 V2000
  152.2539  139.5006  159.1964 C   0  0  0  0  0  0  0  0  0  0  0  0
  152.5803  140.3995  158.1503 O   0  0  0  0  0  0  0  0  0  0  0  0
  152.4358  141.6979  158.4909 C   0  0  0  0  0  0  0  0  0  0  0  0
  151.6455  142.6940  157.9882 C   0  0  0  0  0  0  0  0  0  0  0  0
  150.7056  142.6646  156.9272 N   0  0  0  0  0  0  0  0  0  0  0  0
  150.2795  141.5887  156.2400 C   0  0  0  0  0  0  0  0  0  0  0  0
  150.6467  140.4364  156.4589 O   0  0  0  0  0  0  0  0  0  0  0  0
  149.3914  141.8641  155.2682 N   0  0  0  0  0  0  0  0  0  0  0  0
  148.7544  140.9487  154.3675 C   0  0  1  0  0  0  0  0  0  0  0  0
  147.5619  140.1805  154.8950 C   0  0  0  0  0  0  0  0  0  0  0  0
  147.3560  141.2616  153.8672 C   0  0  1  0  0  0  0  0  0  0  0  0
  146.6388  142.5469  154.2308 C   0  0  0  0  0  0  0  0  0  0  0  0
  151.9048  143.8227  158.8137 C   0  0  0  0  0  0  0  0  0  0  0  0
  151.3014  145.1967  158.7608 C   0  0  0  0  0  0  0  0  0  0  0  0
  152.8284  143.5463  159.7277 N   0  0  0  0  0  0  0  0  0  0  0  0
  153.1616  142.2478  159.5265 N   0  0  0  0  0  0  0  0  0  0  0  0
  154.1492  141.6196  160.3796 C   0  0  0  0  0  0  0  0  0  0  0  0
  152.4018  138.4757  158.8565 H   0  0  0  0  0  0  0  0  0  0  0  0
  151.2135  139.6041  159.5066 H   0  0  0  0  0  0  0  0  0  0  0  0
  152.8938  139.6635  160.0649 H   0  0  0  0  0  0  0  0  0  0  0  0
  150.3925  143.5635  156.5915 H   0  0  0  0  0  0  0  0  0  0  0  0
  149.1103  142.8300  155.1799 H   0  0  0  0  0  0  0  0  0  0  0  0
  149.3932  140.3828  153.6910 H   0  0  0  0  0  0  0  0  0  0  0  0
  147.4439  139.1497  154.5670 H   0  0  0  0  0  0  0  0  0  0  0  0
  147.2380  140.3817  155.9146 H   0  0  0  0  0  0  0  0  0  0  0  0
  147.1402  140.9238  152.8553 H   0  0  0  0  0  0  0  0  0  0  0  0
  146.8020  142.8078  155.2768 H   0  0  0  0  0  0  0  0  0  0  0  0
  145.5668  142.4330  154.0691 H   0  0  0  0  0  0  0  0  0  0  0  0
  146.9997  143.3650  153.6072 H   0  0  0  0  0  0  0  0  0  0  0  0
  150.7094  145.3375  157.8565 H   0  0  0  0  0  0  0  0  0  0  0  0
  152.0733  145.9666  158.7716 H   0  0  0  0  0  0  0  0  0  0  0  0
  150.6467  145.3682  159.6152 H   0  0  0  0  0  0  0  0  0  0  0  0
  154.6811  140.8459  159.8254 H   0  0  0  0  0  0  0  0  0  0  0  0
  153.6538  141.1657  161.2381 H   0  0  0  0  0  0  0  0  0  0  0  0
  154.8708  142.3582  160.7312 H   0  0  0  0  0  0  0  0  0  0  0  0
  1  2  1  0  0  0  0
  1 18  1  0  0  0  0
  1 19  1  0  0  0  0
  1 20  1  0  0  0  0
  2  3  1  0  0  0  0
  3 16  1  0  0  0  0
  3  4  2  0  0  0  0
  4  5  1  0  0  0  0
  4 13  1  0  0  0  0
  5  6  1  0  0  0  0
  5 21  1  0  0  0  0
  6  7  2  0  0  0  0
  6  8  1  0  0  0  0
  8  9  1  0  0  0  0
  8 22  1  0  0  0  0
  9 11  1  0  0  0  0
  9 10  1  0  0  0  0
  9 23  1  0  0  0  0
 10 11  1  0  0  0  0
 10 24  1  0  0  0  0
 10 25  1  0  0  0  0
 11 12  1  0  0  0  0
 11 26  1  0  0  0  0
 12 27  1  0  0  0  0
 12 28  1  0  0  0  0
 12 29  1  0  0  0  0
 13 14  1  0  0  0  0
 13 15  2  0  0  0  0
 14 30  1  0  0  0  0
 14 31  1  0  0  0  0
 14 32  1  0  0  0  0
 15 16  1  0  0  0  0
 16 17  1  0  0  0  0
 17 33  1  0  0  0  0
 17 34  1  0  0  0  0
 17 35  1  0  0  0  0
M  END
> <s_m_source_file>
AV-unprocessed.smi

> <i_m_source_file_index>
2409

> <i_lp_mmshare_version>
43012

> <i_f3d_flags>
0

> <s_epik_input>
W0NIM11uMW5jKFtDSDNdKWMoYzFPW0NIM10pW05IXUMoPU8pW05IXVtDQEBIXTJbQ0gyXVtDQEhdMltDSDNd

> <s_epik_cmdline>
J2VwaWtfcHl0aG9uJywgJy1waCcsICc3LjAnLCAnLXRuJywgJzgnLCAnLW1hJywgJzIwMCcsICctbWV0YWxfYmluZGluZycsICctaW1hZScsICc8aW5maWxlLm1hZT4nLCAnLW9tYWUnLCAnPG91dGZpbGUubWFlPic=

> <r_lp_tautomer_probability>
1

> <r_epik_Ionization_Penalty>
0.000417804

> <r_epik_Ionization_Penalty_Charging>
0

> <r_epik_Ionization_Penalty_Neutral>
0.000417804

> <r_epik_State_Penalty>
-0

> <r_epik_Charging_Adjusted_Penalty>
0

> <i_epik_Tot_Q>
0

> <i_epik_Tot_abs_Q>
0

> <r_epik_Metal_State_Penalty>
-0

> <b_epik_Metal_Only>
0

> <s_lp_Force_Field>
OPLS_2005

> <r_lp_Energy>
35.5407

> <b_lp_Chiralities_Consistent>
1

> <s_lp_Variant>
AV-unprocessed.smi:2409-2

> <Gold.Version>
5.8.1

> <Gold.Id.Protein>
6NUR|6NUR_protein|mol2

> <Gold.PLP.Fitness>
45.5117

> <Gold.PLP.PLP>
-38.4882

> <Gold.PLP.part.hbond>
-3.0000

> <Gold.PLP.part.metal>
0.0000

> <Gold.PLP.part.buried>
-5.7321

> <Gold.PLP.part.nonpolar>
-29.2610

> <Gold.PLP.part.repulsive>
0.2534

> <Gold.PLP.ligand.clash>
0.0000

> <Gold.PLP.ligand.torsion>
0.3485

> <Gold.PLP.Chemscore.Hbond>
2.5598

> <Gold.PLP.Chemscore.CHOScore>
0.0000

> <Gold.PLP.Chemscore.Metal>
0.0000

> <Gold.Chemscore.Hbonds>
donor molecule, donor type, donor heavy atom, donor atom, acceptor molecule, acceptor atom, score
      L1  H     5    21       P1  8028  0.81
      L1  H     8    22       P1  8028  1.00
      P1  H  7997  8010       L1     2  0.28

> <Gold.PLP.Chemscore.Internal.Correction>
0.0410

> <Gold.Rescore>
     Score         DG    S(hbond)    S(metal)    S(lipo)     H(rot)  DE(clash)    DE(int)     intcor
     14.41     -17.22       1.98        0.00      70.60       1.23       0.07       2.74       ----

> <Gold.Chemscore.Fitness>
14.4146

> <Gold.Chemscore.DG>
-17.2222

> <Gold.Chemscore.ZeroCoef>
-5.4800

> <Gold.Chemscore.Hbond>
1.9848

> <Gold.Chemscore.Metal>
0.0000

> <Gold.Chemscore.Lipo>
70.5950

> <Gold.Chemscore.Internal_Hbond>
0.0000

> <Gold.Chemscore.DEClash>
0.0659

> <Gold.Chemscore.DEInternal>
2.7417

> <Gold.Chemscore.Rot>
1.2292

> <Gold.Chemscore.Internal.Correction>
   9.000000E+99

> <Gold.Chemscore.Hbonds>
donor molecule, donor type, donor heavy atom, donor atom, acceptor molecule, acceptor atom, score
      L1  H     5    21       P1  8028  0.76
      L1  H     8    22       P1  8028  0.98
      P1  H  7997  8010       L1     2  0.21

> <Gold.Chemscore.Hbond.Weighted>
-6.6293

> <Gold.Chemscore.Metal.Weighted>
-0.0000

> <Gold.Chemscore.Lipo.Weighted>
-8.2596

> <Gold.Chemscore.Internal_Hbond.Weighted>
0.0000

> <Gold.Chemscore.DEClash.Weighted>
0.0659

> <Gold.Chemscore.DEInternal.Weighted>
2.7417

> <Gold.Chemscore.Rot.Weighted>
3.1467

> <Gold.Chemscore.Internal.Correction.Weighted>
   9.000000E+99

> <Gold.Protein.RotatedTorsions>
[ 6907 6896 6895 6894 ] final -118.76 input  -60.11 | X-H torsion
[ 7974 7965 7964 7962 ] final  -97.84 input  175.53 | X-H torsion
[ 8008 7997 7996 7995 ] final   43.05 input   59.86 | X-H torsion
[ 10167 10162 10161 10158 ] final -120.68 input  -65.29 | X-H torsion
[ 10718 10713 10712 10709 ] final -156.88 input   66.30 | X-H torsion
[ 10763 10752 10751 10750 ] final  150.22 input  -60.55 | X-H torsion
[ 11005 11000 10999 10996 ] final   27.21 input  -57.11 | X-H torsion

> <Gold.Protein.ActiveResidues>
 VAL166  LYS551  ARG553  GLY616  TRP617  ASP618  TYR619  PRO620  LYS621  CYS622 
 ASP623  PHE694  ASN695  SER759  ASP760  ASP761  ALA762  ILE779  LEU786  VAL792 
 PHE793  MET794  SER795  GLU796  ALA797  LYS798  CYS799  TRP800  GLU811  SER814 

> <Gold.Protein.RotatedAtoms>
  150.8247  133.8192  159.3123 H   0  0  0  0  0  0  0  0  0  0  0  0  # atno 6907 bound_to 6896
  151.5940  135.1050  160.0055 H   0  0  0  0  0  0  0  0  0  0  0  0  # atno 6908 bound_to 6896
  152.4333  133.7275  159.6625 H   0  0  0  0  0  0  0  0  0  0  0  0  # atno 6909 bound_to 6896
  145.3284  140.9436  143.2676 H   0  0  0  0  0  0  0  0  0  0  0  0  # atno 7974 bound_to 7965
  155.2963  140.3382  155.4250 H   0  0  0  0  0  0  0  0  0  0  0  0  # atno 8008 bound_to 7997
  156.2022  140.1737  156.7914 H   0  0  0  0  0  0  0  0  0  0  0  0  # atno 8009 bound_to 7997
  154.5574  140.0694  156.8749 H   0  0  0  0  0  0  0  0  0  0  0  0  # atno 8010 bound_to 7997
  140.0332  143.5227  152.2166 H   0  0  0  0  0  0  0  0  0  0  0  0  # atno 10167 bound_to 10162
  156.5325  130.8527  151.2721 H   0  0  0  0  0  0  0  0  0  0  0  0  # atno 10718 bound_to 10713
  154.0839  135.2857  155.3285 H   0  0  0  0  0  0  0  0  0  0  0  0  # atno 10763 bound_to 10752
  154.6665  135.5315  153.8087 H   0  0  0  0  0  0  0  0  0  0  0  0  # atno 10764 bound_to 10752
  153.0438  135.6547  154.1012 H   0  0  0  0  0  0  0  0  0  0  0  0  # atno 10765 bound_to 10752
  140.3287  134.2462  155.7705 H   0  0  0  0  0  0  0  0  0  0  0  0  # atno 11005 bound_to 11000
  144.8883  139.4809  143.6690 LP  0  0  0  0  0  0  0  0  0  0  0  0  # atno 17320 bound_to 7965
  146.3055  139.7566  142.9059 LP  0  0  0  0  0  0  0  0  0  0  0  0  # atno 17321 bound_to 7965
  139.6062  144.7597  151.3056 LP  0  0  0  0  0  0  0  0  0  0  0  0  # atno 17342 bound_to 10162
  140.7293  143.6912  150.7921 LP  0  0  0  0  0  0  0  0  0  0  0  0  # atno 17343 bound_to 10162
  157.7419  130.9880  150.2479 LP  0  0  0  0  0  0  0  0  0  0  0  0  # atno 17370 bound_to 10713
  156.3046  130.3763  149.7718 LP  0  0  0  0  0  0  0  0  0  0  0  0  # atno 17371 bound_to 10713
  141.2069  133.7821  157.0152 LP  0  0  0  0  0  0  0  0  0  0  0  0  # atno 17394 bound_to 11000
  140.0879  134.9610  157.1729 LP  0  0  0  0  0  0  0  0  0  0  0  0  # atno 17395 bound_to 11000

$$$$
