AV-unprocessed.smi:213|AV-procd|sdf|1639|dock3
  -GOLD-   2262020 03D 1   1.00000     0.00000
 Structure written by MMmdl.
 59 62  0  0  0  0  0  0  0  0  2 V2000
  145.3340  138.9629  154.3429 C   0  0  0  0  0  0  0  0  0  0  0  0
  146.3474  138.0122  153.6851 C   0  0  2  0  0  0  0  0  0  0  0  0
  147.0470  137.1181  154.7374 C   0  0  0  0  0  0  0  0  0  0  0  0
  147.6022  135.8670  154.1611 N   0  3  0  0  0  0  0  0  0  0  0  0
  148.5694  135.1937  155.0578 C   0  0  0  0  0  0  0  0  0  0  0  0
  149.1726  133.9642  154.3581 C   0  0  0  0  0  0  0  0  0  0  0  0
  148.1312  133.0807  153.9594 O   0  0  0  0  0  0  0  0  0  0  0  0
  147.2372  133.6911  153.0364 C   0  0  0  0  0  0  0  0  0  0  0  0
  146.5696  134.9089  153.6962 C   0  0  0  0  0  0  0  0  0  0  0  0
  147.3032  138.7448  152.8405 N   0  0  0  0  0  0  0  0  0  0  0  0
  146.9457  139.0675  151.4596 C   0  0  0  0  0  0  0  0  0  0  0  0
  148.1341  139.6121  153.4775 C   0  0  0  0  0  0  0  0  0  0  0  0
  147.8462  140.9419  153.4641 N   0  0  0  0  0  0  0  0  0  0  0  0
  148.6209  141.8090  154.1219 C   0  0  0  0  0  0  0  0  0  0  0  0
  149.7105  141.5653  154.8514 N   0  0  0  0  0  0  0  0  0  0  0  0
  150.0135  140.2359  154.8589 C   0  0  0  0  0  0  0  0  0  0  0  0
  149.2878  139.2011  154.2040 C   0  0  0  0  0  0  0  0  0  0  0  0
  149.9022  137.9757  154.4356 N   0  0  0  0  0  0  0  0  0  0  0  0
  150.9303  138.2688  155.1844 C   0  0  0  0  0  0  0  0  0  0  0  0
  151.0711  139.6034  155.4874 N   0  0  0  0  0  0  0  0  0  0  0  0
  152.1214  140.2051  156.2895 C   0  0  0  0  0  0  0  0  0  0  0  0
  151.5876  140.7874  157.6133 C   0  0  1  0  0  0  0  0  0  0  0  0
  150.8198  139.8255  158.3119 O   0  0  0  0  0  0  0  0  0  0  0  0
  152.7070  141.3429  158.5171 C   0  0  1  0  0  0  0  0  0  0  0  0
  152.2584  142.1075  159.7663 C   0  0  0  0  0  0  0  0  0  0  0  0
  153.4693  141.9534  160.6589 C   0  0  0  0  0  0  0  0  0  0  0  0
  153.9094  140.5265  160.3419 C   0  0  0  0  0  0  0  0  0  0  0  0
  153.5827  140.3132  158.9714 O   0  0  0  0  0  0  0  0  0  0  0  0
  144.5604  138.4012  154.8668 H   0  0  0  0  0  0  0  0  0  0  0  0
  144.8373  139.5830  153.5960 H   0  0  0  0  0  0  0  0  0  0  0  0
  145.8029  139.6245  155.0713 H   0  0  0  0  0  0  0  0  0  0  0  0
  145.7526  137.3549  153.0545 H   0  0  0  0  0  0  0  0  0  0  0  0
  147.8560  137.6896  155.1947 H   0  0  0  0  0  0  0  0  0  0  0  0
  146.3589  136.8694  155.5466 H   0  0  0  0  0  0  0  0  0  0  0  0
  149.3670  135.8857  155.3306 H   0  0  0  0  0  0  0  0  0  0  0  0
  148.0697  134.8963  155.9812 H   0  0  0  0  0  0  0  0  0  0  0  0
  149.7646  134.2617  153.4909 H   0  0  0  0  0  0  0  0  0  0  0  0
  149.8436  133.4373  155.0368 H   0  0  0  0  0  0  0  0  0  0  0  0
  147.7718  133.9826  152.1310 H   0  0  0  0  0  0  0  0  0  0  0  0
  146.4826  132.9627  152.7390 H   0  0  0  0  0  0  0  0  0  0  0  0
  145.9577  134.5886  154.5407 H   0  0  0  0  0  0  0  0  0  0  0  0
  145.9007  135.3828  152.9785 H   0  0  0  0  0  0  0  0  0  0  0  0
  147.8292  139.3611  150.8910 H   0  0  0  0  0  0  0  0  0  0  0  0
  146.2272  139.8872  151.4249 H   0  0  0  0  0  0  0  0  0  0  0  0
  146.5050  138.2104  150.9524 H   0  0  0  0  0  0  0  0  0  0  0  0
  148.3220  142.8452  154.0607 H   0  0  0  0  0  0  0  0  0  0  0  0
  151.6206  137.5154  155.5356 H   0  0  0  0  0  0  0  0  0  0  0  0
  152.8871  139.4520  156.4797 H   0  0  0  0  0  0  0  0  0  0  0  0
  152.5964  140.9892  155.6985 H   0  0  0  0  0  0  0  0  0  0  0  0
  150.9105  141.6096  157.3781 H   0  0  0  0  0  0  0  0  0  0  0  0
  150.0179  140.2359  158.5983 H   0  0  0  0  0  0  0  0  0  0  0  0
  153.3253  142.0163  157.9213 H   0  0  0  0  0  0  0  0  0  0  0  0
  152.0076  143.1483  159.5606 H   0  0  0  0  0  0  0  0  0  0  0  0
  151.3959  141.6380  160.2405 H   0  0  0  0  0  0  0  0  0  0  0  0
  154.2448  142.6615  160.3645 H   0  0  0  0  0  0  0  0  0  0  0  0
  153.2472  142.1067  161.7152 H   0  0  0  0  0  0  0  0  0  0  0  0
  154.9707  140.3650  160.5297 H   0  0  0  0  0  0  0  0  0  0  0  0
  153.3462  139.8137  160.9456 H   0  0  0  0  0  0  0  0  0  0  0  0
  148.1295  136.1453  153.3451 H   0  0  0  0  0  0  0  0  0  0  0  0
  1  2  1  0  0  0  0
  1 29  1  0  0  0  0
  1 30  1  0  0  0  0
  1 31  1  0  0  0  0
  2  3  1  0  0  0  0
  2 10  1  0  0  0  0
  2 32  1  0  0  0  0
  3  4  1  0  0  0  0
  3 33  1  0  0  0  0
  3 34  1  0  0  0  0
  4  9  1  0  0  0  0
  4  5  1  0  0  0  0
  4 59  1  0  0  0  0
  5  6  1  0  0  0  0
  5 35  1  0  0  0  0
  5 36  1  0  0  0  0
  6  7  1  0  0  0  0
  6 37  1  0  0  0  0
  6 38  1  0  0  0  0
  7  8  1  0  0  0  0
  8  9  1  0  0  0  0
  8 39  1  0  0  0  0
  8 40  1  0  0  0  0
  9 41  1  0  0  0  0
  9 42  1  0  0  0  0
 10 11  1  0  0  0  0
 10 12  1  0  0  0  0
 11 43  1  0  0  0  0
 11 44  1  0  0  0  0
 11 45  1  0  0  0  0
 12 17  1  0  0  0  0
 12 13  2  0  0  0  0
 13 14  1  0  0  0  0
 14 15  2  0  0  0  0
 14 46  1  0  0  0  0
 15 16  1  0  0  0  0
 16 20  1  0  0  0  0
 16 17  2  0  0  0  0
 17 18  1  0  0  0  0
 18 19  2  0  0  0  0
 19 20  1  0  0  0  0
 19 47  1  0  0  0  0
 20 21  1  0  0  0  0
 21 22  1  0  0  0  0
 21 48  1  0  0  0  0
 21 49  1  0  0  0  0
 22 23  1  0  0  0  0
 22 24  1  0  0  0  0
 22 50  1  0  0  0  0
 23 51  1  0  0  0  0
 24 28  1  0  0  0  0
 24 25  1  0  0  0  0
 24 52  1  0  0  0  0
 25 26  1  0  0  0  0
 25 53  1  0  0  0  0
 25 54  1  0  0  0  0
 26 27  1  0  0  0  0
 26 55  1  0  0  0  0
 26 56  1  0  0  0  0
 27 28  1  0  0  0  0
 27 57  1  0  0  0  0
 27 58  1  0  0  0  0
M  CHG  1   4   1
M  END
> <s_m_source_file>
AV-unprocessed.smi

> <i_m_source_file_index>
213

> <i_lp_mmshare_version>
43012

> <i_f3d_flags>
0

> <s_epik_input>
W0NIMl0xW0NIMl1PW0NIMl1bQ0gyXU4xW0NIMl1bQ0BASF0oW0NIM10pTihbQ0gzXSljKG5bY0hdbjIpYyhjMjMpbltjSF1uM1tDSDJdW0NASF0oW09IXSlbQ0BASF00W0NIMl1bQ0gyXVtDSDJdTzQ=

> <s_epik_cmdline>
J2VwaWtfcHl0aG9uJywgJy1waCcsICc3LjAnLCAnLXRuJywgJzgnLCAnLW1hJywgJzIwMCcsICctbWV0YWxfYmluZGluZycsICctaW1hZScsICc8aW5maWxlLm1hZT4nLCAnLW9tYWUnLCAnPG91dGZpbGUubWFlPic=

> <r_lp_tautomer_probability>
1

> <r_epik_Ionization_Penalty>
0.399679

> <r_epik_Ionization_Penalty_Charging>
0.399433

> <r_epik_Ionization_Penalty_Neutral>
0.000246213

> <r_epik_State_Penalty>
0.286032

> <r_epik_Charging_Adjusted_Penalty>
0.685465

> <i_epik_Tot_Q>
1

> <i_epik_Tot_abs_Q>
1

> <r_epik_Metal_State_Penalty>
0.286072

> <b_epik_Metal_Only>
0

> <s_lp_Force_Field>
OPLS_2005

> <r_lp_Energy>
47.0923

> <b_lp_Chiralities_Consistent>
1

> <s_lp_Variant>
AV-unprocessed.smi:213-7

> <Gold.Version>
5.8.1

> <Gold.Id.Protein>
6NUR|6NUR_protein|mol2

> <Gold.PLP.Fitness>
53.0253

> <Gold.PLP.PLP>
-43.5307

> <Gold.PLP.part.hbond>
-2.0000

> <Gold.PLP.part.metal>
0.0000

> <Gold.PLP.part.buried>
-0.2280

> <Gold.PLP.part.nonpolar>
-39.9130

> <Gold.PLP.part.repulsive>
0.6372

> <Gold.PLP.ligand.clash>
0.0000

> <Gold.PLP.ligand.torsion>
1.8820

> <Gold.PLP.Chemscore.Hbond>
2.9440

> <Gold.PLP.Chemscore.CHOScore>
1.0000

> <Gold.PLP.Chemscore.Metal>
0.0000

> <Gold.Chemscore.Hbonds>
donor molecule, donor type, donor heavy atom, donor atom, acceptor molecule, acceptor atom, score
      L1  H     4    59       P1  7948  2.00
      P1  H  7997  8009       L1    28  0.61
      L1  C    14    46       P1  8028  0.99

> <Gold.PLP.Chemscore.Internal.Correction>
1.4266

> <Gold.Rescore>
     Score         DG    S(hbond)    S(metal)    S(lipo)     H(rot)  DE(clash)    DE(int)     intcor
     12.09     -14.29       1.73        0.00      87.73       2.83       0.30       1.91       ----

> <Gold.Chemscore.Fitness>
12.0868

> <Gold.Chemscore.DG>
-14.2944

> <Gold.Chemscore.ZeroCoef>
-5.4800

> <Gold.Chemscore.Hbond>
1.7316

> <Gold.Chemscore.Metal>
0.0000

> <Gold.Chemscore.Lipo>
87.7251

> <Gold.Chemscore.Internal_Hbond>
0.0000

> <Gold.Chemscore.DEClash>
0.3007

> <Gold.Chemscore.DEInternal>
1.9068

> <Gold.Chemscore.Rot>
2.8254

> <Gold.Chemscore.Internal.Correction>
   9.000000E+99

> <Gold.Chemscore.Hbonds>
donor molecule, donor type, donor heavy atom, donor atom, acceptor molecule, acceptor atom, score
      L1  H     4    59       P1  7948  1.00
      P1  H  7997  8009       L1    28  0.15

> <Gold.Chemscore.Hbond.Weighted>
-5.7835

> <Gold.Chemscore.Metal.Weighted>
-0.0000

> <Gold.Chemscore.Lipo.Weighted>
-10.2638

> <Gold.Chemscore.Internal_Hbond.Weighted>
0.0000

> <Gold.Chemscore.DEClash.Weighted>
0.3007

> <Gold.Chemscore.DEInternal.Weighted>
1.9068

> <Gold.Chemscore.Rot.Weighted>
7.2330

> <Gold.Chemscore.Internal.Correction.Weighted>
   9.000000E+99

> <Gold.Protein.RotatedTorsions>
[ 6907 6896 6895 6894 ] final -134.64 input  -60.11 | X-H torsion
[ 7974 7965 7964 7962 ] final -162.67 input  175.53 | X-H torsion
[ 8008 7997 7996 7995 ] final  140.75 input   59.86 | X-H torsion
[ 10167 10162 10161 10158 ] final  -53.66 input  -65.29 | X-H torsion
[ 10718 10713 10712 10709 ] final  -37.70 input   66.30 | X-H torsion
[ 10763 10752 10751 10750 ] final -174.43 input  -60.55 | X-H torsion
[ 11005 11000 10999 10996 ] final   -5.51 input  -57.11 | X-H torsion

> <Gold.Protein.ActiveResidues>
 VAL166  LYS551  ARG553  GLY616  TRP617  ASP618  TYR619  PRO620  LYS621  CYS622 
 ASP623  PHE694  ASN695  SER759  ASP760  ASP761  ALA762  ILE779  LEU786  VAL792 
 PHE793  MET794  SER795  GLU796  ALA797  LYS798  CYS799  TRP800  GLU811  SER814 

> <Gold.Protein.RotatedAtoms>
  150.9882  133.6176  159.2712 H   0  0  0  0  0  0  0  0  0  0  0  0  # atno 6907 bound_to 6896
  151.3406  135.0862  159.9379 H   0  0  0  0  0  0  0  0  0  0  0  0  # atno 6908 bound_to 6896
  152.5237  133.9494  159.7719 H   0  0  0  0  0  0  0  0  0  0  0  0  # atno 6909 bound_to 6896
  144.7350  140.3219  143.6169 H   0  0  0  0  0  0  0  0  0  0  0  0  # atno 7974 bound_to 7965
  156.2975  140.2333  156.4451 H   0  0  0  0  0  0  0  0  0  0  0  0  # atno 8008 bound_to 7997
  154.8151  140.0441  157.1391 H   0  0  0  0  0  0  0  0  0  0  0  0  # atno 8009 bound_to 7997
  154.9379  140.3025  155.5139 H   0  0  0  0  0  0  0  0  0  0  0  0  # atno 8010 bound_to 7997
  140.6473  143.2543  151.4824 H   0  0  0  0  0  0  0  0  0  0  0  0  # atno 10167 bound_to 10162
  156.3122  130.4254  149.8039 H   0  0  0  0  0  0  0  0  0  0  0  0  # atno 10718 bound_to 10713
  154.5962  135.2850  155.0583 H   0  0  0  0  0  0  0  0  0  0  0  0  # atno 10763 bound_to 10752
  154.1865  135.6448  153.5052 H   0  0  0  0  0  0  0  0  0  0  0  0  # atno 10764 bound_to 10752
  153.0140  135.5436  154.6666 H   0  0  0  0  0  0  0  0  0  0  0  0  # atno 10765 bound_to 10752
  140.6919  133.9064  155.8624 H   0  0  0  0  0  0  0  0  0  0  0  0  # atno 11005 bound_to 11000
  145.7560  139.1809  143.2294 LP  0  0  0  0  0  0  0  0  0  0  0  0  # atno 17320 bound_to 7965
  146.1024  140.7528  142.9543 LP  0  0  0  0  0  0  0  0  0  0  0  0  # atno 17321 bound_to 7965
  139.5684  144.1986  152.1800 LP  0  0  0  0  0  0  0  0  0  0  0  0  # atno 17342 bound_to 10162
  140.1275  144.5318  150.6823 LP  0  0  0  0  0  0  0  0  0  0  0  0  # atno 17343 bound_to 10162
  156.5378  130.8286  151.3259 LP  0  0  0  0  0  0  0  0  0  0  0  0  # atno 17370 bound_to 10713
  157.7393  130.9830  150.2308 LP  0  0  0  0  0  0  0  0  0  0  0  0  # atno 17371 bound_to 10713
  141.0234  134.0857  157.4095 LP  0  0  0  0  0  0  0  0  0  0  0  0  # atno 17394 bound_to 11000
  139.8921  135.0122  156.6827 LP  0  0  0  0  0  0  0  0  0  0  0  0  # atno 17395 bound_to 11000

$$$$
