AV-unprocessed.smi:2772|AV-procd|sdf|10666|dock7
  -GOLD-   2272015113D 1   1.00000     0.00000
 Structure written by MMmdl.
 55 57  0  0  0  0  0  0  0  0  3 V2000
  152.4959  144.1402  160.2583 C   0  0  0  0  0  0  0  0  0  0  0  0
  151.9883  143.1419  159.2388 C   0  0  0  0  0  0  0  0  0  0  0  0
  152.6739  141.9325  159.0031 C   0  0  0  0  0  0  0  0  0  0  0  0
  152.1509  141.0410  158.0468 C   0  0  0  0  0  0  0  0  0  0  0  0
  150.9733  141.3892  157.3537 C   0  0  0  0  0  0  0  0  0  0  0  0
  150.4480  140.4626  156.4128 N   0  0  0  0  0  0  0  0  0  0  0  0
  149.1611  140.2515  156.0876 C   0  0  0  0  0  0  0  0  0  0  0  0
  148.2087  140.9095  156.5056 O   0  0  0  0  0  0  0  0  0  0  0  0
  149.0382  139.2368  155.2188 N   0  0  0  0  0  0  0  0  0  0  0  0
  147.7804  138.7506  154.6552 C   0  0  2  0  0  0  0  0  0  0  0  0
  147.6208  137.2510  154.9196 C   0  0  0  0  0  0  0  0  0  0  0  0
  146.3277  136.7120  154.2852 C   0  0  0  0  0  0  0  0  0  0  0  0
  146.2579  136.9720  152.8152 N   0  3  1  0  0  0  0  0  0  0  0  0
  145.0266  136.3977  152.1681 C   0  0  2  0  0  0  0  0  0  0  0  0
  144.2850  135.3537  153.0413 C   0  0  0  0  0  0  0  0  0  0  0  0
  145.1055  134.0618  153.2127 C   0  0  0  0  0  0  0  0  0  0  0  0
  145.4229  133.4555  151.8953 N   0  3  2  0  0  0  0  0  0  0  0  0
  146.1391  132.1681  152.0227 C   0  0  0  0  0  0  0  0  0  0  0  0
  146.1178  134.4047  150.9900 C   0  0  0  0  0  0  0  0  0  0  0  0
  145.2994  135.6972  150.8132 C   0  0  0  0  0  0  0  0  0  0  0  0
  146.4492  138.4262  152.5278 C   0  0  0  0  0  0  0  0  0  0  0  0
  147.7436  138.9846  153.1424 C   0  0  0  0  0  0  0  0  0  0  0  0
  150.3591  142.6251  157.6747 C   0  0  0  0  0  0  0  0  0  0  0  0
  150.8533  143.4837  158.5923 N   0  0  0  0  0  0  0  0  0  0  0  0
  153.4000  143.7800  160.7496 H   0  0  0  0  0  0  0  0  0  0  0  0
  151.7401  144.3165  161.0243 H   0  0  0  0  0  0  0  0  0  0  0  0
  152.7257  145.0908  159.7762 H   0  0  0  0  0  0  0  0  0  0  0  0
  153.5772  141.6889  159.5429 H   0  0  0  0  0  0  0  0  0  0  0  0
  152.6517  140.1046  157.8486 H   0  0  0  0  0  0  0  0  0  0  0  0
  151.1342  139.9212  155.9077 H   0  0  0  0  0  0  0  0  0  0  0  0
  149.8809  138.7615  154.9298 H   0  0  0  0  0  0  0  0  0  0  0  0
  146.9334  139.2695  155.1081 H   0  0  0  0  0  0  0  0  0  0  0  0
  148.4776  136.7057  154.5205 H   0  0  0  0  0  0  0  0  0  0  0  0
  147.6073  137.0621  155.9939 H   0  0  0  0  0  0  0  0  0  0  0  0
  146.3071  135.6454  154.4956 H   0  0  0  0  0  0  0  0  0  0  0  0
  145.4579  137.1532  154.7748 H   0  0  0  0  0  0  0  0  0  0  0  0
  144.3460  137.2313  151.9876 H   0  0  0  0  0  0  0  0  0  0  0  0
  143.9787  135.7511  154.0068 H   0  0  0  0  0  0  0  0  0  0  0  0
  143.3442  135.0970  152.5517 H   0  0  0  0  0  0  0  0  0  0  0  0
  146.0281  134.2662  153.7583 H   0  0  0  0  0  0  0  0  0  0  0  0
  144.5370  133.3474  153.8096 H   0  0  0  0  0  0  0  0  0  0  0  0
  147.1172  132.3070  152.4851 H   0  0  0  0  0  0  0  0  0  0  0  0
  146.2847  131.7105  151.0436 H   0  0  0  0  0  0  0  0  0  0  0  0
  145.5676  131.4681  152.6332 H   0  0  0  0  0  0  0  0  0  0  0  0
  147.1096  134.6331  151.3836 H   0  0  0  0  0  0  0  0  0  0  0  0
  146.2648  133.9321  150.0180 H   0  0  0  0  0  0  0  0  0  0  0  0
  144.3429  135.4349  150.3585 H   0  0  0  0  0  0  0  0  0  0  0  0
  145.7663  136.3550  150.0831 H   0  0  0  0  0  0  0  0  0  0  0  0
  146.5151  138.6088  151.4579 H   0  0  0  0  0  0  0  0  0  0  0  0
  145.5882  138.9865  152.8963 H   0  0  0  0  0  0  0  0  0  0  0  0
  147.8199  140.0517  152.9284 H   0  0  0  0  0  0  0  0  0  0  0  0
  148.6055  138.5120  152.6684 H   0  0  0  0  0  0  0  0  0  0  0  0
  149.4355  142.9392  157.2141 H   0  0  0  0  0  0  0  0  0  0  0  0
  147.0500  136.4967  152.4072 H   0  0  0  0  0  0  0  0  0  0  0  0
  144.5367  133.2423  151.4590 H   0  0  0  0  0  0  0  0  0  0  0  0
  1  2  1  0  0  0  0
  1 25  1  0  0  0  0
  1 26  1  0  0  0  0
  1 27  1  0  0  0  0
  2 24  1  0  0  0  0
  2  3  2  0  0  0  0
  3  4  1  0  0  0  0
  3 28  1  0  0  0  0
  4  5  2  0  0  0  0
  4 29  1  0  0  0  0
  5  6  1  0  0  0  0
  5 23  1  0  0  0  0
  6  7  1  0  0  0  0
  6 30  1  0  0  0  0
  7  8  2  0  0  0  0
  7  9  1  0  0  0  0
  9 10  1  0  0  0  0
  9 31  1  0  0  0  0
 10 22  1  0  0  0  0
 10 11  1  0  0  0  0
 10 32  1  0  0  0  0
 11 12  1  0  0  0  0
 11 33  1  0  0  0  0
 11 34  1  0  0  0  0
 12 13  1  0  0  0  0
 12 35  1  0  0  0  0
 12 36  1  0  0  0  0
 13 14  1  0  0  0  0
 13 21  1  0  0  0  0
 13 54  1  0  0  0  0
 14 20  1  0  0  0  0
 14 15  1  0  0  0  0
 14 37  1  0  0  0  0
 15 16  1  0  0  0  0
 15 38  1  0  0  0  0
 15 39  1  0  0  0  0
 16 17  1  0  0  0  0
 16 40  1  0  0  0  0
 16 41  1  0  0  0  0
 17 18  1  0  0  0  0
 17 19  1  0  0  0  0
 17 55  1  0  0  0  0
 18 42  1  0  0  0  0
 18 43  1  0  0  0  0
 18 44  1  0  0  0  0
 19 20  1  0  0  0  0
 19 45  1  0  0  0  0
 19 46  1  0  0  0  0
 20 47  1  0  0  0  0
 20 48  1  0  0  0  0
 21 22  1  0  0  0  0
 21 49  1  0  0  0  0
 21 50  1  0  0  0  0
 22 51  1  0  0  0  0
 22 52  1  0  0  0  0
 23 24  2  0  0  0  0
 23 53  1  0  0  0  0
M  CHG  1  13   1
M  CHG  1  17   1
M  END
> <s_m_source_file>
AV-unprocessed.smi

> <i_m_source_file_index>
2772

> <i_lp_mmshare_version>
43012

> <i_f3d_flags>
0

> <s_epik_input>
W0NIM11jMVtjSF1bY0hdYyhbY0hdbjEpW05IXUMoPU8pW05IXVtDSF0yW0NIMl1bQ0gyXU4oW0NIMl1bQ0gyXTIpW0NIXTNbQ0gyXVtDSDJdTihbQ0gzXSlbQ0gyXVtDSDJdMw==

> <s_epik_cmdline>
J2VwaWtfcHl0aG9uJywgJy1waCcsICc3LjAnLCAnLXRuJywgJzgnLCAnLW1hJywgJzIwMCcsICctbWV0YWxfYmluZGluZycsICctaW1hZScsICc8aW5maWxlLm1hZT4nLCAnLW9tYWUnLCAnPG91dGZpbGUubWFlPic=

> <r_epik_Ionization_Penalty>
0.196786

> <r_epik_Ionization_Penalty_Charging>
0.180787

> <r_epik_Ionization_Penalty_Neutral>
0.0159988

> <r_epik_State_Penalty>
0.163322

> <r_epik_Charging_Adjusted_Penalty>
0.344109

> <i_epik_Tot_Q>
2

> <i_epik_Tot_abs_Q>
2

> <r_epik_Metal_State_Penalty>
0.163596

> <b_epik_Metal_Only>
0

> <s_lp_Force_Field>
OPLS_2005

> <r_lp_Energy>
49.2909

> <b_lp_Chiralities_Consistent>
1

> <s_lp_Variant>
AV-unprocessed.smi:2772-3

> <Gold.Version>
5.8.1

> <Gold.Id.Protein>
6NUR|6NUR_protein|mol2

> <Gold.PLP.Fitness>
38.4662

> <Gold.PLP.PLP>
-32.1373

> <Gold.PLP.part.hbond>
-1.0000

> <Gold.PLP.part.metal>
0.0000

> <Gold.PLP.part.buried>
-3.9974

> <Gold.PLP.part.nonpolar>
-27.7076

> <Gold.PLP.part.repulsive>
0.2611

> <Gold.PLP.ligand.clash>
0.0000

> <Gold.PLP.ligand.torsion>
1.3498

> <Gold.PLP.Chemscore.Hbond>
2.0000

> <Gold.PLP.Chemscore.CHOScore>
1.0000

> <Gold.PLP.Chemscore.Metal>
0.0000

> <Gold.Chemscore.Hbonds>
donor molecule, donor type, donor heavy atom, donor atom, acceptor molecule, acceptor atom, score
      L1  H    13    54       P1  7948  2.00
      L1  C    23    53       P1  8028  1.00

> <Gold.PLP.Chemscore.Internal.Correction>
0.0285

> <Gold.Rescore>
     Score         DG    S(hbond)    S(metal)    S(lipo)     H(rot)  DE(clash)    DE(int)     intcor
     14.88     -17.32       0.97        0.00      99.89       1.21       0.02       2.42       ----

> <Gold.Chemscore.Fitness>
14.8788

> <Gold.Chemscore.DG>
-17.3199

> <Gold.Chemscore.ZeroCoef>
-5.4800

> <Gold.Chemscore.Hbond>
0.9725

> <Gold.Chemscore.Metal>
0.0000

> <Gold.Chemscore.Lipo>
99.8913

> <Gold.Chemscore.Internal_Hbond>
0.0000

> <Gold.Chemscore.DEClash>
0.0231

> <Gold.Chemscore.DEInternal>
2.4180

> <Gold.Chemscore.Rot>
1.2092

> <Gold.Chemscore.Internal.Correction>
   9.000000E+99

> <Gold.Chemscore.Hbonds>
donor molecule, donor type, donor heavy atom, donor atom, acceptor molecule, acceptor atom, score
      L1  H    13    54       P1  7948  0.97

> <Gold.Chemscore.Hbond.Weighted>
-3.2481

> <Gold.Chemscore.Metal.Weighted>
-0.0000

> <Gold.Chemscore.Lipo.Weighted>
-11.6873

> <Gold.Chemscore.Internal_Hbond.Weighted>
0.0000

> <Gold.Chemscore.DEClash.Weighted>
0.0231

> <Gold.Chemscore.DEInternal.Weighted>
2.4180

> <Gold.Chemscore.Rot.Weighted>
3.0955

> <Gold.Chemscore.Internal.Correction.Weighted>
   9.000000E+99

> <Gold.Protein.RotatedTorsions>
[ 6907 6896 6895 6894 ] final  -55.24 input  -60.11 | X-H torsion
[ 7974 7965 7964 7962 ] final -105.48 input  175.53 | X-H torsion
[ 8008 7997 7996 7995 ] final   71.79 input   59.86 | X-H torsion
[ 10167 10162 10161 10158 ] final  125.78 input  -65.29 | X-H torsion
[ 10718 10713 10712 10709 ] final  131.89 input   66.30 | X-H torsion
[ 10763 10752 10751 10750 ] final  -10.76 input  -60.55 | X-H torsion
[ 11005 11000 10999 10996 ] final -123.22 input  -57.11 | X-H torsion

> <Gold.Protein.ActiveResidues>
 VAL166  LYS551  ARG553  GLY616  TRP617  ASP618  TYR619  PRO620  LYS621  CYS622 
 ASP623  PHE694  ASN695  SER759  ASP760  ASP761  ALA762  ILE779  LEU786  VAL792 
 PHE793  MET794  SER795  GLU796  ALA797  LYS798  CYS799  TRP800  GLU811  SER814 

> <Gold.Protein.RotatedAtoms>
  150.8268  134.7503  159.6819 H   0  0  0  0  0  0  0  0  0  0  0  0  # atno 6907 bound_to 6896
  152.4378  134.5648  159.9914 H   0  0  0  0  0  0  0  0  0  0  0  0  # atno 6908 bound_to 6896
  151.5819  133.3339  159.3046 H   0  0  0  0  0  0  0  0  0  0  0  0  # atno 6909 bound_to 6896
  145.2299  140.9166  143.3211 H   0  0  0  0  0  0  0  0  0  0  0  0  # atno 7974 bound_to 7965
  155.7592  140.3487  155.5189 H   0  0  0  0  0  0  0  0  0  0  0  0  # atno 8008 bound_to 7997
  155.8930  140.1021  157.1426 H   0  0  0  0  0  0  0  0  0  0  0  0  # atno 8009 bound_to 7997
  154.4035  140.1300  156.4327 H   0  0  0  0  0  0  0  0  0  0  0  0  # atno 8010 bound_to 7997
  139.5667  144.6915  151.3891 H   0  0  0  0  0  0  0  0  0  0  0  0  # atno 10167 bound_to 10162
  157.4924  131.1091  150.9538 H   0  0  0  0  0  0  0  0  0  0  0  0  # atno 10718 bound_to 10713
  153.4739  135.7017  153.5977 H   0  0  0  0  0  0  0  0  0  0  0  0  # atno 10763 bound_to 10752
  153.4220  135.3823  155.2117 H   0  0  0  0  0  0  0  0  0  0  0  0  # atno 10764 bound_to 10752
  154.8724  135.3930  154.4180 H   0  0  0  0  0  0  0  0  0  0  0  0  # atno 10765 bound_to 10752
  140.9936  134.0504  157.3625 H   0  0  0  0  0  0  0  0  0  0  0  0  # atno 11005 bound_to 11000
  144.9686  139.3904  143.6320 LP  0  0  0  0  0  0  0  0  0  0  0  0  # atno 17320 bound_to 7965
  146.3355  139.8773  142.8830 LP  0  0  0  0  0  0  0  0  0  0  0  0  # atno 17321 bound_to 7965
  140.6950  143.7770  150.7313 LP  0  0  0  0  0  0  0  0  0  0  0  0  # atno 17342 bound_to 10162
  140.1263  143.4566  152.2282 LP  0  0  0  0  0  0  0  0  0  0  0  0  # atno 17343 bound_to 10162
  157.0235  130.5683  149.5334 LP  0  0  0  0  0  0  0  0  0  0  0  0  # atno 17370 bound_to 10713
  156.0181  130.5276  150.8195 LP  0  0  0  0  0  0  0  0  0  0  0  0  # atno 17371 bound_to 10713
  139.9004  135.0162  156.7239 LP  0  0  0  0  0  0  0  0  0  0  0  0  # atno 17394 bound_to 11000
  140.7001  133.9313  155.8019 LP  0  0  0  0  0  0  0  0  0  0  0  0  # atno 17395 bound_to 11000

$$$$
