AV-unprocessed.smi:166|AV-procd|sdf|1390|dock7
  -GOLD-   2262019123D 1   1.00000     0.00000
 Structure written by MMmdl.
 54 58  0  0  0  0  0  0  0  0  1 V2000
  149.7370  142.8589  157.4199 O   0  0  0  0  0  0  0  0  0  0  0  0
  151.1471  142.8901  157.5431 C   0  0  1  0  0  0  0  0  0  0  0  0
  151.7579  141.8222  156.6024 C   0  0  0  0  0  0  0  0  0  0  0  0
  151.3022  140.4664  156.8733 N   0  0  0  0  0  0  0  0  0  0  0  0
  151.2092  139.8588  158.1057 C   0  0  0  0  0  0  0  0  0  0  0  0
  150.7741  138.6286  158.0896 N   0  0  0  0  0  0  0  0  0  0  0  0
  150.5689  138.3596  156.7420 C   0  0  0  0  0  0  0  0  0  0  0  0
  150.1166  137.2256  156.0099 C   0  0  0  0  0  0  0  0  0  0  0  0
  149.7565  136.0473  156.5599 N   0  0  0  0  0  0  0  0  0  0  0  0
  149.6042  134.9807  155.5753 C   0  0  0  0  0  0  0  0  0  0  0  0
  149.4413  133.6198  156.2721 C   0  0  0  0  0  0  0  0  0  0  0  0
  148.2952  133.6608  157.2953 C   0  0  0  0  0  0  0  0  0  0  0  0
  148.5035  134.8104  158.2967 C   0  0  2  0  0  0  0  0  0  0  0  0
  147.3648  134.8486  159.1469 O   0  0  0  0  0  0  0  0  0  0  0  0
  147.4292  135.8274  160.1729 C   0  0  0  0  0  0  0  0  0  0  0  0
  146.4523  135.4514  161.2660 C   0  0  0  0  0  0  0  0  0  0  0  0
  146.7631  135.7748  162.7100 C   0  0  0  0  0  0  0  0  0  0  0  0
  146.7721  134.3418  162.2420 C   0  0  0  0  0  0  0  0  0  0  0  0
  148.6777  136.1439  157.5405 C   0  0  0  0  0  0  0  0  0  0  0  0
  150.0283  137.3310  154.6615 N   0  0  0  0  0  0  0  0  0  0  0  0
  150.3735  138.4724  154.0577 C   0  0  0  0  0  0  0  0  0  0  0  0
  150.8176  139.6061  154.6053 N   0  0  0  0  0  0  0  0  0  0  0  0
  150.8967  139.5050  155.9634 C   0  0  0  0  0  0  0  0  0  0  0  0
  151.6408  144.3001  157.2150 C   0  0  0  0  0  0  0  0  0  0  0  0
  152.6194  144.6048  158.3416 C   0  0  0  0  0  0  0  0  0  0  0  0
  152.0049  143.9834  159.4556 O   0  0  0  0  0  0  0  0  0  0  0  0
  151.5408  142.7116  159.0246 C   0  0  0  0  0  0  0  0  0  0  0  0
  149.3572  143.1576  158.2322 H   0  0  0  0  0  0  0  0  0  0  0  0
  151.5288  142.0585  155.5623 H   0  0  0  0  0  0  0  0  0  0  0  0
  152.8456  141.8347  156.6836 H   0  0  0  0  0  0  0  0  0  0  0  0
  151.4742  140.3596  159.0255 H   0  0  0  0  0  0  0  0  0  0  0  0
  148.7340  135.1858  154.9500 H   0  0  0  0  0  0  0  0  0  0  0  0
  150.4737  134.9562  154.9165 H   0  0  0  0  0  0  0  0  0  0  0  0
  149.2566  132.8411  155.5318 H   0  0  0  0  0  0  0  0  0  0  0  0
  150.3709  133.3545  156.7772 H   0  0  0  0  0  0  0  0  0  0  0  0
  147.3466  133.7947  156.7736 H   0  0  0  0  0  0  0  0  0  0  0  0
  148.2297  132.7091  157.8236 H   0  0  0  0  0  0  0  0  0  0  0  0
  149.3982  134.5979  158.8852 H   0  0  0  0  0  0  0  0  0  0  0  0
  148.4380  135.8902  160.5840 H   0  0  0  0  0  0  0  0  0  0  0  0
  147.1599  136.8123  159.7921 H   0  0  0  0  0  0  0  0  0  0  0  0
  145.4083  135.5551  160.9761 H   0  0  0  0  0  0  0  0  0  0  0  0
  147.7234  136.2365  162.9316 H   0  0  0  0  0  0  0  0  0  0  0  0
  145.9365  136.0925  163.3422 H   0  0  0  0  0  0  0  0  0  0  0  0
  145.9513  133.7025  162.5607 H   0  0  0  0  0  0  0  0  0  0  0  0
  147.7376  133.8484  162.1506 H   0  0  0  0  0  0  0  0  0  0  0  0
  148.8989  136.9542  158.2356 H   0  0  0  0  0  0  0  0  0  0  0  0
  147.7442  136.3972  157.0377 H   0  0  0  0  0  0  0  0  0  0  0  0
  150.2811  138.4781  152.9816 H   0  0  0  0  0  0  0  0  0  0  0  0
  152.0992  144.3845  156.2291 H   0  0  0  0  0  0  0  0  0  0  0  0
  150.8219  145.0204  157.2572 H   0  0  0  0  0  0  0  0  0  0  0  0
  153.5928  144.1492  158.1524 H   0  0  0  0  0  0  0  0  0  0  0  0
  152.7610  145.6738  158.5012 H   0  0  0  0  0  0  0  0  0  0  0  0
  150.7242  142.3557  159.6540 H   0  0  0  0  0  0  0  0  0  0  0  0
  152.3684  142.0107  159.1331 H   0  0  0  0  0  0  0  0  0  0  0  0
  1  2  1  0  0  0  0
  1 28  1  0  0  0  0
  2 27  1  0  0  0  0
  2  3  1  0  0  0  0
  2 24  1  0  0  0  0
  3  4  1  0  0  0  0
  3 29  1  0  0  0  0
  3 30  1  0  0  0  0
  4 23  1  0  0  0  0
  4  5  1  0  0  0  0
  5  6  2  0  0  0  0
  5 31  1  0  0  0  0
  6  7  1  0  0  0  0
  7 23  2  0  0  0  0
  7  8  1  0  0  0  0
  8  9  1  0  0  0  0
  8 20  2  0  0  0  0
  9 19  1  0  0  0  0
  9 10  1  0  0  0  0
 10 11  1  0  0  0  0
 10 32  1  0  0  0  0
 10 33  1  0  0  0  0
 11 12  1  0  0  0  0
 11 34  1  0  0  0  0
 11 35  1  0  0  0  0
 12 13  1  0  0  0  0
 12 36  1  0  0  0  0
 12 37  1  0  0  0  0
 13 14  1  0  0  0  0
 13 19  1  0  0  0  0
 13 38  1  0  0  0  0
 14 15  1  0  0  0  0
 15 16  1  0  0  0  0
 15 39  1  0  0  0  0
 15 40  1  0  0  0  0
 16 18  1  0  0  0  0
 16 17  1  0  0  0  0
 16 41  1  0  0  0  0
 17 18  1  0  0  0  0
 17 42  1  0  0  0  0
 17 43  1  0  0  0  0
 18 44  1  0  0  0  0
 18 45  1  0  0  0  0
 19 46  1  0  0  0  0
 19 47  1  0  0  0  0
 20 21  1  0  0  0  0
 21 22  2  0  0  0  0
 21 48  1  0  0  0  0
 22 23  1  0  0  0  0
 24 25  1  0  0  0  0
 24 49  1  0  0  0  0
 24 50  1  0  0  0  0
 25 26  1  0  0  0  0
 25 51  1  0  0  0  0
 25 52  1  0  0  0  0
 26 27  1  0  0  0  0
 27 53  1  0  0  0  0
 27 54  1  0  0  0  0
M  END
> <s_m_source_file>
AV-unprocessed.smi

> <i_m_source_file_index>
166

> <i_lp_mmshare_version>
43012

> <i_f3d_flags>
0

> <s_epik_input>
W0NIMl0xT1tDSDJdW0NIMl1bQ0BAXTEoW09IXSlbQ0gyXW4oW2NIXW4yKWMoYzIzKW5bY0hdbmMzTjRbQ0gyXVtDSDJdW0NIMl1bQ0BIXShbQ0gyXTQpT1tDSDJdW0NIXTVbQ0gyXVtDSDJdNQ==

> <s_epik_cmdline>
J2VwaWtfcHl0aG9uJywgJy1waCcsICc3LjAnLCAnLXRuJywgJzgnLCAnLW1hJywgJzIwMCcsICctbWV0YWxfYmluZGluZycsICctaW1hZScsICc8aW5maWxlLm1hZT4nLCAnLW9tYWUnLCAnPG91dGZpbGUubWFlPic=

> <r_lp_tautomer_probability>
1

> <r_epik_Ionization_Penalty>
0.00342552

> <r_epik_Ionization_Penalty_Charging>
0

> <r_epik_Ionization_Penalty_Neutral>
0.00342552

> <r_epik_State_Penalty>
0.0022204

> <r_epik_Charging_Adjusted_Penalty>
0.0022204

> <i_epik_Tot_Q>
0

> <i_epik_Tot_abs_Q>
0

> <r_epik_Metal_State_Penalty>
-0

> <b_epik_Metal_Only>
0

> <s_lp_Force_Field>
OPLS_2005

> <r_lp_Energy>
47.3104

> <b_lp_Chiralities_Consistent>
1

> <s_lp_Variant>
AV-unprocessed.smi:166-3

> <Gold.Version>
5.8.1

> <Gold.Id.Protein>
6NUR|6NUR_protein|mol2

> <Gold.PLP.Fitness>
47.5006

> <Gold.PLP.PLP>
-41.2066

> <Gold.PLP.part.hbond>
-2.0000

> <Gold.PLP.part.metal>
0.0000

> <Gold.PLP.part.buried>
-6.1631

> <Gold.PLP.part.nonpolar>
-34.3525

> <Gold.PLP.part.repulsive>
0.2913

> <Gold.PLP.ligand.clash>
0.0000

> <Gold.PLP.ligand.torsion>
0.7052

> <Gold.PLP.Chemscore.Hbond>
1.0000

> <Gold.PLP.Chemscore.CHOScore>
1.2980

> <Gold.PLP.Chemscore.Metal>
0.0000

> <Gold.Chemscore.Hbonds>
donor molecule, donor type, donor heavy atom, donor atom, acceptor molecule, acceptor atom, score
      P1  H  7989  7998       L1    22  1.00
      L1  C    21    48       P1  7948  0.25
      L1  C    21    48       P1  7957  1.00

> <Gold.PLP.Chemscore.Internal.Correction>
0.8105

> <Gold.Rescore>
     Score         DG    S(hbond)    S(metal)    S(lipo)     H(rot)  DE(clash)    DE(int)     intcor
     11.56     -14.33       0.97        0.00     106.56       2.68       1.88       0.89       ----

> <Gold.Chemscore.Fitness>
11.5563

> <Gold.Chemscore.DG>
-14.3271

> <Gold.Chemscore.ZeroCoef>
-5.4800

> <Gold.Chemscore.Hbond>
0.9714

> <Gold.Chemscore.Metal>
0.0000

> <Gold.Chemscore.Lipo>
106.5626

> <Gold.Chemscore.Internal_Hbond>
0.0000

> <Gold.Chemscore.DEClash>
1.8787

> <Gold.Chemscore.DEInternal>
0.8921

> <Gold.Chemscore.Rot>
2.6817

> <Gold.Chemscore.Internal.Correction>
   9.000000E+99

> <Gold.Chemscore.Hbonds>
donor molecule, donor type, donor heavy atom, donor atom, acceptor molecule, acceptor atom, score
      P1  H  7989  7998       L1    22  0.96

> <Gold.Chemscore.Hbond.Weighted>
-3.2443

> <Gold.Chemscore.Metal.Weighted>
-0.0000

> <Gold.Chemscore.Lipo.Weighted>
-12.4678

> <Gold.Chemscore.Internal_Hbond.Weighted>
0.0000

> <Gold.Chemscore.DEClash.Weighted>
1.8787

> <Gold.Chemscore.DEInternal.Weighted>
0.8921

> <Gold.Chemscore.Rot.Weighted>
6.8651

> <Gold.Chemscore.Internal.Correction.Weighted>
   9.000000E+99

> <Gold.Protein.RotatedTorsions>
[ 6907 6896 6895 6894 ] final   77.12 input  -60.11 | X-H torsion
[ 7974 7965 7964 7962 ] final  -76.26 input  175.53 | X-H torsion
[ 8008 7997 7996 7995 ] final   26.60 input   59.86 | X-H torsion
[ 10167 10162 10161 10158 ] final  159.57 input  -65.29 | X-H torsion
[ 10718 10713 10712 10709 ] final  104.14 input   66.30 | X-H torsion
[ 10763 10752 10751 10750 ] final  128.29 input  -60.55 | X-H torsion
[ 11005 11000 10999 10996 ] final -155.80 input  -57.11 | X-H torsion

> <Gold.Protein.ActiveResidues>
 VAL166  LYS551  ARG553  GLY616  TRP617  ASP618  TYR619  PRO620  LYS621  CYS622 
 ASP623  PHE694  ASN695  SER759  ASP760  ASP761  ALA762  ILE779  LEU786  VAL792 
 PHE793  MET794  SER795  GLU796  ALA797  LYS798  CYS799  TRP800  GLU811  SER814 

> <Gold.Protein.RotatedAtoms>
  152.5103  134.3865  159.9369 H   0  0  0  0  0  0  0  0  0  0  0  0  # atno 6907 bound_to 6896
  151.3824  133.3810  159.2719 H   0  0  0  0  0  0  0  0  0  0  0  0  # atno 6908 bound_to 6896
  150.9495  134.8916  159.7721 H   0  0  0  0  0  0  0  0  0  0  0  0  # atno 6909 bound_to 6896
  145.6153  140.9376  143.1167 H   0  0  0  0  0  0  0  0  0  0  0  0  # atno 7974 bound_to 7965
  155.0298  140.3157  155.4763 H   0  0  0  0  0  0  0  0  0  0  0  0  # atno 8008 bound_to 7997
  156.2876  140.2182  156.5361 H   0  0  0  0  0  0  0  0  0  0  0  0  # atno 8009 bound_to 7997
  154.7380  140.0476  157.0774 H   0  0  0  0  0  0  0  0  0  0  0  0  # atno 8010 bound_to 7997
  139.4833  144.4717  151.8567 H   0  0  0  0  0  0  0  0  0  0  0  0  # atno 10167 bound_to 10162
  157.6750  131.0796  150.5660 H   0  0  0  0  0  0  0  0  0  0  0  0  # atno 10718 bound_to 10713
  153.7231  135.3250  155.3271 H   0  0  0  0  0  0  0  0  0  0  0  0  # atno 10763 bound_to 10752
  154.8349  135.4504  154.1197 H   0  0  0  0  0  0  0  0  0  0  0  0  # atno 10764 bound_to 10752
  153.2323  135.6961  153.7956 H   0  0  0  0  0  0  0  0  0  0  0  0  # atno 10765 bound_to 10752
  140.6825  134.4129  157.5225 H   0  0  0  0  0  0  0  0  0  0  0  0  # atno 11005 bound_to 11000
  144.7253  139.7895  143.7367 LP  0  0  0  0  0  0  0  0  0  0  0  0  # atno 17320 bound_to 7965
  146.1473  139.4546  143.0071 LP  0  0  0  0  0  0  0  0  0  0  0  0  # atno 17321 bound_to 7965
  140.4186  144.2273  150.5887 LP  0  0  0  0  0  0  0  0  0  0  0  0  # atno 17342 bound_to 10162
  140.4896  143.2352  151.8838 LP  0  0  0  0  0  0  0  0  0  0  0  0  # atno 17343 bound_to 10162
  156.5962  130.4342  149.5916 LP  0  0  0  0  0  0  0  0  0  0  0  0  # atno 17370 bound_to 10713
  156.2543  130.6925  151.1673 LP  0  0  0  0  0  0  0  0  0  0  0  0  # atno 17371 bound_to 10713
  139.8947  134.8699  156.2163 LP  0  0  0  0  0  0  0  0  0  0  0  0  # atno 17394 bound_to 11000
  141.0306  133.6991  156.1424 LP  0  0  0  0  0  0  0  0  0  0  0  0  # atno 17395 bound_to 11000

$$$$
