AV-unprocessed.smi:3002|AV-procd|sdf|11433|dock1
  -GOLD-   2272016363D 1   1.00000     0.00000
 Structure written by MMmdl.
 34 35  0  0  0  0  0  0  0  0  1 V2000
  148.4999  140.5022  155.0249 C   0  0  0  0  0  0  0  0  0  0  0  0
  148.8126  139.0707  154.5354 C   0  0  2  0  0  0  0  0  0  0  0  0
  147.9531  138.0383  155.2835 C   0  0  0  0  0  0  0  0  0  0  0  0
  147.3563  138.3509  156.3141 O   0  0  0  0  0  0  0  0  0  0  0  0
  147.9114  136.8047  154.7590 N   0  0  0  0  0  0  0  0  0  0  0  0
  147.1894  135.6802  155.3394 C   0  0  0  0  0  0  0  0  0  0  0  0
  145.9730  135.3033  154.4773 C   0  0  2  0  0  0  0  0  0  0  0  0
  144.8280  136.3276  154.5972 C   0  0  0  0  0  0  0  0  0  0  0  0
  143.5782  135.7416  153.9338 C   0  0  0  0  0  0  0  0  0  0  0  0
  143.6456  133.9421  154.2657 S   0  0  0  0  0  0  0  0  0  0  0  0
  142.7882  133.6236  155.4174 O   0  0  0  0  0  0  0  0  0  0  0  0
  143.5086  133.2144  152.9951 O   0  0  0  0  0  0  0  0  0  0  0  0
  145.3981  133.9132  154.8055 C   0  0  0  0  0  0  0  0  0  0  0  0
  150.2335  138.7226  154.6226 N   0  0  0  0  0  0  0  0  0  0  0  0
  150.8673  137.5828  154.3222 C   0  0  0  0  0  0  0  0  0  0  0  0
  152.1846  137.6414  154.4546 N   0  0  0  0  0  0  0  0  0  0  0  0
  152.3149  138.9426  154.8455 C   0  0  0  0  0  0  0  0  0  0  0  0
  151.1830  139.6395  154.9402 N   0  0  0  0  0  0  0  0  0  0  0  0
  147.4272  140.6993  155.0131 H   0  0  0  0  0  0  0  0  0  0  0  0
  148.9683  141.2492  154.3833 H   0  0  0  0  0  0  0  0  0  0  0  0
  148.8552  140.6681  156.0429 H   0  0  0  0  0  0  0  0  0  0  0  0
  148.5454  139.0235  153.4783 H   0  0  0  0  0  0  0  0  0  0  0  0
  148.4266  136.6294  153.9083 H   0  0  0  0  0  0  0  0  0  0  0  0
  147.8549  134.8206  155.4378 H   0  0  0  0  0  0  0  0  0  0  0  0
  146.8668  135.9513  156.3455 H   0  0  0  0  0  0  0  0  0  0  0  0
  146.2823  135.2905  153.4308 H   0  0  0  0  0  0  0  0  0  0  0  0
  144.6148  136.5073  155.6520 H   0  0  0  0  0  0  0  0  0  0  0  0
  145.0973  137.2888  154.1585 H   0  0  0  0  0  0  0  0  0  0  0  0
  142.6493  136.1641  154.3173 H   0  0  0  0  0  0  0  0  0  0  0  0
  143.6101  135.8876  152.8539 H   0  0  0  0  0  0  0  0  0  0  0  0
  145.9298  133.1028  154.3066 H   0  0  0  0  0  0  0  0  0  0  0  0
  145.4115  133.7254  155.8798 H   0  0  0  0  0  0  0  0  0  0  0  0
  150.3569  136.6887  153.9949 H   0  0  0  0  0  0  0  0  0  0  0  0
  153.2737  139.3940  155.0546 H   0  0  0  0  0  0  0  0  0  0  0  0
  1  2  1  0  0  0  0
  1 19  1  0  0  0  0
  1 20  1  0  0  0  0
  1 21  1  0  0  0  0
  2  3  1  0  0  0  0
  2 14  1  0  0  0  0
  2 22  1  0  0  0  0
  3  4  2  0  0  0  0
  3  5  1  0  0  0  0
  5  6  1  0  0  0  0
  5 23  1  0  0  0  0
  6  7  1  0  0  0  0
  6 24  1  0  0  0  0
  6 25  1  0  0  0  0
  7 13  1  0  0  0  0
  7  8  1  0  0  0  0
  7 26  1  0  0  0  0
  8  9  1  0  0  0  0
  8 27  1  0  0  0  0
  8 28  1  0  0  0  0
  9 10  1  0  0  0  0
  9 29  1  0  0  0  0
  9 30  1  0  0  0  0
 10 11  2  0  0  0  0
 10 12  2  0  0  0  0
 10 13  1  0  0  0  0
 13 31  1  0  0  0  0
 13 32  1  0  0  0  0
 14 18  1  0  0  0  0
 14 15  1  0  0  0  0
 15 16  2  0  0  0  0
 15 33  1  0  0  0  0
 16 17  1  0  0  0  0
 17 18  2  0  0  0  0
 17 34  1  0  0  0  0
M  END
> <s_m_source_file>
AV-unprocessed.smi

> <i_m_source_file_index>
3002

> <i_lp_mmshare_version>
43012

> <i_f3d_flags>
0

> <s_epik_input>
bjFbY0hdbltjSF1uMVtDQEhdKFtDSDNdKUMoPU8pW05IXVtDSDJdW0NAQEhdKFtDSDJdMilbQ0gyXVtDSDJdUzIoPU8pPU8=

> <s_epik_cmdline>
J2VwaWtfcHl0aG9uJywgJy1waCcsICc3LjAnLCAnLXRuJywgJzgnLCAnLW1hJywgJzIwMCcsICctbWV0YWxfYmluZGluZycsICctaW1hZScsICc8aW5maWxlLm1hZT4nLCAnLW9tYWUnLCAnPG91dGZpbGUubWFlPic=

> <r_lp_tautomer_probability>
1

> <r_epik_Ionization_Penalty>
1.1748e-05

> <r_epik_Ionization_Penalty_Charging>
0

> <r_epik_Ionization_Penalty_Neutral>
1.1748e-05

> <r_epik_State_Penalty>
-0

> <r_epik_Charging_Adjusted_Penalty>
0

> <i_epik_Tot_Q>
0

> <i_epik_Tot_abs_Q>
0

> <r_epik_Metal_State_Penalty>
-0

> <b_epik_Metal_Only>
0

> <s_lp_Force_Field>
OPLS_2005

> <r_lp_Energy>
11.0715

> <b_lp_Chiralities_Consistent>
1

> <s_lp_Variant>
AV-unprocessed.smi:3002-1

> <Gold.Version>
5.8.1

> <Gold.Id.Protein>
6NUR|6NUR_protein|mol2

> <Gold.PLP.Fitness>
37.1171

> <Gold.PLP.PLP>
-24.9981

> <Gold.PLP.part.hbond>
-4.0000

> <Gold.PLP.part.metal>
0.0000

> <Gold.PLP.part.buried>
-4.3403

> <Gold.PLP.part.nonpolar>
-18.7714

> <Gold.PLP.part.repulsive>
0.4810

> <Gold.PLP.ligand.clash>
0.0000

> <Gold.PLP.ligand.torsion>
0.5153

> <Gold.PLP.Chemscore.Hbond>
3.3224

> <Gold.PLP.Chemscore.CHOScore>
1.0188

> <Gold.PLP.Chemscore.Metal>
0.0000

> <Gold.Chemscore.Hbonds>
donor molecule, donor type, donor heavy atom, donor atom, acceptor molecule, acceptor atom, score
      L1  H     5    23       P1  7948  0.71
      P1  H  7989  7998       L1    18  0.70
      P1  H 10752 10765       L1    16  0.61
      P1  H 11000 11005       L1    11  0.17
      L1  C    15    33       P1  7948  0.74
      L1  C    15    33       P1  7949  0.12

> <Gold.PLP.Chemscore.Internal.Correction>
0.1261

> <Gold.Rescore>
     Score         DG    S(hbond)    S(metal)    S(lipo)     H(rot)  DE(clash)    DE(int)     intcor
     12.31     -13.07       3.27        0.00      23.92       2.39       0.31       0.45       ----

> <Gold.Chemscore.Fitness>
12.3111

> <Gold.Chemscore.DG>
-13.0655

> <Gold.Chemscore.ZeroCoef>
-5.4800

> <Gold.Chemscore.Hbond>
3.2687

> <Gold.Chemscore.Metal>
0.0000

> <Gold.Chemscore.Lipo>
23.9162

> <Gold.Chemscore.Internal_Hbond>
0.0000

> <Gold.Chemscore.DEClash>
0.3079

> <Gold.Chemscore.DEInternal>
0.4464

> <Gold.Chemscore.Rot>
2.3946

> <Gold.Chemscore.Internal.Correction>
   9.000000E+99

> <Gold.Chemscore.Hbonds>
donor molecule, donor type, donor heavy atom, donor atom, acceptor molecule, acceptor atom, score
      L1  H     5    23       P1  7948  0.71
      P1  H  7989  7998       L1    18  0.07
      P1  H 10752 10765       L1    16  0.42
      P1  H 11000 11005       L1    11  0.17

> <Gold.Chemscore.Hbond.Weighted>
-10.9174

> <Gold.Chemscore.Metal.Weighted>
-0.0000

> <Gold.Chemscore.Lipo.Weighted>
-2.7982

> <Gold.Chemscore.Internal_Hbond.Weighted>
0.0000

> <Gold.Chemscore.DEClash.Weighted>
0.3079

> <Gold.Chemscore.DEInternal.Weighted>
0.4464

> <Gold.Chemscore.Rot.Weighted>
6.1301

> <Gold.Chemscore.Internal.Correction.Weighted>
   9.000000E+99

> <Gold.Protein.RotatedTorsions>
[ 6907 6896 6895 6894 ] final   33.35 input  -60.11 | X-H torsion
[ 7974 7965 7964 7962 ] final  145.55 input  175.53 | X-H torsion
[ 8008 7997 7996 7995 ] final   84.60 input   59.86 | X-H torsion
[ 10167 10162 10161 10158 ] final  144.81 input  -65.29 | X-H torsion
[ 10718 10713 10712 10709 ] final   10.87 input   66.30 | X-H torsion
[ 10763 10752 10751 10750 ] final  161.37 input  -60.55 | X-H torsion
[ 11005 11000 10999 10996 ] final    5.85 input  -57.11 | X-H torsion

> <Gold.Protein.ActiveResidues>
 VAL166  LYS551  ARG553  GLY616  TRP617  ASP618  TYR619  PRO620  LYS621  CYS622 
 ASP623  PHE694  ASN695  SER759  ASP760  ASP761  ALA762  ILE779  LEU786  VAL792 
 PHE793  MET794  SER795  GLU796  ALA797  LYS798  CYS799  TRP800  GLU811  SER814 

> <Gold.Protein.RotatedAtoms>
  152.0872  134.9431  160.0572 H   0  0  0  0  0  0  0  0  0  0  0  0  # atno 6907 bound_to 6896
  152.0697  133.4096  159.4462 H   0  0  0  0  0  0  0  0  0  0  0  0  # atno 6908 bound_to 6896
  150.6836  134.3026  159.4756 H   0  0  0  0  0  0  0  0  0  0  0  0  # atno 6909 bound_to 6896
  144.8743  139.5797  143.5872 H   0  0  0  0  0  0  0  0  0  0  0  0  # atno 7974 bound_to 7965
  155.9392  140.3409  155.6313 H   0  0  0  0  0  0  0  0  0  0  0  0  # atno 8008 bound_to 7997
  155.7061  140.0766  157.2409 H   0  0  0  0  0  0  0  0  0  0  0  0  # atno 8009 bound_to 7997
  154.4099  140.1631  156.2232 H   0  0  0  0  0  0  0  0  0  0  0  0  # atno 8010 bound_to 7997
  139.4939  144.5946  151.6611 H   0  0  0  0  0  0  0  0  0  0  0  0  # atno 10167 bound_to 10162
  156.9872  130.6028  149.5682 H   0  0  0  0  0  0  0  0  0  0  0  0  # atno 10718 bound_to 10713
  154.2619  135.2768  155.2774 H   0  0  0  0  0  0  0  0  0  0  0  0  # atno 10763 bound_to 10752
  154.5376  135.5712  153.6815 H   0  0  0  0  0  0  0  0  0  0  0  0  # atno 10764 bound_to 10752
  152.9960  135.6243  154.2770 H   0  0  0  0  0  0  0  0  0  0  0  0  # atno 10765 bound_to 10752
  140.5661  134.0146  155.7990 H   0  0  0  0  0  0  0  0  0  0  0  0  # atno 11005 bound_to 11000
  146.2952  139.7256  142.9132 LP  0  0  0  0  0  0  0  0  0  0  0  0  # atno 17320 bound_to 7965
  145.4072  141.0392  143.3037 LP  0  0  0  0  0  0  0  0  0  0  0  0  # atno 17321 bound_to 7965
  140.5580  144.0315  150.6156 LP  0  0  0  0  0  0  0  0  0  0  0  0  # atno 17342 bound_to 10162
  140.3392  143.3030  152.0606 LP  0  0  0  0  0  0  0  0  0  0  0  0  # atno 17343 bound_to 10162
  156.0221  130.5316  150.8305 LP  0  0  0  0  0  0  0  0  0  0  0  0  # atno 17370 bound_to 10713
  157.5484  131.0943  150.9730 LP  0  0  0  0  0  0  0  0  0  0  0  0  # atno 17371 bound_to 10713
  141.1085  133.9655  157.2954 LP  0  0  0  0  0  0  0  0  0  0  0  0  # atno 17394 bound_to 11000
  139.9384  135.0194  156.8630 LP  0  0  0  0  0  0  0  0  0  0  0  0  # atno 17395 bound_to 11000

$$$$
