AV-unprocessed.smi:1450|AV-procd|sdf|5898|dock6
  -GOLD-   22720 5583D 1   1.00000     0.00000
 Structure written by MMmdl.
 31 32  0  0  0  0  0  0  0  0  1 V2000
  144.7117  136.7163  152.3562 O   0  0  0  0  0  0  0  0  0  0  0  0
  145.9176  136.5185  152.2113 C   0  0  0  0  0  0  0  0  0  0  0  0
  146.8568  137.4209  152.5285 N   0  0  0  0  0  0  0  0  0  0  0  0
  146.5935  138.7548  153.0582 C   0  0  0  0  0  0  0  0  0  0  0  0
  147.8613  139.6307  153.0777 C   0  0  1  0  0  0  0  0  0  0  0  0
  147.6394  141.0294  153.6383 C   0  0  0  0  0  0  0  0  0  0  0  0
  148.9429  141.3528  154.3779 C   0  0  0  0  0  0  0  0  0  0  0  0
  149.8037  140.2451  154.1474 O   0  0  0  0  0  0  0  0  0  0  0  0
  148.9912  139.1001  153.9572 C   0  0  0  0  0  0  0  0  0  0  0  0
  146.4718  135.3890  151.7384 N   0  0  0  0  0  0  0  0  0  0  0  0
  145.8282  134.2137  151.2634 C   0  0  0  0  0  0  0  0  0  0  0  0
  144.4184  134.1888  151.2656 C   0  0  0  0  0  0  0  0  0  0  0  0
  143.7505  133.0329  150.8190 C   0  0  0  0  0  0  0  0  0  0  0  0
  144.5238  131.9362  150.3924 C   0  0  0  0  0  0  0  0  0  0  0  0
  145.8733  131.9368  150.3964 N   0  0  0  0  0  0  0  0  0  0  0  0
  146.5076  133.0496  150.8246 C   0  0  0  0  0  0  0  0  0  0  0  0
  147.8245  137.1716  152.3853 H   0  0  0  0  0  0  0  0  0  0  0  0
  145.8081  139.2384  152.4750 H   0  0  0  0  0  0  0  0  0  0  0  0
  146.2002  138.6424  154.0691 H   0  0  0  0  0  0  0  0  0  0  0  0
  148.2464  139.7352  152.0619 H   0  0  0  0  0  0  0  0  0  0  0  0
  147.4304  141.7461  152.8432 H   0  0  0  0  0  0  0  0  0  0  0  0
  146.8014  141.0541  154.3364 H   0  0  0  0  0  0  0  0  0  0  0  0
  149.4031  142.2762  154.0254 H   0  0  0  0  0  0  0  0  0  0  0  0
  148.7606  141.4518  155.4488 H   0  0  0  0  0  0  0  0  0  0  0  0
  148.6163  138.7514  154.9210 H   0  0  0  0  0  0  0  0  0  0  0  0
  149.5476  138.2888  153.4871 H   0  0  0  0  0  0  0  0  0  0  0  0
  147.4803  135.3511  151.7549 H   0  0  0  0  0  0  0  0  0  0  0  0
  143.8523  135.0453  151.6020 H   0  0  0  0  0  0  0  0  0  0  0  0
  142.6716  132.9873  150.8048 H   0  0  0  0  0  0  0  0  0  0  0  0
  144.0457  131.0328  150.0440 H   0  0  0  0  0  0  0  0  0  0  0  0
  147.5837  132.9777  150.8275 H   0  0  0  0  0  0  0  0  0  0  0  0
  1  2  2  0  0  0  0
  2  3  1  0  0  0  0
  2 10  1  0  0  0  0
  3  4  1  0  0  0  0
  3 17  1  0  0  0  0
  4  5  1  0  0  0  0
  4 18  1  0  0  0  0
  4 19  1  0  0  0  0
  5  9  1  0  0  0  0
  5  6  1  0  0  0  0
  5 20  1  0  0  0  0
  6  7  1  0  0  0  0
  6 21  1  0  0  0  0
  6 22  1  0  0  0  0
  7  8  1  0  0  0  0
  7 23  1  0  0  0  0
  7 24  1  0  0  0  0
  8  9  1  0  0  0  0
  9 25  1  0  0  0  0
  9 26  1  0  0  0  0
 10 11  1  0  0  0  0
 10 27  1  0  0  0  0
 11 16  1  0  0  0  0
 11 12  2  0  0  0  0
 12 13  1  0  0  0  0
 12 28  1  0  0  0  0
 13 14  2  0  0  0  0
 13 29  1  0  0  0  0
 14 15  1  0  0  0  0
 14 30  1  0  0  0  0
 15 16  2  0  0  0  0
 16 31  1  0  0  0  0
M  END
> <s_m_source_file>
AV-unprocessed.smi

> <i_m_source_file_index>
1450

> <i_lp_mmshare_version>
43012

> <i_f3d_flags>
0

> <s_epik_input>
W2NIXTFuW2NIXVtjSF1bY0hdYzFbTkhdQyg9TylbTkhdW0NIMl1bQ0BASF0yW0NIMl1bQ0gyXU9bQ0gyXTI=

> <s_epik_cmdline>
J2VwaWtfcHl0aG9uJywgJy1waCcsICc3LjAnLCAnLXRuJywgJzgnLCAnLW1hJywgJzIwMCcsICctbWV0YWxfYmluZGluZycsICctaW1hZScsICc8aW5maWxlLm1hZT4nLCAnLW9tYWUnLCAnPG91dGZpbGUubWFlPic=

> <r_epik_Ionization_Penalty>
0.00478342

> <r_epik_Ionization_Penalty_Charging>
0

> <r_epik_Ionization_Penalty_Neutral>
0.00478342

> <r_epik_State_Penalty>
0.0034384

> <r_epik_Charging_Adjusted_Penalty>
0.0034384

> <i_epik_Tot_Q>
0

> <i_epik_Tot_abs_Q>
0

> <r_epik_Metal_State_Penalty>
-0

> <b_epik_Metal_Only>
0

> <s_lp_Force_Field>
OPLS_2005

> <r_lp_Energy>
21.9504

> <b_lp_Chiralities_Consistent>
1

> <s_lp_Variant>
AV-unprocessed.smi:1450-2

> <Gold.Version>
5.8.1

> <Gold.Id.Protein>
6NUR|6NUR_protein|mol2

> <Gold.PLP.Fitness>
38.7874

> <Gold.PLP.PLP>
-28.1490

> <Gold.PLP.part.hbond>
-2.8952

> <Gold.PLP.part.metal>
0.0000

> <Gold.PLP.part.buried>
-0.0775

> <Gold.PLP.part.nonpolar>
-26.1603

> <Gold.PLP.part.repulsive>
1.2629

> <Gold.PLP.ligand.clash>
0.0000

> <Gold.PLP.ligand.torsion>
0.0507

> <Gold.PLP.Chemscore.Hbond>
2.7872

> <Gold.PLP.Chemscore.CHOScore>
0.7919

> <Gold.PLP.Chemscore.Metal>
0.0000

> <Gold.Chemscore.Hbonds>
donor molecule, donor type, donor heavy atom, donor atom, acceptor molecule, acceptor atom, score
      L1  H     3    17       P1  7948  1.00
      L1  H    10    27       P1  7948  0.96
      P1  H  7989  7998       L1     8  0.83
      L1  C    16    31       P1 10747  0.80

> <Gold.PLP.Chemscore.Internal.Correction>
0.0023

> <Gold.Rescore>
     Score         DG    S(hbond)    S(metal)    S(lipo)     H(rot)  DE(clash)    DE(int)     intcor
     15.96     -18.81       2.51        0.00      69.43       1.24       1.35       1.49       ----

> <Gold.Chemscore.Fitness>
15.9617

> <Gold.Chemscore.DG>
-18.8088

> <Gold.Chemscore.ZeroCoef>
-5.4800

> <Gold.Chemscore.Hbond>
2.5081

> <Gold.Chemscore.Metal>
0.0000

> <Gold.Chemscore.Lipo>
69.4308

> <Gold.Chemscore.Internal_Hbond>
0.0000

> <Gold.Chemscore.DEClash>
1.3546

> <Gold.Chemscore.DEInternal>
1.4925

> <Gold.Chemscore.Rot>
1.2390

> <Gold.Chemscore.Internal.Correction>
   9.000000E+99

> <Gold.Chemscore.Hbonds>
donor molecule, donor type, donor heavy atom, donor atom, acceptor molecule, acceptor atom, score
      L1  H     3    17       P1  7948  0.92
      L1  H    10    27       P1  7948  0.88
      P1  H  7989  7998       L1     8  0.57

> <Gold.Chemscore.Hbond.Weighted>
-8.3772

> <Gold.Chemscore.Metal.Weighted>
-0.0000

> <Gold.Chemscore.Lipo.Weighted>
-8.1234

> <Gold.Chemscore.Internal_Hbond.Weighted>
0.0000

> <Gold.Chemscore.DEClash.Weighted>
1.3546

> <Gold.Chemscore.DEInternal.Weighted>
1.4925

> <Gold.Chemscore.Rot.Weighted>
3.1718

> <Gold.Chemscore.Internal.Correction.Weighted>
   9.000000E+99

> <Gold.Protein.RotatedTorsions>
[ 6907 6896 6895 6894 ] final  143.29 input  -60.11 | X-H torsion
[ 7974 7965 7964 7962 ] final  -21.61 input  175.53 | X-H torsion
[ 8008 7997 7996 7995 ] final  -20.43 input   59.86 | X-H torsion
[ 10167 10162 10161 10158 ] final -103.24 input  -65.29 | X-H torsion
[ 10718 10713 10712 10709 ] final -134.65 input   66.30 | X-H torsion
[ 10763 10752 10751 10750 ] final  178.47 input  -60.55 | X-H torsion
[ 11005 11000 10999 10996 ] final  -83.02 input  -57.11 | X-H torsion

> <Gold.Protein.ActiveResidues>
 VAL166  LYS551  ARG553  GLY616  TRP617  ASP618  TYR619  PRO620  LYS621  CYS622 
 ASP623  PHE694  ASN695  SER759  ASP760  ASP761  ALA762  ILE779  LEU786  VAL792 
 PHE793  MET794  SER795  GLU796  ALA797  LYS798  CYS799  TRP800  GLU811  SER814 

> <Gold.Protein.RotatedAtoms>
  152.2082  133.4891  159.5095 H   0  0  0  0  0  0  0  0  0  0  0  0  # atno 6907 bound_to 6896
  150.6984  134.1502  159.4146 H   0  0  0  0  0  0  0  0  0  0  0  0  # atno 6908 bound_to 6896
  151.9421  135.0208  160.0587 H   0  0  0  0  0  0  0  0  0  0  0  0  # atno 6909 bound_to 6896
  146.1723  140.4364  142.8527 H   0  0  0  0  0  0  0  0  0  0  0  0  # atno 7974 bound_to 7965
  154.4770  140.2062  155.9854 H   0  0  0  0  0  0  0  0  0  0  0  0  # atno 8008 bound_to 7997
  156.1105  140.3229  155.8036 H   0  0  0  0  0  0  0  0  0  0  0  0  # atno 8009 bound_to 7997
  155.4642  140.0526  157.2978 H   0  0  0  0  0  0  0  0  0  0  0  0  # atno 8010 bound_to 7997
  140.2220  143.3668  152.0961 H   0  0  0  0  0  0  0  0  0  0  0  0  # atno 10167 bound_to 10162
  156.2577  130.7191  151.1113 H   0  0  0  0  0  0  0  0  0  0  0  0  # atno 10718 bound_to 10713
  154.5080  135.2787  155.1366 H   0  0  0  0  0  0  0  0  0  0  0  0  # atno 10763 bound_to 10752
  154.2973  135.6255  153.5413 H   0  0  0  0  0  0  0  0  0  0  0  0  # atno 10764 bound_to 10752
  152.9914  135.5688  154.5539 H   0  0  0  0  0  0  0  0  0  0  0  0  # atno 10765 bound_to 10752
  141.1660  133.7273  156.8658 H   0  0  0  0  0  0  0  0  0  0  0  0  # atno 11005 bound_to 11000
  144.8182  140.6505  143.6370 LP  0  0  0  0  0  0  0  0  0  0  0  0  # atno 17320 bound_to 7965
  145.4306  139.1550  143.4024 LP  0  0  0  0  0  0  0  0  0  0  0  0  # atno 17321 bound_to 7965
  139.5140  144.6942  151.5677 LP  0  0  0  0  0  0  0  0  0  0  0  0  # atno 17342 bound_to 10162
  140.6248  143.9190  150.6555 LP  0  0  0  0  0  0  0  0  0  0  0  0  # atno 17343 bound_to 10162
  157.7239  131.0663  150.6019 LP  0  0  0  0  0  0  0  0  0  0  0  0  # atno 17370 bound_to 10713
  156.6104  130.4378  149.5861 LP  0  0  0  0  0  0  0  0  0  0  0  0  # atno 17371 bound_to 10713
  140.1816  134.9029  157.2956 LP  0  0  0  0  0  0  0  0  0  0  0  0  # atno 17394 bound_to 11000
  140.2388  134.3820  155.7489 LP  0  0  0  0  0  0  0  0  0  0  0  0  # atno 17395 bound_to 11000

$$$$
