AV-unprocessed.smi:2520|AV-procd|sdf|9910|dock7
  -GOLD-   2272013543D 1   1.00000     0.00000
 Structure written by MMmdl.
 41 44  0  0  0  0  0  0  0  0  1 V2000
  150.3803  136.4284  158.9503 O   0  0  0  0  0  0  0  0  0  0  0  0
  149.5513  137.3306  159.0568 C   0  0  0  0  0  0  0  0  0  0  0  0
  148.4578  137.1842  159.8345 N   0  0  0  0  0  0  0  0  0  0  0  0
  148.0174  136.0947  160.6414 C   0  0  0  0  0  0  0  0  0  0  0  0
  147.4557  136.4665  161.8816 C   0  0  0  0  0  0  0  0  0  0  0  0
  146.9868  135.4532  162.7351 C   0  0  0  0  0  0  0  0  0  0  0  0
  147.1092  134.1270  162.2876 C   0  0  0  0  0  0  0  0  0  0  0  0
  147.6493  133.8142  161.0901 N   0  0  0  0  0  0  0  0  0  0  0  0
  148.0920  134.7848  160.2839 N   0  0  0  0  0  0  0  0  0  0  0  0
  149.6711  138.5044  158.4170 N   0  0  0  0  0  0  0  0  0  0  0  0
  150.7919  138.8780  157.5634 C   0  0  1  0  0  0  0  0  0  0  0  0
  150.4086  138.9064  156.0747 C   0  0  2  0  0  0  0  0  0  0  0  0
  151.0309  137.9224  155.1224 C   0  0  0  0  0  0  0  0  0  0  0  0
  152.2101  138.7086  154.5421 C   0  0  0  0  0  0  0  0  0  0  0  0
  152.4684  139.7316  155.5012 O   0  0  0  0  0  0  0  0  0  0  0  0
  151.2091  140.1970  155.9805 C   0  0  2  0  0  0  0  0  0  0  0  0
  151.0732  140.3980  157.5045 C   0  0  0  0  0  0  0  0  0  0  0  0
  152.2858  140.9478  158.2510 C   0  0  0  0  0  0  0  0  0  0  0  0
  152.1338  142.4721  158.3134 C   0  0  0  0  0  0  0  0  0  0  0  0
  150.6601  142.7595  158.0088 C   0  0  0  0  0  0  0  0  0  0  0  0
  149.9882  141.3882  157.9379 C   0  0  0  0  0  0  0  0  0  0  0  0
  147.8178  137.9645  159.8043 H   0  0  0  0  0  0  0  0  0  0  0  0
  147.3855  137.5038  162.1754 H   0  0  0  0  0  0  0  0  0  0  0  0
  146.5500  135.6835  163.6955 H   0  0  0  0  0  0  0  0  0  0  0  0
  146.7684  133.3036  162.8973 H   0  0  0  0  0  0  0  0  0  0  0  0
  148.9463  139.1951  158.5518 H   0  0  0  0  0  0  0  0  0  0  0  0
  151.7008  138.2978  157.7395 H   0  0  0  0  0  0  0  0  0  0  0  0
  149.3428  139.0839  155.9176 H   0  0  0  0  0  0  0  0  0  0  0  0
  151.3784  137.0347  155.6519 H   0  0  0  0  0  0  0  0  0  0  0  0
  150.3412  137.5997  154.3420 H   0  0  0  0  0  0  0  0  0  0  0  0
  153.0885  138.0859  154.3724 H   0  0  0  0  0  0  0  0  0  0  0  0
  151.9317  139.1733  153.5953 H   0  0  0  0  0  0  0  0  0  0  0  0
  150.7541  140.9609  155.3481 H   0  0  0  0  0  0  0  0  0  0  0  0
  152.3061  140.5456  159.2648 H   0  0  0  0  0  0  0  0  0  0  0  0
  153.2301  140.6628  157.7867 H   0  0  0  0  0  0  0  0  0  0  0  0
  152.4244  142.8533  159.2928 H   0  0  0  0  0  0  0  0  0  0  0  0
  152.7707  142.9537  157.5706 H   0  0  0  0  0  0  0  0  0  0  0  0
  150.1977  143.4031  158.7578 H   0  0  0  0  0  0  0  0  0  0  0  0
  150.5766  143.2623  157.0445 H   0  0  0  0  0  0  0  0  0  0  0  0
  149.1309  141.3960  157.2638 H   0  0  0  0  0  0  0  0  0  0  0  0
  149.6098  141.1348  158.9289 H   0  0  0  0  0  0  0  0  0  0  0  0
  1  2  2  0  0  0  0
  2  3  1  0  0  0  0
  2 10  1  0  0  0  0
  3  4  1  0  0  0  0
  3 22  1  0  0  0  0
  4  9  1  0  0  0  0
  4  5  2  0  0  0  0
  5  6  1  0  0  0  0
  5 23  1  0  0  0  0
  6  7  2  0  0  0  0
  6 24  1  0  0  0  0
  7  8  1  0  0  0  0
  7 25  1  0  0  0  0
  8  9  2  0  0  0  0
 10 11  1  0  0  0  0
 10 26  1  0  0  0  0
 11 17  1  0  0  0  0
 11 12  1  0  0  0  0
 11 27  1  0  0  0  0
 12 16  1  0  0  0  0
 12 13  1  0  0  0  0
 12 28  1  0  0  0  0
 13 14  1  0  0  0  0
 13 29  1  0  0  0  0
 13 30  1  0  0  0  0
 14 15  1  0  0  0  0
 14 31  1  0  0  0  0
 14 32  1  0  0  0  0
 15 16  1  0  0  0  0
 16 17  1  0  0  0  0
 16 33  1  0  0  0  0
 17 21  1  0  0  0  0
 17 18  1  0  0  0  0
 18 19  1  0  0  0  0
 18 34  1  0  0  0  0
 18 35  1  0  0  0  0
 19 20  1  0  0  0  0
 19 36  1  0  0  0  0
 19 37  1  0  0  0  0
 20 21  1  0  0  0  0
 20 38  1  0  0  0  0
 20 39  1  0  0  0  0
 21 40  1  0  0  0  0
 21 41  1  0  0  0  0
M  END
> <s_m_source_file>
AV-unprocessed.smi

> <i_m_source_file_index>
2520

> <i_lp_mmshare_version>
43012

> <i_f3d_flags>
0

> <s_epik_input>
bjFuW2NIXVtjSF1bY0hdYzFbTkhdQyg9TylbTkhdW0NAQEhdMltDQEBIXShbQ0gyXVtDSDJdTzMpW0NASF0zQzI0W0NIMl1bQ0gyXVtDSDJdW0NIMl00

> <s_epik_cmdline>
J2VwaWtfcHl0aG9uJywgJy1waCcsICc3LjAnLCAnLXRuJywgJzgnLCAnLW1hJywgJzIwMCcsICctbWV0YWxfYmluZGluZycsICctaW1hZScsICc8aW5maWxlLm1hZT4nLCAnLW9tYWUnLCAnPG91dGZpbGUubWFlPic=

> <r_lp_tautomer_probability>
1

> <r_epik_Ionization_Penalty>
0.00552561

> <r_epik_Ionization_Penalty_Charging>
0

> <r_epik_Ionization_Penalty_Neutral>
0.00552561

> <r_epik_State_Penalty>
-0

> <r_epik_Charging_Adjusted_Penalty>
0

> <i_epik_Tot_Q>
0

> <i_epik_Tot_abs_Q>
0

> <r_epik_Metal_State_Penalty>
-0

> <b_epik_Metal_Only>
0

> <s_lp_Force_Field>
OPLS_2005

> <r_lp_Energy>
61.147

> <b_lp_Chiralities_Consistent>
1

> <s_lp_Variant>
AV-unprocessed.smi:2520-4

> <Gold.Version>
5.8.1

> <Gold.Id.Protein>
6NUR|6NUR_protein|mol2

> <Gold.PLP.Fitness>
42.0120

> <Gold.PLP.PLP>
-36.9515

> <Gold.PLP.part.hbond>
-2.3230

> <Gold.PLP.part.metal>
0.0000

> <Gold.PLP.part.buried>
-6.9039

> <Gold.PLP.part.nonpolar>
-28.7680

> <Gold.PLP.part.repulsive>
0.4301

> <Gold.PLP.ligand.clash>
0.0000

> <Gold.PLP.ligand.torsion>
0.5627

> <Gold.PLP.Chemscore.Hbond>
2.0000

> <Gold.PLP.Chemscore.CHOScore>
0.0000

> <Gold.PLP.Chemscore.Metal>
0.0000

> <Gold.Chemscore.Hbonds>
donor molecule, donor type, donor heavy atom, donor atom, acceptor molecule, acceptor atom, score
      P1  H  6896  6907       L1     1  1.00
      P1  H  7997  8009       L1    15  0.89

> <Gold.PLP.Chemscore.Internal.Correction>
0.1859

> <Gold.Rescore>
     Score         DG    S(hbond)    S(metal)    S(lipo)     H(rot)  DE(clash)    DE(int)     intcor
     19.64     -20.18       1.98        0.00      90.93       1.00       0.00       0.54       ----

> <Gold.Chemscore.Fitness>
19.6432

> <Gold.Chemscore.DG>
-20.1832

> <Gold.Chemscore.ZeroCoef>
-5.4800

> <Gold.Chemscore.Hbond>
1.9832

> <Gold.Chemscore.Metal>
0.0000

> <Gold.Chemscore.Lipo>
90.9336

> <Gold.Chemscore.Internal_Hbond>
0.0000

> <Gold.Chemscore.DEClash>
0.0033

> <Gold.Chemscore.DEInternal>
0.5367

> <Gold.Chemscore.Rot>
1.0000

> <Gold.Chemscore.Internal.Correction>
   9.000000E+99

> <Gold.Chemscore.Hbonds>
donor molecule, donor type, donor heavy atom, donor atom, acceptor molecule, acceptor atom, score
      P1  H  6896  6907       L1     1  0.94
      P1  H  7997  8009       L1    15  0.86

> <Gold.Chemscore.Hbond.Weighted>
-6.6240

> <Gold.Chemscore.Metal.Weighted>
-0.0000

> <Gold.Chemscore.Lipo.Weighted>
-10.6392

> <Gold.Chemscore.Internal_Hbond.Weighted>
0.0000

> <Gold.Chemscore.DEClash.Weighted>
0.0033

> <Gold.Chemscore.DEInternal.Weighted>
0.5367

> <Gold.Chemscore.Rot.Weighted>
2.5600

> <Gold.Chemscore.Internal.Correction.Weighted>
   9.000000E+99

> <Gold.Protein.RotatedTorsions>
[ 6907 6896 6895 6894 ] final  -53.67 input  -60.11 | X-H torsion
[ 7974 7965 7964 7962 ] final  136.45 input  175.53 | X-H torsion
[ 8008 7997 7996 7995 ] final -161.65 input   59.86 | X-H torsion
[ 10167 10162 10161 10158 ] final   11.88 input  -65.29 | X-H torsion
[ 10718 10713 10712 10709 ] final  157.24 input   66.30 | X-H torsion
[ 10763 10752 10751 10750 ] final  165.98 input  -60.55 | X-H torsion
[ 11005 11000 10999 10996 ] final  128.40 input  -57.11 | X-H torsion

> <Gold.Protein.ActiveResidues>
 VAL166  LYS551  ARG553  GLY616  TRP617  ASP618  TYR619  PRO620  LYS621  CYS622 
 ASP623  PHE694  ASN695  SER759  ASP760  ASP761  ALA762  ILE779  LEU786  VAL792 
 PHE793  MET794  SER795  GLU796  ALA797  LYS798  CYS799  TRP800  GLU811  SER814 

> <Gold.Protein.RotatedAtoms>
  150.8406  134.7696  159.6928 H   0  0  0  0  0  0  0  0  0  0  0  0  # atno 6907 bound_to 6896
  152.4494  134.5423  159.9852 H   0  0  0  0  0  0  0  0  0  0  0  0  # atno 6908 bound_to 6896
  151.5564  133.3372  159.2998 H   0  0  0  0  0  0  0  0  0  0  0  0  # atno 6909 bound_to 6896
  144.9564  139.4760  143.5501 H   0  0  0  0  0  0  0  0  0  0  0  0  # atno 7974 bound_to 7965
  155.7953  140.0884  157.1987 H   0  0  0  0  0  0  0  0  0  0  0  0  # atno 8008 bound_to 7997
  154.3984  140.1482  156.3269 H   0  0  0  0  0  0  0  0  0  0  0  0  # atno 8009 bound_to 7997
  155.8517  140.3434  155.5700 H   0  0  0  0  0  0  0  0  0  0  0  0  # atno 8010 bound_to 7997
  140.6103  143.8421  150.7058 H   0  0  0  0  0  0  0  0  0  0  0  0  # atno 10167 bound_to 10162
  157.1942  131.0661  151.2062 H   0  0  0  0  0  0  0  0  0  0  0  0  # atno 10718 bound_to 10713
  154.3321  135.2754  155.2466 H   0  0  0  0  0  0  0  0  0  0  0  0  # atno 10763 bound_to 10752
  154.4774  135.5867  153.6368 H   0  0  0  0  0  0  0  0  0  0  0  0  # atno 10764 bound_to 10752
  152.9865  135.6103  154.3514 H   0  0  0  0  0  0  0  0  0  0  0  0  # atno 10765 bound_to 10752
  139.9559  134.9613  156.8996 H   0  0  0  0  0  0  0  0  0  0  0  0  # atno 11005 bound_to 11000
  146.3338  139.8684  142.8844 LP  0  0  0  0  0  0  0  0  0  0  0  0  # atno 17320 bound_to 7965
  145.2766  141.0125  143.3741 LP  0  0  0  0  0  0  0  0  0  0  0  0  # atno 17321 bound_to 7965
  140.1988  143.3976  152.1808 LP  0  0  0  0  0  0  0  0  0  0  0  0  # atno 17342 bound_to 10162
  139.5356  144.7206  151.4904 LP  0  0  0  0  0  0  0  0  0  0  0  0  # atno 17343 bound_to 10162
  157.3831  130.7242  149.6644 LP  0  0  0  0  0  0  0  0  0  0  0  0  # atno 17370 bound_to 10713
  155.9708  130.4167  150.4243 LP  0  0  0  0  0  0  0  0  0  0  0  0  # atno 17371 bound_to 10713
  140.5611  134.0534  155.7399 LP  0  0  0  0  0  0  0  0  0  0  0  0  # atno 17394 bound_to 11000
  141.1230  133.9430  157.2692 LP  0  0  0  0  0  0  0  0  0  0  0  0  # atno 17395 bound_to 11000

$$$$
