AV-unprocessed.smi:1406|AV-procd|sdf|5716|dock2
  -GOLD-   22720 5343D 1   1.00000     0.00000
 Structure written by MMmdl.
 41 43  0  0  0  0  0  0  0  0  2 V2000
  151.1699  138.4386  155.3957 C   0  0  0  0  0  0  0  0  0  0  0  0
  150.9003  139.9392  155.1641 C   0  0  1  0  0  0  0  0  0  0  0  0
  149.5584  140.2027  154.4622 C   0  0  0  0  0  0  0  0  0  0  0  0
  149.2916  141.3157  154.0078 O   0  0  0  0  0  0  0  0  0  0  0  0
  148.7127  139.1619  154.3875 N   0  0  0  0  0  0  0  0  0  0  0  0
  147.4049  139.1824  153.7351 C   0  0  1  0  0  0  0  0  0  0  0  0
  147.4759  139.6195  152.2596 C   0  0  0  0  0  0  0  0  0  0  0  0
  146.4759  138.7091  151.5395 C   0  0  0  0  0  0  0  0  0  0  0  0
  146.5764  137.4535  152.2923 N   0  3  2  0  0  0  0  0  0  0  0  0
  145.5766  136.3956  152.0427 C   0  0  0  0  0  0  0  0  0  0  0  0
  146.0126  135.1254  152.8047 C   0  0  0  0  0  0  0  0  0  0  0  0
  146.2914  135.4049  154.2994 C   0  0  0  0  0  0  0  0  0  0  0  0
  147.2406  136.6076  154.4935 C   0  0  0  0  0  0  0  0  0  0  0  0
  146.6826  137.8138  153.7169 C   0  0  1  0  0  0  0  0  0  0  0  0
  150.9846  140.7081  156.3997 N   0  0  0  0  0  0  0  0  0  0  0  0
  150.7708  142.0075  156.6182 C   0  0  0  0  0  0  0  0  0  0  0  0
  150.8939  142.3681  157.8877 N   0  0  0  0  0  0  0  0  0  0  0  0
  151.1990  141.1567  158.4403 C   0  0  0  0  0  0  0  0  0  0  0  0
  151.2552  140.1274  157.5954 N   0  0  0  0  0  0  0  0  0  0  0  0
  151.1588  137.8874  154.4545 H   0  0  0  0  0  0  0  0  0  0  0  0
  150.4274  137.9843  156.0533 H   0  0  0  0  0  0  0  0  0  0  0  0
  152.1492  138.2866  155.8505 H   0  0  0  0  0  0  0  0  0  0  0  0
  151.6866  140.3079  154.5035 H   0  0  0  0  0  0  0  0  0  0  0  0
  149.0095  138.2843  154.7891 H   0  0  0  0  0  0  0  0  0  0  0  0
  146.7655  139.8965  154.2584 H   0  0  0  0  0  0  0  0  0  0  0  0
  147.2508  140.6777  152.1227 H   0  0  0  0  0  0  0  0  0  0  0  0
  148.4756  139.4417  151.8593 H   0  0  0  0  0  0  0  0  0  0  0  0
  145.4636  139.1084  151.6206 H   0  0  0  0  0  0  0  0  0  0  0  0
  146.7132  138.5733  150.4840 H   0  0  0  0  0  0  0  0  0  0  0  0
  144.5888  136.7262  152.3673 H   0  0  0  0  0  0  0  0  0  0  0  0
  145.5156  136.1906  150.9733 H   0  0  0  0  0  0  0  0  0  0  0  0
  145.2524  134.3500  152.7047 H   0  0  0  0  0  0  0  0  0  0  0  0
  146.9176  134.7264  152.3447 H   0  0  0  0  0  0  0  0  0  0  0  0
  145.3474  135.6076  154.8069 H   0  0  0  0  0  0  0  0  0  0  0  0
  146.7092  134.5171  154.7750 H   0  0  0  0  0  0  0  0  0  0  0  0
  147.3255  136.8399  155.5552 H   0  0  0  0  0  0  0  0  0  0  0  0
  148.2417  136.3570  154.1399 H   0  0  0  0  0  0  0  0  0  0  0  0
  145.6706  138.0024  154.0820 H   0  0  0  0  0  0  0  0  0  0  0  0
  150.5153  142.7038  155.8329 H   0  0  0  0  0  0  0  0  0  0  0  0
  151.3780  141.0283  159.4976 H   0  0  0  0  0  0  0  0  0  0  0  0
  147.4724  137.0625  152.0380 H   0  0  0  0  0  0  0  0  0  0  0  0
  1  2  1  0  0  0  0
  1 20  1  0  0  0  0
  1 21  1  0  0  0  0
  1 22  1  0  0  0  0
  2  3  1  0  0  0  0
  2 15  1  0  0  0  0
  2 23  1  0  0  0  0
  3  4  2  0  0  0  0
  3  5  1  0  0  0  0
  5  6  1  0  0  0  0
  5 24  1  0  0  0  0
  6 14  1  0  0  0  0
  6  7  1  0  0  0  0
  6 25  1  0  0  0  0
  7  8  1  0  0  0  0
  7 26  1  0  0  0  0
  7 27  1  0  0  0  0
  8  9  1  0  0  0  0
  8 28  1  0  0  0  0
  8 29  1  0  0  0  0
  9 14  1  0  0  0  0
  9 10  1  0  0  0  0
  9 41  1  0  0  0  0
 10 11  1  0  0  0  0
 10 30  1  0  0  0  0
 10 31  1  0  0  0  0
 11 12  1  0  0  0  0
 11 32  1  0  0  0  0
 11 33  1  0  0  0  0
 12 13  1  0  0  0  0
 12 34  1  0  0  0  0
 12 35  1  0  0  0  0
 13 14  1  0  0  0  0
 13 36  1  0  0  0  0
 13 37  1  0  0  0  0
 14 38  1  0  0  0  0
 15 19  1  0  0  0  0
 15 16  1  0  0  0  0
 16 17  2  0  0  0  0
 16 39  1  0  0  0  0
 17 18  1  0  0  0  0
 18 19  2  0  0  0  0
 18 40  1  0  0  0  0
M  CHG  1   9   1
M  END
> <s_m_source_file>
AV-unprocessed.smi

> <i_m_source_file_index>
1406

> <i_lp_mmshare_version>
43012

> <i_f3d_flags>
0

> <s_epik_input>
bjFbY0hdbltjSF1uMVtDQEhdKFtDSDNdKUMoPU8pW05IXVtDQEhdKFtDSDJdW0NIMl0yKVtDQEBIXShOMjMpW0NIMl1bQ0gyXVtDSDJdW0NIMl0z

> <s_epik_cmdline>
J2VwaWtfcHl0aG9uJywgJy1waCcsICc3LjAnLCAnLXRuJywgJzgnLCAnLW1hJywgJzIwMCcsICctbWV0YWxfYmluZGluZycsICctaW1hZScsICc8aW5maWxlLm1hZT4nLCAnLW9tYWUnLCAnPG91dGZpbGUubWFlPic=

> <r_lp_tautomer_probability>
1

> <r_epik_Ionization_Penalty>
0.00197066

> <r_epik_Ionization_Penalty_Charging>
0.00196223

> <r_epik_Ionization_Penalty_Neutral>
8.43107e-06

> <r_epik_State_Penalty>
0.00133866

> <r_epik_Charging_Adjusted_Penalty>
0.00330089

> <i_epik_Tot_Q>
1

> <i_epik_Tot_abs_Q>
1

> <r_epik_Metal_State_Penalty>
-0

> <b_epik_Metal_Only>
0

> <s_lp_Force_Field>
OPLS_2005

> <r_lp_Energy>
47.4686

> <b_lp_Chiralities_Consistent>
1

> <s_lp_Variant>
AV-unprocessed.smi:1406-8

> <Gold.Version>
5.8.1

> <Gold.Id.Protein>
6NUR|6NUR_protein|mol2

> <Gold.PLP.Fitness>
37.0564

> <Gold.PLP.PLP>
-26.1496

> <Gold.PLP.part.hbond>
-3.0000

> <Gold.PLP.part.metal>
0.0000

> <Gold.PLP.part.buried>
4.6723

> <Gold.PLP.part.nonpolar>
-28.6931

> <Gold.PLP.part.repulsive>
0.4731

> <Gold.PLP.ligand.clash>
0.0000

> <Gold.PLP.ligand.torsion>
0.2484

> <Gold.PLP.Chemscore.Hbond>
2.7680

> <Gold.PLP.Chemscore.CHOScore>
1.0000

> <Gold.PLP.Chemscore.Metal>
0.0000

> <Gold.Chemscore.Hbonds>
donor molecule, donor type, donor heavy atom, donor atom, acceptor molecule, acceptor atom, score
      L1  H     9    41       P1  7948  2.00
      P1  H  8011  8017       L1     4  0.70
      L1  C    16    39       P1  8028  0.84

> <Gold.PLP.Chemscore.Internal.Correction>
0.0995

> <Gold.Rescore>
     Score         DG    S(hbond)    S(metal)    S(lipo)     H(rot)  DE(clash)    DE(int)     intcor
      9.08     -12.81       1.77        0.00      53.29       1.89       2.15       1.59       ----

> <Gold.Chemscore.Fitness>
9.0757

> <Gold.Chemscore.DG>
-12.8104

> <Gold.Chemscore.ZeroCoef>
-5.4800

> <Gold.Chemscore.Hbond>
1.7741

> <Gold.Chemscore.Metal>
0.0000

> <Gold.Chemscore.Lipo>
53.2864

> <Gold.Chemscore.Internal_Hbond>
0.0000

> <Gold.Chemscore.DEClash>
2.1471

> <Gold.Chemscore.DEInternal>
1.5876

> <Gold.Chemscore.Rot>
1.8865

> <Gold.Chemscore.Internal.Correction>
   9.000000E+99

> <Gold.Chemscore.Hbonds>
donor molecule, donor type, donor heavy atom, donor atom, acceptor molecule, acceptor atom, score
      L1  H     9    41       P1  7948  1.00
      P1  H  8011  8017       L1     4  0.67

> <Gold.Chemscore.Hbond.Weighted>
-5.9254

> <Gold.Chemscore.Metal.Weighted>
-0.0000

> <Gold.Chemscore.Lipo.Weighted>
-6.2345

> <Gold.Chemscore.Internal_Hbond.Weighted>
0.0000

> <Gold.Chemscore.DEClash.Weighted>
2.1471

> <Gold.Chemscore.DEInternal.Weighted>
1.5876

> <Gold.Chemscore.Rot.Weighted>
4.8295

> <Gold.Chemscore.Internal.Correction.Weighted>
   9.000000E+99

> <Gold.Protein.RotatedTorsions>
[ 6907 6896 6895 6894 ] final -175.60 input  -60.11 | X-H torsion
[ 7974 7965 7964 7962 ] final  114.25 input  175.53 | X-H torsion
[ 8008 7997 7996 7995 ] final  -28.78 input   59.86 | X-H torsion
[ 10167 10162 10161 10158 ] final   75.47 input  -65.29 | X-H torsion
[ 10718 10713 10712 10709 ] final  -34.11 input   66.30 | X-H torsion
[ 10763 10752 10751 10750 ] final  151.15 input  -60.55 | X-H torsion
[ 11005 11000 10999 10996 ] final   64.18 input  -57.11 | X-H torsion

> <Gold.Protein.ActiveResidues>
 VAL166  LYS551  ARG553  GLY616  TRP617  ASP618  TYR619  PRO620  LYS621  CYS622 
 ASP623  PHE694  ASN695  SER759  ASP760  ASP761  ALA762  ILE779  LEU786  VAL792 
 PHE793  MET794  SER795  GLU796  ALA797  LYS798  CYS799  TRP800  GLU811  SER814 

> <Gold.Protein.RotatedAtoms>
  151.5912  133.3366  159.3027 H   0  0  0  0  0  0  0  0  0  0  0  0  # atno 6907 bound_to 6896
  150.8259  134.7493  159.6824 H   0  0  0  0  0  0  0  0  0  0  0  0  # atno 6908 bound_to 6896
  152.4348  134.5713  159.9973 H   0  0  0  0  0  0  0  0  0  0  0  0  # atno 6909 bound_to 6896
  145.2067  139.2926  143.4290 H   0  0  0  0  0  0  0  0  0  0  0  0  # atno 7974 bound_to 7965
  154.4317  140.1836  156.1144 H   0  0  0  0  0  0  0  0  0  0  0  0  # atno 8008 bound_to 7997
  156.0192  140.3342  155.6995 H   0  0  0  0  0  0  0  0  0  0  0  0  # atno 8009 bound_to 7997
  155.6000  140.0639  157.2726 H   0  0  0  0  0  0  0  0  0  0  0  0  # atno 8010 bound_to 7997
  140.0027  144.5674  150.7724 H   0  0  0  0  0  0  0  0  0  0  0  0  # atno 10167 bound_to 10162
  156.3545  130.4313  149.7676 H   0  0  0  0  0  0  0  0  0  0  0  0  # atno 10718 bound_to 10713
  154.0990  135.2847  155.3255 H   0  0  0  0  0  0  0  0  0  0  0  0  # atno 10763 bound_to 10752
  154.6568  135.5349  153.7972 H   0  0  0  0  0  0  0  0  0  0  0  0  # atno 10764 bound_to 10752
  153.0386  135.6524  154.1155 H   0  0  0  0  0  0  0  0  0  0  0  0  # atno 10765 bound_to 10752
  139.9976  134.6493  155.9985 H   0  0  0  0  0  0  0  0  0  0  0  0  # atno 11005 bound_to 11000
  146.3406  140.2330  142.8594 LP  0  0  0  0  0  0  0  0  0  0  0  0  # atno 17320 bound_to 7965
  144.9895  140.8534  143.5348 LP  0  0  0  0  0  0  0  0  0  0  0  0  # atno 17321 bound_to 7965
  140.7412  143.2816  151.3583 LP  0  0  0  0  0  0  0  0  0  0  0  0  # atno 17342 bound_to 10162
  139.6260  144.0812  152.2435 LP  0  0  0  0  0  0  0  0  0  0  0  0  # atno 17343 bound_to 10162
  156.4864  130.8064  151.3076 LP  0  0  0  0  0  0  0  0  0  0  0  0  # atno 17370 bound_to 10713
  157.7465  130.9989  150.2871 LP  0  0  0  0  0  0  0  0  0  0  0  0  # atno 17371 bound_to 10713
  141.1616  133.6538  156.4339 LP  0  0  0  0  0  0  0  0  0  0  0  0  # atno 17394 bound_to 11000
  140.4789  134.6683  157.5162 LP  0  0  0  0  0  0  0  0  0  0  0  0  # atno 17395 bound_to 11000

$$$$
