AV-unprocessed.smi:234|AV-procd|sdf|1798|dock10
  -GOLD-   2262020363D 1   1.00000     0.00000
 Structure written by MMmdl.
 59 62  0  0  0  0  0  0  0  0  1 V2000
  151.8063  143.9268  158.8983 C   0  0  0  0  0  0  0  0  0  0  0  0
  151.9249  142.9879  157.6906 C   0  0  0  0  0  0  0  0  0  0  0  0
  150.7408  142.2332  157.4695 O   0  0  0  0  0  0  0  0  0  0  0  0
  150.7876  141.3562  156.3512 C   0  0  1  0  0  0  0  0  0  0  0  0
  151.2644  139.9355  156.6557 C   0  0  0  0  0  0  0  0  0  0  0  0
  150.1900  139.4751  155.6610 C   0  0  1  0  0  0  0  0  0  0  0  0
  149.5223  138.2237  156.0367 N   0  0  0  0  0  0  0  0  0  0  0  0
  149.4745  137.8712  157.4518 C   0  0  0  0  0  0  0  0  0  0  0  0
  148.3714  137.9005  155.3957 C   0  0  0  0  0  0  0  0  0  0  0  0
  147.4987  138.8744  155.0222 N   0  0  0  0  0  0  0  0  0  0  0  0
  146.3585  138.5539  154.4035 C   0  0  0  0  0  0  0  0  0  0  0  0
  145.9020  137.3456  154.0680 N   0  0  0  0  0  0  0  0  0  0  0  0
  146.7729  136.3653  154.4436 C   0  0  0  0  0  0  0  0  0  0  0  0
  148.0147  136.5535  155.1125 C   0  0  0  0  0  0  0  0  0  0  0  0
  148.6252  135.3257  155.3361 N   0  0  0  0  0  0  0  0  0  0  0  0
  147.7925  134.4602  154.8250 C   0  0  0  0  0  0  0  0  0  0  0  0
  146.6581  134.9984  154.2594 N   0  0  0  0  0  0  0  0  0  0  0  0
  145.5764  134.2692  153.6146 C   0  0  0  0  0  0  0  0  0  0  0  0
  145.7735  134.1019  152.0847 C   0  0  2  0  0  0  0  0  0  0  0  0
  146.1843  135.3549  151.5621 O   0  0  0  0  0  0  0  0  0  0  0  0
  144.5097  133.6775  151.3434 C   0  0  0  0  0  0  0  0  0  0  0  0
  145.0594  132.9625  150.1188 C   0  0  0  0  0  0  0  0  0  0  0  0
  146.1595  132.2435  150.6486 O   0  0  0  0  0  0  0  0  0  0  0  0
  146.8163  133.0413  151.6318 C   0  0  2  0  0  0  0  0  0  0  0  0
  147.3412  132.0862  152.7152 C   0  0  0  0  0  0  0  0  0  0  0  0
  149.3970  140.7698  155.9984 C   0  0  0  0  0  0  0  0  0  0  0  0
  148.3917  140.7007  157.1626 C   0  0  0  0  0  0  0  0  0  0  0  0
  148.6872  141.4574  154.8314 C   0  0  0  0  0  0  0  0  0  0  0  0
  152.6742  144.5833  158.9610 H   0  0  0  0  0  0  0  0  0  0  0  0
  151.7502  143.3759  159.8359 H   0  0  0  0  0  0  0  0  0  0  0  0
  150.9188  144.5550  158.8198 H   0  0  0  0  0  0  0  0  0  0  0  0
  152.0914  143.5915  156.7982 H   0  0  0  0  0  0  0  0  0  0  0  0
  152.7928  142.3342  157.7847 H   0  0  0  0  0  0  0  0  0  0  0  0
  151.2792  141.7899  155.4769 H   0  0  0  0  0  0  0  0  0  0  0  0
  152.2869  139.7208  156.3451 H   0  0  0  0  0  0  0  0  0  0  0  0
  151.0798  139.6289  157.6867 H   0  0  0  0  0  0  0  0  0  0  0  0
  150.5635  139.4801  154.6350 H   0  0  0  0  0  0  0  0  0  0  0  0
  148.4555  137.8980  157.8417 H   0  0  0  0  0  0  0  0  0  0  0  0
  150.0696  138.5585  158.0514 H   0  0  0  0  0  0  0  0  0  0  0  0
  149.8704  136.8666  157.6013 H   0  0  0  0  0  0  0  0  0  0  0  0
  145.7204  139.3846  154.1401 H   0  0  0  0  0  0  0  0  0  0  0  0
  147.9877  133.3976  154.8387 H   0  0  0  0  0  0  0  0  0  0  0  0
  145.4904  133.2939  154.0956 H   0  0  0  0  0  0  0  0  0  0  0  0
  144.6489  134.8011  153.8268 H   0  0  0  0  0  0  0  0  0  0  0  0
  147.1234  135.4195  151.6448 H   0  0  0  0  0  0  0  0  0  0  0  0
  143.9465  132.9609  151.9421 H   0  0  0  0  0  0  0  0  0  0  0  0
  143.8416  134.5041  151.0973 H   0  0  0  0  0  0  0  0  0  0  0  0
  144.3306  132.2986  149.6537 H   0  0  0  0  0  0  0  0  0  0  0  0
  145.4090  133.6746  149.3698 H   0  0  0  0  0  0  0  0  0  0  0  0
  147.6719  133.5244  151.1561 H   0  0  0  0  0  0  0  0  0  0  0  0
  147.8718  132.6258  153.4998 H   0  0  0  0  0  0  0  0  0  0  0  0
  148.0388  131.3662  152.2871 H   0  0  0  0  0  0  0  0  0  0  0  0
  146.5309  131.5205  153.1758 H   0  0  0  0  0  0  0  0  0  0  0  0
  147.4908  140.1526  156.8868 H   0  0  0  0  0  0  0  0  0  0  0  0
  148.0775  141.6966  157.4763 H   0  0  0  0  0  0  0  0  0  0  0  0
  148.8106  140.2075  158.0400 H   0  0  0  0  0  0  0  0  0  0  0  0
  147.7573  140.9543  154.5667 H   0  0  0  0  0  0  0  0  0  0  0  0
  149.3113  141.4748  153.9374 H   0  0  0  0  0  0  0  0  0  0  0  0
  148.4417  142.4921  155.0727 H   0  0  0  0  0  0  0  0  0  0  0  0
  1  2  1  0  0  0  0
  1 29  1  0  0  0  0
  1 30  1  0  0  0  0
  1 31  1  0  0  0  0
  2  3  1  0  0  0  0
  2 32  1  0  0  0  0
  2 33  1  0  0  0  0
  3  4  1  0  0  0  0
  4 26  1  0  0  0  0
  4  5  1  0  0  0  0
  4 34  1  0  0  0  0
  5  6  1  0  0  0  0
  5 35  1  0  0  0  0
  5 36  1  0  0  0  0
  6  7  1  0  0  0  0
  6 26  1  0  0  0  0
  6 37  1  0  0  0  0
  7  8  1  0  0  0  0
  7  9  1  0  0  0  0
  8 38  1  0  0  0  0
  8 39  1  0  0  0  0
  8 40  1  0  0  0  0
  9 14  1  0  0  0  0
  9 10  2  0  0  0  0
 10 11  1  0  0  0  0
 11 12  2  0  0  0  0
 11 41  1  0  0  0  0
 12 13  1  0  0  0  0
 13 17  1  0  0  0  0
 13 14  2  0  0  0  0
 14 15  1  0  0  0  0
 15 16  2  0  0  0  0
 16 17  1  0  0  0  0
 16 42  1  0  0  0  0
 17 18  1  0  0  0  0
 18 19  1  0  0  0  0
 18 43  1  0  0  0  0
 18 44  1  0  0  0  0
 19 24  1  0  0  0  0
 19 20  1  0  0  0  0
 19 21  1  0  0  0  0
 20 45  1  0  0  0  0
 21 22  1  0  0  0  0
 21 46  1  0  0  0  0
 21 47  1  0  0  0  0
 22 23  1  0  0  0  0
 22 48  1  0  0  0  0
 22 49  1  0  0  0  0
 23 24  1  0  0  0  0
 24 25  1  0  0  0  0
 24 50  1  0  0  0  0
 25 51  1  0  0  0  0
 25 52  1  0  0  0  0
 25 53  1  0  0  0  0
 26 27  1  0  0  0  0
 26 28  1  0  0  0  0
 27 54  1  0  0  0  0
 27 55  1  0  0  0  0
 27 56  1  0  0  0  0
 28 57  1  0  0  0  0
 28 58  1  0  0  0  0
 28 59  1  0  0  0  0
M  END
> <s_m_source_file>
AV-unprocessed.smi

> <i_m_source_file_index>
234

> <i_lp_mmshare_version>
43012

> <i_f3d_flags>
0

> <s_epik_input>
W0NIM11bQ0gyXU9bQ0BASF0oQzEoW0NIM10pW0NIM10pW0NIMl1bQ0BIXTFOKFtDSDNdKWMobltjSF1uMiljKGMyMyluW2NIXW4zW0NIMl1bQ0BAXTQoW09IXSlbQ0gyXVtDSDJdT1tDQEhdNFtDSDNd

> <s_epik_cmdline>
J2VwaWtfcHl0aG9uJywgJy1waCcsICc3LjAnLCAnLXRuJywgJzgnLCAnLW1hJywgJzIwMCcsICctbWV0YWxfYmluZGluZycsICctaW1hZScsICc8aW5maWxlLm1hZT4nLCAnLW9tYWUnLCAnPG91dGZpbGUubWFlPic=

> <r_lp_tautomer_probability>
1

> <r_epik_Ionization_Penalty>
0.00349132

> <r_epik_Ionization_Penalty_Charging>
0

> <r_epik_Ionization_Penalty_Neutral>
0.00349132

> <r_epik_State_Penalty>
0.00242418

> <r_epik_Charging_Adjusted_Penalty>
0.00242418

> <i_epik_Tot_Q>
0

> <i_epik_Tot_abs_Q>
0

> <r_epik_Metal_State_Penalty>
-0

> <b_epik_Metal_Only>
0

> <s_lp_Force_Field>
OPLS_2005

> <r_lp_Energy>
48.9285

> <b_lp_Chiralities_Consistent>
1

> <s_lp_Variant>
AV-unprocessed.smi:234-14

> <Gold.Version>
5.8.1

> <Gold.Id.Protein>
6NUR|6NUR_protein|mol2

> <Gold.PLP.Fitness>
37.8888

> <Gold.PLP.PLP>
-34.0801

> <Gold.PLP.part.hbond>
-1.0000

> <Gold.PLP.part.metal>
0.0000

> <Gold.PLP.part.buried>
-6.6935

> <Gold.PLP.part.nonpolar>
-28.1592

> <Gold.PLP.part.repulsive>
1.3576

> <Gold.PLP.ligand.clash>
0.0000

> <Gold.PLP.ligand.torsion>
1.6023

> <Gold.PLP.Chemscore.Hbond>
1.0000

> <Gold.PLP.Chemscore.CHOScore>
0.9967

> <Gold.PLP.Chemscore.Metal>
0.0000

> <Gold.Chemscore.Hbonds>
donor molecule, donor type, donor heavy atom, donor atom, acceptor molecule, acceptor atom, score
      L1  H    20    45       P1  7948  1.00
      L1  C    11    41       P1 10175  0.20

> <Gold.PLP.Chemscore.Internal.Correction>
1.0231

> <Gold.Rescore>
     Score         DG    S(hbond)    S(metal)    S(lipo)     H(rot)  DE(clash)    DE(int)     intcor
      7.68     -12.88       0.99        0.00      92.52       2.62       0.17       5.03       ----

> <Gold.Chemscore.Fitness>
7.6838

> <Gold.Chemscore.DG>
-12.8839

> <Gold.Chemscore.ZeroCoef>
-5.4800

> <Gold.Chemscore.Hbond>
0.9853

> <Gold.Chemscore.Metal>
0.0000

> <Gold.Chemscore.Lipo>
92.5228

> <Gold.Chemscore.Internal_Hbond>
0.0000

> <Gold.Chemscore.DEClash>
0.1690

> <Gold.Chemscore.DEInternal>
5.0312

> <Gold.Chemscore.Rot>
2.6219

> <Gold.Chemscore.Internal.Correction>
   9.000000E+99

> <Gold.Chemscore.Hbonds>
donor molecule, donor type, donor heavy atom, donor atom, acceptor molecule, acceptor atom, score
      L1  H    20    45       P1  7948  0.96

> <Gold.Chemscore.Hbond.Weighted>
-3.2909

> <Gold.Chemscore.Metal.Weighted>
-0.0000

> <Gold.Chemscore.Lipo.Weighted>
-10.8252

> <Gold.Chemscore.Internal_Hbond.Weighted>
0.0000

> <Gold.Chemscore.DEClash.Weighted>
0.1690

> <Gold.Chemscore.DEInternal.Weighted>
5.0312

> <Gold.Chemscore.Rot.Weighted>
6.7121

> <Gold.Chemscore.Internal.Correction.Weighted>
   9.000000E+99

> <Gold.Protein.RotatedTorsions>
[ 6907 6896 6895 6894 ] final   18.26 input  -60.11 | X-H torsion
[ 7974 7965 7964 7962 ] final  -72.49 input  175.53 | X-H torsion
[ 8008 7997 7996 7995 ] final  139.27 input   59.86 | X-H torsion
[ 10167 10162 10161 10158 ] final  165.07 input  -65.29 | X-H torsion
[ 10718 10713 10712 10709 ] final -135.07 input   66.30 | X-H torsion
[ 10763 10752 10751 10750 ] final -173.88 input  -60.55 | X-H torsion
[ 11005 11000 10999 10996 ] final  175.34 input  -57.11 | X-H torsion

> <Gold.Protein.ActiveResidues>
 VAL166  LYS551  ARG553  GLY616  TRP617  ASP618  TYR619  PRO620  LYS621  CYS622 
 ASP623  PHE694  ASN695  SER759  ASP760  ASP761  ALA762  ILE779  LEU786  VAL792 
 PHE793  MET794  SER795  GLU796  ALA797  LYS798  CYS799  TRP800  GLU811  SER814 

> <Gold.Protein.RotatedAtoms>
  151.8625  135.0519  160.0470 H   0  0  0  0  0  0  0  0  0  0  0  0  # atno 6907 bound_to 6896
  152.2652  133.5328  159.5414 H   0  0  0  0  0  0  0  0  0  0  0  0  # atno 6908 bound_to 6896
  150.7131  134.0691  159.3900 H   0  0  0  0  0  0  0  0  0  0  0  0  # atno 6909 bound_to 6896
  145.6645  140.9242  143.0916 H   0  0  0  0  0  0  0  0  0  0  0  0  # atno 7974 bound_to 7965
  156.2991  140.2372  156.4210 H   0  0  0  0  0  0  0  0  0  0  0  0  # atno 8008 bound_to 7997
  154.8355  140.0431  157.1526 H   0  0  0  0  0  0  0  0  0  0  0  0  # atno 8009 bound_to 7997
  154.9160  140.2997  155.5245 H   0  0  0  0  0  0  0  0  0  0  0  0  # atno 8010 bound_to 7997
  139.4899  144.4170  151.9232 H   0  0  0  0  0  0  0  0  0  0  0  0  # atno 10167 bound_to 10162
  156.2623  130.7217  151.1155 H   0  0  0  0  0  0  0  0  0  0  0  0  # atno 10718 bound_to 10713
  154.6027  135.2856  155.0518 H   0  0  0  0  0  0  0  0  0  0  0  0  # atno 10763 bound_to 10752
  154.1777  135.6462  153.5029 H   0  0  0  0  0  0  0  0  0  0  0  0  # atno 10764 bound_to 10752
  153.0163  135.5416  154.6752 H   0  0  0  0  0  0  0  0  0  0  0  0  # atno 10765 bound_to 10752
  140.3611  134.7112  157.4332 H   0  0  0  0  0  0  0  0  0  0  0  0  # atno 11005 bound_to 11000
  144.7078  139.8492  143.7424 LP  0  0  0  0  0  0  0  0  0  0  0  0  # atno 17320 bound_to 7965
  146.1097  139.4101  143.0295 LP  0  0  0  0  0  0  0  0  0  0  0  0  # atno 17321 bound_to 7965
  140.3613  144.2970  150.5933 LP  0  0  0  0  0  0  0  0  0  0  0  0  # atno 17342 bound_to 10162
  140.5401  143.2225  151.8099 LP  0  0  0  0  0  0  0  0  0  0  0  0  # atno 17343 bound_to 10162
  157.7255  131.0653  150.5951 LP  0  0  0  0  0  0  0  0  0  0  0  0  # atno 17370 bound_to 10713
  156.6040  130.4362  149.5885 LP  0  0  0  0  0  0  0  0  0  0  0  0  # atno 17371 bound_to 10713
  140.0626  134.5975  155.8732 LP  0  0  0  0  0  0  0  0  0  0  0  0  # atno 17394 bound_to 11000
  141.1983  133.6601  156.5788 LP  0  0  0  0  0  0  0  0  0  0  0  0  # atno 17395 bound_to 11000

$$$$
