AV-unprocessed.smi:1550|AV-procd|sdf|6231|dock5
  -GOLD-   22720 6413D 1   1.00000     0.00000
 Structure written by MMmdl.
 42 43  0  0  0  0  0  0  0  0  2 V2000
  151.2960  137.4501  154.3404 C   0  0  0  0  0  0  0  0  0  0  0  0
  150.7130  138.8500  154.5831 C   0  0  1  0  0  0  0  0  0  0  0  0
  149.3991  138.6825  155.1086 O   0  0  0  0  0  0  0  0  0  0  0  0
  148.3423  139.1184  154.2603 C   0  0  0  0  0  0  0  0  0  0  0  0
  147.9895  140.5689  154.6134 C   0  0  1  0  0  0  0  0  0  0  0  0
  146.9937  141.1870  153.6117 C   0  0  0  0  0  0  0  0  0  0  0  0
  146.5968  142.6017  154.0475 C   0  0  0  0  0  0  0  0  0  0  0  0
  146.1007  142.5743  155.4968 C   0  0  0  0  0  0  0  0  0  0  0  0
  147.1387  141.8931  156.4030 C   0  0  0  0  0  0  0  0  0  0  0  0
  147.4194  140.5823  155.9207 O   0  0  0  0  0  0  0  0  0  0  0  0
  151.5803  139.6526  155.5665 C   0  0  0  0  0  0  0  0  0  0  0  0
  152.7363  139.9391  155.2556 O   0  0  0  0  0  0  0  0  0  0  0  0
  150.9891  139.9566  156.7386 N   0  0  0  0  0  0  0  0  0  0  0  0
  151.4899  140.6698  157.8414 C   0  0  0  0  0  0  0  0  0  0  0  0
  151.2736  141.9932  158.0804 C   0  0  0  0  0  0  0  0  0  0  0  0
  151.8135  142.6734  159.2512 C   0  0  0  0  0  0  0  0  0  0  0  0
  151.6796  144.1662  159.4952 C   0  0  0  0  0  0  0  0  0  0  0  0
  152.1543  144.4730  160.7017 F   0  0  0  0  0  0  0  0  0  0  0  0
  152.3653  144.8640  158.5891 F   0  0  0  0  0  0  0  0  0  0  0  0
  150.4031  144.5467  159.4413 F   0  0  0  0  0  0  0  0  0  0  0  0
  152.5544  141.8274  160.0534 C   0  0  0  0  0  0  0  0  0  0  0  0
  152.7915  140.5057  159.9056 N   0  5  0  0  0  0  0  0  0  0  0  0
  152.2820  139.8802  158.8073 C   0  0  0  0  0  0  0  0  0  0  0  0
  152.4663  138.6790  158.6071 O   0  0  0  0  0  0  0  0  0  0  0  0
  152.3130  137.5068  153.9505 H   0  0  0  0  0  0  0  0  0  0  0  0
  150.6954  136.9031  153.6132 H   0  0  0  0  0  0  0  0  0  0  0  0
  151.3199  136.8597  155.2573 H   0  0  0  0  0  0  0  0  0  0  0  0
  150.6566  139.3683  153.6235 H   0  0  0  0  0  0  0  0  0  0  0  0
  148.6092  139.0461  153.2052 H   0  0  0  0  0  0  0  0  0  0  0  0
  147.4729  138.4792  154.4194 H   0  0  0  0  0  0  0  0  0  0  0  0
  148.9093  141.1561  154.6323 H   0  0  0  0  0  0  0  0  0  0  0  0
  147.4280  141.2139  152.6118 H   0  0  0  0  0  0  0  0  0  0  0  0
  146.1016  140.5626  153.5474 H   0  0  0  0  0  0  0  0  0  0  0  0
  147.4576  143.2663  153.9660 H   0  0  0  0  0  0  0  0  0  0  0  0
  145.8263  143.0015  153.3879 H   0  0  0  0  0  0  0  0  0  0  0  0
  145.8992  143.5872  155.8464 H   0  0  0  0  0  0  0  0  0  0  0  0
  145.1570  142.0300  155.5512 H   0  0  0  0  0  0  0  0  0  0  0  0
  148.0579  142.4792  156.4510 H   0  0  0  0  0  0  0  0  0  0  0  0
  146.7563  141.8191  157.4211 H   0  0  0  0  0  0  0  0  0  0  0  0
  150.0557  139.5948  156.8718 H   0  0  0  0  0  0  0  0  0  0  0  0
  150.6728  142.5874  157.4126 H   0  0  0  0  0  0  0  0  0  0  0  0
  153.0337  142.2827  160.9462 H   0  0  0  0  0  0  0  0  0  0  0  0
  1  2  1  0  0  0  0
  1 25  1  0  0  0  0
  1 26  1  0  0  0  0
  1 27  1  0  0  0  0
  2  3  1  0  0  0  0
  2 11  1  0  0  0  0
  2 28  1  0  0  0  0
  3  4  1  0  0  0  0
  4  5  1  0  0  0  0
  4 29  1  0  0  0  0
  4 30  1  0  0  0  0
  5 10  1  0  0  0  0
  5  6  1  0  0  0  0
  5 31  1  0  0  0  0
  6  7  1  0  0  0  0
  6 32  1  0  0  0  0
  6 33  1  0  0  0  0
  7  8  1  0  0  0  0
  7 34  1  0  0  0  0
  7 35  1  0  0  0  0
  8  9  1  0  0  0  0
  8 36  1  0  0  0  0
  8 37  1  0  0  0  0
  9 10  1  0  0  0  0
  9 38  1  0  0  0  0
  9 39  1  0  0  0  0
 11 12  2  0  0  0  0
 11 13  1  0  0  0  0
 13 14  1  0  0  0  0
 13 40  1  0  0  0  0
 14 23  1  0  0  0  0
 14 15  2  0  0  0  0
 15 16  1  0  0  0  0
 15 41  1  0  0  0  0
 16 17  1  0  0  0  0
 16 21  2  0  0  0  0
 17 18  1  0  0  0  0
 17 19  1  0  0  0  0
 17 20  1  0  0  0  0
 21 22  1  0  0  0  0
 21 42  1  0  0  0  0
 22 23  1  0  0  0  0
 23 24  2  0  0  0  0
M  CHG  1  22  -1
M  END
> <s_m_source_file>
AV-unprocessed.smi

> <i_m_source_file_index>
1550

> <i_lp_mmshare_version>
43012

> <i_f3d_flags>
0

> <s_epik_input>
TzFbQ0gyXVtDSDJdW0NIMl1bQ0gyXVtDQEhdMVtDSDJdT1tDQEBIXShbQ0gzXSlDKD1PKVtOSF1jMltjSF1jKEMoRikoRilGKVtjSF1bbkhdYzI9Tw==

> <s_epik_cmdline>
J2VwaWtfcHl0aG9uJywgJy1waCcsICc3LjAnLCAnLXRuJywgJzgnLCAnLW1hJywgJzIwMCcsICctbWV0YWxfYmluZGluZycsICctaW1hZScsICc8aW5maWxlLm1hZT4nLCAnLW9tYWUnLCAnPG91dGZpbGUubWFlPic=

> <r_epik_Ionization_Penalty>
2.54933

> <r_epik_Ionization_Penalty_Charging>
0.0583423

> <r_epik_Ionization_Penalty_Neutral>
2.49099

> <r_epik_State_Penalty>
2.65532

> <r_epik_Charging_Adjusted_Penalty>
2.71366

> <i_epik_Tot_Q>
-1

> <i_epik_Tot_abs_Q>
1

> <r_epik_Metal_State_Penalty>
0.516364

> <b_epik_Metal_Only>
0

> <s_lp_Force_Field>
OPLS_2005

> <r_lp_Energy>
27.8976

> <b_lp_Chiralities_Consistent>
1

> <s_lp_Variant>
AV-unprocessed.smi:1550-8

> <Gold.Version>
5.8.1

> <Gold.Id.Protein>
6NUR|6NUR_protein|mol2

> <Gold.PLP.Fitness>
49.3627

> <Gold.PLP.PLP>
-50.1626

> <Gold.PLP.part.hbond>
-2.0000

> <Gold.PLP.part.metal>
0.0000

> <Gold.PLP.part.buried>
-6.4237

> <Gold.PLP.part.nonpolar>
-41.7227

> <Gold.PLP.part.repulsive>
0.2121

> <Gold.PLP.ligand.clash>
0.0000

> <Gold.PLP.ligand.torsion>
1.9945

> <Gold.PLP.Chemscore.Hbond>
1.0125

> <Gold.PLP.Chemscore.CHOScore>
0.0000

> <Gold.PLP.Chemscore.Metal>
0.0000

> <Gold.Chemscore.Hbonds>
donor molecule, donor type, donor heavy atom, donor atom, acceptor molecule, acceptor atom, score
      P1  H  7989  7998       L1    12  0.02
      P1  H  7997  8008       L1    12  1.00

> <Gold.PLP.Chemscore.Internal.Correction>
0.1517

> <Gold.Rescore>
     Score         DG    S(hbond)    S(metal)    S(lipo)     H(rot)  DE(clash)    DE(int)     intcor
     13.15     -14.97       1.00        0.00      92.49       1.82       0.01       1.81       ----

> <Gold.Chemscore.Fitness>
13.1465

> <Gold.Chemscore.DG>
-14.9709

> <Gold.Chemscore.ZeroCoef>
-5.4800

> <Gold.Chemscore.Hbond>
0.9992

> <Gold.Chemscore.Metal>
0.0000

> <Gold.Chemscore.Lipo>
92.4946

> <Gold.Chemscore.Internal_Hbond>
0.0000

> <Gold.Chemscore.DEClash>
0.0128

> <Gold.Chemscore.DEInternal>
1.8115

> <Gold.Chemscore.Rot>
1.8236

> <Gold.Chemscore.Internal.Correction>
   9.000000E+99

> <Gold.Chemscore.Hbonds>
donor molecule, donor type, donor heavy atom, donor atom, acceptor molecule, acceptor atom, score
      P1  H  7997  8008       L1    12  0.94

> <Gold.Chemscore.Hbond.Weighted>
-3.3374

> <Gold.Chemscore.Metal.Weighted>
-0.0000

> <Gold.Chemscore.Lipo.Weighted>
-10.8219

> <Gold.Chemscore.Internal_Hbond.Weighted>
0.0000

> <Gold.Chemscore.DEClash.Weighted>
0.0128

> <Gold.Chemscore.DEInternal.Weighted>
1.8115

> <Gold.Chemscore.Rot.Weighted>
4.6684

> <Gold.Chemscore.Internal.Correction.Weighted>
   9.000000E+99

> <Gold.Protein.RotatedTorsions>
[ 6907 6896 6895 6894 ] final  161.98 input  -60.11 | X-H torsion
[ 7974 7965 7964 7962 ] final   31.54 input  175.53 | X-H torsion
[ 8008 7997 7996 7995 ] final   -2.72 input   59.86 | X-H torsion
[ 10167 10162 10161 10158 ] final -104.75 input  -65.29 | X-H torsion
[ 10718 10713 10712 10709 ] final  115.25 input   66.30 | X-H torsion
[ 10763 10752 10751 10750 ] final  133.18 input  -60.55 | X-H torsion
[ 11005 11000 10999 10996 ] final   57.70 input  -57.11 | X-H torsion

> <Gold.Protein.ActiveResidues>
 VAL166  LYS551  ARG553  GLY616  TRP617  ASP618  TYR619  PRO620  LYS621  CYS622 
 ASP623  PHE694  ASN695  SER759  ASP760  ASP761  ALA762  ILE779  LEU786  VAL792 
 PHE793  MET794  SER795  GLU796  ALA797  LYS798  CYS799  TRP800  GLU811  SER814 

> <Gold.Protein.RotatedAtoms>
  151.9474  133.3656  159.3987 H   0  0  0  0  0  0  0  0  0  0  0  0  # atno 6907 bound_to 6896
  150.6987  134.4376  159.5286 H   0  0  0  0  0  0  0  0  0  0  0  0  # atno 6908 bound_to 6896
  152.2043  134.8559  160.0555 H   0  0  0  0  0  0  0  0  0  0  0  0  # atno 6909 bound_to 6896
  146.1544  139.6644  142.9077 H   0  0  0  0  0  0  0  0  0  0  0  0  # atno 7974 bound_to 7965
  154.6326  140.2527  155.7415 H   0  0  0  0  0  0  0  0  0  0  0  0  # atno 8008 bound_to 7997
  156.2488  140.2904  156.0605 H   0  0  0  0  0  0  0  0  0  0  0  0  # atno 8009 bound_to 7997
  155.1720  140.0387  157.2855 H   0  0  0  0  0  0  0  0  0  0  0  0  # atno 8010 bound_to 7997
  140.2059  143.3783  152.1091 H   0  0  0  0  0  0  0  0  0  0  0  0  # atno 10167 bound_to 10162
  157.6233  131.1010  150.7303 H   0  0  0  0  0  0  0  0  0  0  0  0  # atno 10718 bound_to 10713
  153.8028  135.3139  155.3392 H   0  0  0  0  0  0  0  0  0  0  0  0  # atno 10763 bound_to 10752
  154.8082  135.4684  154.0450 H   0  0  0  0  0  0  0  0  0  0  0  0  # atno 10764 bound_to 10752
  153.1803  135.6892  153.8574 H   0  0  0  0  0  0  0  0  0  0  0  0  # atno 10765 bound_to 10752
  140.0432  134.5843  155.9355 H   0  0  0  0  0  0  0  0  0  0  0  0  # atno 11005 bound_to 11000
  145.4745  141.0437  143.2680 LP  0  0  0  0  0  0  0  0  0  0  0  0  # atno 17320 bound_to 7965
  144.7944  139.6263  143.7099 LP  0  0  0  0  0  0  0  0  0  0  0  0  # atno 17321 bound_to 7965
  139.5199  144.7025  151.5450 LP  0  0  0  0  0  0  0  0  0  0  0  0  # atno 17342 bound_to 10162
  140.6358  143.8987  150.6646 LP  0  0  0  0  0  0  0  0  0  0  0  0  # atno 17343 bound_to 10162
  156.7656  130.4812  149.5428 LP  0  0  0  0  0  0  0  0  0  0  0  0  # atno 17370 bound_to 10713
  156.1390  130.6231  151.0441 LP  0  0  0  0  0  0  0  0  0  0  0  0  # atno 17371 bound_to 10713
  141.1894  133.6565  156.5365 LP  0  0  0  0  0  0  0  0  0  0  0  0  # atno 17394 bound_to 11000
  140.4035  134.7336  157.4794 LP  0  0  0  0  0  0  0  0  0  0  0  0  # atno 17395 bound_to 11000

$$$$
