AV-unprocessed.smi:542|AV-procd|sdf|2874|dock7
  -GOLD-   2262023363D 1   1.00000     0.00000
 Structure written by MMmdl.
 45 47  0  0  0  0  0  0  0  0  2 V2000
  151.7107  138.3207  154.4862 C   0  0  0  0  0  0  0  0  0  0  0  0
  151.3922  137.8261  155.7750 O   0  0  0  0  0  0  0  0  0  0  0  0
  151.0789  138.8617  156.6909 C   0  0  0  0  0  0  0  0  0  0  0  0
  152.3395  139.7102  156.9273 C   0  0  0  0  0  0  0  0  0  0  0  0
  152.1657  140.6803  158.0054 N   0  0  0  0  0  0  0  0  0  0  0  0
  151.2056  141.6399  158.1528 C   0  0  0  0  0  0  0  0  0  0  0  0
  150.1855  141.8717  157.2186 N   0  0  0  0  0  0  0  0  0  0  0  0
  150.3180  142.0116  155.7660 C   0  0  0  0  0  0  0  0  0  0  0  0
  149.3106  141.1314  155.0031 C   0  0  0  0  0  0  0  0  0  0  0  0
  147.8686  141.4762  155.4078 C   0  0  0  0  0  0  0  0  0  0  0  0
  146.8458  140.5582  154.7243 C   0  0  0  0  0  0  0  0  0  0  0  0
  147.7538  141.4257  156.9399 C   0  0  0  0  0  0  0  0  0  0  0  0
  148.8370  142.2957  157.6019 C   0  0  0  0  0  0  0  0  0  0  0  0
  151.2958  142.3308  159.2926 N   0  0  0  0  0  0  0  0  0  0  0  0
  152.4053  141.7840  159.9143 C   0  0  0  0  0  0  0  0  0  0  0  0
  152.9401  140.7822  159.1679 C   0  0  0  0  0  0  0  0  0  0  0  0
  154.1127  139.9822  159.5908 C   0  0  0  0  0  0  0  0  0  0  0  0
  154.5409  139.0632  158.8959 O   0  0  0  0  0  0  0  0  0  0  0  0
  154.6123  140.3932  160.7991 N   0  5  0  0  0  0  0  0  0  0  0  0
  154.1073  141.4093  161.5812 C   0  0  0  0  0  0  0  0  0  0  0  0
  154.6194  141.7166  162.6584 O   0  0  0  0  0  0  0  0  0  0  0  0
  153.0051  142.1064  161.1621 N   0  0  0  0  0  0  0  0  0  0  0  0
  152.4406  143.1866  161.9765 C   0  0  0  0  0  0  0  0  0  0  0  0
  151.9388  137.4886  153.8201 H   0  0  0  0  0  0  0  0  0  0  0  0
  152.5834  138.9743  154.5195 H   0  0  0  0  0  0  0  0  0  0  0  0
  150.8742  138.8747  154.0586 H   0  0  0  0  0  0  0  0  0  0  0  0
  150.2707  139.4756  156.2937 H   0  0  0  0  0  0  0  0  0  0  0  0
  150.7164  138.4326  157.6249 H   0  0  0  0  0  0  0  0  0  0  0  0
  153.1957  139.0757  157.1413 H   0  0  0  0  0  0  0  0  0  0  0  0
  152.6121  140.2426  156.0164 H   0  0  0  0  0  0  0  0  0  0  0  0
  150.1602  143.0585  155.5030 H   0  0  0  0  0  0  0  0  0  0  0  0
  151.3297  141.7849  155.4443 H   0  0  0  0  0  0  0  0  0  0  0  0
  149.4404  141.2707  153.9296 H   0  0  0  0  0  0  0  0  0  0  0  0
  149.5093  140.0783  155.2038 H   0  0  0  0  0  0  0  0  0  0  0  0
  147.6640  142.4992  155.0885 H   0  0  0  0  0  0  0  0  0  0  0  0
  146.9996  139.5154  155.0036 H   0  0  0  0  0  0  0  0  0  0  0  0
  146.9214  140.6270  153.6388 H   0  0  0  0  0  0  0  0  0  0  0  0
  145.8274  140.8307  155.0019 H   0  0  0  0  0  0  0  0  0  0  0  0
  146.7663  141.7662  157.2528 H   0  0  0  0  0  0  0  0  0  0  0  0
  147.8525  140.3966  157.2886 H   0  0  0  0  0  0  0  0  0  0  0  0
  148.7227  142.2380  158.6848 H   0  0  0  0  0  0  0  0  0  0  0  0
  148.6985  143.3439  157.3340 H   0  0  0  0  0  0  0  0  0  0  0  0
  152.1557  142.8141  162.9611 H   0  0  0  0  0  0  0  0  0  0  0  0
  151.5521  143.6312  161.5292 H   0  0  0  0  0  0  0  0  0  0  0  0
  153.1723  143.9842  162.1116 H   0  0  0  0  0  0  0  0  0  0  0  0
  1  2  1  0  0  0  0
  1 24  1  0  0  0  0
  1 25  1  0  0  0  0
  1 26  1  0  0  0  0
  2  3  1  0  0  0  0
  3  4  1  0  0  0  0
  3 27  1  0  0  0  0
  3 28  1  0  0  0  0
  4  5  1  0  0  0  0
  4 29  1  0  0  0  0
  4 30  1  0  0  0  0
  5 16  1  0  0  0  0
  5  6  1  0  0  0  0
  6  7  1  0  0  0  0
  6 14  2  0  0  0  0
  7 13  1  0  0  0  0
  7  8  1  0  0  0  0
  8  9  1  0  0  0  0
  8 31  1  0  0  0  0
  8 32  1  0  0  0  0
  9 10  1  0  0  0  0
  9 33  1  0  0  0  0
  9 34  1  0  0  0  0
 10 11  1  0  0  0  0
 10 12  1  0  0  0  0
 10 35  1  0  0  0  0
 11 36  1  0  0  0  0
 11 37  1  0  0  0  0
 11 38  1  0  0  0  0
 12 13  1  0  0  0  0
 12 39  1  0  0  0  0
 12 40  1  0  0  0  0
 13 41  1  0  0  0  0
 13 42  1  0  0  0  0
 14 15  1  0  0  0  0
 15 22  1  0  0  0  0
 15 16  2  0  0  0  0
 16 17  1  0  0  0  0
 17 18  2  0  0  0  0
 17 19  1  0  0  0  0
 19 20  1  0  0  0  0
 20 21  2  0  0  0  0
 20 22  1  0  0  0  0
 22 23  1  0  0  0  0
 23 43  1  0  0  0  0
 23 44  1  0  0  0  0
 23 45  1  0  0  0  0
M  CHG  1  19  -1
M  END
> <s_m_source_file>
AV-unprocessed.smi

> <i_m_source_file_index>
542

> <i_lp_mmshare_version>
43012

> <i_f3d_flags>
0

> <s_epik_input>
W0NIM11uMWMoPU8pW25IXWMoPU8pYyhjMTIpbihbQ0gyXVtDSDJdT1tDSDNdKWMobjIpTjNbQ0gyXVtDSDJdW0NIXShbQ0gzXSlbQ0gyXVtDSDJdMw==

> <s_epik_cmdline>
J2VwaWtfcHl0aG9uJywgJy1waCcsICc3LjAnLCAnLXRuJywgJzgnLCAnLW1hJywgJzIwMCcsICctbWV0YWxfYmluZGluZycsICctaW1hZScsICc8aW5maWxlLm1hZT4nLCAnLW9tYWUnLCAnPG91dGZpbGUubWFlPic=

> <r_lp_tautomer_probability>
1

> <r_epik_Ionization_Penalty>
5.11335

> <r_epik_Ionization_Penalty_Charging>
0.0783784

> <r_epik_Ionization_Penalty_Neutral>
5.03497

> <r_epik_State_Penalty>
5.01923

> <r_epik_Charging_Adjusted_Penalty>
5.09761

> <i_epik_Tot_Q>
-1

> <i_epik_Tot_abs_Q>
1

> <r_epik_Metal_State_Penalty>
1.13361

> <b_epik_Metal_Only>
1

> <s_lp_Force_Field>
OPLS_2005

> <r_lp_Energy>
42.8721

> <b_lp_Chiralities_Consistent>
1

> <s_lp_Variant>
AV-unprocessed.smi:542-2

> <Gold.Version>
5.8.1

> <Gold.Id.Protein>
6NUR|6NUR_protein|mol2

> <Gold.PLP.Fitness>
41.5291

> <Gold.PLP.PLP>
-39.7391

> <Gold.PLP.part.hbond>
-2.0000

> <Gold.PLP.part.metal>
0.0000

> <Gold.PLP.part.buried>
-2.2389

> <Gold.PLP.part.nonpolar>
-34.6036

> <Gold.PLP.part.repulsive>
0.0225

> <Gold.PLP.ligand.clash>
0.0000

> <Gold.PLP.ligand.torsion>
0.6695

> <Gold.PLP.Chemscore.Hbond>
1.0000

> <Gold.PLP.Chemscore.CHOScore>
0.0000

> <Gold.PLP.Chemscore.Metal>
0.0000

> <Gold.Chemscore.Hbonds>
donor molecule, donor type, donor heavy atom, donor atom, acceptor molecule, acceptor atom, score
      P1  H  7997  8010       L1    18  1.00

> <Gold.PLP.Chemscore.Internal.Correction>
0.1290

> <Gold.Rescore>
     Score         DG    S(hbond)    S(metal)    S(lipo)     H(rot)  DE(clash)    DE(int)     intcor
      9.71     -11.93       0.65        0.00      67.92       1.44       1.36       0.85       ----

> <Gold.Chemscore.Fitness>
9.7120

> <Gold.Chemscore.DG>
-11.9264

> <Gold.Chemscore.ZeroCoef>
-5.4800

> <Gold.Chemscore.Hbond>
0.6525

> <Gold.Chemscore.Metal>
0.0000

> <Gold.Chemscore.Lipo>
67.9184

> <Gold.Chemscore.Internal_Hbond>
0.0000

> <Gold.Chemscore.DEClash>
1.3605

> <Gold.Chemscore.DEInternal>
0.8538

> <Gold.Chemscore.Rot>
1.4372

> <Gold.Chemscore.Internal.Correction>
   9.000000E+99

> <Gold.Chemscore.Hbonds>
donor molecule, donor type, donor heavy atom, donor atom, acceptor molecule, acceptor atom, score
      P1  H  7997  8010       L1    18  0.30

> <Gold.Chemscore.Hbond.Weighted>
-2.1792

> <Gold.Chemscore.Metal.Weighted>
-0.0000

> <Gold.Chemscore.Lipo.Weighted>
-7.9465

> <Gold.Chemscore.Internal_Hbond.Weighted>
0.0000

> <Gold.Chemscore.DEClash.Weighted>
1.3605

> <Gold.Chemscore.DEInternal.Weighted>
0.8538

> <Gold.Chemscore.Rot.Weighted>
3.6793

> <Gold.Chemscore.Internal.Correction.Weighted>
   9.000000E+99

> <Gold.Protein.RotatedTorsions>
[ 6907 6896 6895 6894 ] final  -10.58 input  -60.11 | X-H torsion
[ 7974 7965 7964 7962 ] final -137.53 input  175.53 | X-H torsion
[ 8008 7997 7996 7995 ] final   10.35 input   59.86 | X-H torsion
[ 10167 10162 10161 10158 ] final  -13.57 input  -65.29 | X-H torsion
[ 10718 10713 10712 10709 ] final -173.52 input   66.30 | X-H torsion
[ 10763 10752 10751 10750 ] final -104.40 input  -60.55 | X-H torsion
[ 11005 11000 10999 10996 ] final  -98.28 input  -57.11 | X-H torsion

> <Gold.Protein.ActiveResidues>
 VAL166  LYS551  ARG553  GLY616  TRP617  ASP618  TYR619  PRO620  LYS621  CYS622 
 ASP623  PHE694  ASN695  SER759  ASP760  ASP761  ALA762  ILE779  LEU786  VAL792 
 PHE793  MET794  SER795  GLU796  ALA797  LYS798  CYS799  TRP800  GLU811  SER814 

> <Gold.Protein.RotatedAtoms>
  151.3998  135.0969  159.9551 H   0  0  0  0  0  0  0  0  0  0  0  0  # atno 6907 bound_to 6896
  152.5054  133.8900  159.7399 H   0  0  0  0  0  0  0  0  0  0  0  0  # atno 6908 bound_to 6896
  150.9371  133.6643  159.2827 H   0  0  0  0  0  0  0  0  0  0  0  0  # atno 6909 bound_to 6896
  144.8834  140.6540  143.5191 H   0  0  0  0  0  0  0  0  0  0  0  0  # atno 7974 bound_to 7965
  154.7923  140.2837  155.5983 H   0  0  0  0  0  0  0  0  0  0  0  0  # atno 8008 bound_to 7997
  156.2966  140.2602  156.2701 H   0  0  0  0  0  0  0  0  0  0  0  0  # atno 8009 bound_to 7997
  154.9656  140.0377  157.2200 H   0  0  0  0  0  0  0  0  0  0  0  0  # atno 8010 bound_to 7997
  140.7184  143.5413  150.9406 H   0  0  0  0  0  0  0  0  0  0  0  0  # atno 10167 bound_to 10162
  156.7716  130.9451  151.3120 H   0  0  0  0  0  0  0  0  0  0  0  0  # atno 10718 bound_to 10713
  154.7875  135.4788  153.9978 H   0  0  0  0  0  0  0  0  0  0  0  0  # atno 10763 bound_to 10752
  153.1582  135.6804  153.8789 H   0  0  0  0  0  0  0  0  0  0  0  0  # atno 10764 bound_to 10752
  153.8411  135.3179  155.3404 H   0  0  0  0  0  0  0  0  0  0  0  0  # atno 10765 bound_to 10752
  141.1350  133.8233  157.0818 H   0  0  0  0  0  0  0  0  0  0  0  0  # atno 11005 bound_to 11000
  145.3913  139.1616  143.4227 LP  0  0  0  0  0  0  0  0  0  0  0  0  # atno 17320 bound_to 7965
  146.3009  140.4002  142.8704 LP  0  0  0  0  0  0  0  0  0  0  0  0  # atno 17321 bound_to 7965
  139.9135  143.6691  152.3110 LP  0  0  0  0  0  0  0  0  0  0  0  0  # atno 17342 bound_to 10162
  139.7083  144.7624  151.1156 LP  0  0  0  0  0  0  0  0  0  0  0  0  # atno 17343 bound_to 10162
  157.6688  130.9032  149.9993 LP  0  0  0  0  0  0  0  0  0  0  0  0  # atno 17370 bound_to 10713
  156.1274  130.3644  149.9787 LP  0  0  0  0  0  0  0  0  0  0  0  0  # atno 17371 bound_to 10713
  140.0447  134.9836  157.1026 LP  0  0  0  0  0  0  0  0  0  0  0  0  # atno 17394 bound_to 11000
  140.4082  134.2010  155.7163 LP  0  0  0  0  0  0  0  0  0  0  0  0  # atno 17395 bound_to 11000

$$$$
