AV-unprocessed.smi:456|AV-procd|sdf|2616|dock3
  -GOLD-   2262023 13D 1   1.00000     0.00000
 Structure written by MMmdl.
 32 34  0  0  0  0  0  0  0  0  1 V2000
  149.6751  141.3863  157.8749 O   0  0  0  0  0  0  0  0  0  0  0  0
  150.3522  141.7379  156.6858 C   0  0  1  0  0  0  0  0  0  0  0  0
  151.7073  142.3660  157.0676 C   0  0  0  0  0  0  0  0  0  0  0  0
  151.6145  143.1899  158.2601 N   0  0  0  0  0  0  0  0  0  0  0  0
  150.9324  144.3436  158.3934 C   0  0  0  0  0  0  0  0  0  0  0  0
  150.9879  144.9516  159.5749 N   0  0  0  0  0  0  0  0  0  0  0  0
  151.8010  144.0923  160.2935 C   0  0  0  0  0  0  0  0  0  0  0  0
  152.2591  144.1662  161.6283 C   0  0  0  0  0  0  0  0  0  0  0  0
  153.0977  143.1609  162.1531 C   0  0  0  0  0  0  0  0  0  0  0  0
  153.5285  143.2480  163.4341 F   0  0  0  0  0  0  0  0  0  0  0  0
  153.4891  142.0673  161.3525 C   0  0  0  0  0  0  0  0  0  0  0  0
  154.2961  141.1073  161.8632 F   0  0  0  0  0  0  0  0  0  0  0  0
  153.0423  141.9705  160.0208 C   0  0  0  0  0  0  0  0  0  0  0  0
  152.2078  142.9771  159.5005 C   0  0  0  0  0  0  0  0  0  0  0  0
  150.5103  140.5539  155.7417 C   0  0  0  0  0  0  0  0  0  0  0  0
  149.3956  140.0751  155.0198 C   0  0  0  0  0  0  0  0  0  0  0  0
  149.5398  139.0009  154.1206 C   0  0  0  0  0  0  0  0  0  0  0  0
  150.7990  138.3981  153.9386 C   0  0  0  0  0  0  0  0  0  0  0  0
  151.9142  138.8697  154.6572 C   0  0  0  0  0  0  0  0  0  0  0  0
  151.7711  139.9443  155.5559 C   0  0  0  0  0  0  0  0  0  0  0  0
  149.8812  142.0286  158.5368 H   0  0  0  0  0  0  0  0  0  0  0  0
  149.7375  142.4948  156.1963 H   0  0  0  0  0  0  0  0  0  0  0  0
  152.4415  141.5826  157.2616 H   0  0  0  0  0  0  0  0  0  0  0  0
  152.1038  142.9673  156.2484 H   0  0  0  0  0  0  0  0  0  0  0  0
  150.3659  144.7626  157.5745 H   0  0  0  0  0  0  0  0  0  0  0  0
  151.9669  144.9991  162.2504 H   0  0  0  0  0  0  0  0  0  0  0  0
  153.3434  141.1356  159.4060 H   0  0  0  0  0  0  0  0  0  0  0  0
  148.4279  140.5384  155.1444 H   0  0  0  0  0  0  0  0  0  0  0  0
  148.6844  138.6417  153.5676 H   0  0  0  0  0  0  0  0  0  0  0  0
  150.9101  137.5759  153.2470 H   0  0  0  0  0  0  0  0  0  0  0  0
  152.8809  138.4093  154.5161 H   0  0  0  0  0  0  0  0  0  0  0  0
  152.6352  140.3053  156.0946 H   0  0  0  0  0  0  0  0  0  0  0  0
  1  2  1  0  0  0  0
  1 21  1  0  0  0  0
  2  3  1  0  0  0  0
  2 15  1  0  0  0  0
  2 22  1  0  0  0  0
  3  4  1  0  0  0  0
  3 23  1  0  0  0  0
  3 24  1  0  0  0  0
  4 14  1  0  0  0  0
  4  5  1  0  0  0  0
  5  6  2  0  0  0  0
  5 25  1  0  0  0  0
  6  7  1  0  0  0  0
  7 14  2  0  0  0  0
  7  8  1  0  0  0  0
  8  9  2  0  0  0  0
  8 26  1  0  0  0  0
  9 10  1  0  0  0  0
  9 11  1  0  0  0  0
 11 12  1  0  0  0  0
 11 13  2  0  0  0  0
 13 14  1  0  0  0  0
 13 27  1  0  0  0  0
 15 20  1  0  0  0  0
 15 16  2  0  0  0  0
 16 17  1  0  0  0  0
 16 28  1  0  0  0  0
 17 18  2  0  0  0  0
 17 29  1  0  0  0  0
 18 19  1  0  0  0  0
 18 30  1  0  0  0  0
 19 20  2  0  0  0  0
 19 31  1  0  0  0  0
 20 32  1  0  0  0  0
M  END
> <s_m_source_file>
AV-unprocessed.smi

> <i_m_source_file_index>
456

> <i_lp_mmshare_version>
43012

> <i_f3d_flags>
0

> <s_epik_input>
W2NIXTFbY0hdW2NIXVtjSF1bY0hdYzFbQ0BIXShbT0hdKVtDSDJdbihbY0hdbjIpYyhjMjMpW2NIXWMoRiljKEYpW2NIXTM=

> <s_epik_cmdline>
J2VwaWtfcHl0aG9uJywgJy1waCcsICc3LjAnLCAnLXRuJywgJzgnLCAnLW1hJywgJzIwMCcsICctbWV0YWxfYmluZGluZycsICctaW1hZScsICc8aW5maWxlLm1hZT4nLCAnLW9tYWUnLCAnPG91dGZpbGUubWFlPic=

> <r_epik_Ionization_Penalty>
0.0156354

> <r_epik_Ionization_Penalty_Charging>
0

> <r_epik_Ionization_Penalty_Neutral>
0.0156354

> <r_epik_State_Penalty>
0.0122974

> <r_epik_Charging_Adjusted_Penalty>
0.0122974

> <i_epik_Tot_Q>
0

> <i_epik_Tot_abs_Q>
0

> <r_epik_Metal_State_Penalty>
1.24258e-05

> <b_epik_Metal_Only>
0

> <s_lp_Force_Field>
OPLS_2005

> <r_lp_Energy>
11.2187

> <b_lp_Chiralities_Consistent>
1

> <s_lp_Variant>
AV-unprocessed.smi:456-2

> <Gold.Version>
5.8.1

> <Gold.Id.Protein>
6NUR|6NUR_protein|mol2

> <Gold.PLP.Fitness>
55.2472

> <Gold.PLP.PLP>
-53.2885

> <Gold.PLP.part.hbond>
0.0000

> <Gold.PLP.part.metal>
0.0000

> <Gold.PLP.part.buried>
-4.9738

> <Gold.PLP.part.nonpolar>
-47.3786

> <Gold.PLP.part.repulsive>
0.1300

> <Gold.PLP.ligand.clash>
0.0000

> <Gold.PLP.ligand.torsion>
0.5840

> <Gold.PLP.Chemscore.Hbond>
0.0000

> <Gold.PLP.Chemscore.CHOScore>
1.0366

> <Gold.PLP.Chemscore.Metal>
0.0000

> <Gold.Chemscore.Hbonds>
donor molecule, donor type, donor heavy atom, donor atom, acceptor molecule, acceptor atom, score
      L1  C     5    25       P1  8028  0.95
      L1  C     5    25       P1  8029  0.07

> <Gold.PLP.Chemscore.Internal.Correction>
0.0170

> <Gold.Rescore>
     Score         DG    S(hbond)    S(metal)    S(lipo)     H(rot)  DE(clash)    DE(int)     intcor
     14.46     -14.90       0.00        0.00     123.81       1.98       0.04       0.40       ----

> <Gold.Chemscore.Fitness>
14.4613

> <Gold.Chemscore.DG>
-14.9034

> <Gold.Chemscore.ZeroCoef>
-5.4800

> <Gold.Chemscore.Hbond>
0.0000

> <Gold.Chemscore.Metal>
0.0000

> <Gold.Chemscore.Lipo>
123.8124

> <Gold.Chemscore.Internal_Hbond>
0.0000

> <Gold.Chemscore.DEClash>
0.0411

> <Gold.Chemscore.DEInternal>
0.4010

> <Gold.Chemscore.Rot>
1.9776

> <Gold.Chemscore.Internal.Correction>
   9.000000E+99

> <Gold.Chemscore.Hbond.Weighted>
-0.0000

> <Gold.Chemscore.Metal.Weighted>
-0.0000

> <Gold.Chemscore.Lipo.Weighted>
-14.4860

> <Gold.Chemscore.Internal_Hbond.Weighted>
0.0000

> <Gold.Chemscore.DEClash.Weighted>
0.0411

> <Gold.Chemscore.DEInternal.Weighted>
0.4010

> <Gold.Chemscore.Rot.Weighted>
5.0626

> <Gold.Chemscore.Internal.Correction.Weighted>
   9.000000E+99

> <Gold.Protein.RotatedTorsions>
[ 6907 6896 6895 6894 ] final  162.94 input  -60.11 | X-H torsion
[ 7974 7965 7964 7962 ] final  -83.63 input  175.53 | X-H torsion
[ 8008 7997 7996 7995 ] final -112.44 input   59.86 | X-H torsion
[ 10167 10162 10161 10158 ] final   -0.75 input  -65.29 | X-H torsion
[ 10718 10713 10712 10709 ] final   82.43 input   66.30 | X-H torsion
[ 10763 10752 10751 10750 ] final -143.30 input  -60.55 | X-H torsion
[ 11005 11000 10999 10996 ] final   63.70 input  -57.11 | X-H torsion

> <Gold.Protein.ActiveResidues>
 VAL166  LYS551  ARG553  GLY616  TRP617  ASP618  TYR619  PRO620  LYS621  CYS622 
 ASP623  PHE694  ASN695  SER759  ASP760  ASP761  ALA762  ILE779  LEU786  VAL792 
 PHE793  MET794  SER795  GLU796  ALA797  LYS798  CYS799  TRP800  GLU811  SER814 

> <Gold.Protein.RotatedAtoms>
  151.9328  133.3616  159.3936 H   0  0  0  0  0  0  0  0  0  0  0  0  # atno 6907 bound_to 6896
  150.7013  134.4519  159.5350 H   0  0  0  0  0  0  0  0  0  0  0  0  # atno 6908 bound_to 6896
  152.2163  134.8455  160.0542 H   0  0  0  0  0  0  0  0  0  0  0  0  # atno 6909 bound_to 6896
  145.5174  140.9534  143.1674 H   0  0  0  0  0  0  0  0  0  0  0  0  # atno 7974 bound_to 7965
  155.0052  140.0394  157.2377 H   0  0  0  0  0  0  0  0  0  0  0  0  # atno 8008 bound_to 7997
  154.7508  140.2766  155.6271 H   0  0  0  0  0  0  0  0  0  0  0  0  # atno 8009 bound_to 7997
  156.2884  140.2647  156.2261 H   0  0  0  0  0  0  0  0  0  0  0  0  # atno 8010 bound_to 7997
  140.6781  143.6858  150.8068 H   0  0  0  0  0  0  0  0  0  0  0  0  # atno 10167 bound_to 10162
  157.6857  131.0047  150.2373 H   0  0  0  0  0  0  0  0  0  0  0  0  # atno 10718 bound_to 10713
  154.8475  135.3472  154.6165 H   0  0  0  0  0  0  0  0  0  0  0  0  # atno 10763 bound_to 10752
  153.6774  135.6982  153.5133 H   0  0  0  0  0  0  0  0  0  0  0  0  # atno 10764 bound_to 10752
  153.2695  135.4297  155.0930 H   0  0  0  0  0  0  0  0  0  0  0  0  # atno 10765 bound_to 10752
  140.0007  134.6446  155.9935 H   0  0  0  0  0  0  0  0  0  0  0  0  # atno 11005 bound_to 11000
  144.7694  139.6769  143.7201 LP  0  0  0  0  0  0  0  0  0  0  0  0  # atno 17320 bound_to 7965
  146.2128  139.5496  142.9670 LP  0  0  0  0  0  0  0  0  0  0  0  0  # atno 17321 bound_to 7965
  140.0554  143.5208  152.2654 LP  0  0  0  0  0  0  0  0  0  0  0  0  # atno 17342 bound_to 10162
  139.6085  144.7602  151.3006 LP  0  0  0  0  0  0  0  0  0  0  0  0  # atno 17343 bound_to 10162
  156.2994  130.3756  149.7764 LP  0  0  0  0  0  0  0  0  0  0  0  0  # atno 17370 bound_to 10713
  156.5399  130.8295  151.3265 LP  0  0  0  0  0  0  0  0  0  0  0  0  # atno 17371 bound_to 10713
  141.1640  133.6537  156.4414 LP  0  0  0  0  0  0  0  0  0  0  0  0  # atno 17394 bound_to 11000
  140.4733  134.6733  157.5139 LP  0  0  0  0  0  0  0  0  0  0  0  0  # atno 17395 bound_to 11000

$$$$
