AV-unprocessed.smi:2942|AV-procd|sdf|11267|dock2
  -GOLD-   2272016153D 1   1.00000     0.00000
 Structure written by MMmdl.
 46 49  0  0  0  0  0  0  0  0  2 V2000
  153.5977  137.8232  160.7525 O   0  0  0  0  0  0  0  0  0  0  0  0
  154.6358  138.4304  161.0169 C   0  0  0  0  0  0  0  0  0  0  0  0
  154.7576  139.7542  160.8229 N   0  0  0  0  0  0  0  0  0  0  0  0
  153.6942  140.6407  160.3608 C   0  0  0  0  0  0  0  0  0  0  0  0
  153.9290  142.1187  160.7400 C   0  0  0  0  0  0  0  0  0  0  0  0
  152.8694  143.0677  160.2044 C   0  0  0  0  0  0  0  0  0  0  0  0
  151.9096  142.6591  159.2535 C   0  0  0  0  0  0  0  0  0  0  0  0
  150.9634  143.5940  158.7836 C   0  0  0  0  0  0  0  0  0  0  0  0
  150.9982  144.9171  159.2715 C   0  0  0  0  0  0  0  0  0  0  0  0
  151.9779  145.2716  160.2210 C   0  0  0  0  0  0  0  0  0  0  0  0
  152.8639  144.3461  160.6489 N   0  3  0  0  0  0  0  0  0  0  0  0
  155.8343  137.6685  161.6286 C   0  0  0  0  0  0  0  0  0  0  0  0
  156.1404  138.2546  163.0350 C   0  0  0  0  0  0  0  0  0  0  0  0
  157.3017  137.4842  163.6980 C   0  0  1  0  0  0  0  0  0  0  0  0
  156.9130  135.9991  163.8518 C   0  0  0  0  0  0  0  0  0  0  0  0
  156.6294  135.4009  162.4580 C   0  0  2  0  0  0  0  0  0  0  0  0
  157.8935  135.5115  161.5811 C   0  0  0  0  0  0  0  0  0  0  0  0
  158.2820  136.9972  161.4332 C   0  0  2  0  0  0  0  0  0  0  0  0
  158.5672  137.6016  162.8237 C   0  0  0  0  0  0  0  0  0  0  0  0
  157.1260  137.7691  160.7626 C   0  0  0  0  0  0  0  0  0  0  0  0
  155.4663  136.1684  161.7922 C   0  0  0  0  0  0  0  0  0  0  0  0
  155.6437  140.1838  161.0478 H   0  0  0  0  0  0  0  0  0  0  0  0
  153.6465  140.5507  159.2754 H   0  0  0  0  0  0  0  0  0  0  0  0
  152.7296  140.2996  160.7399 H   0  0  0  0  0  0  0  0  0  0  0  0
  153.9743  142.2132  161.8255 H   0  0  0  0  0  0  0  0  0  0  0  0
  154.9036  142.4434  160.3730 H   0  0  0  0  0  0  0  0  0  0  0  0
  151.8989  141.6435  158.8853 H   0  0  0  0  0  0  0  0  0  0  0  0
  150.2215  143.3004  158.0555 H   0  0  0  0  0  0  0  0  0  0  0  0
  150.2845  145.6486  158.9217 H   0  0  0  0  0  0  0  0  0  0  0  0
  152.0805  146.2592  160.6469 H   0  0  0  0  0  0  0  0  0  0  0  0
  156.3981  139.3120  162.9583 H   0  0  0  0  0  0  0  0  0  0  0  0
  155.2595  138.2023  163.6770 H   0  0  0  0  0  0  0  0  0  0  0  0
  157.5019  137.9089  164.6821 H   0  0  0  0  0  0  0  0  0  0  0  0
  157.7147  135.4475  164.3445 H   0  0  0  0  0  0  0  0  0  0  0  0
  156.0342  135.9020  164.4906 H   0  0  0  0  0  0  0  0  0  0  0  0
  156.3550  134.3510  162.5652 H   0  0  0  0  0  0  0  0  0  0  0  0
  158.7142  134.9491  162.0283 H   0  0  0  0  0  0  0  0  0  0  0  0
  157.7136  135.0678  160.6011 H   0  0  0  0  0  0  0  0  0  0  0  0
  159.1766  137.0763  160.8148 H   0  0  0  0  0  0  0  0  0  0  0  0
  158.8655  138.6464  162.7284 H   0  0  0  0  0  0  0  0  0  0  0  0
  159.4030  137.0842  163.2968 H   0  0  0  0  0  0  0  0  0  0  0  0
  156.9527  137.3634  159.7643 H   0  0  0  0  0  0  0  0  0  0  0  0
  157.4209  138.8111  160.6278 H   0  0  0  0  0  0  0  0  0  0  0  0
  154.5643  136.0531  162.3955 H   0  0  0  0  0  0  0  0  0  0  0  0
  155.2409  135.7251  160.8210 H   0  0  0  0  0  0  0  0  0  0  0  0
  153.5667  144.6246  161.3344 H   0  0  0  0  0  0  0  0  0  0  0  0
  1  2  2  0  0  0  0
  2  3  1  0  0  0  0
  2 12  1  0  0  0  0
  3  4  1  0  0  0  0
  3 22  1  0  0  0  0
  4  5  1  0  0  0  0
  4 23  1  0  0  0  0
  4 24  1  0  0  0  0
  5  6  1  0  0  0  0
  5 25  1  0  0  0  0
  5 26  1  0  0  0  0
  6 11  1  0  0  0  0
  6  7  2  0  0  0  0
  7  8  1  0  0  0  0
  7 27  1  0  0  0  0
  8  9  2  0  0  0  0
  8 28  1  0  0  0  0
  9 10  1  0  0  0  0
  9 29  1  0  0  0  0
 10 11  2  0  0  0  0
 10 30  1  0  0  0  0
 11 46  1  0  0  0  0
 12 20  1  0  0  0  0
 12 21  1  0  0  0  0
 12 13  1  0  0  0  0
 13 14  1  0  0  0  0
 13 31  1  0  0  0  0
 13 32  1  0  0  0  0
 14 19  1  0  0  0  0
 14 15  1  0  0  0  0
 14 33  1  0  0  0  0
 15 16  1  0  0  0  0
 15 34  1  0  0  0  0
 15 35  1  0  0  0  0
 16 17  1  0  0  0  0
 16 21  1  0  0  0  0
 16 36  1  0  0  0  0
 17 18  1  0  0  0  0
 17 37  1  0  0  0  0
 17 38  1  0  0  0  0
 18 19  1  0  0  0  0
 18 20  1  0  0  0  0
 18 39  1  0  0  0  0
 19 40  1  0  0  0  0
 19 41  1  0  0  0  0
 20 42  1  0  0  0  0
 20 43  1  0  0  0  0
 21 44  1  0  0  0  0
 21 45  1  0  0  0  0
M  CHG  1  11   1
M  END
> <s_m_source_file>
AV-unprocessed.smi

> <i_m_source_file_index>
2942

> <i_lp_mmshare_version>
43012

> <i_f3d_flags>
0

> <s_epik_input>
W0NIMl0xW0NASF0oW0NIMl0yKVtDSDJdW0NASF0oW0NIMl0zKVtDSDJdW0NAQEhdMVtDSDJdQzIzQyg9TylbTkhdW0NIMl1bQ0gyXWM0W2NIXVtjSF1bY0hdW2NIXW40

> <s_epik_cmdline>
J2VwaWtfcHl0aG9uJywgJy1waCcsICc3LjAnLCAnLXRuJywgJzgnLCAnLW1hJywgJzIwMCcsICctbWV0YWxfYmluZGluZycsICctaW1hZScsICc8aW5maWxlLm1hZT4nLCAnLW9tYWUnLCAnPG91dGZpbGUubWFlPic=

> <r_epik_Ionization_Penalty>
1.81477

> <r_epik_Ionization_Penalty_Charging>
1.81477

> <r_epik_Ionization_Penalty_Neutral>
2.68418e-08

> <r_epik_State_Penalty>
1.92951

> <r_epik_Charging_Adjusted_Penalty>
3.74429

> <i_epik_Tot_Q>
1

> <i_epik_Tot_abs_Q>
1

> <r_epik_Metal_State_Penalty>
1.95679

> <b_epik_Metal_Only>
0

> <s_lp_Force_Field>
OPLS_2005

> <r_lp_Energy>
40.8466

> <b_lp_Chiralities_Consistent>
1

> <s_lp_Variant>
AV-unprocessed.smi:2942-2

> <Gold.Version>
5.8.1

> <Gold.Id.Protein>
6NUR|6NUR_protein|mol2

> <Gold.PLP.Fitness>
45.0954

> <Gold.PLP.PLP>
-45.6067

> <Gold.PLP.part.hbond>
0.0000

> <Gold.PLP.part.metal>
0.0000

> <Gold.PLP.part.buried>
-5.2373

> <Gold.PLP.part.nonpolar>
-39.9101

> <Gold.PLP.part.repulsive>
0.0527

> <Gold.PLP.ligand.clash>
0.0000

> <Gold.PLP.ligand.torsion>
0.2691

> <Gold.PLP.Chemscore.Hbond>
0.0000

> <Gold.PLP.Chemscore.CHOScore>
0.0000

> <Gold.PLP.Chemscore.Metal>
0.0000

> <Gold.PLP.Chemscore.Internal.Correction>
0.0268

> <Gold.Rescore>
     Score         DG    S(hbond)    S(metal)    S(lipo)     H(rot)  DE(clash)    DE(int)     intcor
     18.08     -18.30       0.00        0.00     140.55       1.41       0.05       0.17       ----

> <Gold.Chemscore.Fitness>
18.0796

> <Gold.Chemscore.DG>
-18.3038

> <Gold.Chemscore.ZeroCoef>
-5.4800

> <Gold.Chemscore.Hbond>
0.0000

> <Gold.Chemscore.Metal>
0.0000

> <Gold.Chemscore.Lipo>
140.5538

> <Gold.Chemscore.Internal_Hbond>
0.0000

> <Gold.Chemscore.DEClash>
0.0529

> <Gold.Chemscore.DEInternal>
0.1713

> <Gold.Chemscore.Rot>
1.4145

> <Gold.Chemscore.Internal.Correction>
   9.000000E+99

> <Gold.Chemscore.Hbond.Weighted>
-0.0000

> <Gold.Chemscore.Metal.Weighted>
-0.0000

> <Gold.Chemscore.Lipo.Weighted>
-16.4448

> <Gold.Chemscore.Internal_Hbond.Weighted>
0.0000

> <Gold.Chemscore.DEClash.Weighted>
0.0529

> <Gold.Chemscore.DEInternal.Weighted>
0.1713

> <Gold.Chemscore.Rot.Weighted>
3.6210

> <Gold.Chemscore.Internal.Correction.Weighted>
   9.000000E+99

> <Gold.Protein.RotatedTorsions>
[ 6907 6896 6895 6894 ] final   32.26 input  -60.11 | X-H torsion
[ 7974 7965 7964 7962 ] final -112.78 input  175.53 | X-H torsion
[ 8008 7997 7996 7995 ] final  142.01 input   59.86 | X-H torsion
[ 10167 10162 10161 10158 ] final  -39.20 input  -65.29 | X-H torsion
[ 10718 10713 10712 10709 ] final -123.14 input   66.30 | X-H torsion
[ 10763 10752 10751 10750 ] final   14.64 input  -60.55 | X-H torsion
[ 11005 11000 10999 10996 ] final    7.22 input  -57.11 | X-H torsion

> <Gold.Protein.ActiveResidues>
 VAL166  LYS551  ARG553  GLY616  TRP617  ASP618  TYR619  PRO620  LYS621  CYS622 
 ASP623  PHE694  ASN695  SER759  ASP760  ASP761  ALA762  ILE779  LEU786  VAL792 
 PHE793  MET794  SER795  GLU796  ALA797  LYS798  CYS799  TRP800  GLU811  SER814 

> <Gold.Protein.RotatedAtoms>
  152.0719  134.9527  160.0574 H   0  0  0  0  0  0  0  0  0  0  0  0  # atno 6907 bound_to 6896
  152.0850  133.4167  159.4526 H   0  0  0  0  0  0  0  0  0  0  0  0  # atno 6908 bound_to 6896
  150.6836  134.2858  159.4689 H   0  0  0  0  0  0  0  0  0  0  0  0  # atno 6909 bound_to 6896
  145.1399  140.8772  143.3708 H   0  0  0  0  0  0  0  0  0  0  0  0  # atno 7974 bound_to 7965
  156.2956  140.2300  156.4658 H   0  0  0  0  0  0  0  0  0  0  0  0  # atno 8008 bound_to 7997
  154.7978  140.0450  157.1271 H   0  0  0  0  0  0  0  0  0  0  0  0  # atno 8009 bound_to 7997
  154.9569  140.3049  155.5052 H   0  0  0  0  0  0  0  0  0  0  0  0  # atno 8010 bound_to 7997
  140.7071  143.3229  151.2748 H   0  0  0  0  0  0  0  0  0  0  0  0  # atno 10167 bound_to 10162
  156.1477  130.6512  150.9866 H   0  0  0  0  0  0  0  0  0  0  0  0  # atno 10718 bound_to 10713
  153.1602  135.6794  153.8754 H   0  0  0  0  0  0  0  0  0  0  0  0  # atno 10763 bound_to 10752
  153.8152  135.3137  155.3406 H   0  0  0  0  0  0  0  0  0  0  0  0  # atno 10764 bound_to 10752
  154.7927  135.4825  154.0178 H   0  0  0  0  0  0  0  0  0  0  0  0  # atno 10765 bound_to 10752
  140.5507  134.0286  155.7936 H   0  0  0  0  0  0  0  0  0  0  0  0  # atno 11005 bound_to 11000
  145.0544  139.3156  143.5912 LP  0  0  0  0  0  0  0  0  0  0  0  0  # atno 17320 bound_to 7965
  146.3506  139.9963  142.8680 LP  0  0  0  0  0  0  0  0  0  0  0  0  # atno 17321 bound_to 7965
  139.6689  144.0056  152.2740 LP  0  0  0  0  0  0  0  0  0  0  0  0  # atno 17342 bound_to 10162
  139.9648  144.6534  150.8045 LP  0  0  0  0  0  0  0  0  0  0  0  0  # atno 17343 bound_to 10162
  157.6630  131.0877  150.7794 LP  0  0  0  0  0  0  0  0  0  0  0  0  # atno 17370 bound_to 10713
  156.7864  130.4876  149.5392 LP  0  0  0  0  0  0  0  0  0  0  0  0  # atno 17371 bound_to 10713
  141.1173  133.9519  157.2797 LP  0  0  0  0  0  0  0  0  0  0  0  0  # atno 17394 bound_to 11000
  139.9457  135.0184  156.8844 LP  0  0  0  0  0  0  0  0  0  0  0  0  # atno 17395 bound_to 11000

$$$$
