AV-unprocessed.smi:2104|AV-procd|sdf|8585|dock3
  -GOLD-   2272011313D 1   1.00000     0.00000
 Structure written by MMmdl.
 43 44  0  0  0  0  0  0  0  0  1 V2000
  144.1717  131.7123  150.4404 C   0  0  0  0  0  0  0  0  0  0  0  0
  145.2491  132.2564  151.3144 C   0  0  0  0  0  0  0  0  0  0  0  0
  145.7240  133.5194  151.5263 C   0  0  0  0  0  0  0  0  0  0  0  0
  146.7580  133.3149  152.4858 C   0  0  0  0  0  0  0  0  0  0  0  0
  147.5644  134.3245  153.0710 N   0  0  0  0  0  0  0  0  0  0  0  0
  147.9267  134.4444  154.3586 C   0  0  0  0  0  0  0  0  0  0  0  0
  147.4712  133.7768  155.2873 O   0  0  0  0  0  0  0  0  0  0  0  0
  148.8658  135.3892  154.5165 N   0  0  0  0  0  0  0  0  0  0  0  0
  149.5689  135.6652  155.7660 C   0  0  0  0  0  0  0  0  0  0  0  0
  150.5710  136.8175  155.5938 C   0  0  0  0  0  0  0  0  0  0  0  0
  149.8470  138.0173  155.3675 O   0  0  0  0  0  0  0  0  0  0  0  0
  150.4645  138.9595  154.5002 C   0  0  2  0  0  0  0  0  0  0  0  0
  151.8873  139.3069  154.9925 C   0  0  0  0  0  0  0  0  0  0  0  0
  151.8633  139.9901  156.3702 C   0  0  0  0  0  0  0  0  0  0  0  0
  150.9674  141.2376  156.3592 C   0  0  0  0  0  0  0  0  0  0  0  0
  149.5515  140.9086  155.8597 C   0  0  0  0  0  0  0  0  0  0  0  0
  149.5811  140.2271  154.4752 C   0  0  2  0  0  0  0  0  0  0  0  0
  148.1657  139.9346  153.9531 C   0  0  0  0  0  0  0  0  0  0  0  0
  146.8842  132.0484  152.8367 N   0  0  0  0  0  0  0  0  0  0  0  0
  145.9249  131.3607  152.0837 O   0  0  0  0  0  0  0  0  0  0  0  0
  143.8441  132.4586  149.7165 H   0  0  0  0  0  0  0  0  0  0  0  0
  143.3075  131.4144  151.0341 H   0  0  0  0  0  0  0  0  0  0  0  0
  144.5228  130.8395  149.8895 H   0  0  0  0  0  0  0  0  0  0  0  0
  145.3741  134.4314  151.0661 H   0  0  0  0  0  0  0  0  0  0  0  0
  147.9508  134.9984  152.4268 H   0  0  0  0  0  0  0  0  0  0  0  0
  149.1690  135.9013  153.7011 H   0  0  0  0  0  0  0  0  0  0  0  0
  148.8255  135.9378  156.5152 H   0  0  0  0  0  0  0  0  0  0  0  0
  150.0704  134.7705  156.1386 H   0  0  0  0  0  0  0  0  0  0  0  0
  151.2039  136.8882  156.4780 H   0  0  0  0  0  0  0  0  0  0  0  0
  151.2236  136.6242  154.7416 H   0  0  0  0  0  0  0  0  0  0  0  0
  150.5152  138.5457  153.4914 H   0  0  0  0  0  0  0  0  0  0  0  0
  152.5195  138.4209  155.0298 H   0  0  0  0  0  0  0  0  0  0  0  0
  152.3593  139.9757  154.2719 H   0  0  0  0  0  0  0  0  0  0  0  0
  151.5036  139.2882  157.1224 H   0  0  0  0  0  0  0  0  0  0  0  0
  152.8759  140.2644  156.6667 H   0  0  0  0  0  0  0  0  0  0  0  0
  150.9175  141.6668  157.3604 H   0  0  0  0  0  0  0  0  0  0  0  0
  151.4119  141.9994  155.7177 H   0  0  0  0  0  0  0  0  0  0  0  0
  149.0523  140.2621  156.5827 H   0  0  0  0  0  0  0  0  0  0  0  0
  148.9620  141.8247  155.8118 H   0  0  0  0  0  0  0  0  0  0  0  0
  150.0367  140.9288  153.7749 H   0  0  0  0  0  0  0  0  0  0  0  0
  147.6294  139.2518  154.6127 H   0  0  0  0  0  0  0  0  0  0  0  0
  148.1992  139.4827  152.9616 H   0  0  0  0  0  0  0  0  0  0  0  0
  147.5792  140.8507  153.8781 H   0  0  0  0  0  0  0  0  0  0  0  0
  1  2  1  0  0  0  0
  1 21  1  0  0  0  0
  1 22  1  0  0  0  0
  1 23  1  0  0  0  0
  2 20  1  0  0  0  0
  2  3  2  0  0  0  0
  3  4  1  0  0  0  0
  3 24  1  0  0  0  0
  4  5  1  0  0  0  0
  4 19  2  0  0  0  0
  5  6  1  0  0  0  0
  5 25  1  0  0  0  0
  6  7  2  0  0  0  0
  6  8  1  0  0  0  0
  8  9  1  0  0  0  0
  8 26  1  0  0  0  0
  9 10  1  0  0  0  0
  9 27  1  0  0  0  0
  9 28  1  0  0  0  0
 10 11  1  0  0  0  0
 10 29  1  0  0  0  0
 10 30  1  0  0  0  0
 11 12  1  0  0  0  0
 12 17  1  0  0  0  0
 12 13  1  0  0  0  0
 12 31  1  0  0  0  0
 13 14  1  0  0  0  0
 13 32  1  0  0  0  0
 13 33  1  0  0  0  0
 14 15  1  0  0  0  0
 14 34  1  0  0  0  0
 14 35  1  0  0  0  0
 15 16  1  0  0  0  0
 15 36  1  0  0  0  0
 15 37  1  0  0  0  0
 16 17  1  0  0  0  0
 16 38  1  0  0  0  0
 16 39  1  0  0  0  0
 17 18  1  0  0  0  0
 17 40  1  0  0  0  0
 18 41  1  0  0  0  0
 18 42  1  0  0  0  0
 18 43  1  0  0  0  0
 19 20  1  0  0  0  0
M  END
> <s_m_source_file>
AV-unprocessed.smi

> <i_m_source_file_index>
2104

> <i_lp_mmshare_version>
43012

> <i_f3d_flags>
0

> <s_epik_input>
W0NIM11jMVtjSF1jKG5vMSlbTkhdQyg9TylbTkhdW0NIMl1bQ0gyXU9bQ0BASF0yW0NIMl1bQ0gyXVtDSDJdW0NIMl1bQ0BIXTJbQ0gzXQ==

> <s_epik_cmdline>
J2VwaWtfcHl0aG9uJywgJy1waCcsICc3LjAnLCAnLXRuJywgJzgnLCAnLW1hJywgJzIwMCcsICctbWV0YWxfYmluZGluZycsICctaW1hZScsICc8aW5maWxlLm1hZT4nLCAnLW9tYWUnLCAnPG91dGZpbGUubWFlPic=

> <r_lp_tautomer_probability>
1

> <r_epik_Ionization_Penalty>
2.94418e-05

> <r_epik_Ionization_Penalty_Charging>
0

> <r_epik_Ionization_Penalty_Neutral>
2.94418e-05

> <r_epik_State_Penalty>
-0

> <r_epik_Charging_Adjusted_Penalty>
0

> <i_epik_Tot_Q>
0

> <i_epik_Tot_abs_Q>
0

> <r_epik_Metal_State_Penalty>
0.0104148

> <b_epik_Metal_Only>
0

> <s_lp_Force_Field>
OPLS_2005

> <r_lp_Energy>
9.69009

> <b_lp_Chiralities_Consistent>
1

> <s_lp_Variant>
AV-unprocessed.smi:2104-3

> <Gold.Version>
5.8.1

> <Gold.Id.Protein>
6NUR|6NUR_protein|mol2

> <Gold.PLP.Fitness>
36.8524

> <Gold.PLP.PLP>
-32.0406

> <Gold.PLP.part.hbond>
-2.0000

> <Gold.PLP.part.metal>
0.0000

> <Gold.PLP.part.buried>
-1.7726

> <Gold.PLP.part.nonpolar>
-28.1410

> <Gold.PLP.part.repulsive>
0.3935

> <Gold.PLP.ligand.clash>
0.0000

> <Gold.PLP.ligand.torsion>
0.5825

> <Gold.PLP.Chemscore.Hbond>
1.9760

> <Gold.PLP.Chemscore.CHOScore>
0.0000

> <Gold.PLP.Chemscore.Metal>
0.0000

> <Gold.Chemscore.Hbonds>
donor molecule, donor type, donor heavy atom, donor atom, acceptor molecule, acceptor atom, score
      L1  H     5    25       P1  7948  1.00
      L1  H     8    26       P1  7948  0.96

> <Gold.PLP.Chemscore.Internal.Correction>
0.0488

> <Gold.Rescore>
     Score         DG    S(hbond)    S(metal)    S(lipo)     H(rot)  DE(clash)    DE(int)     intcor
     15.42     -16.11       1.84        0.00      76.84       1.75       0.05       0.64       ----

> <Gold.Chemscore.Fitness>
15.4193

> <Gold.Chemscore.DG>
-16.1141

> <Gold.Chemscore.ZeroCoef>
-5.4800

> <Gold.Chemscore.Hbond>
1.8352

> <Gold.Chemscore.Metal>
0.0000

> <Gold.Chemscore.Lipo>
76.8428

> <Gold.Chemscore.Internal_Hbond>
0.0000

> <Gold.Chemscore.DEClash>
0.0514

> <Gold.Chemscore.DEInternal>
0.6435

> <Gold.Chemscore.Rot>
1.7524

> <Gold.Chemscore.Internal.Correction>
   9.000000E+99

> <Gold.Chemscore.Hbonds>
donor molecule, donor type, donor heavy atom, donor atom, acceptor molecule, acceptor atom, score
      L1  H     5    25       P1  7948  0.87
      L1  H     8    26       P1  7948  0.76

> <Gold.Chemscore.Hbond.Weighted>
-6.1296

> <Gold.Chemscore.Metal.Weighted>
-0.0000

> <Gold.Chemscore.Lipo.Weighted>
-8.9906

> <Gold.Chemscore.Internal_Hbond.Weighted>
0.0000

> <Gold.Chemscore.DEClash.Weighted>
0.0514

> <Gold.Chemscore.DEInternal.Weighted>
0.6435

> <Gold.Chemscore.Rot.Weighted>
4.4861

> <Gold.Chemscore.Internal.Correction.Weighted>
   9.000000E+99

> <Gold.Protein.RotatedTorsions>
[ 6907 6896 6895 6894 ] final -126.97 input  -60.11 | X-H torsion
[ 7974 7965 7964 7962 ] final -155.72 input  175.53 | X-H torsion
[ 8008 7997 7996 7995 ] final  -24.54 input   59.86 | X-H torsion
[ 10167 10162 10161 10158 ] final   -2.48 input  -65.29 | X-H torsion
[ 10718 10713 10712 10709 ] final -132.10 input   66.30 | X-H torsion
[ 10763 10752 10751 10750 ] final   86.81 input  -60.55 | X-H torsion
[ 11005 11000 10999 10996 ] final -111.46 input  -57.11 | X-H torsion

> <Gold.Protein.ActiveResidues>
 VAL166  LYS551  ARG553  GLY616  TRP617  ASP618  TYR619  PRO620  LYS621  CYS622 
 ASP623  PHE694  ASN695  SER759  ASP760  ASP761  ALA762  ILE779  LEU786  VAL792 
 PHE793  MET794  SER795  GLU796  ALA797  LYS798  CYS799  TRP800  GLU811  SER814 

> <Gold.Protein.RotatedAtoms>
  150.9024  133.7101  159.2875 H   0  0  0  0  0  0  0  0  0  0  0  0  # atno 6907 bound_to 6896
  151.4615  135.1037  159.9736 H   0  0  0  0  0  0  0  0  0  0  0  0  # atno 6908 bound_to 6896
  152.4884  133.8386  159.7196 H   0  0  0  0  0  0  0  0  0  0  0  0  # atno 6909 bound_to 6896
  144.7626  140.4209  143.5965 H   0  0  0  0  0  0  0  0  0  0  0  0  # atno 7974 bound_to 7965
  154.4524  140.1951  156.0479 H   0  0  0  0  0  0  0  0  0  0  0  0  # atno 8008 bound_to 7997
  156.0676  140.3289  155.7508 H   0  0  0  0  0  0  0  0  0  0  0  0  # atno 8009 bound_to 7997
  155.5315  140.0578  157.2879 H   0  0  0  0  0  0  0  0  0  0  0  0  # atno 8010 bound_to 7997
  140.6852  143.6652  150.8232 H   0  0  0  0  0  0  0  0  0  0  0  0  # atno 10167 bound_to 10162
  156.2312  130.7038  151.0860 H   0  0  0  0  0  0  0  0  0  0  0  0  # atno 10718 bound_to 10713
  153.1606  135.4567  154.9767 H   0  0  0  0  0  0  0  0  0  0  0  0  # atno 10763 bound_to 10752
  154.7895  135.3215  154.7813 H   0  0  0  0  0  0  0  0  0  0  0  0  # atno 10764 bound_to 10752
  153.8303  135.6939  153.4870 H   0  0  0  0  0  0  0  0  0  0  0  0  # atno 10765 bound_to 10752
  141.0733  133.9344  157.2441 H   0  0  0  0  0  0  0  0  0  0  0  0  # atno 11005 bound_to 11000
  145.6570  139.1574  143.2830 LP  0  0  0  0  0  0  0  0  0  0  0  0  # atno 17320 bound_to 7965
  146.1704  140.6654  142.9236 LP  0  0  0  0  0  0  0  0  0  0  0  0  # atno 17321 bound_to 7965
  140.0358  143.5396  152.2740 LP  0  0  0  0  0  0  0  0  0  0  0  0  # atno 17342 bound_to 10162
  139.6206  144.7628  151.2749 LP  0  0  0  0  0  0  0  0  0  0  0  0  # atno 17343 bound_to 10162
  157.7134  131.0723  150.6419 LP  0  0  0  0  0  0  0  0  0  0  0  0  # atno 17370 bound_to 10713
  156.6487  130.4479  149.5727 LP  0  0  0  0  0  0  0  0  0  0  0  0  # atno 17371 bound_to 10713
  139.9545  135.0168  156.9090 LP  0  0  0  0  0  0  0  0  0  0  0  0  # atno 17394 bound_to 11000
  140.5627  134.0519  155.7404 LP  0  0  0  0  0  0  0  0  0  0  0  0  # atno 17395 bound_to 11000

$$$$
