AV-unprocessed.smi:3189|AV-procd|sdf|12192|dock3
  -GOLD-   2272018 33D 1   1.00000     0.00000
 Structure written by MMmdl.
 31 32  0  0  0  0  0  0  0  0  2 V2000
  147.5846  139.0642  152.8764 C   0  0  0  0  0  0  0  0  0  0  0  0
  148.8419  139.3127  153.6873 C   0  0  0  0  0  0  0  0  0  0  0  0
  149.7827  138.3427  153.7004 N   0  3  0  0  0  0  0  0  0  0  0  0
  150.9369  138.4470  154.3913 C   0  0  0  0  0  0  0  0  0  0  0  0
  151.2058  139.6099  155.1390 C   0  0  0  0  0  0  0  0  0  0  0  0
  150.2609  140.6668  155.1463 C   0  0  0  0  0  0  0  0  0  0  0  0
  150.4443  141.8663  155.8879 N   0  0  0  0  0  0  0  0  0  0  0  0
  151.3194  142.1192  156.8807 C   0  0  0  0  0  0  0  0  0  0  0  0
  152.1474  141.3145  157.3030 O   0  0  0  0  0  0  0  0  0  0  0  0
  151.2705  143.3793  157.3465 N   0  0  0  0  0  0  0  0  0  0  0  0
  152.0667  143.9533  158.3904 C   0  0  1  0  0  0  0  0  0  0  0  0
  152.0261  145.4585  158.5400 C   0  0  0  0  0  0  0  0  0  0  0  0
  151.3815  144.5867  159.5864 C   0  0  1  0  0  0  0  0  0  0  0  0
  149.8752  144.5646  159.7552 C   0  0  0  0  0  0  0  0  0  0  0  0
  149.0561  140.5054  154.4180 C   0  0  0  0  0  0  0  0  0  0  0  0
  147.8579  141.7561  154.4120 Cl  0  0  0  0  0  0  0  0  0  0  0  0
  147.4935  139.8059  152.0823 H   0  0  0  0  0  0  0  0  0  0  0  0
  146.7019  139.1304  153.5134 H   0  0  0  0  0  0  0  0  0  0  0  0
  147.5954  138.0753  152.4166 H   0  0  0  0  0  0  0  0  0  0  0  0
  151.6041  137.5994  154.3315 H   0  0  0  0  0  0  0  0  0  0  0  0
  152.1252  139.6644  155.7018 H   0  0  0  0  0  0  0  0  0  0  0  0
  149.8999  142.6561  155.5729 H   0  0  0  0  0  0  0  0  0  0  0  0
  150.6697  144.0219  156.8499 H   0  0  0  0  0  0  0  0  0  0  0  0
  153.0440  143.5064  158.5677 H   0  0  0  0  0  0  0  0  0  0  0  0
  152.9516  145.9624  158.8108 H   0  0  0  0  0  0  0  0  0  0  0  0
  151.3708  146.0187  157.8753 H   0  0  0  0  0  0  0  0  0  0  0  0
  151.9186  144.4967  160.5289 H   0  0  0  0  0  0  0  0  0  0  0  0
  149.3694  144.7417  158.8057 H   0  0  0  0  0  0  0  0  0  0  0  0
  149.5682  145.3399  160.4569 H   0  0  0  0  0  0  0  0  0  0  0  0
  149.5571  143.5974  160.1447 H   0  0  0  0  0  0  0  0  0  0  0  0
  149.6099  137.4897  153.1676 H   0  0  0  0  0  0  0  0  0  0  0  0
  1  2  1  0  0  0  0
  1 17  1  0  0  0  0
  1 18  1  0  0  0  0
  1 19  1  0  0  0  0
  2 15  1  0  0  0  0
  2  3  2  0  0  0  0
  3  4  1  0  0  0  0
  3 31  1  0  0  0  0
  4  5  2  0  0  0  0
  4 20  1  0  0  0  0
  5  6  1  0  0  0  0
  5 21  1  0  0  0  0
  6  7  1  0  0  0  0
  6 15  2  0  0  0  0
  7  8  1  0  0  0  0
  7 22  1  0  0  0  0
  8  9  2  0  0  0  0
  8 10  1  0  0  0  0
 10 11  1  0  0  0  0
 10 23  1  0  0  0  0
 11 13  1  0  0  0  0
 11 12  1  0  0  0  0
 11 24  1  0  0  0  0
 12 13  1  0  0  0  0
 12 25  1  0  0  0  0
 12 26  1  0  0  0  0
 13 14  1  0  0  0  0
 13 27  1  0  0  0  0
 14 28  1  0  0  0  0
 14 29  1  0  0  0  0
 14 30  1  0  0  0  0
 15 16  1  0  0  0  0
M  CHG  1   3   1
M  END
> <s_m_source_file>
AV-unprocessed.smi

> <i_m_source_file_index>
3189

> <i_lp_mmshare_version>
43012

> <i_f3d_flags>
0

> <s_epik_input>
W0NIM11jMW5bY0hdW2NIXWMoYzFDbClbTkhdQyg9TylbTkhdW0NAQEhdMltDSDJdW0NASF0yW0NIM10=

> <s_epik_cmdline>
J2VwaWtfcHl0aG9uJywgJy1waCcsICc3LjAnLCAnLXRuJywgJzgnLCAnLW1hJywgJzIwMCcsICctbWV0YWxfYmluZGluZycsICctaW1hZScsICc8aW5maWxlLm1hZT4nLCAnLW9tYWUnLCAnPG91dGZpbGUubWFlPic=

> <r_epik_Ionization_Penalty>
2.42914

> <r_epik_Ionization_Penalty_Charging>
2.42912

> <r_epik_Ionization_Penalty_Neutral>
2.15137e-05

> <r_epik_State_Penalty>
2.58904

> <r_epik_Charging_Adjusted_Penalty>
5.01816

> <i_epik_Tot_Q>
1

> <i_epik_Tot_abs_Q>
1

> <r_epik_Metal_State_Penalty>
2.59882

> <b_epik_Metal_Only>
0

> <s_lp_Force_Field>
OPLS_2005

> <r_lp_Energy>
38.4709

> <b_lp_Chiralities_Consistent>
1

> <s_lp_Variant>
AV-unprocessed.smi:3189-6

> <Gold.Version>
5.8.1

> <Gold.Id.Protein>
6NUR|6NUR_protein|mol2

> <Gold.PLP.Fitness>
49.3985

> <Gold.PLP.PLP>
-37.6246

> <Gold.PLP.part.hbond>
-4.0000

> <Gold.PLP.part.metal>
0.0000

> <Gold.PLP.part.buried>
0.2526

> <Gold.PLP.part.nonpolar>
-33.6606

> <Gold.PLP.part.repulsive>
0.2210

> <Gold.PLP.ligand.clash>
0.0000

> <Gold.PLP.ligand.torsion>
0.1324

> <Gold.PLP.Chemscore.Hbond>
4.0000

> <Gold.PLP.Chemscore.CHOScore>
0.0000

> <Gold.PLP.Chemscore.Metal>
0.0000

> <Gold.Chemscore.Hbonds>
donor molecule, donor type, donor heavy atom, donor atom, acceptor molecule, acceptor atom, score
      L1  H     3    31       P1  7948  2.00
      L1  H     7    22       P1  8028  0.32
      L1  H    10    23       P1  8028  0.49

> <Gold.PLP.Chemscore.Internal.Correction>
0.0387

> <Gold.Rescore>
     Score         DG    S(hbond)    S(metal)    S(lipo)     H(rot)  DE(clash)    DE(int)     intcor
     20.25     -23.99       2.87        0.00      98.31       1.00       2.40       1.35       ----

> <Gold.Chemscore.Fitness>
20.2451

> <Gold.Chemscore.DG>
-23.9922

> <Gold.Chemscore.ZeroCoef>
-5.4800

> <Gold.Chemscore.Hbond>
2.8652

> <Gold.Chemscore.Metal>
0.0000

> <Gold.Chemscore.Lipo>
98.3110

> <Gold.Chemscore.Internal_Hbond>
0.0000

> <Gold.Chemscore.DEClash>
2.3957

> <Gold.Chemscore.DEInternal>
1.3514

> <Gold.Chemscore.Rot>
1.0000

> <Gold.Chemscore.Internal.Correction>
   9.000000E+99

> <Gold.Chemscore.Hbonds>
donor molecule, donor type, donor heavy atom, donor atom, acceptor molecule, acceptor atom, score
      L1  H     3    31       P1  7948  0.78
      L1  H     7    22       P1  8028  0.33
      L1  H    10    23       P1  8028  0.49

> <Gold.Chemscore.Hbond.Weighted>
-9.5698

> <Gold.Chemscore.Metal.Weighted>
-0.0000

> <Gold.Chemscore.Lipo.Weighted>
-11.5024

> <Gold.Chemscore.Internal_Hbond.Weighted>
0.0000

> <Gold.Chemscore.DEClash.Weighted>
2.3957

> <Gold.Chemscore.DEInternal.Weighted>
1.3514

> <Gold.Chemscore.Rot.Weighted>
2.5600

> <Gold.Chemscore.Internal.Correction.Weighted>
   9.000000E+99

> <Gold.Protein.RotatedTorsions>
[ 6907 6896 6895 6894 ] final -114.00 input  -60.11 | X-H torsion
[ 7974 7965 7964 7962 ] final  -32.80 input  175.53 | X-H torsion
[ 8008 7997 7996 7995 ] final   61.26 input   59.86 | X-H torsion
[ 10167 10162 10161 10158 ] final  -21.00 input  -65.29 | X-H torsion
[ 10718 10713 10712 10709 ] final  -16.82 input   66.30 | X-H torsion
[ 10763 10752 10751 10750 ] final -125.08 input  -60.55 | X-H torsion
[ 11005 11000 10999 10996 ] final  -66.49 input  -57.11 | X-H torsion

> <Gold.Protein.ActiveResidues>
 VAL166  LYS551  ARG553  GLY616  TRP617  ASP618  TYR619  PRO620  LYS621  CYS622 
 ASP623  PHE694  ASN695  SER759  ASP760  ASP761  ALA762  ILE779  LEU786  VAL792 
 PHE793  MET794  SER795  GLU796  ALA797  LYS798  CYS799  TRP800  GLU811  SER814 

> <Gold.Protein.RotatedAtoms>
  150.7870  133.8863  159.3300 H   0  0  0  0  0  0  0  0  0  0  0  0  # atno 6907 bound_to 6896
  151.6711  135.0974  160.0207 H   0  0  0  0  0  0  0  0  0  0  0  0  # atno 6908 bound_to 6896
  152.3936  133.6676  159.6293 H   0  0  0  0  0  0  0  0  0  0  0  0  # atno 6909 bound_to 6896
  146.0961  140.5837  142.8842 H   0  0  0  0  0  0  0  0  0  0  0  0  # atno 7974 bound_to 7965
  155.5955  140.3493  155.4578 H   0  0  0  0  0  0  0  0  0  0  0  0  # atno 8008 bound_to 7997
  156.0268  140.1266  157.0324 H   0  0  0  0  0  0  0  0  0  0  0  0  # atno 8009 bound_to 7997
  154.4336  140.1051  156.6029 H   0  0  0  0  0  0  0  0  0  0  0  0  # atno 8010 bound_to 7997
  140.7279  143.4669  151.0301 H   0  0  0  0  0  0  0  0  0  0  0  0  # atno 10167 bound_to 10162
  156.5822  130.4777  149.6315 H   0  0  0  0  0  0  0  0  0  0  0  0  # atno 10718 bound_to 10713
  154.8731  135.4041  154.3210 H   0  0  0  0  0  0  0  0  0  0  0  0  # atno 10763 bound_to 10752
  153.4039  135.7019  153.6412 H   0  0  0  0  0  0  0  0  0  0  0  0  # atno 10764 bound_to 10752
  153.5143  135.3700  155.2572 H   0  0  0  0  0  0  0  0  0  0  0  0  # atno 10765 bound_to 10752
  141.1483  133.6700  156.6148 H   0  0  0  0  0  0  0  0  0  0  0  0  # atno 11005 bound_to 11000
  144.7397  140.4907  143.6878 LP  0  0  0  0  0  0  0  0  0  0  0  0  # atno 17320 bound_to 7965
  145.5945  139.1498  143.3164 LP  0  0  0  0  0  0  0  0  0  0  0  0  # atno 17321 bound_to 7965
  139.8358  143.7630  152.3180 LP  0  0  0  0  0  0  0  0  0  0  0  0  # atno 17342 bound_to 10162
  139.7761  144.7460  151.0154 LP  0  0  0  0  0  0  0  0  0  0  0  0  # atno 17343 bound_to 10162
  156.2622  130.6969  151.1740 LP  0  0  0  0  0  0  0  0  0  0  0  0  # atno 17370 bound_to 10713
  157.7324  131.0600  150.5631 LP  0  0  0  0  0  0  0  0  0  0  0  0  # atno 17371 bound_to 10713
  140.3586  134.7707  157.4518 LP  0  0  0  0  0  0  0  0  0  0  0  0  # atno 17394 bound_to 11000
  140.0803  134.5740  155.8548 LP  0  0  0  0  0  0  0  0  0  0  0  0  # atno 17395 bound_to 11000

$$$$
