AV-unprocessed.smi:2195|AV-procd|sdf|8906|dock3
  -GOLD-   2272012123D 1   1.00000     0.00000
 Structure written by MMmdl.
 40 42  0  0  0  0  0  0  0  0  2 V2000
  144.2418  144.9450  154.7277 C   0  0  0  0  0  0  0  0  0  0  0  0
  145.4382  144.0159  154.7078 C   0  0  0  0  0  0  0  0  0  0  0  0
  146.0988  143.7266  153.4973 C   0  0  0  0  0  0  0  0  0  0  0  0
  147.2104  142.8623  153.4888 C   0  0  0  0  0  0  0  0  0  0  0  0
  147.6790  142.2754  154.6823 C   0  0  0  0  0  0  0  0  0  0  0  0
  148.7731  141.4433  154.5816 O   0  0  0  0  0  0  0  0  0  0  0  0
  149.3256  140.9067  155.7772 C   0  0  0  0  0  0  0  0  0  0  0  0
  150.8584  140.8496  155.6681 C   0  0  2  0  0  0  0  0  0  0  0  0
  151.2236  139.8464  154.7410 O   0  0  0  0  0  0  0  0  0  0  0  0
  151.5654  140.6611  157.0259 C   0  0  0  0  0  0  0  0  0  0  0  0
  151.6633  141.9079  157.7976 N   0  0  0  0  0  0  0  0  0  0  0  0
  151.2170  143.1563  157.4914 C   0  0  0  0  0  0  0  0  0  0  0  0
  151.5397  143.9757  158.5302 N   0  3  0  0  0  0  0  0  0  0  0  0
  152.2036  143.2408  159.5148 C   0  0  0  0  0  0  0  0  0  0  0  0
  152.7240  143.6290  160.7456 C   0  0  0  0  0  0  0  0  0  0  0  0
  153.3474  142.6244  161.5146 C   0  0  0  0  0  0  0  0  0  0  0  0
  153.4371  141.2953  161.0526 C   0  0  0  0  0  0  0  0  0  0  0  0
  152.9053  140.9127  159.8036 C   0  0  0  0  0  0  0  0  0  0  0  0
  152.2885  141.9109  159.0500 C   0  0  0  0  0  0  0  0  0  0  0  0
  147.0082  142.5688  155.8965 C   0  0  0  0  0  0  0  0  0  0  0  0
  145.8958  143.4329  155.9057 C   0  0  0  0  0  0  0  0  0  0  0  0
  144.0846  145.4115  153.7547 H   0  0  0  0  0  0  0  0  0  0  0  0
  144.3880  145.7367  155.4628 H   0  0  0  0  0  0  0  0  0  0  0  0
  143.3395  144.3929  154.9915 H   0  0  0  0  0  0  0  0  0  0  0  0
  145.7571  144.1651  152.5712 H   0  0  0  0  0  0  0  0  0  0  0  0
  147.7104  142.6479  152.5556 H   0  0  0  0  0  0  0  0  0  0  0  0
  149.0277  141.4954  156.6467 H   0  0  0  0  0  0  0  0  0  0  0  0
  148.9486  139.8924  155.9190 H   0  0  0  0  0  0  0  0  0  0  0  0
  151.1921  141.7935  155.2352 H   0  0  0  0  0  0  0  0  0  0  0  0
  150.8950  139.0163  155.0514 H   0  0  0  0  0  0  0  0  0  0  0  0
  151.0060  139.9508  157.6359 H   0  0  0  0  0  0  0  0  0  0  0  0
  152.5633  140.2384  156.9053 H   0  0  0  0  0  0  0  0  0  0  0  0
  150.6983  143.4445  156.5884 H   0  0  0  0  0  0  0  0  0  0  0  0
  152.6585  144.6469  161.1011 H   0  0  0  0  0  0  0  0  0  0  0  0
  153.7664  142.8785  162.4773 H   0  0  0  0  0  0  0  0  0  0  0  0
  153.9252  140.5534  161.6679 H   0  0  0  0  0  0  0  0  0  0  0  0
  152.9854  139.8931  159.4563 H   0  0  0  0  0  0  0  0  0  0  0  0
  147.3268  142.1439  156.8362 H   0  0  0  0  0  0  0  0  0  0  0  0
  145.3934  143.6467  156.8377 H   0  0  0  0  0  0  0  0  0  0  0  0
  151.3213  144.9633  158.5621 H   0  0  0  0  0  0  0  0  0  0  0  0
  1  2  1  0  0  0  0
  1 22  1  0  0  0  0
  1 23  1  0  0  0  0
  1 24  1  0  0  0  0
  2 21  1  0  0  0  0
  2  3  2  0  0  0  0
  3  4  1  0  0  0  0
  3 25  1  0  0  0  0
  4  5  2  0  0  0  0
  4 26  1  0  0  0  0
  5  6  1  0  0  0  0
  5 20  1  0  0  0  0
  6  7  1  0  0  0  0
  7  8  1  0  0  0  0
  7 27  1  0  0  0  0
  7 28  1  0  0  0  0
  8  9  1  0  0  0  0
  8 10  1  0  0  0  0
  8 29  1  0  0  0  0
  9 30  1  0  0  0  0
 10 11  1  0  0  0  0
 10 31  1  0  0  0  0
 10 32  1  0  0  0  0
 11 19  1  0  0  0  0
 11 12  1  0  0  0  0
 12 13  2  0  0  0  0
 12 33  1  0  0  0  0
 13 14  1  0  0  0  0
 13 40  1  0  0  0  0
 14 19  2  0  0  0  0
 14 15  1  0  0  0  0
 15 16  2  0  0  0  0
 15 34  1  0  0  0  0
 16 17  1  0  0  0  0
 16 35  1  0  0  0  0
 17 18  2  0  0  0  0
 17 36  1  0  0  0  0
 18 19  1  0  0  0  0
 18 37  1  0  0  0  0
 20 21  2  0  0  0  0
 20 38  1  0  0  0  0
 21 39  1  0  0  0  0
M  CHG  1  13   1
M  END
> <s_m_source_file>
AV-unprocessed.smi

> <i_m_source_file_index>
2195

> <i_lp_mmshare_version>
43012

> <i_f3d_flags>
0

> <s_epik_input>
W0NIM11jMVtjSF1bY0hdYyhbY0hdW2NIXTEpT1tDSDJdW0NASF0oW09IXSlbQ0gyXW4oW2NIXW4yKWMoYzIzKVtjSF1bY0hdW2NIXVtjSF0z

> <s_epik_cmdline>
J2VwaWtfcHl0aG9uJywgJy1waCcsICc3LjAnLCAnLXRuJywgJzgnLCAnLW1hJywgJzIwMCcsICctbWV0YWxfYmluZGluZycsICctaW1hZScsICc8aW5maWxlLm1hZT4nLCAnLW9tYWUnLCAnPG91dGZpbGUubWFlPic=

> <r_lp_tautomer_probability>
1

> <r_epik_Ionization_Penalty>
1.3774

> <r_epik_Ionization_Penalty_Charging>
1.37739

> <r_epik_Ionization_Penalty_Neutral>
2.3993e-06

> <r_epik_State_Penalty>
1.45762

> <r_epik_Charging_Adjusted_Penalty>
2.83501

> <i_epik_Tot_Q>
1

> <i_epik_Tot_abs_Q>
1

> <r_epik_Metal_State_Penalty>
5.49752

> <b_epik_Metal_Only>
0

> <s_lp_Force_Field>
OPLS_2005

> <r_lp_Energy>
21.3932

> <b_lp_Chiralities_Consistent>
1

> <s_lp_Variant>
AV-unprocessed.smi:2195-3

> <Gold.Version>
5.8.1

> <Gold.Id.Protein>
6NUR|6NUR_protein|mol2

> <Gold.PLP.Fitness>
51.3775

> <Gold.PLP.PLP>
-46.4829

> <Gold.PLP.part.hbond>
-1.0000

> <Gold.PLP.part.metal>
0.0000

> <Gold.PLP.part.buried>
-6.5132

> <Gold.PLP.part.nonpolar>
-38.7842

> <Gold.PLP.part.repulsive>
0.1852

> <Gold.PLP.ligand.clash>
0.0000

> <Gold.PLP.ligand.torsion>
0.5793

> <Gold.PLP.Chemscore.Hbond>
1.0000

> <Gold.PLP.Chemscore.CHOScore>
1.0000

> <Gold.PLP.Chemscore.Metal>
0.0000

> <Gold.Chemscore.Hbonds>
donor molecule, donor type, donor heavy atom, donor atom, acceptor molecule, acceptor atom, score
      P1  H  7989  7998       L1     9  0.85
      L1  C    12    33       P1  8028  1.00

> <Gold.PLP.Chemscore.Internal.Correction>
0.0533

> <Gold.Rescore>
     Score         DG    S(hbond)    S(metal)    S(lipo)     H(rot)  DE(clash)    DE(int)     intcor
     15.13     -16.03       0.88        0.00     114.77       2.27       0.07       0.83       ----

> <Gold.Chemscore.Fitness>
15.1290

> <Gold.Chemscore.DG>
-16.0306

> <Gold.Chemscore.ZeroCoef>
-5.4800

> <Gold.Chemscore.Hbond>
0.8802

> <Gold.Chemscore.Metal>
0.0000

> <Gold.Chemscore.Lipo>
114.7659

> <Gold.Chemscore.Internal_Hbond>
0.0000

> <Gold.Chemscore.DEClash>
0.0693

> <Gold.Chemscore.DEInternal>
0.8323

> <Gold.Chemscore.Rot>
2.2723

> <Gold.Chemscore.Internal.Correction>
   9.000000E+99

> <Gold.Chemscore.Hbonds>
donor molecule, donor type, donor heavy atom, donor atom, acceptor molecule, acceptor atom, score
      P1  H  7989  7998       L1     9  0.15

> <Gold.Chemscore.Hbond.Weighted>
-2.9400

> <Gold.Chemscore.Metal.Weighted>
-0.0000

> <Gold.Chemscore.Lipo.Weighted>
-13.4276

> <Gold.Chemscore.Internal_Hbond.Weighted>
0.0000

> <Gold.Chemscore.DEClash.Weighted>
0.0693

> <Gold.Chemscore.DEInternal.Weighted>
0.8323

> <Gold.Chemscore.Rot.Weighted>
5.8170

> <Gold.Chemscore.Internal.Correction.Weighted>
   9.000000E+99

> <Gold.Protein.RotatedTorsions>
[ 6907 6896 6895 6894 ] final  153.22 input  -60.11 | X-H torsion
[ 7974 7965 7964 7962 ] final -102.64 input  175.53 | X-H torsion
[ 8008 7997 7996 7995 ] final  -19.45 input   59.86 | X-H torsion
[ 10167 10162 10161 10158 ] final  -12.39 input  -65.29 | X-H torsion
[ 10718 10713 10712 10709 ] final  -28.36 input   66.30 | X-H torsion
[ 10763 10752 10751 10750 ] final  172.73 input  -60.55 | X-H torsion
[ 11005 11000 10999 10996 ] final   59.13 input  -57.11 | X-H torsion

> <Gold.Protein.ActiveResidues>
 VAL166  LYS551  ARG553  GLY616  TRP617  ASP618  TYR619  PRO620  LYS621  CYS622 
 ASP623  PHE694  ASN695  SER759  ASP760  ASP761  ALA762  ILE779  LEU786  VAL792 
 PHE793  MET794  SER795  GLU796  ALA797  LYS798  CYS799  TRP800  GLU811  SER814 

> <Gold.Protein.RotatedAtoms>
  152.0758  133.4128  159.4478 H   0  0  0  0  0  0  0  0  0  0  0  0  # atno 6907 bound_to 6896
  150.6863  134.3039  159.4727 H   0  0  0  0  0  0  0  0  0  0  0  0  # atno 6908 bound_to 6896
  152.0876  134.9429  160.0623 H   0  0  0  0  0  0  0  0  0  0  0  0  # atno 6909 bound_to 6896
  145.2661  140.9284  143.3013 H   0  0  0  0  0  0  0  0  0  0  0  0  # atno 7974 bound_to 7965
  154.4836  140.2088  155.9707 H   0  0  0  0  0  0  0  0  0  0  0  0  # atno 8008 bound_to 7997
  156.1202  140.3214  155.8167 H   0  0  0  0  0  0  0  0  0  0  0  0  # atno 8009 bound_to 7997
  155.4481  140.0515  157.2994 H   0  0  0  0  0  0  0  0  0  0  0  0  # atno 8010 bound_to 7997
  140.7160  143.5538  150.9272 H   0  0  0  0  0  0  0  0  0  0  0  0  # atno 10167 bound_to 10162
  156.4262  130.4436  149.7149 H   0  0  0  0  0  0  0  0  0  0  0  0  # atno 10718 bound_to 10713
  154.4301  135.2759  155.1918 H   0  0  0  0  0  0  0  0  0  0  0  0  # atno 10763 bound_to 10752
  154.3827  135.6084  153.5803 H   0  0  0  0  0  0  0  0  0  0  0  0  # atno 10764 bound_to 10752
  152.9836  135.5884  154.4611 H   0  0  0  0  0  0  0  0  0  0  0  0  # atno 10765 bound_to 10752
  140.0327  134.5989  155.9486 H   0  0  0  0  0  0  0  0  0  0  0  0  # atno 11005 bound_to 11000
  144.9375  139.4227  143.6465 LP  0  0  0  0  0  0  0  0  0  0  0  0  # atno 17320 bound_to 7965
  146.3260  139.8318  142.8907 LP  0  0  0  0  0  0  0  0  0  0  0  0  # atno 17321 bound_to 7965
  139.9262  143.6547  152.3086 LP  0  0  0  0  0  0  0  0  0  0  0  0  # atno 17342 bound_to 10162
  139.6981  144.7638  151.1320 LP  0  0  0  0  0  0  0  0  0  0  0  0  # atno 17343 bound_to 10162
  156.4070  130.7703  151.2714 LP  0  0  0  0  0  0  0  0  0  0  0  0  # atno 17370 bound_to 10713
  157.7508  131.0223  150.3785 LP  0  0  0  0  0  0  0  0  0  0  0  0  # atno 17371 bound_to 10713
  141.1840  133.6552  156.5138 LP  0  0  0  0  0  0  0  0  0  0  0  0  # atno 17394 bound_to 11000
  140.4199  134.7196  157.4884 LP  0  0  0  0  0  0  0  0  0  0  0  0  # atno 17395 bound_to 11000

$$$$
