AV-unprocessed.smi:2909|AV-procd|sdf|11174|dock2
  -GOLD-   2272016 63D 1   1.00000     0.00000
 Structure written by MMmdl.
 44 45  0  0  0  0  0  0  0  0  1 V2000
  148.1353  133.8182  162.7630 C   0  0  0  0  0  0  0  0  0  0  0  0
  148.4665  134.5453  161.4932 C   0  0  0  0  0  0  0  0  0  0  0  0
  148.4396  135.9499  161.2503 C   0  0  0  0  0  0  0  0  0  0  0  0
  148.8230  136.0748  159.9440 C   0  0  0  0  0  0  0  0  0  0  0  0
  148.9905  137.2794  159.0707 C   0  0  0  0  0  0  0  0  0  0  0  0
  150.4585  137.5395  158.7178 C   0  0  0  0  0  0  0  0  0  0  0  0
  151.3362  136.8102  159.1786 O   0  0  0  0  0  0  0  0  0  0  0  0
  150.7123  138.5605  157.8833 N   0  0  0  0  0  0  0  0  0  0  0  0
  152.0302  138.9610  157.3960 C   0  0  2  0  0  0  0  0  0  0  0  0
  152.9736  139.2327  158.5785 C   0  0  0  0  0  0  0  0  0  0  0  0
  152.5740  140.4909  159.3694 C   0  0  0  0  0  0  0  0  0  0  0  0
  152.4767  141.7534  158.4769 C   0  0  2  0  0  0  0  0  0  0  0  0
  152.0442  143.0129  159.2842 C   0  0  0  0  0  0  0  0  0  0  0  0
  152.0647  144.3008  158.4383 C   0  0  0  0  0  0  0  0  0  0  0  0
  152.9029  143.2351  160.5446 C   0  0  0  0  0  0  0  0  0  0  0  0
  151.5315  141.4648  157.2841 C   0  0  0  0  0  0  0  0  0  0  0  0
  151.9369  140.2063  156.4967 C   0  0  0  0  0  0  0  0  0  0  0  0
  149.0574  134.7962  159.4903 N   0  0  0  0  0  0  0  0  0  0  0  0
  148.8407  133.8543  160.4265 N   0  0  0  0  0  0  0  0  0  0  0  0
  149.3619  134.5552  158.5576 H   0  0  0  0  0  0  0  0  0  0  0  0
  147.6814  134.4878  163.4936 H   0  0  0  0  0  0  0  0  0  0  0  0
  149.0314  133.3925  163.2148 H   0  0  0  0  0  0  0  0  0  0  0  0
  147.4339  133.0037  162.5802 H   0  0  0  0  0  0  0  0  0  0  0  0
  148.1744  136.7453  161.9311 H   0  0  0  0  0  0  0  0  0  0  0  0
  148.5880  138.1648  159.5640 H   0  0  0  0  0  0  0  0  0  0  0  0
  148.4170  137.1478  158.1523 H   0  0  0  0  0  0  0  0  0  0  0  0
  149.9275  139.1055  157.5565 H   0  0  0  0  0  0  0  0  0  0  0  0
  152.4494  138.1378  156.8143 H   0  0  0  0  0  0  0  0  0  0  0  0
  153.0009  138.3683  159.2432 H   0  0  0  0  0  0  0  0  0  0  0  0
  153.9902  139.3573  158.2034 H   0  0  0  0  0  0  0  0  0  0  0  0
  151.6214  140.3214  159.8730 H   0  0  0  0  0  0  0  0  0  0  0  0
  153.3142  140.6329  160.1555 H   0  0  0  0  0  0  0  0  0  0  0  0
  153.4702  141.9454  158.0685 H   0  0  0  0  0  0  0  0  0  0  0  0
  151.0161  142.8641  159.6176 H   0  0  0  0  0  0  0  0  0  0  0  0
  153.0430  144.4621  157.9846 H   0  0  0  0  0  0  0  0  0  0  0  0
  151.8357  145.1753  159.0479 H   0  0  0  0  0  0  0  0  0  0  0  0
  151.3211  144.2796  157.6424 H   0  0  0  0  0  0  0  0  0  0  0  0
  153.9633  143.2915  160.2971 H   0  0  0  0  0  0  0  0  0  0  0  0
  152.7681  142.4407  161.2779 H   0  0  0  0  0  0  0  0  0  0  0  0
  152.6324  144.1645  161.0466 H   0  0  0  0  0  0  0  0  0  0  0  0
  150.5068  141.3595  157.6428 H   0  0  0  0  0  0  0  0  0  0  0  0
  151.5274  142.3009  156.5861 H   0  0  0  0  0  0  0  0  0  0  0  0
  152.9052  140.3791  156.0254 H   0  0  0  0  0  0  0  0  0  0  0  0
  151.2330  140.0339  155.6816 H   0  0  0  0  0  0  0  0  0  0  0  0
  1 21  1  0  0  0  0
  1 22  1  0  0  0  0
  1 23  1  0  0  0  0
  1  2  1  0  0  0  0
  2 19  2  0  0  0  0
  2  3  1  0  0  0  0
  3  4  2  0  0  0  0
  3 24  1  0  0  0  0
  4 18  1  0  0  0  0
  4  5  1  0  0  0  0
  5  6  1  0  0  0  0
  5 25  1  0  0  0  0
  5 26  1  0  0  0  0
  6  7  2  0  0  0  0
  6  8  1  0  0  0  0
  8  9  1  0  0  0  0
  8 27  1  0  0  0  0
  9 17  1  0  0  0  0
  9 10  1  0  0  0  0
  9 28  1  0  0  0  0
 10 11  1  0  0  0  0
 10 29  1  0  0  0  0
 10 30  1  0  0  0  0
 11 12  1  0  0  0  0
 11 31  1  0  0  0  0
 11 32  1  0  0  0  0
 12 13  1  0  0  0  0
 12 16  1  0  0  0  0
 12 33  1  0  0  0  0
 13 14  1  0  0  0  0
 13 15  1  0  0  0  0
 13 34  1  0  0  0  0
 14 35  1  0  0  0  0
 14 36  1  0  0  0  0
 14 37  1  0  0  0  0
 15 38  1  0  0  0  0
 15 39  1  0  0  0  0
 15 40  1  0  0  0  0
 16 17  1  0  0  0  0
 16 41  1  0  0  0  0
 16 42  1  0  0  0  0
 17 43  1  0  0  0  0
 17 44  1  0  0  0  0
 18 19  1  0  0  0  0
 18 20  1  0  0  0  0
M  END
> <s_m_source_file>
AV-unprocessed.smi

> <i_m_source_file_index>
2909

> <i_lp_mmshare_version>
43012

> <i_f3d_flags>
0

> <s_epik_input>
W0NIM11jMVtjSF1jKG5bbkhdMSlbQ0gyXUMoPU8pW05IXVtDQEBIXTJbQ0gyXVtDSDJdW0NAQEhdKFtDSF0oW0NIM10pW0NIM10pW0NIMl1bQ0gyXTI=

> <s_epik_cmdline>
J2VwaWtfcHl0aG9uJywgJy1waCcsICc3LjAnLCAnLXRuJywgJzgnLCAnLW1hJywgJzIwMCcsICctbWV0YWxfYmluZGluZycsICctaW1hZScsICc8aW5maWxlLm1hZT4nLCAnLW9tYWUnLCAnPG91dGZpbGUubWFlPic=

> <r_lp_tautomer_probability>
0.5

> <r_epik_Ionization_Penalty>
0.00013296

> <r_epik_Ionization_Penalty_Charging>
0

> <r_epik_Ionization_Penalty_Neutral>
0.00013296

> <r_epik_State_Penalty>
0.41068

> <r_epik_Charging_Adjusted_Penalty>
0.41068

> <i_epik_Tot_Q>
0

> <i_epik_Tot_abs_Q>
0

> <r_epik_Metal_State_Penalty>
0.41066

> <b_epik_Metal_Only>
0

> <s_lp_Force_Field>
OPLS_2005

> <r_lp_Energy>
9.99393

> <b_lp_Chiralities_Consistent>
1

> <s_lp_Variant>
AV-unprocessed.smi:2909-4

> <Gold.Version>
5.8.1

> <Gold.Id.Protein>
6NUR|6NUR_protein|mol2

> <Gold.PLP.Fitness>
40.4932

> <Gold.PLP.PLP>
-37.6954

> <Gold.PLP.part.hbond>
-1.0000

> <Gold.PLP.part.metal>
0.0000

> <Gold.PLP.part.buried>
-5.1735

> <Gold.PLP.part.nonpolar>
-31.0036

> <Gold.PLP.part.repulsive>
0.1506

> <Gold.PLP.ligand.clash>
0.0000

> <Gold.PLP.ligand.torsion>
0.1234

> <Gold.PLP.Chemscore.Hbond>
1.0000

> <Gold.PLP.Chemscore.CHOScore>
0.0000

> <Gold.PLP.Chemscore.Metal>
0.0000

> <Gold.Chemscore.Hbonds>
donor molecule, donor type, donor heavy atom, donor atom, acceptor molecule, acceptor atom, score
      P1  H  6896  6909       L1     7  1.00

> <Gold.PLP.Chemscore.Internal.Correction>
0.0446

> <Gold.Rescore>
     Score         DG    S(hbond)    S(metal)    S(lipo)     H(rot)  DE(clash)    DE(int)     intcor
     15.97     -16.37       0.99        0.00      97.82       1.50       0.02       0.39       ----

> <Gold.Chemscore.Fitness>
15.9718

> <Gold.Chemscore.DG>
-16.3742

> <Gold.Chemscore.ZeroCoef>
-5.4800

> <Gold.Chemscore.Hbond>
0.9855

> <Gold.Chemscore.Metal>
0.0000

> <Gold.Chemscore.Lipo>
97.8235

> <Gold.Chemscore.Internal_Hbond>
0.0000

> <Gold.Chemscore.DEClash>
0.0164

> <Gold.Chemscore.DEInternal>
0.3860

> <Gold.Chemscore.Rot>
1.5011

> <Gold.Chemscore.Internal.Correction>
   9.000000E+99

> <Gold.Chemscore.Hbonds>
donor molecule, donor type, donor heavy atom, donor atom, acceptor molecule, acceptor atom, score
      P1  H  6896  6909       L1     7  0.97

> <Gold.Chemscore.Hbond.Weighted>
-3.2917

> <Gold.Chemscore.Metal.Weighted>
-0.0000

> <Gold.Chemscore.Lipo.Weighted>
-11.4454

> <Gold.Chemscore.Internal_Hbond.Weighted>
0.0000

> <Gold.Chemscore.DEClash.Weighted>
0.0164

> <Gold.Chemscore.DEInternal.Weighted>
0.3860

> <Gold.Chemscore.Rot.Weighted>
3.8429

> <Gold.Chemscore.Internal.Correction.Weighted>
   9.000000E+99

> <Gold.Protein.RotatedTorsions>
[ 6907 6896 6895 6894 ] final  100.88 input  -60.11 | X-H torsion
[ 7974 7965 7964 7962 ] final   54.08 input  175.53 | X-H torsion
[ 8008 7997 7996 7995 ] final   77.78 input   59.86 | X-H torsion
[ 10167 10162 10161 10158 ] final  -58.98 input  -65.29 | X-H torsion
[ 10718 10713 10712 10709 ] final  -91.58 input   66.30 | X-H torsion
[ 10763 10752 10751 10750 ] final  174.57 input  -60.55 | X-H torsion
[ 11005 11000 10999 10996 ] final  150.41 input  -57.11 | X-H torsion

> <Gold.Protein.ActiveResidues>
 VAL166  LYS551  ARG553  GLY616  TRP617  ASP618  TYR619  PRO620  LYS621  CYS622 
 ASP623  PHE694  ASN695  SER759  ASP760  ASP761  ALA762  ILE779  LEU786  VAL792 
 PHE793  MET794  SER795  GLU796  ALA797  LYS798  CYS799  TRP800  GLU811  SER814 

> <Gold.Protein.RotatedAtoms>
  152.5362  134.0210  159.7981 H   0  0  0  0  0  0  0  0  0  0  0  0  # atno 6907 bound_to 6896
  151.0396  133.5710  159.2659 H   0  0  0  0  0  0  0  0  0  0  0  0  # atno 6908 bound_to 6896
  151.2684  135.0684  159.9178 H   0  0  0  0  0  0  0  0  0  0  0  0  # atno 6909 bound_to 6896
  145.9645  139.4090  143.0228 H   0  0  0  0  0  0  0  0  0  0  0  0  # atno 7974 bound_to 7965
  155.8465  140.3460  155.5665 H   0  0  0  0  0  0  0  0  0  0  0  0  # atno 8008 bound_to 7997
  155.8084  140.0895  157.1937 H   0  0  0  0  0  0  0  0  0  0  0  0  # atno 8009 bound_to 7997
  154.4006  140.1452  156.3345 H   0  0  0  0  0  0  0  0  0  0  0  0  # atno 8010 bound_to 7997
  140.6164  143.2404  151.5587 H   0  0  0  0  0  0  0  0  0  0  0  0  # atno 10167 bound_to 10162
  155.9995  130.4953  150.5496 H   0  0  0  0  0  0  0  0  0  0  0  0  # atno 10718 bound_to 10713
  154.4557  135.2766  155.1749 H   0  0  0  0  0  0  0  0  0  0  0  0  # atno 10763 bound_to 10752
  154.3557  135.6140  153.5669 H   0  0  0  0  0  0  0  0  0  0  0  0  # atno 10764 bound_to 10752
  152.9850  135.5822  154.4910 H   0  0  0  0  0  0  0  0  0  0  0  0  # atno 10765 bound_to 10752
  140.1129  134.8912  157.1962 H   0  0  0  0  0  0  0  0  0  0  0  0  # atno 11005 bound_to 11000
  145.7993  140.9778  143.1007 LP  0  0  0  0  0  0  0  0  0  0  0  0  # atno 17320 bound_to 7965
  144.6822  139.9781  143.7483 LP  0  0  0  0  0  0  0  0  0  0  0  0  # atno 17321 bound_to 7965
  139.5402  144.2669  152.1335 LP  0  0  0  0  0  0  0  0  0  0  0  0  # atno 17342 bound_to 10162
  140.1879  144.4780  150.6494 LP  0  0  0  0  0  0  0  0  0  0  0  0  # atno 17343 bound_to 10162
  157.3421  131.0718  151.1780 LP  0  0  0  0  0  0  0  0  0  0  0  0  # atno 17370 bound_to 10713
  157.2625  130.6665  149.5981 LP  0  0  0  0  0  0  0  0  0  0  0  0  # atno 17371 bound_to 10713
  140.3067  134.3070  155.7276 LP  0  0  0  0  0  0  0  0  0  0  0  0  # atno 17394 bound_to 11000
  141.2134  133.7625  156.9718 LP  0  0  0  0  0  0  0  0  0  0  0  0  # atno 17395 bound_to 11000

$$$$
