AV-unprocessed.smi:236|AV-procd|sdf|1809|dock10
  -GOLD-   2262020393D 1   1.00000     0.00000
 Structure written by MMmdl.
 58 62  0  0  0  0  0  0  0  0  1 V2000
  144.5989  133.2871  162.2819 C   0  0  0  0  0  0  0  0  0  0  0  0
  145.1699  134.5919  162.8567 C   0  0  2  0  0  0  0  0  0  0  0  0
  144.2850  135.6821  162.6113 O   0  0  0  0  0  0  0  0  0  0  0  0
  145.0267  136.8758  162.3754 C   0  0  0  0  0  0  0  0  0  0  0  0
  146.4805  136.5238  162.6748 C   0  0  0  0  0  0  0  0  0  0  0  0
  146.5417  135.0430  162.3196 C   0  0  1  0  0  0  0  0  0  0  0  0
  147.5835  134.4354  163.0606 O   0  0  0  0  0  0  0  0  0  0  0  0
  146.7530  134.7650  160.8062 C   0  0  0  0  0  0  0  0  0  0  0  0
  147.8760  135.4863  160.2284 N   0  0  0  0  0  0  0  0  0  0  0  0
  149.1229  135.6595  160.7854 C   0  0  0  0  0  0  0  0  0  0  0  0
  149.9608  136.3564  160.0674 N   0  0  0  0  0  0  0  0  0  0  0  0
  149.2421  136.6778  158.9220 C   0  0  0  0  0  0  0  0  0  0  0  0
  149.5289  137.4122  157.7361 C   0  0  0  0  0  0  0  0  0  0  0  0
  150.7031  138.0193  157.4644 N   0  0  0  0  0  0  0  0  0  0  0  0
  150.8165  138.4547  156.0800 C   0  0  0  0  0  0  0  0  0  0  0  0
  152.2418  138.9633  155.8097 C   0  0  0  0  0  0  0  0  0  0  0  0
  152.5678  139.9850  156.7474 O   0  0  0  0  0  0  0  0  0  0  0  0
  152.5448  139.5170  158.0950 C   0  0  1  0  0  0  0  0  0  0  0  0
  152.9812  140.6687  159.0085 C   0  0  0  0  0  0  0  0  0  0  0  0
  152.1991  141.8142  158.7141 O   0  0  0  0  0  0  0  0  0  0  0  0
  152.6130  142.9580  159.4406 C   0  0  0  0  0  0  0  0  0  0  0  0
  151.8024  144.1533  158.9867 C   0  0  0  0  0  0  0  0  0  0  0  0
  151.6732  145.3797  159.8615 C   0  0  0  0  0  0  0  0  0  0  0  0
  150.4850  144.4756  159.6550 C   0  0  0  0  0  0  0  0  0  0  0  0
  151.1155  139.0412  158.4187 C   0  0  0  0  0  0  0  0  0  0  0  0
  148.5452  137.5391  156.8123 N   0  0  0  0  0  0  0  0  0  0  0  0
  147.3535  136.9719  157.0231 C   0  0  0  0  0  0  0  0  0  0  0  0
  146.9433  136.2557  158.0720 N   0  0  0  0  0  0  0  0  0  0  0  0
  147.9289  136.1359  159.0074 C   0  0  0  0  0  0  0  0  0  0  0  0
  145.2867  132.4558  162.4369 H   0  0  0  0  0  0  0  0  0  0  0  0
  144.4004  133.3681  161.2132 H   0  0  0  0  0  0  0  0  0  0  0  0
  143.6572  133.0325  162.7686 H   0  0  0  0  0  0  0  0  0  0  0  0
  145.2324  134.4939  163.9423 H   0  0  0  0  0  0  0  0  0  0  0  0
  144.9072  137.1607  161.3298 H   0  0  0  0  0  0  0  0  0  0  0  0
  144.6651  137.6981  162.9926 H   0  0  0  0  0  0  0  0  0  0  0  0
  147.1933  137.1539  162.1442 H   0  0  0  0  0  0  0  0  0  0  0  0
  146.6630  136.6623  163.7421 H   0  0  0  0  0  0  0  0  0  0  0  0
  148.0561  133.8504  162.4885 H   0  0  0  0  0  0  0  0  0  0  0  0
  146.9134  133.7002  160.6325 H   0  0  0  0  0  0  0  0  0  0  0  0
  145.8564  135.0305  160.2447 H   0  0  0  0  0  0  0  0  0  0  0  0
  149.3910  135.2560  161.7510 H   0  0  0  0  0  0  0  0  0  0  0  0
  150.5797  137.6299  155.4065 H   0  0  0  0  0  0  0  0  0  0  0  0
  150.0934  139.2483  155.8861 H   0  0  0  0  0  0  0  0  0  0  0  0
  152.9653  138.1492  155.8771 H   0  0  0  0  0  0  0  0  0  0  0  0
  152.3120  139.3703  154.8011 H   0  0  0  0  0  0  0  0  0  0  0  0
  153.2406  138.6838  158.2109 H   0  0  0  0  0  0  0  0  0  0  0  0
  152.8783  140.3839  160.0570 H   0  0  0  0  0  0  0  0  0  0  0  0
  154.0323  140.9031  158.8330 H   0  0  0  0  0  0  0  0  0  0  0  0
  152.4497  142.8061  160.5084 H   0  0  0  0  0  0  0  0  0  0  0  0
  153.6761  143.1499  159.2864 H   0  0  0  0  0  0  0  0  0  0  0  0
  151.8394  144.3274  157.9127 H   0  0  0  0  0  0  0  0  0  0  0  0
  152.1566  145.3601  160.8363 H   0  0  0  0  0  0  0  0  0  0  0  0
  151.6598  146.3490  159.3673 H   0  0  0  0  0  0  0  0  0  0  0  0
  149.6776  144.8407  159.0233 H   0  0  0  0  0  0  0  0  0  0  0  0
  150.1759  143.8551  160.4942 H   0  0  0  0  0  0  0  0  0  0  0  0
  150.4326  139.8898  158.3788 H   0  0  0  0  0  0  0  0  0  0  0  0
  151.0726  138.6368  159.4310 H   0  0  0  0  0  0  0  0  0  0  0  0
  146.6235  137.1138  156.2399 H   0  0  0  0  0  0  0  0  0  0  0  0
  1  2  1  0  0  0  0
  1 30  1  0  0  0  0
  1 31  1  0  0  0  0
  1 32  1  0  0  0  0
  2  6  1  0  0  0  0
  2  3  1  0  0  0  0
  2 33  1  0  0  0  0
  3  4  1  0  0  0  0
  4  5  1  0  0  0  0
  4 34  1  0  0  0  0
  4 35  1  0  0  0  0
  5  6  1  0  0  0  0
  5 36  1  0  0  0  0
  5 37  1  0  0  0  0
  6  7  1  0  0  0  0
  6  8  1  0  0  0  0
  7 38  1  0  0  0  0
  8  9  1  0  0  0  0
  8 39  1  0  0  0  0
  8 40  1  0  0  0  0
  9 29  1  0  0  0  0
  9 10  1  0  0  0  0
 10 11  2  0  0  0  0
 10 41  1  0  0  0  0
 11 12  1  0  0  0  0
 12 29  2  0  0  0  0
 12 13  1  0  0  0  0
 13 14  1  0  0  0  0
 13 26  2  0  0  0  0
 14 25  1  0  0  0  0
 14 15  1  0  0  0  0
 15 16  1  0  0  0  0
 15 42  1  0  0  0  0
 15 43  1  0  0  0  0
 16 17  1  0  0  0  0
 16 44  1  0  0  0  0
 16 45  1  0  0  0  0
 17 18  1  0  0  0  0
 18 19  1  0  0  0  0
 18 25  1  0  0  0  0
 18 46  1  0  0  0  0
 19 20  1  0  0  0  0
 19 47  1  0  0  0  0
 19 48  1  0  0  0  0
 20 21  1  0  0  0  0
 21 22  1  0  0  0  0
 21 49  1  0  0  0  0
 21 50  1  0  0  0  0
 22 24  1  0  0  0  0
 22 23  1  0  0  0  0
 22 51  1  0  0  0  0
 23 24  1  0  0  0  0
 23 52  1  0  0  0  0
 23 53  1  0  0  0  0
 24 54  1  0  0  0  0
 24 55  1  0  0  0  0
 25 56  1  0  0  0  0
 25 57  1  0  0  0  0
 26 27  1  0  0  0  0
 27 28  2  0  0  0  0
 27 58  1  0  0  0  0
 28 29  1  0  0  0  0
M  END
> <s_m_source_file>
AV-unprocessed.smi

> <i_m_source_file_index>
236

> <i_lp_mmshare_version>
43012

> <i_f3d_flags>
0

> <s_epik_input>
W0NIMl0xW0NIMl1PW0NAQEhdKFtDSDNdKVtDQEBdMShbT0hdKVtDSDJdbihbY0hdbjIpYyhjMjMpbltjSF1uYzNONFtDSDJdW0NIMl1PW0NASF0oW0NIMl00KVtDSDJdT1tDSDJdW0NIXTVbQ0gyXVtDSDJdNQ==

> <s_epik_cmdline>
J2VwaWtfcHl0aG9uJywgJy1waCcsICc3LjAnLCAnLXRuJywgJzgnLCAnLW1hJywgJzIwMCcsICctbWV0YWxfYmluZGluZycsICctaW1hZScsICc8aW5maWxlLm1hZT4nLCAnLW9tYWUnLCAnPG91dGZpbGUubWFlPic=

> <r_lp_tautomer_probability>
1

> <r_epik_Ionization_Penalty>
7.21838e-05

> <r_epik_Ionization_Penalty_Charging>
0

> <r_epik_Ionization_Penalty_Neutral>
7.21838e-05

> <r_epik_State_Penalty>
-0

> <r_epik_Charging_Adjusted_Penalty>
0

> <i_epik_Tot_Q>
0

> <i_epik_Tot_abs_Q>
0

> <r_epik_Metal_State_Penalty>
-0

> <b_epik_Metal_Only>
0

> <s_lp_Force_Field>
OPLS_2005

> <r_lp_Energy>
49.116

> <b_lp_Chiralities_Consistent>
1

> <s_lp_Variant>
AV-unprocessed.smi:236-1

> <Gold.Version>
5.8.1

> <Gold.Id.Protein>
6NUR|6NUR_protein|mol2

> <Gold.PLP.Fitness>
47.9465

> <Gold.PLP.PLP>
-43.2172

> <Gold.PLP.part.hbond>
-2.3762

> <Gold.PLP.part.metal>
0.0000

> <Gold.PLP.part.buried>
-6.8815

> <Gold.PLP.part.nonpolar>
-34.3879

> <Gold.PLP.part.repulsive>
0.0427

> <Gold.PLP.ligand.clash>
0.0000

> <Gold.PLP.ligand.torsion>
0.7932

> <Gold.PLP.Chemscore.Hbond>
1.8336

> <Gold.PLP.Chemscore.CHOScore>
0.0000

> <Gold.PLP.Chemscore.Metal>
0.0000

> <Gold.Chemscore.Hbonds>
donor molecule, donor type, donor heavy atom, donor atom, acceptor molecule, acceptor atom, score
      P1  H  6896  6908       L1    11  0.70
      P1  H  7997  8009       L1    17  0.95

> <Gold.PLP.Chemscore.Internal.Correction>
0.8147

> <Gold.Rescore>
     Score         DG    S(hbond)    S(metal)    S(lipo)     H(rot)  DE(clash)    DE(int)     intcor
     14.25     -15.64       1.16        0.00     116.42       2.87       0.33       1.06       ----

> <Gold.Chemscore.Fitness>
14.2524

> <Gold.Chemscore.DG>
-15.6442

> <Gold.Chemscore.ZeroCoef>
-5.4800

> <Gold.Chemscore.Hbond>
1.1612

> <Gold.Chemscore.Metal>
0.0000

> <Gold.Chemscore.Lipo>
116.4227

> <Gold.Chemscore.Internal_Hbond>
0.0000

> <Gold.Chemscore.DEClash>
0.3293

> <Gold.Chemscore.DEInternal>
1.0625

> <Gold.Chemscore.Rot>
2.8655

> <Gold.Chemscore.Internal.Correction>
   9.000000E+99

> <Gold.Chemscore.Hbonds>
donor molecule, donor type, donor heavy atom, donor atom, acceptor molecule, acceptor atom, score
      P1  H  6896  6908       L1    11  0.06
      P1  H  7997  8009       L1    17  0.06

> <Gold.Chemscore.Hbond.Weighted>
-3.8785

> <Gold.Chemscore.Metal.Weighted>
-0.0000

> <Gold.Chemscore.Lipo.Weighted>
-13.6215

> <Gold.Chemscore.Internal_Hbond.Weighted>
0.0000

> <Gold.Chemscore.DEClash.Weighted>
0.3293

> <Gold.Chemscore.DEInternal.Weighted>
1.0625

> <Gold.Chemscore.Rot.Weighted>
7.3358

> <Gold.Chemscore.Internal.Correction.Weighted>
   9.000000E+99

> <Gold.Protein.RotatedTorsions>
[ 6907 6896 6895 6894 ] final -153.03 input  -60.11 | X-H torsion
[ 7974 7965 7964 7962 ] final   73.20 input  175.53 | X-H torsion
[ 8008 7997 7996 7995 ] final -172.34 input   59.86 | X-H torsion
[ 10167 10162 10161 10158 ] final -121.65 input  -65.29 | X-H torsion
[ 10718 10713 10712 10709 ] final  -97.14 input   66.30 | X-H torsion
[ 10763 10752 10751 10750 ] final   43.96 input  -60.55 | X-H torsion
[ 11005 11000 10999 10996 ] final   19.78 input  -57.11 | X-H torsion

> <Gold.Protein.ActiveResidues>
 VAL166  LYS551  ARG553  GLY616  TRP617  ASP618  TYR619  PRO620  LYS621  CYS622 
 ASP623  PHE694  ASN695  SER759  ASP760  ASP761  ALA762  ILE779  LEU786  VAL792 
 PHE793  MET794  SER795  GLU796  ALA797  LYS798  CYS799  TRP800  GLU811  SER814 

> <Gold.Protein.RotatedAtoms>
  151.2366  133.4422  159.2605 H   0  0  0  0  0  0  0  0  0  0  0  0  # atno 6907 bound_to 6896
  151.0745  134.9819  159.8335 H   0  0  0  0  0  0  0  0  0  0  0  0  # atno 6908 bound_to 6896
  152.5416  134.2309  159.8877 H   0  0  0  0  0  0  0  0  0  0  0  0  # atno 6909 bound_to 6896
  145.7438  139.2731  143.1471 H   0  0  0  0  0  0  0  0  0  0  0  0  # atno 7974 bound_to 7965
  155.9433  140.1112  157.1038 H   0  0  0  0  0  0  0  0  0  0  0  0  # atno 8008 bound_to 7997
  154.4094  140.1215  156.5021 H   0  0  0  0  0  0  0  0  0  0  0  0  # atno 8009 bound_to 7997
  155.6935  140.3472  155.4905 H   0  0  0  0  0  0  0  0  0  0  0  0  # atno 8010 bound_to 7997
  140.0228  143.5327  152.2213 H   0  0  0  0  0  0  0  0  0  0  0  0  # atno 10167 bound_to 10162
  156.0077  130.5182  150.6331 H   0  0  0  0  0  0  0  0  0  0  0  0  # atno 10718 bound_to 10713
  152.9850  135.6085  154.3197 H   0  0  0  0  0  0  0  0  0  0  0  0  # atno 10763 bound_to 10752
  154.2907  135.2775  155.2658 H   0  0  0  0  0  0  0  0  0  0  0  0  # atno 10764 bound_to 10752
  154.4954  135.5881  153.6547 H   0  0  0  0  0  0  0  0  0  0  0  0  # atno 10765 bound_to 10752
  140.4099  134.1629  155.7667 H   0  0  0  0  0  0  0  0  0  0  0  0  # atno 11005 bound_to 11000
  146.0422  140.8153  142.9823 LP  0  0  0  0  0  0  0  0  0  0  0  0  # atno 17320 bound_to 7965
  144.6864  140.2928  143.7275 LP  0  0  0  0  0  0  0  0  0  0  0  0  # atno 17321 bound_to 7965
  139.6128  144.7613  151.2913 LP  0  0  0  0  0  0  0  0  0  0  0  0  # atno 17342 bound_to 10162
  140.7335  143.6792  150.8015 LP  0  0  0  0  0  0  0  0  0  0  0  0  # atno 17343 bound_to 10162
  157.4125  131.0825  151.1207 LP  0  0  0  0  0  0  0  0  0  0  0  0  # atno 17370 bound_to 10713
  157.1834  130.6320  149.5679 LP  0  0  0  0  0  0  0  0  0  0  0  0  # atno 17371 bound_to 10713
  141.1825  133.8384  157.1207 LP  0  0  0  0  0  0  0  0  0  0  0  0  # atno 17394 bound_to 11000
  140.0275  134.9917  157.0714 LP  0  0  0  0  0  0  0  0  0  0  0  0  # atno 17395 bound_to 11000

$$$$
