AV-unprocessed.smi:15|AV-procd|sdf|82|dock4
  -GOLD-   2262015213D 1   1.00000     0.00000
 Structure written by MMmdl.
 53 56  0  0  0  0  0  0  0  0  1 V2000
  151.8336  139.1747  155.3847 C   0  0  0  0  0  0  0  0  0  0  0  0
  151.6569  140.5043  156.1294 C   0  0  0  0  0  0  0  0  0  0  0  0
  150.5340  140.4817  157.0664 N   0  0  0  0  0  0  0  0  0  0  0  0
  150.0342  141.7312  157.6434 C   0  0  0  0  0  0  0  0  0  0  0  0
  151.1234  142.8112  157.7947 C   0  0  1  0  0  0  0  0  0  0  0  0
  150.6241  144.0923  158.4590 C   0  0  0  0  0  0  0  0  0  0  0  0
  151.8826  144.6968  159.0635 C   0  0  0  0  0  0  0  0  0  0  0  0
  152.8935  143.5470  159.0466 C   0  0  0  0  0  0  0  0  0  0  0  0
  152.1355  142.3977  158.7003 O   0  0  0  0  0  0  0  0  0  0  0  0
  150.4471  139.4166  157.8990 C   0  0  0  0  0  0  0  0  0  0  0  0
  151.5905  138.9956  158.4975 N   0  0  0  0  0  0  0  0  0  0  0  0
  151.5745  137.9288  159.3014 C   0  0  0  0  0  0  0  0  0  0  0  0
  150.5460  137.1434  159.6257 N   0  0  0  0  0  0  0  0  0  0  0  0
  149.3973  137.5531  159.0153 C   0  0  0  0  0  0  0  0  0  0  0  0
  149.2558  138.6759  158.1514 C   0  0  0  0  0  0  0  0  0  0  0  0
  147.9391  138.7709  157.7154 N   0  0  0  0  0  0  0  0  0  0  0  0
  147.3386  137.7639  158.2871 C   0  0  0  0  0  0  0  0  0  0  0  0
  148.1432  136.9697  159.0719 N   0  0  0  0  0  0  0  0  0  0  0  0
  147.7442  135.7711  159.7932 C   0  0  0  0  0  0  0  0  0  0  0  0
  146.7403  136.0504  160.9393 C   0  0  2  0  0  0  0  0  0  0  0  0
  147.0900  137.2833  161.5470 O   0  0  0  0  0  0  0  0  0  0  0  0
  146.7756  134.9618  162.0171 C   0  0  0  0  0  0  0  0  0  0  0  0
  145.4230  134.2701  161.8914 C   0  0  0  0  0  0  0  0  0  0  0  0
  144.5668  135.3206  161.4797 O   0  0  0  0  0  0  0  0  0  0  0  0
  145.2595  136.0481  160.4763 C   0  0  1  0  0  0  0  0  0  0  0  0
  144.5954  137.4142  160.2364 C   0  0  0  0  0  0  0  0  0  0  0  0
  152.7217  139.2055  154.7532 H   0  0  0  0  0  0  0  0  0  0  0  0
  150.9841  138.9549  154.7385 H   0  0  0  0  0  0  0  0  0  0  0  0
  151.9524  138.3454  156.0825 H   0  0  0  0  0  0  0  0  0  0  0  0
  152.5789  140.7168  156.6726 H   0  0  0  0  0  0  0  0  0  0  0  0
  151.5240  141.3134  155.4114 H   0  0  0  0  0  0  0  0  0  0  0  0
  149.2418  142.1124  157.0006 H   0  0  0  0  0  0  0  0  0  0  0  0
  149.5602  141.5408  158.6071 H   0  0  0  0  0  0  0  0  0  0  0  0
  151.5747  143.0552  156.8318 H   0  0  0  0  0  0  0  0  0  0  0  0
  150.1256  144.7619  157.7576 H   0  0  0  0  0  0  0  0  0  0  0  0
  149.9176  143.8524  159.2547 H   0  0  0  0  0  0  0  0  0  0  0  0
  152.2476  145.5368  158.4718 H   0  0  0  0  0  0  0  0  0  0  0  0
  151.6945  145.0548  160.0761 H   0  0  0  0  0  0  0  0  0  0  0  0
  153.6566  143.7155  158.2852 H   0  0  0  0  0  0  0  0  0  0  0  0
  153.3934  143.4127  160.0061 H   0  0  0  0  0  0  0  0  0  0  0  0
  152.5237  137.6621  159.7424 H   0  0  0  0  0  0  0  0  0  0  0  0
  146.2883  137.5608  158.1371 H   0  0  0  0  0  0  0  0  0  0  0  0
  147.3104  135.0701  159.0788 H   0  0  0  0  0  0  0  0  0  0  0  0
  148.6432  135.2911  160.1826 H   0  0  0  0  0  0  0  0  0  0  0  0
  146.5187  137.4229  162.2869 H   0  0  0  0  0  0  0  0  0  0  0  0
  147.6042  134.2622  161.9014 H   0  0  0  0  0  0  0  0  0  0  0  0
  146.8580  135.3968  163.0145 H   0  0  0  0  0  0  0  0  0  0  0  0
  145.4495  133.4938  161.1249 H   0  0  0  0  0  0  0  0  0  0  0  0
  145.0907  133.8206  162.8272 H   0  0  0  0  0  0  0  0  0  0  0  0
  145.1693  135.4566  159.5645 H   0  0  0  0  0  0  0  0  0  0  0  0
  145.1423  137.9940  159.4928 H   0  0  0  0  0  0  0  0  0  0  0  0
  144.5432  138.0031  161.1523 H   0  0  0  0  0  0  0  0  0  0  0  0
  143.5768  137.2884  159.8693 H   0  0  0  0  0  0  0  0  0  0  0  0
  1  2  1  0  0  0  0
  1 27  1  0  0  0  0
  1 28  1  0  0  0  0
  1 29  1  0  0  0  0
  2  3  1  0  0  0  0
  2 30  1  0  0  0  0
  2 31  1  0  0  0  0
  3  4  1  0  0  0  0
  3 10  1  0  0  0  0
  4  5  1  0  0  0  0
  4 32  1  0  0  0  0
  4 33  1  0  0  0  0
  5  9  1  0  0  0  0
  5  6  1  0  0  0  0
  5 34  1  0  0  0  0
  6  7  1  0  0  0  0
  6 35  1  0  0  0  0
  6 36  1  0  0  0  0
  7  8  1  0  0  0  0
  7 37  1  0  0  0  0
  7 38  1  0  0  0  0
  8  9  1  0  0  0  0
  8 39  1  0  0  0  0
  8 40  1  0  0  0  0
 10 15  1  0  0  0  0
 10 11  2  0  0  0  0
 11 12  1  0  0  0  0
 12 13  2  0  0  0  0
 12 41  1  0  0  0  0
 13 14  1  0  0  0  0
 14 18  1  0  0  0  0
 14 15  2  0  0  0  0
 15 16  1  0  0  0  0
 16 17  2  0  0  0  0
 17 18  1  0  0  0  0
 17 42  1  0  0  0  0
 18 19  1  0  0  0  0
 19 20  1  0  0  0  0
 19 43  1  0  0  0  0
 19 44  1  0  0  0  0
 20 25  1  0  0  0  0
 20 21  1  0  0  0  0
 20 22  1  0  0  0  0
 21 45  1  0  0  0  0
 22 23  1  0  0  0  0
 22 46  1  0  0  0  0
 22 47  1  0  0  0  0
 23 24  1  0  0  0  0
 23 48  1  0  0  0  0
 23 49  1  0  0  0  0
 24 25  1  0  0  0  0
 25 26  1  0  0  0  0
 25 50  1  0  0  0  0
 26 51  1  0  0  0  0
 26 52  1  0  0  0  0
 26 53  1  0  0  0  0
M  END
> <s_m_source_file>
AV-unprocessed.smi

> <i_m_source_file_index>
15

> <i_lp_mmshare_version>
43012

> <i_f3d_flags>
0

> <s_epik_input>
TzFbQ0gyXVtDSDJdW0NIMl1bQ0BIXTFbQ0gyXU4oW0NIMl1bQ0gzXSljKG5bY0hdbjIpYyhjMjMpbltjSF1uM1tDSDJdW0NAQF00KFtPSF0pW0NIMl1bQ0gyXU9bQ0BIXTRbQ0gzXQ==

> <s_epik_cmdline>
J2VwaWtfcHl0aG9uJywgJy1waCcsICc3LjAnLCAnLXRuJywgJzgnLCAnLW1hJywgJzIwMCcsICctbWV0YWxfYmluZGluZycsICctaW1hZScsICc8aW5maWxlLm1hZT4nLCAnLW9tYWUnLCAnPG91dGZpbGUubWFlPic=

> <r_lp_tautomer_probability>
1

> <r_epik_Ionization_Penalty>
0.00360814

> <r_epik_Ionization_Penalty_Charging>
0

> <r_epik_Ionization_Penalty_Neutral>
0.00360814

> <r_epik_State_Penalty>
0.00237482

> <r_epik_Charging_Adjusted_Penalty>
0.00237482

> <i_epik_Tot_Q>
0

> <i_epik_Tot_abs_Q>
0

> <r_epik_Metal_State_Penalty>
-0

> <b_epik_Metal_Only>
0

> <s_lp_Force_Field>
OPLS_2005

> <r_lp_Energy>
44.887

> <b_lp_Chiralities_Consistent>
1

> <s_lp_Variant>
AV-unprocessed.smi:15-4

> <Gold.Version>
5.8.1

> <Gold.Id.Protein>
6NUR|6NUR_protein|mol2

> <Gold.PLP.Fitness>
52.6083

> <Gold.PLP.PLP>
-48.1858

> <Gold.PLP.part.hbond>
-3.4769

> <Gold.PLP.part.metal>
0.0000

> <Gold.PLP.part.buried>
-6.6799

> <Gold.PLP.part.nonpolar>
-39.1839

> <Gold.PLP.part.repulsive>
0.0000

> <Gold.PLP.ligand.clash>
0.0000

> <Gold.PLP.ligand.torsion>
1.8755

> <Gold.PLP.Chemscore.Hbond>
2.4097

> <Gold.PLP.Chemscore.CHOScore>
0.0000

> <Gold.PLP.Chemscore.Metal>
0.0000

> <Gold.Chemscore.Hbonds>
donor molecule, donor type, donor heavy atom, donor atom, acceptor molecule, acceptor atom, score
      P1  H  6896  6907       L1    13  0.71
      P1  H  6931  6943       L1    21  0.47
      P1  H  6934  6947       L1    21  0.88

> <Gold.PLP.Chemscore.Internal.Correction>
0.9446

> <Gold.Rescore>
     Score         DG    S(hbond)    S(metal)    S(lipo)     H(rot)  DE(clash)    DE(int)     intcor
     16.20     -18.19       2.09        0.00     102.58       2.44       0.11       1.89       ----

> <Gold.Chemscore.Fitness>
16.1984

> <Gold.Chemscore.DG>
-18.1937

> <Gold.Chemscore.ZeroCoef>
-5.4800

> <Gold.Chemscore.Hbond>
2.0859

> <Gold.Chemscore.Metal>
0.0000

> <Gold.Chemscore.Lipo>
102.5750

> <Gold.Chemscore.Internal_Hbond>
0.0000

> <Gold.Chemscore.DEClash>
0.1076

> <Gold.Chemscore.DEInternal>
1.8877

> <Gold.Chemscore.Rot>
2.4431

> <Gold.Chemscore.Internal.Correction>
   9.000000E+99

> <Gold.Chemscore.Hbonds>
donor molecule, donor type, donor heavy atom, donor atom, acceptor molecule, acceptor atom, score
      P1  H  6896  6907       L1    13  0.58
      P1  H  6931  6943       L1    21  0.32
      P1  H  6934  6947       L1    21  0.17

> <Gold.Chemscore.Hbond.Weighted>
-6.9668

> <Gold.Chemscore.Metal.Weighted>
-0.0000

> <Gold.Chemscore.Lipo.Weighted>
-12.0013

> <Gold.Chemscore.Internal_Hbond.Weighted>
0.0000

> <Gold.Chemscore.DEClash.Weighted>
0.1076

> <Gold.Chemscore.DEInternal.Weighted>
1.8877

> <Gold.Chemscore.Rot.Weighted>
6.2544

> <Gold.Chemscore.Internal.Correction.Weighted>
   9.000000E+99

> <Gold.Protein.RotatedTorsions>
[ 6907 6896 6895 6894 ] final  -25.49 input  -60.11 | X-H torsion
[ 7974 7965 7964 7962 ] final -121.05 input  175.53 | X-H torsion
[ 8008 7997 7996 7995 ] final  153.15 input   59.86 | X-H torsion
[ 10167 10162 10161 10158 ] final  -92.75 input  -65.29 | X-H torsion
[ 10718 10713 10712 10709 ] final  106.45 input   66.30 | X-H torsion
[ 10763 10752 10751 10750 ] final  146.17 input  -60.55 | X-H torsion
[ 11005 11000 10999 10996 ] final -102.59 input  -57.11 | X-H torsion

> <Gold.Protein.ActiveResidues>
 VAL166  LYS551  ARG553  GLY616  TRP617  ASP618  TYR619  PRO620  LYS621  CYS622 
 ASP623  PHE694  ASN695  SER759  ASP760  ASP761  ALA762  ILE779  LEU786  VAL792 
 PHE793  MET794  SER795  GLU796  ALA797  LYS798  CYS799  TRP800  GLU811  SER814 

> <Gold.Protein.RotatedAtoms>
  151.1744  135.0332  159.8765 H   0  0  0  0  0  0  0  0  0  0  0  0  # atno 6907 bound_to 6896
  152.5447  134.1134  159.8378 H   0  0  0  0  0  0  0  0  0  0  0  0  # atno 6908 bound_to 6896
  151.1244  133.5035  159.2633 H   0  0  0  0  0  0  0  0  0  0  0  0  # atno 6909 bound_to 6896
  145.0446  140.8171  143.4246 H   0  0  0  0  0  0  0  0  0  0  0  0  # atno 7974 bound_to 7965
  156.2595  140.2001  156.6444 H   0  0  0  0  0  0  0  0  0  0  0  0  # atno 8008 bound_to 7997
  154.6584  140.0563  157.0060 H   0  0  0  0  0  0  0  0  0  0  0  0  # atno 8009 bound_to 7997
  155.1312  140.3234  155.4476 H   0  0  0  0  0  0  0  0  0  0  0  0  # atno 8010 bound_to 7997
  140.3316  143.2992  151.9935 H   0  0  0  0  0  0  0  0  0  0  0  0  # atno 10167 bound_to 10162
  157.6667  131.0851  150.6009 H   0  0  0  0  0  0  0  0  0  0  0  0  # atno 10718 bound_to 10713
  154.0175  135.2909  155.3385 H   0  0  0  0  0  0  0  0  0  0  0  0  # atno 10763 bound_to 10752
  154.7066  135.5167  153.8607 H   0  0  0  0  0  0  0  0  0  0  0  0  # atno 10764 bound_to 10752
  153.0696  135.6643  154.0400 H   0  0  0  0  0  0  0  0  0  0  0  0  # atno 10765 bound_to 10752
  141.1183  133.8571  157.1379 H   0  0  0  0  0  0  0  0  0  0  0  0  # atno 11005 bound_to 11000
  145.1605  139.2461  143.5394 LP  0  0  0  0  0  0  0  0  0  0  0  0  # atno 17320 bound_to 7965
  146.3512  140.1330  142.8596 LP  0  0  0  0  0  0  0  0  0  0  0  0  # atno 17321 bound_to 7965
  139.4855  144.6230  151.7218 LP  0  0  0  0  0  0  0  0  0  0  0  0  # atno 17342 bound_to 10162
  140.5392  144.0607  150.6082 LP  0  0  0  0  0  0  0  0  0  0  0  0  # atno 17343 bound_to 10162
  156.6309  130.4432  149.5787 LP  0  0  0  0  0  0  0  0  0  0  0  0  # atno 17370 bound_to 10713
  156.2282  130.6778  151.1437 LP  0  0  0  0  0  0  0  0  0  0  0  0  # atno 17371 bound_to 10713
  140.0120  134.9984  157.0415 LP  0  0  0  0  0  0  0  0  0  0  0  0  # atno 17394 bound_to 11000
  140.4583  134.1510  155.7188 LP  0  0  0  0  0  0  0  0  0  0  0  0  # atno 17395 bound_to 11000

$$$$
