AV-unprocessed.smi:2192|AV-procd|sdf|8896|dock10
  -GOLD-   2272012103D 1   1.00000     0.00000
 Structure written by MMmdl.
 42 44  0  0  0  0  0  0  0  0  1 V2000
  154.7811  139.8428  160.9351 C   0  0  0  0  0  0  0  0  0  0  0  0
  153.8041  140.8173  160.4143 N   0  0  0  0  0  0  0  0  0  0  0  0
  153.2756  140.6013  159.1686 C   0  0  0  0  0  0  0  0  0  0  0  0
  153.5506  139.6476  158.4394 O   0  0  0  0  0  0  0  0  0  0  0  0
  152.3205  141.6289  158.7450 C   0  0  0  0  0  0  0  0  0  0  0  0
  151.9885  142.6918  159.5161 C   0  0  0  0  0  0  0  0  0  0  0  0
  151.0630  143.5106  158.8789 N   0  0  0  0  0  0  0  0  0  0  0  0
  150.8818  142.8753  157.7201 C   0  0  0  0  0  0  0  0  0  0  0  0
  151.5992  141.7443  157.5588 N   0  0  0  0  0  0  0  0  0  0  0  0
  151.5899  140.8711  156.3957 C   0  0  0  0  0  0  0  0  0  0  0  0
  150.5572  139.7325  156.5173 C   0  0  2  0  0  0  0  0  0  0  0  0
  150.6809  138.8521  155.4174 O   0  0  0  0  0  0  0  0  0  0  0  0
  149.1143  140.2546  156.5651 C   0  0  0  0  0  0  0  0  0  0  0  0
  148.8273  140.9179  155.3410 O   0  0  0  0  0  0  0  0  0  0  0  0
  147.6878  141.6892  155.2665 C   0  0  0  0  0  0  0  0  0  0  0  0
  147.3330  142.1834  153.9940 C   0  0  0  0  0  0  0  0  0  0  0  0
  146.1837  142.9793  153.8240 C   0  0  0  0  0  0  0  0  0  0  0  0
  145.3749  143.2919  154.9321 C   0  0  0  0  0  0  0  0  0  0  0  0
  144.2698  144.0575  154.7714 F   0  0  0  0  0  0  0  0  0  0  0  0
  145.7178  142.8070  156.2081 C   0  0  0  0  0  0  0  0  0  0  0  0
  146.8666  142.0096  156.3775 C   0  0  0  0  0  0  0  0  0  0  0  0
  152.5920  142.8204  160.7915 N   0  0  0  0  0  0  0  0  0  0  0  0
  152.2084  143.9827  161.5984 C   0  0  0  0  0  0  0  0  0  0  0  0
  153.4967  141.8873  161.2386 C   0  0  0  0  0  0  0  0  0  0  0  0
  154.0225  142.0020  162.3491 O   0  0  0  0  0  0  0  0  0  0  0  0
  154.9993  139.0086  160.2675 H   0  0  0  0  0  0  0  0  0  0  0  0
  154.4226  139.4055  161.8684 H   0  0  0  0  0  0  0  0  0  0  0  0
  155.7344  140.3333  161.1386 H   0  0  0  0  0  0  0  0  0  0  0  0
  150.2087  143.2476  156.9616 H   0  0  0  0  0  0  0  0  0  0  0  0
  151.3953  141.4776  155.5106 H   0  0  0  0  0  0  0  0  0  0  0  0
  152.5912  140.4582  156.2640 H   0  0  0  0  0  0  0  0  0  0  0  0
  150.7500  139.1524  157.4202 H   0  0  0  0  0  0  0  0  0  0  0  0
  149.8393  138.4542  155.2547 H   0  0  0  0  0  0  0  0  0  0  0  0
  148.4216  139.4275  156.7306 H   0  0  0  0  0  0  0  0  0  0  0  0
  149.0064  140.9585  157.3921 H   0  0  0  0  0  0  0  0  0  0  0  0
  147.9489  141.9484  153.1383 H   0  0  0  0  0  0  0  0  0  0  0  0
  145.9235  143.3496  152.8433 H   0  0  0  0  0  0  0  0  0  0  0  0
  145.0987  143.0469  157.0598 H   0  0  0  0  0  0  0  0  0  0  0  0
  147.0963  141.6568  157.3714 H   0  0  0  0  0  0  0  0  0  0  0  0
  152.7097  144.0467  162.5646 H   0  0  0  0  0  0  0  0  0  0  0  0
  151.1352  143.9628  161.7907 H   0  0  0  0  0  0  0  0  0  0  0  0
  152.4331  144.9023  161.0569 H   0  0  0  0  0  0  0  0  0  0  0  0
  1  2  1  0  0  0  0
  1 26  1  0  0  0  0
  1 27  1  0  0  0  0
  1 28  1  0  0  0  0
  2 24  1  0  0  0  0
  2  3  1  0  0  0  0
  3  4  2  0  0  0  0
  3  5  1  0  0  0  0
  5  9  1  0  0  0  0
  5  6  2  0  0  0  0
  6  7  1  0  0  0  0
  6 22  1  0  0  0  0
  7  8  2  0  0  0  0
  8  9  1  0  0  0  0
  8 29  1  0  0  0  0
  9 10  1  0  0  0  0
 10 11  1  0  0  0  0
 10 30  1  0  0  0  0
 10 31  1  0  0  0  0
 11 12  1  0  0  0  0
 11 13  1  0  0  0  0
 11 32  1  0  0  0  0
 12 33  1  0  0  0  0
 13 14  1  0  0  0  0
 13 34  1  0  0  0  0
 13 35  1  0  0  0  0
 14 15  1  0  0  0  0
 15 21  1  0  0  0  0
 15 16  2  0  0  0  0
 16 17  1  0  0  0  0
 16 36  1  0  0  0  0
 17 18  2  0  0  0  0
 17 37  1  0  0  0  0
 18 19  1  0  0  0  0
 18 20  1  0  0  0  0
 20 21  2  0  0  0  0
 20 38  1  0  0  0  0
 21 39  1  0  0  0  0
 22 23  1  0  0  0  0
 22 24  1  0  0  0  0
 23 40  1  0  0  0  0
 23 41  1  0  0  0  0
 23 42  1  0  0  0  0
 24 25  2  0  0  0  0
M  END
> <s_m_source_file>
AV-unprocessed.smi

> <i_m_source_file_index>
2192

> <i_lp_mmshare_version>
43012

> <i_f3d_flags>
0

> <s_epik_input>
Tz1jMW4oW0NIM10pYyg9TyluKFtDSDNdKWMoYzEyKW5bY0hdbjJbQ0gyXVtDQEhdKFtPSF0pW0NIMl1PYzNbY0hdW2NIXWMoRilbY0hdW2NIXTM=

> <s_epik_cmdline>
J2VwaWtfcHl0aG9uJywgJy1waCcsICc3LjAnLCAnLXRuJywgJzgnLCAnLW1hJywgJzIwMCcsICctbWV0YWxfYmluZGluZycsICctaW1hZScsICc8aW5maWxlLm1hZT4nLCAnLW9tYWUnLCAnPG91dGZpbGUubWFlPic=

> <r_lp_tautomer_probability>
1

> <r_epik_Ionization_Penalty>
1.0344e-06

> <r_epik_Ionization_Penalty_Charging>
3.2247e-09

> <r_epik_Ionization_Penalty_Neutral>
1.03118e-06

> <r_epik_State_Penalty>
-0

> <r_epik_Charging_Adjusted_Penalty>
3.2247e-09

> <i_epik_Tot_Q>
0

> <i_epik_Tot_abs_Q>
0

> <r_epik_Metal_State_Penalty>
-0

> <b_epik_Metal_Only>
0

> <s_lp_Force_Field>
OPLS_2005

> <r_lp_Energy>
38.6998

> <b_lp_Chiralities_Consistent>
1

> <s_lp_Variant>
AV-unprocessed.smi:2192-1

> <Gold.Version>
5.8.1

> <Gold.Id.Protein>
6NUR|6NUR_protein|mol2

> <Gold.PLP.Fitness>
55.5169

> <Gold.PLP.PLP>
-50.4765

> <Gold.PLP.part.hbond>
-2.0000

> <Gold.PLP.part.metal>
0.0000

> <Gold.PLP.part.buried>
-7.9246

> <Gold.PLP.part.nonpolar>
-40.1152

> <Gold.PLP.part.repulsive>
0.1969

> <Gold.PLP.ligand.clash>
0.0000

> <Gold.PLP.ligand.torsion>
0.4922

> <Gold.PLP.Chemscore.Hbond>
1.0000

> <Gold.PLP.Chemscore.CHOScore>
1.0000

> <Gold.PLP.Chemscore.Metal>
0.0000

> <Gold.Chemscore.Hbonds>
donor molecule, donor type, donor heavy atom, donor atom, acceptor molecule, acceptor atom, score
      P1  H  7997  8008       L1     4  1.00
      L1  C     8    29       P1  8028  1.00

> <Gold.PLP.Chemscore.Internal.Correction>
0.0248

> <Gold.Rescore>
     Score         DG    S(hbond)    S(metal)    S(lipo)     H(rot)  DE(clash)    DE(int)     intcor
      9.17      -9.70       0.96        0.00      71.54       2.88       0.02       0.52       ----

> <Gold.Chemscore.Fitness>
9.1661

> <Gold.Chemscore.DG>
-9.7022

> <Gold.Chemscore.ZeroCoef>
-5.4800

> <Gold.Chemscore.Hbond>
0.9626

> <Gold.Chemscore.Metal>
0.0000

> <Gold.Chemscore.Lipo>
71.5414

> <Gold.Chemscore.Internal_Hbond>
0.0000

> <Gold.Chemscore.DEClash>
0.0182

> <Gold.Chemscore.DEInternal>
0.5179

> <Gold.Chemscore.Rot>
2.8762

> <Gold.Chemscore.Internal.Correction>
   9.000000E+99

> <Gold.Chemscore.Hbonds>
donor molecule, donor type, donor heavy atom, donor atom, acceptor molecule, acceptor atom, score
      P1  H  7997  8008       L1     4  0.83

> <Gold.Chemscore.Hbond.Weighted>
-3.2150

> <Gold.Chemscore.Metal.Weighted>
-0.0000

> <Gold.Chemscore.Lipo.Weighted>
-8.3703

> <Gold.Chemscore.Internal_Hbond.Weighted>
0.0000

> <Gold.Chemscore.DEClash.Weighted>
0.0182

> <Gold.Chemscore.DEInternal.Weighted>
0.5179

> <Gold.Chemscore.Rot.Weighted>
7.3631

> <Gold.Chemscore.Internal.Correction.Weighted>
   9.000000E+99

> <Gold.Protein.RotatedTorsions>
[ 6907 6896 6895 6894 ] final  -50.97 input  -60.11 | X-H torsion
[ 7974 7965 7964 7962 ] final   23.30 input  175.53 | X-H torsion
[ 8008 7997 7996 7995 ] final -107.86 input   59.86 | X-H torsion
[ 10167 10162 10161 10158 ] final  109.45 input  -65.29 | X-H torsion
[ 10718 10713 10712 10709 ] final   24.76 input   66.30 | X-H torsion
[ 10763 10752 10751 10750 ] final  100.02 input  -60.55 | X-H torsion
[ 11005 11000 10999 10996 ] final   -3.85 input  -57.11 | X-H torsion

> <Gold.Protein.ActiveResidues>
 VAL166  LYS551  ARG553  GLY616  TRP617  ASP618  TYR619  PRO620  LYS621  CYS622 
 ASP623  PHE694  ASN695  SER759  ASP760  ASP761  ALA762  ILE779  LEU786  VAL792 
 PHE793  MET794  SER795  GLU796  ALA797  LYS798  CYS799  TRP800  GLU811  SER814 

> <Gold.Protein.RotatedAtoms>
  150.8656  134.8018  159.7115 H   0  0  0  0  0  0  0  0  0  0  0  0  # atno 6907 bound_to 6896
  152.4678  134.5030  159.9740 H   0  0  0  0  0  0  0  0  0  0  0  0  # atno 6908 bound_to 6896
  151.5126  133.3443  159.2923 H   0  0  0  0  0  0  0  0  0  0  0  0  # atno 6909 bound_to 6896
  146.1990  139.7764  142.8775 H   0  0  0  0  0  0  0  0  0  0  0  0  # atno 7974 bound_to 7965
  154.9356  140.0404  157.2070 H   0  0  0  0  0  0  0  0  0  0  0  0  # atno 8008 bound_to 7997
  154.8119  140.2869  155.5826 H   0  0  0  0  0  0  0  0  0  0  0  0  # atno 8009 bound_to 7997
  156.2972  140.2535  156.3008 H   0  0  0  0  0  0  0  0  0  0  0  0  # atno 8010 bound_to 7997
  139.6765  144.7122  151.1592 H   0  0  0  0  0  0  0  0  0  0  0  0  # atno 10167 bound_to 10162
  157.1841  130.6816  149.6124 H   0  0  0  0  0  0  0  0  0  0  0  0  # atno 10718 bound_to 10713
  153.3086  135.4093  155.1316 H   0  0  0  0  0  0  0  0  0  0  0  0  # atno 10763 bound_to 10752
  154.8570  135.3559  154.5754 H   0  0  0  0  0  0  0  0  0  0  0  0  # atno 10764 bound_to 10752
  153.6182  135.7065  153.5379 H   0  0  0  0  0  0  0  0  0  0  0  0  # atno 10765 bound_to 10752
  140.6738  133.9213  155.8511 H   0  0  0  0  0  0  0  0  0  0  0  0  # atno 11005 bound_to 11000
  145.3547  141.0314  143.3319 LP  0  0  0  0  0  0  0  0  0  0  0  0  # atno 17320 bound_to 7965
  144.8642  139.5132  143.6798 LP  0  0  0  0  0  0  0  0  0  0  0  0  # atno 17321 bound_to 7965
  140.7637  143.5764  150.8941 LP  0  0  0  0  0  0  0  0  0  0  0  0  # atno 17342 bound_to 10162
  139.9433  143.6357  152.3048 LP  0  0  0  0  0  0  0  0  0  0  0  0  # atno 17343 bound_to 10162
  155.9720  130.4637  150.6190 LP  0  0  0  0  0  0  0  0  0  0  0  0  # atno 17370 bound_to 10713
  157.3924  131.0797  151.1382 LP  0  0  0  0  0  0  0  0  0  0  0  0  # atno 17371 bound_to 10713
  141.0371  134.0674  157.3946 LP  0  0  0  0  0  0  0  0  0  0  0  0  # atno 17394 bound_to 11000
  139.8973  135.0150  156.7094 LP  0  0  0  0  0  0  0  0  0  0  0  0  # atno 17395 bound_to 11000

$$$$
