AV-unprocessed.smi:1460|AV-procd|sdf|5929|dock5
  -GOLD-   22720 6 13D 1   1.00000     0.00000
 Structure written by MMmdl.
 41 42  0  0  0  0  0  0  0  0  1 V2000
  152.5827  139.3444  159.3666 C   0  0  0  0  0  0  0  0  0  0  0  0
  151.8865  140.6951  159.1532 C   0  0  1  0  0  0  0  0  0  0  0  0
  152.8632  141.8710  159.3717 C   0  0  0  0  0  0  0  0  0  0  0  0
  152.2135  143.1668  159.2807 N   0  0  0  0  0  0  0  0  0  0  0  0
  152.1192  144.1489  160.2448 C   0  0  0  0  0  0  0  0  0  0  0  0
  151.4367  145.1948  159.6933 C   0  0  0  0  0  0  0  0  0  0  0  0
  151.1468  144.7502  158.3729 C   0  0  0  0  0  0  0  0  0  0  0  0
  151.6093  143.5345  158.1304 N   0  0  0  0  0  0  0  0  0  0  0  0
  151.3234  140.7301  157.8039 N   0  0  0  0  0  0  0  0  0  0  0  0
  151.9369  140.3075  156.6865 C   0  0  0  0  0  0  0  0  0  0  0  0
  153.0827  139.8565  156.6718 O   0  0  0  0  0  0  0  0  0  0  0  0
  151.1234  140.3881  155.3892 C   0  0  0  0  0  0  0  0  0  0  0  0
  149.7872  141.1305  155.6253 C   0  0  0  0  0  0  0  0  0  0  0  0
  148.9044  141.1005  154.3643 C   0  0  0  0  0  0  0  0  0  0  0  0
  148.6837  139.6985  153.9715 N   0  0  0  0  0  0  0  0  0  0  0  0
  147.5361  138.9926  154.1340 C   0  0  0  0  0  0  0  0  0  0  0  0
  147.4763  137.8378  153.4633 N   0  0  0  0  0  0  0  0  0  0  0  0
  146.6160  139.3426  154.8713 O   0  0  0  0  0  0  0  0  0  0  0  0
  149.9410  139.0523  153.5755 C   0  0  0  0  0  0  0  0  0  0  0  0
  150.8746  138.9814  154.7971 C   0  0  0  0  0  0  0  0  0  0  0  0
  152.9908  139.2696  160.3750 H   0  0  0  0  0  0  0  0  0  0  0  0
  153.4048  139.2041  158.6641 H   0  0  0  0  0  0  0  0  0  0  0  0
  151.8847  138.5171  159.2335 H   0  0  0  0  0  0  0  0  0  0  0  0
  151.0846  140.7618  159.8911 H   0  0  0  0  0  0  0  0  0  0  0  0
  153.3265  141.7958  160.3566 H   0  0  0  0  0  0  0  0  0  0  0  0
  153.6754  141.8351  158.6444 H   0  0  0  0  0  0  0  0  0  0  0  0
  152.5492  144.0263  161.2278 H   0  0  0  0  0  0  0  0  0  0  0  0
  151.1847  146.1353  160.1602 H   0  0  0  0  0  0  0  0  0  0  0  0
  150.6175  145.2709  157.5890 H   0  0  0  0  0  0  0  0  0  0  0  0
  150.3829  141.0872  157.7160 H   0  0  0  0  0  0  0  0  0  0  0  0
  151.6956  140.9596  154.6560 H   0  0  0  0  0  0  0  0  0  0  0  0
  149.2411  140.6769  156.4542 H   0  0  0  0  0  0  0  0  0  0  0  0
  149.9805  142.1646  155.9136 H   0  0  0  0  0  0  0  0  0  0  0  0
  147.9862  141.6583  154.5469 H   0  0  0  0  0  0  0  0  0  0  0  0
  149.4035  141.6253  153.5485 H   0  0  0  0  0  0  0  0  0  0  0  0
  146.6537  137.2571  153.5325 H   0  0  0  0  0  0  0  0  0  0  0  0
  148.2561  137.5534  152.8887 H   0  0  0  0  0  0  0  0  0  0  0  0
  149.7886  138.0533  153.1642 H   0  0  0  0  0  0  0  0  0  0  0  0
  150.4095  139.6306  152.7776 H   0  0  0  0  0  0  0  0  0  0  0  0
  151.8218  138.5236  154.5091 H   0  0  0  0  0  0  0  0  0  0  0  0
  150.4299  138.3249  155.5469 H   0  0  0  0  0  0  0  0  0  0  0  0
  1  2  1  0  0  0  0
  1 21  1  0  0  0  0
  1 22  1  0  0  0  0
  1 23  1  0  0  0  0
  2  3  1  0  0  0  0
  2  9  1  0  0  0  0
  2 24  1  0  0  0  0
  3  4  1  0  0  0  0
  3 25  1  0  0  0  0
  3 26  1  0  0  0  0
  4  8  1  0  0  0  0
  4  5  1  0  0  0  0
  5  6  2  0  0  0  0
  5 27  1  0  0  0  0
  6  7  1  0  0  0  0
  6 28  1  0  0  0  0
  7  8  2  0  0  0  0
  7 29  1  0  0  0  0
  9 10  1  0  0  0  0
  9 30  1  0  0  0  0
 10 11  2  0  0  0  0
 10 12  1  0  0  0  0
 12 20  1  0  0  0  0
 12 13  1  0  0  0  0
 12 31  1  0  0  0  0
 13 14  1  0  0  0  0
 13 32  1  0  0  0  0
 13 33  1  0  0  0  0
 14 15  1  0  0  0  0
 14 34  1  0  0  0  0
 14 35  1  0  0  0  0
 15 16  1  0  0  0  0
 15 19  1  0  0  0  0
 16 17  1  0  0  0  0
 16 18  2  0  0  0  0
 17 36  1  0  0  0  0
 17 37  1  0  0  0  0
 19 20  1  0  0  0  0
 19 38  1  0  0  0  0
 19 39  1  0  0  0  0
 20 40  1  0  0  0  0
 20 41  1  0  0  0  0
M  END
> <s_m_source_file>
AV-unprocessed.smi

> <i_m_source_file_index>
1460

> <i_lp_mmshare_version>
43012

> <i_f3d_flags>
0

> <s_epik_input>
bjFbY0hdW2NIXVtjSF1uMVtDSDJdW0NAQEhdKFtDSDNdKVtOSF1DKD1PKVtDSF0yW0NIMl1bQ0gyXU4oQyg9TylbTkgyXSlbQ0gyXVtDSDJdMg==

> <s_epik_cmdline>
J2VwaWtfcHl0aG9uJywgJy1waCcsICc3LjAnLCAnLXRuJywgJzgnLCAnLW1hJywgJzIwMCcsICctbWV0YWxfYmluZGluZycsICctaW1hZScsICc8aW5maWxlLm1hZT4nLCAnLW9tYWUnLCAnPG91dGZpbGUubWFlPic=

> <r_lp_tautomer_probability>
1

> <r_epik_Ionization_Penalty>
0.000387527

> <r_epik_Ionization_Penalty_Charging>
0

> <r_epik_Ionization_Penalty_Neutral>
0.000387527

> <r_epik_State_Penalty>
-0

> <r_epik_Charging_Adjusted_Penalty>
0

> <i_epik_Tot_Q>
0

> <i_epik_Tot_abs_Q>
0

> <r_epik_Metal_State_Penalty>
-0

> <b_epik_Metal_Only>
0

> <s_lp_Force_Field>
OPLS_2005

> <r_lp_Energy>
25.9922

> <b_lp_Chiralities_Consistent>
1

> <s_lp_Variant>
AV-unprocessed.smi:1460-2

> <Gold.Version>
5.8.1

> <Gold.Id.Protein>
6NUR|6NUR_protein|mol2

> <Gold.PLP.Fitness>
45.6780

> <Gold.PLP.PLP>
-39.5797

> <Gold.PLP.part.hbond>
-1.7421

> <Gold.PLP.part.metal>
0.0000

> <Gold.PLP.part.buried>
-0.9778

> <Gold.PLP.part.nonpolar>
-37.2875

> <Gold.PLP.part.repulsive>
0.2046

> <Gold.PLP.ligand.clash>
1.9589

> <Gold.PLP.ligand.torsion>
0.4903

> <Gold.PLP.Chemscore.Hbond>
1.9913

> <Gold.PLP.Chemscore.CHOScore>
1.0000

> <Gold.PLP.Chemscore.Metal>
0.0000

> <Gold.Chemscore.Hbonds>
donor molecule, donor type, donor heavy atom, donor atom, acceptor molecule, acceptor atom, score
      L1  H    17    37       P1  7948  0.93
      P1  H  7997  8009       L1    11  0.59
      L1  C     7    29       P1  8028  0.58
      L1  C     7    29       P1  8029  0.09

> <Gold.PLP.Chemscore.Internal.Correction>
0.0641

> <Gold.Rescore>
     Score         DG    S(hbond)    S(metal)    S(lipo)     H(rot)  DE(clash)    DE(int)     intcor
     16.57     -18.39       1.94        0.00      94.77       1.82       0.04       1.77       ----

> <Gold.Chemscore.Fitness>
16.5721

> <Gold.Chemscore.DG>
-18.3875

> <Gold.Chemscore.ZeroCoef>
-5.4800

> <Gold.Chemscore.Hbond>
1.9403

> <Gold.Chemscore.Metal>
0.0000

> <Gold.Chemscore.Lipo>
94.7653

> <Gold.Chemscore.Internal_Hbond>
0.0000

> <Gold.Chemscore.DEClash>
0.0418

> <Gold.Chemscore.DEInternal>
1.7736

> <Gold.Chemscore.Rot>
1.8206

> <Gold.Chemscore.Internal.Correction>
   9.000000E+99

> <Gold.Chemscore.Hbonds>
donor molecule, donor type, donor heavy atom, donor atom, acceptor molecule, acceptor atom, score
      L1  H    17    37       P1  7948  0.91
      P1  H  7997  8009       L1    11  0.57

> <Gold.Chemscore.Hbond.Weighted>
-6.4807

> <Gold.Chemscore.Metal.Weighted>
-0.0000

> <Gold.Chemscore.Lipo.Weighted>
-11.0875

> <Gold.Chemscore.Internal_Hbond.Weighted>
0.0000

> <Gold.Chemscore.DEClash.Weighted>
0.0418

> <Gold.Chemscore.DEInternal.Weighted>
1.7736

> <Gold.Chemscore.Rot.Weighted>
4.6607

> <Gold.Chemscore.Internal.Correction.Weighted>
   9.000000E+99

> <Gold.Protein.RotatedTorsions>
[ 6907 6896 6895 6894 ] final  147.93 input  -60.11 | X-H torsion
[ 7974 7965 7964 7962 ] final  -56.08 input  175.53 | X-H torsion
[ 8008 7997 7996 7995 ] final  165.48 input   59.86 | X-H torsion
[ 10167 10162 10161 10158 ] final   38.58 input  -65.29 | X-H torsion
[ 10718 10713 10712 10709 ] final -170.41 input   66.30 | X-H torsion
[ 10763 10752 10751 10750 ] final -161.36 input  -60.55 | X-H torsion
[ 11005 11000 10999 10996 ] final   35.16 input  -57.11 | X-H torsion

> <Gold.Protein.ActiveResidues>
 VAL166  LYS551  ARG553  GLY616  TRP617  ASP618  TYR619  PRO620  LYS621  CYS622 
 ASP623  PHE694  ASN695  SER759  ASP760  ASP761  ALA762  ILE779  LEU786  VAL792 
 PHE793  MET794  SER795  GLU796  ALA797  LYS798  CYS799  TRP800  GLU811  SER814 

> <Gold.Protein.RotatedAtoms>
  152.1483  133.4506  159.4800 H   0  0  0  0  0  0  0  0  0  0  0  0  # atno 6907 bound_to 6896
  150.6893  134.2220  159.4410 H   0  0  0  0  0  0  0  0  0  0  0  0  # atno 6908 bound_to 6896
  152.0115  134.9873  160.0619 H   0  0  0  0  0  0  0  0  0  0  0  0  # atno 6909 bound_to 6896
  145.8668  140.8245  142.9908 H   0  0  0  0  0  0  0  0  0  0  0  0  # atno 7974 bound_to 7965
  156.1797  140.1669  156.8297 H   0  0  0  0  0  0  0  0  0  0  0  0  # atno 8008 bound_to 7997
  154.5346  140.0749  156.8439 H   0  0  0  0  0  0  0  0  0  0  0  0  # atno 8009 bound_to 7997
  155.3337  140.3380  155.4241 H   0  0  0  0  0  0  0  0  0  0  0  0  # atno 8010 bound_to 7997
  140.3922  144.1837  150.6131 H   0  0  0  0  0  0  0  0  0  0  0  0  # atno 10167 bound_to 10162
  156.7257  130.9287  151.3101 H   0  0  0  0  0  0  0  0  0  0  0  0  # atno 10718 bound_to 10713
  154.7310  135.3046  154.8891 H   0  0  0  0  0  0  0  0  0  0  0  0  # atno 10763 bound_to 10752
  153.9734  135.6739  153.4752 H   0  0  0  0  0  0  0  0  0  0  0  0  # atno 10764 bound_to 10752
  153.0918  135.4955  154.8625 H   0  0  0  0  0  0  0  0  0  0  0  0  # atno 10765 bound_to 10752
  140.2454  134.3365  155.7910 H   0  0  0  0  0  0  0  0  0  0  0  0  # atno 11005 bound_to 11000
  144.6726  140.1179  143.7451 LP  0  0  0  0  0  0  0  0  0  0  0  0  # atno 17320 bound_to 7965
  145.9183  139.2530  143.1396 LP  0  0  0  0  0  0  0  0  0  0  0  0  # atno 17321 bound_to 7965
  140.4827  143.2373  151.8932 LP  0  0  0  0  0  0  0  0  0  0  0  0  # atno 17342 bound_to 10162
  139.4788  144.5251  151.8746 LP  0  0  0  0  0  0  0  0  0  0  0  0  # atno 17343 bound_to 10162
  157.6879  130.9204  150.0436 LP  0  0  0  0  0  0  0  0  0  0  0  0  # atno 17370 bound_to 10713
  156.1563  130.3643  149.9364 LP  0  0  0  0  0  0  0  0  0  0  0  0  # atno 17371 bound_to 10713
  141.2206  133.7323  156.8953 LP  0  0  0  0  0  0  0  0  0  0  0  0  # atno 17394 bound_to 11000
  140.1611  134.9165  157.2715 LP  0  0  0  0  0  0  0  0  0  0  0  0  # atno 17395 bound_to 11000

$$$$
