AV-unprocessed.smi:2984|AV-procd|sdf|11378|dock5
  -GOLD-   2272016293D 1   1.00000     0.00000
 Structure written by MMmdl.
 38 39  0  0  0  0  0  0  0  0  1 V2000
  149.7680  140.1896  154.1487 O   0  0  0  0  0  0  0  0  0  0  0  0
  149.0445  141.1065  154.5409 C   0  0  0  0  0  0  0  0  0  0  0  0
  147.6602  141.2902  153.9036 C   0  0  0  0  0  0  0  0  0  0  0  0
  147.0658  140.0151  153.4735 N   0  0  0  0  0  0  0  0  0  0  0  0
  147.1056  139.8075  152.1052 N   0  0  0  0  0  0  0  0  0  0  0  0
  146.5919  138.7342  151.6108 C   0  0  0  0  0  0  0  0  0  0  0  0
  145.9736  137.7238  152.4398 C   0  0  0  0  0  0  0  0  0  0  0  0
  145.2977  136.3058  151.7187 Cl  0  0  0  0  0  0  0  0  0  0  0  0
  145.9501  137.9311  153.7805 C   0  0  0  0  0  0  0  0  0  0  0  0
  145.2297  136.7653  154.8370 Cl  0  0  0  0  0  0  0  0  0  0  0  0
  146.5277  139.1420  154.3801 C   0  0  0  0  0  0  0  0  0  0  0  0
  146.5282  139.3650  155.5912 O   0  0  0  0  0  0  0  0  0  0  0  0
  149.3704  141.9948  155.5035 N   0  0  0  0  0  0  0  0  0  0  0  0
  150.4989  142.0389  156.2358 C   0  0  0  0  0  0  0  0  0  0  0  0
  151.3142  141.1222  156.3572 O   0  0  0  0  0  0  0  0  0  0  0  0
  150.6299  143.2287  156.8412 N   0  0  0  0  0  0  0  0  0  0  0  0
  151.5580  143.5250  157.9285 C   0  0  0  0  0  0  0  0  0  0  0  0
  151.3929  142.5052  159.0747 C   0  0  0  0  0  0  0  0  0  0  0  0
  152.3039  142.8444  160.2657 C   0  0  0  0  0  0  0  0  0  0  0  0
  152.0607  144.2773  160.7642 C   0  0  0  0  0  0  0  0  0  0  0  0
  152.2310  145.2961  159.6264 C   0  0  0  0  0  0  0  0  0  0  0  0
  151.3189  144.9600  158.4354 C   0  0  0  0  0  0  0  0  0  0  0  0
  147.0136  141.7887  154.6280 H   0  0  0  0  0  0  0  0  0  0  0  0
  147.7330  141.9772  153.0583 H   0  0  0  0  0  0  0  0  0  0  0  0
  146.5954  138.5311  150.5399 H   0  0  0  0  0  0  0  0  0  0  0  0
  148.6768  142.6985  155.7086 H   0  0  0  0  0  0  0  0  0  0  0  0
  150.0360  143.9853  156.5353 H   0  0  0  0  0  0  0  0  0  0  0  0
  152.5803  143.4672  157.5493 H   0  0  0  0  0  0  0  0  0  0  0  0
  150.3542  142.4892  159.4083 H   0  0  0  0  0  0  0  0  0  0  0  0
  151.6177  141.4985  158.7201 H   0  0  0  0  0  0  0  0  0  0  0  0
  152.1351  142.1352  161.0765 H   0  0  0  0  0  0  0  0  0  0  0  0
  153.3481  142.7327  159.9704 H   0  0  0  0  0  0  0  0  0  0  0  0
  151.0540  144.3548  161.1768 H   0  0  0  0  0  0  0  0  0  0  0  0
  152.7476  144.5098  161.5783 H   0  0  0  0  0  0  0  0  0  0  0  0
  152.0119  146.3001  159.9909 H   0  0  0  0  0  0  0  0  0  0  0  0
  153.2711  145.3065  159.2981 H   0  0  0  0  0  0  0  0  0  0  0  0
  151.4908  145.6748  157.6296 H   0  0  0  0  0  0  0  0  0  0  0  0
  150.2768  145.0779  158.7360 H   0  0  0  0  0  0  0  0  0  0  0  0
  1  2  2  0  0  0  0
  2  3  1  0  0  0  0
  2 13  1  0  0  0  0
  3  4  1  0  0  0  0
  3 23  1  0  0  0  0
  3 24  1  0  0  0  0
  4 11  1  0  0  0  0
  4  5  1  0  0  0  0
  5  6  2  0  0  0  0
  6  7  1  0  0  0  0
  6 25  1  0  0  0  0
  7  8  1  0  0  0  0
  7  9  2  0  0  0  0
  9 10  1  0  0  0  0
  9 11  1  0  0  0  0
 11 12  2  0  0  0  0
 13 14  1  0  0  0  0
 13 26  1  0  0  0  0
 14 15  2  0  0  0  0
 14 16  1  0  0  0  0
 16 17  1  0  0  0  0
 16 27  1  0  0  0  0
 17 22  1  0  0  0  0
 17 18  1  0  0  0  0
 17 28  1  0  0  0  0
 18 19  1  0  0  0  0
 18 29  1  0  0  0  0
 18 30  1  0  0  0  0
 19 20  1  0  0  0  0
 19 31  1  0  0  0  0
 19 32  1  0  0  0  0
 20 21  1  0  0  0  0
 20 33  1  0  0  0  0
 20 34  1  0  0  0  0
 21 22  1  0  0  0  0
 21 35  1  0  0  0  0
 21 36  1  0  0  0  0
 22 37  1  0  0  0  0
 22 38  1  0  0  0  0
M  END
> <s_m_source_file>
AV-unprocessed.smi

> <i_m_source_file_index>
2984

> <i_lp_mmshare_version>
43012

> <i_f3d_flags>
0

> <s_epik_input>
Tz1jMWMoQ2wpYyhDbClbY0hdbm4xW0NIMl1DKD1PKVtOSF1DKD1PKVtOSF1bQ0hdMltDSDJdW0NIMl1bQ0gyXVtDSDJdW0NIMl0y

> <s_epik_cmdline>
J2VwaWtfcHl0aG9uJywgJy1waCcsICc3LjAnLCAnLXRuJywgJzgnLCAnLW1hJywgJzIwMCcsICctbWV0YWxfYmluZGluZycsICctaW1hZScsICc8aW5maWxlLm1hZT4nLCAnLW9tYWUnLCAnPG91dGZpbGUubWFlPic=

> <r_lp_tautomer_probability>
1

> <r_epik_Ionization_Penalty>
3.27035e-05

> <r_epik_Ionization_Penalty_Charging>
2.24292e-11

> <r_epik_Ionization_Penalty_Neutral>
3.27035e-05

> <r_epik_State_Penalty>
-0

> <r_epik_Charging_Adjusted_Penalty>
2.24292e-11

> <i_epik_Tot_Q>
0

> <i_epik_Tot_abs_Q>
0

> <r_epik_Metal_State_Penalty>
-0

> <b_epik_Metal_Only>
0

> <s_lp_Force_Field>
OPLS_2005

> <r_lp_Energy>
25.082

> <b_lp_Chiralities_Consistent>
1

> <s_lp_Variant>
AV-unprocessed.smi:2984-1

> <Gold.Version>
5.8.1

> <Gold.Id.Protein>
6NUR|6NUR_protein|mol2

> <Gold.PLP.Fitness>
49.1958

> <Gold.PLP.PLP>
-43.0945

> <Gold.PLP.part.hbond>
-3.0000

> <Gold.PLP.part.metal>
0.0000

> <Gold.PLP.part.buried>
-7.1197

> <Gold.PLP.part.nonpolar>
-38.3796

> <Gold.PLP.part.repulsive>
4.9986

> <Gold.PLP.ligand.clash>
0.0000

> <Gold.PLP.ligand.torsion>
0.7129

> <Gold.PLP.Chemscore.Hbond>
2.3367

> <Gold.PLP.Chemscore.CHOScore>
0.1681

> <Gold.PLP.Chemscore.Metal>
0.0000

> <Gold.Chemscore.Hbonds>
donor molecule, donor type, donor heavy atom, donor atom, acceptor molecule, acceptor atom, score
      L1  H    13    26       P1  8028  0.58
      L1  H    16    27       P1  8028  1.00
      P1  H  7989  7998       L1     1  0.74
      L1  C     6    25       P1 10171  0.17

> <Gold.PLP.Chemscore.Internal.Correction>
0.0126

> <Gold.Rescore>
     Score         DG    S(hbond)    S(metal)    S(lipo)     H(rot)  DE(clash)    DE(int)     intcor
     14.25     -17.90       1.63        0.00      95.33       1.63       1.65       1.99       ----

> <Gold.Chemscore.Fitness>
14.2547

> <Gold.Chemscore.DG>
-17.8967

> <Gold.Chemscore.ZeroCoef>
-5.4800

> <Gold.Chemscore.Hbond>
1.6261

> <Gold.Chemscore.Metal>
0.0000

> <Gold.Chemscore.Lipo>
95.3340

> <Gold.Chemscore.Internal_Hbond>
0.0000

> <Gold.Chemscore.DEClash>
1.6547

> <Gold.Chemscore.DEInternal>
1.9873

> <Gold.Chemscore.Rot>
1.6283

> <Gold.Chemscore.Internal.Correction>
   9.000000E+99

> <Gold.Chemscore.Hbonds>
donor molecule, donor type, donor heavy atom, donor atom, acceptor molecule, acceptor atom, score
      L1  H    13    26       P1  8028  0.54
      L1  H    16    27       P1  8028  0.98
      P1  H  7989  7998       L1     1  0.58

> <Gold.Chemscore.Hbond.Weighted>
-5.4310

> <Gold.Chemscore.Metal.Weighted>
-0.0000

> <Gold.Chemscore.Lipo.Weighted>
-11.1541

> <Gold.Chemscore.Internal_Hbond.Weighted>
0.0000

> <Gold.Chemscore.DEClash.Weighted>
1.6547

> <Gold.Chemscore.DEInternal.Weighted>
1.9873

> <Gold.Chemscore.Rot.Weighted>
4.1684

> <Gold.Chemscore.Internal.Correction.Weighted>
   9.000000E+99

> <Gold.Protein.RotatedTorsions>
[ 6907 6896 6895 6894 ] final   58.29 input  -60.11 | X-H torsion
[ 7974 7965 7964 7962 ] final  118.37 input  175.53 | X-H torsion
[ 8008 7997 7996 7995 ] final  -57.59 input   59.86 | X-H torsion
[ 10167 10162 10161 10158 ] final -179.37 input  -65.29 | X-H torsion
[ 10718 10713 10712 10709 ] final -120.52 input   66.30 | X-H torsion
[ 10763 10752 10751 10750 ] final  175.96 input  -60.55 | X-H torsion
[ 11005 11000 10999 10996 ] final  -77.78 input  -57.11 | X-H torsion

> <Gold.Protein.ActiveResidues>
 VAL166  LYS551  ARG553  GLY616  TRP617  ASP618  TYR619  PRO620  LYS621  CYS622 
 ASP623  PHE694  ASN695  SER759  ASP760  ASP761  ALA762  ILE779  LEU786  VAL792 
 PHE793  MET794  SER795  GLU796  ALA797  LYS798  CYS799  TRP800  GLU811  SER814 

> <Gold.Protein.RotatedAtoms>
  152.3810  134.6590  160.0142 H   0  0  0  0  0  0  0  0  0  0  0  0  # atno 6907 bound_to 6896
  151.6853  133.3306  159.3237 H   0  0  0  0  0  0  0  0  0  0  0  0  # atno 6908 bound_to 6896
  150.7747  134.6681  159.6421 H   0  0  0  0  0  0  0  0  0  0  0  0  # atno 6909 bound_to 6896
  145.1560  139.3182  143.4542 H   0  0  0  0  0  0  0  0  0  0  0  0  # atno 7974 bound_to 7965
  154.4274  140.1103  156.5821 H   0  0  0  0  0  0  0  0  0  0  0  0  # atno 8008 bound_to 7997
  155.6101  140.3494  155.4601 H   0  0  0  0  0  0  0  0  0  0  0  0  # atno 8009 bound_to 7997
  156.0106  140.1218  157.0447 H   0  0  0  0  0  0  0  0  0  0  0  0  # atno 8010 bound_to 7997
  139.5389  144.2418  152.0854 H   0  0  0  0  0  0  0  0  0  0  0  0  # atno 10167 bound_to 10162
  156.1265  130.6363  150.9551 H   0  0  0  0  0  0  0  0  0  0  0  0  # atno 10718 bound_to 10713
  154.4747  135.2772  155.1616 H   0  0  0  0  0  0  0  0  0  0  0  0  # atno 10763 bound_to 10752
  154.3351  135.6182  153.5573 H   0  0  0  0  0  0  0  0  0  0  0  0  # atno 10764 bound_to 10752
  152.9868  135.5775  154.5135 H   0  0  0  0  0  0  0  0  0  0  0  0  # atno 10765 bound_to 10752
  141.1662  133.7036  156.7873 H   0  0  0  0  0  0  0  0  0  0  0  0  # atno 11005 bound_to 11000
  146.3488  140.1653  142.8590 LP  0  0  0  0  0  0  0  0  0  0  0  0  # atno 17320 bound_to 7965
  145.0380  140.8923  143.5069 LP  0  0  0  0  0  0  0  0  0  0  0  0  # atno 17321 bound_to 7965
  140.1893  144.4767  150.6487 LP  0  0  0  0  0  0  0  0  0  0  0  0  # atno 17342 bound_to 10162
  140.6610  143.2252  151.5856 LP  0  0  0  0  0  0  0  0  0  0  0  0  # atno 17343 bound_to 10162
  157.6446  131.0906  150.8180 LP  0  0  0  0  0  0  0  0  0  0  0  0  # atno 17370 bound_to 10713
  156.8270  130.5003  149.5336 LP  0  0  0  0  0  0  0  0  0  0  0  0  # atno 17371 bound_to 10713
  140.2351  134.8656  157.3516 LP  0  0  0  0  0  0  0  0  0  0  0  0  # atno 17394 bound_to 11000
  140.1852  134.4440  155.7748 LP  0  0  0  0  0  0  0  0  0  0  0  0  # atno 17395 bound_to 11000

$$$$
