AV-unprocessed.smi:170|AV-procd|sdf|1412|dock7
  -GOLD-   2262019173D 1   1.00000     0.00000
 Structure written by MMmdl.
 57 61  0  0  0  0  0  0  0  0  1 V2000
  144.6209  144.0124  153.6636 O   0  0  0  0  0  0  0  0  0  0  0  0
  144.7947  143.8832  155.0626 C   0  0  2  0  0  0  0  0  0  0  0  0
  144.7751  142.4010  155.4848 C   0  0  0  0  0  0  0  0  0  0  0  0
  146.0346  141.9796  156.0720 N   0  0  0  0  0  0  0  0  0  0  0  0
  146.4468  142.1842  157.3695 C   0  0  0  0  0  0  0  0  0  0  0  0
  147.6327  141.7199  157.6567 N   0  0  0  0  0  0  0  0  0  0  0  0
  148.0685  141.1537  156.4651 C   0  0  0  0  0  0  0  0  0  0  0  0
  149.2591  140.4910  156.0661 C   0  0  0  0  0  0  0  0  0  0  0  0
  150.2795  140.2762  156.9303 N   0  0  0  0  0  0  0  0  0  0  0  0
  150.9901  139.0553  156.5652 C   0  0  0  0  0  0  0  0  0  0  0  0
  152.0346  138.7023  157.6312 C   0  0  0  0  0  0  0  0  0  0  0  0
  152.9188  139.8029  157.7876 O   0  0  0  0  0  0  0  0  0  0  0  0
  152.2395  140.9637  158.2511 C   0  0  0  0  0  0  0  0  0  0  0  0
  151.1618  141.4122  157.2345 C   0  0  2  0  0  0  0  0  0  0  0  0
  150.3734  142.6406  157.7624 C   0  0  0  0  0  0  0  0  0  0  0  0
  151.2346  143.8767  158.0164 C   0  0  0  0  0  0  0  0  0  0  0  0
  152.3139  143.8412  159.1087 C   0  0  0  0  0  0  0  0  0  0  0  0
  152.0137  145.3168  159.3877 C   0  0  0  0  0  0  0  0  0  0  0  0
  150.6403  145.0886  158.7506 C   0  0  0  0  0  0  0  0  0  0  0  0
  149.3372  140.0432  154.7842 N   0  0  0  0  0  0  0  0  0  0  0  0
  148.3211  140.2510  153.9409 C   0  0  0  0  0  0  0  0  0  0  0  0
  147.1576  140.8648  154.1697 N   0  0  0  0  0  0  0  0  0  0  0  0
  147.0738  141.3023  155.4592 C   0  0  0  0  0  0  0  0  0  0  0  0
  143.7509  144.7375  155.8107 C   0  0  1  0  0  0  0  0  0  0  0  0
  143.6899  146.2192  155.4020 C   0  0  0  0  0  0  0  0  0  0  0  0
  142.2951  146.3718  154.8260 C   0  0  0  0  0  0  0  0  0  0  0  0
  141.5201  145.2879  155.5629 C   0  0  0  0  0  0  0  0  0  0  0  0
  142.4407  144.2098  155.6144 O   0  0  0  0  0  0  0  0  0  0  0  0
  144.0279  143.3356  153.3739 H   0  0  0  0  0  0  0  0  0  0  0  0
  145.7815  144.2899  155.2879 H   0  0  0  0  0  0  0  0  0  0  0  0
  143.9828  142.2274  156.2139 H   0  0  0  0  0  0  0  0  0  0  0  0
  144.5578  141.7590  154.6302 H   0  0  0  0  0  0  0  0  0  0  0  0
  145.8377  142.6976  158.0994 H   0  0  0  0  0  0  0  0  0  0  0  0
  150.2878  138.2275  156.4542 H   0  0  0  0  0  0  0  0  0  0  0  0
  151.4790  139.1943  155.5995 H   0  0  0  0  0  0  0  0  0  0  0  0
  151.5588  138.4574  158.5822 H   0  0  0  0  0  0  0  0  0  0  0  0
  152.6058  137.8267  157.3228 H   0  0  0  0  0  0  0  0  0  0  0  0
  151.7962  140.7673  159.2290 H   0  0  0  0  0  0  0  0  0  0  0  0
  152.9858  141.7447  158.3926 H   0  0  0  0  0  0  0  0  0  0  0  0
  151.6722  141.6938  156.3122 H   0  0  0  0  0  0  0  0  0  0  0  0
  149.5882  142.9117  157.0574 H   0  0  0  0  0  0  0  0  0  0  0  0
  149.8536  142.3650  158.6806 H   0  0  0  0  0  0  0  0  0  0  0  0
  151.7019  144.2231  157.0926 H   0  0  0  0  0  0  0  0  0  0  0  0
  152.0507  143.1941  159.9472 H   0  0  0  0  0  0  0  0  0  0  0  0
  153.3229  143.6402  158.7476 H   0  0  0  0  0  0  0  0  0  0  0  0
  151.9895  145.5874  160.4436 H   0  0  0  0  0  0  0  0  0  0  0  0
  152.6426  145.9943  158.8078 H   0  0  0  0  0  0  0  0  0  0  0  0
  150.2971  145.8929  158.0990 H   0  0  0  0  0  0  0  0  0  0  0  0
  149.8784  144.8097  159.4805 H   0  0  0  0  0  0  0  0  0  0  0  0
  148.4599  139.8700  152.9398 H   0  0  0  0  0  0  0  0  0  0  0  0
  143.9607  144.6858  156.8802 H   0  0  0  0  0  0  0  0  0  0  0  0
  143.7978  146.8496  156.2858 H   0  0  0  0  0  0  0  0  0  0  0  0
  144.4656  146.5131  154.6942 H   0  0  0  0  0  0  0  0  0  0  0  0
  141.8784  147.3689  154.9701 H   0  0  0  0  0  0  0  0  0  0  0  0
  142.3076  146.1566  153.7566 H   0  0  0  0  0  0  0  0  0  0  0  0
  141.2729  145.6066  156.5769 H   0  0  0  0  0  0  0  0  0  0  0  0
  140.5982  145.0060  155.0538 H   0  0  0  0  0  0  0  0  0  0  0  0
  1  2  1  0  0  0  0
  1 29  1  0  0  0  0
  2  3  1  0  0  0  0
  2 24  1  0  0  0  0
  2 30  1  0  0  0  0
  3  4  1  0  0  0  0
  3 31  1  0  0  0  0
  3 32  1  0  0  0  0
  4 23  1  0  0  0  0
  4  5  1  0  0  0  0
  5  6  2  0  0  0  0
  5 33  1  0  0  0  0
  6  7  1  0  0  0  0
  7 23  2  0  0  0  0
  7  8  1  0  0  0  0
  8  9  1  0  0  0  0
  8 20  2  0  0  0  0
  9 14  1  0  0  0  0
  9 10  1  0  0  0  0
 10 11  1  0  0  0  0
 10 34  1  0  0  0  0
 10 35  1  0  0  0  0
 11 12  1  0  0  0  0
 11 36  1  0  0  0  0
 11 37  1  0  0  0  0
 12 13  1  0  0  0  0
 13 14  1  0  0  0  0
 13 38  1  0  0  0  0
 13 39  1  0  0  0  0
 14 15  1  0  0  0  0
 14 40  1  0  0  0  0
 15 16  1  0  0  0  0
 15 41  1  0  0  0  0
 15 42  1  0  0  0  0
 16 19  1  0  0  0  0
 16 17  1  0  0  0  0
 16 43  1  0  0  0  0
 17 18  1  0  0  0  0
 17 44  1  0  0  0  0
 17 45  1  0  0  0  0
 18 19  1  0  0  0  0
 18 46  1  0  0  0  0
 18 47  1  0  0  0  0
 19 48  1  0  0  0  0
 19 49  1  0  0  0  0
 20 21  1  0  0  0  0
 21 22  2  0  0  0  0
 21 50  1  0  0  0  0
 22 23  1  0  0  0  0
 24 28  1  0  0  0  0
 24 25  1  0  0  0  0
 24 51  1  0  0  0  0
 25 26  1  0  0  0  0
 25 52  1  0  0  0  0
 25 53  1  0  0  0  0
 26 27  1  0  0  0  0
 26 54  1  0  0  0  0
 26 55  1  0  0  0  0
 27 28  1  0  0  0  0
 27 56  1  0  0  0  0
 27 57  1  0  0  0  0
M  END
> <s_m_source_file>
AV-unprocessed.smi

> <i_m_source_file_index>
170

> <i_lp_mmshare_version>
43012

> <i_f3d_flags>
0

> <s_epik_input>
TzFbQ0gyXVtDSDJdW0NIMl1bQ0BIXTFbQ0BIXShbT0hdKVtDSDJdbihbY0hdbjIpYyhjMjMpbltjSF1uYzNONFtDSDJdW0NIMl1PW0NIMl1bQ0BIXTRbQ0gyXVtDSF01W0NIMl1bQ0gyXVtDSDJdNQ==

> <s_epik_cmdline>
J2VwaWtfcHl0aG9uJywgJy1waCcsICc3LjAnLCAnLXRuJywgJzgnLCAnLW1hJywgJzIwMCcsICctbWV0YWxfYmluZGluZycsICctaW1hZScsICc8aW5maWxlLm1hZT4nLCAnLW9tYWUnLCAnPG91dGZpbGUubWFlPic=

> <r_lp_tautomer_probability>
1

> <r_epik_Ionization_Penalty>
4.98275e-05

> <r_epik_Ionization_Penalty_Charging>
0

> <r_epik_Ionization_Penalty_Neutral>
4.98275e-05

> <r_epik_State_Penalty>
-0

> <r_epik_Charging_Adjusted_Penalty>
0

> <i_epik_Tot_Q>
0

> <i_epik_Tot_abs_Q>
0

> <r_epik_Metal_State_Penalty>
-0

> <b_epik_Metal_Only>
0

> <s_lp_Force_Field>
OPLS_2005

> <r_lp_Energy>
52.9545

> <b_lp_Chiralities_Consistent>
1

> <s_lp_Variant>
AV-unprocessed.smi:170-7

> <Gold.Version>
5.8.1

> <Gold.Id.Protein>
6NUR|6NUR_protein|mol2

> <Gold.PLP.Fitness>
47.8888

> <Gold.PLP.PLP>
-42.2776

> <Gold.PLP.part.hbond>
-2.0000

> <Gold.PLP.part.metal>
0.0000

> <Gold.PLP.part.buried>
-6.5904

> <Gold.PLP.part.nonpolar>
-35.3877

> <Gold.PLP.part.repulsive>
0.4066

> <Gold.PLP.ligand.clash>
0.0000

> <Gold.PLP.ligand.torsion>
1.7163

> <Gold.PLP.Chemscore.Hbond>
1.9100

> <Gold.PLP.Chemscore.CHOScore>
1.0000

> <Gold.PLP.Chemscore.Metal>
0.0000

> <Gold.Chemscore.Hbonds>
donor molecule, donor type, donor heavy atom, donor atom, acceptor molecule, acceptor atom, score
      L1  H     1    29       P1 10174  0.95
      P1  H  7997  8009       L1    12  1.00
      L1  C    21    50       P1  7957  1.00

> <Gold.PLP.Chemscore.Internal.Correction>
0.3138

> <Gold.Rescore>
     Score         DG    S(hbond)    S(metal)    S(lipo)     H(rot)  DE(clash)    DE(int)     intcor
     11.87     -15.93       0.94        0.00     119.78       2.61       0.30       3.76       ----

> <Gold.Chemscore.Fitness>
11.8699

> <Gold.Chemscore.DG>
-15.9299

> <Gold.Chemscore.ZeroCoef>
-5.4800

> <Gold.Chemscore.Hbond>
0.9368

> <Gold.Chemscore.Metal>
0.0000

> <Gold.Chemscore.Lipo>
119.7777

> <Gold.Chemscore.Internal_Hbond>
0.0000

> <Gold.Chemscore.DEClash>
0.3033

> <Gold.Chemscore.DEInternal>
3.7566

> <Gold.Chemscore.Rot>
2.6144

> <Gold.Chemscore.Internal.Correction>
   9.000000E+99

> <Gold.Chemscore.Hbonds>
donor molecule, donor type, donor heavy atom, donor atom, acceptor molecule, acceptor atom, score
      L1  H     1    29       P1 10174  0.20
      P1  H  7997  8009       L1    12  0.93

> <Gold.Chemscore.Hbond.Weighted>
-3.1289

> <Gold.Chemscore.Metal.Weighted>
-0.0000

> <Gold.Chemscore.Lipo.Weighted>
-14.0140

> <Gold.Chemscore.Internal_Hbond.Weighted>
0.0000

> <Gold.Chemscore.DEClash.Weighted>
0.3033

> <Gold.Chemscore.DEInternal.Weighted>
3.7566

> <Gold.Chemscore.Rot.Weighted>
6.6929

> <Gold.Chemscore.Internal.Correction.Weighted>
   9.000000E+99

> <Gold.Protein.RotatedTorsions>
[ 6907 6896 6895 6894 ] final  140.30 input  -60.11 | X-H torsion
[ 7974 7965 7964 7962 ] final  -48.45 input  175.53 | X-H torsion
[ 8008 7997 7996 7995 ] final  154.08 input   59.86 | X-H torsion
[ 10167 10162 10161 10158 ] final   81.62 input  -65.29 | X-H torsion
[ 10718 10713 10712 10709 ] final   70.46 input   66.30 | X-H torsion
[ 10763 10752 10751 10750 ] final   24.63 input  -60.55 | X-H torsion
[ 11005 11000 10999 10996 ] final -110.17 input  -57.11 | X-H torsion

> <Gold.Protein.ActiveResidues>
 VAL166  LYS551  ARG553  GLY616  TRP617  ASP618  TYR619  PRO620  LYS621  CYS622 
 ASP623  PHE694  ASN695  SER759  ASP760  ASP761  ALA762  ILE779  LEU786  VAL792 
 PHE793  MET794  SER795  GLU796  ALA797  LYS798  CYS799  TRP800  GLU811  SER814 

> <Gold.Protein.RotatedAtoms>
  152.2447  133.5164  159.5290 H   0  0  0  0  0  0  0  0  0  0  0  0  # atno 6907 bound_to 6896
  150.7075  134.1041  159.3985 H   0  0  0  0  0  0  0  0  0  0  0  0  # atno 6908 bound_to 6896
  151.8962  135.0397  160.0553 H   0  0  0  0  0  0  0  0  0  0  0  0  # atno 6909 bound_to 6896
  145.9510  140.7572  142.9505 H   0  0  0  0  0  0  0  0  0  0  0  0  # atno 7974 bound_to 7965
  156.2550  140.1976  156.6590 H   0  0  0  0  0  0  0  0  0  0  0  0  # atno 8008 bound_to 7997
  154.6479  140.0575  156.9947 H   0  0  0  0  0  0  0  0  0  0  0  0  # atno 8009 bound_to 7997
  155.1463  140.3247  155.4444 H   0  0  0  0  0  0  0  0  0  0  0  0  # atno 8010 bound_to 7997
  139.9373  144.6113  150.8286 H   0  0  0  0  0  0  0  0  0  0  0  0  # atno 10167 bound_to 10162
  157.6401  130.9478  150.0653 H   0  0  0  0  0  0  0  0  0  0  0  0  # atno 10718 bound_to 10713
  153.0750  135.6601  154.0166 H   0  0  0  0  0  0  0  0  0  0  0  0  # atno 10763 bound_to 10752
  153.9802  135.2956  155.3422 H   0  0  0  0  0  0  0  0  0  0  0  0  # atno 10764 bound_to 10752
  154.7135  135.5195  153.8773 H   0  0  0  0  0  0  0  0  0  0  0  0  # atno 10765 bound_to 10752
  141.0806  133.9225  157.2296 H   0  0  0  0  0  0  0  0  0  0  0  0  # atno 11005 bound_to 11000
  144.6796  140.2434  143.7341 LP  0  0  0  0  0  0  0  0  0  0  0  0  # atno 17320 bound_to 7965
  145.8171  139.2028  143.1959 LP  0  0  0  0  0  0  0  0  0  0  0  0  # atno 17321 bound_to 7965
  140.7621  143.3189  151.2667 LP  0  0  0  0  0  0  0  0  0  0  0  0  # atno 17342 bound_to 10162
  139.6733  143.9982  152.2766 LP  0  0  0  0  0  0  0  0  0  0  0  0  # atno 17343 bound_to 10162
  156.1673  130.3645  149.9214 LP  0  0  0  0  0  0  0  0  0  0  0  0  # atno 17370 bound_to 10713
  156.7197  130.9002  151.3617 LP  0  0  0  0  0  0  0  0  0  0  0  0  # atno 17371 bound_to 10713
  139.9620  135.0151  156.9287 LP  0  0  0  0  0  0  0  0  0  0  0  0  # atno 17394 bound_to 11000
  140.5476  134.0659  155.7359 LP  0  0  0  0  0  0  0  0  0  0  0  0  # atno 17395 bound_to 11000

$$$$
