AV-unprocessed.smi:109|AV-procd|sdf|1053|dock3
  -GOLD-   2262018113D 1   1.00000     0.00000
 Structure written by MMmdl.
 58 61  0  0  0  0  0  0  0  0  1 V2000
  150.5064  136.9670  159.2188 O   0  0  0  0  0  0  0  0  0  0  0  0
  149.9761  137.1409  157.9226 C   0  0  0  0  0  0  0  0  0  0  0  0
  148.4484  136.9624  157.9537 C   0  0  0  0  0  0  0  0  0  0  0  0
  147.9789  135.5722  158.4503 C   0  0  2  0  0  0  0  0  0  0  0  0
  147.0315  135.0028  157.4895 N   0  0  0  0  0  0  0  0  0  0  0  0
  147.3898  134.6672  156.2299 C   0  0  0  0  0  0  0  0  0  0  0  0
  148.5435  133.9978  155.9713 N   0  0  0  0  0  0  0  0  0  0  0  0
  148.8729  133.6905  154.7128 C   0  0  0  0  0  0  0  0  0  0  0  0
  148.2039  133.9524  153.5874 N   0  0  0  0  0  0  0  0  0  0  0  0
  147.0434  134.6217  153.8445 C   0  0  0  0  0  0  0  0  0  0  0  0
  146.5686  135.0129  155.1263 C   0  0  0  0  0  0  0  0  0  0  0  0
  145.3558  135.6774  154.9954 N   0  0  0  0  0  0  0  0  0  0  0  0
  145.1321  135.6764  153.7084 C   0  0  0  0  0  0  0  0  0  0  0  0
  146.1023  135.0643  152.9426 N   0  0  0  0  0  0  0  0  0  0  0  0
  146.1724  134.8956  151.4601 C   0  0  1  0  0  0  0  0  0  0  0  0
  146.0746  133.5291  151.1853 O   0  0  0  0  0  0  0  0  0  0  0  0
  144.9673  133.2650  150.3311 C   0  0  1  0  0  0  0  0  0  0  0  0
  144.3990  131.8565  150.5791 C   0  0  0  0  0  0  0  0  0  0  0  0
  143.1634  131.7029  149.9141 O   0  0  0  0  0  0  0  0  0  0  0  0
  144.0133  134.4513  150.5287 C   0  0  1  0  0  0  0  0  0  0  0  0
  143.1465  134.2544  151.6307 O   0  0  0  0  0  0  0  0  0  0  0  0
  144.9716  135.6000  150.8070 C   0  0  2  0  0  0  0  0  0  0  0  0
  145.3499  136.2478  149.6092 O   0  0  0  0  0  0  0  0  0  0  0  0
  147.3205  135.6016  159.8597 C   0  0  0  0  0  0  0  0  0  0  0  0
  147.9992  136.5961  160.8349 C   0  0  0  0  0  0  0  0  0  0  0  0
  147.3609  136.5763  162.2336 C   0  0  0  0  0  0  0  0  0  0  0  0
  147.3700  135.1660  162.8350 C   0  0  0  0  0  0  0  0  0  0  0  0
  146.6724  134.1761  161.8948 C   0  0  0  0  0  0  0  0  0  0  0  0
  147.3164  134.1893  160.4998 C   0  0  0  0  0  0  0  0  0  0  0  0
  147.1460  135.3018  151.1817 H   0  0  0  0  0  0  0  0  0  0  0  0
  145.3591  133.3118  149.3132 H   0  0  0  0  0  0  0  0  0  0  0  0
  143.3955  134.6258  149.6466 H   0  0  0  0  0  0  0  0  0  0  0  0
  144.5443  136.3543  151.4704 H   0  0  0  0  0  0  0  0  0  0  0  0
  150.0675  137.5632  159.8059 H   0  0  0  0  0  0  0  0  0  0  0  0
  150.2518  138.1338  157.5675 H   0  0  0  0  0  0  0  0  0  0  0  0
  150.4349  136.4128  157.2531 H   0  0  0  0  0  0  0  0  0  0  0  0
  148.0583  137.7386  158.6102 H   0  0  0  0  0  0  0  0  0  0  0  0
  148.0347  137.1587  156.9636 H   0  0  0  0  0  0  0  0  0  0  0  0
  148.8625  134.9400  158.5368 H   0  0  0  0  0  0  0  0  0  0  0  0
  146.0894  134.8822  157.8331 H   0  0  0  0  0  0  0  0  0  0  0  0
  149.8062  133.1609  154.5901 H   0  0  0  0  0  0  0  0  0  0  0  0
  144.2486  136.1304  153.2837 H   0  0  0  0  0  0  0  0  0  0  0  0
  145.0880  131.1064  150.1905 H   0  0  0  0  0  0  0  0  0  0  0  0
  144.2769  131.6515  151.6427 H   0  0  0  0  0  0  0  0  0  0  0  0
  142.5902  132.4065  150.1779 H   0  0  0  0  0  0  0  0  0  0  0  0
  142.2547  134.2861  151.3198 H   0  0  0  0  0  0  0  0  0  0  0  0
  144.7518  136.9624  149.4520 H   0  0  0  0  0  0  0  0  0  0  0  0
  146.2831  135.9182  159.7395 H   0  0  0  0  0  0  0  0  0  0  0  0
  149.0627  136.3669  160.9146 H   0  0  0  0  0  0  0  0  0  0  0  0
  147.9265  137.6161  160.4612 H   0  0  0  0  0  0  0  0  0  0  0  0
  147.8914  137.2638  162.8930 H   0  0  0  0  0  0  0  0  0  0  0  0
  146.3343  136.9396  162.1713 H   0  0  0  0  0  0  0  0  0  0  0  0
  148.3982  134.8468  163.0095 H   0  0  0  0  0  0  0  0  0  0  0  0
  146.8760  135.1708  163.8069 H   0  0  0  0  0  0  0  0  0  0  0  0
  146.7174  133.1711  162.3151 H   0  0  0  0  0  0  0  0  0  0  0  0
  145.6150  134.4300  161.8126 H   0  0  0  0  0  0  0  0  0  0  0  0
  146.7802  133.4796  159.8695 H   0  0  0  0  0  0  0  0  0  0  0  0
  148.3397  133.8178  160.5713 H   0  0  0  0  0  0  0  0  0  0  0  0
  1  2  1  0  0  0  0
  1 34  1  0  0  0  0
  2  3  1  0  0  0  0
  2 35  1  0  0  0  0
  2 36  1  0  0  0  0
  3  4  1  0  0  0  0
  3 37  1  0  0  0  0
  3 38  1  0  0  0  0
  4  5  1  0  0  0  0
  4 24  1  0  0  0  0
  4 39  1  0  0  0  0
  5  6  1  0  0  0  0
  5 40  1  0  0  0  0
  6 11  1  0  0  0  0
  6  7  2  0  0  0  0
  7  8  1  0  0  0  0
  8  9  2  0  0  0  0
  8 41  1  0  0  0  0
  9 10  1  0  0  0  0
 10 14  1  0  0  0  0
 10 11  2  0  0  0  0
 11 12  1  0  0  0  0
 12 13  2  0  0  0  0
 13 14  1  0  0  0  0
 13 42  1  0  0  0  0
 14 15  1  0  0  0  0
 15 30  1  0  0  0  0
 15 22  1  0  0  0  0
 15 16  1  0  0  0  0
 16 17  1  0  0  0  0
 17 31  1  0  0  0  0
 17 18  1  0  0  0  0
 17 20  1  0  0  0  0
 18 19  1  0  0  0  0
 18 43  1  0  0  0  0
 18 44  1  0  0  0  0
 19 45  1  0  0  0  0
 20 32  1  0  0  0  0
 20 21  1  0  0  0  0
 20 22  1  0  0  0  0
 21 46  1  0  0  0  0
 22 33  1  0  0  0  0
 22 23  1  0  0  0  0
 23 47  1  0  0  0  0
 24 29  1  0  0  0  0
 24 25  1  0  0  0  0
 24 48  1  0  0  0  0
 25 26  1  0  0  0  0
 25 49  1  0  0  0  0
 25 50  1  0  0  0  0
 26 27  1  0  0  0  0
 26 51  1  0  0  0  0
 26 52  1  0  0  0  0
 27 28  1  0  0  0  0
 27 53  1  0  0  0  0
 27 54  1  0  0  0  0
 28 29  1  0  0  0  0
 28 55  1  0  0  0  0
 28 56  1  0  0  0  0
 29 57  1  0  0  0  0
 29 58  1  0  0  0  0
M  END
> <s_m_source_file>
AV-unprocessed.smi

> <i_m_source_file_index>
109

> <i_lp_mmshare_version>
43012

> <i_f3d_flags>
0

> <s_epik_input>
W0NIMl0xW0NIMl1bQ0gyXVtDSDJdW0NIMl1bQ0hdMVtDQEhdKFtDSDJdW0NIMl1bT0hdKVtOSF1jKG5bY0hdbjIpYyhjMjMpbltjSF1uM1tDQEBIXTRPW0NASF0oW0NIMl1bT0hdKVtDQEBIXShbT0hdKVtDQEhdNFtPSF0=

> <s_epik_cmdline>
J2VwaWtfcHl0aG9uJywgJy1waCcsICc3LjAnLCAnLXRuJywgJzgnLCAnLW1hJywgJzIwMCcsICctbWV0YWxfYmluZGluZycsICctaW1hZScsICc8aW5maWxlLm1hZT4nLCAnLW9tYWUnLCAnPG91dGZpbGUubWFlPic=

> <r_lp_tautomer_probability>
1

> <r_epik_Ionization_Penalty>
0.000793976

> <r_epik_Ionization_Penalty_Charging>
0

> <r_epik_Ionization_Penalty_Neutral>
0.000793976

> <r_epik_State_Penalty>
-0

> <r_epik_Charging_Adjusted_Penalty>
0

> <i_epik_Tot_Q>
0

> <i_epik_Tot_abs_Q>
0

> <r_epik_Metal_State_Penalty>
-0

> <b_epik_Metal_Only>
0

> <s_epik_Chemistry_Notes>
This compound contains an acetal/aminal-like group ( X-CH(R)-Y where X, Y are N, S, or O) that may be acid/base labile, releasing an aldehyde.

> <s_lp_Force_Field>
OPLS_2005

> <r_lp_Energy>
46.6527

> <b_lp_Chiralities_Consistent>
1

> <s_lp_Variant>
AV-unprocessed.smi:109-23

> <Gold.Version>
5.8.1

> <Gold.Id.Protein>
6NUR|6NUR_protein|mol2

> <Gold.PLP.Fitness>
51.0235

> <Gold.PLP.PLP>
-43.7306

> <Gold.PLP.part.hbond>
-6.0000

> <Gold.PLP.part.metal>
0.0000

> <Gold.PLP.part.buried>
-5.7383

> <Gold.PLP.part.nonpolar>
-31.8858

> <Gold.PLP.part.repulsive>
1.4027

> <Gold.PLP.ligand.clash>
0.0000

> <Gold.PLP.ligand.torsion>
1.6035

> <Gold.PLP.Chemscore.Hbond>
3.4434

> <Gold.PLP.Chemscore.CHOScore>
0.0000

> <Gold.PLP.Chemscore.Metal>
0.0000

> <Gold.Chemscore.Hbonds>
donor molecule, donor type, donor heavy atom, donor atom, acceptor molecule, acceptor atom, score
      L1  H    21    46       P1 10186  0.35
      L1  H    23    47       P1 10171  1.00
      P1  H  6896  6908       L1     1  0.78
      P1  H 10785 10796       L1    19  1.00

> <Gold.PLP.Chemscore.Internal.Correction>
0.1698

> <Gold.Rescore>
     Score         DG    S(hbond)    S(metal)    S(lipo)     H(rot)  DE(clash)    DE(int)     intcor
      9.13     -11.02       2.95        0.00      82.89       5.47       0.04       1.86       ----

> <Gold.Chemscore.Fitness>
9.1252

> <Gold.Chemscore.DG>
-11.0244

> <Gold.Chemscore.ZeroCoef>
-5.4800

> <Gold.Chemscore.Hbond>
2.9461

> <Gold.Chemscore.Metal>
0.0000

> <Gold.Chemscore.Lipo>
82.8882

> <Gold.Chemscore.Internal_Hbond>
0.0000

> <Gold.Chemscore.DEClash>
0.0430

> <Gold.Chemscore.DEInternal>
1.8563

> <Gold.Chemscore.Rot>
5.4662

> <Gold.Chemscore.Internal.Correction>
   9.000000E+99

> <Gold.Chemscore.Hbonds>
donor molecule, donor type, donor heavy atom, donor atom, acceptor molecule, acceptor atom, score
      L1  H    21    46       P1 10186  0.02
      L1  H    23    47       P1 10171  0.99
      P1  H  6896  6908       L1     1  0.74
      P1  H 10785 10796       L1    19  0.77

> <Gold.Chemscore.Hbond.Weighted>
-9.8400

> <Gold.Chemscore.Metal.Weighted>
-0.0000

> <Gold.Chemscore.Lipo.Weighted>
-9.6979

> <Gold.Chemscore.Internal_Hbond.Weighted>
0.0000

> <Gold.Chemscore.DEClash.Weighted>
0.0430

> <Gold.Chemscore.DEInternal.Weighted>
1.8563

> <Gold.Chemscore.Rot.Weighted>
13.9935

> <Gold.Chemscore.Internal.Correction.Weighted>
   9.000000E+99

> <Gold.Protein.RotatedTorsions>
[ 6907 6896 6895 6894 ] final -132.52 input  -60.11 | X-H torsion
[ 7974 7965 7964 7962 ] final -138.09 input  175.53 | X-H torsion
[ 8008 7997 7996 7995 ] final  -39.84 input   59.86 | X-H torsion
[ 10167 10162 10161 10158 ] final  -55.96 input  -65.29 | X-H torsion
[ 10718 10713 10712 10709 ] final  -18.44 input   66.30 | X-H torsion
[ 10763 10752 10751 10750 ] final    7.19 input  -60.55 | X-H torsion
[ 11005 11000 10999 10996 ] final  -83.94 input  -57.11 | X-H torsion

> <Gold.Protein.ActiveResidues>
 VAL166  LYS551  ARG553  GLY616  TRP617  ASP618  TYR619  PRO620  LYS621  CYS622 
 ASP623  PHE694  ASN695  SER759  ASP760  ASP761  ALA762  ILE779  LEU786  VAL792 
 PHE793  MET794  SER795  GLU796  ALA797  LYS798  CYS799  TRP800  GLU811  SER814 

> <Gold.Protein.RotatedAtoms>
  150.9633  133.6422  159.2750 H   0  0  0  0  0  0  0  0  0  0  0  0  # atno 6907 bound_to 6896
  151.3736  135.0926  159.9483 H   0  0  0  0  0  0  0  0  0  0  0  0  # atno 6908 bound_to 6896
  152.5156  133.9182  159.7576 H   0  0  0  0  0  0  0  0  0  0  0  0  # atno 6909 bound_to 6896
  144.8787  140.6476  143.5220 H   0  0  0  0  0  0  0  0  0  0  0  0  # atno 7974 bound_to 7965
  154.4018  140.1541  156.2928 H   0  0  0  0  0  0  0  0  0  0  0  0  # atno 8008 bound_to 7997
  155.8770  140.3446  155.5839 H   0  0  0  0  0  0  0  0  0  0  0  0  # atno 8009 bound_to 7997
  155.7710  140.0830  157.2098 H   0  0  0  0  0  0  0  0  0  0  0  0  # atno 8010 bound_to 7997
  140.6345  143.2475  151.5155 H   0  0  0  0  0  0  0  0  0  0  0  0  # atno 10167 bound_to 10162
  156.5595  130.4722  149.6413 H   0  0  0  0  0  0  0  0  0  0  0  0  # atno 10718 bound_to 10713
  153.2391  135.6901  153.7803 H   0  0  0  0  0  0  0  0  0  0  0  0  # atno 10763 bound_to 10752
  153.6939  135.3308  155.3209 H   0  0  0  0  0  0  0  0  0  0  0  0  # atno 10764 bound_to 10752
  154.8348  135.4552  154.1306 H   0  0  0  0  0  0  0  0  0  0  0  0  # atno 10765 bound_to 10752
  141.1654  133.7320  156.8795 H   0  0  0  0  0  0  0  0  0  0  0  0  # atno 11005 bound_to 11000
  145.3994  139.1600  143.4186 LP  0  0  0  0  0  0  0  0  0  0  0  0  # atno 17320 bound_to 7965
  146.2980  140.4089  142.8714 LP  0  0  0  0  0  0  0  0  0  0  0  0  # atno 17321 bound_to 7965
  139.5556  144.2284  152.1606 LP  0  0  0  0  0  0  0  0  0  0  0  0  # atno 17342 bound_to 10162
  140.1536  144.5091  150.6673 LP  0  0  0  0  0  0  0  0  0  0  0  0  # atno 17343 bound_to 10162
  156.2811  130.7071  151.1896 LP  0  0  0  0  0  0  0  0  0  0  0  0  # atno 17370 bound_to 10713
  157.7371  131.0555  150.5373 LP  0  0  0  0  0  0  0  0  0  0  0  0  # atno 17371 bound_to 10713
  140.1725  134.9090  157.2850 LP  0  0  0  0  0  0  0  0  0  0  0  0  # atno 17394 bound_to 11000
  140.2486  134.3710  155.7451 LP  0  0  0  0  0  0  0  0  0  0  0  0  # atno 17395 bound_to 11000

$$$$
