AV-unprocessed.smi:1911|AV-procd|sdf|7744|dock5
  -GOLD-   22720 9483D 1   1.00000     0.00000
 Structure written by MMmdl.
 51 53  0  0  0  0  0  0  0  0  3 V2000
  142.7915  132.1309  149.4855 N   0  5  0  0  0  0  0  0  0  0  0  0
  143.5600  132.1896  150.5919 C   0  0  0  0  0  0  0  0  0  0  0  0
  144.5085  131.4683  150.8919 O   0  0  0  0  0  0  0  0  0  0  0  0
  143.1360  133.3183  151.5382 C   0  0  0  0  0  0  0  0  0  0  0  0
  144.2646  134.2515  151.7869 N   0  3  2  0  0  0  0  0  0  0  0  0
  143.9902  135.1837  152.9092 C   0  0  0  0  0  0  0  0  0  0  0  0
  145.2263  136.0374  153.2389 C   0  0  0  0  0  0  0  0  0  0  0  0
  145.7096  136.8107  152.0022 C   0  0  1  0  0  0  0  0  0  0  0  0
  146.9236  137.5566  152.3228 N   0  0  0  0  0  0  0  0  0  0  0  0
  147.0622  138.3926  153.3620 C   0  0  0  0  0  0  0  0  0  0  0  0
  146.1549  138.6442  154.1549 O   0  0  0  0  0  0  0  0  0  0  0  0
  148.2973  138.9216  153.4013 N   0  0  0  0  0  0  0  0  0  0  0  0
  148.8539  139.7902  154.3790 C   0  0  0  0  0  0  0  0  0  0  0  0
  150.1946  139.5895  154.7608 C   0  0  0  0  0  0  0  0  0  0  0  0
  150.7639  140.4217  155.7433 C   0  0  0  0  0  0  0  0  0  0  0  0
  149.9697  141.4360  156.3289 C   0  0  0  0  0  0  0  0  0  0  0  0
  150.4914  142.2887  157.3218 N   0  0  0  0  0  0  0  0  0  0  0  0
  151.8145  142.8828  157.2265 C   0  0  0  0  0  0  0  0  0  0  0  0
  151.9159  143.8008  158.4445 C   0  0  0  0  0  0  0  0  0  0  0  0
  150.4723  144.2542  158.6629 C   0  0  0  0  0  0  0  0  0  0  0  0
  149.6352  143.0478  158.2243 C   0  0  0  0  0  0  0  0  0  0  0  0
  148.6755  141.6178  155.9755 N   0  0  0  0  0  0  0  0  0  0  0  0
  148.1342  140.8192  155.0317 C   0  0  0  0  0  0  0  0  0  0  0  0
  145.9591  135.8261  150.8461 C   0  0  0  0  0  0  0  0  0  0  0  0
  144.7098  134.9744  150.5650 C   0  0  0  0  0  0  0  0  0  0  0  0
  141.9820  132.7592  149.4151 H   0  0  0  0  0  0  0  0  0  0  0  0
  142.2772  133.8578  151.1355 H   0  0  0  0  0  0  0  0  0  0  0  0
  142.8056  132.8622  152.4731 H   0  0  0  0  0  0  0  0  0  0  0  0
  143.1454  135.8248  152.6524 H   0  0  0  0  0  0  0  0  0  0  0  0
  143.7017  134.6170  153.7953 H   0  0  0  0  0  0  0  0  0  0  0  0
  144.9894  136.7312  154.0462 H   0  0  0  0  0  0  0  0  0  0  0  0
  146.0234  135.3910  153.6094 H   0  0  0  0  0  0  0  0  0  0  0  0
  144.9235  137.5101  151.7105 H   0  0  0  0  0  0  0  0  0  0  0  0
  147.7184  137.4172  151.7158 H   0  0  0  0  0  0  0  0  0  0  0  0
  148.9027  138.7002  152.6245 H   0  0  0  0  0  0  0  0  0  0  0  0
  150.7858  138.8082  154.3059 H   0  0  0  0  0  0  0  0  0  0  0  0
  151.7927  140.2679  156.0318 H   0  0  0  0  0  0  0  0  0  0  0  0
  152.5996  142.1261  157.2303 H   0  0  0  0  0  0  0  0  0  0  0  0
  151.8882  143.4576  156.3021 H   0  0  0  0  0  0  0  0  0  0  0  0
  152.2550  143.2297  159.3097 H   0  0  0  0  0  0  0  0  0  0  0  0
  152.6076  144.6300  158.2947 H   0  0  0  0  0  0  0  0  0  0  0  0
  150.2710  144.5583  159.6903 H   0  0  0  0  0  0  0  0  0  0  0  0
  150.2564  145.1038  158.0139 H   0  0  0  0  0  0  0  0  0  0  0  0
  148.7069  143.3674  157.7491 H   0  0  0  0  0  0  0  0  0  0  0  0
  149.3832  142.4197  159.0794 H   0  0  0  0  0  0  0  0  0  0  0  0
  147.0929  141.0098  154.8251 H   0  0  0  0  0  0  0  0  0  0  0  0
  146.2430  136.3681  149.9432 H   0  0  0  0  0  0  0  0  0  0  0  0
  146.7969  135.1706  151.0894 H   0  0  0  0  0  0  0  0  0  0  0  0
  144.9350  134.2643  149.7688 H   0  0  0  0  0  0  0  0  0  0  0  0
  143.8995  135.6080  150.2012 H   0  0  0  0  0  0  0  0  0  0  0  0
  145.0331  133.6649  152.0818 H   0  0  0  0  0  0  0  0  0  0  0  0
  1  2  1  0  0  0  0
  1 26  1  0  0  0  0
  2  3  2  0  0  0  0
  2  4  1  0  0  0  0
  4  5  1  0  0  0  0
  4 27  1  0  0  0  0
  4 28  1  0  0  0  0
  5 25  1  0  0  0  0
  5  6  1  0  0  0  0
  5 51  1  0  0  0  0
  6  7  1  0  0  0  0
  6 29  1  0  0  0  0
  6 30  1  0  0  0  0
  7  8  1  0  0  0  0
  7 31  1  0  0  0  0
  7 32  1  0  0  0  0
  8  9  1  0  0  0  0
  8 24  1  0  0  0  0
  8 33  1  0  0  0  0
  9 10  1  0  0  0  0
  9 34  1  0  0  0  0
 10 11  2  0  0  0  0
 10 12  1  0  0  0  0
 12 13  1  0  0  0  0
 12 35  1  0  0  0  0
 13 23  1  0  0  0  0
 13 14  2  0  0  0  0
 14 15  1  0  0  0  0
 14 36  1  0  0  0  0
 15 16  2  0  0  0  0
 15 37  1  0  0  0  0
 16 17  1  0  0  0  0
 16 22  1  0  0  0  0
 17 21  1  0  0  0  0
 17 18  1  0  0  0  0
 18 19  1  0  0  0  0
 18 38  1  0  0  0  0
 18 39  1  0  0  0  0
 19 20  1  0  0  0  0
 19 40  1  0  0  0  0
 19 41  1  0  0  0  0
 20 21  1  0  0  0  0
 20 42  1  0  0  0  0
 20 43  1  0  0  0  0
 21 44  1  0  0  0  0
 21 45  1  0  0  0  0
 22 23  2  0  0  0  0
 23 46  1  0  0  0  0
 24 25  1  0  0  0  0
 24 47  1  0  0  0  0
 24 48  1  0  0  0  0
 25 49  1  0  0  0  0
 25 50  1  0  0  0  0
M  CHG  1   1  -1
M  CHG  1   5   1
M  END
> <s_m_source_file>
AV-unprocessed.smi

> <i_m_source_file_index>
1911

> <i_lp_mmshare_version>
43012

> <i_f3d_flags>
0

> <s_epik_input>
W05IMl1DKD1PKVtDSDJdTjFbQ0gyXVtDSDJdW0NIXShbQ0gyXVtDSDJdMSlbTkhdQyg9TylbTkhdYzJbY0hdW2NIXWMobltjSF0yKU4zW0NIMl1bQ0gyXVtDSDJdW0NIMl0z

> <s_epik_cmdline>
J2VwaWtfcHl0aG9uJywgJy1waCcsICc3LjAnLCAnLXRuJywgJzgnLCAnLW1hJywgJzIwMCcsICctbWV0YWxfYmluZGluZycsICctaW1hZScsICc8aW5maWxlLm1hZT4nLCAnLW9tYWUnLCAnPG91dGZpbGUubWFlPic=

> <r_lp_tautomer_probability>
1

> <r_epik_Ionization_Penalty>
5.80652

> <r_epik_Ionization_Penalty_Charging>
5.7288

> <r_epik_Ionization_Penalty_Neutral>
0.0777157

> <r_epik_State_Penalty>
6.60246

> <r_epik_Charging_Adjusted_Penalty>
12.3313

> <i_epik_Tot_Q>
0

> <i_epik_Tot_abs_Q>
2

> <r_epik_Metal_State_Penalty>
2.64988

> <b_epik_Metal_Only>
1

> <s_lp_Force_Field>
OPLS_2005

> <r_lp_Energy>
33.5559

> <b_lp_Chiralities_Consistent>
1

> <s_lp_Variant>
AV-unprocessed.smi:1911-7

> <Gold.Version>
5.8.1

> <Gold.Id.Protein>
6NUR|6NUR_protein|mol2

> <Gold.PLP.Fitness>
52.1462

> <Gold.PLP.PLP>
-44.4309

> <Gold.PLP.part.hbond>
-4.9720

> <Gold.PLP.part.metal>
0.0000

> <Gold.PLP.part.buried>
-7.3911

> <Gold.PLP.part.nonpolar>
-33.3194

> <Gold.PLP.part.repulsive>
0.4402

> <Gold.PLP.ligand.clash>
0.0000

> <Gold.PLP.ligand.torsion>
0.8145

> <Gold.PLP.Chemscore.Hbond>
3.0605

> <Gold.PLP.Chemscore.CHOScore>
0.0000

> <Gold.PLP.Chemscore.Metal>
0.0000

> <Gold.Chemscore.Hbonds>
donor molecule, donor type, donor heavy atom, donor atom, acceptor molecule, acceptor atom, score
      L1  H     1    26       P1 10186  1.00
      L1  H     9    34       P1  7948  0.59
      L1  H    12    35       P1  7957  0.46
      P1  H 10785 10796       L1     1  0.67

> <Gold.PLP.Chemscore.Internal.Correction>
0.1629

> <Gold.Rescore>
     Score         DG    S(hbond)    S(metal)    S(lipo)     H(rot)  DE(clash)    DE(int)     intcor
     16.99     -20.09       2.60        0.00      91.84       1.88       0.23       2.87       ----

> <Gold.Chemscore.Fitness>
16.9875

> <Gold.Chemscore.DG>
-20.0880

> <Gold.Chemscore.ZeroCoef>
-5.4800

> <Gold.Chemscore.Hbond>
2.5969

> <Gold.Chemscore.Metal>
0.0000

> <Gold.Chemscore.Lipo>
91.8402

> <Gold.Chemscore.Internal_Hbond>
0.0000

> <Gold.Chemscore.DEClash>
0.2277

> <Gold.Chemscore.DEInternal>
2.8728

> <Gold.Chemscore.Rot>
1.8793

> <Gold.Chemscore.Internal.Correction>
   9.000000E+99

> <Gold.Chemscore.Hbonds>
donor molecule, donor type, donor heavy atom, donor atom, acceptor molecule, acceptor atom, score
      L1  H     1    26       P1 10186  0.99
      L1  H     9    34       P1  7948  0.58
      L1  H    12    35       P1  7957  0.45
      P1  H 10785 10796       L1     1  0.26

> <Gold.Chemscore.Hbond.Weighted>
-8.6736

> <Gold.Chemscore.Metal.Weighted>
-0.0000

> <Gold.Chemscore.Lipo.Weighted>
-10.7453

> <Gold.Chemscore.Internal_Hbond.Weighted>
0.0000

> <Gold.Chemscore.DEClash.Weighted>
0.2277

> <Gold.Chemscore.DEInternal.Weighted>
2.8728

> <Gold.Chemscore.Rot.Weighted>
4.8109

> <Gold.Chemscore.Internal.Correction.Weighted>
   9.000000E+99

> <Gold.Protein.RotatedTorsions>
[ 6907 6896 6895 6894 ] final  -18.78 input  -60.11 | X-H torsion
[ 7974 7965 7964 7962 ] final   -7.66 input  175.53 | X-H torsion
[ 8008 7997 7996 7995 ] final   41.50 input   59.86 | X-H torsion
[ 10167 10162 10161 10158 ] final  114.81 input  -65.29 | X-H torsion
[ 10718 10713 10712 10709 ] final  -46.97 input   66.30 | X-H torsion
[ 10763 10752 10751 10750 ] final  -13.98 input  -60.55 | X-H torsion
[ 11005 11000 10999 10996 ] final   10.58 input  -57.11 | X-H torsion

> <Gold.Protein.ActiveResidues>
 VAL166  LYS551  ARG553  GLY616  TRP617  ASP618  TYR619  PRO620  LYS621  CYS622 
 ASP623  PHE694  ASN695  SER759  ASP760  ASP761  ALA762  ILE779  LEU786  VAL792 
 PHE793  MET794  SER795  GLU796  ALA797  LYS798  CYS799  TRP800  GLU811  SER814 

> <Gold.Protein.RotatedAtoms>
  151.2731  135.0690  159.9141 H   0  0  0  0  0  0  0  0  0  0  0  0  # atno 6907 bound_to 6896
  152.5347  134.0110  159.7948 H   0  0  0  0  0  0  0  0  0  0  0  0  # atno 6908 bound_to 6896
  151.0351  133.5705  159.2687 H   0  0  0  0  0  0  0  0  0  0  0  0  # atno 6909 bound_to 6896
  146.2301  140.2353  142.8341 H   0  0  0  0  0  0  0  0  0  0  0  0  # atno 7974 bound_to 7965
  155.2706  140.3365  155.4265 H   0  0  0  0  0  0  0  0  0  0  0  0  # atno 8008 bound_to 7997
  156.2134  140.1779  156.7685 H   0  0  0  0  0  0  0  0  0  0  0  0  # atno 8009 bound_to 7997
  154.5719  140.0668  156.8961 H   0  0  0  0  0  0  0  0  0  0  0  0  # atno 8010 bound_to 7997
  139.6361  144.7120  151.2331 H   0  0  0  0  0  0  0  0  0  0  0  0  # atno 10167 bound_to 10162
  156.2130  130.4162  149.9090 H   0  0  0  0  0  0  0  0  0  0  0  0  # atno 10718 bound_to 10713
  153.5214  135.7015  153.5729 H   0  0  0  0  0  0  0  0  0  0  0  0  # atno 10763 bound_to 10752
  153.3777  135.3928  155.1834 H   0  0  0  0  0  0  0  0  0  0  0  0  # atno 10764 bound_to 10752
  154.8694  135.3827  154.4703 H   0  0  0  0  0  0  0  0  0  0  0  0  # atno 10765 bound_to 10752
  140.5129  134.0634  155.7823 H   0  0  0  0  0  0  0  0  0  0  0  0  # atno 11005 bound_to 11000
  144.9526  140.8194  143.5562 LP  0  0  0  0  0  0  0  0  0  0  0  0  # atno 17320 bound_to 7965
  145.2315  139.2113  143.5040 LP  0  0  0  0  0  0  0  0  0  0  0  0  # atno 17321 bound_to 7965
  140.7466  143.6393  150.8350 LP  0  0  0  0  0  0  0  0  0  0  0  0  # atno 17342 bound_to 10162
  140.0024  143.5729  152.2870 LP  0  0  0  0  0  0  0  0  0  0  0  0  # atno 17343 bound_to 10162
  156.6761  130.8840  151.3569 LP  0  0  0  0  0  0  0  0  0  0  0  0  # atno 17370 bound_to 10713
  157.7048  130.9373  150.0898 LP  0  0  0  0  0  0  0  0  0  0  0  0  # atno 17371 bound_to 10713
  141.1376  133.9195  157.2399 LP  0  0  0  0  0  0  0  0  0  0  0  0  # atno 17394 bound_to 11000
  139.9649  135.0144  156.9359 LP  0  0  0  0  0  0  0  0  0  0  0  0  # atno 17395 bound_to 11000

$$$$
