AV-unprocessed.smi:2831|AV-procd|sdf|10911|dock5
  -GOLD-   2272015353D 1   1.00000     0.00000
 Structure written by MMmdl.
 29 30  0  0  0  0  0  0  0  0  2 V2000
  152.1836  138.3588  155.8390 C   0  0  0  0  0  0  0  0  0  0  0  0
  151.1775  137.7640  156.7636 C   0  0  0  0  0  0  0  0  0  0  0  0
  150.2031  138.4802  157.3296 N   0  0  0  0  0  0  0  0  0  0  0  0
  149.3923  137.7054  158.1467 N   0  0  0  0  0  0  0  0  0  0  0  0
  149.7566  136.4155  158.1782 C   0  0  0  0  0  0  0  0  0  0  0  0
  149.1021  135.4988  158.9101 N   0  5  0  0  0  0  0  0  0  0  0  0
  148.3925  135.8812  159.9959 C   0  0  0  0  0  0  0  0  0  0  0  0
  148.2228  137.0401  160.3804 O   0  0  0  0  0  0  0  0  0  0  0  0
  147.8483  134.8524  160.6677 N   0  0  0  0  0  0  0  0  0  0  0  0
  147.0218  134.8626  161.8835 C   0  0  2  0  0  0  0  0  0  0  0  0
  147.8210  135.5969  162.9763 C   0  0  0  0  0  0  0  0  0  0  0  0
  146.6301  133.4534  162.3628 C   0  0  0  0  0  0  0  0  0  0  0  0
  145.1054  133.4339  162.2697 C   0  0  0  0  0  0  0  0  0  0  0  0
  144.7470  134.7945  162.4375 O   0  0  0  0  0  0  0  0  0  0  0  0
  145.6594  135.5533  161.6597 C   0  0  0  0  0  0  0  0  0  0  0  0
  151.1771  136.0623  157.1947 S   0  0  0  0  0  0  0  0  0  0  0  0
  151.7590  138.4556  154.8397 H   0  0  0  0  0  0  0  0  0  0  0  0
  153.0680  137.7239  155.7843 H   0  0  0  0  0  0  0  0  0  0  0  0
  152.4849  139.3455  156.1915 H   0  0  0  0  0  0  0  0  0  0  0  0
  148.0364  133.9378  160.2837 H   0  0  0  0  0  0  0  0  0  0  0  0
  147.2530  135.6683  163.9047 H   0  0  0  0  0  0  0  0  0  0  0  0
  148.0733  136.6124  162.6686 H   0  0  0  0  0  0  0  0  0  0  0  0
  148.7546  135.0787  163.1988 H   0  0  0  0  0  0  0  0  0  0  0  0
  147.0821  132.6437  161.7888 H   0  0  0  0  0  0  0  0  0  0  0  0
  146.9260  133.3019  163.4017 H   0  0  0  0  0  0  0  0  0  0  0  0
  144.7758  133.0878  161.2891 H   0  0  0  0  0  0  0  0  0  0  0  0
  144.6457  132.8000  163.0279 H   0  0  0  0  0  0  0  0  0  0  0  0
  145.6558  136.6007  161.9631 H   0  0  0  0  0  0  0  0  0  0  0  0
  145.3353  135.5182  160.6190 H   0  0  0  0  0  0  0  0  0  0  0  0
  1  2  1  0  0  0  0
  1 17  1  0  0  0  0
  1 18  1  0  0  0  0
  1 19  1  0  0  0  0
  2 16  1  0  0  0  0
  2  3  2  0  0  0  0
  3  4  1  0  0  0  0
  4  5  2  0  0  0  0
  5  6  1  0  0  0  0
  5 16  1  0  0  0  0
  6  7  1  0  0  0  0
  7  8  2  0  0  0  0
  7  9  1  0  0  0  0
  9 10  1  0  0  0  0
  9 20  1  0  0  0  0
 10 15  1  0  0  0  0
 10 11  1  0  0  0  0
 10 12  1  0  0  0  0
 11 21  1  0  0  0  0
 11 22  1  0  0  0  0
 11 23  1  0  0  0  0
 12 13  1  0  0  0  0
 12 24  1  0  0  0  0
 12 25  1  0  0  0  0
 13 14  1  0  0  0  0
 13 26  1  0  0  0  0
 13 27  1  0  0  0  0
 14 15  1  0  0  0  0
 15 28  1  0  0  0  0
 15 29  1  0  0  0  0
M  CHG  1   6  -1
M  END
> <s_m_source_file>
AV-unprocessed.smi

> <i_m_source_file_index>
2831

> <i_lp_mmshare_version>
43012

> <i_f3d_flags>
0

> <s_epik_input>
W0NIM11jMW5uYyhzMSlbTkhdQyg9TylbTkhdW0NAQF0yKFtDSDNdKVtDSDJdW0NIMl1PW0NIMl0y

> <s_epik_cmdline>
J2VwaWtfcHl0aG9uJywgJy1waCcsICc3LjAnLCAnLXRuJywgJzgnLCAnLW1hJywgJzIwMCcsICctbWV0YWxfYmluZGluZycsICctaW1hZScsICc8aW5maWxlLm1hZT4nLCAnLW9tYWUnLCAnPG91dGZpbGUubWFlPic=

> <r_lp_tautomer_probability>
1

> <r_epik_Ionization_Penalty>
3.33648

> <r_epik_Ionization_Penalty_Charging>
3.18522

> <r_epik_Ionization_Penalty_Neutral>
0.151254

> <r_epik_State_Penalty>
3.18248

> <r_epik_Charging_Adjusted_Penalty>
6.3677

> <i_epik_Tot_Q>
-1

> <i_epik_Tot_abs_Q>
1

> <r_epik_Metal_State_Penalty>
0.469716

> <b_epik_Metal_Only>
1

> <s_lp_Force_Field>
OPLS_2005

> <r_lp_Energy>
14.5797

> <b_lp_Chiralities_Consistent>
1

> <s_lp_Variant>
AV-unprocessed.smi:2831-4

> <Gold.Version>
5.8.1

> <Gold.Id.Protein>
6NUR|6NUR_protein|mol2

> <Gold.PLP.Fitness>
35.4742

> <Gold.PLP.PLP>
-25.7665

> <Gold.PLP.part.hbond>
-3.0000

> <Gold.PLP.part.metal>
0.0000

> <Gold.PLP.part.buried>
-3.9522

> <Gold.PLP.part.nonpolar>
-19.6396

> <Gold.PLP.part.repulsive>
0.1181

> <Gold.PLP.ligand.clash>
0.0000

> <Gold.PLP.ligand.torsion>
0.1594

> <Gold.PLP.Chemscore.Hbond>
3.3366

> <Gold.PLP.Chemscore.CHOScore>
0.0000

> <Gold.PLP.Chemscore.Metal>
0.0000

> <Gold.Chemscore.Hbonds>
donor molecule, donor type, donor heavy atom, donor atom, acceptor molecule, acceptor atom, score
      P1  H  6896  6908       L1     6  1.80
      P1  H  6931  6943       L1     8  0.64
      P1  H  6934  6947       L1     8  0.23

> <Gold.PLP.Chemscore.Internal.Correction>
0.0168

> <Gold.Rescore>
     Score         DG    S(hbond)    S(metal)    S(lipo)     H(rot)  DE(clash)    DE(int)     intcor
     15.90     -16.64       2.31        0.00      51.24       1.00       0.00       0.74       ----

> <Gold.Chemscore.Fitness>
15.8975

> <Gold.Chemscore.DG>
-16.6377

> <Gold.Chemscore.ZeroCoef>
-5.4800

> <Gold.Chemscore.Hbond>
2.3121

> <Gold.Chemscore.Metal>
0.0000

> <Gold.Chemscore.Lipo>
51.2426

> <Gold.Chemscore.Internal_Hbond>
0.0000

> <Gold.Chemscore.DEClash>
0.0000

> <Gold.Chemscore.DEInternal>
0.7401

> <Gold.Chemscore.Rot>
1.0000

> <Gold.Chemscore.Internal.Correction>
   9.000000E+99

> <Gold.Chemscore.Hbonds>
donor molecule, donor type, donor heavy atom, donor atom, acceptor molecule, acceptor atom, score
      P1  H  6896  6908       L1     6  0.12
      P1  H  6931  6943       L1     8  0.62
      P1  H  6934  6947       L1     8  0.23

> <Gold.Chemscore.Hbond.Weighted>
-7.7223

> <Gold.Chemscore.Metal.Weighted>
-0.0000

> <Gold.Chemscore.Lipo.Weighted>
-5.9954

> <Gold.Chemscore.Internal_Hbond.Weighted>
0.0000

> <Gold.Chemscore.DEClash.Weighted>
0.0000

> <Gold.Chemscore.DEInternal.Weighted>
0.7401

> <Gold.Chemscore.Rot.Weighted>
2.5600

> <Gold.Chemscore.Internal.Correction.Weighted>
   9.000000E+99

> <Gold.Protein.RotatedTorsions>
[ 6907 6896 6895 6894 ] final  164.32 input  -60.11 | X-H torsion
[ 7974 7965 7964 7962 ] final -149.70 input  175.53 | X-H torsion
[ 8008 7997 7996 7995 ] final   42.26 input   59.86 | X-H torsion
[ 10167 10162 10161 10158 ] final   83.20 input  -65.29 | X-H torsion
[ 10718 10713 10712 10709 ] final  158.50 input   66.30 | X-H torsion
[ 10763 10752 10751 10750 ] final  -44.84 input  -60.55 | X-H torsion
[ 11005 11000 10999 10996 ] final   64.00 input  -57.11 | X-H torsion

> <Gold.Protein.ActiveResidues>
 VAL166  LYS551  ARG553  GLY616  TRP617  ASP618  TYR619  PRO620  LYS621  CYS622 
 ASP623  PHE694  ASN695  SER759  ASP760  ASP761  ALA762  ILE779  LEU786  VAL792 
 PHE793  MET794  SER795  GLU796  ALA797  LYS798  CYS799  TRP800  GLU811  SER814 

> <Gold.Protein.RotatedAtoms>
  151.9117  133.3563  159.3865 H   0  0  0  0  0  0  0  0  0  0  0  0  # atno 6907 bound_to 6896
  150.7056  134.4725  159.5441 H   0  0  0  0  0  0  0  0  0  0  0  0  # atno 6908 bound_to 6896
  152.2333  134.8301  160.0521 H   0  0  0  0  0  0  0  0  0  0  0  0  # atno 6909 bound_to 6896
  144.7952  140.5030  143.5745 H   0  0  0  0  0  0  0  0  0  0  0  0  # atno 7974 bound_to 7965
  155.2832  140.3374  155.4257 H   0  0  0  0  0  0  0  0  0  0  0  0  # atno 8008 bound_to 7997
  156.2080  140.1758  156.7798 H   0  0  0  0  0  0  0  0  0  0  0  0  # atno 8009 bound_to 7997
  154.5647  140.0681  156.8858 H   0  0  0  0  0  0  0  0  0  0  0  0  # atno 8010 bound_to 7997
  139.9208  144.6214  150.8442 H   0  0  0  0  0  0  0  0  0  0  0  0  # atno 10167 bound_to 10162
  157.1770  131.0623  151.2152 H   0  0  0  0  0  0  0  0  0  0  0  0  # atno 10718 bound_to 10713
  154.0188  135.6672  153.4771 H   0  0  0  0  0  0  0  0  0  0  0  0  # atno 10763 bound_to 10752
  153.0589  135.5039  154.8043 H   0  0  0  0  0  0  0  0  0  0  0  0  # atno 10764 bound_to 10752
  154.6950  135.3068  154.9388 H   0  0  0  0  0  0  0  0  0  0  0  0  # atno 10765 bound_to 10752
  139.9987  134.6476  155.9966 H   0  0  0  0  0  0  0  0  0  0  0  0  # atno 11005 bound_to 11000
  145.5693  139.1482  143.3297 LP  0  0  0  0  0  0  0  0  0  0  0  0  # atno 17320 bound_to 7965
  146.2217  140.5826  142.9014 LP  0  0  0  0  0  0  0  0  0  0  0  0  # atno 17321 bound_to 7965
  140.7662  143.3298  151.2435 LP  0  0  0  0  0  0  0  0  0  0  0  0  # atno 17342 bound_to 10162
  139.6863  143.9768  152.2836 LP  0  0  0  0  0  0  0  0  0  0  0  0  # atno 17343 bound_to 10162
  157.3989  130.7322  149.6752 LP  0  0  0  0  0  0  0  0  0  0  0  0  # atno 17370 bound_to 10713
  155.9730  130.4126  150.4041 LP  0  0  0  0  0  0  0  0  0  0  0  0  # atno 17371 bound_to 10713
  141.1625  133.6538  156.4367 LP  0  0  0  0  0  0  0  0  0  0  0  0  # atno 17394 bound_to 11000
  140.4769  134.6701  157.5154 LP  0  0  0  0  0  0  0  0  0  0  0  0  # atno 17395 bound_to 11000

$$$$
