AV-unprocessed.smi:2055|AV-procd|sdf|8335|dock8
  -GOLD-   2272011 03D 1   1.00000     0.00000
 Structure written by MMmdl.
 43 44  0  0  0  0  0  0  0  0  1 V2000
  147.3034  140.5676  152.7786 C   0  0  0  0  0  0  0  0  0  0  0  0
  147.2019  139.0676  153.0951 C   0  0  1  0  0  0  0  0  0  0  0  0
  146.3095  138.3151  152.0876 C   0  0  0  0  0  0  0  0  0  0  0  0
  146.7667  138.5241  150.7684 O   0  0  0  0  0  0  0  0  0  0  0  0
  148.5434  138.4912  153.1079 N   0  0  0  0  0  0  0  0  0  0  0  0
  149.5548  138.8997  153.8868 C   0  0  0  0  0  0  0  0  0  0  0  0
  149.4829  139.8404  154.6776 O   0  0  0  0  0  0  0  0  0  0  0  0
  150.6469  138.1410  153.7202 N   0  0  0  0  0  0  0  0  0  0  0  0
  151.8880  138.2886  154.4751 C   0  0  0  0  0  0  0  0  0  0  0  0
  151.7154  138.4933  155.9767 C   0  0  0  0  0  0  0  0  0  0  0  0
  151.3533  137.3973  156.7831 C   0  0  0  0  0  0  0  0  0  0  0  0
  151.1934  137.6030  158.1652 C   0  0  0  0  0  0  0  0  0  0  0  0
  151.3717  138.8002  158.7605 N   0  0  0  0  0  0  0  0  0  0  0  0
  151.7199  139.8666  158.0012 C   0  0  0  0  0  0  0  0  0  0  0  0
  151.9165  141.0886  158.6819 N   0  0  0  0  0  0  0  0  0  0  0  0
  153.0075  141.1902  159.6471 C   0  0  0  0  0  0  0  0  0  0  0  0
  152.8344  142.4417  160.5239 C   0  0  0  0  0  0  0  0  0  0  0  0
  152.7123  143.5942  159.6977 O   0  0  0  0  0  0  0  0  0  0  0  0
  151.5649  143.5215  158.8578 C   0  0  0  0  0  0  0  0  0  0  0  0
  151.6825  142.3112  157.9156 C   0  0  0  0  0  0  0  0  0  0  0  0
  151.8920  139.7511  156.5984 C   0  0  0  0  0  0  0  0  0  0  0  0
  146.3228  141.0437  152.8018 H   0  0  0  0  0  0  0  0  0  0  0  0
  147.7318  140.7374  151.7904 H   0  0  0  0  0  0  0  0  0  0  0  0
  147.9319  141.0806  153.5071 H   0  0  0  0  0  0  0  0  0  0  0  0
  146.7742  138.9619  154.0942 H   0  0  0  0  0  0  0  0  0  0  0  0
  146.2875  137.2464  152.3031 H   0  0  0  0  0  0  0  0  0  0  0  0
  145.2807  138.6736  152.1393 H   0  0  0  0  0  0  0  0  0  0  0  0
  146.0377  138.8100  150.2393 H   0  0  0  0  0  0  0  0  0  0  0  0
  148.7050  137.7078  152.4922 H   0  0  0  0  0  0  0  0  0  0  0  0
  150.6094  137.3896  153.0474 H   0  0  0  0  0  0  0  0  0  0  0  0
  152.4840  137.3890  154.3210 H   0  0  0  0  0  0  0  0  0  0  0  0
  152.4684  139.1163  154.0633 H   0  0  0  0  0  0  0  0  0  0  0  0
  151.2017  136.4177  156.3538 H   0  0  0  0  0  0  0  0  0  0  0  0
  150.9159  136.7835  158.8114 H   0  0  0  0  0  0  0  0  0  0  0  0
  153.0294  140.3088  160.2892 H   0  0  0  0  0  0  0  0  0  0  0  0
  153.9578  141.2350  159.1135 H   0  0  0  0  0  0  0  0  0  0  0  0
  151.9580  142.3474  161.1672 H   0  0  0  0  0  0  0  0  0  0  0  0
  153.6971  142.5627  161.1790 H   0  0  0  0  0  0  0  0  0  0  0  0
  150.6605  143.4543  159.4648 H   0  0  0  0  0  0  0  0  0  0  0  0
  151.4906  144.4416  158.2781 H   0  0  0  0  0  0  0  0  0  0  0  0
  152.5136  142.4554  157.2243 H   0  0  0  0  0  0  0  0  0  0  0  0
  150.7762  142.2434  157.3140 H   0  0  0  0  0  0  0  0  0  0  0  0
  152.1519  140.6099  155.9998 H   0  0  0  0  0  0  0  0  0  0  0  0
  1  2  1  0  0  0  0
  1 22  1  0  0  0  0
  1 23  1  0  0  0  0
  1 24  1  0  0  0  0
  2  3  1  0  0  0  0
  2  5  1  0  0  0  0
  2 25  1  0  0  0  0
  3  4  1  0  0  0  0
  3 26  1  0  0  0  0
  3 27  1  0  0  0  0
  4 28  1  0  0  0  0
  5  6  1  0  0  0  0
  5 29  1  0  0  0  0
  6  7  2  0  0  0  0
  6  8  1  0  0  0  0
  8  9  1  0  0  0  0
  8 30  1  0  0  0  0
  9 10  1  0  0  0  0
  9 31  1  0  0  0  0
  9 32  1  0  0  0  0
 10 21  1  0  0  0  0
 10 11  2  0  0  0  0
 11 12  1  0  0  0  0
 11 33  1  0  0  0  0
 12 13  2  0  0  0  0
 12 34  1  0  0  0  0
 13 14  1  0  0  0  0
 14 15  1  0  0  0  0
 14 21  2  0  0  0  0
 15 20  1  0  0  0  0
 15 16  1  0  0  0  0
 16 17  1  0  0  0  0
 16 35  1  0  0  0  0
 16 36  1  0  0  0  0
 17 18  1  0  0  0  0
 17 37  1  0  0  0  0
 17 38  1  0  0  0  0
 18 19  1  0  0  0  0
 19 20  1  0  0  0  0
 19 39  1  0  0  0  0
 19 40  1  0  0  0  0
 20 41  1  0  0  0  0
 20 42  1  0  0  0  0
 21 43  1  0  0  0  0
M  END
> <s_m_source_file>
AV-unprocessed.smi

> <i_m_source_file_index>
2055

> <i_lp_mmshare_version>
43012

> <i_f3d_flags>
0

> <s_epik_input>
W09IXVtDSDJdW0NAQEhdKFtDSDNdKVtOSF1DKD1PKVtOSF1bQ0gyXWMxW2NIXVtjSF1uYyhbY0hdMSlOMltDSDJdW0NIMl1PW0NIMl1bQ0gyXTI=

> <s_epik_cmdline>
J2VwaWtfcHl0aG9uJywgJy1waCcsICc3LjAnLCAnLXRuJywgJzgnLCAnLW1hJywgJzIwMCcsICctbWV0YWxfYmluZGluZycsICctaW1hZScsICc8aW5maWxlLm1hZT4nLCAnLW9tYWUnLCAnPG91dGZpbGUubWFlPic=

> <r_lp_tautomer_probability>
1

> <r_epik_Ionization_Penalty>
0.0122173

> <r_epik_Ionization_Penalty_Charging>
0

> <r_epik_Ionization_Penalty_Neutral>
0.0122173

> <r_epik_State_Penalty>
0.00940497

> <r_epik_Charging_Adjusted_Penalty>
0.00940497

> <i_epik_Tot_Q>
0

> <i_epik_Tot_abs_Q>
0

> <r_epik_Metal_State_Penalty>
0.00921475

> <b_epik_Metal_Only>
0

> <s_lp_Force_Field>
OPLS_2005

> <r_lp_Energy>
11.6971

> <b_lp_Chiralities_Consistent>
1

> <s_lp_Variant>
AV-unprocessed.smi:2055-2

> <Gold.Version>
5.8.1

> <Gold.Id.Protein>
6NUR|6NUR_protein|mol2

> <Gold.PLP.Fitness>
48.2488

> <Gold.PLP.PLP>
-39.0411

> <Gold.PLP.part.hbond>
-5.6936

> <Gold.PLP.part.metal>
0.0000

> <Gold.PLP.part.buried>
-5.1955

> <Gold.PLP.part.nonpolar>
-28.3910

> <Gold.PLP.part.repulsive>
0.2437

> <Gold.PLP.ligand.clash>
0.0000

> <Gold.PLP.ligand.torsion>
0.7012

> <Gold.PLP.Chemscore.Hbond>
3.3664

> <Gold.PLP.Chemscore.CHOScore>
0.0000

> <Gold.PLP.Chemscore.Metal>
0.0000

> <Gold.Chemscore.Hbonds>
donor molecule, donor type, donor heavy atom, donor atom, acceptor molecule, acceptor atom, score
      L1  H     4    28       P1 10171  0.58
      L1  H     5    29       P1  7948  1.00
      L1  H     8    30       P1  7949  0.37
      P1  H  7954  7966       L1     4  0.93

> <Gold.PLP.Chemscore.Internal.Correction>
0.5107

> <Gold.Rescore>
     Score         DG    S(hbond)    S(metal)    S(lipo)     H(rot)  DE(clash)    DE(int)     intcor
     15.11     -18.14       2.72        0.00      89.78       2.70       0.56       2.47       ----

> <Gold.Chemscore.Fitness>
15.1083

> <Gold.Chemscore.DG>
-18.1424

> <Gold.Chemscore.ZeroCoef>
-5.4800

> <Gold.Chemscore.Hbond>
2.7179

> <Gold.Chemscore.Metal>
0.0000

> <Gold.Chemscore.Lipo>
89.7815

> <Gold.Chemscore.Internal_Hbond>
0.0000

> <Gold.Chemscore.DEClash>
0.5622

> <Gold.Chemscore.DEInternal>
2.4719

> <Gold.Chemscore.Rot>
2.7031

> <Gold.Chemscore.Internal.Correction>
   9.000000E+99

> <Gold.Chemscore.Hbonds>
donor molecule, donor type, donor heavy atom, donor atom, acceptor molecule, acceptor atom, score
      L1  H     4    28       P1 10171  0.56
      L1  H     5    29       P1  7948  0.98
      L1  H     8    30       P1  7949  0.02
      P1  H  7954  7966       L1     4  0.84

> <Gold.Chemscore.Hbond.Weighted>
-9.0778

> <Gold.Chemscore.Metal.Weighted>
-0.0000

> <Gold.Chemscore.Lipo.Weighted>
-10.5044

> <Gold.Chemscore.Internal_Hbond.Weighted>
0.0000

> <Gold.Chemscore.DEClash.Weighted>
0.5622

> <Gold.Chemscore.DEInternal.Weighted>
2.4719

> <Gold.Chemscore.Rot.Weighted>
6.9199

> <Gold.Chemscore.Internal.Correction.Weighted>
   9.000000E+99

> <Gold.Protein.RotatedTorsions>
[ 6907 6896 6895 6894 ] final   79.36 input  -60.11 | X-H torsion
[ 7974 7965 7964 7962 ] final   -8.93 input  175.53 | X-H torsion
[ 8008 7997 7996 7995 ] final  166.94 input   59.86 | X-H torsion
[ 10167 10162 10161 10158 ] final  177.73 input  -65.29 | X-H torsion
[ 10718 10713 10712 10709 ] final  124.04 input   66.30 | X-H torsion
[ 10763 10752 10751 10750 ] final  -26.69 input  -60.55 | X-H torsion
[ 11005 11000 10999 10996 ] final  -27.87 input  -57.11 | X-H torsion

> <Gold.Protein.ActiveResidues>
 VAL166  LYS551  ARG553  GLY616  TRP617  ASP618  TYR619  PRO620  LYS621  CYS622 
 ASP623  PHE694  ASN695  SER759  ASP760  ASP761  ALA762  ILE779  LEU786  VAL792 
 PHE793  MET794  SER795  GLU796  ALA797  LYS798  CYS799  TRP800  GLU811  SER814 

> <Gold.Protein.RotatedAtoms>
  152.5195  134.3523  159.9255 H   0  0  0  0  0  0  0  0  0  0  0  0  # atno 6907 bound_to 6896
  151.3474  133.3932  159.2684 H   0  0  0  0  0  0  0  0  0  0  0  0  # atno 6908 bound_to 6896
  150.9754  134.9138  159.7871 H   0  0  0  0  0  0  0  0  0  0  0  0  # atno 6909 bound_to 6896
  146.2266  140.2541  142.8348 H   0  0  0  0  0  0  0  0  0  0  0  0  # atno 7974 bound_to 7965
  156.1676  140.1630  156.8504 H   0  0  0  0  0  0  0  0  0  0  0  0  # atno 8008 bound_to 7997
  154.5223  140.0775  156.8230 H   0  0  0  0  0  0  0  0  0  0  0  0  # atno 8009 bound_to 7997
  155.3579  140.3393  155.4242 H   0  0  0  0  0  0  0  0  0  0  0  0  # atno 8010 bound_to 7997
  139.5265  144.2764  152.0584 H   0  0  0  0  0  0  0  0  0  0  0  0  # atno 10167 bound_to 10162
  157.5617  131.1089  150.8527 H   0  0  0  0  0  0  0  0  0  0  0  0  # atno 10718 bound_to 10713
  153.7200  135.6945  153.5015 H   0  0  0  0  0  0  0  0  0  0  0  0  # atno 10763 bound_to 10752
  153.2210  135.4370  155.0488 H   0  0  0  0  0  0  0  0  0  0  0  0  # atno 10764 bound_to 10752
  154.8287  135.3460  154.6734 H   0  0  0  0  0  0  0  0  0  0  0  0  # atno 10765 bound_to 10752
  140.9157  133.7431  156.0732 H   0  0  0  0  0  0  0  0  0  0  0  0  # atno 11005 bound_to 11000
  144.9389  140.8057  143.5642 LP  0  0  0  0  0  0  0  0  0  0  0  0  # atno 17320 bound_to 7965
  145.2491  139.2039  143.4952 LP  0  0  0  0  0  0  0  0  0  0  0  0  # atno 17321 bound_to 7965
  140.2221  144.4455  150.6337 LP  0  0  0  0  0  0  0  0  0  0  0  0  # atno 17342 bound_to 10162
  140.6411  143.2204  151.6287 LP  0  0  0  0  0  0  0  0  0  0  0  0  # atno 17343 bound_to 10162
  156.9023  130.5251  149.5282 LP  0  0  0  0  0  0  0  0  0  0  0  0  # atno 17370 bound_to 10713
  156.0669  130.5710  150.9306 LP  0  0  0  0  0  0  0  0  0  0  0  0  # atno 17371 bound_to 10713
  140.8052  134.3462  157.5428 LP  0  0  0  0  0  0  0  0  0  0  0  0  # atno 17394 bound_to 11000
  139.8765  134.9221  156.3293 LP  0  0  0  0  0  0  0  0  0  0  0  0  # atno 17395 bound_to 11000

$$$$
