AV-unprocessed.smi:1540|AV-procd|sdf|6198|dock9
  -GOLD-   22720 6363D 1   1.00000     0.00000
 Structure written by MMmdl.
 33 33  0  0  0  0  0  0  0  0  1 V2000
  152.4210  144.1636  158.9627 C   0  0  0  0  0  0  0  0  0  0  0  0
  152.8642  143.4691  160.0212 C   0  0  0  0  0  0  0  0  0  0  0  0
  153.2253  142.0008  159.9932 C   0  0  0  0  0  0  0  0  0  0  0  0
  152.7404  141.3993  158.7991 O   0  0  0  0  0  0  0  0  0  0  0  0
  151.8940  140.2667  158.9812 C   0  0  2  0  0  0  0  0  0  0  0  0
  152.7976  139.0544  159.2503 C   0  0  0  0  0  0  0  0  0  0  0  0
  151.0175  140.0451  157.7375 C   0  0  0  0  0  0  0  0  0  0  0  0
  151.0842  138.9749  157.1334 O   0  0  0  0  0  0  0  0  0  0  0  0
  150.2176  141.0769  157.4029 N   0  0  0  0  0  0  0  0  0  0  0  0
  149.3396  141.2072  156.3139 C   0  0  0  0  0  0  0  0  0  0  0  0
  148.0884  141.7327  156.3840 C   0  0  0  0  0  0  0  0  0  0  0  0
  147.2262  141.8302  155.2180 C   0  0  0  0  0  0  0  0  0  0  0  0
  145.8066  142.3670  155.3218 C   0  0  0  0  0  0  0  0  0  0  0  0
  145.6281  143.0526  156.4519 F   0  0  0  0  0  0  0  0  0  0  0  0
  145.5243  143.1703  154.2960 F   0  0  0  0  0  0  0  0  0  0  0  0
  144.9383  141.3566  155.3073 F   0  0  0  0  0  0  0  0  0  0  0  0
  147.7203  141.3451  154.0640 C   0  0  0  0  0  0  0  0  0  0  0  0
  149.0048  140.8026  153.9837 N   0  0  0  0  0  0  0  0  0  0  0  0
  149.8510  140.6939  155.0324 C   0  0  0  0  0  0  0  0  0  0  0  0
  150.9649  140.1928  154.8824 O   0  0  0  0  0  0  0  0  0  0  0  0
  149.3058  140.4671  153.0800 H   0  0  0  0  0  0  0  0  0  0  0  0
  152.2929  143.6958  157.9976 H   0  0  0  0  0  0  0  0  0  0  0  0
  152.1796  145.2128  159.0493 H   0  0  0  0  0  0  0  0  0  0  0  0
  152.9806  143.9697  160.9714 H   0  0  0  0  0  0  0  0  0  0  0  0
  154.3086  141.8875  160.0595 H   0  0  0  0  0  0  0  0  0  0  0  0
  152.7902  141.5293  160.8746 H   0  0  0  0  0  0  0  0  0  0  0  0
  151.2637  140.4250  159.8585 H   0  0  0  0  0  0  0  0  0  0  0  0
  152.2107  138.1454  159.3875 H   0  0  0  0  0  0  0  0  0  0  0  0
  153.3858  139.2056  160.1556 H   0  0  0  0  0  0  0  0  0  0  0  0
  153.4960  138.8827  158.4301 H   0  0  0  0  0  0  0  0  0  0  0  0
  150.2157  141.8620  158.0383 H   0  0  0  0  0  0  0  0  0  0  0  0
  147.6860  142.0848  157.3196 H   0  0  0  0  0  0  0  0  0  0  0  0
  147.1790  141.3283  153.1294 H   0  0  0  0  0  0  0  0  0  0  0  0
  1  2  2  0  0  0  0
  1 22  1  0  0  0  0
  1 23  1  0  0  0  0
  2  3  1  0  0  0  0
  2 24  1  0  0  0  0
  3  4  1  0  0  0  0
  3 25  1  0  0  0  0
  3 26  1  0  0  0  0
  4  5  1  0  0  0  0
  5  6  1  0  0  0  0
  5  7  1  0  0  0  0
  5 27  1  0  0  0  0
  6 28  1  0  0  0  0
  6 29  1  0  0  0  0
  6 30  1  0  0  0  0
  7  8  2  0  0  0  0
  7  9  1  0  0  0  0
  9 10  1  0  0  0  0
  9 31  1  0  0  0  0
 10 19  1  0  0  0  0
 10 11  2  0  0  0  0
 11 12  1  0  0  0  0
 11 32  1  0  0  0  0
 12 13  1  0  0  0  0
 12 17  2  0  0  0  0
 13 14  1  0  0  0  0
 13 15  1  0  0  0  0
 13 16  1  0  0  0  0
 17 18  1  0  0  0  0
 17 33  1  0  0  0  0
 18 21  1  0  0  0  0
 18 19  1  0  0  0  0
 19 20  2  0  0  0  0
M  END
> <s_m_source_file>
AV-unprocessed.smi

> <i_m_source_file_index>
1540

> <i_lp_mmshare_version>
43012

> <i_f3d_flags>
0

> <s_epik_input>
W0NIMl09W0NIXVtDSDJdT1tDQEhdKFtDSDNdKUMoPU8pW05IXWMxW2NIXWMoQyhGKShGKUYpW2NIXVtuSF1jMT1P

> <s_epik_cmdline>
J2VwaWtfcHl0aG9uJywgJy1waCcsICc3LjAnLCAnLXRuJywgJzgnLCAnLW1hJywgJzIwMCcsICctbWV0YWxfYmluZGluZycsICctaW1hZScsICc8aW5maWxlLm1hZT4nLCAnLW9tYWUnLCAnPG91dGZpbGUubWFlPic=

> <r_lp_tautomer_probability>
0.999

> <r_epik_Ionization_Penalty>
0.0086731

> <r_epik_Ionization_Penalty_Charging>
0.00867296

> <r_epik_Ionization_Penalty_Neutral>
1.3954e-07

> <r_epik_State_Penalty>
0.00654787

> <r_epik_Charging_Adjusted_Penalty>
0.0152208

> <i_epik_Tot_Q>
0

> <i_epik_Tot_abs_Q>
0

> <r_epik_Metal_State_Penalty>
0.320056

> <b_epik_Metal_Only>
0

> <s_lp_Force_Field>
OPLS_2005

> <r_lp_Energy>
17.7944

> <b_lp_Chiralities_Consistent>
1

> <s_lp_Variant>
AV-unprocessed.smi:1540-1

> <Gold.Version>
5.8.1

> <Gold.Id.Protein>
6NUR|6NUR_protein|mol2

> <Gold.PLP.Fitness>
39.8322

> <Gold.PLP.PLP>
-37.0106

> <Gold.PLP.part.hbond>
-2.0000

> <Gold.PLP.part.metal>
0.0000

> <Gold.PLP.part.buried>
-3.4638

> <Gold.PLP.part.nonpolar>
-32.4563

> <Gold.PLP.part.repulsive>
0.2952

> <Gold.PLP.ligand.clash>
0.0000

> <Gold.PLP.ligand.torsion>
1.6134

> <Gold.PLP.Chemscore.Hbond>
2.0000

> <Gold.PLP.Chemscore.CHOScore>
0.0000

> <Gold.PLP.Chemscore.Metal>
0.0000

> <Gold.Chemscore.Hbonds>
donor molecule, donor type, donor heavy atom, donor atom, acceptor molecule, acceptor atom, score
      L1  H    18    21       P1  7957  1.00
      P1  H  7989  7998       L1    20  1.00

> <Gold.PLP.Chemscore.Internal.Correction>
0.0484

> <Gold.Rescore>
     Score         DG    S(hbond)    S(metal)    S(lipo)     H(rot)  DE(clash)    DE(int)     intcor
     11.08     -15.26       1.84        0.00      70.66       1.81       0.03       4.15       ----

> <Gold.Chemscore.Fitness>
11.0781

> <Gold.Chemscore.DG>
-15.2563

> <Gold.Chemscore.ZeroCoef>
-5.4800

> <Gold.Chemscore.Hbond>
1.8381

> <Gold.Chemscore.Metal>
0.0000

> <Gold.Chemscore.Lipo>
70.6564

> <Gold.Chemscore.Internal_Hbond>
0.0000

> <Gold.Chemscore.DEClash>
0.0321

> <Gold.Chemscore.DEInternal>
4.1460

> <Gold.Chemscore.Rot>
1.8084

> <Gold.Chemscore.Internal.Correction>
   9.000000E+99

> <Gold.Chemscore.Hbonds>
donor molecule, donor type, donor heavy atom, donor atom, acceptor molecule, acceptor atom, score
      L1  H    18    21       P1  7957  0.97
      P1  H  7989  7998       L1    20  0.60

> <Gold.Chemscore.Hbond.Weighted>
-6.1391

> <Gold.Chemscore.Metal.Weighted>
-0.0000

> <Gold.Chemscore.Lipo.Weighted>
-8.2668

> <Gold.Chemscore.Internal_Hbond.Weighted>
0.0000

> <Gold.Chemscore.DEClash.Weighted>
0.0321

> <Gold.Chemscore.DEInternal.Weighted>
4.1460

> <Gold.Chemscore.Rot.Weighted>
4.6296

> <Gold.Chemscore.Internal.Correction.Weighted>
   9.000000E+99

> <Gold.Protein.RotatedTorsions>
[ 6907 6896 6895 6894 ] final  -77.44 input  -60.11 | X-H torsion
[ 7974 7965 7964 7962 ] final  133.09 input  175.53 | X-H torsion
[ 8008 7997 7996 7995 ] final -134.53 input   59.86 | X-H torsion
[ 10167 10162 10161 10158 ] final   68.40 input  -65.29 | X-H torsion
[ 10718 10713 10712 10709 ] final   32.83 input   66.30 | X-H torsion
[ 10763 10752 10751 10750 ] final -100.58 input  -60.55 | X-H torsion
[ 11005 11000 10999 10996 ] final   39.48 input  -57.11 | X-H torsion

> <Gold.Protein.ActiveResidues>
 VAL166  LYS551  ARG553  GLY616  TRP617  ASP618  TYR619  PRO620  LYS621  CYS622 
 ASP623  PHE694  ASN695  SER759  ASP760  ASP761  ALA762  ILE779  LEU786  VAL792 
 PHE793  MET794  SER795  GLU796  ALA797  LYS798  CYS799  TRP800  GLU811  SER814 

> <Gold.Protein.RotatedAtoms>
  150.6999  134.4422  159.5296 H   0  0  0  0  0  0  0  0  0  0  0  0  # atno 6907 bound_to 6896
  152.2129  134.8481  160.0504 H   0  0  0  0  0  0  0  0  0  0  0  0  # atno 6908 bound_to 6896
  151.9360  133.3589  159.3985 H   0  0  0  0  0  0  0  0  0  0  0  0  # atno 6909 bound_to 6896
  144.9901  139.4415  143.5343 H   0  0  0  0  0  0  0  0  0  0  0  0  # atno 7974 bound_to 7965
  155.3636  140.0484  157.3046 H   0  0  0  0  0  0  0  0  0  0  0  0  # atno 8008 bound_to 7997
  154.5166  140.2210  155.9018 H   0  0  0  0  0  0  0  0  0  0  0  0  # atno 8009 bound_to 7997
  156.1643  140.3110  155.8866 H   0  0  0  0  0  0  0  0  0  0  0  0  # atno 8010 bound_to 7997
  140.0790  144.5087  150.7175 H   0  0  0  0  0  0  0  0  0  0  0  0  # atno 10167 bound_to 10162
  157.2902  130.7299  149.6606 H   0  0  0  0  0  0  0  0  0  0  0  0  # atno 10718 bound_to 10713
  154.7590  135.4929  153.9429 H   0  0  0  0  0  0  0  0  0  0  0  0  # atno 10763 bound_to 10752
  153.1229  135.6736  153.9312 H   0  0  0  0  0  0  0  0  0  0  0  0  # atno 10764 bound_to 10752
  153.9039  135.3106  155.3427 H   0  0  0  0  0  0  0  0  0  0  0  0  # atno 10765 bound_to 10752
  140.2024  134.3854  155.8089 H   0  0  0  0  0  0  0  0  0  0  0  0  # atno 11005 bound_to 11000
  146.3429  139.9227  142.8764 LP  0  0  0  0  0  0  0  0  0  0  0  0  # atno 17320 bound_to 7965
  145.2297  140.9968  143.3997 LP  0  0  0  0  0  0  0  0  0  0  0  0  # atno 17321 bound_to 7965
  140.7087  143.2488  151.4647 LP  0  0  0  0  0  0  0  0  0  0  0  0  # atno 17342 bound_to 10162
  139.5790  144.1752  152.1943 LP  0  0  0  0  0  0  0  0  0  0  0  0  # atno 17343 bound_to 10162
  155.9667  130.4311  150.4906 LP  0  0  0  0  0  0  0  0  0  0  0  0  # atno 17370 bound_to 10713
  157.2867  131.0618  151.2161 LP  0  0  0  0  0  0  0  0  0  0  0  0  # atno 17371 bound_to 10713
  141.2227  133.7101  156.8280 LP  0  0  0  0  0  0  0  0  0  0  0  0  # atno 17394 bound_to 11000
  140.2039  134.8876  157.3200 LP  0  0  0  0  0  0  0  0  0  0  0  0  # atno 17395 bound_to 11000

$$$$
