AV-unprocessed.smi:572|AV-procd|sdf|2966|dock2
  -GOLD-   2262023473D 1   1.00000     0.00000
 Structure written by MMmdl.
 45 47  0  0  0  0  0  0  0  0  2 V2000
  152.6174  137.8047  159.8700 C   0  0  0  0  0  0  0  0  0  0  0  0
  153.1622  138.3370  158.6751 O   0  0  0  0  0  0  0  0  0  0  0  0
  152.9558  139.7338  158.5610 C   0  0  0  0  0  0  0  0  0  0  0  0
  151.4513  140.0033  158.4427 C   0  0  0  0  0  0  0  0  0  0  0  0
  151.1800  141.3827  158.0127 N   0  0  0  0  0  0  0  0  0  0  0  0
  150.5298  141.8702  156.9190 C   0  0  0  0  0  0  0  0  0  0  0  0
  149.8949  141.0807  155.8538 C   0  0  0  0  0  0  0  0  0  0  0  0
  148.7899  141.5879  155.1408 C   0  0  0  0  0  0  0  0  0  0  0  0
  148.1721  140.8319  154.1154 C   0  0  0  0  0  0  0  0  0  0  0  0
  147.0869  141.2724  153.3852 O   0  0  0  0  0  0  0  0  0  0  0  0
  146.5034  142.5193  153.7335 C   0  0  0  0  0  0  0  0  0  0  0  0
  148.6844  139.5526  153.8110 C   0  0  0  0  0  0  0  0  0  0  0  0
  148.0946  138.8136  152.8246 O   0  0  0  0  0  0  0  0  0  0  0  0
  149.7930  139.0244  154.5076 C   0  0  0  0  0  0  0  0  0  0  0  0
  150.2291  137.7650  154.1492 O   0  0  0  0  0  0  0  0  0  0  0  0
  151.3283  137.2065  154.8534 C   0  0  0  0  0  0  0  0  0  0  0  0
  150.3927  139.8037  155.5267 C   0  0  0  0  0  0  0  0  0  0  0  0
  150.5858  143.2285  156.9489 N   0  3  0  0  0  0  0  0  0  0  0  0
  151.2806  143.6266  158.0932 C   0  0  0  0  0  0  0  0  0  0  0  0
  151.5945  144.8958  158.5693 C   0  0  0  0  0  0  0  0  0  0  0  0
  152.3299  144.9575  159.7711 C   0  0  0  0  0  0  0  0  0  0  0  0
  152.7275  143.7876  160.4502 C   0  0  0  0  0  0  0  0  0  0  0  0
  152.4043  142.5051  159.9597 C   0  0  0  0  0  0  0  0  0  0  0  0
  151.6708  142.4506  158.7747 C   0  0  0  0  0  0  0  0  0  0  0  0
  152.7970  136.7304  159.9077 H   0  0  0  0  0  0  0  0  0  0  0  0
  151.5401  137.9682  159.9201 H   0  0  0  0  0  0  0  0  0  0  0  0
  153.0815  138.2537  160.7492 H   0  0  0  0  0  0  0  0  0  0  0  0
  153.3653  140.2448  159.4339 H   0  0  0  0  0  0  0  0  0  0  0  0
  153.4731  140.1171  157.6798 H   0  0  0  0  0  0  0  0  0  0  0  0
  151.0073  139.3247  157.7157 H   0  0  0  0  0  0  0  0  0  0  0  0
  150.9411  139.8136  159.3872 H   0  0  0  0  0  0  0  0  0  0  0  0
  148.4315  142.5730  155.3985 H   0  0  0  0  0  0  0  0  0  0  0  0
  145.6601  142.7189  153.0726 H   0  0  0  0  0  0  0  0  0  0  0  0
  147.2139  143.3387  153.6169 H   0  0  0  0  0  0  0  0  0  0  0  0
  146.1255  142.5108  154.7569 H   0  0  0  0  0  0  0  0  0  0  0  0
  148.6722  138.1575  152.4652 H   0  0  0  0  0  0  0  0  0  0  0  0
  151.5320  136.2079  154.4673 H   0  0  0  0  0  0  0  0  0  0  0  0
  151.1116  137.1099  155.9179 H   0  0  0  0  0  0  0  0  0  0  0  0
  152.2319  137.8023  154.7196 H   0  0  0  0  0  0  0  0  0  0  0  0
  151.2412  139.4351  156.0829 H   0  0  0  0  0  0  0  0  0  0  0  0
  151.2951  145.7941  158.0495 H   0  0  0  0  0  0  0  0  0  0  0  0
  152.5966  145.9217  160.1792 H   0  0  0  0  0  0  0  0  0  0  0  0
  153.2929  143.8755  161.3668 H   0  0  0  0  0  0  0  0  0  0  0  0
  152.7168  141.6168  160.4883 H   0  0  0  0  0  0  0  0  0  0  0  0
  150.1800  143.8314  156.2448 H   0  0  0  0  0  0  0  0  0  0  0  0
  1  2  1  0  0  0  0
  1 25  1  0  0  0  0
  1 26  1  0  0  0  0
  1 27  1  0  0  0  0
  2  3  1  0  0  0  0
  3  4  1  0  0  0  0
  3 28  1  0  0  0  0
  3 29  1  0  0  0  0
  4  5  1  0  0  0  0
  4 30  1  0  0  0  0
  4 31  1  0  0  0  0
  5 24  1  0  0  0  0
  5  6  1  0  0  0  0
  6  7  1  0  0  0  0
  6 18  2  0  0  0  0
  7 17  1  0  0  0  0
  7  8  2  0  0  0  0
  8  9  1  0  0  0  0
  8 32  1  0  0  0  0
  9 10  1  0  0  0  0
  9 12  2  0  0  0  0
 10 11  1  0  0  0  0
 11 33  1  0  0  0  0
 11 34  1  0  0  0  0
 11 35  1  0  0  0  0
 12 13  1  0  0  0  0
 12 14  1  0  0  0  0
 13 36  1  0  0  0  0
 14 15  1  0  0  0  0
 14 17  2  0  0  0  0
 15 16  1  0  0  0  0
 16 37  1  0  0  0  0
 16 38  1  0  0  0  0
 16 39  1  0  0  0  0
 17 40  1  0  0  0  0
 18 19  1  0  0  0  0
 18 45  1  0  0  0  0
 19 24  2  0  0  0  0
 19 20  1  0  0  0  0
 20 21  2  0  0  0  0
 20 41  1  0  0  0  0
 21 22  1  0  0  0  0
 21 42  1  0  0  0  0
 22 23  2  0  0  0  0
 22 43  1  0  0  0  0
 23 24  1  0  0  0  0
 23 44  1  0  0  0  0
M  CHG  1  18   1
M  END
> <s_m_source_file>
AV-unprocessed.smi

> <i_m_source_file_index>
572

> <i_lp_mmshare_version>
43012

> <i_f3d_flags>
0

> <s_epik_input>
W2NIXTFbY0hdW2NIXVtjSF1jKGMxMiluKFtDSDJdW0NIMl1PW0NIM10pYyhuMiktYzNbY0hdYyhPW0NIM10pYyhbT0hdKWMoW2NIXTMpT1tDSDNd

> <s_epik_cmdline>
J2VwaWtfcHl0aG9uJywgJy1waCcsICc3LjAnLCAnLXRuJywgJzgnLCAnLW1hJywgJzIwMCcsICctbWV0YWxfYmluZGluZycsICctaW1hZScsICc8aW5maWxlLm1hZT4nLCAnLW9tYWUnLCAnPG91dGZpbGUubWFlPic=

> <r_lp_tautomer_probability>
1

> <r_epik_Ionization_Penalty>
0.612873

> <r_epik_Ionization_Penalty_Charging>
0.607243

> <r_epik_Ionization_Penalty_Neutral>
0.00563032

> <r_epik_State_Penalty>
0.761569

> <r_epik_Charging_Adjusted_Penalty>
1.36881

> <i_epik_Tot_Q>
1

> <i_epik_Tot_abs_Q>
1

> <r_epik_Metal_State_Penalty>
4.6608

> <b_epik_Metal_Only>
0

> <s_lp_Force_Field>
OPLS_2005

> <r_lp_Energy>
27.0724

> <b_lp_Chiralities_Consistent>
1

> <s_lp_Variant>
AV-unprocessed.smi:572-2

> <Gold.Version>
5.8.1

> <Gold.Id.Protein>
6NUR|6NUR_protein|mol2

> <Gold.PLP.Fitness>
57.1841

> <Gold.PLP.PLP>
-48.9859

> <Gold.PLP.part.hbond>
-3.0000

> <Gold.PLP.part.metal>
0.0000

> <Gold.PLP.part.buried>
-5.3680

> <Gold.PLP.part.nonpolar>
-41.8087

> <Gold.PLP.part.repulsive>
1.2685

> <Gold.PLP.ligand.clash>
0.0000

> <Gold.PLP.ligand.torsion>
0.4451

> <Gold.PLP.Chemscore.Hbond>
3.0000

> <Gold.PLP.Chemscore.CHOScore>
0.0000

> <Gold.PLP.Chemscore.Metal>
0.0000

> <Gold.Chemscore.Hbonds>
donor molecule, donor type, donor heavy atom, donor atom, acceptor molecule, acceptor atom, score
      L1  H    13    36       P1  7948  0.99
      L1  H    18    45       P1  8028  2.00

> <Gold.PLP.Chemscore.Internal.Correction>
0.0885

> <Gold.Rescore>
     Score         DG    S(hbond)    S(metal)    S(lipo)     H(rot)  DE(clash)    DE(int)     intcor
     19.98     -21.29       1.96        0.00     128.58       2.26       0.38       0.94       ----

> <Gold.Chemscore.Fitness>
19.9802

> <Gold.Chemscore.DG>
-21.2932

> <Gold.Chemscore.ZeroCoef>
-5.4800

> <Gold.Chemscore.Hbond>
1.9646

> <Gold.Chemscore.Metal>
0.0000

> <Gold.Chemscore.Lipo>
128.5783

> <Gold.Chemscore.Internal_Hbond>
0.0000

> <Gold.Chemscore.DEClash>
0.3778

> <Gold.Chemscore.DEInternal>
0.9352

> <Gold.Chemscore.Rot>
2.2626

> <Gold.Chemscore.Internal.Correction>
   9.000000E+99

> <Gold.Chemscore.Hbonds>
donor molecule, donor type, donor heavy atom, donor atom, acceptor molecule, acceptor atom, score
      L1  H    13    36       P1  7948  0.91
      L1  H    18    45       P1  8028  0.95

> <Gold.Chemscore.Hbond.Weighted>
-6.5617

> <Gold.Chemscore.Metal.Weighted>
-0.0000

> <Gold.Chemscore.Lipo.Weighted>
-15.0437

> <Gold.Chemscore.Internal_Hbond.Weighted>
0.0000

> <Gold.Chemscore.DEClash.Weighted>
0.3778

> <Gold.Chemscore.DEInternal.Weighted>
0.9352

> <Gold.Chemscore.Rot.Weighted>
5.7922

> <Gold.Chemscore.Internal.Correction.Weighted>
   9.000000E+99

> <Gold.Protein.RotatedTorsions>
[ 6907 6896 6895 6894 ] final  148.08 input  -60.11 | X-H torsion
[ 7974 7965 7964 7962 ] final   51.45 input  175.53 | X-H torsion
[ 8008 7997 7996 7995 ] final    9.02 input   59.86 | X-H torsion
[ 10167 10162 10161 10158 ] final -166.83 input  -65.29 | X-H torsion
[ 10718 10713 10712 10709 ] final   30.23 input   66.30 | X-H torsion
[ 10763 10752 10751 10750 ] final  -62.08 input  -60.55 | X-H torsion
[ 11005 11000 10999 10996 ] final   -0.77 input  -57.11 | X-H torsion

> <Gold.Protein.ActiveResidues>
 VAL166  LYS551  ARG553  GLY616  TRP617  ASP618  TYR619  PRO620  LYS621  CYS622 
 ASP623  PHE694  ASN695  SER759  ASP760  ASP761  ALA762  ILE779  LEU786  VAL792 
 PHE793  MET794  SER795  GLU796  ALA797  LYS798  CYS799  TRP800  GLU811  SER814 

> <Gold.Protein.RotatedAtoms>
  152.1463  133.4494  159.4791 H   0  0  0  0  0  0  0  0  0  0  0  0  # atno 6907 bound_to 6896
  150.6891  134.2244  159.4418 H   0  0  0  0  0  0  0  0  0  0  0  0  # atno 6908 bound_to 6896
  152.0138  134.9861  160.0619 H   0  0  0  0  0  0  0  0  0  0  0  0  # atno 6909 bound_to 6896
  145.9912  139.4341  143.0072 H   0  0  0  0  0  0  0  0  0  0  0  0  # atno 7974 bound_to 7965
  154.7745  140.2808  155.6112 H   0  0  0  0  0  0  0  0  0  0  0  0  # atno 8008 bound_to 7997
  156.2939  140.2635  156.2483 H   0  0  0  0  0  0  0  0  0  0  0  0  # atno 8009 bound_to 7997
  154.9859  140.0374  157.2288 H   0  0  0  0  0  0  0  0  0  0  0  0  # atno 8010 bound_to 7997
  139.6089  144.0855  152.1822 H   0  0  0  0  0  0  0  0  0  0  0  0  # atno 10167 bound_to 10162
  157.2569  130.7142  149.6433 H   0  0  0  0  0  0  0  0  0  0  0  0  # atno 10718 bound_to 10713
  154.2944  135.6247  153.5398 H   0  0  0  0  0  0  0  0  0  0  0  0  # atno 10763 bound_to 10752
  152.9848  135.5663  154.5354 H   0  0  0  0  0  0  0  0  0  0  0  0  # atno 10764 bound_to 10752
  154.4971  135.2870  155.1426 H   0  0  0  0  0  0  0  0  0  0  0  0  # atno 10765 bound_to 10752
  140.6399  133.9498  155.8320 H   0  0  0  0  0  0  0  0  0  0  0  0  # atno 11005 bound_to 11000
  145.7627  140.9929  143.1191 LP  0  0  0  0  0  0  0  0  0  0  0  0  # atno 17320 bound_to 7965
  144.6889  139.9350  143.7473 LP  0  0  0  0  0  0  0  0  0  0  0  0  # atno 17321 bound_to 7965
  140.0469  144.5963  150.7367 LP  0  0  0  0  0  0  0  0  0  0  0  0  # atno 17342 bound_to 10162
  140.7305  143.2684  151.3969 LP  0  0  0  0  0  0  0  0  0  0  0  0  # atno 17343 bound_to 10162
  155.9665  130.4410  150.5322 LP  0  0  0  0  0  0  0  0  0  0  0  0  # atno 17370 bound_to 10713
  157.3218  131.0683  151.1926 LP  0  0  0  0  0  0  0  0  0  0  0  0  # atno 17371 bound_to 10713
  141.0614  134.0340  157.3653 LP  0  0  0  0  0  0  0  0  0  0  0  0  # atno 17394 bound_to 11000
  139.9084  135.0185  156.7586 LP  0  0  0  0  0  0  0  0  0  0  0  0  # atno 17395 bound_to 11000

$$$$
