AV-unprocessed.smi:2205|AV-procd|sdf|8941|dock2
  -GOLD-   2272012153D 1   1.00000     0.00000
 Structure written by MMmdl.
 36 37  0  0  0  0  0  0  0  0  1 V2000
  153.5726  139.5635  158.9868 C   0  0  0  0  0  0  0  0  0  0  0  0
  153.6747  139.4906  157.5760 O   0  0  0  0  0  0  0  0  0  0  0  0
  153.0390  138.3403  157.0428 C   0  0  0  0  0  0  0  0  0  0  0  0
  152.6683  138.5954  155.5729 C   0  0  0  0  0  0  0  0  0  0  0  0
  151.5324  139.5208  155.4503 N   0  0  0  0  0  0  0  0  0  0  0  0
  151.5671  140.6839  156.2447 C   0  0  0  0  0  0  0  0  0  0  0  0
  150.5860  141.6125  156.2149 C   0  0  0  0  0  0  0  0  0  0  0  0
  150.5560  142.7961  156.9685 N   0  0  0  0  0  0  0  0  0  0  0  0
  151.3281  143.1768  158.0059 C   0  0  0  0  0  0  0  0  0  0  0  0
  152.2347  142.5079  158.5018 O   0  0  0  0  0  0  0  0  0  0  0  0
  151.0040  144.5638  158.5822 C   0  0  0  0  0  0  0  0  0  0  0  0
  152.2366  145.4270  158.8988 C   0  0  0  0  0  0  0  0  0  0  0  0
  151.9992  145.2138  160.3970 C   0  0  0  0  0  0  0  0  0  0  0  0
  150.6467  144.5689  160.0781 C   0  0  0  0  0  0  0  0  0  0  0  0
  149.4788  141.3624  155.3171 C   0  0  0  0  0  0  0  0  0  0  0  0
  149.4392  140.2579  154.5474 C   0  0  0  0  0  0  0  0  0  0  0  0
  150.5099  139.2594  154.5830 C   0  0  0  0  0  0  0  0  0  0  0  0
  150.4884  138.2524  153.8747 O   0  0  0  0  0  0  0  0  0  0  0  0
  154.0615  140.4702  159.3423 H   0  0  0  0  0  0  0  0  0  0  0  0
  154.0599  138.7106  159.4610 H   0  0  0  0  0  0  0  0  0  0  0  0
  152.5304  139.5946  159.3070 H   0  0  0  0  0  0  0  0  0  0  0  0
  153.6885  137.4677  157.1293 H   0  0  0  0  0  0  0  0  0  0  0  0
  152.1352  138.1281  157.6155 H   0  0  0  0  0  0  0  0  0  0  0  0
  153.5347  138.9930  155.0417 H   0  0  0  0  0  0  0  0  0  0  0  0
  152.4496  137.6477  155.0786 H   0  0  0  0  0  0  0  0  0  0  0  0
  152.4525  140.7514  156.8561 H   0  0  0  0  0  0  0  0  0  0  0  0
  149.8459  143.4554  156.6854 H   0  0  0  0  0  0  0  0  0  0  0  0
  150.2676  145.1018  157.9831 H   0  0  0  0  0  0  0  0  0  0  0  0
  153.1885  145.0260  158.5476 H   0  0  0  0  0  0  0  0  0  0  0  0
  152.1108  146.4657  158.5910 H   0  0  0  0  0  0  0  0  0  0  0  0
  152.7074  144.5127  160.8403 H   0  0  0  0  0  0  0  0  0  0  0  0
  151.9293  146.1365  160.9740 H   0  0  0  0  0  0  0  0  0  0  0  0
  149.8010  145.2193  160.3039 H   0  0  0  0  0  0  0  0  0  0  0  0
  150.5158  143.5841  160.5293 H   0  0  0  0  0  0  0  0  0  0  0  0
  148.6666  142.0726  155.2580 H   0  0  0  0  0  0  0  0  0  0  0  0
  148.5984  140.1029  153.8873 H   0  0  0  0  0  0  0  0  0  0  0  0
  1  2  1  0  0  0  0
  1 19  1  0  0  0  0
  1 20  1  0  0  0  0
  1 21  1  0  0  0  0
  2  3  1  0  0  0  0
  3  4  1  0  0  0  0
  3 22  1  0  0  0  0
  3 23  1  0  0  0  0
  4  5  1  0  0  0  0
  4 24  1  0  0  0  0
  4 25  1  0  0  0  0
  5 17  1  0  0  0  0
  5  6  1  0  0  0  0
  6  7  2  0  0  0  0
  6 26  1  0  0  0  0
  7  8  1  0  0  0  0
  7 15  1  0  0  0  0
  8  9  1  0  0  0  0
  8 27  1  0  0  0  0
  9 10  2  0  0  0  0
  9 11  1  0  0  0  0
 11 14  1  0  0  0  0
 11 12  1  0  0  0  0
 11 28  1  0  0  0  0
 12 13  1  0  0  0  0
 12 29  1  0  0  0  0
 12 30  1  0  0  0  0
 13 14  1  0  0  0  0
 13 31  1  0  0  0  0
 13 32  1  0  0  0  0
 14 33  1  0  0  0  0
 14 34  1  0  0  0  0
 15 16  2  0  0  0  0
 15 35  1  0  0  0  0
 16 17  1  0  0  0  0
 16 36  1  0  0  0  0
 17 18  2  0  0  0  0
M  END
> <s_m_source_file>
AV-unprocessed.smi

> <i_m_source_file_index>
2205

> <i_lp_mmshare_version>
43012

> <i_f3d_flags>
0

> <s_epik_input>
W0NIM11PW0NIMl1bQ0gyXW4xW2NIXWMoW2NIXVtjSF1jMT1PKVtOSF1DKD1PKVtDSF0yW0NIMl1bQ0gyXVtDSDJdMg==

> <s_epik_cmdline>
J2VwaWtfcHl0aG9uJywgJy1waCcsICc3LjAnLCAnLXRuJywgJzgnLCAnLW1hJywgJzIwMCcsICctbWV0YWxfYmluZGluZycsICctaW1hZScsICc8aW5maWxlLm1hZT4nLCAnLW9tYWUnLCAnPG91dGZpbGUubWFlPic=

> <r_lp_tautomer_probability>
1

> <r_epik_Ionization_Penalty>
2.40107e-06

> <r_epik_Ionization_Penalty_Charging>
2.27812e-06

> <r_epik_Ionization_Penalty_Neutral>
1.2295e-07

> <r_epik_State_Penalty>
-0

> <r_epik_Charging_Adjusted_Penalty>
2.27812e-06

> <i_epik_Tot_Q>
0

> <i_epik_Tot_abs_Q>
0

> <r_epik_Metal_State_Penalty>
-0

> <b_epik_Metal_Only>
0

> <s_lp_Force_Field>
OPLS_2005

> <r_lp_Energy>
28.3384

> <b_lp_Chiralities_Consistent>
1

> <s_lp_Variant>
AV-unprocessed.smi:2205-1

> <Gold.Version>
5.8.1

> <Gold.Id.Protein>
6NUR|6NUR_protein|mol2

> <Gold.PLP.Fitness>
46.8716

> <Gold.PLP.PLP>
-41.6587

> <Gold.PLP.part.hbond>
-2.0000

> <Gold.PLP.part.metal>
0.0000

> <Gold.PLP.part.buried>
-5.3248

> <Gold.PLP.part.nonpolar>
-35.0351

> <Gold.PLP.part.repulsive>
0.3182

> <Gold.PLP.ligand.clash>
0.0000

> <Gold.PLP.ligand.torsion>
0.6004

> <Gold.PLP.Chemscore.Hbond>
2.0000

> <Gold.PLP.Chemscore.CHOScore>
0.0000

> <Gold.PLP.Chemscore.Metal>
0.0000

> <Gold.Chemscore.Hbonds>
donor molecule, donor type, donor heavy atom, donor atom, acceptor molecule, acceptor atom, score
      L1  H     8    27       P1  8028  1.00
      P1  H  7997  8008       L1     2  0.19

> <Gold.PLP.Chemscore.Internal.Correction>
0.4137

> <Gold.Rescore>
     Score         DG    S(hbond)    S(metal)    S(lipo)     H(rot)  DE(clash)    DE(int)     intcor
     16.96     -18.83       1.98        0.00      91.61       1.56       0.02       1.85       ----

> <Gold.Chemscore.Fitness>
16.9586

> <Gold.Chemscore.DG>
-18.8319

> <Gold.Chemscore.ZeroCoef>
-5.4800

> <Gold.Chemscore.Hbond>
1.9838

> <Gold.Chemscore.Metal>
0.0000

> <Gold.Chemscore.Lipo>
91.6081

> <Gold.Chemscore.Internal_Hbond>
0.0000

> <Gold.Chemscore.DEClash>
0.0222

> <Gold.Chemscore.DEInternal>
1.8511

> <Gold.Chemscore.Rot>
1.5594

> <Gold.Chemscore.Internal.Correction>
   9.000000E+99

> <Gold.Chemscore.Hbonds>
donor molecule, donor type, donor heavy atom, donor atom, acceptor molecule, acceptor atom, score
      L1  H     8    27       P1  8028  1.00
      P1  H  7997  8008       L1     2  0.20

> <Gold.Chemscore.Hbond.Weighted>
-6.6258

> <Gold.Chemscore.Metal.Weighted>
-0.0000

> <Gold.Chemscore.Lipo.Weighted>
-10.7181

> <Gold.Chemscore.Internal_Hbond.Weighted>
0.0000

> <Gold.Chemscore.DEClash.Weighted>
0.0222

> <Gold.Chemscore.DEInternal.Weighted>
1.8511

> <Gold.Chemscore.Rot.Weighted>
3.9920

> <Gold.Chemscore.Internal.Correction.Weighted>
   9.000000E+99

> <Gold.Protein.RotatedTorsions>
[ 6907 6896 6895 6894 ] final  169.49 input  -60.11 | X-H torsion
[ 7974 7965 7964 7962 ] final  174.03 input  175.53 | X-H torsion
[ 8008 7997 7996 7995 ] final  -89.59 input   59.86 | X-H torsion
[ 10167 10162 10161 10158 ] final   45.69 input  -65.29 | X-H torsion
[ 10718 10713 10712 10709 ] final -169.08 input   66.30 | X-H torsion
[ 10763 10752 10751 10750 ] final   90.16 input  -60.55 | X-H torsion
[ 11005 11000 10999 10996 ] final   85.42 input  -57.11 | X-H torsion

> <Gold.Protein.ActiveResidues>
 VAL166  LYS551  ARG553  GLY616  TRP617  ASP618  TYR619  PRO620  LYS621  CYS622 
 ASP623  PHE694  ASN695  SER759  ASP760  ASP761  ALA762  ILE779  LEU786  VAL792 
 PHE793  MET794  SER795  GLU796  ALA797  LYS798  CYS799  TRP800  GLU811  SER814 

> <Gold.Protein.RotatedAtoms>
  151.8311  133.3408  159.3613 H   0  0  0  0  0  0  0  0  0  0  0  0  # atno 6907 bound_to 6896
  150.7264  134.5482  159.5790 H   0  0  0  0  0  0  0  0  0  0  0  0  # atno 6908 bound_to 6896
  152.2935  134.7695  160.0424 H   0  0  0  0  0  0  0  0  0  0  0  0  # atno 6909 bound_to 6896
  144.7230  139.9735  143.6437 H   0  0  0  0  0  0  0  0  0  0  0  0  # atno 7974 bound_to 7965
  154.6884  140.0540  157.0338 H   0  0  0  0  0  0  0  0  0  0  0  0  # atno 8008 bound_to 7997
  155.0852  140.3213  155.4571 H   0  0  0  0  0  0  0  0  0  0  0  0  # atno 8009 bound_to 7997
  156.2719  140.2058  156.5979 H   0  0  0  0  0  0  0  0  0  0  0  0  # atno 8010 bound_to 7997
  140.3216  144.2699  150.6182 H   0  0  0  0  0  0  0  0  0  0  0  0  # atno 10167 bound_to 10162
  156.7062  130.9216  151.3085 H   0  0  0  0  0  0  0  0  0  0  0  0  # atno 10718 bound_to 10713
  153.1947  135.4444  155.0192 H   0  0  0  0  0  0  0  0  0  0  0  0  # atno 10763 bound_to 10752
  154.8111  135.3295  154.7304 H   0  0  0  0  0  0  0  0  0  0  0  0  # atno 10764 bound_to 10752
  153.7755  135.6981  153.4953 H   0  0  0  0  0  0  0  0  0  0  0  0  # atno 10765 bound_to 10752
  139.8972  134.8286  156.2580 H   0  0  0  0  0  0  0  0  0  0  0  0  # atno 11005 bound_to 11000
  146.0544  139.3542  143.0620 LP  0  0  0  0  0  0  0  0  0  0  0  0  # atno 17320 bound_to 7965
  145.8174  140.9696  143.0917 LP  0  0  0  0  0  0  0  0  0  0  0  0  # atno 17321 bound_to 7965
  140.5479  143.2211  151.7977 LP  0  0  0  0  0  0  0  0  0  0  0  0  # atno 17342 bound_to 10162
  139.4873  144.4515  151.9648 LP  0  0  0  0  0  0  0  0  0  0  0  0  # atno 17343 bound_to 10162
  157.6954  130.9276  150.0629 LP  0  0  0  0  0  0  0  0  0  0  0  0  # atno 17370 bound_to 10713
  156.1693  130.3646  149.9188 LP  0  0  0  0  0  0  0  0  0  0  0  0  # atno 17371 bound_to 10713
  141.0181  133.7057  156.1222 LP  0  0  0  0  0  0  0  0  0  0  0  0  # atno 17394 bound_to 11000
  140.7273  134.4293  157.5569 LP  0  0  0  0  0  0  0  0  0  0  0  0  # atno 17395 bound_to 11000

$$$$
