AV-unprocessed.smi:261|AV-procd|sdf|1998|dock8
  -GOLD-   2262021193D 1   1.00000     0.00000
 Structure written by MMmdl.
 51 54  0  0  0  0  0  0  0  0  1 V2000
  147.2121  134.4084  159.1880 C   0  0  0  0  0  0  0  0  0  0  0  0
  148.0644  134.1519  158.0834 O   0  0  0  0  0  0  0  0  0  0  0  0
  147.5679  134.6439  156.8446 C   0  0  2  0  0  0  0  0  0  0  0  0
  148.2868  134.0134  155.6438 C   0  0  0  0  0  0  0  0  0  0  0  0
  149.5667  134.8451  155.4641 C   0  0  2  0  0  0  0  0  0  0  0  0
  150.7527  134.2439  156.2490 C   0  0  0  0  0  0  0  0  0  0  0  0
  150.7948  132.9217  156.4452 N   0  0  0  0  0  0  0  0  0  0  0  0
  151.6285  134.9857  156.6887 O   0  0  0  0  0  0  0  0  0  0  0  0
  149.1532  136.1743  155.9159 N   0  0  0  0  0  0  0  0  0  0  0  0
  149.7845  137.3434  155.6142 C   0  0  0  0  0  0  0  0  0  0  0  0
  150.0352  137.6075  154.3044 N   0  0  0  0  0  0  0  0  0  0  0  0
  150.6451  138.7370  153.9380 C   0  0  0  0  0  0  0  0  0  0  0  0
  151.0842  139.7329  154.7067 N   0  0  0  0  0  0  0  0  0  0  0  0
  150.8383  139.4840  156.0243 C   0  0  0  0  0  0  0  0  0  0  0  0
  150.2053  138.3254  156.5632 C   0  0  0  0  0  0  0  0  0  0  0  0
  150.1492  138.4383  157.9482 N   0  0  0  0  0  0  0  0  0  0  0  0
  150.7084  139.5865  158.2092 C   0  0  0  0  0  0  0  0  0  0  0  0
  151.1404  140.2898  157.1092 N   0  0  0  0  0  0  0  0  0  0  0  0
  151.7904  141.5934  157.0981 C   0  0  0  0  0  0  0  0  0  0  0  0
  150.8549  142.7666  157.4794 C   0  0  1  0  0  0  0  0  0  0  0  0
  149.5369  142.4274  157.0943 O   0  0  0  0  0  0  0  0  0  0  0  0
  150.8337  143.1042  158.9846 C   0  0  1  0  0  0  0  0  0  0  0  0
  152.1804  143.5589  159.5530 C   0  0  0  0  0  0  0  0  0  0  0  0
  151.7952  144.3791  160.7725 C   0  0  0  0  0  0  0  0  0  0  0  0
  150.3302  144.7399  160.5207 C   0  0  0  0  0  0  0  0  0  0  0  0
  150.0564  144.2722  159.2073 O   0  0  0  0  0  0  0  0  0  0  0  0
  147.9451  136.1254  156.7343 C   0  0  0  0  0  0  0  0  0  0  0  0
  146.4853  134.5157  156.7936 H   0  0  0  0  0  0  0  0  0  0  0  0
  149.8195  134.8565  154.4042 H   0  0  0  0  0  0  0  0  0  0  0  0
  147.6657  134.0101  160.0954 H   0  0  0  0  0  0  0  0  0  0  0  0
  146.2372  133.9359  159.0696 H   0  0  0  0  0  0  0  0  0  0  0  0
  147.0657  135.4796  159.3309 H   0  0  0  0  0  0  0  0  0  0  0  0
  148.4703  132.9444  155.7536 H   0  0  0  0  0  0  0  0  0  0  0  0
  147.6629  134.1327  154.7569 H   0  0  0  0  0  0  0  0  0  0  0  0
  151.5600  132.5154  156.9637 H   0  0  0  0  0  0  0  0  0  0  0  0
  150.0575  132.3360  156.0814 H   0  0  0  0  0  0  0  0  0  0  0  0
  150.8009  138.8611  152.8766 H   0  0  0  0  0  0  0  0  0  0  0  0
  150.8179  139.9478  159.2202 H   0  0  0  0  0  0  0  0  0  0  0  0
  152.6493  141.5564  157.7686 H   0  0  0  0  0  0  0  0  0  0  0  0
  152.1991  141.7591  156.1005 H   0  0  0  0  0  0  0  0  0  0  0  0
  151.1580  143.6506  156.9172 H   0  0  0  0  0  0  0  0  0  0  0  0
  149.1802  143.1381  156.5836 H   0  0  0  0  0  0  0  0  0  0  0  0
  150.4334  142.2767  159.5741 H   0  0  0  0  0  0  0  0  0  0  0  0
  152.8483  142.7350  159.7994 H   0  0  0  0  0  0  0  0  0  0  0  0
  152.6923  144.1984  158.8324 H   0  0  0  0  0  0  0  0  0  0  0  0
  151.8904  143.7934  161.6877 H   0  0  0  0  0  0  0  0  0  0  0  0
  152.4252  145.2637  160.8704 H   0  0  0  0  0  0  0  0  0  0  0  0
  149.6795  144.2273  161.2306 H   0  0  0  0  0  0  0  0  0  0  0  0
  150.1433  145.8112  160.5978 H   0  0  0  0  0  0  0  0  0  0  0  0
  147.1532  136.6763  156.2246 H   0  0  0  0  0  0  0  0  0  0  0  0
  148.0957  136.5791  157.7152 H   0  0  0  0  0  0  0  0  0  0  0  0
  1  2  1  0  0  0  0
  1 30  1  0  0  0  0
  1 31  1  0  0  0  0
  1 32  1  0  0  0  0
  2  3  1  0  0  0  0
  3 28  1  0  0  0  0
  3 27  1  0  0  0  0
  3  4  1  0  0  0  0
  4  5  1  0  0  0  0
  4 33  1  0  0  0  0
  4 34  1  0  0  0  0
  5 29  1  0  0  0  0
  5  6  1  0  0  0  0
  5  9  1  0  0  0  0
  6  7  1  0  0  0  0
  6  8  2  0  0  0  0
  7 35  1  0  0  0  0
  7 36  1  0  0  0  0
  9 10  1  0  0  0  0
  9 27  1  0  0  0  0
 10 15  1  0  0  0  0
 10 11  2  0  0  0  0
 11 12  1  0  0  0  0
 12 13  2  0  0  0  0
 12 37  1  0  0  0  0
 13 14  1  0  0  0  0
 14 18  1  0  0  0  0
 14 15  2  0  0  0  0
 15 16  1  0  0  0  0
 16 17  2  0  0  0  0
 17 18  1  0  0  0  0
 17 38  1  0  0  0  0
 18 19  1  0  0  0  0
 19 20  1  0  0  0  0
 19 39  1  0  0  0  0
 19 40  1  0  0  0  0
 20 21  1  0  0  0  0
 20 22  1  0  0  0  0
 20 41  1  0  0  0  0
 21 42  1  0  0  0  0
 22 26  1  0  0  0  0
 22 23  1  0  0  0  0
 22 43  1  0  0  0  0
 23 24  1  0  0  0  0
 23 44  1  0  0  0  0
 23 45  1  0  0  0  0
 24 25  1  0  0  0  0
 24 46  1  0  0  0  0
 24 47  1  0  0  0  0
 25 26  1  0  0  0  0
 25 48  1  0  0  0  0
 25 49  1  0  0  0  0
 27 50  1  0  0  0  0
 27 51  1  0  0  0  0
M  END
> <s_m_source_file>
AV-unprocessed.smi

> <i_m_source_file_index>
261

> <i_lp_mmshare_version>
43012

> <i_f3d_flags>
0

> <s_epik_input>
W0NIM11PW0NASF0xW0NIMl1bQ0BASF0oQyg9TylbTkgyXSlOKFtDSDJdMSljKG5bY0hdbjIpYyhjMjMpbltjSF1uM1tDSDJdW0NASF0oW09IXSlbQ0BASF00W0NIMl1bQ0gyXVtDSDJdTzQ=

> <s_epik_cmdline>
J2VwaWtfcHl0aG9uJywgJy1waCcsICc3LjAnLCAnLXRuJywgJzgnLCAnLW1hJywgJzIwMCcsICctbWV0YWxfYmluZGluZycsICctaW1hZScsICc8aW5maWxlLm1hZT4nLCAnLW9tYWUnLCAnPG91dGZpbGUubWFlPic=

> <r_lp_tautomer_probability>
1

> <r_epik_Ionization_Penalty>
0.000713824

> <r_epik_Ionization_Penalty_Charging>
0

> <r_epik_Ionization_Penalty_Neutral>
0.000713824

> <r_epik_State_Penalty>
0.000402132

> <r_epik_Charging_Adjusted_Penalty>
0.000402132

> <i_epik_Tot_Q>
0

> <i_epik_Tot_abs_Q>
0

> <r_epik_Metal_State_Penalty>
-0

> <b_epik_Metal_Only>
0

> <s_lp_Force_Field>
OPLS_2005

> <r_lp_Energy>
45.1221

> <b_lp_Chiralities_Consistent>
1

> <s_lp_Variant>
AV-unprocessed.smi:261-16

> <Gold.Version>
5.8.1

> <Gold.Id.Protein>
6NUR|6NUR_protein|mol2

> <Gold.PLP.Fitness>
43.2390

> <Gold.PLP.PLP>
-32.8664

> <Gold.PLP.part.hbond>
-4.0400

> <Gold.PLP.part.metal>
0.0000

> <Gold.PLP.part.buried>
-7.7074

> <Gold.PLP.part.nonpolar>
-21.7458

> <Gold.PLP.part.repulsive>
0.5979

> <Gold.PLP.ligand.clash>
0.0000

> <Gold.PLP.ligand.torsion>
2.3717

> <Gold.PLP.Chemscore.Hbond>
4.0000

> <Gold.PLP.Chemscore.CHOScore>
0.9985

> <Gold.PLP.Chemscore.Metal>
0.0000

> <Gold.Chemscore.Hbonds>
donor molecule, donor type, donor heavy atom, donor atom, acceptor molecule, acceptor atom, score
      L1  H    21    42       P1  8028  1.00
      P1  H  7989  7998       L1    13  1.00
      P1  H 10752 10763       L1     8  0.44
      L1  C    12    37       P1  7957  0.89

> <Gold.PLP.Chemscore.Internal.Correction>
0.1205

> <Gold.Rescore>
     Score         DG    S(hbond)    S(metal)    S(lipo)     H(rot)  DE(clash)    DE(int)     intcor
     14.59     -18.35       3.49        0.00      80.16       3.18       1.90       1.86       ----

> <Gold.Chemscore.Fitness>
14.5937

> <Gold.Chemscore.DG>
-18.3530

> <Gold.Chemscore.ZeroCoef>
-5.4800

> <Gold.Chemscore.Hbond>
3.4858

> <Gold.Chemscore.Metal>
0.0000

> <Gold.Chemscore.Lipo>
80.1630

> <Gold.Chemscore.Internal_Hbond>
0.0000

> <Gold.Chemscore.DEClash>
1.8972

> <Gold.Chemscore.DEInternal>
1.8620

> <Gold.Chemscore.Rot>
3.1831

> <Gold.Chemscore.Internal.Correction>
   9.000000E+99

> <Gold.Chemscore.Hbonds>
donor molecule, donor type, donor heavy atom, donor atom, acceptor molecule, acceptor atom, score
      L1  H    21    42       P1  8028  1.00
      P1  H  7989  7998       L1    13  0.30
      P1  H 10752 10763       L1     8  0.35

> <Gold.Chemscore.Hbond.Weighted>
-11.6425

> <Gold.Chemscore.Metal.Weighted>
-0.0000

> <Gold.Chemscore.Lipo.Weighted>
-9.3791

> <Gold.Chemscore.Internal_Hbond.Weighted>
0.0000

> <Gold.Chemscore.DEClash.Weighted>
1.8972

> <Gold.Chemscore.DEInternal.Weighted>
1.8620

> <Gold.Chemscore.Rot.Weighted>
8.1486

> <Gold.Chemscore.Internal.Correction.Weighted>
   9.000000E+99

> <Gold.Protein.RotatedTorsions>
[ 6907 6896 6895 6894 ] final -111.56 input  -60.11 | X-H torsion
[ 7974 7965 7964 7962 ] final   50.68 input  175.53 | X-H torsion
[ 8008 7997 7996 7995 ] final  116.39 input   59.86 | X-H torsion
[ 10167 10162 10161 10158 ] final  -27.03 input  -65.29 | X-H torsion
[ 10718 10713 10712 10709 ] final    1.60 input   66.30 | X-H torsion
[ 10763 10752 10751 10750 ] final   96.40 input  -60.55 | X-H torsion
[ 11005 11000 10999 10996 ] final  136.47 input  -57.11 | X-H torsion

> <Gold.Protein.ActiveResidues>
 VAL166  LYS551  ARG553  GLY616  TRP617  ASP618  TYR619  PRO620  LYS621  CYS622 
 ASP623  PHE694  ASN695  SER759  ASP760  ASP761  ALA762  ILE779  LEU786  VAL792 
 PHE793  MET794  SER795  GLU796  ALA797  LYS798  CYS799  TRP800  GLU811  SER814 

> <Gold.Protein.RotatedAtoms>
  150.7699  133.9217  159.3399 H   0  0  0  0  0  0  0  0  0  0  0  0  # atno 6907 bound_to 6896
  151.7106  135.0911  160.0276 H   0  0  0  0  0  0  0  0  0  0  0  0  # atno 6908 bound_to 6896
  152.3711  133.6383  159.6124 H   0  0  0  0  0  0  0  0  0  0  0  0  # atno 6909 bound_to 6896
  145.9988  139.4417  143.0028 H   0  0  0  0  0  0  0  0  0  0  0  0  # atno 7974 bound_to 7965
  156.2436  140.2918  156.0516 H   0  0  0  0  0  0  0  0  0  0  0  0  # atno 8008 bound_to 7997
  155.1875  140.0406  157.2911 H   0  0  0  0  0  0  0  0  0  0  0  0  # atno 8009 bound_to 7997
  154.6217  140.2477  155.7548 H   0  0  0  0  0  0  0  0  0  0  0  0  # atno 8010 bound_to 7997
  140.7279  143.4127  151.1078 H   0  0  0  0  0  0  0  0  0  0  0  0  # atno 10167 bound_to 10162
  156.8506  130.5552  149.5670 H   0  0  0  0  0  0  0  0  0  0  0  0  # atno 10718 bound_to 10713
  153.2646  135.4220  155.0927 H   0  0  0  0  0  0  0  0  0  0  0  0  # atno 10763 bound_to 10752
  154.8433  135.3457  154.6330 H   0  0  0  0  0  0  0  0  0  0  0  0  # atno 10764 bound_to 10752
  153.6750  135.7042  153.5192 H   0  0  0  0  0  0  0  0  0  0  0  0  # atno 10765 bound_to 10752
  140.0048  134.9463  157.0151 H   0  0  0  0  0  0  0  0  0  0  0  0  # atno 11005 bound_to 11000
  145.7519  140.9969  143.1246 LP  0  0  0  0  0  0  0  0  0  0  0  0  # atno 17320 bound_to 7965
  144.6912  139.9224  143.7468 LP  0  0  0  0  0  0  0  0  0  0  0  0  # atno 17321 bound_to 7965
  139.7763  143.8420  152.3130 LP  0  0  0  0  0  0  0  0  0  0  0  0  # atno 17342 bound_to 10162
  139.8356  144.7234  150.9395 LP  0  0  0  0  0  0  0  0  0  0  0  0  # atno 17343 bound_to 10162
  156.0830  130.5836  150.9598 LP  0  0  0  0  0  0  0  0  0  0  0  0  # atno 17370 bound_to 10713
  157.6305  131.0921  150.8450 LP  0  0  0  0  0  0  0  0  0  0  0  0  # atno 17371 bound_to 10713
  140.4661  134.1434  155.7197 LP  0  0  0  0  0  0  0  0  0  0  0  0  # atno 17394 bound_to 11000
  141.1669  133.8685  157.1688 LP  0  0  0  0  0  0  0  0  0  0  0  0  # atno 17395 bound_to 11000

$$$$
