AV-unprocessed.smi:101|AV-procd|sdf|926|dock4
  -GOLD-   2262017433D 1   1.00000     0.00000
 Structure written by MMmdl.
 44 46  0  0  0  0  0  0  0  0  1 V2000
  149.4146  133.7021  154.2730 C   0  0  0  0  0  0  0  0  0  0  0  0
  149.1576  134.5764  155.4892 C   0  0  0  0  0  0  0  0  0  0  0  0
  149.0124  135.9233  155.3994 C   0  0  0  0  0  0  0  0  0  0  0  0
  148.7776  136.7468  156.4926 N   0  0  0  0  0  0  0  0  0  0  0  0
  148.6070  138.2403  156.3333 C   0  0  1  0  0  0  0  0  0  0  0  0
  149.6029  138.8887  157.0687 O   0  0  0  0  0  0  0  0  0  0  0  0
  150.2447  139.8701  156.2615 C   0  0  1  0  0  0  0  0  0  0  0  0
  151.6847  140.0768  156.7438 C   0  0  0  0  0  0  0  0  0  0  0  0
  151.6698  140.8361  157.9412 O   0  0  0  0  0  0  0  0  0  0  0  0
  152.6992  140.7526  158.8057 C   0  0  0  0  0  0  0  0  0  0  0  0
  153.5851  139.8985  158.7312 O   0  0  0  0  0  0  0  0  0  0  0  0
  152.6553  141.8031  159.8636 C   0  0  0  0  0  0  0  0  0  0  0  0
  152.0294  143.0406  159.5858 C   0  0  0  0  0  0  0  0  0  0  0  0
  151.9725  144.0516  160.5648 C   0  0  0  0  0  0  0  0  0  0  0  0
  152.5414  143.8375  161.8336 C   0  0  0  0  0  0  0  0  0  0  0  0
  153.1673  142.6109  162.1223 C   0  0  0  0  0  0  0  0  0  0  0  0
  153.2249  141.5986  161.1445 C   0  0  0  0  0  0  0  0  0  0  0  0
  150.1496  139.2787  154.8566 C   0  0  2  0  0  0  0  0  0  0  0  0
  150.3239  140.2422  153.8347 O   0  0  0  0  0  0  0  0  0  0  0  0
  148.7662  138.6383  154.8562 C   0  0  2  0  0  0  0  0  0  0  0  0
  147.7453  139.5360  154.4591 O   0  0  0  0  0  0  0  0  0  0  0  0
  148.6451  136.1739  157.7740 C   0  0  0  0  0  0  0  0  0  0  0  0
  148.3956  136.8365  158.7804 O   0  0  0  0  0  0  0  0  0  0  0  0
  148.7998  134.7920  157.8676 N   0  0  0  0  0  0  0  0  0  0  0  0
  149.0577  133.9286  156.8002 C   0  0  0  0  0  0  0  0  0  0  0  0
  149.1767  132.7225  157.0100 O   0  0  0  0  0  0  0  0  0  0  0  0
  148.7123  134.3785  158.7845 H   0  0  0  0  0  0  0  0  0  0  0  0
  149.4692  134.2896  153.3561 H   0  0  0  0  0  0  0  0  0  0  0  0
  148.6149  132.9701  154.1541 H   0  0  0  0  0  0  0  0  0  0  0  0
  150.3575  133.1651  154.3825 H   0  0  0  0  0  0  0  0  0  0  0  0
  149.0783  136.3716  154.4189 H   0  0  0  0  0  0  0  0  0  0  0  0
  147.6369  138.4954  156.7648 H   0  0  0  0  0  0  0  0  0  0  0  0
  149.6757  140.8002  156.3132 H   0  0  0  0  0  0  0  0  0  0  0  0
  152.1780  139.1163  156.9006 H   0  0  0  0  0  0  0  0  0  0  0  0
  152.2540  140.6209  155.9890 H   0  0  0  0  0  0  0  0  0  0  0  0
  151.5856  143.2283  158.6186 H   0  0  0  0  0  0  0  0  0  0  0  0
  151.4913  144.9924  160.3411 H   0  0  0  0  0  0  0  0  0  0  0  0
  152.4983  144.6128  162.5843 H   0  0  0  0  0  0  0  0  0  0  0  0
  153.6056  142.4452  163.0954 H   0  0  0  0  0  0  0  0  0  0  0  0
  153.7138  140.6695  161.3992 H   0  0  0  0  0  0  0  0  0  0  0  0
  150.9024  138.4979  154.7378 H   0  0  0  0  0  0  0  0  0  0  0  0
  149.8405  139.9620  153.0725 H   0  0  0  0  0  0  0  0  0  0  0  0
  148.7264  137.7643  154.2045 H   0  0  0  0  0  0  0  0  0  0  0  0
  147.2893  139.1634  153.7197 H   0  0  0  0  0  0  0  0  0  0  0  0
  1  2  1  0  0  0  0
  1 28  1  0  0  0  0
  1 29  1  0  0  0  0
  1 30  1  0  0  0  0
  2 25  1  0  0  0  0
  2  3  2  0  0  0  0
  3  4  1  0  0  0  0
  3 31  1  0  0  0  0
  4  5  1  0  0  0  0
  4 22  1  0  0  0  0
  5 20  1  0  0  0  0
  5  6  1  0  0  0  0
  5 32  1  0  0  0  0
  6  7  1  0  0  0  0
  7  8  1  0  0  0  0
  7 18  1  0  0  0  0
  7 33  1  0  0  0  0
  8  9  1  0  0  0  0
  8 34  1  0  0  0  0
  8 35  1  0  0  0  0
  9 10  1  0  0  0  0
 10 11  2  0  0  0  0
 10 12  1  0  0  0  0
 12 17  1  0  0  0  0
 12 13  2  0  0  0  0
 13 14  1  0  0  0  0
 13 36  1  0  0  0  0
 14 15  2  0  0  0  0
 14 37  1  0  0  0  0
 15 16  1  0  0  0  0
 15 38  1  0  0  0  0
 16 17  2  0  0  0  0
 16 39  1  0  0  0  0
 17 40  1  0  0  0  0
 18 19  1  0  0  0  0
 18 20  1  0  0  0  0
 18 41  1  0  0  0  0
 19 42  1  0  0  0  0
 20 21  1  0  0  0  0
 20 43  1  0  0  0  0
 21 44  1  0  0  0  0
 22 23  2  0  0  0  0
 22 24  1  0  0  0  0
 24 27  1  0  0  0  0
 24 25  1  0  0  0  0
 25 26  2  0  0  0  0
M  END
> <s_m_source_file>
AV-unprocessed.smi

> <i_m_source_file_index>
101

> <i_lp_mmshare_version>
43012

> <i_f3d_flags>
0

> <s_epik_input>
Tz1jMVtuSF1jKD1PKW4oW2NIXWMxW0NIM10pW0NAQEhdMk9bQ0BIXShbQ0BASF0oW09IXSlbQ0BIXTJbT0hdKVtDSDJdT0MoPU8pYzNbY0hdW2NIXVtjSF1bY0hdW2NIXTM=

> <s_epik_cmdline>
J2VwaWtfcHl0aG9uJywgJy1waCcsICc3LjAnLCAnLXRuJywgJzgnLCAnLW1hJywgJzIwMCcsICctbWV0YWxfYmluZGluZycsICctaW1hZScsICc8aW5maWxlLm1hZT4nLCAnLW9tYWUnLCAnPG91dGZpbGUubWFlPic=

> <r_lp_tautomer_probability>
0.999537

> <r_epik_Ionization_Penalty>
0.00263537

> <r_epik_Ionization_Penalty_Charging>
0.00263428

> <r_epik_Ionization_Penalty_Neutral>
1.09111e-06

> <r_epik_State_Penalty>
0.00183335

> <r_epik_Charging_Adjusted_Penalty>
0.00446763

> <i_epik_Tot_Q>
0

> <i_epik_Tot_abs_Q>
0

> <r_epik_Metal_State_Penalty>
1.00528

> <b_epik_Metal_Only>
0

> <s_epik_Chemistry_Notes>
This compound has an ester and may undergo hydrolysis at high or low pH. This compound contains an acetal/aminal-like group ( X-CH(R)-Y where X, Y are N, S, or O) that may be acid/base labile, releasing an aldehyde.

> <s_lp_Force_Field>
OPLS_2005

> <r_lp_Energy>
34.5485

> <b_lp_Chiralities_Consistent>
1

> <s_lp_Variant>
AV-unprocessed.smi:101-14

> <Gold.Version>
5.8.1

> <Gold.Id.Protein>
6NUR|6NUR_protein|mol2

> <Gold.PLP.Fitness>
50.0324

> <Gold.PLP.PLP>
-40.1412

> <Gold.PLP.part.hbond>
-2.5881

> <Gold.PLP.part.metal>
0.0000

> <Gold.PLP.part.buried>
-4.4470

> <Gold.PLP.part.nonpolar>
-31.4754

> <Gold.PLP.part.repulsive>
0.0965

> <Gold.PLP.ligand.clash>
0.0000

> <Gold.PLP.ligand.torsion>
0.6689

> <Gold.PLP.Chemscore.Hbond>
2.7280

> <Gold.PLP.Chemscore.CHOScore>
1.0000

> <Gold.PLP.Chemscore.Metal>
0.0000

> <Gold.Chemscore.Hbonds>
donor molecule, donor type, donor heavy atom, donor atom, acceptor molecule, acceptor atom, score
      L1  H    19    42       P1  7957  0.96
      P1  H  7989  7998       L1    19  0.73
      P1  H  7997  8008       L1    11  1.00
      L1  C     3    31       P1  7948  0.96

> <Gold.PLP.Chemscore.Internal.Correction>
0.0451

> <Gold.Rescore>
     Score         DG    S(hbond)    S(metal)    S(lipo)     H(rot)  DE(clash)    DE(int)     intcor
     15.29     -17.12       2.48        0.00     101.14       3.32       0.14       1.69       ----

> <Gold.Chemscore.Fitness>
15.2890

> <Gold.Chemscore.DG>
-17.1194

> <Gold.Chemscore.ZeroCoef>
-5.4800

> <Gold.Chemscore.Hbond>
2.4843

> <Gold.Chemscore.Metal>
0.0000

> <Gold.Chemscore.Lipo>
101.1440

> <Gold.Chemscore.Internal_Hbond>
0.0000

> <Gold.Chemscore.DEClash>
0.1370

> <Gold.Chemscore.DEInternal>
1.6934

> <Gold.Chemscore.Rot>
3.3172

> <Gold.Chemscore.Internal.Correction>
   9.000000E+99

> <Gold.Chemscore.Hbonds>
donor molecule, donor type, donor heavy atom, donor atom, acceptor molecule, acceptor atom, score
      L1  H    19    42       P1  7957  0.92
      P1  H  7989  7998       L1    19  0.58
      P1  H  7997  8008       L1    11  0.86

> <Gold.Chemscore.Hbond.Weighted>
-8.2976

> <Gold.Chemscore.Metal.Weighted>
-0.0000

> <Gold.Chemscore.Lipo.Weighted>
-11.8338

> <Gold.Chemscore.Internal_Hbond.Weighted>
0.0000

> <Gold.Chemscore.DEClash.Weighted>
0.1370

> <Gold.Chemscore.DEInternal.Weighted>
1.6934

> <Gold.Chemscore.Rot.Weighted>
8.4920

> <Gold.Chemscore.Internal.Correction.Weighted>
   9.000000E+99

> <Gold.Protein.RotatedTorsions>
[ 6907 6896 6895 6894 ] final  -40.58 input  -60.11 | X-H torsion
[ 7974 7965 7964 7962 ] final  148.37 input  175.53 | X-H torsion
[ 8008 7997 7996 7995 ] final  -93.47 input   59.86 | X-H torsion
[ 10167 10162 10161 10158 ] final  134.51 input  -65.29 | X-H torsion
[ 10718 10713 10712 10709 ] final -108.12 input   66.30 | X-H torsion
[ 10763 10752 10751 10750 ] final  -29.87 input  -60.55 | X-H torsion
[ 11005 11000 10999 10996 ] final  173.49 input  -57.11 | X-H torsion

> <Gold.Protein.ActiveResidues>
 VAL166  LYS551  ARG553  GLY616  TRP617  ASP618  TYR619  PRO620  LYS621  CYS622 
 ASP623  PHE694  ASN695  SER759  ASP760  ASP761  ALA762  ILE779  LEU786  VAL792 
 PHE793  MET794  SER795  GLU796  ALA797  LYS798  CYS799  TRP800  GLU811  SER814 

> <Gold.Protein.RotatedAtoms>
  150.9768  134.9131  159.7820 H   0  0  0  0  0  0  0  0  0  0  0  0  # atno 6907 bound_to 6896
  152.5208  134.3465  159.9246 H   0  0  0  0  0  0  0  0  0  0  0  0  # atno 6908 bound_to 6896
  151.3473  133.3898  159.2711 H   0  0  0  0  0  0  0  0  0  0  0  0  # atno 6909 bound_to 6896
  144.8519  139.6145  143.5970 H   0  0  0  0  0  0  0  0  0  0  0  0  # atno 7974 bound_to 7965
  154.7361  140.0498  157.0770 H   0  0  0  0  0  0  0  0  0  0  0  0  # atno 8008 bound_to 7997
  155.0238  140.3150  155.4764 H   0  0  0  0  0  0  0  0  0  0  0  0  # atno 8009 bound_to 7997
  156.2853  140.2162  156.5357 H   0  0  0  0  0  0  0  0  0  0  0  0  # atno 8010 bound_to 7997
  139.5253  144.6563  151.5150 H   0  0  0  0  0  0  0  0  0  0  0  0  # atno 10167 bound_to 10162
  156.0469  130.5697  150.7916 H   0  0  0  0  0  0  0  0  0  0  0  0  # atno 10718 bound_to 10713
  153.7716  135.6912  153.4905 H   0  0  0  0  0  0  0  0  0  0  0  0  # atno 10763 bound_to 10752
  153.1870  135.4485  155.0100 H   0  0  0  0  0  0  0  0  0  0  0  0  # atno 10764 bound_to 10752
  154.8115  135.3380  154.7225 H   0  0  0  0  0  0  0  0  0  0  0  0  # atno 10765 bound_to 10752
  140.3410  134.7276  157.4202 H   0  0  0  0  0  0  0  0  0  0  0  0  # atno 11005 bound_to 11000
  146.2792  139.6832  142.9241 LP  0  0  0  0  0  0  0  0  0  0  0  0  # atno 17320 bound_to 7965
  145.4482  141.0427  143.2819 LP  0  0  0  0  0  0  0  0  0  0  0  0  # atno 17321 bound_to 7965
  140.6391  143.8925  150.6675 LP  0  0  0  0  0  0  0  0  0  0  0  0  # atno 17342 bound_to 10162
  140.2254  143.3777  152.1609 LP  0  0  0  0  0  0  0  0  0  0  0  0  # atno 17343 bound_to 10162
  157.5355  131.0938  150.9898 LP  0  0  0  0  0  0  0  0  0  0  0  0  # atno 17370 bound_to 10713
  157.0193  130.5668  149.5329 LP  0  0  0  0  0  0  0  0  0  0  0  0  # atno 17371 bound_to 10713
  140.0781  134.5769  155.8569 LP  0  0  0  0  0  0  0  0  0  0  0  0  # atno 17394 bound_to 11000
  141.2038  133.6635  156.6086 LP  0  0  0  0  0  0  0  0  0  0  0  0  # atno 17395 bound_to 11000

$$$$
