AV-unprocessed.smi:595|AV-procd|sdf|3018|dock10
  -GOLD-   2262023523D 1   1.00000     0.00000
 Structure written by MMmdl.
 39 40  0  0  0  0  0  0  0  0  1 V2000
  143.9916  135.9769  151.5906 O   0  0  0  0  0  0  0  0  0  0  0  0
  145.1906  135.7164  151.4621 C   0  0  0  0  0  0  0  0  0  0  0  0
  145.6289  134.5816  150.5238 C   0  0  0  0  0  0  0  0  0  0  0  0
  145.9052  133.3249  151.2393 N   0  0  0  0  0  0  0  0  0  0  0  0
  146.9406  133.3536  152.1942 C   0  0  0  0  0  0  0  0  0  0  0  0
  147.2881  132.2819  152.9320 C   0  0  0  0  0  0  0  0  0  0  0  0
  148.4433  132.3311  153.9199 C   0  0  0  0  0  0  0  0  0  0  0  0
  149.2582  131.2885  153.7579 F   0  0  0  0  0  0  0  0  0  0  0  0
  149.1568  133.4480  153.7710 F   0  0  0  0  0  0  0  0  0  0  0  0
  147.9746  132.3021  155.1666 F   0  0  0  0  0  0  0  0  0  0  0  0
  146.5599  131.0559  152.6705 C   0  0  0  0  0  0  0  0  0  0  0  0
  145.5712  131.0095  151.7565 C   0  0  0  0  0  0  0  0  0  0  0  0
  145.1853  132.1919  150.9828 C   0  0  0  0  0  0  0  0  0  0  0  0
  144.2720  132.1645  150.1580 O   0  0  0  0  0  0  0  0  0  0  0  0
  146.2052  136.3566  152.0881 N   0  0  0  0  0  0  0  0  0  0  0  0
  146.2008  137.3846  152.9699 C   0  0  0  0  0  0  0  0  0  0  0  0
  145.1426  137.8015  153.4384 O   0  0  0  0  0  0  0  0  0  0  0  0
  147.3927  137.9152  153.3027 N   0  0  0  0  0  0  0  0  0  0  0  0
  147.6103  138.9246  154.3347 C   0  0  0  0  0  0  0  0  0  0  0  0
  146.7674  140.1791  154.0442 C   0  0  0  0  0  0  0  0  0  0  0  0
  147.7545  141.2448  153.5688 C   0  0  0  0  0  0  0  0  0  0  0  0
  149.0389  140.9236  154.3263 C   0  0  0  0  0  0  0  0  0  0  0  0
  149.0796  139.3950  154.3730 C   0  0  0  0  0  0  0  0  0  0  0  0
  144.8621  134.4499  149.7590 H   0  0  0  0  0  0  0  0  0  0  0  0
  146.5226  134.8873  149.9766 H   0  0  0  0  0  0  0  0  0  0  0  0
  147.4326  134.3110  152.2910 H   0  0  0  0  0  0  0  0  0  0  0  0
  146.8080  130.1595  153.2197 H   0  0  0  0  0  0  0  0  0  0  0  0
  145.0489  130.0790  151.5891 H   0  0  0  0  0  0  0  0  0  0  0  0
  147.1256  136.0102  151.8600 H   0  0  0  0  0  0  0  0  0  0  0  0
  148.2093  137.5916  152.8031 H   0  0  0  0  0  0  0  0  0  0  0  0
  147.3162  138.5193  155.3046 H   0  0  0  0  0  0  0  0  0  0  0  0
  145.9677  140.0073  153.3220 H   0  0  0  0  0  0  0  0  0  0  0  0
  146.2966  140.5165  154.9684 H   0  0  0  0  0  0  0  0  0  0  0  0
  147.9235  141.1389  152.4964 H   0  0  0  0  0  0  0  0  0  0  0  0
  147.3998  142.2591  153.7533 H   0  0  0  0  0  0  0  0  0  0  0  0
  149.9238  141.3532  153.8564 H   0  0  0  0  0  0  0  0  0  0  0  0
  148.9742  141.3203  155.3403 H   0  0  0  0  0  0  0  0  0  0  0  0
  149.6044  139.0303  155.2565 H   0  0  0  0  0  0  0  0  0  0  0  0
  149.6249  139.0287  153.5017 H   0  0  0  0  0  0  0  0  0  0  0  0
  1  2  2  0  0  0  0
  2  3  1  0  0  0  0
  2 15  1  0  0  0  0
  3  4  1  0  0  0  0
  3 24  1  0  0  0  0
  3 25  1  0  0  0  0
  4 13  1  0  0  0  0
  4  5  1  0  0  0  0
  5  6  2  0  0  0  0
  5 26  1  0  0  0  0
  6  7  1  0  0  0  0
  6 11  1  0  0  0  0
  7  8  1  0  0  0  0
  7  9  1  0  0  0  0
  7 10  1  0  0  0  0
 11 12  2  0  0  0  0
 11 27  1  0  0  0  0
 12 13  1  0  0  0  0
 12 28  1  0  0  0  0
 13 14  2  0  0  0  0
 15 16  1  0  0  0  0
 15 29  1  0  0  0  0
 16 17  2  0  0  0  0
 16 18  1  0  0  0  0
 18 19  1  0  0  0  0
 18 30  1  0  0  0  0
 19 23  1  0  0  0  0
 19 20  1  0  0  0  0
 19 31  1  0  0  0  0
 20 21  1  0  0  0  0
 20 32  1  0  0  0  0
 20 33  1  0  0  0  0
 21 22  1  0  0  0  0
 21 34  1  0  0  0  0
 21 35  1  0  0  0  0
 22 23  1  0  0  0  0
 22 36  1  0  0  0  0
 22 37  1  0  0  0  0
 23 38  1  0  0  0  0
 23 39  1  0  0  0  0
M  END
> <s_m_source_file>
AV-unprocessed.smi

> <i_m_source_file_index>
595

> <i_lp_mmshare_version>
43012

> <i_f3d_flags>
0

> <s_epik_input>
W0NIMl0xW0NIMl1bQ0gyXVtDSDJdW0NIXTFbTkhdQyg9TylbTkhdQyg9TylbQ0gyXW4yW2NIXWMoQyhGKShGKUYpW2NIXVtjSF1jMj1P

> <s_epik_cmdline>
J2VwaWtfcHl0aG9uJywgJy1waCcsICc3LjAnLCAnLXRuJywgJzgnLCAnLW1hJywgJzIwMCcsICctbWV0YWxfYmluZGluZycsICctaW1hZScsICc8aW5maWxlLm1hZT4nLCAnLW9tYWUnLCAnPG91dGZpbGUubWFlPic=

> <r_lp_tautomer_probability>
1

> <r_epik_Ionization_Penalty>
3.29047e-05

> <r_epik_Ionization_Penalty_Charging>
1.42456e-08

> <r_epik_Ionization_Penalty_Neutral>
3.28905e-05

> <r_epik_State_Penalty>
-0

> <r_epik_Charging_Adjusted_Penalty>
1.42456e-08

> <i_epik_Tot_Q>
0

> <i_epik_Tot_abs_Q>
0

> <r_epik_Metal_State_Penalty>
-0

> <b_epik_Metal_Only>
0

> <s_lp_Force_Field>
OPLS_2005

> <r_lp_Energy>
34.7393

> <b_lp_Chiralities_Consistent>
1

> <s_lp_Variant>
AV-unprocessed.smi:595-1

> <Gold.Version>
5.8.1

> <Gold.Id.Protein>
6NUR|6NUR_protein|mol2

> <Gold.PLP.Fitness>
45.0073

> <Gold.PLP.PLP>
-38.6797

> <Gold.PLP.part.hbond>
-2.0000

> <Gold.PLP.part.metal>
0.0000

> <Gold.PLP.part.buried>
-4.9262

> <Gold.PLP.part.nonpolar>
-33.1411

> <Gold.PLP.part.repulsive>
0.6025

> <Gold.PLP.ligand.clash>
1.0301

> <Gold.PLP.ligand.torsion>
0.7982

> <Gold.PLP.Chemscore.Hbond>
1.9600

> <Gold.PLP.Chemscore.CHOScore>
1.0000

> <Gold.PLP.Chemscore.Metal>
0.0000

> <Gold.Chemscore.Hbonds>
donor molecule, donor type, donor heavy atom, donor atom, acceptor molecule, acceptor atom, score
      L1  H    15    29       P1  7948  1.00
      L1  H    18    30       P1  7948  0.94
      L1  C     5    26       P1  7948  1.00

> <Gold.PLP.Chemscore.Internal.Correction>
0.0741

> <Gold.Rescore>
     Score         DG    S(hbond)    S(metal)    S(lipo)     H(rot)  DE(clash)    DE(int)     intcor
     12.34     -15.28       1.87        0.00      67.10       1.68       0.05       2.88       ----

> <Gold.Chemscore.Fitness>
12.3412

> <Gold.Chemscore.DG>
-15.2763

> <Gold.Chemscore.ZeroCoef>
-5.4800

> <Gold.Chemscore.Hbond>
1.8663

> <Gold.Chemscore.Metal>
0.0000

> <Gold.Chemscore.Lipo>
67.1026

> <Gold.Chemscore.Internal_Hbond>
0.0000

> <Gold.Chemscore.DEClash>
0.0540

> <Gold.Chemscore.DEInternal>
2.8811

> <Gold.Chemscore.Rot>
1.6750

> <Gold.Chemscore.Internal.Correction>
   9.000000E+99

> <Gold.Chemscore.Hbonds>
donor molecule, donor type, donor heavy atom, donor atom, acceptor molecule, acceptor atom, score
      L1  H    15    29       P1  7948  0.95
      L1  H    18    30       P1  7948  0.91

> <Gold.Chemscore.Hbond.Weighted>
-6.2335

> <Gold.Chemscore.Metal.Weighted>
-0.0000

> <Gold.Chemscore.Lipo.Weighted>
-7.8510

> <Gold.Chemscore.Internal_Hbond.Weighted>
0.0000

> <Gold.Chemscore.DEClash.Weighted>
0.0540

> <Gold.Chemscore.DEInternal.Weighted>
2.8811

> <Gold.Chemscore.Rot.Weighted>
4.2881

> <Gold.Chemscore.Internal.Correction.Weighted>
   9.000000E+99

> <Gold.Protein.RotatedTorsions>
[ 6907 6896 6895 6894 ] final -122.11 input  -60.11 | X-H torsion
[ 7974 7965 7964 7962 ] final  136.68 input  175.53 | X-H torsion
[ 8008 7997 7996 7995 ] final -170.26 input   59.86 | X-H torsion
[ 10167 10162 10161 10158 ] final   17.60 input  -65.29 | X-H torsion
[ 10718 10713 10712 10709 ] final -123.36 input   66.30 | X-H torsion
[ 10763 10752 10751 10750 ] final   99.55 input  -60.55 | X-H torsion
[ 11005 11000 10999 10996 ] final   25.39 input  -57.11 | X-H torsion

> <Gold.Protein.ActiveResidues>
 VAL166  LYS551  ARG553  GLY616  TRP617  ASP618  TYR619  PRO620  LYS621  CYS622 
 ASP623  PHE694  ASN695  SER759  ASP760  ASP761  ALA762  ILE779  LEU786  VAL792 
 PHE793  MET794  SER795  GLU796  ALA797  LYS798  CYS799  TRP800  GLU811  SER814 

> <Gold.Protein.RotatedAtoms>
  150.8545  133.7736  159.3013 H   0  0  0  0  0  0  0  0  0  0  0  0  # atno 6907 bound_to 6896
  151.5398  135.1067  159.9933 H   0  0  0  0  0  0  0  0  0  0  0  0  # atno 6908 bound_to 6896
  152.4579  133.7717  159.6858 H   0  0  0  0  0  0  0  0  0  0  0  0  # atno 6909 bound_to 6896
  144.9541  139.4784  143.5511 H   0  0  0  0  0  0  0  0  0  0  0  0  # atno 7974 bound_to 7965
  155.9160  140.1066  157.1243 H   0  0  0  0  0  0  0  0  0  0  0  0  # atno 8008 bound_to 7997
  154.4046  140.1265  156.4683 H   0  0  0  0  0  0  0  0  0  0  0  0  # atno 8009 bound_to 7997
  155.7253  140.3469  155.5037 H   0  0  0  0  0  0  0  0  0  0  0  0  # atno 8010 bound_to 7997
  140.5714  143.9154  150.6716 H   0  0  0  0  0  0  0  0  0  0  0  0  # atno 10167 bound_to 10162
  156.1496  130.6525  150.9893 H   0  0  0  0  0  0  0  0  0  0  0  0  # atno 10718 bound_to 10713
  153.3028  135.4109  155.1268 H   0  0  0  0  0  0  0  0  0  0  0  0  # atno 10763 bound_to 10752
  154.8554  135.3545  154.5829 H   0  0  0  0  0  0  0  0  0  0  0  0  # atno 10764 bound_to 10752
  153.6254  135.7063  153.5353 H   0  0  0  0  0  0  0  0  0  0  0  0  # atno 10765 bound_to 10752
  140.3484  134.2256  155.7682 H   0  0  0  0  0  0  0  0  0  0  0  0  # atno 11005 bound_to 11000
  146.3331  139.8647  142.8850 LP  0  0  0  0  0  0  0  0  0  0  0  0  # atno 17320 bound_to 7965
  145.2799  141.0135  143.3723 LP  0  0  0  0  0  0  0  0  0  0  0  0  # atno 17321 bound_to 7965
  140.2630  143.3510  152.1306 LP  0  0  0  0  0  0  0  0  0  0  0  0  # atno 17342 bound_to 10162
  139.5119  144.6909  151.5763 LP  0  0  0  0  0  0  0  0  0  0  0  0  # atno 17343 bound_to 10162
  157.6645  131.0874  150.7760 LP  0  0  0  0  0  0  0  0  0  0  0  0  # atno 17370 bound_to 10713
  156.7829  130.4865  149.5398 LP  0  0  0  0  0  0  0  0  0  0  0  0  # atno 17371 bound_to 10713
  141.2019  133.7951  157.0417 LP  0  0  0  0  0  0  0  0  0  0  0  0  # atno 17394 bound_to 11000
  140.0723  134.9695  157.1488 LP  0  0  0  0  0  0  0  0  0  0  0  0  # atno 17395 bound_to 11000

$$$$
