AV-unprocessed.smi:2706|AV-procd|sdf|10446|dock2
  -GOLD-   2272014483D 1   1.00000     0.00000
 Structure written by MMmdl.
 43 46  0  0  0  0  0  0  0  0  1 V2000
  152.7661  139.9234  159.5125 C   0  0  0  0  0  0  0  0  0  0  0  0
  153.0008  141.2619  160.0454 N   0  0  0  0  0  0  0  0  0  0  0  0
  153.7107  141.4300  161.3071 C   0  0  0  0  0  0  0  0  0  0  0  0
  152.5352  142.3914  159.3345 C   0  0  0  0  0  0  0  0  0  0  0  0
  152.8132  143.7093  159.7697 C   0  0  0  0  0  0  0  0  0  0  0  0
  152.3256  144.7917  159.0157 C   0  0  0  0  0  0  0  0  0  0  0  0
  151.5773  144.5321  157.8536 C   0  0  0  0  0  0  0  0  0  0  0  0
  151.3323  143.1948  157.4776 C   0  0  0  0  0  0  0  0  0  0  0  0
  150.5708  143.0271  156.2904 N   0  0  0  0  0  0  0  0  0  0  0  0
  149.6895  142.0527  156.0025 C   0  0  0  0  0  0  0  0  0  0  0  0
  149.3664  141.1385  156.7621 O   0  0  0  0  0  0  0  0  0  0  0  0
  149.1898  142.2013  154.7679 N   0  0  0  0  0  0  0  0  0  0  0  0
  148.2126  141.3554  154.1602 C   0  0  2  0  0  0  0  0  0  0  0  0
  146.7476  141.7691  154.0899 C   0  0  2  0  0  0  0  0  0  0  0  0
  145.9736  142.7198  155.0059 C   0  0  1  0  0  0  0  0  0  0  0  0
  144.6232  142.0443  155.3283 C   0  0  0  0  0  0  0  0  0  0  0  0
  145.0455  140.8935  156.2774 C   0  0  0  0  0  0  0  0  0  0  0  0
  146.5767  141.0775  156.3602 C   0  0  2  0  0  0  0  0  0  0  0  0
  146.6400  142.6048  156.3766 C   0  0  0  0  0  0  0  0  0  0  0  0
  147.1579  140.6543  155.0088 C   0  0  2  0  0  0  0  0  0  0  0  0
  151.8095  142.1621  158.2137 N   0  0  0  0  0  0  0  0  0  0  0  0
  151.6967  139.7252  159.4332 H   0  0  0  0  0  0  0  0  0  0  0  0
  153.2016  139.1566  160.1529 H   0  0  0  0  0  0  0  0  0  0  0  0
  153.2101  139.8213  158.5214 H   0  0  0  0  0  0  0  0  0  0  0  0
  153.0853  141.9514  162.0323 H   0  0  0  0  0  0  0  0  0  0  0  0
  154.6265  142.0030  161.1587 H   0  0  0  0  0  0  0  0  0  0  0  0
  153.9868  140.4676  161.7381 H   0  0  0  0  0  0  0  0  0  0  0  0
  153.3889  143.9105  160.6604 H   0  0  0  0  0  0  0  0  0  0  0  0
  152.5239  145.8075  159.3242 H   0  0  0  0  0  0  0  0  0  0  0  0
  151.1965  145.3527  157.2630 H   0  0  0  0  0  0  0  0  0  0  0  0
  150.7163  143.7274  155.5785 H   0  0  0  0  0  0  0  0  0  0  0  0
  149.5166  142.9799  154.2149 H   0  0  0  0  0  0  0  0  0  0  0  0
  148.5635  140.7723  153.3098 H   0  0  0  0  0  0  0  0  0  0  0  0
  146.2296  141.5027  153.1703 H   0  0  0  0  0  0  0  0  0  0  0  0
  145.8954  143.7293  154.6022 H   0  0  0  0  0  0  0  0  0  0  0  0
  143.9491  142.7357  155.8357 H   0  0  0  0  0  0  0  0  0  0  0  0
  144.1169  141.6806  154.4331 H   0  0  0  0  0  0  0  0  0  0  0  0
  144.5818  141.0116  157.2575 H   0  0  0  0  0  0  0  0  0  0  0  0
  144.7658  139.9122  155.8919 H   0  0  0  0  0  0  0  0  0  0  0  0
  147.0530  140.5767  157.2035 H   0  0  0  0  0  0  0  0  0  0  0  0
  147.6377  143.0286  156.4444 H   0  0  0  0  0  0  0  0  0  0  0  0
  146.0516  143.0524  157.1807 H   0  0  0  0  0  0  0  0  0  0  0  0
  146.9156  139.6361  154.7094 H   0  0  0  0  0  0  0  0  0  0  0  0
  1  2  1  0  0  0  0
  1 22  1  0  0  0  0
  1 23  1  0  0  0  0
  1 24  1  0  0  0  0
  2  3  1  0  0  0  0
  2  4  1  0  0  0  0
  3 25  1  0  0  0  0
  3 26  1  0  0  0  0
  3 27  1  0  0  0  0
  4 21  1  0  0  0  0
  4  5  2  0  0  0  0
  5  6  1  0  0  0  0
  5 28  1  0  0  0  0
  6  7  2  0  0  0  0
  6 29  1  0  0  0  0
  7  8  1  0  0  0  0
  7 30  1  0  0  0  0
  8  9  1  0  0  0  0
  8 21  2  0  0  0  0
  9 10  1  0  0  0  0
  9 31  1  0  0  0  0
 10 11  2  0  0  0  0
 10 12  1  0  0  0  0
 12 13  1  0  0  0  0
 12 32  1  0  0  0  0
 13 20  1  0  0  0  0
 13 14  1  0  0  0  0
 13 33  1  0  0  0  0
 14 20  1  0  0  0  0
 14 15  1  0  0  0  0
 14 34  1  0  0  0  0
 15 19  1  0  0  0  0
 15 16  1  0  0  0  0
 15 35  1  0  0  0  0
 16 17  1  0  0  0  0
 16 36  1  0  0  0  0
 16 37  1  0  0  0  0
 17 18  1  0  0  0  0
 17 38  1  0  0  0  0
 17 39  1  0  0  0  0
 18 19  1  0  0  0  0
 18 20  1  0  0  0  0
 18 40  1  0  0  0  0
 19 41  1  0  0  0  0
 19 42  1  0  0  0  0
 20 43  1  0  0  0  0
M  END
> <s_m_source_file>
AV-unprocessed.smi

> <i_m_source_file_index>
2706

> <i_lp_mmshare_version>
43012

> <i_f3d_flags>
0

> <s_epik_input>
W0NIM11OKFtDSDNdKWMxW2NIXVtjSF1bY0hdYyhuMSlbTkhdQyg9TylbTkhdW0NASF0yW0NAQEhdM1tDQEBIXShbQ0gyXTQpW0NIMl1bQ0gyXVtDQEBIXTRbQ0BIXTIz

> <s_epik_cmdline>
J2VwaWtfcHl0aG9uJywgJy1waCcsICc3LjAnLCAnLXRuJywgJzgnLCAnLW1hJywgJzIwMCcsICctbWV0YWxfYmluZGluZycsICctaW1hZScsICc8aW5maWxlLm1hZT4nLCAnLW9tYWUnLCAnPG91dGZpbGUubWFlPic=

> <r_lp_tautomer_probability>
1

> <r_epik_Ionization_Penalty>
0.0296788

> <r_epik_Ionization_Penalty_Charging>
0

> <r_epik_Ionization_Penalty_Neutral>
0.0296788

> <r_epik_State_Penalty>
0.0248512

> <r_epik_Charging_Adjusted_Penalty>
0.0248512

> <i_epik_Tot_Q>
0

> <i_epik_Tot_abs_Q>
0

> <r_epik_Metal_State_Penalty>
0.0237882

> <b_epik_Metal_Only>
0

> <s_lp_Force_Field>
OPLS_2005

> <r_lp_Energy>
83.6561

> <b_lp_Chiralities_Consistent>
1

> <s_lp_Variant>
AV-unprocessed.smi:2706-3

> <Gold.Version>
5.8.1

> <Gold.Id.Protein>
6NUR|6NUR_protein|mol2

> <Gold.PLP.Fitness>
41.5017

> <Gold.PLP.PLP>
-42.4792

> <Gold.PLP.part.hbond>
-1.7690

> <Gold.PLP.part.metal>
0.0000

> <Gold.PLP.part.buried>
-3.2140

> <Gold.PLP.part.nonpolar>
-38.4729

> <Gold.PLP.part.repulsive>
1.2709

> <Gold.PLP.ligand.clash>
0.0000

> <Gold.PLP.ligand.torsion>
0.5599

> <Gold.PLP.Chemscore.Hbond>
0.0296

> <Gold.PLP.Chemscore.CHOScore>
0.0000

> <Gold.PLP.Chemscore.Metal>
0.0000

> <Gold.Chemscore.Hbonds>
donor molecule, donor type, donor heavy atom, donor atom, acceptor molecule, acceptor atom, score
      L1  H     9    31       P1  8028  0.03

> <Gold.PLP.Chemscore.Internal.Correction>
0.0533

> <Gold.Rescore>
     Score         DG    S(hbond)    S(metal)    S(lipo)     H(rot)  DE(clash)    DE(int)     intcor
      8.70     -13.59       0.21        0.00      85.07       1.00       1.09       3.80       ----

> <Gold.Chemscore.Fitness>
8.6959

> <Gold.Chemscore.DG>
-13.5859

> <Gold.Chemscore.ZeroCoef>
-5.4800

> <Gold.Chemscore.Hbond>
0.2134

> <Gold.Chemscore.Metal>
0.0000

> <Gold.Chemscore.Lipo>
85.0693

> <Gold.Chemscore.Internal_Hbond>
0.0000

> <Gold.Chemscore.DEClash>
1.0857

> <Gold.Chemscore.DEInternal>
3.8043

> <Gold.Chemscore.Rot>
1.0000

> <Gold.Chemscore.Internal.Correction>
   9.000000E+99

> <Gold.Chemscore.Hbonds>
donor molecule, donor type, donor heavy atom, donor atom, acceptor molecule, acceptor atom, score
      L1  H     9    31       P1  8028  0.06
      L1  H    12    32       P1  8028  0.02

> <Gold.Chemscore.Hbond.Weighted>
-0.7127

> <Gold.Chemscore.Metal.Weighted>
-0.0000

> <Gold.Chemscore.Lipo.Weighted>
-9.9531

> <Gold.Chemscore.Internal_Hbond.Weighted>
0.0000

> <Gold.Chemscore.DEClash.Weighted>
1.0857

> <Gold.Chemscore.DEInternal.Weighted>
3.8043

> <Gold.Chemscore.Rot.Weighted>
2.5600

> <Gold.Chemscore.Internal.Correction.Weighted>
   9.000000E+99

> <Gold.Protein.RotatedTorsions>
[ 6907 6896 6895 6894 ] final -105.06 input  -60.11 | X-H torsion
[ 7974 7965 7964 7962 ] final  -64.31 input  175.53 | X-H torsion
[ 8008 7997 7996 7995 ] final -105.70 input   59.86 | X-H torsion
[ 10167 10162 10161 10158 ] final  157.58 input  -65.29 | X-H torsion
[ 10718 10713 10712 10709 ] final   98.03 input   66.30 | X-H torsion
[ 10763 10752 10751 10750 ] final  112.30 input  -60.55 | X-H torsion
[ 11005 11000 10999 10996 ] final   80.64 input  -57.11 | X-H torsion

> <Gold.Protein.ActiveResidues>
 VAL166  LYS551  ARG553  GLY616  TRP617  ASP618  TYR619  PRO620  LYS621  CYS622 
 ASP623  PHE694  ASN695  SER759  ASP760  ASP761  ALA762  ILE779  LEU786  VAL792 
 PHE793  MET794  SER795  GLU796  ALA797  LYS798  CYS799  TRP800  GLU811  SER814 

> <Gold.Protein.RotatedAtoms>
  150.7317  134.0184  159.3692 H   0  0  0  0  0  0  0  0  0  0  0  0  # atno 6907 bound_to 6896
  151.8148  135.0668  160.0427 H   0  0  0  0  0  0  0  0  0  0  0  0  # atno 6908 bound_to 6896
  152.3047  133.5654  159.5677 H   0  0  0  0  0  0  0  0  0  0  0  0  # atno 6909 bound_to 6896
  145.7683  140.8826  143.0393 H   0  0  0  0  0  0  0  0  0  0  0  0  # atno 7974 bound_to 7965
  154.9037  140.0412  157.1907 H   0  0  0  0  0  0  0  0  0  0  0  0  # atno 8008 bound_to 7997
  154.8418  140.2915  155.5633 H   0  0  0  0  0  0  0  0  0  0  0  0  # atno 8009 bound_to 7997
  156.2992  140.2481  156.3362 H   0  0  0  0  0  0  0  0  0  0  0  0  # atno 8010 bound_to 7997
  139.4823  144.4904  151.8316 H   0  0  0  0  0  0  0  0  0  0  0  0  # atno 10167 bound_to 10162
  157.6902  131.0628  150.4734 H   0  0  0  0  0  0  0  0  0  0  0  0  # atno 10718 bound_to 10713
  153.4758  135.3690  155.2415 H   0  0  0  0  0  0  0  0  0  0  0  0  # atno 10763 bound_to 10752
  154.8756  135.3942  154.3758 H   0  0  0  0  0  0  0  0  0  0  0  0  # atno 10764 bound_to 10752
  153.4354  135.7083  153.6268 H   0  0  0  0  0  0  0  0  0  0  0  0  # atno 10765 bound_to 10752
  139.9127  134.7936  156.1937 H   0  0  0  0  0  0  0  0  0  0  0  0  # atno 11005 bound_to 11000
  144.6817  139.9819  143.7483 LP  0  0  0  0  0  0  0  0  0  0  0  0  # atno 17320 bound_to 7965
  146.0196  139.3239  143.0821 LP  0  0  0  0  0  0  0  0  0  0  0  0  # atno 17321 bound_to 7965
  140.4388  144.2015  150.5890 LP  0  0  0  0  0  0  0  0  0  0  0  0  # atno 17342 bound_to 10162
  140.4705  143.2415  151.9096 LP  0  0  0  0  0  0  0  0  0  0  0  0  # atno 17343 bound_to 10162
  156.5071  130.4130  149.6321 LP  0  0  0  0  0  0  0  0  0  0  0  0  # atno 17370 bound_to 10713
  156.3275  130.7313  151.2237 LP  0  0  0  0  0  0  0  0  0  0  0  0  # atno 17371 bound_to 10713
  141.0568  133.6861  156.1876 LP  0  0  0  0  0  0  0  0  0  0  0  0  # atno 17394 bound_to 11000
  140.6724  134.4854  157.5587 LP  0  0  0  0  0  0  0  0  0  0  0  0  # atno 17395 bound_to 11000

$$$$
