AV-unprocessed.smi:1820|AV-procd|sdf|7385|dock4
  -GOLD-   22720 9 53D 1   1.00000     0.00000
 Structure written by MMmdl.
 35 36  0  0  0  0  0  0  0  0  2 V2000
  148.3228  144.2562  161.5902 O   0  0  0  0  0  0  0  0  0  0  0  0
  148.1432  144.7881  160.4950 C   0  0  0  0  0  0  0  0  0  0  0  0
  149.1297  145.3120  159.7546 N   0  0  0  0  0  0  0  0  0  0  0  0
  150.5470  145.2915  160.1066 C   0  0  0  0  0  0  0  0  0  0  0  0
  151.2242  143.9274  159.8147 C   0  0  0  0  0  0  0  0  0  0  0  0
  150.9959  143.0711  160.9171 O   0  0  0  0  0  0  0  0  0  0  0  0
  150.7950  143.2657  158.4952 C   0  0  0  0  0  0  0  0  0  0  0  0
  151.6492  143.9448  157.4201 C   0  0  0  0  0  0  0  0  0  0  0  0
  152.9288  144.4140  158.1304 C   0  0  0  0  0  0  0  0  0  0  0  0
  152.7383  144.0919  159.6196 C   0  0  0  0  0  0  0  0  0  0  0  0
  146.9516  144.9379  159.8911 N   0  0  0  0  0  0  0  0  0  0  0  0
  145.6713  144.5094  160.3364 C   0  0  0  0  0  0  0  0  0  0  0  0
  145.5987  143.8698  161.5940 C   0  0  0  0  0  0  0  0  0  0  0  0
  144.3497  143.4371  162.0840 C   0  0  0  0  0  0  0  0  0  0  0  0
  143.2325  143.6463  161.3554 N   0  3  0  0  0  0  0  0  0  0  0  0
  143.2488  144.2671  160.1565 C   0  0  0  0  0  0  0  0  0  0  0  0
  144.4686  144.7211  159.6146 C   0  0  0  0  0  0  0  0  0  0  0  0
  148.8905  145.7339  158.8693 H   0  0  0  0  0  0  0  0  0  0  0  0
  151.0194  146.0708  159.5082 H   0  0  0  0  0  0  0  0  0  0  0  0
  150.7016  145.5872  161.1461 H   0  0  0  0  0  0  0  0  0  0  0  0
  151.5136  143.3752  161.6466 H   0  0  0  0  0  0  0  0  0  0  0  0
  151.0487  142.2046  158.5194 H   0  0  0  0  0  0  0  0  0  0  0  0
  149.7269  143.3284  158.2878 H   0  0  0  0  0  0  0  0  0  0  0  0
  151.8615  143.2720  156.5887 H   0  0  0  0  0  0  0  0  0  0  0  0
  151.1180  144.8070  157.0148 H   0  0  0  0  0  0  0  0  0  0  0  0
  153.8162  143.9201  157.7332 H   0  0  0  0  0  0  0  0  0  0  0  0
  153.0620  145.4868  157.9859 H   0  0  0  0  0  0  0  0  0  0  0  0
  153.1737  144.8496  160.2725 H   0  0  0  0  0  0  0  0  0  0  0  0
  153.2474  143.1511  159.8371 H   0  0  0  0  0  0  0  0  0  0  0  0
  146.9565  145.4687  159.0326 H   0  0  0  0  0  0  0  0  0  0  0  0
  146.4920  143.7046  162.1790 H   0  0  0  0  0  0  0  0  0  0  0  0
  144.2121  142.9360  163.0310 H   0  0  0  0  0  0  0  0  0  0  0  0
  142.2912  144.3864  159.6710 H   0  0  0  0  0  0  0  0  0  0  0  0
  144.4539  145.2313  158.6638 H   0  0  0  0  0  0  0  0  0  0  0  0
  142.3380  143.3266  161.7281 H   0  0  0  0  0  0  0  0  0  0  0  0
  1  2  2  0  0  0  0
  2  3  1  0  0  0  0
  2 11  1  0  0  0  0
  3  4  1  0  0  0  0
  3 18  1  0  0  0  0
  4  5  1  0  0  0  0
  4 19  1  0  0  0  0
  4 20  1  0  0  0  0
  5 10  1  0  0  0  0
  5  6  1  0  0  0  0
  5  7  1  0  0  0  0
  6 21  1  0  0  0  0
  7  8  1  0  0  0  0
  7 22  1  0  0  0  0
  7 23  1  0  0  0  0
  8  9  1  0  0  0  0
  8 24  1  0  0  0  0
  8 25  1  0  0  0  0
  9 10  1  0  0  0  0
  9 26  1  0  0  0  0
  9 27  1  0  0  0  0
 10 28  1  0  0  0  0
 10 29  1  0  0  0  0
 11 12  1  0  0  0  0
 11 30  1  0  0  0  0
 12 17  1  0  0  0  0
 12 13  2  0  0  0  0
 13 14  1  0  0  0  0
 13 31  1  0  0  0  0
 14 15  2  0  0  0  0
 14 32  1  0  0  0  0
 15 16  1  0  0  0  0
 15 35  1  0  0  0  0
 16 17  2  0  0  0  0
 16 33  1  0  0  0  0
 17 34  1  0  0  0  0
M  CHG  1  15   1
M  END
> <s_m_source_file>
AV-unprocessed.smi

> <i_m_source_file_index>
1820

> <i_lp_mmshare_version>
43012

> <i_f3d_flags>
0

> <s_epik_input>
W2NIXTFbY0hdbltjSF1bY0hdYzFbTkhdQyg9TylbTkhdW0NIMl1DMihbT0hdKVtDSDJdW0NIMl1bQ0gyXVtDSDJdMg==

> <s_epik_cmdline>
J2VwaWtfcHl0aG9uJywgJy1waCcsICc3LjAnLCAnLXRuJywgJzgnLCAnLW1hJywgJzIwMCcsICctbWV0YWxfYmluZGluZycsICctaW1hZScsICc8aW5maWxlLm1hZT4nLCAnLW9tYWUnLCAnPG91dGZpbGUubWFlPic=

> <r_epik_Ionization_Penalty>
0.972463

> <r_epik_Ionization_Penalty_Charging>
0.972441

> <r_epik_Ionization_Penalty_Neutral>
2.25054e-05

> <r_epik_State_Penalty>
1.01855

> <r_epik_Charging_Adjusted_Penalty>
1.99099

> <i_epik_Tot_Q>
1

> <i_epik_Tot_abs_Q>
1

> <r_epik_Metal_State_Penalty>
1.12508

> <b_epik_Metal_Only>
0

> <s_lp_Force_Field>
OPLS_2005

> <r_lp_Energy>
34.043

> <b_lp_Chiralities_Consistent>
1

> <s_lp_Variant>
AV-unprocessed.smi:1820-2

> <Gold.Version>
5.8.1

> <Gold.Id.Protein>
6NUR|6NUR_protein|mol2

> <Gold.PLP.Fitness>
43.4947

> <Gold.PLP.PLP>
-35.8016

> <Gold.PLP.part.hbond>
-4.0000

> <Gold.PLP.part.metal>
0.0000

> <Gold.PLP.part.buried>
-6.8803

> <Gold.PLP.part.nonpolar>
-26.4987

> <Gold.PLP.part.repulsive>
1.1390

> <Gold.PLP.ligand.clash>
0.0000

> <Gold.PLP.ligand.torsion>
0.4887

> <Gold.PLP.Chemscore.Hbond>
2.8868

> <Gold.PLP.Chemscore.CHOScore>
0.0000

> <Gold.PLP.Chemscore.Metal>
0.0000

> <Gold.Chemscore.Hbonds>
donor molecule, donor type, donor heavy atom, donor atom, acceptor molecule, acceptor atom, score
      L1  H     3    18       P1  8029  1.00
      L1  H    11    30       P1  8029  1.00
      P1  H  6933  6944       L1     1  0.86
      P1  H  6933  6945       L1     6  0.04

> <Gold.PLP.Chemscore.Internal.Correction>
0.0100

> <Gold.Rescore>
     Score         DG    S(hbond)    S(metal)    S(lipo)     H(rot)  DE(clash)    DE(int)     intcor
     19.20     -21.03       2.81        0.00      91.80       1.79       0.03       1.80       ----

> <Gold.Chemscore.Fitness>
19.2028

> <Gold.Chemscore.DG>
-21.0300

> <Gold.Chemscore.ZeroCoef>
-5.4800

> <Gold.Chemscore.Hbond>
2.8088

> <Gold.Chemscore.Metal>
0.0000

> <Gold.Chemscore.Lipo>
91.7966

> <Gold.Chemscore.Internal_Hbond>
0.0000

> <Gold.Chemscore.DEClash>
0.0276

> <Gold.Chemscore.DEInternal>
1.7996

> <Gold.Chemscore.Rot>
1.7858

> <Gold.Chemscore.Internal.Correction>
   9.000000E+99

> <Gold.Chemscore.Hbonds>
donor molecule, donor type, donor heavy atom, donor atom, acceptor molecule, acceptor atom, score
      L1  H     3    18       P1  8029  0.99
      L1  H    11    30       P1  8029  0.88
      P1  H  6933  6944       L1     1  0.72

> <Gold.Chemscore.Hbond.Weighted>
-9.3815

> <Gold.Chemscore.Metal.Weighted>
-0.0000

> <Gold.Chemscore.Lipo.Weighted>
-10.7402

> <Gold.Chemscore.Internal_Hbond.Weighted>
0.0000

> <Gold.Chemscore.DEClash.Weighted>
0.0276

> <Gold.Chemscore.DEInternal.Weighted>
1.7996

> <Gold.Chemscore.Rot.Weighted>
4.5717

> <Gold.Chemscore.Internal.Correction.Weighted>
   9.000000E+99

> <Gold.Protein.RotatedTorsions>
[ 6907 6896 6895 6894 ] final   15.77 input  -60.11 | X-H torsion
[ 7974 7965 7964 7962 ] final -173.34 input  175.53 | X-H torsion
[ 8008 7997 7996 7995 ] final  -85.45 input   59.86 | X-H torsion
[ 10167 10162 10161 10158 ] final  142.29 input  -65.29 | X-H torsion
[ 10718 10713 10712 10709 ] final  -41.61 input   66.30 | X-H torsion
[ 10763 10752 10751 10750 ] final   28.94 input  -60.55 | X-H torsion
[ 11005 11000 10999 10996 ] final -146.02 input  -57.11 | X-H torsion

> <Gold.Protein.ActiveResidues>
 VAL166  LYS551  ARG553  GLY616  TRP617  ASP618  TYR619  PRO620  LYS621  CYS622 
 ASP623  PHE694  ASN695  SER759  ASP760  ASP761  ALA762  ILE779  LEU786  VAL792 
 PHE793  MET794  SER795  GLU796  ALA797  LYS798  CYS799  TRP800  GLU811  SER814 

> <Gold.Protein.RotatedAtoms>
  151.8233  135.0645  160.0427 H   0  0  0  0  0  0  0  0  0  0  0  0  # atno 6907 bound_to 6896
  152.2934  133.5580  159.5581 H   0  0  0  0  0  0  0  0  0  0  0  0  # atno 6908 bound_to 6896
  150.7240  134.0311  159.3776 H   0  0  0  0  0  0  0  0  0  0  0  0  # atno 6909 bound_to 6896
  144.7139  140.1636  143.6374 H   0  0  0  0  0  0  0  0  0  0  0  0  # atno 7974 bound_to 7965
  154.6409  140.0591  156.9844 H   0  0  0  0  0  0  0  0  0  0  0  0  # atno 8008 bound_to 7997
  155.1519  140.3275  155.4411 H   0  0  0  0  0  0  0  0  0  0  0  0  # atno 8009 bound_to 7997
  156.2530  140.1946  156.6630 H   0  0  0  0  0  0  0  0  0  0  0  0  # atno 8010 bound_to 7997
  139.4998  144.6117  151.6257 H   0  0  0  0  0  0  0  0  0  0  0  0  # atno 10167 bound_to 10162
  156.2685  130.4204  149.8464 H   0  0  0  0  0  0  0  0  0  0  0  0  # atno 10718 bound_to 10713
  153.0460  135.6501  154.0815 H   0  0  0  0  0  0  0  0  0  0  0  0  # atno 10763 bound_to 10752
  154.0512  135.2895  155.3341 H   0  0  0  0  0  0  0  0  0  0  0  0  # atno 10764 bound_to 10752
  154.6718  135.5353  153.8214 H   0  0  0  0  0  0  0  0  0  0  0  0  # atno 10765 bound_to 10752
  140.7863  134.3021  157.5029 H   0  0  0  0  0  0  0  0  0  0  0  0  # atno 11005 bound_to 11000
  145.9008  139.2429  143.1495 LP  0  0  0  0  0  0  0  0  0  0  0  0  # atno 17320 bound_to 7965
  145.9812  140.8680  143.0113 LP  0  0  0  0  0  0  0  0  0  0  0  0  # atno 17321 bound_to 7965
  140.5793  143.9974  150.6259 LP  0  0  0  0  0  0  0  0  0  0  0  0  # atno 17342 bound_to 10162
  140.3117  143.3193  152.0872 LP  0  0  0  0  0  0  0  0  0  0  0  0  # atno 17343 bound_to 10162
  156.5954  130.8524  151.3418 LP  0  0  0  0  0  0  0  0  0  0  0  0  # atno 17370 bound_to 10713
  157.7275  130.9644  150.1704 LP  0  0  0  0  0  0  0  0  0  0  0  0  # atno 17371 bound_to 10713
  139.8736  134.9348  156.3617 LP  0  0  0  0  0  0  0  0  0  0  0  0  # atno 17394 bound_to 11000
  140.9434  133.7499  156.0176 LP  0  0  0  0  0  0  0  0  0  0  0  0  # atno 17395 bound_to 11000

$$$$
