AV-unprocessed.smi:1147|AV-procd|sdf|4887|dock5
  -GOLD-   22720 3463D 1   1.00000     0.00000
 Structure written by MMmdl.
 41 42  0  0  0  0  0  0  0  0  1 V2000
  148.6388  140.7254  154.4500 C   0  0  0  0  0  0  0  0  0  0  0  0
  149.8338  139.7696  154.4626 C   0  0  0  0  0  0  0  0  0  0  0  0
  149.8343  138.8380  153.6577 O   0  0  0  0  0  0  0  0  0  0  0  0
  150.8386  139.9739  155.3484 N   0  0  0  0  0  0  0  0  0  0  0  0
  152.0244  139.1156  155.5061 C   0  0  0  0  0  0  0  0  0  0  0  0
  152.0363  138.5299  156.9318 C   0  0  0  0  0  0  0  0  0  0  0  0
  152.0479  139.6413  157.9020 N   0  0  0  0  0  0  0  0  0  0  0  0
  153.0575  139.9661  158.7487 C   0  0  0  0  0  0  0  0  0  0  0  0
  154.1220  139.3484  158.7999 O   0  0  0  0  0  0  0  0  0  0  0  0
  152.8118  141.0290  159.5328 N   0  0  0  0  0  0  0  0  0  0  0  0
  153.7432  141.6226  160.4895 C   0  0  2  0  0  0  0  0  0  0  0  0
  154.1830  140.5716  161.5212 C   0  0  0  0  0  0  0  0  0  0  0  0
  153.0907  142.8405  161.1719 C   0  0  0  0  0  0  0  0  0  0  0  0
  152.6049  143.8166  160.2122 N   0  0  0  0  0  0  0  0  0  0  0  0
  151.9088  144.9819  160.4544 C   0  0  0  0  0  0  0  0  0  0  0  0
  151.6788  145.5757  159.2464 C   0  0  0  0  0  0  0  0  0  0  0  0
  152.2790  144.6858  158.3123 C   0  0  0  0  0  0  0  0  0  0  0  0
  152.8328  143.6338  158.8931 N   0  0  0  0  0  0  0  0  0  0  0  0
  150.8489  140.4795  157.7543 C   0  0  0  0  0  0  0  0  0  0  0  0
  150.8225  141.0702  156.3300 C   0  0  0  0  0  0  0  0  0  0  0  0
  148.9583  141.7410  154.2150 H   0  0  0  0  0  0  0  0  0  0  0  0
  148.1334  140.7253  155.4160 H   0  0  0  0  0  0  0  0  0  0  0  0
  147.9121  140.4220  153.6958 H   0  0  0  0  0  0  0  0  0  0  0  0
  152.0747  138.3008  154.7857 H   0  0  0  0  0  0  0  0  0  0  0  0
  152.9210  139.7142  155.3382 H   0  0  0  0  0  0  0  0  0  0  0  0
  151.1433  137.9248  157.0950 H   0  0  0  0  0  0  0  0  0  0  0  0
  152.8743  137.8405  157.0338 H   0  0  0  0  0  0  0  0  0  0  0  0
  151.9183  141.4881  159.4304 H   0  0  0  0  0  0  0  0  0  0  0  0
  154.6297  141.9696  159.9551 H   0  0  0  0  0  0  0  0  0  0  0  0
  154.8820  140.9986  162.2410 H   0  0  0  0  0  0  0  0  0  0  0  0
  154.6822  139.7291  161.0415 H   0  0  0  0  0  0  0  0  0  0  0  0
  153.3302  140.1806  162.0772 H   0  0  0  0  0  0  0  0  0  0  0  0
  152.2652  142.5268  161.8134 H   0  0  0  0  0  0  0  0  0  0  0  0
  153.8139  143.3388  161.8185 H   0  0  0  0  0  0  0  0  0  0  0  0
  151.6418  145.2889  161.4550 H   0  0  0  0  0  0  0  0  0  0  0  0
  151.1612  146.5048  159.0586 H   0  0  0  0  0  0  0  0  0  0  0  0
  152.3286  144.7726  157.2369 H   0  0  0  0  0  0  0  0  0  0  0  0
  149.9595  139.8721  157.9289 H   0  0  0  0  0  0  0  0  0  0  0  0
  150.8049  141.2885  158.4846 H   0  0  0  0  0  0  0  0  0  0  0  0
  151.6933  141.7075  156.1687 H   0  0  0  0  0  0  0  0  0  0  0  0
  149.9525  141.7196  156.2252 H   0  0  0  0  0  0  0  0  0  0  0  0
  1  2  1  0  0  0  0
  1 21  1  0  0  0  0
  1 22  1  0  0  0  0
  1 23  1  0  0  0  0
  2  3  2  0  0  0  0
  2  4  1  0  0  0  0
  4 20  1  0  0  0  0
  4  5  1  0  0  0  0
  5  6  1  0  0  0  0
  5 24  1  0  0  0  0
  5 25  1  0  0  0  0
  6  7  1  0  0  0  0
  6 26  1  0  0  0  0
  6 27  1  0  0  0  0
  7  8  1  0  0  0  0
  7 19  1  0  0  0  0
  8  9  2  0  0  0  0
  8 10  1  0  0  0  0
 10 11  1  0  0  0  0
 10 28  1  0  0  0  0
 11 12  1  0  0  0  0
 11 13  1  0  0  0  0
 11 29  1  0  0  0  0
 12 30  1  0  0  0  0
 12 31  1  0  0  0  0
 12 32  1  0  0  0  0
 13 14  1  0  0  0  0
 13 33  1  0  0  0  0
 13 34  1  0  0  0  0
 14 18  1  0  0  0  0
 14 15  1  0  0  0  0
 15 16  2  0  0  0  0
 15 35  1  0  0  0  0
 16 17  1  0  0  0  0
 16 36  1  0  0  0  0
 17 18  2  0  0  0  0
 17 37  1  0  0  0  0
 19 20  1  0  0  0  0
 19 38  1  0  0  0  0
 19 39  1  0  0  0  0
 20 40  1  0  0  0  0
 20 41  1  0  0  0  0
M  END
> <s_m_source_file>
AV-unprocessed.smi

> <i_m_source_file_index>
1147

> <i_lp_mmshare_version>
43012

> <i_f3d_flags>
0

> <s_epik_input>
W0NIM11DKD1PKU4xW0NIMl1bQ0gyXU4oW0NIMl1bQ0gyXTEpQyg9TylbTkhdW0NASF0oW0NIM10pW0NIMl1uMltjSF1bY0hdW2NIXW4y

> <s_epik_cmdline>
J2VwaWtfcHl0aG9uJywgJy1waCcsICc3LjAnLCAnLXRuJywgJzgnLCAnLW1hJywgJzIwMCcsICctbWV0YWxfYmluZGluZycsICctaW1hZScsICc8aW5maWxlLm1hZT4nLCAnLW9tYWUnLCAnPG91dGZpbGUubWFlPic=

> <r_lp_tautomer_probability>
1

> <r_epik_Ionization_Penalty>
5.58143e-05

> <r_epik_Ionization_Penalty_Charging>
0

> <r_epik_Ionization_Penalty_Neutral>
5.58143e-05

> <r_epik_State_Penalty>
-0

> <r_epik_Charging_Adjusted_Penalty>
0

> <i_epik_Tot_Q>
0

> <i_epik_Tot_abs_Q>
0

> <r_epik_Metal_State_Penalty>
-0

> <b_epik_Metal_Only>
0

> <s_lp_Force_Field>
OPLS_2005

> <r_lp_Energy>
48.2147

> <b_lp_Chiralities_Consistent>
1

> <s_lp_Variant>
AV-unprocessed.smi:1147-1

> <Gold.Version>
5.8.1

> <Gold.Id.Protein>
6NUR|6NUR_protein|mol2

> <Gold.PLP.Fitness>
48.2517

> <Gold.PLP.PLP>
-46.9167

> <Gold.PLP.part.hbond>
-1.0000

> <Gold.PLP.part.metal>
0.0000

> <Gold.PLP.part.buried>
-4.4837

> <Gold.PLP.part.nonpolar>
-43.1285

> <Gold.PLP.part.repulsive>
2.7183

> <Gold.PLP.ligand.clash>
1.6152

> <Gold.PLP.ligand.torsion>
0.0410

> <Gold.PLP.Chemscore.Hbond>
1.0000

> <Gold.PLP.Chemscore.CHOScore>
0.0000

> <Gold.PLP.Chemscore.Metal>
0.0000

> <Gold.Chemscore.Hbonds>
donor molecule, donor type, donor heavy atom, donor atom, acceptor molecule, acceptor atom, score
      P1  H  7997  8010       L1     9  0.95

> <Gold.PLP.Chemscore.Internal.Correction>
0.0323

> <Gold.Rescore>
     Score         DG    S(hbond)    S(metal)    S(lipo)     H(rot)  DE(clash)    DE(int)     intcor
     13.18     -15.94       0.86        0.00      96.78       1.46       0.34       2.43       ----

> <Gold.Chemscore.Fitness>
13.1811

> <Gold.Chemscore.DG>
-15.9441

> <Gold.Chemscore.ZeroCoef>
-5.4800

> <Gold.Chemscore.Hbond>
0.8649

> <Gold.Chemscore.Metal>
0.0000

> <Gold.Chemscore.Lipo>
96.7778

> <Gold.Chemscore.Internal_Hbond>
0.0000

> <Gold.Chemscore.DEClash>
0.3362

> <Gold.Chemscore.DEInternal>
2.4268

> <Gold.Chemscore.Rot>
1.4640

> <Gold.Chemscore.Internal.Correction>
   9.000000E+99

> <Gold.Chemscore.Hbonds>
donor molecule, donor type, donor heavy atom, donor atom, acceptor molecule, acceptor atom, score
      P1  H  7997  8010       L1     9  0.22

> <Gold.Chemscore.Hbond.Weighted>
-2.8888

> <Gold.Chemscore.Metal.Weighted>
-0.0000

> <Gold.Chemscore.Lipo.Weighted>
-11.3230

> <Gold.Chemscore.Internal_Hbond.Weighted>
0.0000

> <Gold.Chemscore.DEClash.Weighted>
0.3362

> <Gold.Chemscore.DEInternal.Weighted>
2.4268

> <Gold.Chemscore.Rot.Weighted>
3.7477

> <Gold.Chemscore.Internal.Correction.Weighted>
   9.000000E+99

> <Gold.Protein.RotatedTorsions>
[ 6907 6896 6895 6894 ] final   41.38 input  -60.11 | X-H torsion
[ 7974 7965 7964 7962 ] final -107.17 input  175.53 | X-H torsion
[ 8008 7997 7996 7995 ] final   11.87 input   59.86 | X-H torsion
[ 10167 10162 10161 10158 ] final   58.19 input  -65.29 | X-H torsion
[ 10718 10713 10712 10709 ] final -144.71 input   66.30 | X-H torsion
[ 10763 10752 10751 10750 ] final  109.98 input  -60.55 | X-H torsion
[ 11005 11000 10999 10996 ] final   15.46 input  -57.11 | X-H torsion

> <Gold.Protein.ActiveResidues>
 VAL166  LYS551  ARG553  GLY616  TRP617  ASP618  TYR619  PRO620  LYS621  CYS622 
 ASP623  PHE694  ASN695  SER759  ASP760  ASP761  ALA762  ILE779  LEU786  VAL792 
 PHE793  MET794  SER795  GLU796  ALA797  LYS798  CYS799  TRP800  GLU811  SER814 

> <Gold.Protein.RotatedAtoms>
  152.1945  134.8642  160.0513 H   0  0  0  0  0  0  0  0  0  0  0  0  # atno 6907 bound_to 6896
  151.9519  133.3663  159.4011 H   0  0  0  0  0  0  0  0  0  0  0  0  # atno 6908 bound_to 6896
  150.6942  134.4255  159.5268 H   0  0  0  0  0  0  0  0  0  0  0  0  # atno 6909 bound_to 6896
  145.2086  140.9087  143.3327 H   0  0  0  0  0  0  0  0  0  0  0  0  # atno 7974 bound_to 7965
  154.8129  140.2871  155.5841 H   0  0  0  0  0  0  0  0  0  0  0  0  # atno 8008 bound_to 7997
  156.2990  140.2565  156.2950 H   0  0  0  0  0  0  0  0  0  0  0  0  # atno 8009 bound_to 7997
  154.9427  140.0381  157.2094 H   0  0  0  0  0  0  0  0  0  0  0  0  # atno 8010 bound_to 7997
  140.1899  144.4096  150.6576 H   0  0  0  0  0  0  0  0  0  0  0  0  # atno 10167 bound_to 10162
  156.3735  130.7800  151.1984 H   0  0  0  0  0  0  0  0  0  0  0  0  # atno 10718 bound_to 10713
  153.4425  135.3762  155.2236 H   0  0  0  0  0  0  0  0  0  0  0  0  # atno 10763 bound_to 10752
  154.8754  135.3866  154.4135 H   0  0  0  0  0  0  0  0  0  0  0  0  # atno 10764 bound_to 10752
  153.4683  135.7087  153.6072 H   0  0  0  0  0  0  0  0  0  0  0  0  # atno 10765 bound_to 10752
  140.4580  134.1156  155.7712 H   0  0  0  0  0  0  0  0  0  0  0  0  # atno 11005 bound_to 11000
  144.9877  139.3720  143.6230 LP  0  0  0  0  0  0  0  0  0  0  0  0  # atno 17320 bound_to 7965
  146.3402  139.9046  142.8789 LP  0  0  0  0  0  0  0  0  0  0  0  0  # atno 17321 bound_to 7965
  140.6463  143.2214  151.6179 LP  0  0  0  0  0  0  0  0  0  0  0  0  # atno 17342 bound_to 10162
  139.5260  144.3057  152.1035 LP  0  0  0  0  0  0  0  0  0  0  0  0  # atno 17343 bound_to 10162
  157.7486  131.0365  150.4413 LP  0  0  0  0  0  0  0  0  0  0  0  0  # atno 17370 bound_to 10713
  156.4644  130.4039  149.6556 LP  0  0  0  0  0  0  0  0  0  0  0  0  # atno 17371 bound_to 10713
  141.1634  133.8750  157.1784 LP  0  0  0  0  0  0  0  0  0  0  0  0  # atno 17394 bound_to 11000
  139.9963  135.0045  157.0090 LP  0  0  0  0  0  0  0  0  0  0  0  0  # atno 17395 bound_to 11000

$$$$
