AV-unprocessed.smi:2001|AV-procd|sdf|8109|dock9
  -GOLD-   2272010333D 1   1.00000     0.00000
 Structure written by MMmdl.
 50 51  0  0  0  0  0  0  0  0  3 V2000
  152.2533  143.5738  158.5862 C   0  0  0  0  0  0  0  0  0  0  0  0
  151.8449  142.3978  159.2624 O   0  0  0  0  0  0  0  0  0  0  0  0
  152.2806  141.2173  158.6092 C   0  0  0  0  0  0  0  0  0  0  0  0
  151.5431  141.0895  157.2678 C   0  0  0  0  0  0  0  0  0  0  0  0
  151.9385  139.8736  156.5499 N   0  0  0  0  0  0  0  0  0  0  0  0
  152.9063  139.1252  157.1982 N   0  0  0  0  0  0  0  0  0  0  0  0
  153.3426  138.0240  156.6767 C   0  0  0  0  0  0  0  0  0  0  0  0
  154.3901  137.2134  157.3775 C   0  0  0  0  0  0  0  0  0  0  0  0
  154.7958  137.6885  158.4470 O   0  0  0  0  0  0  0  0  0  0  0  0
  154.8162  136.0442  156.8105 N   0  5  0  0  0  0  0  0  0  0  0  0
  156.0865  135.3795  157.0949 C   0  0  0  0  0  0  0  0  0  0  0  0
  157.1894  136.4361  157.2994 C   0  0  0  0  0  0  0  0  0  0  0  0
  157.7657  136.9003  156.0093 N   0  3  1  0  0  0  0  0  0  0  0  0
  158.3799  135.8029  155.2236 C   0  0  0  0  0  0  0  0  0  0  0  0
  159.0411  136.3580  153.9479 C   0  0  1  0  0  0  0  0  0  0  0  0
  159.6213  135.2452  153.0681 C   0  0  0  0  0  0  0  0  0  0  0  0
  158.0677  137.0651  153.1865 O   0  0  0  0  0  0  0  0  0  0  0  0
  157.5217  138.1752  153.8912 C   0  0  1  0  0  0  0  0  0  0  0  0
  156.5628  138.9154  152.9524 C   0  0  0  0  0  0  0  0  0  0  0  0
  156.8145  137.6641  155.1599 C   0  0  0  0  0  0  0  0  0  0  0  0
  152.8187  137.5553  155.3993 C   0  0  0  0  0  0  0  0  0  0  0  0
  151.8704  138.2934  154.7822 C   0  0  0  0  0  0  0  0  0  0  0  0
  151.3624  139.5390  155.3569 C   0  0  0  0  0  0  0  0  0  0  0  0
  150.4924  140.2230  154.8182 O   0  0  0  0  0  0  0  0  0  0  0  0
  151.8962  144.4501  159.1271 H   0  0  0  0  0  0  0  0  0  0  0  0
  151.8420  143.6107  157.5766 H   0  0  0  0  0  0  0  0  0  0  0  0
  153.3404  143.6364  158.5245 H   0  0  0  0  0  0  0  0  0  0  0  0
  153.3581  141.2592  158.4418 H   0  0  0  0  0  0  0  0  0  0  0  0
  152.0780  140.3495  159.2390 H   0  0  0  0  0  0  0  0  0  0  0  0
  150.4640  141.1018  157.4313 H   0  0  0  0  0  0  0  0  0  0  0  0
  151.7525  141.9680  156.6545 H   0  0  0  0  0  0  0  0  0  0  0  0
  156.0370  134.7500  157.9841 H   0  0  0  0  0  0  0  0  0  0  0  0
  156.3782  134.7170  156.2794 H   0  0  0  0  0  0  0  0  0  0  0  0
  156.7473  137.2840  157.8256 H   0  0  0  0  0  0  0  0  0  0  0  0
  157.9806  136.0581  157.9493 H   0  0  0  0  0  0  0  0  0  0  0  0
  159.1289  135.2918  155.8300 H   0  0  0  0  0  0  0  0  0  0  0  0
  157.6150  135.0675  154.9678 H   0  0  0  0  0  0  0  0  0  0  0  0
  159.8480  137.0408  154.2197 H   0  0  0  0  0  0  0  0  0  0  0  0
  160.3862  134.6811  153.6025 H   0  0  0  0  0  0  0  0  0  0  0  0
  160.0804  135.6580  152.1695 H   0  0  0  0  0  0  0  0  0  0  0  0
  158.8467  134.5447  152.7545 H   0  0  0  0  0  0  0  0  0  0  0  0
  158.3282  138.8561  154.1694 H   0  0  0  0  0  0  0  0  0  0  0  0
  156.1284  139.7868  153.4431 H   0  0  0  0  0  0  0  0  0  0  0  0
  155.7452  138.2692  152.6319 H   0  0  0  0  0  0  0  0  0  0  0  0
  157.0830  139.2630  152.0597 H   0  0  0  0  0  0  0  0  0  0  0  0
  155.9724  137.0242  154.8903 H   0  0  0  0  0  0  0  0  0  0  0  0
  156.4059  138.5091  155.7152 H   0  0  0  0  0  0  0  0  0  0  0  0
  153.1663  136.6404  154.9430 H   0  0  0  0  0  0  0  0  0  0  0  0
  151.4735  137.9548  153.8365 H   0  0  0  0  0  0  0  0  0  0  0  0
  158.5190  137.5279  156.2527 H   0  0  0  0  0  0  0  0  0  0  0  0
  1  2  1  0  0  0  0
  1 25  1  0  0  0  0
  1 26  1  0  0  0  0
  1 27  1  0  0  0  0
  2  3  1  0  0  0  0
  3  4  1  0  0  0  0
  3 28  1  0  0  0  0
  3 29  1  0  0  0  0
  4  5  1  0  0  0  0
  4 30  1  0  0  0  0
  4 31  1  0  0  0  0
  5 23  1  0  0  0  0
  5  6  1  0  0  0  0
  6  7  2  0  0  0  0
  7  8  1  0  0  0  0
  7 21  1  0  0  0  0
  8  9  2  0  0  0  0
  8 10  1  0  0  0  0
 10 11  1  0  0  0  0
 11 12  1  0  0  0  0
 11 32  1  0  0  0  0
 11 33  1  0  0  0  0
 12 13  1  0  0  0  0
 12 34  1  0  0  0  0
 12 35  1  0  0  0  0
 13 20  1  0  0  0  0
 13 14  1  0  0  0  0
 13 50  1  0  0  0  0
 14 15  1  0  0  0  0
 14 36  1  0  0  0  0
 14 37  1  0  0  0  0
 15 16  1  0  0  0  0
 15 17  1  0  0  0  0
 15 38  1  0  0  0  0
 16 39  1  0  0  0  0
 16 40  1  0  0  0  0
 16 41  1  0  0  0  0
 17 18  1  0  0  0  0
 18 19  1  0  0  0  0
 18 20  1  0  0  0  0
 18 42  1  0  0  0  0
 19 43  1  0  0  0  0
 19 44  1  0  0  0  0
 19 45  1  0  0  0  0
 20 46  1  0  0  0  0
 20 47  1  0  0  0  0
 21 22  2  0  0  0  0
 21 48  1  0  0  0  0
 22 23  1  0  0  0  0
 22 49  1  0  0  0  0
 23 24  2  0  0  0  0
M  CHG  1  10  -1
M  CHG  1  13   1
M  END
> <s_m_source_file>
AV-unprocessed.smi

> <i_m_source_file_index>
2001

> <i_lp_mmshare_version>
43012

> <i_f3d_flags>
0

> <s_epik_input>
W0NIM11PW0NIMl1bQ0gyXW4xbmMoW2NIXVtjSF1jMT1PKUMoPU8pW05IXVtDSDJdW0NIMl1OMltDSDJdW0NAQEhdKFtDSDNdKU9bQ0BASF0oW0NIM10pW0NIMl0y

> <s_epik_cmdline>
J2VwaWtfcHl0aG9uJywgJy1waCcsICc3LjAnLCAnLXRuJywgJzgnLCAnLW1hJywgJzIwMCcsICctbWV0YWxfYmluZGluZycsICctaW1hZScsICc8aW5maWxlLm1hZT4nLCAnLW9tYWUnLCAnPG91dGZpbGUubWFlPic=

> <r_lp_tautomer_probability>
1

> <r_epik_Ionization_Penalty>
6.90846

> <r_epik_Ionization_Penalty_Charging>
6.90846

> <r_epik_Ionization_Penalty_Neutral>
1.08445e-11

> <r_epik_State_Penalty>
7.54671

> <r_epik_Charging_Adjusted_Penalty>
14.4552

> <i_epik_Tot_Q>
0

> <i_epik_Tot_abs_Q>
2

> <r_epik_Metal_State_Penalty>
3.46181

> <b_epik_Metal_Only>
1

> <s_lp_Force_Field>
OPLS_2005

> <r_lp_Energy>
40.5373

> <b_lp_Chiralities_Consistent>
1

> <s_lp_Variant>
AV-unprocessed.smi:2001-8

> <Gold.Version>
5.8.1

> <Gold.Id.Protein>
6NUR|6NUR_protein|mol2

> <Gold.PLP.Fitness>
44.9009

> <Gold.PLP.PLP>
-34.6769

> <Gold.PLP.part.hbond>
-3.0997

> <Gold.PLP.part.metal>
0.0000

> <Gold.PLP.part.buried>
-1.1450

> <Gold.PLP.part.nonpolar>
-30.2134

> <Gold.PLP.part.repulsive>
0.2794

> <Gold.PLP.ligand.clash>
0.0000

> <Gold.PLP.ligand.torsion>
0.4169

> <Gold.PLP.Chemscore.Hbond>
3.6500

> <Gold.PLP.Chemscore.CHOScore>
0.0000

> <Gold.PLP.Chemscore.Metal>
0.0000

> <Gold.Chemscore.Hbonds>
donor molecule, donor type, donor heavy atom, donor atom, acceptor molecule, acceptor atom, score
      P1  H  7989  7998       L1    24  0.70
      P1  H  7997  8010       L1     6  0.65
      P1  H 10752 10765       L1    10  2.00

> <Gold.PLP.Chemscore.Internal.Correction>
0.1077

> <Gold.Rescore>
     Score         DG    S(hbond)    S(metal)    S(lipo)     H(rot)  DE(clash)    DE(int)     intcor
     12.36     -15.52       0.78        0.00     107.63       2.02       1.48       1.68       ----

> <Gold.Chemscore.Fitness>
12.3595

> <Gold.Chemscore.DG>
-15.5199

> <Gold.Chemscore.ZeroCoef>
-5.4800

> <Gold.Chemscore.Hbond>
0.7823

> <Gold.Chemscore.Metal>
0.0000

> <Gold.Chemscore.Lipo>
107.6317

> <Gold.Chemscore.Internal_Hbond>
0.0000

> <Gold.Chemscore.DEClash>
1.4830

> <Gold.Chemscore.DEInternal>
1.6774

> <Gold.Chemscore.Rot>
2.0179

> <Gold.Chemscore.Internal.Correction>
   9.000000E+99

> <Gold.Chemscore.Hbonds>
donor molecule, donor type, donor heavy atom, donor atom, acceptor molecule, acceptor atom, score
      P1  H  7989  7998       L1    24  0.07
      P1  H  7997  8010       L1     6  0.02
      P1  H 10752 10765       L1    10  0.25

> <Gold.Chemscore.Hbond.Weighted>
-2.6128

> <Gold.Chemscore.Metal.Weighted>
-0.0000

> <Gold.Chemscore.Lipo.Weighted>
-12.5929

> <Gold.Chemscore.Internal_Hbond.Weighted>
0.0000

> <Gold.Chemscore.DEClash.Weighted>
1.4830

> <Gold.Chemscore.DEInternal.Weighted>
1.6774

> <Gold.Chemscore.Rot.Weighted>
5.1659

> <Gold.Chemscore.Internal.Correction.Weighted>
   9.000000E+99

> <Gold.Protein.RotatedTorsions>
[ 6907 6896 6895 6894 ] final  -92.46 input  -60.11 | X-H torsion
[ 7974 7965 7964 7962 ] final  -43.89 input  175.53 | X-H torsion
[ 8008 7997 7996 7995 ] final   47.43 input   59.86 | X-H torsion
[ 10167 10162 10161 10158 ] final -152.65 input  -65.29 | X-H torsion
[ 10718 10713 10712 10709 ] final   46.48 input   66.30 | X-H torsion
[ 10763 10752 10751 10750 ] final  -69.20 input  -60.55 | X-H torsion
[ 11005 11000 10999 10996 ] final   23.11 input  -57.11 | X-H torsion

> <Gold.Protein.ActiveResidues>
 VAL166  LYS551  ARG553  GLY616  TRP617  ASP618  TYR619  PRO620  LYS621  CYS622 
 ASP623  PHE694  ASN695  SER759  ASP760  ASP761  ALA762  ILE779  LEU786  VAL792 
 PHE793  MET794  SER795  GLU796  ALA797  LYS798  CYS799  TRP800  GLU811  SER814 

> <Gold.Protein.RotatedAtoms>
  150.6906  134.2118  159.4361 H   0  0  0  0  0  0  0  0  0  0  0  0  # atno 6907 bound_to 6896
  152.0079  134.9890  160.0576 H   0  0  0  0  0  0  0  0  0  0  0  0  # atno 6908 bound_to 6896
  152.1516  133.4491  159.4853 H   0  0  0  0  0  0  0  0  0  0  0  0  # atno 6909 bound_to 6896
  145.9975  140.7112  142.9287 H   0  0  0  0  0  0  0  0  0  0  0  0  # atno 7974 bound_to 7965
  155.3689  140.3422  155.4242 H   0  0  0  0  0  0  0  0  0  0  0  0  # atno 8008 bound_to 7997
  156.1673  140.1620  156.8543 H   0  0  0  0  0  0  0  0  0  0  0  0  # atno 8009 bound_to 7997
  154.5198  140.0770  156.8132 H   0  0  0  0  0  0  0  0  0  0  0  0  # atno 8010 bound_to 7997
  139.7163  143.9028  152.2487 H   0  0  0  0  0  0  0  0  0  0  0  0  # atno 10167 bound_to 10162
  157.4486  130.8124  149.7765 H   0  0  0  0  0  0  0  0  0  0  0  0  # atno 10718 bound_to 10713
  154.4000  135.6033  153.5891 H   0  0  0  0  0  0  0  0  0  0  0  0  # atno 10763 bound_to 10752
  152.9788  135.5904  154.4196 H   0  0  0  0  0  0  0  0  0  0  0  0  # atno 10764 bound_to 10752
  154.3993  135.2842  155.2085 H   0  0  0  0  0  0  0  0  0  0  0  0  # atno 10765 bound_to 10752
  140.3732  134.2000  155.7666 H   0  0  0  0  0  0  0  0  0  0  0  0  # atno 11005 bound_to 11000
  144.6908  140.3176  143.7238 LP  0  0  0  0  0  0  0  0  0  0  0  0  # atno 17320 bound_to 7965
  145.7538  139.1802  143.2306 LP  0  0  0  0  0  0  0  0  0  0  0  0  # atno 17321 bound_to 7965
  139.8911  144.6965  150.8769 LP  0  0  0  0  0  0  0  0  0  0  0  0  # atno 17342 bound_to 10162
  140.7744  143.3585  151.1873 LP  0  0  0  0  0  0  0  0  0  0  0  0  # atno 17343 bound_to 10162
  155.9977  130.3898  150.2728 LP  0  0  0  0  0  0  0  0  0  0  0  0  # atno 17370 bound_to 10713
  157.0898  131.0166  151.3126 LP  0  0  0  0  0  0  0  0  0  0  0  0  # atno 17371 bound_to 10713
  141.1948  133.8121  157.0743 LP  0  0  0  0  0  0  0  0  0  0  0  0  # atno 17394 bound_to 11000
  140.0535  134.9793  157.1179 LP  0  0  0  0  0  0  0  0  0  0  0  0  # atno 17395 bound_to 11000

$$$$
