AV-unprocessed.smi:2583|AV-procd|sdf|10140|dock1
  -GOLD-   2272014153D 1   1.00000     0.00000
 Structure written by MMmdl.
 54 56  0  0  0  0  0  0  0  0  2 V2000
  153.2101  142.4920  161.3593 C   0  0  0  0  0  0  0  0  0  0  0  0
  152.3439  143.3529  160.4638 C   0  0  0  0  0  0  0  0  0  0  0  0
  152.0954  144.7057  160.7741 C   0  0  0  0  0  0  0  0  0  0  0  0
  151.3407  145.5151  160.0020 N   0  0  0  0  0  0  0  0  0  0  0  0
  150.7945  144.9929  158.8834 C   0  0  0  0  0  0  0  0  0  0  0  0
  150.9614  143.6502  158.4837 C   0  0  0  0  0  0  0  0  0  0  0  0
  150.3369  143.2329  157.2773 N   0  0  0  0  0  0  0  0  0  0  0  0
  150.1722  141.9836  156.8095 C   0  0  0  0  0  0  0  0  0  0  0  0
  150.5600  140.9567  157.3662 O   0  0  0  0  0  0  0  0  0  0  0  0
  149.5014  141.9850  155.6487 N   0  0  0  0  0  0  0  0  0  0  0  0
  149.1334  140.7914  154.8926 C   0  0  0  0  0  0  0  0  0  0  0  0
  147.9881  141.1087  153.9283 C   0  0  0  0  0  0  0  0  0  0  0  0
  147.5137  139.8401  153.1985 C   0  0  0  0  0  0  0  0  0  0  0  0
  147.0413  138.8099  154.1394 N   0  0  0  0  0  0  0  0  0  0  0  0
  146.5147  137.6256  153.4215 C   0  0  2  0  0  0  0  0  0  0  0  0
  145.0397  137.7820  152.9691 C   0  0  0  0  0  0  0  0  0  0  0  0
  144.0682  137.7825  154.1632 C   0  0  0  0  0  0  0  0  0  0  0  0
  144.2049  136.5420  154.9651 N   0  3  2  0  0  0  0  0  0  0  0  0
  143.2270  136.4764  156.0721 C   0  0  0  0  0  0  0  0  0  0  0  0
  145.5975  136.3210  155.4264 C   0  0  0  0  0  0  0  0  0  0  0  0
  146.5790  136.3102  154.2404 C   0  0  0  0  0  0  0  0  0  0  0  0
  148.1626  138.4547  155.0257 C   0  0  0  0  0  0  0  0  0  0  0  0
  148.6718  139.6657  155.8256 C   0  0  0  0  0  0  0  0  0  0  0  0
  151.7691  142.8162  159.2943 C   0  0  0  0  0  0  0  0  0  0  0  0
  153.5790  143.0561  162.2165 H   0  0  0  0  0  0  0  0  0  0  0  0
  154.0693  142.1140  160.8048 H   0  0  0  0  0  0  0  0  0  0  0  0
  152.6399  141.6405  161.7313 H   0  0  0  0  0  0  0  0  0  0  0  0
  152.5171  145.1541  161.6619 H   0  0  0  0  0  0  0  0  0  0  0  0
  150.1980  145.6708  158.2902 H   0  0  0  0  0  0  0  0  0  0  0  0
  149.8986  143.9680  156.7418 H   0  0  0  0  0  0  0  0  0  0  0  0
  149.2187  142.8741  155.2634 H   0  0  0  0  0  0  0  0  0  0  0  0
  149.9936  140.4518  154.3122 H   0  0  0  0  0  0  0  0  0  0  0  0
  147.1500  141.5507  154.4696 H   0  0  0  0  0  0  0  0  0  0  0  0
  148.3114  141.8519  153.1986 H   0  0  0  0  0  0  0  0  0  0  0  0
  146.7187  140.1569  152.5289 H   0  0  0  0  0  0  0  0  0  0  0  0
  148.3158  139.4393  152.5768 H   0  0  0  0  0  0  0  0  0  0  0  0
  147.1301  137.4937  152.5301 H   0  0  0  0  0  0  0  0  0  0  0  0
  144.8719  138.6503  152.3362 H   0  0  0  0  0  0  0  0  0  0  0  0
  144.7874  136.9369  152.3268 H   0  0  0  0  0  0  0  0  0  0  0  0
  144.2484  138.6530  154.7961 H   0  0  0  0  0  0  0  0  0  0  0  0
  143.0439  137.8641  153.7975 H   0  0  0  0  0  0  0  0  0  0  0  0
  143.3941  137.2800  156.7906 H   0  0  0  0  0  0  0  0  0  0  0  0
  143.3042  135.5246  156.5986 H   0  0  0  0  0  0  0  0  0  0  0  0
  142.2088  136.5637  155.6917 H   0  0  0  0  0  0  0  0  0  0  0  0
  145.8771  137.0962  156.1416 H   0  0  0  0  0  0  0  0  0  0  0  0
  145.6555  135.3680  155.9537 H   0  0  0  0  0  0  0  0  0  0  0  0
  146.3059  135.4842  153.5822 H   0  0  0  0  0  0  0  0  0  0  0  0
  147.5845  136.0573  154.5700 H   0  0  0  0  0  0  0  0  0  0  0  0
  147.8586  137.7176  155.7644 H   0  0  0  0  0  0  0  0  0  0  0  0
  148.9750  138.0149  154.4447 H   0  0  0  0  0  0  0  0  0  0  0  0
  149.4923  139.3536  156.4725 H   0  0  0  0  0  0  0  0  0  0  0  0
  147.8793  140.0249  156.4842 H   0  0  0  0  0  0  0  0  0  0  0  0
  151.9687  141.7874  159.0381 H   0  0  0  0  0  0  0  0  0  0  0  0
  143.9855  135.7757  154.3448 H   0  0  0  0  0  0  0  0  0  0  0  0
  1  2  1  0  0  0  0
  1 25  1  0  0  0  0
  1 26  1  0  0  0  0
  1 27  1  0  0  0  0
  2 24  1  0  0  0  0
  2  3  2  0  0  0  0
  3  4  1  0  0  0  0
  3 28  1  0  0  0  0
  4  5  2  0  0  0  0
  5  6  1  0  0  0  0
  5 29  1  0  0  0  0
  6  7  1  0  0  0  0
  6 24  2  0  0  0  0
  7  8  1  0  0  0  0
  7 30  1  0  0  0  0
  8  9  2  0  0  0  0
  8 10  1  0  0  0  0
 10 11  1  0  0  0  0
 10 31  1  0  0  0  0
 11 23  1  0  0  0  0
 11 12  1  0  0  0  0
 11 32  1  0  0  0  0
 12 13  1  0  0  0  0
 12 33  1  0  0  0  0
 12 34  1  0  0  0  0
 13 14  1  0  0  0  0
 13 35  1  0  0  0  0
 13 36  1  0  0  0  0
 14 15  1  0  0  0  0
 14 22  1  0  0  0  0
 15 21  1  0  0  0  0
 15 16  1  0  0  0  0
 15 37  1  0  0  0  0
 16 17  1  0  0  0  0
 16 38  1  0  0  0  0
 16 39  1  0  0  0  0
 17 18  1  0  0  0  0
 17 40  1  0  0  0  0
 17 41  1  0  0  0  0
 18 19  1  0  0  0  0
 18 20  1  0  0  0  0
 18 54  1  0  0  0  0
 19 42  1  0  0  0  0
 19 43  1  0  0  0  0
 19 44  1  0  0  0  0
 20 21  1  0  0  0  0
 20 45  1  0  0  0  0
 20 46  1  0  0  0  0
 21 47  1  0  0  0  0
 21 48  1  0  0  0  0
 22 23  1  0  0  0  0
 22 49  1  0  0  0  0
 22 50  1  0  0  0  0
 23 51  1  0  0  0  0
 23 52  1  0  0  0  0
 24 53  1  0  0  0  0
M  CHG  1  18   1
M  END
> <s_m_source_file>
AV-unprocessed.smi

> <i_m_source_file_index>
2583

> <i_lp_mmshare_version>
43012

> <i_f3d_flags>
0

> <s_epik_input>
W0NIM11jMVtjSF1uW2NIXWMoW2NIXTEpW05IXUMoPU8pW05IXVtDSF0yW0NIMl1bQ0gyXU4oW0NIMl1bQ0gyXTIpW0NIXTNbQ0gyXVtDSDJdTihbQ0gzXSlbQ0gyXVtDSDJdMw==

> <s_epik_cmdline>
J2VwaWtfcHl0aG9uJywgJy1waCcsICc3LjAnLCAnLXRuJywgJzgnLCAnLW1hJywgJzIwMCcsICctbWV0YWxfYmluZGluZycsICctaW1hZScsICc8aW5maWxlLm1hZT4nLCAnLW9tYWUnLCAnPG91dGZpbGUubWFlPic=

> <r_epik_Ionization_Penalty>
1.01912

> <r_epik_Ionization_Penalty_Charging>
0.000974969

> <r_epik_Ionization_Penalty_Neutral>
1.01814

> <r_epik_State_Penalty>
1.10721

> <r_epik_Charging_Adjusted_Penalty>
1.10819

> <i_epik_Tot_Q>
1

> <i_epik_Tot_abs_Q>
1

> <r_epik_Metal_State_Penalty>
1.10135

> <b_epik_Metal_Only>
0

> <s_lp_Force_Field>
OPLS_2005

> <r_lp_Energy>
36.2524

> <b_lp_Chiralities_Consistent>
1

> <s_lp_Variant>
AV-unprocessed.smi:2583-6

> <Gold.Version>
5.8.1

> <Gold.Id.Protein>
6NUR|6NUR_protein|mol2

> <Gold.PLP.Fitness>
40.6937

> <Gold.PLP.PLP>
-33.6377

> <Gold.PLP.part.hbond>
-2.0000

> <Gold.PLP.part.metal>
0.0000

> <Gold.PLP.part.buried>
-3.1732

> <Gold.PLP.part.nonpolar>
-28.3716

> <Gold.PLP.part.repulsive>
0.4934

> <Gold.PLP.ligand.clash>
0.0000

> <Gold.PLP.ligand.torsion>
0.8669

> <Gold.PLP.Chemscore.Hbond>
1.9280

> <Gold.PLP.Chemscore.CHOScore>
1.0000

> <Gold.PLP.Chemscore.Metal>
0.0000

> <Gold.Chemscore.Hbonds>
donor molecule, donor type, donor heavy atom, donor atom, acceptor molecule, acceptor atom, score
      L1  H     7    30       P1  8028  1.00
      L1  H    10    31       P1  8028  0.91
      L1  C     5    29       P1  8029  1.00

> <Gold.PLP.Chemscore.Internal.Correction>
0.0058

> <Gold.Rescore>
     Score         DG    S(hbond)    S(metal)    S(lipo)     H(rot)  DE(clash)    DE(int)     intcor
     16.72     -20.54       1.87        0.00     101.59       1.20       0.19       3.63       ----

> <Gold.Chemscore.Fitness>
16.7244

> <Gold.Chemscore.DG>
-20.5436

> <Gold.Chemscore.ZeroCoef>
-5.4800

> <Gold.Chemscore.Hbond>
1.8689

> <Gold.Chemscore.Metal>
0.0000

> <Gold.Chemscore.Lipo>
101.5943

> <Gold.Chemscore.Internal_Hbond>
0.0000

> <Gold.Chemscore.DEClash>
0.1865

> <Gold.Chemscore.DEInternal>
3.6327

> <Gold.Chemscore.Rot>
1.1974

> <Gold.Chemscore.Internal.Correction>
   9.000000E+99

> <Gold.Chemscore.Hbonds>
donor molecule, donor type, donor heavy atom, donor atom, acceptor molecule, acceptor atom, score
      L1  H     7    30       P1  8028  0.98
      L1  H    10    31       P1  8028  0.89

> <Gold.Chemscore.Hbond.Weighted>
-6.2423

> <Gold.Chemscore.Metal.Weighted>
-0.0000

> <Gold.Chemscore.Lipo.Weighted>
-11.8865

> <Gold.Chemscore.Internal_Hbond.Weighted>
0.0000

> <Gold.Chemscore.DEClash.Weighted>
0.1865

> <Gold.Chemscore.DEInternal.Weighted>
3.6327

> <Gold.Chemscore.Rot.Weighted>
3.0652

> <Gold.Chemscore.Internal.Correction.Weighted>
   9.000000E+99

> <Gold.Protein.RotatedTorsions>
[ 6907 6896 6895 6894 ] final   29.23 input  -60.11 | X-H torsion
[ 7974 7965 7964 7962 ] final -142.24 input  175.53 | X-H torsion
[ 8008 7997 7996 7995 ] final  -43.63 input   59.86 | X-H torsion
[ 10167 10162 10161 10158 ] final  173.80 input  -65.29 | X-H torsion
[ 10718 10713 10712 10709 ] final   18.04 input   66.30 | X-H torsion
[ 10763 10752 10751 10750 ] final  -56.07 input  -60.55 | X-H torsion
[ 11005 11000 10999 10996 ] final  -13.63 input  -57.11 | X-H torsion

> <Gold.Protein.ActiveResidues>
 VAL166  LYS551  ARG553  GLY616  TRP617  ASP618  TYR619  PRO620  LYS621  CYS622 
 ASP623  PHE694  ASN695  SER759  ASP760  ASP761  ALA762  ILE779  LEU786  VAL792 
 PHE793  MET794  SER795  GLU796  ALA797  LYS798  CYS799  TRP800  GLU811  SER814 

> <Gold.Protein.RotatedAtoms>
  152.0285  134.9781  160.0571 H   0  0  0  0  0  0  0  0  0  0  0  0  # atno 6907 bound_to 6896
  152.1267  133.4379  159.4709 H   0  0  0  0  0  0  0  0  0  0  0  0  # atno 6908 bound_to 6896
  150.6853  134.2388  159.4507 H   0  0  0  0  0  0  0  0  0  0  0  0  # atno 6909 bound_to 6896
  144.8458  140.5982  143.5422 H   0  0  0  0  0  0  0  0  0  0  0  0  # atno 7974 bound_to 7965
  154.3997  140.1443  156.3550 H   0  0  0  0  0  0  0  0  0  0  0  0  # atno 8008 bound_to 7997
  155.8234  140.3468  155.5507 H   0  0  0  0  0  0  0  0  0  0  0  0  # atno 8009 bound_to 7997
  155.8264  140.0905  157.1809 H   0  0  0  0  0  0  0  0  0  0  0  0  # atno 8010 bound_to 7997
  139.5120  144.3220  152.0193 H   0  0  0  0  0  0  0  0  0  0  0  0  # atno 10167 bound_to 10162
  157.0907  130.6426  149.5848 H   0  0  0  0  0  0  0  0  0  0  0  0  # atno 10718 bound_to 10713
  154.2008  135.6411  153.5086 H   0  0  0  0  0  0  0  0  0  0  0  0  # atno 10763 bound_to 10752
  153.0012  135.5451  154.6317 H   0  0  0  0  0  0  0  0  0  0  0  0  # atno 10764 bound_to 10752
  154.5729  135.2918  155.0782 H   0  0  0  0  0  0  0  0  0  0  0  0  # atno 10765 bound_to 10752
  140.7781  133.8385  155.9267 H   0  0  0  0  0  0  0  0  0  0  0  0  # atno 11005 bound_to 11000
  145.4600  139.1514  143.3872 LP  0  0  0  0  0  0  0  0  0  0  0  0  # atno 17320 bound_to 7965
  146.2743  140.4729  142.8802 LP  0  0  0  0  0  0  0  0  0  0  0  0  # atno 17321 bound_to 7965
  140.2662  144.4014  150.6168 LP  0  0  0  0  0  0  0  0  0  0  0  0  # atno 17342 bound_to 10162
  140.6122  143.2170  151.6864 LP  0  0  0  0  0  0  0  0  0  0  0  0  # atno 17343 bound_to 10162
  155.9899  130.4948  150.7233 LP  0  0  0  0  0  0  0  0  0  0  0  0  # atno 17370 bound_to 10713
  157.4723  131.0894  151.0628 LP  0  0  0  0  0  0  0  0  0  0  0  0  # atno 17371 bound_to 10713
  140.9509  134.1780  157.4728 LP  0  0  0  0  0  0  0  0  0  0  0  0  # atno 17394 bound_to 11000
  139.8746  134.9909  156.5523 LP  0  0  0  0  0  0  0  0  0  0  0  0  # atno 17395 bound_to 11000

$$$$
