AV-unprocessed.smi:1144|AV-procd|sdf|4876|dock9
  -GOLD-   22720 3453D 1   1.00000     0.00000
 Structure written by MMmdl.
 35 36  0  0  0  0  0  0  0  0  2 V2000
  145.9693  138.1790  151.9516 C   0  0  0  0  0  0  0  0  0  0  0  0
  146.1150  139.0096  153.1659 N   0  3  1  0  0  0  0  0  0  0  0  0
  145.8382  138.2557  154.4096 C   0  0  0  0  0  0  0  0  0  0  0  0
  145.9728  139.1780  155.6320 C   0  0  0  0  0  0  0  0  0  0  0  0
  147.2687  139.7646  155.6429 O   0  0  0  0  0  0  0  0  0  0  0  0
  147.5090  140.5767  154.4969 C   0  0  1  0  0  0  0  0  0  0  0  0
  148.8941  141.2199  154.6476 C   0  0  0  0  0  0  0  0  0  0  0  0
  149.0001  141.9883  155.8788 N   0  0  0  0  0  0  0  0  0  0  0  0
  149.8315  141.6540  156.9305 C   0  0  0  0  0  0  0  0  0  0  0  0
  150.1555  140.3667  157.0970 N   0  0  0  0  0  0  0  0  0  0  0  0
  150.9656  140.0679  158.1354 C   0  0  0  0  0  0  0  0  0  0  0  0
  151.4525  141.0622  159.0069 C   0  0  0  0  0  0  0  0  0  0  0  0
  151.0458  142.3878  158.7348 C   0  0  0  0  0  0  0  0  0  0  0  0
  151.4928  143.5633  159.5908 C   0  0  0  0  0  0  0  0  0  0  0  0
  152.2796  143.1684  160.5926 F   0  0  0  0  0  0  0  0  0  0  0  0
  152.1678  144.4346  158.8408 F   0  0  0  0  0  0  0  0  0  0  0  0
  150.4265  144.1748  160.1070 F   0  0  0  0  0  0  0  0  0  0  0  0
  150.2331  142.6745  157.6907 N   0  0  0  0  0  0  0  0  0  0  0  0
  147.4303  139.6861  153.2414 C   0  0  0  0  0  0  0  0  0  0  0  0
  146.6924  137.3622  151.9459 H   0  0  0  0  0  0  0  0  0  0  0  0
  146.1240  138.7796  151.0547 H   0  0  0  0  0  0  0  0  0  0  0  0
  144.9680  137.7506  151.8966 H   0  0  0  0  0  0  0  0  0  0  0  0
  144.8335  137.8327  154.3707 H   0  0  0  0  0  0  0  0  0  0  0  0
  146.5356  137.4207  154.4951 H   0  0  0  0  0  0  0  0  0  0  0  0
  145.2072  139.9554  155.6223 H   0  0  0  0  0  0  0  0  0  0  0  0
  145.8352  138.6071  156.5504 H   0  0  0  0  0  0  0  0  0  0  0  0
  146.7522  141.3613  154.4339 H   0  0  0  0  0  0  0  0  0  0  0  0
  149.6703  140.4540  154.6223 H   0  0  0  0  0  0  0  0  0  0  0  0
  149.0809  141.8936  153.8106 H   0  0  0  0  0  0  0  0  0  0  0  0
  148.4056  142.7956  155.9979 H   0  0  0  0  0  0  0  0  0  0  0  0
  151.2267  139.0289  158.2720 H   0  0  0  0  0  0  0  0  0  0  0  0
  152.1002  140.8139  159.8345 H   0  0  0  0  0  0  0  0  0  0  0  0
  148.2247  138.9378  153.2592 H   0  0  0  0  0  0  0  0  0  0  0  0
  147.5806  140.2913  152.3464 H   0  0  0  0  0  0  0  0  0  0  0  0
  145.4168  139.7372  153.1054 H   0  0  0  0  0  0  0  0  0  0  0  0
  1  2  1  0  0  0  0
  1 20  1  0  0  0  0
  1 21  1  0  0  0  0
  1 22  1  0  0  0  0
  2 19  1  0  0  0  0
  2  3  1  0  0  0  0
  2 35  1  0  0  0  0
  3  4  1  0  0  0  0
  3 23  1  0  0  0  0
  3 24  1  0  0  0  0
  4  5  1  0  0  0  0
  4 25  1  0  0  0  0
  4 26  1  0  0  0  0
  5  6  1  0  0  0  0
  6  7  1  0  0  0  0
  6 19  1  0  0  0  0
  6 27  1  0  0  0  0
  7  8  1  0  0  0  0
  7 28  1  0  0  0  0
  7 29  1  0  0  0  0
  8  9  1  0  0  0  0
  8 30  1  0  0  0  0
  9 18  1  0  0  0  0
  9 10  2  0  0  0  0
 10 11  1  0  0  0  0
 11 12  2  0  0  0  0
 11 31  1  0  0  0  0
 12 13  1  0  0  0  0
 12 32  1  0  0  0  0
 13 14  1  0  0  0  0
 13 18  2  0  0  0  0
 14 15  1  0  0  0  0
 14 16  1  0  0  0  0
 14 17  1  0  0  0  0
 19 33  1  0  0  0  0
 19 34  1  0  0  0  0
M  CHG  1   2   1
M  END
> <s_m_source_file>
AV-unprocessed.smi

> <i_m_source_file_index>
1144

> <i_lp_mmshare_version>
43012

> <i_f3d_flags>
0

> <s_epik_input>
W0NIM11OMVtDSDJdW0NIMl1PW0NASF0oW0NIMl0xKVtDSDJdW05IXWMybltjSF1bY0hdYyhuMilDKEYpKEYpRg==

> <s_epik_cmdline>
J2VwaWtfcHl0aG9uJywgJy1waCcsICc3LjAnLCAnLXRuJywgJzgnLCAnLW1hJywgJzIwMCcsICctbWV0YWxfYmluZGluZycsICctaW1hZScsICc8aW5maWxlLm1hZT4nLCAnLW9tYWUnLCAnPG91dGZpbGUubWFlPic=

> <r_lp_tautomer_probability>
1

> <r_epik_Ionization_Penalty>
0.178506

> <r_epik_Ionization_Penalty_Charging>
0.178504

> <r_epik_Ionization_Penalty_Neutral>
2.47225e-06

> <r_epik_State_Penalty>
0.167974

> <r_epik_Charging_Adjusted_Penalty>
0.346478

> <i_epik_Tot_Q>
1

> <i_epik_Tot_abs_Q>
1

> <r_epik_Metal_State_Penalty>
0.167974

> <b_epik_Metal_Only>
0

> <s_lp_Force_Field>
OPLS_2005

> <r_lp_Energy>
9.30015

> <b_lp_Chiralities_Consistent>
1

> <s_lp_Variant>
AV-unprocessed.smi:1144-1

> <Gold.Version>
5.8.1

> <Gold.Id.Protein>
6NUR|6NUR_protein|mol2

> <Gold.PLP.Fitness>
42.4170

> <Gold.PLP.PLP>
-34.4279

> <Gold.PLP.part.hbond>
-2.0000

> <Gold.PLP.part.metal>
0.0000

> <Gold.PLP.part.buried>
-2.1945

> <Gold.PLP.part.nonpolar>
-32.2436

> <Gold.PLP.part.repulsive>
1.2222

> <Gold.PLP.ligand.clash>
0.0000

> <Gold.PLP.ligand.torsion>
0.1815

> <Gold.PLP.Chemscore.Hbond>
2.7825

> <Gold.PLP.Chemscore.CHOScore>
0.0000

> <Gold.PLP.Chemscore.Metal>
0.0000

> <Gold.Chemscore.Hbonds>
donor molecule, donor type, donor heavy atom, donor atom, acceptor molecule, acceptor atom, score
      L1  H     2    35       P1 10175  2.00
      L1  H     8    30       P1  8028  0.56

> <Gold.PLP.Chemscore.Internal.Correction>
0.0046

> <Gold.Rescore>
     Score         DG    S(hbond)    S(metal)    S(lipo)     H(rot)  DE(clash)    DE(int)     intcor
     14.53     -14.85       1.72        0.00      60.09       1.34       0.11       0.20       ----

> <Gold.Chemscore.Fitness>
14.5309

> <Gold.Chemscore.DG>
-14.8473

> <Gold.Chemscore.ZeroCoef>
-5.4800

> <Gold.Chemscore.Hbond>
1.7249

> <Gold.Chemscore.Metal>
0.0000

> <Gold.Chemscore.Lipo>
60.0947

> <Gold.Chemscore.Internal_Hbond>
0.0000

> <Gold.Chemscore.DEClash>
0.1139

> <Gold.Chemscore.DEInternal>
0.2024

> <Gold.Chemscore.Rot>
1.3379

> <Gold.Chemscore.Internal.Correction>
   9.000000E+99

> <Gold.Chemscore.Hbonds>
donor molecule, donor type, donor heavy atom, donor atom, acceptor molecule, acceptor atom, score
      L1  H     2    35       P1 10175  0.94
      L1  H     8    30       P1  8028  0.52

> <Gold.Chemscore.Hbond.Weighted>
-5.7612

> <Gold.Chemscore.Metal.Weighted>
-0.0000

> <Gold.Chemscore.Lipo.Weighted>
-7.0311

> <Gold.Chemscore.Internal_Hbond.Weighted>
0.0000

> <Gold.Chemscore.DEClash.Weighted>
0.1139

> <Gold.Chemscore.DEInternal.Weighted>
0.2024

> <Gold.Chemscore.Rot.Weighted>
3.4250

> <Gold.Chemscore.Internal.Correction.Weighted>
   9.000000E+99

> <Gold.Protein.RotatedTorsions>
[ 6907 6896 6895 6894 ] final  158.34 input  -60.11 | X-H torsion
[ 7974 7965 7964 7962 ] final  -83.50 input  175.53 | X-H torsion
[ 8008 7997 7996 7995 ] final -174.22 input   59.86 | X-H torsion
[ 10167 10162 10161 10158 ] final   94.77 input  -65.29 | X-H torsion
[ 10718 10713 10712 10709 ] final  -17.24 input   66.30 | X-H torsion
[ 10763 10752 10751 10750 ] final -167.45 input  -60.55 | X-H torsion
[ 11005 11000 10999 10996 ] final -104.31 input  -57.11 | X-H torsion

> <Gold.Protein.ActiveResidues>
 VAL166  LYS551  ARG553  GLY616  TRP617  ASP618  TYR619  PRO620  LYS621  CYS622 
 ASP623  PHE694  ASN695  SER759  ASP760  ASP761  ALA762  ILE779  LEU786  VAL792 
 PHE793  MET794  SER795  GLU796  ALA797  LYS798  CYS799  TRP800  GLU811  SER814 

> <Gold.Protein.RotatedAtoms>
  152.0018  133.3828  159.4184 H   0  0  0  0  0  0  0  0  0  0  0  0  # atno 6907 bound_to 6896
  150.6909  134.3826  159.5050 H   0  0  0  0  0  0  0  0  0  0  0  0  # atno 6908 bound_to 6896
  152.1574  134.8939  160.0594 H   0  0  0  0  0  0  0  0  0  0  0  0  # atno 6909 bound_to 6896
  145.5191  140.9533  143.1665 H   0  0  0  0  0  0  0  0  0  0  0  0  # atno 7974 bound_to 7965
  155.9673  140.1156  157.0843 H   0  0  0  0  0  0  0  0  0  0  0  0  # atno 8008 bound_to 7997
  154.4147  140.1170  156.5327 H   0  0  0  0  0  0  0  0  0  0  0  0  # atno 8009 bound_to 7997
  155.6642  140.3473  155.4796 H   0  0  0  0  0  0  0  0  0  0  0  0  # atno 8010 bound_to 7997
  139.8052  144.6797  150.9712 H   0  0  0  0  0  0  0  0  0  0  0  0  # atno 10167 bound_to 10162
  156.5763  130.4762  149.6340 H   0  0  0  0  0  0  0  0  0  0  0  0  # atno 10718 bound_to 10713
  154.6730  135.2942  154.9716 H   0  0  0  0  0  0  0  0  0  0  0  0  # atno 10763 bound_to 10752
  154.0737  135.6614  153.4832 H   0  0  0  0  0  0  0  0  0  0  0  0  # atno 10764 bound_to 10752
  153.0499  135.5181  154.7736 H   0  0  0  0  0  0  0  0  0  0  0  0  # atno 10765 bound_to 10752
  141.1106  133.8712  157.1595 H   0  0  0  0  0  0  0  0  0  0  0  0  # atno 11005 bound_to 11000
  144.7686  139.6788  143.7204 LP  0  0  0  0  0  0  0  0  0  0  0  0  # atno 17320 bound_to 7965
  146.2117  139.5478  142.9676 LP  0  0  0  0  0  0  0  0  0  0  0  0  # atno 17321 bound_to 7965
  140.7819  143.4241  151.0796 LP  0  0  0  0  0  0  0  0  0  0  0  0  # atno 17342 bound_to 10162
  139.7910  143.8218  152.3151 LP  0  0  0  0  0  0  0  0  0  0  0  0  # atno 17343 bound_to 10162
  156.2671  130.6995  151.1781 LP  0  0  0  0  0  0  0  0  0  0  0  0  # atno 17370 bound_to 10713
  157.7337  131.0589  150.5564 LP  0  0  0  0  0  0  0  0  0  0  0  0  # atno 17371 bound_to 10713
  139.9998  135.0032  157.0165 LP  0  0  0  0  0  0  0  0  0  0  0  0  # atno 17394 bound_to 11000
  140.4784  134.1314  155.7213 LP  0  0  0  0  0  0  0  0  0  0  0  0  # atno 17395 bound_to 11000

$$$$
