AV-unprocessed.smi:2784|AV-procd|sdf|10726|dock8
  -GOLD-   2272015163D 1   1.00000     0.00000
 Structure written by MMmdl.
 31 32  0  0  0  0  0  0  0  0  1 V2000
  152.9620  142.7549  162.4468 C   0  0  0  0  0  0  0  0  0  0  0  0
  151.8945  142.6433  161.5188 O   0  0  0  0  0  0  0  0  0  0  0  0
  152.1902  143.1914  160.2416 C   0  0  2  0  0  0  0  0  0  0  0  0
  152.1884  144.7200  160.3302 C   0  0  0  0  0  0  0  0  0  0  0  0
  151.8044  145.1807  158.9287 C   0  0  0  0  0  0  0  0  0  0  0  0
  150.7522  144.1648  158.4857 C   0  0  0  0  0  0  0  0  0  0  0  0
  151.1319  142.8375  159.1711 C   0  0  1  0  0  0  0  0  0  0  0  0
  151.6785  141.8892  158.2034 N   0  0  0  0  0  0  0  0  0  0  0  0
  150.9503  141.1242  157.3777 C   0  0  0  0  0  0  0  0  0  0  0  0
  149.7199  141.1466  157.3376 O   0  0  0  0  0  0  0  0  0  0  0  0
  151.7358  140.3475  156.6132 N   0  0  0  0  0  0  0  0  0  0  0  0
  151.3279  139.3937  155.6469 C   0  0  0  0  0  0  0  0  0  0  0  0
  150.7994  139.6514  154.4495 N   0  0  0  0  0  0  0  0  0  0  0  0
  150.5685  138.4018  153.8928 C   0  0  0  0  0  0  0  0  0  0  0  0
  150.9744  137.4508  154.7934 C   0  0  0  0  0  0  0  0  0  0  0  0
  151.4594  138.0677  155.9155 O   0  0  0  0  0  0  0  0  0  0  0  0
  152.6530  142.3436  163.4077 H   0  0  0  0  0  0  0  0  0  0  0  0
  153.2417  143.7973  162.6032 H   0  0  0  0  0  0  0  0  0  0  0  0
  153.8424  142.2031  162.1168 H   0  0  0  0  0  0  0  0  0  0  0  0
  153.1861  142.8779  159.9207 H   0  0  0  0  0  0  0  0  0  0  0  0
  151.4272  145.0518  161.0380 H   0  0  0  0  0  0  0  0  0  0  0  0
  153.1463  145.1225  160.6605 H   0  0  0  0  0  0  0  0  0  0  0  0
  151.4338  146.2059  158.9088 H   0  0  0  0  0  0  0  0  0  0  0  0
  152.6727  145.1247  158.2710 H   0  0  0  0  0  0  0  0  0  0  0  0
  149.7727  144.4845  158.8438 H   0  0  0  0  0  0  0  0  0  0  0  0
  150.6852  144.0911  157.3994 H   0  0  0  0  0  0  0  0  0  0  0  0
  150.2443  142.4188  159.6496 H   0  0  0  0  0  0  0  0  0  0  0  0
  152.6840  141.8078  158.1671 H   0  0  0  0  0  0  0  0  0  0  0  0
  152.7324  140.4410  156.7412 H   0  0  0  0  0  0  0  0  0  0  0  0
  150.1371  138.2877  152.9093 H   0  0  0  0  0  0  0  0  0  0  0  0
  150.9843  136.3708  154.7899 H   0  0  0  0  0  0  0  0  0  0  0  0
  1  2  1  0  0  0  0
  1 17  1  0  0  0  0
  1 18  1  0  0  0  0
  1 19  1  0  0  0  0
  2  3  1  0  0  0  0
  3  7  1  0  0  0  0
  3  4  1  0  0  0  0
  3 20  1  0  0  0  0
  4  5  1  0  0  0  0
  4 21  1  0  0  0  0
  4 22  1  0  0  0  0
  5  6  1  0  0  0  0
  5 23  1  0  0  0  0
  5 24  1  0  0  0  0
  6  7  1  0  0  0  0
  6 25  1  0  0  0  0
  6 26  1  0  0  0  0
  7  8  1  0  0  0  0
  7 27  1  0  0  0  0
  8  9  1  0  0  0  0
  8 28  1  0  0  0  0
  9 10  2  0  0  0  0
  9 11  1  0  0  0  0
 11 12  1  0  0  0  0
 11 29  1  0  0  0  0
 12 16  1  0  0  0  0
 12 13  2  0  0  0  0
 13 14  1  0  0  0  0
 14 15  2  0  0  0  0
 14 30  1  0  0  0  0
 15 16  1  0  0  0  0
 15 31  1  0  0  0  0
M  END
> <s_m_source_file>
AV-unprocessed.smi

> <i_m_source_file_index>
2784

> <i_lp_mmshare_version>
43012

> <i_f3d_flags>
0

> <s_epik_input>
W0NIM11PW0NAQEhdMVtDSDJdW0NIMl1bQ0gyXVtDQEhdMVtOSF1DKD1PKVtOSF1jMm5bY0hdW2NIXW8y

> <s_epik_cmdline>
J2VwaWtfcHl0aG9uJywgJy1waCcsICc3LjAnLCAnLXRuJywgJzgnLCAnLW1hJywgJzIwMCcsICctbWV0YWxfYmluZGluZycsICctaW1hZScsICc8aW5maWxlLm1hZT4nLCAnLW9tYWUnLCAnPG91dGZpbGUubWFlPic=

> <r_lp_tautomer_probability>
0.785861

> <r_epik_Ionization_Penalty>
4.58897e-05

> <r_epik_Ionization_Penalty_Charging>
0

> <r_epik_Ionization_Penalty_Neutral>
4.58897e-05

> <r_epik_State_Penalty>
0.0380021

> <r_epik_Charging_Adjusted_Penalty>
0.0380021

> <i_epik_Tot_Q>
0

> <i_epik_Tot_abs_Q>
0

> <r_epik_Metal_State_Penalty>
0.0585611

> <b_epik_Metal_Only>
0

> <s_lp_Force_Field>
OPLS_2005

> <r_lp_Energy>
17.9939

> <b_lp_Chiralities_Consistent>
1

> <s_lp_Variant>
AV-unprocessed.smi:2784-1

> <Gold.Version>
5.8.1

> <Gold.Id.Protein>
6NUR|6NUR_protein|mol2

> <Gold.PLP.Fitness>
42.1252

> <Gold.PLP.PLP>
-33.8865

> <Gold.PLP.part.hbond>
-2.0000

> <Gold.PLP.part.metal>
0.0000

> <Gold.PLP.part.buried>
-6.9769

> <Gold.PLP.part.nonpolar>
-26.6932

> <Gold.PLP.part.repulsive>
0.4831

> <Gold.PLP.ligand.clash>
0.0000

> <Gold.PLP.ligand.torsion>
1.0253

> <Gold.PLP.Chemscore.Hbond>
1.4264

> <Gold.PLP.Chemscore.CHOScore>
2.0015

> <Gold.PLP.Chemscore.Metal>
0.0000

> <Gold.Chemscore.Hbonds>
donor molecule, donor type, donor heavy atom, donor atom, acceptor molecule, acceptor atom, score
      P1  H  6933  6945       L1     2  0.43
      P1  H  7989  7998       L1    13  1.00
      L1  C    14    30       P1  7948  0.97
      L1  C    14    30       P1  7949  0.02
      L1  C    14    30       P1  7957  1.00

> <Gold.PLP.Chemscore.Internal.Correction>
0.0056

> <Gold.Rescore>
     Score         DG    S(hbond)    S(metal)    S(lipo)     H(rot)  DE(clash)    DE(int)     intcor
     16.17     -17.25       1.63        0.00      83.00       1.32       0.03       1.06       ----

> <Gold.Chemscore.Fitness>
16.1669

> <Gold.Chemscore.DG>
-17.2529

> <Gold.Chemscore.ZeroCoef>
-5.4800

> <Gold.Chemscore.Hbond>
1.6316

> <Gold.Chemscore.Metal>
0.0000

> <Gold.Chemscore.Lipo>
83.0029

> <Gold.Chemscore.Internal_Hbond>
0.0000

> <Gold.Chemscore.DEClash>
0.0270

> <Gold.Chemscore.DEInternal>
1.0589

> <Gold.Chemscore.Rot>
1.3235

> <Gold.Chemscore.Internal.Correction>
   9.000000E+99

> <Gold.Chemscore.Hbonds>
donor molecule, donor type, donor heavy atom, donor atom, acceptor molecule, acceptor atom, score
      P1  H  6933  6945       L1     2  0.40
      P1  H  7989  7998       L1    13  0.90

> <Gold.Chemscore.Hbond.Weighted>
-5.4497

> <Gold.Chemscore.Metal.Weighted>
-0.0000

> <Gold.Chemscore.Lipo.Weighted>
-9.7113

> <Gold.Chemscore.Internal_Hbond.Weighted>
0.0000

> <Gold.Chemscore.DEClash.Weighted>
0.0270

> <Gold.Chemscore.DEInternal.Weighted>
1.0589

> <Gold.Chemscore.Rot.Weighted>
3.3882

> <Gold.Chemscore.Internal.Correction.Weighted>
   9.000000E+99

> <Gold.Protein.RotatedTorsions>
[ 6907 6896 6895 6894 ] final  165.63 input  -60.11 | X-H torsion
[ 7974 7965 7964 7962 ] final  -53.40 input  175.53 | X-H torsion
[ 8008 7997 7996 7995 ] final  164.90 input   59.86 | X-H torsion
[ 10167 10162 10161 10158 ] final  -31.73 input  -65.29 | X-H torsion
[ 10718 10713 10712 10709 ] final   89.45 input   66.30 | X-H torsion
[ 10763 10752 10751 10750 ] final  147.48 input  -60.55 | X-H torsion
[ 11005 11000 10999 10996 ] final   86.47 input  -57.11 | X-H torsion

> <Gold.Protein.ActiveResidues>
 VAL166  LYS551  ARG553  GLY616  TRP617  ASP618  TYR619  PRO620  LYS621  CYS622 
 ASP623  PHE694  ASN695  SER759  ASP760  ASP761  ALA762  ILE779  LEU786  VAL792 
 PHE793  MET794  SER795  GLU796  ALA797  LYS798  CYS799  TRP800  GLU811  SER814 

> <Gold.Protein.RotatedAtoms>
  151.8915  133.3517  159.3799 H   0  0  0  0  0  0  0  0  0  0  0  0  # atno 6907 bound_to 6896
  150.7102  134.4919  159.5529 H   0  0  0  0  0  0  0  0  0  0  0  0  # atno 6908 bound_to 6896
  152.2490  134.8152  160.0500 H   0  0  0  0  0  0  0  0  0  0  0  0  # atno 6909 bound_to 6896
  145.8972  140.8023  142.9761 H   0  0  0  0  0  0  0  0  0  0  0  0  # atno 7974 bound_to 7965
  156.1844  140.1684  156.8214 H   0  0  0  0  0  0  0  0  0  0  0  0  # atno 8008 bound_to 7997
  154.5396  140.0739  156.8520 H   0  0  0  0  0  0  0  0  0  0  0  0  # atno 8009 bound_to 7997
  155.3241  140.3375  155.4243 H   0  0  0  0  0  0  0  0  0  0  0  0  # atno 8010 bound_to 7997
  140.7232  143.3748  151.1709 H   0  0  0  0  0  0  0  0  0  0  0  0  # atno 10167 bound_to 10162
  157.6955  131.0333  150.3428 H   0  0  0  0  0  0  0  0  0  0  0  0  # atno 10718 bound_to 10713
  154.0390  135.2891  155.3358 H   0  0  0  0  0  0  0  0  0  0  0  0  # atno 10763 bound_to 10752
  154.6941  135.5215  153.8437 H   0  0  0  0  0  0  0  0  0  0  0  0  # atno 10764 bound_to 10752
  153.0608  135.6613  154.0596 H   0  0  0  0  0  0  0  0  0  0  0  0  # atno 10765 bound_to 10752
  139.8944  134.8357  156.2725 H   0  0  0  0  0  0  0  0  0  0  0  0  # atno 11005 bound_to 11000
  144.6733  140.1621  143.7421 LP  0  0  0  0  0  0  0  0  0  0  0  0  # atno 17320 bound_to 7965
  145.8836  139.2336  143.1591 LP  0  0  0  0  0  0  0  0  0  0  0  0  # atno 17321 bound_to 7965
  139.7327  143.9048  152.3024 LP  0  0  0  0  0  0  0  0  0  0  0  0  # atno 17342 bound_to 10162
  139.8842  144.7001  150.8843 LP  0  0  0  0  0  0  0  0  0  0  0  0  # atno 17343 bound_to 10162
  156.3886  130.3894  149.7047 LP  0  0  0  0  0  0  0  0  0  0  0  0  # atno 17370 bound_to 10713
  156.4404  130.7858  151.2879 LP  0  0  0  0  0  0  0  0  0  0  0  0  # atno 17371 bound_to 10713
  141.0091  133.7106  156.1083 LP  0  0  0  0  0  0  0  0  0  0  0  0  # atno 17394 bound_to 11000
  140.7392  134.4169  157.5557 LP  0  0  0  0  0  0  0  0  0  0  0  0  # atno 17395 bound_to 11000

$$$$
