AV-unprocessed.smi:2358|AV-procd|sdf|9403|dock10
  -GOLD-   2272013 33D 1   1.00000     0.00000
 Structure written by MMmdl.
 45 47  0  0  0  0  0  0  0  0  1 V2000
  151.7780  145.3518  158.8650 C   0  0  0  0  0  0  0  0  0  0  0  0
  151.9080  143.8430  158.8243 C   0  0  0  0  0  0  0  0  0  0  0  0
  152.8546  143.1877  159.6369 C   0  0  0  0  0  0  0  0  0  0  0  0
  152.9689  141.7845  159.5964 C   0  0  0  0  0  0  0  0  0  0  0  0
  153.9890  141.0867  160.4722 C   0  0  0  0  0  0  0  0  0  0  0  0
  152.1334  141.0391  158.7395 C   0  0  0  0  0  0  0  0  0  0  0  0
  151.1822  141.6791  157.9188 C   0  0  0  0  0  0  0  0  0  0  0  0
  150.4094  140.8715  157.1116 O   0  0  0  0  0  0  0  0  0  0  0  0
  149.2797  141.4455  156.4673 C   0  0  0  0  0  0  0  0  0  0  0  0
  149.0951  140.7792  155.0936 C   0  0  2  0  0  0  0  0  0  0  0  0
  149.4013  141.7493  154.1105 O   0  0  0  0  0  0  0  0  0  0  0  0
  147.6359  140.3229  154.8705 C   0  0  0  0  0  0  0  0  0  0  0  0
  146.6668  141.3007  155.3798 N   0  0  0  0  0  0  0  0  0  0  0  0
  146.3206  142.2770  154.4636 N   0  0  0  0  0  0  0  0  0  0  0  0
  145.4669  143.2004  154.7635 C   0  0  0  0  0  0  0  0  0  0  0  0
  145.1070  144.2118  153.7860 N   0  0  0  0  0  0  0  0  0  0  0  0
  145.6809  144.2684  152.5152 C   0  0  0  0  0  0  0  0  0  0  0  0
  145.1014  145.3494  151.8880 C   0  0  0  0  0  0  0  0  0  0  0  0
  144.1859  145.9636  152.7407 N   0  0  0  0  0  0  0  0  0  0  0  0
  144.2445  145.2359  153.8481 C   0  0  0  0  0  0  0  0  0  0  0  0
  144.8674  143.2253  156.0934 C   0  0  0  0  0  0  0  0  0  0  0  0
  145.2138  142.2676  156.9806 C   0  0  0  0  0  0  0  0  0  0  0  0
  146.1679  141.2116  156.6476 C   0  0  0  0  0  0  0  0  0  0  0  0
  146.4917  140.3225  157.4346 O   0  0  0  0  0  0  0  0  0  0  0  0
  151.0749  143.0919  157.9702 C   0  0  0  0  0  0  0  0  0  0  0  0
  152.5828  145.8052  159.4445 H   0  0  0  0  0  0  0  0  0  0  0  0
  150.8281  145.6357  159.3186 H   0  0  0  0  0  0  0  0  0  0  0  0
  151.8136  145.7631  157.8557 H   0  0  0  0  0  0  0  0  0  0  0  0
  153.4944  143.7596  160.2936 H   0  0  0  0  0  0  0  0  0  0  0  0
  153.9171  140.0023  160.3829 H   0  0  0  0  0  0  0  0  0  0  0  0
  153.8339  141.3524  161.5182 H   0  0  0  0  0  0  0  0  0  0  0  0
  154.9981  141.3859  160.1877 H   0  0  0  0  0  0  0  0  0  0  0  0
  152.2200  139.9628  158.7065 H   0  0  0  0  0  0  0  0  0  0  0  0
  148.4020  141.2484  157.0848 H   0  0  0  0  0  0  0  0  0  0  0  0
  149.3799  142.5279  156.3652 H   0  0  0  0  0  0  0  0  0  0  0  0
  149.7774  139.9327  155.0066 H   0  0  0  0  0  0  0  0  0  0  0  0
  149.8986  142.4427  154.5163 H   0  0  0  0  0  0  0  0  0  0  0  0
  147.4501  140.1777  153.8049 H   0  0  0  0  0  0  0  0  0  0  0  0
  147.4701  139.3403  155.3169 H   0  0  0  0  0  0  0  0  0  0  0  0
  146.4278  143.5890  152.1377 H   0  0  0  0  0  0  0  0  0  0  0  0
  145.2749  145.7324  150.8931 H   0  0  0  0  0  0  0  0  0  0  0  0
  143.6464  145.4540  154.7210 H   0  0  0  0  0  0  0  0  0  0  0  0
  144.1637  143.9811  156.3986 H   0  0  0  0  0  0  0  0  0  0  0  0
  144.7751  142.2818  157.9676 H   0  0  0  0  0  0  0  0  0  0  0  0
  150.3580  143.6232  157.3626 H   0  0  0  0  0  0  0  0  0  0  0  0
  1  2  1  0  0  0  0
  1 26  1  0  0  0  0
  1 27  1  0  0  0  0
  1 28  1  0  0  0  0
  2 25  1  0  0  0  0
  2  3  2  0  0  0  0
  3  4  1  0  0  0  0
  3 29  1  0  0  0  0
  4  5  1  0  0  0  0
  4  6  2  0  0  0  0
  5 30  1  0  0  0  0
  5 31  1  0  0  0  0
  5 32  1  0  0  0  0
  6  7  1  0  0  0  0
  6 33  1  0  0  0  0
  7  8  1  0  0  0  0
  7 25  2  0  0  0  0
  8  9  1  0  0  0  0
  9 10  1  0  0  0  0
  9 34  1  0  0  0  0
  9 35  1  0  0  0  0
 10 11  1  0  0  0  0
 10 12  1  0  0  0  0
 10 36  1  0  0  0  0
 11 37  1  0  0  0  0
 12 13  1  0  0  0  0
 12 38  1  0  0  0  0
 12 39  1  0  0  0  0
 13 23  1  0  0  0  0
 13 14  1  0  0  0  0
 14 15  2  0  0  0  0
 15 16  1  0  0  0  0
 15 21  1  0  0  0  0
 16 20  1  0  0  0  0
 16 17  1  0  0  0  0
 17 18  2  0  0  0  0
 17 40  1  0  0  0  0
 18 19  1  0  0  0  0
 18 41  1  0  0  0  0
 19 20  2  0  0  0  0
 20 42  1  0  0  0  0
 21 22  2  0  0  0  0
 21 43  1  0  0  0  0
 22 23  1  0  0  0  0
 22 44  1  0  0  0  0
 23 24  2  0  0  0  0
 25 45  1  0  0  0  0
M  END
> <s_m_source_file>
AV-unprocessed.smi

> <i_m_source_file_index>
2358

> <i_lp_mmshare_version>
43012

> <i_f3d_flags>
0

> <s_epik_input>
W0NIM11jMVtjSF1jKFtDSDNdKVtjSF1jKFtjSF0xKU9bQ0gyXVtDQEhdKFtPSF0pW0NIMl1uMm5jKFtjSF1bY0hdYzI9TyktbjNbY0hdW2NIXW5bY0hdMw==

> <s_epik_cmdline>
J2VwaWtfcHl0aG9uJywgJy1waCcsICc3LjAnLCAnLXRuJywgJzgnLCAnLW1hJywgJzIwMCcsICctbWV0YWxfYmluZGluZycsICctaW1hZScsICc8aW5maWxlLm1hZT4nLCAnLW9tYWUnLCAnPG91dGZpbGUubWFlPic=

> <r_lp_tautomer_probability>
1

> <r_epik_Ionization_Penalty>
0.03707

> <r_epik_Ionization_Penalty_Charging>
0.0370699

> <r_epik_Ionization_Penalty_Neutral>
1.17174e-07

> <r_epik_State_Penalty>
0.0310055

> <r_epik_Charging_Adjusted_Penalty>
0.0680754

> <i_epik_Tot_Q>
0

> <i_epik_Tot_abs_Q>
0

> <r_epik_Metal_State_Penalty>
0.0291724

> <b_epik_Metal_Only>
0

> <s_lp_Force_Field>
OPLS_2005

> <r_lp_Energy>
37.1438

> <b_lp_Chiralities_Consistent>
1

> <s_lp_Variant>
AV-unprocessed.smi:2358-1

> <Gold.Version>
5.8.1

> <Gold.Id.Protein>
6NUR|6NUR_protein|mol2

> <Gold.PLP.Fitness>
47.7125

> <Gold.PLP.PLP>
-49.9240

> <Gold.PLP.part.hbond>
-4.0000

> <Gold.PLP.part.metal>
0.0000

> <Gold.PLP.part.buried>
-4.3652

> <Gold.PLP.part.nonpolar>
-41.7431

> <Gold.PLP.part.repulsive>
0.3258

> <Gold.PLP.ligand.clash>
0.0000

> <Gold.PLP.ligand.torsion>
1.5888

> <Gold.PLP.Chemscore.Hbond>
0.3072

> <Gold.PLP.Chemscore.CHOScore>
0.0000

> <Gold.PLP.Chemscore.Metal>
0.0000

> <Gold.Chemscore.Hbonds>
donor molecule, donor type, donor heavy atom, donor atom, acceptor molecule, acceptor atom, score
      P1  H  8011  8017       L1    11  0.29

> <Gold.PLP.Chemscore.Internal.Correction>
0.0445

> <Gold.Rescore>
     Score         DG    S(hbond)    S(metal)    S(lipo)     H(rot)  DE(clash)    DE(int)     intcor
     11.00     -12.91       0.00        0.00     120.38       2.60       0.19       1.73       ----

> <Gold.Chemscore.Fitness>
11.0005

> <Gold.Chemscore.DG>
-12.9118

> <Gold.Chemscore.ZeroCoef>
-5.4800

> <Gold.Chemscore.Hbond>
0.0000

> <Gold.Chemscore.Metal>
0.0000

> <Gold.Chemscore.Lipo>
120.3766

> <Gold.Chemscore.Internal_Hbond>
0.0000

> <Gold.Chemscore.DEClash>
0.1858

> <Gold.Chemscore.DEInternal>
1.7255

> <Gold.Chemscore.Rot>
2.5986

> <Gold.Chemscore.Internal.Correction>
   9.000000E+99

> <Gold.Chemscore.Hbonds>
donor molecule, donor type, donor heavy atom, donor atom, acceptor molecule, acceptor atom, score
      P1  H  8011  8017       L1    11  0.02

> <Gold.Chemscore.Hbond.Weighted>
-0.0001

> <Gold.Chemscore.Metal.Weighted>
-0.0000

> <Gold.Chemscore.Lipo.Weighted>
-14.0841

> <Gold.Chemscore.Internal_Hbond.Weighted>
0.0000

> <Gold.Chemscore.DEClash.Weighted>
0.1858

> <Gold.Chemscore.DEInternal.Weighted>
1.7255

> <Gold.Chemscore.Rot.Weighted>
6.6524

> <Gold.Chemscore.Internal.Correction.Weighted>
   9.000000E+99

> <Gold.Protein.RotatedTorsions>
[ 6907 6896 6895 6894 ] final -120.08 input  -60.11 | X-H torsion
[ 7974 7965 7964 7962 ] final   70.86 input  175.53 | X-H torsion
[ 8008 7997 7996 7995 ] final  -14.35 input   59.86 | X-H torsion
[ 10167 10162 10161 10158 ] final -178.06 input  -65.29 | X-H torsion
[ 10718 10713 10712 10709 ] final  -43.12 input   66.30 | X-H torsion
[ 10763 10752 10751 10750 ] final -119.82 input  -60.55 | X-H torsion
[ 11005 11000 10999 10996 ] final  -35.22 input  -57.11 | X-H torsion

> <Gold.Protein.ActiveResidues>
 VAL166  LYS551  ARG553  GLY616  TRP617  ASP618  TYR619  PRO620  LYS621  CYS622 
 ASP623  PHE694  ASN695  SER759  ASP760  ASP761  ALA762  ILE779  LEU786  VAL792 
 PHE793  MET794  SER795  GLU796  ALA797  LYS798  CYS799  TRP800  GLU811  SER814 

> <Gold.Protein.RotatedAtoms>
  150.8362  133.8010  159.3078 H   0  0  0  0  0  0  0  0  0  0  0  0  # atno 6907 bound_to 6896
  151.5725  135.1060  160.0008 H   0  0  0  0  0  0  0  0  0  0  0  0  # atno 6908 bound_to 6896
  152.4434  133.7448  159.6717 H   0  0  0  0  0  0  0  0  0  0  0  0  # atno 6909 bound_to 6896
  145.7729  139.2851  143.1310 H   0  0  0  0  0  0  0  0  0  0  0  0  # atno 7974 bound_to 7965
  154.5217  140.2225  155.8963 H   0  0  0  0  0  0  0  0  0  0  0  0  # atno 8008 bound_to 7997
  156.1669  140.3130  155.8870 H   0  0  0  0  0  0  0  0  0  0  0  0  # atno 8009 bound_to 7997
  155.3637  140.0462  157.3037 H   0  0  0  0  0  0  0  0  0  0  0  0  # atno 8010 bound_to 7997
  139.5450  144.2260  152.0970 H   0  0  0  0  0  0  0  0  0  0  0  0  # atno 10167 bound_to 10162
  156.2524  130.4189  149.8635 H   0  0  0  0  0  0  0  0  0  0  0  0  # atno 10718 bound_to 10713
  154.8628  135.4224  154.2361 H   0  0  0  0  0  0  0  0  0  0  0  0  # atno 10763 bound_to 10752
  153.3336  135.6989  153.6932 H   0  0  0  0  0  0  0  0  0  0  0  0  # atno 10764 bound_to 10752
  153.5939  135.3549  155.2894 H   0  0  0  0  0  0  0  0  0  0  0  0  # atno 10765 bound_to 10752
  140.9779  133.7072  156.1634 H   0  0  0  0  0  0  0  0  0  0  0  0  # atno 11005 bound_to 11000
  146.0151  140.8399  142.9951 LP  0  0  0  0  0  0  0  0  0  0  0  0  # atno 17320 bound_to 7965
  144.6809  140.2547  143.7327 LP  0  0  0  0  0  0  0  0  0  0  0  0  # atno 17321 bound_to 7965
  140.1745  144.4904  150.6561 LP  0  0  0  0  0  0  0  0  0  0  0  0  # atno 17342 bound_to 10162
  140.6695  143.2280  151.5661 LP  0  0  0  0  0  0  0  0  0  0  0  0  # atno 17343 bound_to 10162
  156.6179  130.8614  151.3469 LP  0  0  0  0  0  0  0  0  0  0  0  0  # atno 17370 bound_to 10713
  157.7219  130.9570  150.1474 LP  0  0  0  0  0  0  0  0  0  0  0  0  # atno 17371 bound_to 10713
  140.7231  134.4337  157.5573 LP  0  0  0  0  0  0  0  0  0  0  0  0  # atno 17394 bound_to 11000
  139.8938  134.8722  156.2206 LP  0  0  0  0  0  0  0  0  0  0  0  0  # atno 17395 bound_to 11000

$$$$
