AV-unprocessed.smi:3276|AV-procd|sdf|12534|dock8
  -GOLD-   2272018453D 1   1.00000     0.00000
 Structure written by MMmdl.
 39 40  0  0  0  0  0  0  0  0  1 V2000
  149.9060  137.8335  154.6864 C   0  0  0  0  0  0  0  0  0  0  0  0
  149.0707  139.0883  154.5485 C   0  0  0  0  0  0  0  0  0  0  0  0
  148.0598  139.1990  153.5703 C   0  0  0  0  0  0  0  0  0  0  0  0
  147.3143  140.3183  153.4471 N   0  0  0  0  0  0  0  0  0  0  0  0
  147.5844  141.3292  154.3051 C   0  0  0  0  0  0  0  0  0  0  0  0
  146.7385  142.5806  154.1508 C   0  0  0  0  0  0  0  0  0  0  0  0
  148.6010  141.2251  155.2887 C   0  0  0  0  0  0  0  0  0  0  0  0
  148.8519  142.2932  156.1627 N   0  0  0  0  0  0  0  0  0  0  0  0
  149.6696  142.0920  157.3505 C   0  0  0  0  0  0  0  0  0  0  0  0
  151.0177  142.8087  157.2253 C   0  0  0  0  0  0  0  0  0  0  0  0
  151.8015  142.5015  158.3658 O   0  0  0  0  0  0  0  0  0  0  0  0
  152.0332  143.6237  159.2009 C   0  0  0  0  0  0  0  0  0  0  0  0
  153.0568  143.2567  160.2846 C   0  0  2  0  0  0  0  0  0  0  0  0
  153.2905  141.7559  160.4770 C   0  0  0  0  0  0  0  0  0  0  0  0
  153.7026  141.6955  161.9304 C   0  0  0  0  0  0  0  0  0  0  0  0
  152.7956  142.7554  162.5477 C   0  0  0  0  0  0  0  0  0  0  0  0
  152.6619  143.7684  161.5555 O   0  0  0  0  0  0  0  0  0  0  0  0
  149.3428  140.0963  155.4065 N   0  0  0  0  0  0  0  0  0  0  0  0
  149.5460  137.0465  154.0230 H   0  0  0  0  0  0  0  0  0  0  0  0
  149.8665  137.4603  155.7103 H   0  0  0  0  0  0  0  0  0  0  0  0
  150.9462  138.0428  154.4349 H   0  0  0  0  0  0  0  0  0  0  0  0
  147.8468  138.3916  152.8852 H   0  0  0  0  0  0  0  0  0  0  0  0
  147.3725  143.4466  153.9589 H   0  0  0  0  0  0  0  0  0  0  0  0
  146.1679  142.7657  155.0612 H   0  0  0  0  0  0  0  0  0  0  0  0
  146.0343  142.4877  153.3228 H   0  0  0  0  0  0  0  0  0  0  0  0
  148.7336  143.2369  155.8234 H   0  0  0  0  0  0  0  0  0  0  0  0
  149.1298  142.4808  158.2148 H   0  0  0  0  0  0  0  0  0  0  0  0
  149.8280  141.0262  157.5197 H   0  0  0  0  0  0  0  0  0  0  0  0
  151.5288  142.5078  156.3091 H   0  0  0  0  0  0  0  0  0  0  0  0
  150.8570  143.8863  157.1733 H   0  0  0  0  0  0  0  0  0  0  0  0
  152.4136  144.4559  158.6068 H   0  0  0  0  0  0  0  0  0  0  0  0
  151.0991  143.9494  159.6611 H   0  0  0  0  0  0  0  0  0  0  0  0
  154.0110  143.7285  160.0452 H   0  0  0  0  0  0  0  0  0  0  0  0
  152.3692  141.1894  160.3356 H   0  0  0  0  0  0  0  0  0  0  0  0
  154.0440  141.3528  159.7997 H   0  0  0  0  0  0  0  0  0  0  0  0
  153.5699  140.7087  162.3745 H   0  0  0  0  0  0  0  0  0  0  0  0
  154.7490  141.9836  162.0377 H   0  0  0  0  0  0  0  0  0  0  0  0
  151.8089  142.3375  162.7517 H   0  0  0  0  0  0  0  0  0  0  0  0
  153.1929  143.1575  163.4797 H   0  0  0  0  0  0  0  0  0  0  0  0
  1  2  1  0  0  0  0
  1 19  1  0  0  0  0
  1 20  1  0  0  0  0
  1 21  1  0  0  0  0
  2 18  1  0  0  0  0
  2  3  2  0  0  0  0
  3  4  1  0  0  0  0
  3 22  1  0  0  0  0
  4  5  2  0  0  0  0
  5  6  1  0  0  0  0
  5  7  1  0  0  0  0
  6 23  1  0  0  0  0
  6 24  1  0  0  0  0
  6 25  1  0  0  0  0
  7  8  1  0  0  0  0
  7 18  2  0  0  0  0
  8  9  1  0  0  0  0
  8 26  1  0  0  0  0
  9 10  1  0  0  0  0
  9 27  1  0  0  0  0
  9 28  1  0  0  0  0
 10 11  1  0  0  0  0
 10 29  1  0  0  0  0
 10 30  1  0  0  0  0
 11 12  1  0  0  0  0
 12 13  1  0  0  0  0
 12 31  1  0  0  0  0
 12 32  1  0  0  0  0
 13 17  1  0  0  0  0
 13 14  1  0  0  0  0
 13 33  1  0  0  0  0
 14 15  1  0  0  0  0
 14 34  1  0  0  0  0
 14 35  1  0  0  0  0
 15 16  1  0  0  0  0
 15 36  1  0  0  0  0
 15 37  1  0  0  0  0
 16 17  1  0  0  0  0
 16 38  1  0  0  0  0
 16 39  1  0  0  0  0
M  END
> <s_m_source_file>
AV-unprocessed.smi

> <i_m_source_file_index>
3276

> <i_lp_mmshare_version>
43012

> <i_f3d_flags>
0

> <s_epik_input>
W0NIM11jMVtjSF1uYyhbQ0gzXSljKG4xKVtOSF1bQ0gyXVtDSDJdT1tDSDJdW0NAQEhdMltDSDJdW0NIMl1bQ0gyXU8y

> <s_epik_cmdline>
J2VwaWtfcHl0aG9uJywgJy1waCcsICc3LjAnLCAnLXRuJywgJzgnLCAnLW1hJywgJzIwMCcsICctbWV0YWxfYmluZGluZycsICctaW1hZScsICc8aW5maWxlLm1hZT4nLCAnLW9tYWUnLCAnPG91dGZpbGUubWFlPic=

> <r_lp_tautomer_probability>
1

> <r_epik_Ionization_Penalty>
0.000506

> <r_epik_Ionization_Penalty_Charging>
0

> <r_epik_Ionization_Penalty_Neutral>
0.000506

> <r_epik_State_Penalty>
-0

> <r_epik_Charging_Adjusted_Penalty>
0

> <i_epik_Tot_Q>
0

> <i_epik_Tot_abs_Q>
0

> <r_epik_Metal_State_Penalty>
-0

> <b_epik_Metal_Only>
0

> <s_lp_Force_Field>
OPLS_2005

> <r_lp_Energy>
26.3084

> <b_lp_Chiralities_Consistent>
1

> <s_lp_Variant>
AV-unprocessed.smi:3276-1

> <Gold.Version>
5.8.1

> <Gold.Id.Protein>
6NUR|6NUR_protein|mol2

> <Gold.PLP.Fitness>
41.8990

> <Gold.PLP.PLP>
-37.6886

> <Gold.PLP.part.hbond>
-0.9138

> <Gold.PLP.part.metal>
0.0000

> <Gold.PLP.part.buried>
-1.0775

> <Gold.PLP.part.nonpolar>
-37.4181

> <Gold.PLP.part.repulsive>
1.1831

> <Gold.PLP.ligand.clash>
0.0000

> <Gold.PLP.ligand.torsion>
1.0866

> <Gold.PLP.Chemscore.Hbond>
1.0000

> <Gold.PLP.Chemscore.CHOScore>
1.0908

> <Gold.PLP.Chemscore.Metal>
0.0000

> <Gold.Chemscore.Hbonds>
donor molecule, donor type, donor heavy atom, donor atom, acceptor molecule, acceptor atom, score
      L1  H     8    26       P1  8028  0.91
      L1  C     3    22       P1  7948  0.79

> <Gold.PLP.Chemscore.Internal.Correction>
0.1112

> <Gold.Rescore>
     Score         DG    S(hbond)    S(metal)    S(lipo)     H(rot)  DE(clash)    DE(int)     intcor
     15.15     -16.17       0.98        0.00     100.14       1.68       0.07       0.95       ----

> <Gold.Chemscore.Fitness>
15.1537

> <Gold.Chemscore.DG>
-16.1741

> <Gold.Chemscore.ZeroCoef>
-5.4800

> <Gold.Chemscore.Hbond>
0.9831

> <Gold.Chemscore.Metal>
0.0000

> <Gold.Chemscore.Lipo>
100.1391

> <Gold.Chemscore.Internal_Hbond>
0.0000

> <Gold.Chemscore.DEClash>
0.0726

> <Gold.Chemscore.DEInternal>
0.9478

> <Gold.Chemscore.Rot>
1.6820

> <Gold.Chemscore.Internal.Correction>
   9.000000E+99

> <Gold.Chemscore.Hbonds>
donor molecule, donor type, donor heavy atom, donor atom, acceptor molecule, acceptor atom, score
      L1  H     8    26       P1  8028  0.87

> <Gold.Chemscore.Hbond.Weighted>
-3.2836

> <Gold.Chemscore.Metal.Weighted>
-0.0000

> <Gold.Chemscore.Lipo.Weighted>
-11.7163

> <Gold.Chemscore.Internal_Hbond.Weighted>
0.0000

> <Gold.Chemscore.DEClash.Weighted>
0.0726

> <Gold.Chemscore.DEInternal.Weighted>
0.9478

> <Gold.Chemscore.Rot.Weighted>
4.3058

> <Gold.Chemscore.Internal.Correction.Weighted>
   9.000000E+99

> <Gold.Protein.RotatedTorsions>
[ 6907 6896 6895 6894 ] final -134.32 input  -60.11 | X-H torsion
[ 7974 7965 7964 7962 ] final  -79.36 input  175.53 | X-H torsion
[ 8008 7997 7996 7995 ] final -133.51 input   59.86 | X-H torsion
[ 10167 10162 10161 10158 ] final  158.57 input  -65.29 | X-H torsion
[ 10718 10713 10712 10709 ] final   25.71 input   66.30 | X-H torsion
[ 10763 10752 10751 10750 ] final  -76.60 input  -60.55 | X-H torsion
[ 11005 11000 10999 10996 ] final  -59.30 input  -57.11 | X-H torsion

> <Gold.Protein.ActiveResidues>
 VAL166  LYS551  ARG553  GLY616  TRP617  ASP618  TYR619  PRO620  LYS621  CYS622 
 ASP623  PHE694  ASN695  SER759  ASP760  ASP761  ALA762  ILE779  LEU786  VAL792 
 PHE793  MET794  SER795  GLU796  ALA797  LYS798  CYS799  TRP800  GLU811  SER814 

> <Gold.Protein.RotatedAtoms>
  150.9844  133.6212  159.2717 H   0  0  0  0  0  0  0  0  0  0  0  0  # atno 6907 bound_to 6896
  151.3455  135.0872  159.9395 H   0  0  0  0  0  0  0  0  0  0  0  0  # atno 6908 bound_to 6896
  152.5226  133.9447  159.7698 H   0  0  0  0  0  0  0  0  0  0  0  0  # atno 6909 bound_to 6896
  145.5743  140.9460  143.1378 H   0  0  0  0  0  0  0  0  0  0  0  0  # atno 7974 bound_to 7965
  155.3467  140.0475  157.3045 H   0  0  0  0  0  0  0  0  0  0  0  0  # atno 8008 bound_to 7997
  154.5249  140.2237  155.8873 H   0  0  0  0  0  0  0  0  0  0  0  0  # atno 8009 bound_to 7997
  156.1728  140.3092  155.9011 H   0  0  0  0  0  0  0  0  0  0  0  0  # atno 8010 bound_to 7997
  139.4827  144.4812  151.8441 H   0  0  0  0  0  0  0  0  0  0  0  0  # atno 10167 bound_to 10162
  157.1970  130.6872  149.6173 H   0  0  0  0  0  0  0  0  0  0  0  0  # atno 10718 bound_to 10713
  154.5020  135.5792  153.6538 H   0  0  0  0  0  0  0  0  0  0  0  0  # atno 10763 bound_to 10752
  152.9880  135.6138  154.2990 H   0  0  0  0  0  0  0  0  0  0  0  0  # atno 10764 bound_to 10752
  154.2898  135.2849  155.2639 H   0  0  0  0  0  0  0  0  0  0  0  0  # atno 10765 bound_to 10752
  141.1243  133.6616  156.5051 H   0  0  0  0  0  0  0  0  0  0  0  0  # atno 11005 bound_to 11000
  144.7423  139.7414  143.7306 LP  0  0  0  0  0  0  0  0  0  0  0  0  # atno 17320 bound_to 7965
  146.1762  139.4934  142.9896 LP  0  0  0  0  0  0  0  0  0  0  0  0  # atno 17321 bound_to 7965
  140.4288  144.2144  150.5887 LP  0  0  0  0  0  0  0  0  0  0  0  0  # atno 17342 bound_to 10162
  140.4800  143.2382  151.8969 LP  0  0  0  0  0  0  0  0  0  0  0  0  # atno 17343 bound_to 10162
  155.9705  130.4595  150.6040 LP  0  0  0  0  0  0  0  0  0  0  0  0  # atno 17370 bound_to 10713
  157.3804  131.0780  151.1481 LP  0  0  0  0  0  0  0  0  0  0  0  0  # atno 17371 bound_to 10713
  140.4414  134.7012  157.4993 LP  0  0  0  0  0  0  0  0  0  0  0  0  # atno 17394 bound_to 11000
  140.0227  134.6524  155.9217 LP  0  0  0  0  0  0  0  0  0  0  0  0  # atno 17395 bound_to 11000

$$$$
