AV-unprocessed.smi:2238|AV-procd|sdf|9054|dock8
  -GOLD-   2272012263D 1   1.00000     0.00000
 Structure written by MMmdl.
 38 39  0  0  0  0  0  0  0  0  1 V2000
  151.5014  144.7931  159.0351 C   0  0  0  0  0  0  0  0  0  0  0  0
  152.0562  143.4022  159.2638 C   0  0  0  0  0  0  0  0  0  0  0  0
  152.6245  143.0591  160.5063 C   0  0  0  0  0  0  0  0  0  0  0  0
  153.1374  141.7654  160.7100 C   0  0  0  0  0  0  0  0  0  0  0  0
  153.0855  140.8118  159.6748 C   0  0  0  0  0  0  0  0  0  0  0  0
  153.7249  139.2309  159.9508 Cl  0  0  0  0  0  0  0  0  0  0  0  0
  152.5211  141.1405  158.4225 C   0  0  0  0  0  0  0  0  0  0  0  0
  152.5077  140.1562  157.4569 O   0  0  0  0  0  0  0  0  0  0  0  0
  151.8511  140.4208  156.2233 C   0  0  0  0  0  0  0  0  0  0  0  0
  151.2758  139.1147  155.6487 C   0  0  2  0  0  0  0  0  0  0  0  0
  152.3678  138.2934  155.2865 O   0  0  0  0  0  0  0  0  0  0  0  0
  150.3421  139.3435  154.4379 C   0  0  0  0  0  0  0  0  0  0  0  0
  149.1600  140.1453  154.7939 N   0  0  0  0  0  0  0  0  0  0  0  0
  148.8344  141.2079  153.9274 C   0  0  0  0  0  0  0  0  0  0  0  0
  147.8150  141.9773  154.1437 N   0  0  0  0  0  0  0  0  0  0  0  0
  147.0106  141.7584  155.2661 C   0  0  0  0  0  0  0  0  0  0  0  0
  145.8324  142.6895  155.4652 C   0  0  0  0  0  0  0  0  0  0  0  0
  147.2868  140.7586  156.1352 C   0  0  0  0  0  0  0  0  0  0  0  0
  148.4334  139.8761  155.9174 C   0  0  0  0  0  0  0  0  0  0  0  0
  148.7221  138.9623  156.6900 O   0  0  0  0  0  0  0  0  0  0  0  0
  152.0058  142.4476  158.2275 C   0  0  0  0  0  0  0  0  0  0  0  0
  151.3981  145.3386  159.9736 H   0  0  0  0  0  0  0  0  0  0  0  0
  150.5186  144.7387  158.5661 H   0  0  0  0  0  0  0  0  0  0  0  0
  152.1639  145.3603  158.3810 H   0  0  0  0  0  0  0  0  0  0  0  0
  152.6697  143.7842  161.3058 H   0  0  0  0  0  0  0  0  0  0  0  0
  153.5725  141.5047  161.6638 H   0  0  0  0  0  0  0  0  0  0  0  0
  151.0620  141.1647  156.3467 H   0  0  0  0  0  0  0  0  0  0  0  0
  152.5778  140.8228  155.5153 H   0  0  0  0  0  0  0  0  0  0  0  0
  150.7365  138.6062  156.4492 H   0  0  0  0  0  0  0  0  0  0  0  0
  152.2735  138.0497  154.3780 H   0  0  0  0  0  0  0  0  0  0  0  0
  150.8961  139.8567  153.6491 H   0  0  0  0  0  0  0  0  0  0  0  0
  150.0568  138.3922  153.9844 H   0  0  0  0  0  0  0  0  0  0  0  0
  149.4997  141.3360  153.0718 H   0  0  0  0  0  0  0  0  0  0  0  0
  145.0650  142.2246  156.0850 H   0  0  0  0  0  0  0  0  0  0  0  0
  145.3801  142.9495  154.5076 H   0  0  0  0  0  0  0  0  0  0  0  0
  146.1571  143.6089  155.9526 H   0  0  0  0  0  0  0  0  0  0  0  0
  146.6592  140.6041  157.0007 H   0  0  0  0  0  0  0  0  0  0  0  0
  151.5653  142.7421  157.2872 H   0  0  0  0  0  0  0  0  0  0  0  0
  1  2  1  0  0  0  0
  1 22  1  0  0  0  0
  1 23  1  0  0  0  0
  1 24  1  0  0  0  0
  2 21  1  0  0  0  0
  2  3  2  0  0  0  0
  3  4  1  0  0  0  0
  3 25  1  0  0  0  0
  4  5  2  0  0  0  0
  4 26  1  0  0  0  0
  5  6  1  0  0  0  0
  5  7  1  0  0  0  0
  7  8  1  0  0  0  0
  7 21  2  0  0  0  0
  8  9  1  0  0  0  0
  9 10  1  0  0  0  0
  9 27  1  0  0  0  0
  9 28  1  0  0  0  0
 10 11  1  0  0  0  0
 10 12  1  0  0  0  0
 10 29  1  0  0  0  0
 11 30  1  0  0  0  0
 12 13  1  0  0  0  0
 12 31  1  0  0  0  0
 12 32  1  0  0  0  0
 13 19  1  0  0  0  0
 13 14  1  0  0  0  0
 14 15  2  0  0  0  0
 14 33  1  0  0  0  0
 15 16  1  0  0  0  0
 16 17  1  0  0  0  0
 16 18  2  0  0  0  0
 17 34  1  0  0  0  0
 17 35  1  0  0  0  0
 17 36  1  0  0  0  0
 18 19  1  0  0  0  0
 18 37  1  0  0  0  0
 19 20  2  0  0  0  0
 21 38  1  0  0  0  0
M  END
> <s_m_source_file>
AV-unprocessed.smi

> <i_m_source_file_index>
2238

> <i_lp_mmshare_version>
43012

> <i_f3d_flags>
0

> <s_epik_input>
W0NIM11jMVtjSF1bY0hdYyhDbCljKFtjSF0xKU9bQ0gyXVtDQEhdKFtPSF0pW0NIMl1uMltjSF1uYyhbQ0gzXSlbY0hdYzI9Tw==

> <s_epik_cmdline>
J2VwaWtfcHl0aG9uJywgJy1waCcsICc3LjAnLCAnLXRuJywgJzgnLCAnLW1hJywgJzIwMCcsICctbWV0YWxfYmluZGluZycsICctaW1hZScsICc8aW5maWxlLm1hZT4nLCAnLW9tYWUnLCAnPG91dGZpbGUubWFlPic=

> <r_lp_tautomer_probability>
1

> <r_epik_Ionization_Penalty>
1.78029e-05

> <r_epik_Ionization_Penalty_Charging>
3.78421e-08

> <r_epik_Ionization_Penalty_Neutral>
1.7765e-05

> <r_epik_State_Penalty>
-0

> <r_epik_Charging_Adjusted_Penalty>
3.78421e-08

> <i_epik_Tot_Q>
0

> <i_epik_Tot_abs_Q>
0

> <r_epik_Metal_State_Penalty>
-0

> <b_epik_Metal_Only>
0

> <s_lp_Force_Field>
OPLS_2005

> <r_lp_Energy>
23.6885

> <b_lp_Chiralities_Consistent>
1

> <s_lp_Variant>
AV-unprocessed.smi:2238-1

> <Gold.Version>
5.8.1

> <Gold.Id.Protein>
6NUR|6NUR_protein|mol2

> <Gold.PLP.Fitness>
45.2834

> <Gold.PLP.PLP>
-40.1145

> <Gold.PLP.part.hbond>
-1.3938

> <Gold.PLP.part.metal>
0.0000

> <Gold.PLP.part.buried>
-2.9991

> <Gold.PLP.part.nonpolar>
-34.8157

> <Gold.PLP.part.repulsive>
0.1594

> <Gold.PLP.ligand.clash>
0.0000

> <Gold.PLP.ligand.torsion>
0.4157

> <Gold.PLP.Chemscore.Hbond>
0.9913

> <Gold.PLP.Chemscore.CHOScore>
1.0000

> <Gold.PLP.Chemscore.Metal>
0.0000

> <Gold.Chemscore.Hbonds>
donor molecule, donor type, donor heavy atom, donor atom, acceptor molecule, acceptor atom, score
      P1  H  7997  8008       L1     8  0.98
      L1  C    14    33       P1  7957  0.97

> <Gold.PLP.Chemscore.Internal.Correction>
0.0265

> <Gold.Rescore>
     Score         DG    S(hbond)    S(metal)    S(lipo)     H(rot)  DE(clash)    DE(int)     intcor
     11.17     -12.95       0.16        0.00     113.33       2.47       0.12       1.66       ----

> <Gold.Chemscore.Fitness>
11.1700

> <Gold.Chemscore.DG>
-12.9516

> <Gold.Chemscore.ZeroCoef>
-5.4800

> <Gold.Chemscore.Hbond>
0.1617

> <Gold.Chemscore.Metal>
0.0000

> <Gold.Chemscore.Lipo>
113.3285

> <Gold.Chemscore.Internal_Hbond>
0.0000

> <Gold.Chemscore.DEClash>
0.1232

> <Gold.Chemscore.DEInternal>
1.6583

> <Gold.Chemscore.Rot>
2.4718

> <Gold.Chemscore.Internal.Correction>
   9.000000E+99

> <Gold.Chemscore.Hbonds>
donor molecule, donor type, donor heavy atom, donor atom, acceptor molecule, acceptor atom, score
      P1  H  7997  8008       L1     8  0.09

> <Gold.Chemscore.Hbond.Weighted>
-0.5400

> <Gold.Chemscore.Metal.Weighted>
-0.0000

> <Gold.Chemscore.Lipo.Weighted>
-13.2594

> <Gold.Chemscore.Internal_Hbond.Weighted>
0.0000

> <Gold.Chemscore.DEClash.Weighted>
0.1232

> <Gold.Chemscore.DEInternal.Weighted>
1.6583

> <Gold.Chemscore.Rot.Weighted>
6.3279

> <Gold.Chemscore.Internal.Correction.Weighted>
   9.000000E+99

> <Gold.Protein.RotatedTorsions>
[ 6907 6896 6895 6894 ] final -112.94 input  -60.11 | X-H torsion
[ 7974 7965 7964 7962 ] final -113.18 input  175.53 | X-H torsion
[ 8008 7997 7996 7995 ] final  -72.71 input   59.86 | X-H torsion
[ 10167 10162 10161 10158 ] final  -82.02 input  -65.29 | X-H torsion
[ 10718 10713 10712 10709 ] final  135.09 input   66.30 | X-H torsion
[ 10763 10752 10751 10750 ] final   -0.17 input  -60.55 | X-H torsion
[ 11005 11000 10999 10996 ] final  -61.34 input  -57.11 | X-H torsion

> <Gold.Protein.ActiveResidues>
 VAL166  LYS551  ARG553  GLY616  TRP617  ASP618  TYR619  PRO620  LYS621  CYS622 
 ASP623  PHE694  ASN695  SER759  ASP760  ASP761  ALA762  ILE779  LEU786  VAL792 
 PHE793  MET794  SER795  GLU796  ALA797  LYS798  CYS799  TRP800  GLU811  SER814 

> <Gold.Protein.RotatedAtoms>
  150.7793  133.9017  159.3343 H   0  0  0  0  0  0  0  0  0  0  0  0  # atno 6907 bound_to 6896
  151.6884  135.0948  160.0238 H   0  0  0  0  0  0  0  0  0  0  0  0  # atno 6908 bound_to 6896
  152.3840  133.6546  159.6219 H   0  0  0  0  0  0  0  0  0  0  0  0  # atno 6909 bound_to 6896
  145.1351  140.8746  143.3735 H   0  0  0  0  0  0  0  0  0  0  0  0  # atno 7974 bound_to 7965
  154.5188  140.0792  156.8132 H   0  0  0  0  0  0  0  0  0  0  0  0  # atno 8008 bound_to 7997
  155.3622  140.3418  155.4223 H   0  0  0  0  0  0  0  0  0  0  0  0  # atno 8009 bound_to 7997
  156.1657  140.1603  156.8522 H   0  0  0  0  0  0  0  0  0  0  0  0  # atno 8010 bound_to 7997
  140.4358  143.2532  151.8695 H   0  0  0  0  0  0  0  0  0  0  0  0  # atno 10167 bound_to 10162
  157.4606  131.1073  150.9924 H   0  0  0  0  0  0  0  0  0  0  0  0  # atno 10718 bound_to 10713
  153.3284  135.6973  153.6969 H   0  0  0  0  0  0  0  0  0  0  0  0  # atno 10763 bound_to 10752
  153.5781  135.3503  155.2865 H   0  0  0  0  0  0  0  0  0  0  0  0  # atno 10764 bound_to 10752
  154.8613  135.4288  154.2467 H   0  0  0  0  0  0  0  0  0  0  0  0  # atno 10765 bound_to 10752
  141.1320  133.6629  156.5360 H   0  0  0  0  0  0  0  0  0  0  0  0  # atno 11005 bound_to 11000
  145.0593  139.3118  143.5888 LP  0  0  0  0  0  0  0  0  0  0  0  0  # atno 17320 bound_to 7965
  146.3510  140.0029  142.8674 LP  0  0  0  0  0  0  0  0  0  0  0  0  # atno 17321 bound_to 7965
  139.4787  144.5284  151.8702 LP  0  0  0  0  0  0  0  0  0  0  0  0  # atno 17342 bound_to 10162
  140.4375  144.2032  150.5890 LP  0  0  0  0  0  0  0  0  0  0  0  0  # atno 17343 bound_to 10162
  157.0723  130.5869  149.5405 LP  0  0  0  0  0  0  0  0  0  0  0  0  # atno 17370 bound_to 10713
  156.0027  130.5109  150.7721 LP  0  0  0  0  0  0  0  0  0  0  0  0  # atno 17371 bound_to 10713
  140.4178  134.7215  157.4873 LP  0  0  0  0  0  0  0  0  0  0  0  0  # atno 17394 bound_to 11000
  140.0381  134.6307  155.9016 LP  0  0  0  0  0  0  0  0  0  0  0  0  # atno 17395 bound_to 11000

$$$$
