AV-unprocessed.smi:1007|AV-procd|sdf|4402|dock4
  -GOLD-   22720 2343D 1   1.00000     0.00000
 Structure written by MMmdl.
 57 59  0  0  0  0  0  0  0  0  3 V2000
  147.4953  136.3950  163.0675 C   0  0  0  0  0  0  0  0  0  0  0  0
  147.8652  136.5482  161.7061 O   0  0  0  0  0  0  0  0  0  0  0  0
  148.2795  135.3440  161.0771 C   0  0  0  0  0  0  0  0  0  0  0  0
  149.0840  135.6245  159.7937 C   0  0  0  0  0  0  0  0  0  0  0  0
  148.2865  135.6686  158.5643 N   0  0  0  0  0  0  0  0  0  0  0  0
  148.1245  137.0270  158.0460 C   0  0  0  0  0  0  0  0  0  0  0  0
  149.4144  137.5989  157.4225 C   0  0  0  0  0  0  0  0  0  0  0  0
  149.8973  136.7033  156.3409 N   0  3  0  0  0  0  0  0  0  0  0  0
  151.0628  137.2571  155.6084 C   0  0  0  0  0  0  0  0  0  0  0  0
  151.0429  138.7994  155.4891 C   0  0  2  0  0  0  0  0  0  0  0  0
  151.5834  139.1335  154.2287 O   0  0  0  0  0  0  0  0  0  0  0  0
  151.8717  139.5537  156.5537 C   0  0  0  0  0  0  0  0  0  0  0  0
  151.3598  140.9022  156.8421 N   0  0  0  0  0  0  0  0  0  0  0  0
  150.5336  141.6869  156.0975 C   0  0  0  0  0  0  0  0  0  0  0  0
  150.3321  142.8429  156.7874 N   0  3  0  0  0  0  0  0  0  0  0  0
  151.0472  142.8018  157.9857 C   0  0  0  0  0  0  0  0  0  0  0  0
  151.1459  143.7280  159.0168 C   0  0  0  0  0  0  0  0  0  0  0  0
  151.9572  143.3809  160.1200 C   0  0  0  0  0  0  0  0  0  0  0  0
  152.0755  144.3652  161.2710 C   0  0  0  0  0  0  0  0  0  0  0  0
  152.6464  142.1413  160.1576 C   0  0  0  0  0  0  0  0  0  0  0  0
  153.5149  141.7770  161.3496 C   0  0  0  0  0  0  0  0  0  0  0  0
  152.5384  141.2152  159.0956 C   0  0  0  0  0  0  0  0  0  0  0  0
  151.7241  141.5666  158.0208 C   0  0  0  0  0  0  0  0  0  0  0  0
  150.0936  135.3219  156.8521 C   0  0  0  0  0  0  0  0  0  0  0  0
  148.7847  134.8098  157.4865 C   0  0  0  0  0  0  0  0  0  0  0  0
  147.1353  137.3483  163.4542 H   0  0  0  0  0  0  0  0  0  0  0  0
  148.3391  136.0872  163.6846 H   0  0  0  0  0  0  0  0  0  0  0  0
  146.6928  135.6653  163.1809 H   0  0  0  0  0  0  0  0  0  0  0  0
  148.8376  134.7259  161.7811 H   0  0  0  0  0  0  0  0  0  0  0  0
  147.3783  134.7869  160.8192 H   0  0  0  0  0  0  0  0  0  0  0  0
  149.5716  136.5917  159.9222 H   0  0  0  0  0  0  0  0  0  0  0  0
  149.8888  134.8975  159.6973 H   0  0  0  0  0  0  0  0  0  0  0  0
  147.3383  137.0253  157.2902 H   0  0  0  0  0  0  0  0  0  0  0  0
  147.7705  137.6876  158.8382 H   0  0  0  0  0  0  0  0  0  0  0  0
  149.2039  138.5874  157.0134 H   0  0  0  0  0  0  0  0  0  0  0  0
  150.1926  137.7301  158.1754 H   0  0  0  0  0  0  0  0  0  0  0  0
  151.9822  136.9645  156.1182 H   0  0  0  0  0  0  0  0  0  0  0  0
  151.1026  136.7960  154.6199 H   0  0  0  0  0  0  0  0  0  0  0  0
  150.0197  139.1738  155.4914 H   0  0  0  0  0  0  0  0  0  0  0  0
  151.1800  138.5905  153.5681 H   0  0  0  0  0  0  0  0  0  0  0  0
  151.9524  138.9792  157.4760 H   0  0  0  0  0  0  0  0  0  0  0  0
  152.8935  139.6868  156.1948 H   0  0  0  0  0  0  0  0  0  0  0  0
  150.1086  141.4354  155.1361 H   0  0  0  0  0  0  0  0  0  0  0  0
  150.6202  144.6714  158.9802 H   0  0  0  0  0  0  0  0  0  0  0  0
  153.1072  144.6988  161.3842 H   0  0  0  0  0  0  0  0  0  0  0  0
  151.7549  143.9040  162.2053 H   0  0  0  0  0  0  0  0  0  0  0  0
  151.4563  145.2477  161.1070 H   0  0  0  0  0  0  0  0  0  0  0  0
  154.0031  140.8124  161.2086 H   0  0  0  0  0  0  0  0  0  0  0  0
  152.9126  141.7164  162.2563 H   0  0  0  0  0  0  0  0  0  0  0  0
  154.2942  142.5246  161.5000 H   0  0  0  0  0  0  0  0  0  0  0  0
  153.0612  140.2711  159.1337 H   0  0  0  0  0  0  0  0  0  0  0  0
  150.3705  134.6534  156.0383 H   0  0  0  0  0  0  0  0  0  0  0  0
  150.9144  135.2987  157.5699 H   0  0  0  0  0  0  0  0  0  0  0  0
  148.9162  133.7881  157.8409 H   0  0  0  0  0  0  0  0  0  0  0  0
  148.0234  134.7479  156.7077 H   0  0  0  0  0  0  0  0  0  0  0  0
  149.1451  136.6565  155.6686 H   0  0  0  0  0  0  0  0  0  0  0  0
  149.7516  143.6051  156.4598 H   0  0  0  0  0  0  0  0  0  0  0  0
  1  2  1  0  0  0  0
  1 26  1  0  0  0  0
  1 27  1  0  0  0  0
  1 28  1  0  0  0  0
  2  3  1  0  0  0  0
  3  4  1  0  0  0  0
  3 29  1  0  0  0  0
  3 30  1  0  0  0  0
  4  5  1  0  0  0  0
  4 31  1  0  0  0  0
  4 32  1  0  0  0  0
  5 25  1  0  0  0  0
  5  6  1  0  0  0  0
  6  7  1  0  0  0  0
  6 33  1  0  0  0  0
  6 34  1  0  0  0  0
  7  8  1  0  0  0  0
  7 35  1  0  0  0  0
  7 36  1  0  0  0  0
  8  9  1  0  0  0  0
  8 24  1  0  0  0  0
  8 56  1  0  0  0  0
  9 10  1  0  0  0  0
  9 37  1  0  0  0  0
  9 38  1  0  0  0  0
 10 11  1  0  0  0  0
 10 12  1  0  0  0  0
 10 39  1  0  0  0  0
 11 40  1  0  0  0  0
 12 13  1  0  0  0  0
 12 41  1  0  0  0  0
 12 42  1  0  0  0  0
 13 23  1  0  0  0  0
 13 14  1  0  0  0  0
 14 15  2  0  0  0  0
 14 43  1  0  0  0  0
 15 16  1  0  0  0  0
 15 57  1  0  0  0  0
 16 23  2  0  0  0  0
 16 17  1  0  0  0  0
 17 18  2  0  0  0  0
 17 44  1  0  0  0  0
 18 19  1  0  0  0  0
 18 20  1  0  0  0  0
 19 45  1  0  0  0  0
 19 46  1  0  0  0  0
 19 47  1  0  0  0  0
 20 21  1  0  0  0  0
 20 22  2  0  0  0  0
 21 48  1  0  0  0  0
 21 49  1  0  0  0  0
 21 50  1  0  0  0  0
 22 23  1  0  0  0  0
 22 51  1  0  0  0  0
 24 25  1  0  0  0  0
 24 52  1  0  0  0  0
 24 53  1  0  0  0  0
 25 54  1  0  0  0  0
 25 55  1  0  0  0  0
M  CHG  1   8   1
M  CHG  1  15   1
M  END
> <s_m_source_file>
AV-unprocessed.smi

> <i_m_source_file_index>
1007

> <i_lp_mmshare_version>
43012

> <i_f3d_flags>
0

> <s_epik_input>
W0NIM11PW0NIMl1bQ0gyXU4xW0NIMl1bQ0gyXU4oW0NIMl1bQ0gyXTEpW0NIMl1bQ0BIXShbT0hdKVtDSDJdbihbY0hdbjIpYyhjMjMpW2NIXWMoW0NIM10pYyhbY0hdMylbQ0gzXQ==

> <s_epik_cmdline>
J2VwaWtfcHl0aG9uJywgJy1waCcsICc3LjAnLCAnLXRuJywgJzgnLCAnLW1hJywgJzIwMCcsICctbWV0YWxfYmluZGluZycsICctaW1hZScsICc8aW5maWxlLm1hZT4nLCAnLW9tYWUnLCAnPG91dGZpbGUubWFlPic=

> <r_epik_Ionization_Penalty>
1.19231

> <r_epik_Ionization_Penalty_Charging>
1.17974

> <r_epik_Ionization_Penalty_Neutral>
0.0125676

> <r_epik_State_Penalty>
1.24499

> <r_epik_Charging_Adjusted_Penalty>
2.42472

> <i_epik_Tot_Q>
2

> <i_epik_Tot_abs_Q>
2

> <r_epik_Metal_State_Penalty>
5.24866

> <b_epik_Metal_Only>
0

> <s_lp_Force_Field>
OPLS_2005

> <r_lp_Energy>
43.594

> <b_lp_Chiralities_Consistent>
1

> <s_lp_Variant>
AV-unprocessed.smi:1007-5

> <Gold.Version>
5.8.1

> <Gold.Id.Protein>
6NUR|6NUR_protein|mol2

> <Gold.PLP.Fitness>
56.4583

> <Gold.PLP.PLP>
-46.7414

> <Gold.PLP.part.hbond>
-4.0000

> <Gold.PLP.part.metal>
0.0000

> <Gold.PLP.part.buried>
-5.4587

> <Gold.PLP.part.nonpolar>
-37.3893

> <Gold.PLP.part.repulsive>
0.0897

> <Gold.PLP.ligand.clash>
0.0000

> <Gold.PLP.ligand.torsion>
2.3156

> <Gold.PLP.Chemscore.Hbond>
4.7040

> <Gold.PLP.Chemscore.CHOScore>
0.0000

> <Gold.PLP.Chemscore.Metal>
0.0000

> <Gold.Chemscore.Hbonds>
donor molecule, donor type, donor heavy atom, donor atom, acceptor molecule, acceptor atom, score
      L1  H    15    57       P1  8028  2.00
      P1  H  6931  6943       L1     2  0.80
      P1  H  7989  7998       L1    11  1.00

> <Gold.PLP.Chemscore.Internal.Correction>
0.2359

> <Gold.Rescore>
     Score         DG    S(hbond)    S(metal)    S(lipo)     H(rot)  DE(clash)    DE(int)     intcor
     19.00     -21.79       2.43        0.00     127.88       2.64       0.32       2.47       ----

> <Gold.Chemscore.Fitness>
19.0050

> <Gold.Chemscore.DG>
-21.7945

> <Gold.Chemscore.ZeroCoef>
-5.4800

> <Gold.Chemscore.Hbond>
2.4308

> <Gold.Chemscore.Metal>
0.0000

> <Gold.Chemscore.Lipo>
127.8810

> <Gold.Chemscore.Internal_Hbond>
0.0000

> <Gold.Chemscore.DEClash>
0.3211

> <Gold.Chemscore.DEInternal>
2.4684

> <Gold.Chemscore.Rot>
2.6432

> <Gold.Chemscore.Internal.Correction>
   9.000000E+99

> <Gold.Chemscore.Hbonds>
donor molecule, donor type, donor heavy atom, donor atom, acceptor molecule, acceptor atom, score
      L1  H    15    57       P1  8028  0.99
      P1  H  6931  6943       L1     2  0.16
      P1  H  7989  7998       L1    11  0.48

> <Gold.Chemscore.Hbond.Weighted>
-8.1189

> <Gold.Chemscore.Metal.Weighted>
-0.0000

> <Gold.Chemscore.Lipo.Weighted>
-14.9621

> <Gold.Chemscore.Internal_Hbond.Weighted>
0.0000

> <Gold.Chemscore.DEClash.Weighted>
0.3211

> <Gold.Chemscore.DEInternal.Weighted>
2.4684

> <Gold.Chemscore.Rot.Weighted>
6.7665

> <Gold.Chemscore.Internal.Correction.Weighted>
   9.000000E+99

> <Gold.Protein.RotatedTorsions>
[ 6907 6896 6895 6894 ] final    1.09 input  -60.11 | X-H torsion
[ 7974 7965 7964 7962 ] final  109.01 input  175.53 | X-H torsion
[ 8008 7997 7996 7995 ] final   -2.88 input   59.86 | X-H torsion
[ 10167 10162 10161 10158 ] final  -79.98 input  -65.29 | X-H torsion
[ 10718 10713 10712 10709 ] final -151.53 input   66.30 | X-H torsion
[ 10763 10752 10751 10750 ] final  108.15 input  -60.55 | X-H torsion
[ 11005 11000 10999 10996 ] final -116.22 input  -57.11 | X-H torsion

> <Gold.Protein.ActiveResidues>
 VAL166  LYS551  ARG553  GLY616  TRP617  ASP618  TYR619  PRO620  LYS621  CYS622 
 ASP623  PHE694  ASN695  SER759  ASP760  ASP761  ALA762  ILE779  LEU786  VAL792 
 PHE793  MET794  SER795  GLU796  ALA797  LYS798  CYS799  TRP800  GLU811  SER814 

> <Gold.Protein.RotatedAtoms>
  151.5870  135.1055  160.0030 H   0  0  0  0  0  0  0  0  0  0  0  0  # atno 6907 bound_to 6896
  152.4325  133.7299  159.6592 H   0  0  0  0  0  0  0  0  0  0  0  0  # atno 6908 bound_to 6896
  150.8219  133.8167  159.3158 H   0  0  0  0  0  0  0  0  0  0  0  0  # atno 6909 bound_to 6896
  145.2732  139.2659  143.3955 H   0  0  0  0  0  0  0  0  0  0  0  0  # atno 7974 bound_to 7965
  154.6309  140.2523  155.7434 H   0  0  0  0  0  0  0  0  0  0  0  0  # atno 8008 bound_to 7997
  156.2479  140.2907  156.0581 H   0  0  0  0  0  0  0  0  0  0  0  0  # atno 8009 bound_to 7997
  155.1746  140.0387  157.2860 H   0  0  0  0  0  0  0  0  0  0  0  0  # atno 8010 bound_to 7997
  140.4544  143.2473  151.8441 H   0  0  0  0  0  0  0  0  0  0  0  0  # atno 10167 bound_to 10162
  156.4605  130.8211  151.2442 H   0  0  0  0  0  0  0  0  0  0  0  0  # atno 10718 bound_to 10713
  153.4167  135.3821  155.2085 H   0  0  0  0  0  0  0  0  0  0  0  0  # atno 10763 bound_to 10752
  154.8742  135.3807  154.4434 H   0  0  0  0  0  0  0  0  0  0  0  0  # atno 10764 bound_to 10752
  153.4949  135.7088  153.5926 H   0  0  0  0  0  0  0  0  0  0  0  0  # atno 10765 bound_to 10752
  141.0436  133.9797  157.2953 H   0  0  0  0  0  0  0  0  0  0  0  0  # atno 11005 bound_to 11000
  146.3240  140.3181  142.8631 LP  0  0  0  0  0  0  0  0  0  0  0  0  # atno 17320 bound_to 7965
  144.9317  140.7982  143.5685 LP  0  0  0  0  0  0  0  0  0  0  0  0  # atno 17321 bound_to 7965
  139.4799  144.5082  151.8969 LP  0  0  0  0  0  0  0  0  0  0  0  0  # atno 17342 bound_to 10162
  140.4168  144.2296  150.5887 LP  0  0  0  0  0  0  0  0  0  0  0  0  # atno 17343 bound_to 10162
  157.7498  131.0109  150.3323 LP  0  0  0  0  0  0  0  0  0  0  0  0  # atno 17370 bound_to 10713
  156.3722  130.3865  149.7167 LP  0  0  0  0  0  0  0  0  0  0  0  0  # atno 17371 bound_to 10713
  139.9295  135.0200  156.8350 LP  0  0  0  0  0  0  0  0  0  0  0  0  # atno 17394 bound_to 11000
  140.6187  134.0014  155.7609 LP  0  0  0  0  0  0  0  0  0  0  0  0  # atno 17395 bound_to 11000

$$$$
