AV-unprocessed.smi:282|AV-procd|sdf|2117|dock5
  -GOLD-   2262021413D 1   1.00000     0.00000
 Structure written by MMmdl.
 65 69  0  0  0  0  0  0  0  0  2 V2000
  149.7297  128.5150  154.1839 C   0  0  0  0  0  0  0  0  0  0  0  0
  150.0734  130.0071  154.0860 C   0  0  0  0  0  0  0  0  0  0  0  0
  149.1541  130.9041  154.9436 C   0  0  2  0  0  0  0  0  0  0  0  0
  147.6638  130.6987  154.5996 C   0  0  0  0  0  0  0  0  0  0  0  0
  147.3109  131.2820  153.2792 N   0  3  1  0  0  0  0  0  0  0  0  0
  145.8918  131.0288  152.9215 C   0  0  0  0  0  0  0  0  0  0  0  0
  145.5757  131.5298  151.5034 C   0  0  0  0  0  0  0  0  0  0  0  0
  145.9179  133.0177  151.3618 C   0  0  0  0  0  0  0  0  0  0  0  0
  147.3816  133.2567  151.7538 C   0  0  0  0  0  0  0  0  0  0  0  0
  147.6774  132.7243  153.1695 C   0  0  2  0  0  0  0  0  0  0  0  0
  149.1603  132.9436  153.5383 C   0  0  0  0  0  0  0  0  0  0  0  0
  149.4941  132.3250  154.8228 N   0  0  0  0  0  0  0  0  0  0  0  0
  149.3958  133.0735  155.9556 C   0  0  0  0  0  0  0  0  0  0  0  0
  149.9800  134.3005  156.0067 N   0  0  0  0  0  0  0  0  0  0  0  0
  149.8972  135.0469  157.1115 C   0  0  0  0  0  0  0  0  0  0  0  0
  149.2880  134.7647  158.2633 N   0  0  0  0  0  0  0  0  0  0  0  0
  148.6974  133.5366  158.2245 C   0  0  0  0  0  0  0  0  0  0  0  0
  148.7070  132.6331  157.1231 C   0  0  0  0  0  0  0  0  0  0  0  0
  148.0256  131.4713  157.4643 N   0  0  0  0  0  0  0  0  0  0  0  0
  147.6303  131.6785  158.6901 C   0  0  0  0  0  0  0  0  0  0  0  0
  147.9753  132.9012  159.2210 N   0  0  0  0  0  0  0  0  0  0  0  0
  147.6735  133.3816  160.5631 C   0  0  0  0  0  0  0  0  0  0  0  0
  146.5066  134.4169  160.6531 C   0  0  0  0  0  0  0  0  0  0  0  0
  145.1444  133.7554  160.3128 C   0  0  0  0  0  0  0  0  0  0  0  0
  144.0650  134.6614  160.4271 O   0  0  0  0  0  0  0  0  0  0  0  0
  146.4378  135.0218  162.0780 C   0  0  0  0  0  0  0  0  0  0  0  0
  147.6079  135.9758  162.3798 C   0  0  0  0  0  0  0  0  0  0  0  0
  147.6526  137.0131  161.4086 O   0  0  0  0  0  0  0  0  0  0  0  0
  147.8708  136.5256  160.0910 C   0  0  0  0  0  0  0  0  0  0  0  0
  146.7107  135.6017  159.6757 C   0  0  0  0  0  0  0  0  0  0  0  0
  150.3964  127.9219  153.5576 H   0  0  0  0  0  0  0  0  0  0  0  0
  148.7085  128.3245  153.8533 H   0  0  0  0  0  0  0  0  0  0  0  0
  149.8250  128.1490  155.2064 H   0  0  0  0  0  0  0  0  0  0  0  0
  151.1201  130.1569  154.3511 H   0  0  0  0  0  0  0  0  0  0  0  0
  149.9878  130.3060  153.0409 H   0  0  0  0  0  0  0  0  0  0  0  0
  149.2755  130.5771  155.9756 H   0  0  0  0  0  0  0  0  0  0  0  0
  147.4195  129.6357  154.6137 H   0  0  0  0  0  0  0  0  0  0  0  0
  147.0465  131.1693  155.3668 H   0  0  0  0  0  0  0  0  0  0  0  0
  145.6856  129.9594  152.9815 H   0  0  0  0  0  0  0  0  0  0  0  0
  145.2396  131.5185  153.6466 H   0  0  0  0  0  0  0  0  0  0  0  0
  146.1426  130.9504  150.7734 H   0  0  0  0  0  0  0  0  0  0  0  0
  144.5215  131.3669  151.2771 H   0  0  0  0  0  0  0  0  0  0  0  0
  145.7420  133.3501  150.3384 H   0  0  0  0  0  0  0  0  0  0  0  0
  145.2622  133.6109  152.0005 H   0  0  0  0  0  0  0  0  0  0  0  0
  148.0355  132.7680  151.0299 H   0  0  0  0  0  0  0  0  0  0  0  0
  147.6055  134.3229  151.7021 H   0  0  0  0  0  0  0  0  0  0  0  0
  147.0575  133.2748  153.8788 H   0  0  0  0  0  0  0  0  0  0  0  0
  149.8015  132.5077  152.7721 H   0  0  0  0  0  0  0  0  0  0  0  0
  149.4011  134.0076  153.5429 H   0  0  0  0  0  0  0  0  0  0  0  0
  150.3911  136.0064  157.0671 H   0  0  0  0  0  0  0  0  0  0  0  0
  147.0711  130.9391  159.2446 H   0  0  0  0  0  0  0  0  0  0  0  0
  147.4395  132.5103  161.1762 H   0  0  0  0  0  0  0  0  0  0  0  0
  148.5938  133.7840  160.9838 H   0  0  0  0  0  0  0  0  0  0  0  0
  145.1497  133.3720  159.2917 H   0  0  0  0  0  0  0  0  0  0  0  0
  144.9518  132.8965  160.9562 H   0  0  0  0  0  0  0  0  0  0  0  0
  144.2818  135.4480  159.9502 H   0  0  0  0  0  0  0  0  0  0  0  0
  145.5083  135.5811  162.1926 H   0  0  0  0  0  0  0  0  0  0  0  0
  146.4070  134.2316  162.8291 H   0  0  0  0  0  0  0  0  0  0  0  0
  147.4719  136.4274  163.3625 H   0  0  0  0  0  0  0  0  0  0  0  0
  148.5603  135.4457  162.4110 H   0  0  0  0  0  0  0  0  0  0  0  0
  147.9269  137.3762  159.4117 H   0  0  0  0  0  0  0  0  0  0  0  0
  148.8340  136.0188  160.0329 H   0  0  0  0  0  0  0  0  0  0  0  0
  146.8567  135.2477  158.6559 H   0  0  0  0  0  0  0  0  0  0  0  0
  145.8026  136.2057  159.6458 H   0  0  0  0  0  0  0  0  0  0  0  0
  147.8715  130.7939  152.5957 H   0  0  0  0  0  0  0  0  0  0  0  0
  1  2  1  0  0  0  0
  1 31  1  0  0  0  0
  1 32  1  0  0  0  0
  1 33  1  0  0  0  0
  2  3  1  0  0  0  0
  2 34  1  0  0  0  0
  2 35  1  0  0  0  0
  3 12  1  0  0  0  0
  3  4  1  0  0  0  0
  3 36  1  0  0  0  0
  4  5  1  0  0  0  0
  4 37  1  0  0  0  0
  4 38  1  0  0  0  0
  5 10  1  0  0  0  0
  5  6  1  0  0  0  0
  5 65  1  0  0  0  0
  6  7  1  0  0  0  0
  6 39  1  0  0  0  0
  6 40  1  0  0  0  0
  7  8  1  0  0  0  0
  7 41  1  0  0  0  0
  7 42  1  0  0  0  0
  8  9  1  0  0  0  0
  8 43  1  0  0  0  0
  8 44  1  0  0  0  0
  9 10  1  0  0  0  0
  9 45  1  0  0  0  0
  9 46  1  0  0  0  0
 10 11  1  0  0  0  0
 10 47  1  0  0  0  0
 11 12  1  0  0  0  0
 11 48  1  0  0  0  0
 11 49  1  0  0  0  0
 12 13  1  0  0  0  0
 13 18  1  0  0  0  0
 13 14  2  0  0  0  0
 14 15  1  0  0  0  0
 15 16  2  0  0  0  0
 15 50  1  0  0  0  0
 16 17  1  0  0  0  0
 17 21  1  0  0  0  0
 17 18  2  0  0  0  0
 18 19  1  0  0  0  0
 19 20  2  0  0  0  0
 20 21  1  0  0  0  0
 20 51  1  0  0  0  0
 21 22  1  0  0  0  0
 22 23  1  0  0  0  0
 22 52  1  0  0  0  0
 22 53  1  0  0  0  0
 23 30  1  0  0  0  0
 23 24  1  0  0  0  0
 23 26  1  0  0  0  0
 24 25  1  0  0  0  0
 24 54  1  0  0  0  0
 24 55  1  0  0  0  0
 25 56  1  0  0  0  0
 26 27  1  0  0  0  0
 26 57  1  0  0  0  0
 26 58  1  0  0  0  0
 27 28  1  0  0  0  0
 27 59  1  0  0  0  0
 27 60  1  0  0  0  0
 28 29  1  0  0  0  0
 29 30  1  0  0  0  0
 29 61  1  0  0  0  0
 29 62  1  0  0  0  0
 30 63  1  0  0  0  0
 30 64  1  0  0  0  0
M  CHG  1   5   1
M  END
> <s_m_source_file>
AV-unprocessed.smi

> <i_m_source_file_index>
282

> <i_lp_mmshare_version>
43012

> <i_f3d_flags>
0

> <s_epik_input>
W0NIMl0xW0NIMl1bQ0gyXVtDSDJdW0NAQEhdKE4xMilbQ0gyXU4oW0NAQEhdKFtDSDJdMilbQ0gyXVtDSDNdKWMobltjSF1uMyljKGMzNCluW2NIXW40W0NIMl1DNShbQ0gyXVtPSF0pW0NIMl1bQ0gyXU9bQ0gyXVtDSDJdNQ==

> <s_epik_cmdline>
J2VwaWtfcHl0aG9uJywgJy1waCcsICc3LjAnLCAnLXRuJywgJzgnLCAnLW1hJywgJzIwMCcsICctbWV0YWxfYmluZGluZycsICctaW1hZScsICc8aW5maWxlLm1hZT4nLCAnLW9tYWUnLCAnPG91dGZpbGUubWFlPic=

> <r_lp_tautomer_probability>
1

> <r_epik_Ionization_Penalty>
0.00308583

> <r_epik_Ionization_Penalty_Charging>
0.00300384

> <r_epik_Ionization_Penalty_Neutral>
8.19894e-05

> <r_epik_State_Penalty>
-0

> <r_epik_Charging_Adjusted_Penalty>
0.00300384

> <i_epik_Tot_Q>
1

> <i_epik_Tot_abs_Q>
1

> <r_epik_Metal_State_Penalty>
-0

> <b_epik_Metal_Only>
0

> <s_lp_Force_Field>
OPLS_2005

> <r_lp_Energy>
57.6145

> <b_lp_Chiralities_Consistent>
1

> <s_lp_Variant>
AV-unprocessed.smi:282-1

> <Gold.Version>
5.8.1

> <Gold.Id.Protein>
6NUR|6NUR_protein|mol2

> <Gold.PLP.Fitness>
48.6761

> <Gold.PLP.PLP>
-41.4835

> <Gold.PLP.part.hbond>
-3.0000

> <Gold.PLP.part.metal>
0.0000

> <Gold.PLP.part.buried>
-4.8867

> <Gold.PLP.part.nonpolar>
-33.2664

> <Gold.PLP.part.repulsive>
0.0217

> <Gold.PLP.ligand.clash>
0.0000

> <Gold.PLP.ligand.torsion>
0.7893

> <Gold.PLP.Chemscore.Hbond>
2.8247

> <Gold.PLP.Chemscore.CHOScore>
0.0000

> <Gold.PLP.Chemscore.Metal>
0.0000

> <Gold.Chemscore.Hbonds>
donor molecule, donor type, donor heavy atom, donor atom, acceptor molecule, acceptor atom, score
      P1  H  6896  6907       L1    16  1.00
      P1  H  6931  6943       L1    28  1.00
      P1  H  6934  6947       L1    28  0.64

> <Gold.PLP.Chemscore.Internal.Correction>
0.2970

> <Gold.Rescore>
     Score         DG    S(hbond)    S(metal)    S(lipo)     H(rot)  DE(clash)    DE(int)     intcor
     13.24     -16.67       1.73        0.00      94.56       2.20       0.03       3.40       ----

> <Gold.Chemscore.Fitness>
13.2390

> <Gold.Chemscore.DG>
-16.6707

> <Gold.Chemscore.ZeroCoef>
-5.4800

> <Gold.Chemscore.Hbond>
1.7276

> <Gold.Chemscore.Metal>
0.0000

> <Gold.Chemscore.Lipo>
94.5585

> <Gold.Chemscore.Internal_Hbond>
0.0000

> <Gold.Chemscore.DEClash>
0.0270

> <Gold.Chemscore.DEInternal>
3.4047

> <Gold.Chemscore.Rot>
2.2042

> <Gold.Chemscore.Internal.Correction>
   9.000000E+99

> <Gold.Chemscore.Hbonds>
donor molecule, donor type, donor heavy atom, donor atom, acceptor molecule, acceptor atom, score
      P1  H  6896  6907       L1    16  0.22
      P1  H  6931  6943       L1    28  0.49
      P1  H  6934  6947       L1    28  0.14

> <Gold.Chemscore.Hbond.Weighted>
-5.7702

> <Gold.Chemscore.Metal.Weighted>
-0.0000

> <Gold.Chemscore.Lipo.Weighted>
-11.0633

> <Gold.Chemscore.Internal_Hbond.Weighted>
0.0000

> <Gold.Chemscore.DEClash.Weighted>
0.0270

> <Gold.Chemscore.DEInternal.Weighted>
3.4047

> <Gold.Chemscore.Rot.Weighted>
5.6429

> <Gold.Chemscore.Internal.Correction.Weighted>
   9.000000E+99

> <Gold.Protein.RotatedTorsions>
[ 6907 6896 6895 6894 ] final  -72.47 input  -60.11 | X-H torsion
[ 7974 7965 7964 7962 ] final  -28.03 input  175.53 | X-H torsion
[ 8008 7997 7996 7995 ] final  177.01 input   59.86 | X-H torsion
[ 10167 10162 10161 10158 ] final  -46.95 input  -65.29 | X-H torsion
[ 10718 10713 10712 10709 ] final -154.85 input   66.30 | X-H torsion
[ 10763 10752 10751 10750 ] final -105.95 input  -60.55 | X-H torsion
[ 11005 11000 10999 10996 ] final  -99.72 input  -57.11 | X-H torsion

> <Gold.Protein.ActiveResidues>
 VAL166  LYS551  ARG553  GLY616  TRP617  ASP618  TYR619  PRO620  LYS621  CYS622 
 ASP623  PHE694  ASN695  SER759  ASP760  ASP761  ALA762  ILE779  LEU786  VAL792 
 PHE793  MET794  SER795  GLU796  ALA797  LYS798  CYS799  TRP800  GLU811  SER814 

> <Gold.Protein.RotatedAtoms>
  150.7169  134.5159  159.5629 H   0  0  0  0  0  0  0  0  0  0  0  0  # atno 6907 bound_to 6896
  152.2725  134.7914  160.0420 H   0  0  0  0  0  0  0  0  0  0  0  0  # atno 6908 bound_to 6896
  151.8589  133.3418  159.3734 H   0  0  0  0  0  0  0  0  0  0  0  0  # atno 6909 bound_to 6896
  146.1317  140.5229  142.8690 H   0  0  0  0  0  0  0  0  0  0  0  0  # atno 7974 bound_to 7965
  156.0703  140.1369  156.9837 H   0  0  0  0  0  0  0  0  0  0  0  0  # atno 8008 bound_to 7997
  154.4528  140.0973  156.6720 H   0  0  0  0  0  0  0  0  0  0  0  0  # atno 8009 bound_to 7997
  155.5239  140.3457  155.4414 H   0  0  0  0  0  0  0  0  0  0  0  0  # atno 8010 bound_to 7997
  140.6796  143.2807  151.3857 H   0  0  0  0  0  0  0  0  0  0  0  0  # atno 10167 bound_to 10162
  156.5049  130.8408  151.2624 H   0  0  0  0  0  0  0  0  0  0  0  0  # atno 10718 bound_to 10713
  154.7980  135.4730  154.0208 H   0  0  0  0  0  0  0  0  0  0  0  0  # atno 10763 bound_to 10752
  153.1735  135.6829  153.8582 H   0  0  0  0  0  0  0  0  0  0  0  0  # atno 10764 bound_to 10752
  153.8156  135.3211  155.3383 H   0  0  0  0  0  0  0  0  0  0  0  0  # atno 10765 bound_to 10752
  141.1298  133.8343  157.1009 H   0  0  0  0  0  0  0  0  0  0  0  0  # atno 11005 bound_to 11000
  144.7697  140.5610  143.6678 LP  0  0  0  0  0  0  0  0  0  0  0  0  # atno 17320 bound_to 7965
  145.5246  139.1476  143.3533 LP  0  0  0  0  0  0  0  0  0  0  0  0  # atno 17321 bound_to 7965
  139.6109  144.1100  152.2298 LP  0  0  0  0  0  0  0  0  0  0  0  0  # atno 17342 bound_to 10162
  140.0514  144.5929  150.7333 LP  0  0  0  0  0  0  0  0  0  0  0  0  # atno 17343 bound_to 10162
  157.7458  130.9969  150.2797 LP  0  0  0  0  0  0  0  0  0  0  0  0  # atno 17370 bound_to 10713
  156.3296  130.3798  149.7502 LP  0  0  0  0  0  0  0  0  0  0  0  0  # atno 17371 bound_to 10713
  140.0334  134.9890  157.0825 LP  0  0  0  0  0  0  0  0  0  0  0  0  # atno 17394 bound_to 11000
  140.4249  134.1842  155.7165 LP  0  0  0  0  0  0  0  0  0  0  0  0  # atno 17395 bound_to 11000

$$$$
