AV-unprocessed.smi:776|AV-procd|sdf|3699|dock5
  -GOLD-   22720 1123D 1   1.00000     0.00000
 Structure written by MMmdl.
 44 45  0  0  0  0  0  0  0  0  1 V2000
  148.5405  125.8897  152.5439 C   0  0  0  0  0  0  0  0  0  0  0  0
  148.0061  127.2629  152.1094 C   0  0  0  0  0  0  0  0  0  0  0  0
  148.3220  127.5949  150.6431 C   0  0  0  0  0  0  0  0  0  0  0  0
  148.4461  128.3544  153.0368 C   0  0  0  0  0  0  0  0  0  0  0  0
  149.2715  128.1167  154.0511 N   0  0  0  0  0  0  0  0  0  0  0  0
  149.4206  129.3750  154.6515 O   0  0  0  0  0  0  0  0  0  0  0  0
  148.6783  130.2291  153.9071 C   0  0  0  0  0  0  0  0  0  0  0  0
  148.5944  131.6597  154.3214 C   0  0  0  0  0  0  0  0  0  0  0  0
  149.0433  132.6195  153.2078 C   0  0  0  0  0  0  0  0  0  0  0  0
  148.0270  132.7539  152.1705 N   0  0  0  0  0  0  0  0  0  0  0  0
  146.9470  133.5507  152.2400 C   0  0  0  0  0  0  0  0  0  0  0  0
  146.7440  134.2973  153.1975 O   0  0  0  0  0  0  0  0  0  0  0  0
  146.1877  133.5342  151.1148 N   0  0  0  0  0  0  0  0  0  0  0  0
  146.0463  132.3045  150.3130 C   0  0  0  0  0  0  0  0  0  0  0  0
  144.7979  131.5350  150.7878 C   0  0  0  0  0  0  0  0  0  0  0  0
  143.5377  132.4171  150.7085 C   0  0  0  0  0  0  0  0  0  0  0  0
  143.7561  133.7909  151.3705 C   0  0  0  0  0  0  0  0  0  0  0  0
  145.0528  134.4474  150.8525 C   0  0  1  0  0  0  0  0  0  0  0  0
  145.2307  135.8911  151.3685 C   0  0  0  0  0  0  0  0  0  0  0  0
  148.0360  129.6457  152.8986 N   0  0  0  0  0  0  0  0  0  0  0  0
  148.2374  125.6559  153.5651 H   0  0  0  0  0  0  0  0  0  0  0  0
  149.6296  125.8552  152.5033 H   0  0  0  0  0  0  0  0  0  0  0  0
  148.1601  125.0988  151.8972 H   0  0  0  0  0  0  0  0  0  0  0  0
  146.9190  127.2038  152.1825 H   0  0  0  0  0  0  0  0  0  0  0  0
  147.8580  128.5358  150.3458 H   0  0  0  0  0  0  0  0  0  0  0  0
  147.9483  126.8177  149.9760 H   0  0  0  0  0  0  0  0  0  0  0  0
  149.3960  127.6856  150.4778 H   0  0  0  0  0  0  0  0  0  0  0  0
  147.5663  131.8771  154.6130 H   0  0  0  0  0  0  0  0  0  0  0  0
  149.2075  131.7966  155.2130 H   0  0  0  0  0  0  0  0  0  0  0  0
  149.2878  133.5991  153.6218 H   0  0  0  0  0  0  0  0  0  0  0  0
  149.9537  132.2437  152.7397 H   0  0  0  0  0  0  0  0  0  0  0  0
  148.1546  132.2055  151.3326 H   0  0  0  0  0  0  0  0  0  0  0  0
  145.9484  132.5637  149.2578 H   0  0  0  0  0  0  0  0  0  0  0  0
  146.9168  131.6501  150.3677 H   0  0  0  0  0  0  0  0  0  0  0  0
  144.6607  130.6349  150.1881 H   0  0  0  0  0  0  0  0  0  0  0  0
  144.9450  131.2011  151.8159 H   0  0  0  0  0  0  0  0  0  0  0  0
  143.2761  132.5667  149.6603 H   0  0  0  0  0  0  0  0  0  0  0  0
  142.6899  131.9073  151.1667 H   0  0  0  0  0  0  0  0  0  0  0  0
  142.8987  134.4339  151.1689 H   0  0  0  0  0  0  0  0  0  0  0  0
  143.8075  133.6740  152.4537 H   0  0  0  0  0  0  0  0  0  0  0  0
  144.9673  134.5420  149.7687 H   0  0  0  0  0  0  0  0  0  0  0  0
  144.4621  136.5413  150.9501 H   0  0  0  0  0  0  0  0  0  0  0  0
  146.1976  136.3010  151.0748 H   0  0  0  0  0  0  0  0  0  0  0  0
  145.1434  135.9627  152.4523 H   0  0  0  0  0  0  0  0  0  0  0  0
  1  2  1  0  0  0  0
  1 21  1  0  0  0  0
  1 22  1  0  0  0  0
  1 23  1  0  0  0  0
  2  3  1  0  0  0  0
  2  4  1  0  0  0  0
  2 24  1  0  0  0  0
  3 25  1  0  0  0  0
  3 26  1  0  0  0  0
  3 27  1  0  0  0  0
  4 20  1  0  0  0  0
  4  5  2  0  0  0  0
  5  6  1  0  0  0  0
  6  7  1  0  0  0  0
  7  8  1  0  0  0  0
  7 20  2  0  0  0  0
  8  9  1  0  0  0  0
  8 28  1  0  0  0  0
  8 29  1  0  0  0  0
  9 10  1  0  0  0  0
  9 30  1  0  0  0  0
  9 31  1  0  0  0  0
 10 11  1  0  0  0  0
 10 32  1  0  0  0  0
 11 12  2  0  0  0  0
 11 13  1  0  0  0  0
 13 18  1  0  0  0  0
 13 14  1  0  0  0  0
 14 15  1  0  0  0  0
 14 33  1  0  0  0  0
 14 34  1  0  0  0  0
 15 16  1  0  0  0  0
 15 35  1  0  0  0  0
 15 36  1  0  0  0  0
 16 17  1  0  0  0  0
 16 37  1  0  0  0  0
 16 38  1  0  0  0  0
 17 18  1  0  0  0  0
 17 39  1  0  0  0  0
 17 40  1  0  0  0  0
 18 19  1  0  0  0  0
 18 41  1  0  0  0  0
 19 42  1  0  0  0  0
 19 43  1  0  0  0  0
 19 44  1  0  0  0  0
M  END
> <s_m_source_file>
AV-unprocessed.smi

> <i_m_source_file_index>
776

> <i_lp_mmshare_version>
43012

> <i_f3d_flags>
0

> <s_epik_input>
W0NIM11bQ0hdKFtDSDNdKWMxbm9jKG4xKVtDSDJdW0NIMl1bTkhdQyg9TylOMltDSDJdW0NIMl1bQ0gyXVtDSDJdW0NASF0yW0NIM10=

> <s_epik_cmdline>
J2VwaWtfcHl0aG9uJywgJy1waCcsICc3LjAnLCAnLXRuJywgJzgnLCAnLW1hJywgJzIwMCcsICctbWV0YWxfYmluZGluZycsICctaW1hZScsICc8aW5maWxlLm1hZT4nLCAnLW9tYWUnLCAnPG91dGZpbGUubWFlPic=

> <r_lp_tautomer_probability>
1

> <r_epik_Ionization_Penalty>
6.23032e-05

> <r_epik_Ionization_Penalty_Charging>
0

> <r_epik_Ionization_Penalty_Neutral>
6.23032e-05

> <r_epik_State_Penalty>
-0

> <r_epik_Charging_Adjusted_Penalty>
0

> <i_epik_Tot_Q>
0

> <i_epik_Tot_abs_Q>
0

> <r_epik_Metal_State_Penalty>
-0

> <b_epik_Metal_Only>
0

> <s_lp_Force_Field>
OPLS_2005

> <r_lp_Energy>
26.0958

> <b_lp_Chiralities_Consistent>
1

> <s_lp_Variant>
AV-unprocessed.smi:776-1

> <Gold.Version>
5.8.1

> <Gold.Id.Protein>
6NUR|6NUR_protein|mol2

> <Gold.PLP.Fitness>
42.3191

> <Gold.PLP.PLP>
-39.7280

> <Gold.PLP.part.hbond>
-1.0000

> <Gold.PLP.part.metal>
0.0000

> <Gold.PLP.part.buried>
-7.0499

> <Gold.PLP.part.nonpolar>
-32.6463

> <Gold.PLP.part.repulsive>
1.0548

> <Gold.PLP.ligand.clash>
0.0000

> <Gold.PLP.ligand.torsion>
0.4624

> <Gold.PLP.Chemscore.Hbond>
1.0000

> <Gold.PLP.Chemscore.CHOScore>
0.0000

> <Gold.PLP.Chemscore.Metal>
0.0000

> <Gold.Chemscore.Hbonds>
donor molecule, donor type, donor heavy atom, donor atom, acceptor molecule, acceptor atom, score
      L1  H    10    32       P1 10747  1.00

> <Gold.PLP.Chemscore.Internal.Correction>
0.5160

> <Gold.Rescore>
     Score         DG    S(hbond)    S(metal)    S(lipo)     H(rot)  DE(clash)    DE(int)     intcor
     12.48     -14.21       0.97        0.00      82.98       1.65       0.01       1.72       ----

> <Gold.Chemscore.Fitness>
12.4784

> <Gold.Chemscore.DG>
-14.2087

> <Gold.Chemscore.ZeroCoef>
-5.4800

> <Gold.Chemscore.Hbond>
0.9690

> <Gold.Chemscore.Metal>
0.0000

> <Gold.Chemscore.Lipo>
82.9803

> <Gold.Chemscore.Internal_Hbond>
0.0000

> <Gold.Chemscore.DEClash>
0.0147

> <Gold.Chemscore.DEInternal>
1.7157

> <Gold.Chemscore.Rot>
1.6470

> <Gold.Chemscore.Internal.Correction>
   9.000000E+99

> <Gold.Chemscore.Hbonds>
donor molecule, donor type, donor heavy atom, donor atom, acceptor molecule, acceptor atom, score
      L1  H    10    32       P1 10747  0.97

> <Gold.Chemscore.Hbond.Weighted>
-3.2364

> <Gold.Chemscore.Metal.Weighted>
-0.0000

> <Gold.Chemscore.Lipo.Weighted>
-9.7087

> <Gold.Chemscore.Internal_Hbond.Weighted>
0.0000

> <Gold.Chemscore.DEClash.Weighted>
0.0147

> <Gold.Chemscore.DEInternal.Weighted>
1.7157

> <Gold.Chemscore.Rot.Weighted>
4.2164

> <Gold.Chemscore.Internal.Correction.Weighted>
   9.000000E+99

> <Gold.Protein.RotatedTorsions>
[ 6907 6896 6895 6894 ] final -154.41 input  -60.11 | X-H torsion
[ 7974 7965 7964 7962 ] final  -21.26 input  175.53 | X-H torsion
[ 8008 7997 7996 7995 ] final  -23.73 input   59.86 | X-H torsion
[ 10167 10162 10161 10158 ] final   97.40 input  -65.29 | X-H torsion
[ 10718 10713 10712 10709 ] final  -35.87 input   66.30 | X-H torsion
[ 10763 10752 10751 10750 ] final   98.89 input  -60.55 | X-H torsion
[ 11005 11000 10999 10996 ] final  126.72 input  -57.11 | X-H torsion

> <Gold.Protein.ActiveResidues>
 VAL166  LYS551  ARG553  GLY616  TRP617  ASP618  TYR619  PRO620  LYS621  CYS622 
 ASP623  PHE694  ASN695  SER759  ASP760  ASP761  ALA762  ILE779  LEU786  VAL792 
 PHE793  MET794  SER795  GLU796  ALA797  LYS798  CYS799  TRP800  GLU811  SER814 

> <Gold.Protein.RotatedAtoms>
  151.2570  133.4321  159.2613 H   0  0  0  0  0  0  0  0  0  0  0  0  # atno 6907 bound_to 6896
  151.0565  134.9708  159.8249 H   0  0  0  0  0  0  0  0  0  0  0  0  # atno 6908 bound_to 6896
  152.5391  134.2522  159.8956 H   0  0  0  0  0  0  0  0  0  0  0  0  # atno 6909 bound_to 6896
  146.1743  140.4316  142.8520 H   0  0  0  0  0  0  0  0  0  0  0  0  # atno 7974 bound_to 7965
  154.4569  140.1973  156.0355 H   0  0  0  0  0  0  0  0  0  0  0  0  # atno 8008 bound_to 7997
  156.0763  140.3277  155.7610 H   0  0  0  0  0  0  0  0  0  0  0  0  # atno 8009 bound_to 7997
  155.5183  140.0567  157.2902 H   0  0  0  0  0  0  0  0  0  0  0  0  # atno 8010 bound_to 7997
  139.7805  144.6890  151.0030 H   0  0  0  0  0  0  0  0  0  0  0  0  # atno 10167 bound_to 10162
  156.3336  130.4283  149.7850 H   0  0  0  0  0  0  0  0  0  0  0  0  # atno 10718 bound_to 10713
  153.2946  135.4132  155.1198 H   0  0  0  0  0  0  0  0  0  0  0  0  # atno 10763 bound_to 10752
  154.8531  135.3527  154.5934 H   0  0  0  0  0  0  0  0  0  0  0  0  # atno 10764 bound_to 10752
  153.6357  135.7059  153.5317 H   0  0  0  0  0  0  0  0  0  0  0  0  # atno 10765 bound_to 10752
  139.9470  134.9628  156.8748 H   0  0  0  0  0  0  0  0  0  0  0  0  # atno 11005 bound_to 11000
  144.8211  140.6551  143.6352 LP  0  0  0  0  0  0  0  0  0  0  0  0  # atno 17320 bound_to 7965
  145.4255  139.1557  143.4050 LP  0  0  0  0  0  0  0  0  0  0  0  0  # atno 17321 bound_to 7965
  140.7818  143.4489  151.0442 LP  0  0  0  0  0  0  0  0  0  0  0  0  # atno 17342 bound_to 10162
  139.8169  143.7873  152.3175 LP  0  0  0  0  0  0  0  0  0  0  0  0  # atno 17343 bound_to 10162
  156.5114  130.8173  151.3170 LP  0  0  0  0  0  0  0  0  0  0  0  0  # atno 17370 bound_to 10713
  157.7435  130.9913  150.2595 LP  0  0  0  0  0  0  0  0  0  0  0  0  # atno 17371 bound_to 10713
  140.5810  134.0352  155.7464 LP  0  0  0  0  0  0  0  0  0  0  0  0  # atno 17394 bound_to 11000
  141.1123  133.9596  157.2886 LP  0  0  0  0  0  0  0  0  0  0  0  0  # atno 17395 bound_to 11000

$$$$
