AV-unprocessed.smi:680|AV-procd|sdf|3324|dock2
  -GOLD-   22720 0293D 1   1.00000     0.00000
 Structure written by MMmdl.
 32 33  0  0  0  0  0  0  0  0  1 V2000
  150.7573  142.0779  156.5242 C   0  0  0  0  0  0  0  0  0  0  0  0
  150.4778  140.9397  155.5877 C   0  0  0  0  0  0  0  0  0  0  0  0
  149.2404  140.5721  154.9897 C   0  0  0  0  0  0  0  0  0  0  0  0
  149.5781  139.4738  154.2447 C   0  0  0  0  0  0  0  0  0  0  0  0
  148.7769  138.7042  153.4628 N   0  0  0  0  0  0  0  0  0  0  0  0
  147.4855  138.8896  153.1358 C   0  0  0  0  0  0  0  0  0  0  0  0
  146.7820  139.8283  153.5090 O   0  0  0  0  0  0  0  0  0  0  0  0
  147.0477  137.9099  152.3313 N   0  0  0  0  0  0  0  0  0  0  0  0
  145.7044  137.8095  151.7656 C   0  0  0  0  0  0  0  0  0  0  0  0
  144.9675  136.5517  152.2649 C   0  0  1  0  0  0  0  0  0  0  0  0
  143.5020  136.8731  152.6097 C   0  0  0  0  0  0  0  0  0  0  0  0
  142.7013  135.5321  153.5347 S   0  0  0  0  0  0  0  0  0  0  0  0
  142.8071  134.2008  152.3083 C   0  0  0  0  0  0  0  0  0  0  0  0
  144.2605  133.8693  151.9496 C   0  0  0  0  0  0  0  0  0  0  0  0
  145.0545  135.2161  151.0295 S   0  0  0  0  0  0  0  0  0  0  0  0
  150.8957  139.1825  154.3688 O   0  0  0  0  0  0  0  0  0  0  0  0
  151.4631  140.1294  155.2298 N   0  0  0  0  0  0  0  0  0  0  0  0
  149.8532  142.6532  156.7244 H   0  0  0  0  0  0  0  0  0  0  0  0
  151.4982  142.7593  156.1054 H   0  0  0  0  0  0  0  0  0  0  0  0
  151.1376  141.7159  157.4796 H   0  0  0  0  0  0  0  0  0  0  0  0
  148.2779  141.0472  155.1034 H   0  0  0  0  0  0  0  0  0  0  0  0
  149.2217  137.8898  153.0657 H   0  0  0  0  0  0  0  0  0  0  0  0
  147.6986  137.1810  152.0777 H   0  0  0  0  0  0  0  0  0  0  0  0
  145.1601  138.7022  152.0747 H   0  0  0  0  0  0  0  0  0  0  0  0
  145.7203  137.8277  150.6745 H   0  0  0  0  0  0  0  0  0  0  0  0
  145.4673  136.2015  153.1692 H   0  0  0  0  0  0  0  0  0  0  0  0
  143.4512  137.7675  153.2312 H   0  0  0  0  0  0  0  0  0  0  0  0
  142.9287  137.0849  151.7064 H   0  0  0  0  0  0  0  0  0  0  0  0
  142.3204  133.3187  152.7247 H   0  0  0  0  0  0  0  0  0  0  0  0
  142.2452  134.4826  151.4173 H   0  0  0  0  0  0  0  0  0  0  0  0
  144.8400  133.6512  152.8472 H   0  0  0  0  0  0  0  0  0  0  0  0
  144.2899  132.9744  151.3280 H   0  0  0  0  0  0  0  0  0  0  0  0
  1  2  1  0  0  0  0
  1 18  1  0  0  0  0
  1 19  1  0  0  0  0
  1 20  1  0  0  0  0
  2 17  2  0  0  0  0
  2  3  1  0  0  0  0
  3  4  2  0  0  0  0
  3 21  1  0  0  0  0
  4  5  1  0  0  0  0
  4 16  1  0  0  0  0
  5  6  1  0  0  0  0
  5 22  1  0  0  0  0
  6  7  2  0  0  0  0
  6  8  1  0  0  0  0
  8  9  1  0  0  0  0
  8 23  1  0  0  0  0
  9 10  1  0  0  0  0
  9 24  1  0  0  0  0
  9 25  1  0  0  0  0
 10 15  1  0  0  0  0
 10 11  1  0  0  0  0
 10 26  1  0  0  0  0
 11 12  1  0  0  0  0
 11 27  1  0  0  0  0
 11 28  1  0  0  0  0
 12 13  1  0  0  0  0
 13 14  1  0  0  0  0
 13 29  1  0  0  0  0
 13 30  1  0  0  0  0
 14 15  1  0  0  0  0
 14 31  1  0  0  0  0
 14 32  1  0  0  0  0
 16 17  1  0  0  0  0
M  END
> <s_m_source_file>
AV-unprocessed.smi

> <i_m_source_file_index>
680

> <i_lp_mmshare_version>
43012

> <i_f3d_flags>
0

> <s_epik_input>
W0NIM11jMVtjSF1jKG9uMSlbTkhdQyg9TylbTkhdW0NIMl1bQ0BASF0yW0NIMl1TW0NIMl1bQ0gyXVMy

> <s_epik_cmdline>
J2VwaWtfcHl0aG9uJywgJy1waCcsICc3LjAnLCAnLXRuJywgJzgnLCAnLW1hJywgJzIwMCcsICctbWV0YWxfYmluZGluZycsICctaW1hZScsICc8aW5maWxlLm1hZT4nLCAnLW9tYWUnLCAnPG91dGZpbGUubWFlPic=

> <r_epik_Ionization_Penalty>
0.000554698

> <r_epik_Ionization_Penalty_Charging>
0

> <r_epik_Ionization_Penalty_Neutral>
0.000554698

> <r_epik_State_Penalty>
0.000333438

> <r_epik_Charging_Adjusted_Penalty>
0.000333438

> <i_epik_Tot_Q>
0

> <i_epik_Tot_abs_Q>
0

> <r_epik_Metal_State_Penalty>
-0

> <b_epik_Metal_Only>
0

> <s_lp_Force_Field>
OPLS_2005

> <r_lp_Energy>
4.32293

> <b_lp_Chiralities_Consistent>
1

> <s_lp_Variant>
AV-unprocessed.smi:680-2

> <Gold.Version>
5.8.1

> <Gold.Id.Protein>
6NUR|6NUR_protein|mol2

> <Gold.PLP.Fitness>
35.8723

> <Gold.PLP.PLP>
-31.2832

> <Gold.PLP.part.hbond>
-5.0000

> <Gold.PLP.part.metal>
0.0000

> <Gold.PLP.part.buried>
-0.4606

> <Gold.PLP.part.nonpolar>
-26.6621

> <Gold.PLP.part.repulsive>
0.4935

> <Gold.PLP.ligand.clash>
0.0000

> <Gold.PLP.ligand.torsion>
0.5871

> <Gold.PLP.Chemscore.Hbond>
1.9199

> <Gold.PLP.Chemscore.CHOScore>
0.0000

> <Gold.PLP.Chemscore.Metal>
0.0000

> <Gold.Chemscore.Hbonds>
donor molecule, donor type, donor heavy atom, donor atom, acceptor molecule, acceptor atom, score
      L1  H     5    22       P1  7948  0.92
      L1  H     8    23       P1  7948  1.00

> <Gold.PLP.Chemscore.Internal.Correction>
0.0036

> <Gold.Rescore>
     Score         DG    S(hbond)    S(metal)    S(lipo)     H(rot)  DE(clash)    DE(int)     intcor
     12.39     -15.57       1.95        0.00      58.13       1.26       1.49       1.69       ----

> <Gold.Chemscore.Fitness>
12.3915

> <Gold.Chemscore.DG>
-15.5694

> <Gold.Chemscore.ZeroCoef>
-5.4800

> <Gold.Chemscore.Hbond>
1.9495

> <Gold.Chemscore.Metal>
0.0000

> <Gold.Chemscore.Lipo>
58.1305

> <Gold.Chemscore.Internal_Hbond>
0.0000

> <Gold.Chemscore.DEClash>
1.4917

> <Gold.Chemscore.DEInternal>
1.6863

> <Gold.Chemscore.Rot>
1.2590

> <Gold.Chemscore.Internal.Correction>
   9.000000E+99

> <Gold.Chemscore.Hbonds>
donor molecule, donor type, donor heavy atom, donor atom, acceptor molecule, acceptor atom, score
      L1  H     5    22       P1  7948  0.81
      L1  H     8    23       P1  7948  0.97

> <Gold.Chemscore.Hbond.Weighted>
-6.5113

> <Gold.Chemscore.Metal.Weighted>
-0.0000

> <Gold.Chemscore.Lipo.Weighted>
-6.8013

> <Gold.Chemscore.Internal_Hbond.Weighted>
0.0000

> <Gold.Chemscore.DEClash.Weighted>
1.4917

> <Gold.Chemscore.DEInternal.Weighted>
1.6863

> <Gold.Chemscore.Rot.Weighted>
3.2232

> <Gold.Chemscore.Internal.Correction.Weighted>
   9.000000E+99

> <Gold.Protein.RotatedTorsions>
[ 6907 6896 6895 6894 ] final -176.87 input  -60.11 | X-H torsion
[ 7974 7965 7964 7962 ] final -126.58 input  175.53 | X-H torsion
[ 8008 7997 7996 7995 ] final  -63.45 input   59.86 | X-H torsion
[ 10167 10162 10161 10158 ] final   58.93 input  -65.29 | X-H torsion
[ 10718 10713 10712 10709 ] final   50.02 input   66.30 | X-H torsion
[ 10763 10752 10751 10750 ] final   17.44 input  -60.55 | X-H torsion
[ 11005 11000 10999 10996 ] final   51.84 input  -57.11 | X-H torsion

> <Gold.Protein.ActiveResidues>
 VAL166  LYS551  ARG553  GLY616  TRP617  ASP618  TYR619  PRO620  LYS621  CYS622 
 ASP623  PHE694  ASN695  SER759  ASP760  ASP761  ALA762  ILE779  LEU786  VAL792 
 PHE793  MET794  SER795  GLU796  ALA797  LYS798  CYS799  TRP800  GLU811  SER814 

> <Gold.Protein.RotatedAtoms>
  151.6119  133.3346  159.3068 H   0  0  0  0  0  0  0  0  0  0  0  0  # atno 6907 bound_to 6896
  150.8152  134.7333  159.6735 H   0  0  0  0  0  0  0  0  0  0  0  0  # atno 6908 bound_to 6896
  152.4248  134.5894  160.0021 H   0  0  0  0  0  0  0  0  0  0  0  0  # atno 6909 bound_to 6896
  144.9858  140.7684  143.4584 H   0  0  0  0  0  0  0  0  0  0  0  0  # atno 7974 bound_to 7965
  154.4555  140.0974  156.6745 H   0  0  0  0  0  0  0  0  0  0  0  0  # atno 8008 bound_to 7997
  155.5151  140.3477  155.4377 H   0  0  0  0  0  0  0  0  0  0  0  0  # atno 8009 bound_to 7997
  156.0769  140.1363  156.9749 H   0  0  0  0  0  0  0  0  0  0  0  0  # atno 8010 bound_to 7997
  140.1820  144.4173  150.6611 H   0  0  0  0  0  0  0  0  0  0  0  0  # atno 10167 bound_to 10162
  157.4844  130.8336  149.8130 H   0  0  0  0  0  0  0  0  0  0  0  0  # atno 10718 bound_to 10713
  153.1339  135.6746  153.9134 H   0  0  0  0  0  0  0  0  0  0  0  0  # atno 10763 bound_to 10752
  153.8612  135.3081  155.3439 H   0  0  0  0  0  0  0  0  0  0  0  0  # atno 10764 bound_to 10752
  154.7731  135.4929  153.9771 H   0  0  0  0  0  0  0  0  0  0  0  0  # atno 10765 bound_to 10752
  140.0899  134.5223  155.8862 H   0  0  0  0  0  0  0  0  0  0  0  0  # atno 11005 bound_to 11000
  145.2356  139.2095  143.5020 LP  0  0  0  0  0  0  0  0  0  0  0  0  # atno 17320 bound_to 7965
  146.3419  140.2241  142.8592 LP  0  0  0  0  0  0  0  0  0  0  0  0  # atno 17321 bound_to 7965
  140.6513  143.2226  151.6069 LP  0  0  0  0  0  0  0  0  0  0  0  0  # atno 17342 bound_to 10162
  139.5292  144.2966  152.1108 LP  0  0  0  0  0  0  0  0  0  0  0  0  # atno 17343 bound_to 10162
  156.0139  130.3822  150.2175 LP  0  0  0  0  0  0  0  0  0  0  0  0  # atno 17370 bound_to 10713
  157.0362  131.0022  151.3297 LP  0  0  0  0  0  0  0  0  0  0  0  0  # atno 17371 bound_to 10713
  141.2074  133.6664  156.6307 LP  0  0  0  0  0  0  0  0  0  0  0  0  # atno 17394 bound_to 11000
  140.3367  134.7883  157.4367 LP  0  0  0  0  0  0  0  0  0  0  0  0  # atno 17395 bound_to 11000

$$$$
