AV-unprocessed.smi:2310|AV-procd|sdf|9255|dock4
  -GOLD-   2272012473D 1   1.00000     0.00000
 Structure written by MMmdl.
 45 46  0  0  0  0  0  0  0  0  1 V2000
  143.2297  136.6284  152.6862 C   0  0  0  0  0  0  0  0  0  0  0  0
  144.6644  136.9711  153.1137 C   0  0  0  0  0  0  0  0  0  0  0  0
  145.6015  137.2903  151.9344 C   0  0  2  0  0  0  0  0  0  0  0  0
  145.6993  136.1052  150.9609 C   0  0  0  0  0  0  0  0  0  0  0  0
  145.8607  134.8069  151.6353 C   0  0  0  0  0  0  0  0  0  0  0  0
  145.9880  133.7864  152.1650 N   0  0  0  0  0  0  0  0  0  0  0  0
  146.9332  137.6333  152.4335 N   0  0  0  0  0  0  0  0  0  0  0  0
  147.2176  138.6087  153.3085 C   0  0  0  0  0  0  0  0  0  0  0  0
  146.3709  139.3560  153.7973 O   0  0  0  0  0  0  0  0  0  0  0  0
  148.5321  138.6374  153.5859 N   0  0  0  0  0  0  0  0  0  0  0  0
  149.2274  139.4899  154.4883 C   0  0  0  0  0  0  0  0  0  0  0  0
  148.6349  140.6151  155.1081 C   0  0  0  0  0  0  0  0  0  0  0  0
  149.4103  141.4111  155.9720 C   0  0  0  0  0  0  0  0  0  0  0  0
  150.7668  141.0742  156.1876 C   0  0  0  0  0  0  0  0  0  0  0  0
  151.5792  141.8398  157.0477 N   0  0  0  0  0  0  0  0  0  0  0  0
  152.3594  141.2285  158.1148 C   0  0  0  0  0  0  0  0  0  0  0  0
  152.5322  142.3194  159.1785 C   0  0  0  0  0  0  0  0  0  0  0  0
  152.2938  143.6247  158.4193 C   0  0  0  0  0  0  0  0  0  0  0  0
  151.2684  143.2265  157.3593 C   0  0  0  0  0  0  0  0  0  0  0  0
  151.3357  140.0026  155.5876 N   0  0  0  0  0  0  0  0  0  0  0  0
  150.5926  139.2374  154.7593 C   0  0  0  0  0  0  0  0  0  0  0  0
  151.3214  138.0622  154.1323 C   0  0  0  0  0  0  0  0  0  0  0  0
  142.6236  136.3551  153.5500 H   0  0  0  0  0  0  0  0  0  0  0  0
  143.2176  135.7872  151.9926 H   0  0  0  0  0  0  0  0  0  0  0  0
  142.7435  137.4731  152.1975 H   0  0  0  0  0  0  0  0  0  0  0  0
  144.6436  137.8125  153.8075 H   0  0  0  0  0  0  0  0  0  0  0  0
  145.0710  136.1280  153.6734 H   0  0  0  0  0  0  0  0  0  0  0  0
  145.1699  138.1321  151.3898 H   0  0  0  0  0  0  0  0  0  0  0  0
  144.8129  136.0508  150.3284 H   0  0  0  0  0  0  0  0  0  0  0  0
  146.5568  136.2308  150.2995 H   0  0  0  0  0  0  0  0  0  0  0  0
  147.6993  137.0713  152.0924 H   0  0  0  0  0  0  0  0  0  0  0  0
  149.0888  137.9073  153.1669 H   0  0  0  0  0  0  0  0  0  0  0  0
  147.6070  140.8905  154.9297 H   0  0  0  0  0  0  0  0  0  0  0  0
  148.9544  142.2625  156.4548 H   0  0  0  0  0  0  0  0  0  0  0  0
  151.8687  140.3502  158.5357 H   0  0  0  0  0  0  0  0  0  0  0  0
  153.3257  140.9229  157.7126 H   0  0  0  0  0  0  0  0  0  0  0  0
  151.7678  142.2031  159.9479 H   0  0  0  0  0  0  0  0  0  0  0  0
  153.5061  142.2835  159.6670 H   0  0  0  0  0  0  0  0  0  0  0  0
  151.9477  144.4361  159.0603 H   0  0  0  0  0  0  0  0  0  0  0  0
  153.2188  143.9451  157.9381 H   0  0  0  0  0  0  0  0  0  0  0  0
  151.3339  143.8636  156.4764 H   0  0  0  0  0  0  0  0  0  0  0  0
  150.2557  143.2916  157.7595 H   0  0  0  0  0  0  0  0  0  0  0  0
  150.8361  137.1253  154.4074 H   0  0  0  0  0  0  0  0  0  0  0  0
  152.3601  138.0129  154.4615 H   0  0  0  0  0  0  0  0  0  0  0  0
  151.3169  138.1482  153.0454 H   0  0  0  0  0  0  0  0  0  0  0  0
  1  2  1  0  0  0  0
  1 23  1  0  0  0  0
  1 24  1  0  0  0  0
  1 25  1  0  0  0  0
  2  3  1  0  0  0  0
  2 26  1  0  0  0  0
  2 27  1  0  0  0  0
  3  4  1  0  0  0  0
  3  7  1  0  0  0  0
  3 28  1  0  0  0  0
  4  5  1  0  0  0  0
  4 29  1  0  0  0  0
  4 30  1  0  0  0  0
  5  6  3  0  0  0  0
  7  8  1  0  0  0  0
  7 31  1  0  0  0  0
  8  9  2  0  0  0  0
  8 10  1  0  0  0  0
 10 11  1  0  0  0  0
 10 32  1  0  0  0  0
 11 21  1  0  0  0  0
 11 12  2  0  0  0  0
 12 13  1  0  0  0  0
 12 33  1  0  0  0  0
 13 14  2  0  0  0  0
 13 34  1  0  0  0  0
 14 15  1  0  0  0  0
 14 20  1  0  0  0  0
 15 19  1  0  0  0  0
 15 16  1  0  0  0  0
 16 17  1  0  0  0  0
 16 35  1  0  0  0  0
 16 36  1  0  0  0  0
 17 18  1  0  0  0  0
 17 37  1  0  0  0  0
 17 38  1  0  0  0  0
 18 19  1  0  0  0  0
 18 39  1  0  0  0  0
 18 40  1  0  0  0  0
 19 41  1  0  0  0  0
 19 42  1  0  0  0  0
 20 21  2  0  0  0  0
 21 22  1  0  0  0  0
 22 43  1  0  0  0  0
 22 44  1  0  0  0  0
 22 45  1  0  0  0  0
M  END
> <s_m_source_file>
AV-unprocessed.smi

> <i_m_source_file_index>
2310

> <i_lp_mmshare_version>
43012

> <i_f3d_flags>
0

> <s_epik_input>
TiNDW0NIMl1bQ0BASF0oW0NIMl1bQ0gzXSlbTkhdQyg9TylbTkhdYzFbY0hdW2NIXWMobmMxW0NIM10pTjJbQ0gyXVtDSDJdW0NIMl1bQ0gyXTI=

> <s_epik_cmdline>
J2VwaWtfcHl0aG9uJywgJy1waCcsICc3LjAnLCAnLXRuJywgJzgnLCAnLW1hJywgJzIwMCcsICctbWV0YWxfYmluZGluZycsICctaW1hZScsICc8aW5maWxlLm1hZT4nLCAnLW9tYWUnLCAnPG91dGZpbGUubWFlPic=

> <r_lp_tautomer_probability>
1

> <r_epik_Ionization_Penalty>
0.281354

> <r_epik_Ionization_Penalty_Charging>
0

> <r_epik_Ionization_Penalty_Neutral>
0.281354

> <r_epik_State_Penalty>
0.273364

> <r_epik_Charging_Adjusted_Penalty>
0.273364

> <i_epik_Tot_Q>
0

> <i_epik_Tot_abs_Q>
0

> <r_epik_Metal_State_Penalty>
0.18752

> <b_epik_Metal_Only>
0

> <s_lp_Force_Field>
OPLS_2005

> <r_lp_Energy>
30.6963

> <b_lp_Chiralities_Consistent>
1

> <s_lp_Variant>
AV-unprocessed.smi:2310-1

> <Gold.Version>
5.8.1

> <Gold.Id.Protein>
6NUR|6NUR_protein|mol2

> <Gold.PLP.Fitness>
44.1119

> <Gold.PLP.PLP>
-40.2348

> <Gold.PLP.part.hbond>
-3.4092

> <Gold.PLP.part.metal>
0.0000

> <Gold.PLP.part.buried>
-4.6733

> <Gold.PLP.part.nonpolar>
-33.7960

> <Gold.PLP.part.repulsive>
0.4186

> <Gold.PLP.ligand.clash>
0.0000

> <Gold.PLP.ligand.torsion>
0.7285

> <Gold.PLP.Chemscore.Hbond>
1.7073

> <Gold.PLP.Chemscore.CHOScore>
0.0000

> <Gold.PLP.Chemscore.Metal>
0.0000

> <Gold.Chemscore.Hbonds>
donor molecule, donor type, donor heavy atom, donor atom, acceptor molecule, acceptor atom, score
      L1  H     7    31       P1  7948  0.94
      L1  H    10    32       P1  7948  0.72

> <Gold.PLP.Chemscore.Internal.Correction>
0.2123

> <Gold.Rescore>
     Score         DG    S(hbond)    S(metal)    S(lipo)     H(rot)  DE(clash)    DE(int)     intcor
     14.21     -16.60       1.02        0.00      97.59       1.45       0.29       2.10       ----

> <Gold.Chemscore.Fitness>
14.2139

> <Gold.Chemscore.DG>
-16.5965

> <Gold.Chemscore.ZeroCoef>
-5.4800

> <Gold.Chemscore.Hbond>
1.0207

> <Gold.Chemscore.Metal>
0.0000

> <Gold.Chemscore.Lipo>
97.5859

> <Gold.Chemscore.Internal_Hbond>
0.0000

> <Gold.Chemscore.DEClash>
0.2855

> <Gold.Chemscore.DEInternal>
2.0972

> <Gold.Chemscore.Rot>
1.4492

> <Gold.Chemscore.Internal.Correction>
   9.000000E+99

> <Gold.Chemscore.Hbonds>
donor molecule, donor type, donor heavy atom, donor atom, acceptor molecule, acceptor atom, score
      L1  H     7    31       P1  7948  0.90
      L1  H    10    32       P1  7948  0.68

> <Gold.Chemscore.Hbond.Weighted>
-3.4090

> <Gold.Chemscore.Metal.Weighted>
-0.0000

> <Gold.Chemscore.Lipo.Weighted>
-11.4176

> <Gold.Chemscore.Internal_Hbond.Weighted>
0.0000

> <Gold.Chemscore.DEClash.Weighted>
0.2855

> <Gold.Chemscore.DEInternal.Weighted>
2.0972

> <Gold.Chemscore.Rot.Weighted>
3.7100

> <Gold.Chemscore.Internal.Correction.Weighted>
   9.000000E+99

> <Gold.Protein.RotatedTorsions>
[ 6907 6896 6895 6894 ] final   91.32 input  -60.11 | X-H torsion
[ 7974 7965 7964 7962 ] final   34.78 input  175.53 | X-H torsion
[ 8008 7997 7996 7995 ] final -149.71 input   59.86 | X-H torsion
[ 10167 10162 10161 10158 ] final  131.28 input  -65.29 | X-H torsion
[ 10718 10713 10712 10709 ] final -146.58 input   66.30 | X-H torsion
[ 10763 10752 10751 10750 ] final  109.60 input  -60.55 | X-H torsion
[ 11005 11000 10999 10996 ] final   76.35 input  -57.11 | X-H torsion

> <Gold.Protein.ActiveResidues>
 VAL166  LYS551  ARG553  GLY616  TRP617  ASP618  TYR619  PRO620  LYS621  CYS622 
 ASP623  PHE694  ASN695  SER759  ASP760  ASP761  ALA762  ILE779  LEU786  VAL792 
 PHE793  MET794  SER795  GLU796  ALA797  LYS798  CYS799  TRP800  GLU811  SER814 

> <Gold.Protein.RotatedAtoms>
  152.5449  134.1676  159.8583 H   0  0  0  0  0  0  0  0  0  0  0  0  # atno 6907 bound_to 6896
  151.1689  133.4790  159.2601 H   0  0  0  0  0  0  0  0  0  0  0  0  # atno 6908 bound_to 6896
  151.1296  135.0134  159.8631 H   0  0  0  0  0  0  0  0  0  0  0  0  # atno 6909 bound_to 6896
  146.1329  139.6225  142.9215 H   0  0  0  0  0  0  0  0  0  0  0  0  # atno 7974 bound_to 7965
  155.6119  140.0672  157.2703 H   0  0  0  0  0  0  0  0  0  0  0  0  # atno 8008 bound_to 7997
  154.4251  140.1800  156.1329 H   0  0  0  0  0  0  0  0  0  0  0  0  # atno 8009 bound_to 7997
  156.0078  140.3330  155.6913 H   0  0  0  0  0  0  0  0  0  0  0  0  # atno 8010 bound_to 7997
  139.5391  144.6713  151.4684 H   0  0  0  0  0  0  0  0  0  0  0  0  # atno 10167 bound_to 10162
  156.3967  130.7913  151.2120 H   0  0  0  0  0  0  0  0  0  0  0  0  # atno 10718 bound_to 10713
  153.4370  135.3775  155.2205 H   0  0  0  0  0  0  0  0  0  0  0  0  # atno 10763 bound_to 10752
  154.8752  135.3853  154.4199 H   0  0  0  0  0  0  0  0  0  0  0  0  # atno 10764 bound_to 10752
  153.4739  135.7087  153.6040 H   0  0  0  0  0  0  0  0  0  0  0  0  # atno 10765 bound_to 10752
  139.9302  134.7593  156.1384 H   0  0  0  0  0  0  0  0  0  0  0  0  # atno 11005 bound_to 11000
  145.5221  141.0431  143.2430 LP  0  0  0  0  0  0  0  0  0  0  0  0  # atno 17320 bound_to 7965
  144.7709  139.6737  143.7195 LP  0  0  0  0  0  0  0  0  0  0  0  0  # atno 17321 bound_to 7965
  140.6613  143.8493  150.6891 LP  0  0  0  0  0  0  0  0  0  0  0  0  # atno 17342 bound_to 10162
  140.1888  143.4053  152.1878 LP  0  0  0  0  0  0  0  0  0  0  0  0  # atno 17343 bound_to 10162
  157.7502  131.0299  150.4114 LP  0  0  0  0  0  0  0  0  0  0  0  0  # atno 17370 bound_to 10713
  156.4385  130.3987  149.6712 LP  0  0  0  0  0  0  0  0  0  0  0  0  # atno 17371 bound_to 10713
  141.0886  133.6724  156.2491 LP  0  0  0  0  0  0  0  0  0  0  0  0  # atno 17394 bound_to 11000
  140.6223  134.5349  157.5549 LP  0  0  0  0  0  0  0  0  0  0  0  0  # atno 17395 bound_to 11000

$$$$
