AV-unprocessed.smi:3161|AV-procd|sdf|12060|dock10
  -GOLD-   2272017493D 1   1.00000     0.00000
 Structure written by MMmdl.
 40 41  0  0  0  0  0  0  0  0  1 V2000
  145.9017  143.0231  154.3579 C   0  0  0  0  0  0  0  0  0  0  0  0
  146.8984  141.9045  154.2613 C   0  0  0  0  0  0  0  0  0  0  0  0
  146.6658  140.5573  153.8641 C   0  0  0  0  0  0  0  0  0  0  0  0
  147.7632  139.8189  153.8828 N   0  0  0  0  0  0  0  0  0  0  0  0
  148.7305  140.6593  154.3095 N   0  0  0  0  0  0  0  0  0  0  0  0
  150.1023  140.1921  154.4288 C   0  0  0  0  0  0  0  0  0  0  0  0
  150.5746  139.9649  155.8877 C   0  0  1  0  0  0  0  0  0  0  0  0
  151.9550  139.2925  155.9029 C   0  0  0  0  0  0  0  0  0  0  0  0
  150.6508  141.2049  156.6706 N   0  0  0  0  0  0  0  0  0  0  0  0
  151.1943  141.0814  158.0223 C   0  0  0  0  0  0  0  0  0  0  0  0
  151.8658  142.3860  158.4753 C   0  0  2  0  0  0  0  0  0  0  0  0
  152.2311  142.3776  159.9743 C   0  0  0  0  0  0  0  0  0  0  0  0
  152.8071  143.7340  160.3961 C   0  0  0  0  0  0  0  0  0  0  0  0
  151.8411  144.8532  159.9937 C   0  0  0  0  0  0  0  0  0  0  0  0
  151.4839  144.7390  158.5034 C   0  0  0  0  0  0  0  0  0  0  0  0
  150.9466  143.4484  158.2299 O   0  0  0  0  0  0  0  0  0  0  0  0
  148.2384  141.9295  154.5264 C   0  0  0  0  0  0  0  0  0  0  0  0
  144.9966  142.8092  153.7890 H   0  0  0  0  0  0  0  0  0  0  0  0
  146.3076  143.9594  153.9743 H   0  0  0  0  0  0  0  0  0  0  0  0
  145.5982  143.2019  155.3895 H   0  0  0  0  0  0  0  0  0  0  0  0
  145.7370  140.0983  153.5593 H   0  0  0  0  0  0  0  0  0  0  0  0
  150.1613  139.2564  153.8713 H   0  0  0  0  0  0  0  0  0  0  0  0
  150.7644  140.8910  153.9157 H   0  0  0  0  0  0  0  0  0  0  0  0
  149.8900  139.2751  156.3825 H   0  0  0  0  0  0  0  0  0  0  0  0
  151.9290  138.3306  155.3904 H   0  0  0  0  0  0  0  0  0  0  0  0
  152.2929  139.1073  156.9231 H   0  0  0  0  0  0  0  0  0  0  0  0
  152.7053  139.9121  155.4099 H   0  0  0  0  0  0  0  0  0  0  0  0
  151.1921  141.8916  156.1550 H   0  0  0  0  0  0  0  0  0  0  0  0
  150.3912  140.8533  158.7204 H   0  0  0  0  0  0  0  0  0  0  0  0
  151.9067  140.2574  158.0778 H   0  0  0  0  0  0  0  0  0  0  0  0
  152.7600  142.5545  157.8717 H   0  0  0  0  0  0  0  0  0  0  0  0
  151.3435  142.1577  160.5692 H   0  0  0  0  0  0  0  0  0  0  0  0
  152.9529  141.5887  160.1873 H   0  0  0  0  0  0  0  0  0  0  0  0
  152.9881  143.7541  161.4711 H   0  0  0  0  0  0  0  0  0  0  0  0
  153.7716  143.8895  159.9112 H   0  0  0  0  0  0  0  0  0  0  0  0
  150.9317  144.7858  160.5920 H   0  0  0  0  0  0  0  0  0  0  0  0
  152.2833  145.8274  160.2038 H   0  0  0  0  0  0  0  0  0  0  0  0
  150.7425  145.4924  158.2372 H   0  0  0  0  0  0  0  0  0  0  0  0
  152.3596  144.9200  157.8784 H   0  0  0  0  0  0  0  0  0  0  0  0
  148.8759  142.7369  154.8553 H   0  0  0  0  0  0  0  0  0  0  0  0
  1  2  1  0  0  0  0
  1 18  1  0  0  0  0
  1 19  1  0  0  0  0
  1 20  1  0  0  0  0
  2 17  2  0  0  0  0
  2  3  1  0  0  0  0
  3  4  2  0  0  0  0
  3 21  1  0  0  0  0
  4  5  1  0  0  0  0
  5  6  1  0  0  0  0
  5 17  1  0  0  0  0
  6  7  1  0  0  0  0
  6 22  1  0  0  0  0
  6 23  1  0  0  0  0
  7  8  1  0  0  0  0
  7  9  1  0  0  0  0
  7 24  1  0  0  0  0
  8 25  1  0  0  0  0
  8 26  1  0  0  0  0
  8 27  1  0  0  0  0
  9 10  1  0  0  0  0
  9 28  1  0  0  0  0
 10 11  1  0  0  0  0
 10 29  1  0  0  0  0
 10 30  1  0  0  0  0
 11 16  1  0  0  0  0
 11 12  1  0  0  0  0
 11 31  1  0  0  0  0
 12 13  1  0  0  0  0
 12 32  1  0  0  0  0
 12 33  1  0  0  0  0
 13 14  1  0  0  0  0
 13 34  1  0  0  0  0
 13 35  1  0  0  0  0
 14 15  1  0  0  0  0
 14 36  1  0  0  0  0
 14 37  1  0  0  0  0
 15 16  1  0  0  0  0
 15 38  1  0  0  0  0
 15 39  1  0  0  0  0
 17 40  1  0  0  0  0
M  END
> <s_m_source_file>
AV-unprocessed.smi

> <i_m_source_file_index>
3161

> <i_lp_mmshare_version>
43012

> <i_f3d_flags>
0

> <s_epik_input>
W0NIM11jMVtjSF1ubihbY0hdMSlbQ0gyXVtDQEhdKFtDSDNdKVtOSF1bQ0gyXVtDQEBIXTJbQ0gyXVtDSDJdW0NIMl1bQ0gyXU8y

> <s_epik_cmdline>
J2VwaWtfcHl0aG9uJywgJy1waCcsICc3LjAnLCAnLXRuJywgJzgnLCAnLW1hJywgJzIwMCcsICctbWV0YWxfYmluZGluZycsICctaW1hZScsICc8aW5maWxlLm1hZT4nLCAnLW9tYWUnLCAnPG91dGZpbGUubWFlPic=

> <r_lp_tautomer_probability>
1

> <r_epik_Ionization_Penalty>
2.51986

> <r_epik_Ionization_Penalty_Charging>
0

> <r_epik_Ionization_Penalty_Neutral>
2.51986

> <r_epik_State_Penalty>
2.68614

> <r_epik_Charging_Adjusted_Penalty>
2.68614

> <i_epik_Tot_Q>
0

> <i_epik_Tot_abs_Q>
0

> <r_epik_Metal_State_Penalty>
2.68606

> <b_epik_Metal_Only>
0

> <s_lp_Force_Field>
OPLS_2005

> <r_lp_Energy>
14.6841

> <b_lp_Chiralities_Consistent>
1

> <s_lp_Variant>
AV-unprocessed.smi:3161-6

> <Gold.Version>
5.8.1

> <Gold.Id.Protein>
6NUR|6NUR_protein|mol2

> <Gold.PLP.Fitness>
44.0839

> <Gold.PLP.PLP>
-38.9898

> <Gold.PLP.part.hbond>
0.0000

> <Gold.PLP.part.metal>
0.0000

> <Gold.PLP.part.buried>
-0.8629

> <Gold.PLP.part.nonpolar>
-38.1847

> <Gold.PLP.part.repulsive>
0.2948

> <Gold.PLP.ligand.clash>
0.0000

> <Gold.PLP.ligand.torsion>
0.4646

> <Gold.PLP.Chemscore.Hbond>
0.0000

> <Gold.PLP.Chemscore.CHOScore>
2.0000

> <Gold.PLP.Chemscore.Metal>
0.0000

> <Gold.Chemscore.Hbonds>
donor molecule, donor type, donor heavy atom, donor atom, acceptor molecule, acceptor atom, score
      L1  C     3    21       P1 10175  1.00
      L1  C    17    40       P1  8028  1.00

> <Gold.PLP.Chemscore.Internal.Correction>
0.0232

> <Gold.Rescore>
     Score         DG    S(hbond)    S(metal)    S(lipo)     H(rot)  DE(clash)    DE(int)     intcor
     13.86     -14.41       0.00        0.00     109.24       1.50       0.20       0.36       ----

> <Gold.Chemscore.Fitness>
13.8606

> <Gold.Chemscore.DG>
-14.4137

> <Gold.Chemscore.ZeroCoef>
-5.4800

> <Gold.Chemscore.Hbond>
0.0000

> <Gold.Chemscore.Metal>
0.0000

> <Gold.Chemscore.Lipo>
109.2428

> <Gold.Chemscore.Internal_Hbond>
0.0000

> <Gold.Chemscore.DEClash>
0.1977

> <Gold.Chemscore.DEInternal>
0.3553

> <Gold.Chemscore.Rot>
1.5030

> <Gold.Chemscore.Internal.Correction>
   9.000000E+99

> <Gold.Chemscore.Hbond.Weighted>
-0.0000

> <Gold.Chemscore.Metal.Weighted>
-0.0000

> <Gold.Chemscore.Lipo.Weighted>
-12.7814

> <Gold.Chemscore.Internal_Hbond.Weighted>
0.0000

> <Gold.Chemscore.DEClash.Weighted>
0.1977

> <Gold.Chemscore.DEInternal.Weighted>
0.3553

> <Gold.Chemscore.Rot.Weighted>
3.8477

> <Gold.Chemscore.Internal.Correction.Weighted>
   9.000000E+99

> <Gold.Protein.RotatedTorsions>
[ 6907 6896 6895 6894 ] final   63.56 input  -60.11 | X-H torsion
[ 7974 7965 7964 7962 ] final  -28.60 input  175.53 | X-H torsion
[ 8008 7997 7996 7995 ] final  111.56 input   59.86 | X-H torsion
[ 10167 10162 10161 10158 ] final   12.75 input  -65.29 | X-H torsion
[ 10718 10713 10712 10709 ] final  120.39 input   66.30 | X-H torsion
[ 10763 10752 10751 10750 ] final  -11.02 input  -60.55 | X-H torsion
[ 11005 11000 10999 10996 ] final  157.00 input  -57.11 | X-H torsion

> <Gold.Protein.ActiveResidues>
 VAL166  LYS551  ARG553  GLY616  TRP617  ASP618  TYR619  PRO620  LYS621  CYS622 
 ASP623  PHE694  ASN695  SER759  ASP760  ASP761  ALA762  ILE779  LEU786  VAL792 
 PHE793  MET794  SER795  GLU796  ALA797  LYS798  CYS799  TRP800  GLU811  SER814 

> <Gold.Protein.RotatedAtoms>
  152.4263  134.5863  159.9961 H   0  0  0  0  0  0  0  0  0  0  0  0  # atno 6907 bound_to 6896
  151.5998  133.3352  159.3053 H   0  0  0  0  0  0  0  0  0  0  0  0  # atno 6908 bound_to 6896
  150.8152  134.7367  159.6789 H   0  0  0  0  0  0  0  0  0  0  0  0  # atno 6909 bound_to 6896
  146.1276  140.5304  142.8707 H   0  0  0  0  0  0  0  0  0  0  0  0  # atno 7974 bound_to 7965
  156.2132  140.3017  155.9780 H   0  0  0  0  0  0  0  0  0  0  0  0  # atno 8008 bound_to 7997
  155.2671  140.0432  157.3020 H   0  0  0  0  0  0  0  0  0  0  0  0  # atno 8009 bound_to 7997
  154.5730  140.2353  155.8173 H   0  0  0  0  0  0  0  0  0  0  0  0  # atno 8010 bound_to 7997
  140.6048  143.8531  150.7002 H   0  0  0  0  0  0  0  0  0  0  0  0  # atno 10167 bound_to 10162
  157.5894  131.1066  150.8029 H   0  0  0  0  0  0  0  0  0  0  0  0  # atno 10718 bound_to 10713
  153.4776  135.7017  153.5957 H   0  0  0  0  0  0  0  0  0  0  0  0  # atno 10763 bound_to 10752
  153.4184  135.3831  155.2095 H   0  0  0  0  0  0  0  0  0  0  0  0  # atno 10764 bound_to 10752
  154.8723  135.3921  154.4222 H   0  0  0  0  0  0  0  0  0  0  0  0  # atno 10765 bound_to 10752
  140.1728  134.8531  157.2711 H   0  0  0  0  0  0  0  0  0  0  0  0  # atno 11005 bound_to 11000
  144.7658  140.5527  143.6704 LP  0  0  0  0  0  0  0  0  0  0  0  0  # atno 17320 bound_to 7965
  145.5330  139.1475  143.3489 LP  0  0  0  0  0  0  0  0  0  0  0  0  # atno 17321 bound_to 7965
  140.2085  143.3902  152.1736 LP  0  0  0  0  0  0  0  0  0  0  0  0  # atno 17342 bound_to 10162
  139.5317  144.7166  151.5034 LP  0  0  0  0  0  0  0  0  0  0  0  0  # atno 17343 bound_to 10162
  156.8455  130.5062  149.5317 LP  0  0  0  0  0  0  0  0  0  0  0  0  # atno 17370 bound_to 10713
  156.0947  130.5923  150.9792 LP  0  0  0  0  0  0  0  0  0  0  0  0  # atno 17371 bound_to 10713
  140.2357  134.3856  155.7502 LP  0  0  0  0  0  0  0  0  0  0  0  0  # atno 17394 bound_to 11000
  141.2218  133.7238  156.8710 LP  0  0  0  0  0  0  0  0  0  0  0  0  # atno 17395 bound_to 11000

$$$$
