AV-unprocessed.smi:1782|AV-procd|sdf|7189|dock10
  -GOLD-   22720 8433D 1   1.00000     0.00000
 Structure written by MMmdl.
 42 44  0  0  0  0  0  0  0  0  2 V2000
  150.2618  137.9998  157.7359 O   0  0  0  0  0  0  0  0  0  0  0  0
  149.0982  138.4026  157.7104 C   0  0  0  0  0  0  0  0  0  0  0  0
  147.9299  137.4194  157.5509 C   0  0  0  0  0  0  0  0  0  0  0  0
  147.8742  136.4095  158.6220 N   0  0  0  0  0  0  0  0  0  0  0  0
  148.3595  135.1259  158.3146 C   0  0  0  0  0  0  0  0  0  0  0  0
  148.3521  134.1347  159.2159 C   0  0  0  0  0  0  0  0  0  0  0  0
  147.8285  134.4122  160.5312 C   0  0  0  0  0  0  0  0  0  0  0  0
  147.3513  135.6362  160.8555 C   0  0  0  0  0  0  0  0  0  0  0  0
  146.7921  135.9463  162.2422 C   0  0  0  0  0  0  0  0  0  0  0  0
  147.5097  136.9023  162.8336 F   0  0  0  0  0  0  0  0  0  0  0  0
  145.5296  136.3668  162.1548 F   0  0  0  0  0  0  0  0  0  0  0  0
  146.8105  134.8736  163.0348 F   0  0  0  0  0  0  0  0  0  0  0  0
  147.3620  136.7214  159.8531 C   0  0  0  0  0  0  0  0  0  0  0  0
  146.9350  137.8512  160.0986 O   0  0  0  0  0  0  0  0  0  0  0  0
  148.7688  139.6967  157.8339 N   0  0  0  0  0  0  0  0  0  0  0  0
  149.7273  140.7858  157.9826 C   0  0  1  0  0  0  0  0  0  0  0  0
  150.6894  140.9503  156.8095 C   0  0  0  0  0  0  0  0  0  0  0  0
  151.1713  142.3958  156.9740 C   0  0  0  0  0  0  0  0  0  0  0  0
  150.0819  143.1343  157.6606 N   0  3  2  0  0  0  0  0  0  0  0  0
  150.5496  143.9525  158.8008 C   0  0  0  0  0  0  0  0  0  0  0  0
  151.8680  144.6437  158.5472 C   0  0  0  0  0  0  0  0  0  0  0  0
  151.8099  143.4265  159.4448 C   0  0  0  0  0  0  0  0  0  0  0  0
  149.0398  142.1499  158.0270 C   0  0  0  0  0  0  0  0  0  0  0  0
  147.0049  137.9970  157.5168 H   0  0  0  0  0  0  0  0  0  0  0  0
  147.9935  136.9268  156.5786 H   0  0  0  0  0  0  0  0  0  0  0  0
  148.7276  134.9988  157.3069 H   0  0  0  0  0  0  0  0  0  0  0  0
  148.7244  133.1527  158.9634 H   0  0  0  0  0  0  0  0  0  0  0  0
  147.8238  133.6147  161.2592 H   0  0  0  0  0  0  0  0  0  0  0  0
  147.7894  139.9423  157.8093 H   0  0  0  0  0  0  0  0  0  0  0  0
  150.2978  140.6483  158.9035 H   0  0  0  0  0  0  0  0  0  0  0  0
  151.5071  140.2288  156.8228 H   0  0  0  0  0  0  0  0  0  0  0  0
  150.1567  140.8401  155.8634 H   0  0  0  0  0  0  0  0  0  0  0  0
  152.0772  142.4085  157.5829 H   0  0  0  0  0  0  0  0  0  0  0  0
  151.4138  142.8577  156.0167 H   0  0  0  0  0  0  0  0  0  0  0  0
  149.7798  144.4337  159.4022 H   0  0  0  0  0  0  0  0  0  0  0  0
  152.3319  144.5258  157.5695 H   0  0  0  0  0  0  0  0  0  0  0  0
  152.0301  145.6079  159.0252 H   0  0  0  0  0  0  0  0  0  0  0  0
  151.9338  143.5896  160.5135 H   0  0  0  0  0  0  0  0  0  0  0  0
  152.2369  142.5007  159.0633 H   0  0  0  0  0  0  0  0  0  0  0  0
  148.2513  142.2038  157.2747 H   0  0  0  0  0  0  0  0  0  0  0  0
  148.5828  142.3556  158.9963 H   0  0  0  0  0  0  0  0  0  0  0  0
  149.6677  143.7673  156.9912 H   0  0  0  0  0  0  0  0  0  0  0  0
  1  2  2  0  0  0  0
  2  3  1  0  0  0  0
  2 15  1  0  0  0  0
  3  4  1  0  0  0  0
  3 24  1  0  0  0  0
  3 25  1  0  0  0  0
  4 13  1  0  0  0  0
  4  5  1  0  0  0  0
  5  6  2  0  0  0  0
  5 26  1  0  0  0  0
  6  7  1  0  0  0  0
  6 27  1  0  0  0  0
  7  8  2  0  0  0  0
  7 28  1  0  0  0  0
  8  9  1  0  0  0  0
  8 13  1  0  0  0  0
  9 10  1  0  0  0  0
  9 11  1  0  0  0  0
  9 12  1  0  0  0  0
 13 14  2  0  0  0  0
 15 16  1  0  0  0  0
 15 29  1  0  0  0  0
 16 23  1  0  0  0  0
 16 17  1  0  0  0  0
 16 30  1  0  0  0  0
 17 18  1  0  0  0  0
 17 31  1  0  0  0  0
 17 32  1  0  0  0  0
 18 19  1  0  0  0  0
 18 33  1  0  0  0  0
 18 34  1  0  0  0  0
 19 20  1  0  0  0  0
 19 23  1  0  0  0  0
 19 42  1  0  0  0  0
 20 22  1  0  0  0  0
 20 21  1  0  0  0  0
 20 35  1  0  0  0  0
 21 22  1  0  0  0  0
 21 36  1  0  0  0  0
 21 37  1  0  0  0  0
 22 38  1  0  0  0  0
 22 39  1  0  0  0  0
 23 40  1  0  0  0  0
 23 41  1  0  0  0  0
M  CHG  1  19   1
M  END
> <s_m_source_file>
AV-unprocessed.smi

> <i_m_source_file_index>
1782

> <i_lp_mmshare_version>
43012

> <i_f3d_flags>
0

> <s_epik_input>
W0NIMl0xW0NIMl1bQ0hdMU4oW0NIMl0yKVtDSDJdW0NIMl1bQ0BIXTJbTkhdQyg9TylbQ0gyXW4zW2NIXVtjSF1bY0hdYyhDKEYpKEYpRiljMz1P

> <s_epik_cmdline>
J2VwaWtfcHl0aG9uJywgJy1waCcsICc3LjAnLCAnLXRuJywgJzgnLCAnLW1hJywgJzIwMCcsICctbWV0YWxfYmluZGluZycsICctaW1hZScsICc8aW5maWxlLm1hZT4nLCAnLW9tYWUnLCAnPG91dGZpbGUubWFlPic=

> <r_lp_tautomer_probability>
1

> <r_epik_Ionization_Penalty>
0.00106789

> <r_epik_Ionization_Penalty_Charging>
0.00106781

> <r_epik_Ionization_Penalty_Neutral>
8.2288e-08

> <r_epik_State_Penalty>
0.000699156

> <r_epik_Charging_Adjusted_Penalty>
0.00176697

> <i_epik_Tot_Q>
1

> <i_epik_Tot_abs_Q>
1

> <r_epik_Metal_State_Penalty>
-0

> <b_epik_Metal_Only>
0

> <s_lp_Force_Field>
OPLS_2005

> <r_lp_Energy>
46.9995

> <b_lp_Chiralities_Consistent>
1

> <s_lp_Variant>
AV-unprocessed.smi:1782-2

> <Gold.Version>
5.8.1

> <Gold.Id.Protein>
6NUR|6NUR_protein|mol2

> <Gold.PLP.Fitness>
48.0407

> <Gold.PLP.PLP>
-39.5719

> <Gold.PLP.part.hbond>
-1.8033

> <Gold.PLP.part.metal>
0.0000

> <Gold.PLP.part.buried>
-5.2151

> <Gold.PLP.part.nonpolar>
-33.4573

> <Gold.PLP.part.repulsive>
0.1969

> <Gold.PLP.ligand.clash>
0.3005

> <Gold.PLP.ligand.torsion>
0.9047

> <Gold.PLP.Chemscore.Hbond>
2.9913

> <Gold.PLP.Chemscore.CHOScore>
0.0000

> <Gold.PLP.Chemscore.Metal>
0.0000

> <Gold.Chemscore.Hbonds>
donor molecule, donor type, donor heavy atom, donor atom, acceptor molecule, acceptor atom, score
      L1  H    19    42       P1  8028  2.00
      P1  H  6934  6947       L1    14  0.78

> <Gold.PLP.Chemscore.Internal.Correction>
1.6049

> <Gold.Rescore>
     Score         DG    S(hbond)    S(metal)    S(lipo)     H(rot)  DE(clash)    DE(int)     intcor
     13.29     -16.61       1.92        0.00      79.85       1.81       0.01       3.31       ----

> <Gold.Chemscore.Fitness>
13.2851

> <Gold.Chemscore.DG>
-16.6111

> <Gold.Chemscore.ZeroCoef>
-5.4800

> <Gold.Chemscore.Hbond>
1.9229

> <Gold.Chemscore.Metal>
0.0000

> <Gold.Chemscore.Lipo>
79.8503

> <Gold.Chemscore.Internal_Hbond>
0.0000

> <Gold.Chemscore.DEClash>
0.0141

> <Gold.Chemscore.DEInternal>
3.3119

> <Gold.Chemscore.Rot>
1.8101

> <Gold.Chemscore.Internal.Correction>
   9.000000E+99

> <Gold.Chemscore.Hbonds>
donor molecule, donor type, donor heavy atom, donor atom, acceptor molecule, acceptor atom, score
      L1  H    19    42       P1  8028  0.93
      P1  H  6934  6947       L1    14  0.76

> <Gold.Chemscore.Hbond.Weighted>
-6.4224

> <Gold.Chemscore.Metal.Weighted>
-0.0000

> <Gold.Chemscore.Lipo.Weighted>
-9.3425

> <Gold.Chemscore.Internal_Hbond.Weighted>
0.0000

> <Gold.Chemscore.DEClash.Weighted>
0.0141

> <Gold.Chemscore.DEInternal.Weighted>
3.3119

> <Gold.Chemscore.Rot.Weighted>
4.6338

> <Gold.Chemscore.Internal.Correction.Weighted>
   9.000000E+99

> <Gold.Protein.RotatedTorsions>
[ 6907 6896 6895 6894 ] final  162.01 input  -60.11 | X-H torsion
[ 7974 7965 7964 7962 ] final  173.37 input  175.53 | X-H torsion
[ 8008 7997 7996 7995 ] final -101.98 input   59.86 | X-H torsion
[ 10167 10162 10161 10158 ] final  141.33 input  -65.29 | X-H torsion
[ 10718 10713 10712 10709 ] final  122.69 input   66.30 | X-H torsion
[ 10763 10752 10751 10750 ] final  -79.33 input  -60.55 | X-H torsion
[ 11005 11000 10999 10996 ] final  -52.12 input  -57.11 | X-H torsion

> <Gold.Protein.ActiveResidues>
 VAL166  LYS551  ARG553  GLY616  TRP617  ASP618  TYR619  PRO620  LYS621  CYS622 
 ASP623  PHE694  ASN695  SER759  ASP760  ASP761  ALA762  ILE779  LEU786  VAL792 
 PHE793  MET794  SER795  GLU796  ALA797  LYS798  CYS799  TRP800  GLU811  SER814 

> <Gold.Protein.RotatedAtoms>
  151.9469  133.3654  159.3985 H   0  0  0  0  0  0  0  0  0  0  0  0  # atno 6907 bound_to 6896
  150.6988  134.4381  159.5288 H   0  0  0  0  0  0  0  0  0  0  0  0  # atno 6908 bound_to 6896
  152.2047  134.8556  160.0555 H   0  0  0  0  0  0  0  0  0  0  0  0  # atno 6909 bound_to 6896
  144.7245  139.9637  143.6435 H   0  0  0  0  0  0  0  0  0  0  0  0  # atno 7974 bound_to 7965
  154.8502  140.0431  157.1599 H   0  0  0  0  0  0  0  0  0  0  0  0  # atno 8008 bound_to 7997
  154.8951  140.2992  155.5328 H   0  0  0  0  0  0  0  0  0  0  0  0  # atno 8009 bound_to 7997
  156.2996  140.2386  156.3972 H   0  0  0  0  0  0  0  0  0  0  0  0  # atno 8010 bound_to 7997
  139.5023  144.6178  151.6123 H   0  0  0  0  0  0  0  0  0  0  0  0  # atno 10167 bound_to 10162
  157.5723  131.1082  150.8344 H   0  0  0  0  0  0  0  0  0  0  0  0  # atno 10718 bound_to 10713
  154.5372  135.5699  153.6808 H   0  0  0  0  0  0  0  0  0  0  0  0  # atno 10763 bound_to 10752
  152.9954  135.6219  154.2550 H   0  0  0  0  0  0  0  0  0  0  0  0  # atno 10764 bound_to 10752
  154.2479  135.2860  155.2808 H   0  0  0  0  0  0  0  0  0  0  0  0  # atno 10765 bound_to 10752
  141.0907  133.6633  156.3977 H   0  0  0  0  0  0  0  0  0  0  0  0  # atno 11005 bound_to 11000
  146.0617  139.3610  143.0577 LP  0  0  0  0  0  0  0  0  0  0  0  0  # atno 17320 bound_to 7965
  145.8084  140.9738  143.0962 LP  0  0  0  0  0  0  0  0  0  0  0  0  # atno 17321 bound_to 7965
  140.5871  143.9845  150.6302 LP  0  0  0  0  0  0  0  0  0  0  0  0  # atno 17342 bound_to 10162
  140.3013  143.3258  152.0969 LP  0  0  0  0  0  0  0  0  0  0  0  0  # atno 17343 bound_to 10162
  156.8812  130.5180  149.5291 LP  0  0  0  0  0  0  0  0  0  0  0  0  # atno 17370 bound_to 10713
  156.0768  130.5788  150.9489 LP  0  0  0  0  0  0  0  0  0  0  0  0  # atno 17371 bound_to 10713
  140.5258  134.6260  157.5333 LP  0  0  0  0  0  0  0  0  0  0  0  0  # atno 17394 bound_to 11000
  139.9733  134.7257  155.9999 LP  0  0  0  0  0  0  0  0  0  0  0  0  # atno 17395 bound_to 11000

$$$$
