AV-unprocessed.smi:1696|AV-procd|sdf|6799|dock5
  -GOLD-   22720 7563D 1   1.00000     0.00000
 Structure written by MMmdl.
 39 40  0  0  0  0  0  0  0  0  2 V2000
  148.8999  141.3975  154.3782 C   0  0  0  0  0  0  0  0  0  0  0  0
  147.7231  140.4086  154.4162 C   0  0  0  0  0  0  0  0  0  0  0  0
  147.8710  139.1819  153.4749 C   0  0  2  0  0  0  0  0  0  0  0  0
  146.5255  138.4458  153.2384 C   0  0  0  0  0  0  0  0  0  0  0  0
  146.6962  137.2061  152.4839 N   0  0  0  0  0  0  0  0  0  0  0  0
  145.7356  136.3031  152.2373 C   0  0  0  0  0  0  0  0  0  0  0  0
  144.5787  136.4125  152.6435 O   0  0  0  0  0  0  0  0  0  0  0  0
  146.2042  135.2857  151.4936 N   0  0  0  0  0  0  0  0  0  0  0  0
  145.4953  134.1558  151.0074 C   0  0  0  0  0  0  0  0  0  0  0  0
  144.1614  134.0534  150.9865 N   0  0  0  0  0  0  0  0  0  0  0  0
  143.7375  132.8337  150.4528 C   0  0  0  0  0  0  0  0  0  0  0  0
  144.7697  132.0140  150.0693 C   0  0  0  0  0  0  0  0  0  0  0  0
  146.3244  132.7452  150.3656 S   0  0  0  0  0  0  0  0  0  0  0  0
  148.9268  138.2410  153.9546 N   0  3  0  0  0  0  0  0  0  0  0  0
  150.3102  138.7806  153.9563 C   0  0  0  0  0  0  0  0  0  0  0  0
  151.0398  138.1648  155.1591 C   0  0  0  0  0  0  0  0  0  0  0  0
  150.0726  137.1285  155.7206 C   0  0  0  0  0  0  0  0  0  0  0  0
  148.7077  137.6570  155.2960 C   0  0  0  0  0  0  0  0  0  0  0  0
  148.7201  142.2319  155.0563 H   0  0  0  0  0  0  0  0  0  0  0  0
  149.0456  141.8123  153.3810 H   0  0  0  0  0  0  0  0  0  0  0  0
  149.8340  140.9279  154.6837 H   0  0  0  0  0  0  0  0  0  0  0  0
  147.5873  140.0701  155.4435 H   0  0  0  0  0  0  0  0  0  0  0  0
  146.8033  140.9467  154.1873 H   0  0  0  0  0  0  0  0  0  0  0  0
  148.2052  139.5631  152.5084 H   0  0  0  0  0  0  0  0  0  0  0  0
  146.0693  138.1610  154.1859 H   0  0  0  0  0  0  0  0  0  0  0  0
  145.8098  139.1132  152.7562 H   0  0  0  0  0  0  0  0  0  0  0  0
  147.6179  137.0258  152.1132 H   0  0  0  0  0  0  0  0  0  0  0  0
  147.1789  135.3281  151.2351 H   0  0  0  0  0  0  0  0  0  0  0  0
  142.6790  132.6309  150.3825 H   0  0  0  0  0  0  0  0  0  0  0  0
  144.7094  131.0284  149.6322 H   0  0  0  0  0  0  0  0  0  0  0  0
  150.8025  138.5275  153.0167 H   0  0  0  0  0  0  0  0  0  0  0  0
  150.3125  139.8673  154.0519 H   0  0  0  0  0  0  0  0  0  0  0  0
  151.9990  137.7249  154.8852 H   0  0  0  0  0  0  0  0  0  0  0  0
  151.2313  138.9351  155.9070 H   0  0  0  0  0  0  0  0  0  0  0  0
  150.2551  136.1599  155.2530 H   0  0  0  0  0  0  0  0  0  0  0  0
  150.1624  137.0035  156.8001 H   0  0  0  0  0  0  0  0  0  0  0  0
  148.3802  138.4344  155.9883 H   0  0  0  0  0  0  0  0  0  0  0  0
  147.9552  136.8683  155.2864 H   0  0  0  0  0  0  0  0  0  0  0  0
  148.9355  137.4593  153.3149 H   0  0  0  0  0  0  0  0  0  0  0  0
  1  2  1  0  0  0  0
  1 19  1  0  0  0  0
  1 20  1  0  0  0  0
  1 21  1  0  0  0  0
  2  3  1  0  0  0  0
  2 22  1  0  0  0  0
  2 23  1  0  0  0  0
  3  4  1  0  0  0  0
  3 14  1  0  0  0  0
  3 24  1  0  0  0  0
  4  5  1  0  0  0  0
  4 25  1  0  0  0  0
  4 26  1  0  0  0  0
  5  6  1  0  0  0  0
  5 27  1  0  0  0  0
  6  7  2  0  0  0  0
  6  8  1  0  0  0  0
  8  9  1  0  0  0  0
  8 28  1  0  0  0  0
  9 13  1  0  0  0  0
  9 10  2  0  0  0  0
 10 11  1  0  0  0  0
 11 12  2  0  0  0  0
 11 29  1  0  0  0  0
 12 13  1  0  0  0  0
 12 30  1  0  0  0  0
 14 18  1  0  0  0  0
 14 15  1  0  0  0  0
 14 39  1  0  0  0  0
 15 16  1  0  0  0  0
 15 31  1  0  0  0  0
 15 32  1  0  0  0  0
 16 17  1  0  0  0  0
 16 33  1  0  0  0  0
 16 34  1  0  0  0  0
 17 18  1  0  0  0  0
 17 35  1  0  0  0  0
 17 36  1  0  0  0  0
 18 37  1  0  0  0  0
 18 38  1  0  0  0  0
M  CHG  1  14   1
M  END
> <s_m_source_file>
AV-unprocessed.smi

> <i_m_source_file_index>
1696

> <i_lp_mmshare_version>
43012

> <i_f3d_flags>
0

> <s_epik_input>
W0NIMl0xW0NIMl1bQ0gyXVtDSDJdTjFbQ0BIXShbQ0gyXVtDSDNdKVtDSDJdW05IXUMoPU8pW05IXWMybltjSF1bY0hdczI=

> <s_epik_cmdline>
J2VwaWtfcHl0aG9uJywgJy1waCcsICc3LjAnLCAnLXRuJywgJzgnLCAnLW1hJywgJzIwMCcsICctbWV0YWxfYmluZGluZycsICctaW1hZScsICc8aW5maWxlLm1hZT4nLCAnLW9tYWUnLCAnPG91dGZpbGUubWFlPic=

> <r_lp_tautomer_probability>
1

> <r_epik_Ionization_Penalty>
0.0013883

> <r_epik_Ionization_Penalty_Charging>
0.00115997

> <r_epik_Ionization_Penalty_Neutral>
0.000228323

> <r_epik_State_Penalty>
-0

> <r_epik_Charging_Adjusted_Penalty>
0.00115997

> <i_epik_Tot_Q>
1

> <i_epik_Tot_abs_Q>
1

> <r_epik_Metal_State_Penalty>
0.0131845

> <b_epik_Metal_Only>
0

> <s_lp_Force_Field>
OPLS_2005

> <r_lp_Energy>
31.4712

> <b_lp_Chiralities_Consistent>
1

> <s_lp_Variant>
AV-unprocessed.smi:1696-1

> <Gold.Version>
5.8.1

> <Gold.Id.Protein>
6NUR|6NUR_protein|mol2

> <Gold.PLP.Fitness>
43.3666

> <Gold.PLP.PLP>
-29.4228

> <Gold.PLP.part.hbond>
-2.9706

> <Gold.PLP.part.metal>
0.0000

> <Gold.PLP.part.buried>
-2.9428

> <Gold.PLP.part.nonpolar>
-24.1370

> <Gold.PLP.part.repulsive>
0.4794

> <Gold.PLP.ligand.clash>
0.0000

> <Gold.PLP.ligand.torsion>
0.2625

> <Gold.PLP.Chemscore.Hbond>
3.8480

> <Gold.PLP.Chemscore.CHOScore>
0.9394

> <Gold.PLP.Chemscore.Metal>
0.0000

> <Gold.Chemscore.Hbonds>
donor molecule, donor type, donor heavy atom, donor atom, acceptor molecule, acceptor atom, score
      L1  H     5    27       P1  7948  1.00
      L1  H     8    28       P1  7948  0.82
      L1  H    14    39       P1  7948  2.00
      L1  C    11    29       P1 10186  0.73

> <Gold.PLP.Chemscore.Internal.Correction>
0.1065

> <Gold.Rescore>
     Score         DG    S(hbond)    S(metal)    S(lipo)     H(rot)  DE(clash)    DE(int)     intcor
     16.78     -18.50       2.71        0.00      72.76       1.77       0.07       1.65       ----

> <Gold.Chemscore.Fitness>
16.7798

> <Gold.Chemscore.DG>
-18.5002

> <Gold.Chemscore.ZeroCoef>
-5.4800

> <Gold.Chemscore.Hbond>
2.7067

> <Gold.Chemscore.Metal>
0.0000

> <Gold.Chemscore.Lipo>
72.7552

> <Gold.Chemscore.Internal_Hbond>
0.0000

> <Gold.Chemscore.DEClash>
0.0690

> <Gold.Chemscore.DEInternal>
1.6513

> <Gold.Chemscore.Rot>
1.7705

> <Gold.Chemscore.Internal.Correction>
   9.000000E+99

> <Gold.Chemscore.Hbonds>
donor molecule, donor type, donor heavy atom, donor atom, acceptor molecule, acceptor atom, score
      L1  H     5    27       P1  7948  0.95
      L1  H     8    28       P1  7948  0.62
      L1  H    14    39       P1  7948  1.00

> <Gold.Chemscore.Hbond.Weighted>
-9.0402

> <Gold.Chemscore.Metal.Weighted>
-0.0000

> <Gold.Chemscore.Lipo.Weighted>
-8.5124

> <Gold.Chemscore.Internal_Hbond.Weighted>
0.0000

> <Gold.Chemscore.DEClash.Weighted>
0.0690

> <Gold.Chemscore.DEInternal.Weighted>
1.6513

> <Gold.Chemscore.Rot.Weighted>
4.5324

> <Gold.Chemscore.Internal.Correction.Weighted>
   9.000000E+99

> <Gold.Protein.RotatedTorsions>
[ 6907 6896 6895 6894 ] final  -87.33 input  -60.11 | X-H torsion
[ 7974 7965 7964 7962 ] final -123.17 input  175.53 | X-H torsion
[ 8008 7997 7996 7995 ] final -128.85 input   59.86 | X-H torsion
[ 10167 10162 10161 10158 ] final   41.72 input  -65.29 | X-H torsion
[ 10718 10713 10712 10709 ] final   31.19 input   66.30 | X-H torsion
[ 10763 10752 10751 10750 ] final   59.69 input  -60.55 | X-H torsion
[ 11005 11000 10999 10996 ] final   -3.95 input  -57.11 | X-H torsion

> <Gold.Protein.ActiveResidues>
 VAL166  LYS551  ARG553  GLY616  TRP617  ASP618  TYR619  PRO620  LYS621  CYS622 
 ASP623  PHE694  ASN695  SER759  ASP760  ASP761  ALA762  ILE779  LEU786  VAL792 
 PHE793  MET794  SER795  GLU796  ALA797  LYS798  CYS799  TRP800  GLU811  SER814 

> <Gold.Protein.RotatedAtoms>
  150.6866  134.2913  159.4667 H   0  0  0  0  0  0  0  0  0  0  0  0  # atno 6907 bound_to 6896
  152.0818  134.9464  160.0582 H   0  0  0  0  0  0  0  0  0  0  0  0  # atno 6908 bound_to 6896
  152.0814  133.4120  159.4539 H   0  0  0  0  0  0  0  0  0  0  0  0  # atno 6909 bound_to 6896
  145.0216  140.7992  143.4378 H   0  0  0  0  0  0  0  0  0  0  0  0  # atno 7974 bound_to 7965
  155.2694  140.0439  157.3005 H   0  0  0  0  0  0  0  0  0  0  0  0  # atno 8008 bound_to 7997
  154.5662  140.2360  155.8229 H   0  0  0  0  0  0  0  0  0  0  0  0  # atno 8009 bound_to 7997
  156.2087  140.3005  155.9691 H   0  0  0  0  0  0  0  0  0  0  0  0  # atno 8010 bound_to 7997
  140.3615  144.2222  150.6138 H   0  0  0  0  0  0  0  0  0  0  0  0  # atno 10167 bound_to 10162
  157.2693  130.7200  149.6495 H   0  0  0  0  0  0  0  0  0  0  0  0  # atno 10718 bound_to 10713
  152.9901  135.5562  154.5754 H   0  0  0  0  0  0  0  0  0  0  0  0  # atno 10763 bound_to 10752
  154.5146  135.2804  155.1316 H   0  0  0  0  0  0  0  0  0  0  0  0  # atno 10764 bound_to 10752
  154.2694  135.6366  153.5357 H   0  0  0  0  0  0  0  0  0  0  0  0  # atno 10765 bound_to 10752
  140.6749  133.9204  155.8518 H   0  0  0  0  0  0  0  0  0  0  0  0  # atno 11005 bound_to 11000
  145.1888  139.2312  143.5253 LP  0  0  0  0  0  0  0  0  0  0  0  0  # atno 17320 bound_to 7965
  146.3486  140.1680  142.8590 LP  0  0  0  0  0  0  0  0  0  0  0  0  # atno 17321 bound_to 7965
  140.5122  143.2287  151.8517 LP  0  0  0  0  0  0  0  0  0  0  0  0  # atno 17342 bound_to 10162
  139.4813  144.4936  151.9153 LP  0  0  0  0  0  0  0  0  0  0  0  0  # atno 17343 bound_to 10162
  155.9663  130.4373  150.5168 LP  0  0  0  0  0  0  0  0  0  0  0  0  # atno 17370 bound_to 10713
  157.3089  131.0660  151.2015 LP  0  0  0  0  0  0  0  0  0  0  0  0  # atno 17371 bound_to 10713
  141.0363  134.0685  157.3955 LP  0  0  0  0  0  0  0  0  0  0  0  0  # atno 17394 bound_to 11000
  139.8970  135.0148  156.7077 LP  0  0  0  0  0  0  0  0  0  0  0  0  # atno 17395 bound_to 11000

$$$$
