AV-unprocessed.smi:3269|AV-procd|sdf|12510|dock3
  -GOLD-   2272018413D 1   1.00000     0.00000
 Structure written by MMmdl.
 39 40  0  0  0  0  0  0  0  0  1 V2000
  153.8314  136.7770  158.5820 C   0  0  0  0  0  0  0  0  0  0  0  0
  154.1340  136.9668  160.0404 C   0  0  0  0  0  0  0  0  0  0  0  0
  153.9189  135.9712  160.8843 N   0  0  0  0  0  0  0  0  0  0  0  0
  154.2892  136.4543  162.0872 N   0  0  0  0  0  0  0  0  0  0  0  0
  154.1792  135.6071  163.2588 C   0  0  0  0  0  0  0  0  0  0  0  0
  154.7405  137.7572  162.0024 C   0  0  0  0  0  0  0  0  0  0  0  0
  155.2168  138.5157  163.1989 C   0  0  0  0  0  0  0  0  0  0  0  0
  154.6468  138.1289  160.6877 C   0  0  0  0  0  0  0  0  0  0  0  0
  154.9984  139.4524  160.0516 C   0  0  0  0  0  0  0  0  0  0  0  0
  153.7978  140.0730  159.3273 C   0  0  0  0  0  0  0  0  0  0  0  0
  153.3395  139.5667  158.3019 O   0  0  0  0  0  0  0  0  0  0  0  0
  153.2978  141.1870  159.8827 N   0  0  0  0  0  0  0  0  0  0  0  0
  152.1429  141.9326  159.3910 C   0  0  0  0  0  0  0  0  0  0  0  0
  152.4104  143.4471  159.2941 C   0  0  2  0  0  0  0  0  0  0  0  0
  152.1486  144.2538  160.5692 C   0  0  0  0  0  0  0  0  0  0  0  0
  151.9170  145.6371  160.0048 C   0  0  0  0  0  0  0  0  0  0  0  0
  151.1376  145.3245  158.7308 C   0  0  0  0  0  0  0  0  0  0  0  0
  151.6104  144.0568  158.2836 O   0  0  0  0  0  0  0  0  0  0  0  0
  154.6562  137.1328  157.9653 H   0  0  0  0  0  0  0  0  0  0  0  0
  152.9384  137.3320  158.2947 H   0  0  0  0  0  0  0  0  0  0  0  0
  153.6656  135.7277  158.3358 H   0  0  0  0  0  0  0  0  0  0  0  0
  153.5609  136.0995  164.0100 H   0  0  0  0  0  0  0  0  0  0  0  0
  155.1707  135.4271  163.6748 H   0  0  0  0  0  0  0  0  0  0  0  0
  153.7245  134.6492  163.0017 H   0  0  0  0  0  0  0  0  0  0  0  0
  155.7111  139.4425  162.9081 H   0  0  0  0  0  0  0  0  0  0  0  0
  155.9322  137.9276  163.7739 H   0  0  0  0  0  0  0  0  0  0  0  0
  154.3824  138.7693  163.8527 H   0  0  0  0  0  0  0  0  0  0  0  0
  155.3544  140.1571  160.8042 H   0  0  0  0  0  0  0  0  0  0  0  0
  155.8126  139.3435  159.3348 H   0  0  0  0  0  0  0  0  0  0  0  0
  153.7382  141.5347  160.7220 H   0  0  0  0  0  0  0  0  0  0  0  0
  151.8974  141.5465  158.4014 H   0  0  0  0  0  0  0  0  0  0  0  0
  151.2677  141.7441  160.0150 H   0  0  0  0  0  0  0  0  0  0  0  0
  153.4498  143.6005  158.9998 H   0  0  0  0  0  0  0  0  0  0  0  0
  151.2484  143.9148  161.0825 H   0  0  0  0  0  0  0  0  0  0  0  0
  152.9786  144.2131  161.2750 H   0  0  0  0  0  0  0  0  0  0  0  0
  151.3758  146.2948  160.6855 H   0  0  0  0  0  0  0  0  0  0  0  0
  152.8702  146.1064  159.7582 H   0  0  0  0  0  0  0  0  0  0  0  0
  150.0733  145.2375  158.9502 H   0  0  0  0  0  0  0  0  0  0  0  0
  151.2634  146.0907  157.9658 H   0  0  0  0  0  0  0  0  0  0  0  0
  1  2  1  0  0  0  0
  1 19  1  0  0  0  0
  1 20  1  0  0  0  0
  1 21  1  0  0  0  0
  2  8  1  0  0  0  0
  2  3  2  0  0  0  0
  3  4  1  0  0  0  0
  4  5  1  0  0  0  0
  4  6  1  0  0  0  0
  5 22  1  0  0  0  0
  5 23  1  0  0  0  0
  5 24  1  0  0  0  0
  6  7  1  0  0  0  0
  6  8  2  0  0  0  0
  7 25  1  0  0  0  0
  7 26  1  0  0  0  0
  7 27  1  0  0  0  0
  8  9  1  0  0  0  0
  9 10  1  0  0  0  0
  9 28  1  0  0  0  0
  9 29  1  0  0  0  0
 10 11  2  0  0  0  0
 10 12  1  0  0  0  0
 12 13  1  0  0  0  0
 12 30  1  0  0  0  0
 13 14  1  0  0  0  0
 13 31  1  0  0  0  0
 13 32  1  0  0  0  0
 14 18  1  0  0  0  0
 14 15  1  0  0  0  0
 14 33  1  0  0  0  0
 15 16  1  0  0  0  0
 15 34  1  0  0  0  0
 15 35  1  0  0  0  0
 16 17  1  0  0  0  0
 16 36  1  0  0  0  0
 16 37  1  0  0  0  0
 17 18  1  0  0  0  0
 17 38  1  0  0  0  0
 17 39  1  0  0  0  0
M  END
> <s_m_source_file>
AV-unprocessed.smi

> <i_m_source_file_index>
3269

> <i_lp_mmshare_version>
43012

> <i_f3d_flags>
0

> <s_epik_input>
W0NIM11jMW5uKFtDSDNdKWMoW0NIM10pYzFbQ0gyXUMoPU8pW05IXVtDSDJdW0NAQEhdMltDSDJdW0NIMl1bQ0gyXU8y

> <s_epik_cmdline>
J2VwaWtfcHl0aG9uJywgJy1waCcsICc3LjAnLCAnLXRuJywgJzgnLCAnLW1hJywgJzIwMCcsICctbWV0YWxfYmluZGluZycsICctaW1hZScsICc8aW5maWxlLm1hZT4nLCAnLW9tYWUnLCAnPG91dGZpbGUubWFlPic=

> <r_lp_tautomer_probability>
1

> <r_epik_Ionization_Penalty>
0.00306713

> <r_epik_Ionization_Penalty_Charging>
0

> <r_epik_Ionization_Penalty_Neutral>
0.00306713

> <r_epik_State_Penalty>
0.00215672

> <r_epik_Charging_Adjusted_Penalty>
0.00215672

> <i_epik_Tot_Q>
0

> <i_epik_Tot_abs_Q>
0

> <r_epik_Metal_State_Penalty>
-0

> <b_epik_Metal_Only>
0

> <s_lp_Force_Field>
OPLS_2005

> <r_lp_Energy>
13.6043

> <b_lp_Chiralities_Consistent>
1

> <s_lp_Variant>
AV-unprocessed.smi:3269-1

> <Gold.Version>
5.8.1

> <Gold.Id.Protein>
6NUR|6NUR_protein|mol2

> <Gold.PLP.Fitness>
38.7336

> <Gold.PLP.PLP>
-34.5549

> <Gold.PLP.part.hbond>
-1.6681

> <Gold.PLP.part.metal>
0.0000

> <Gold.PLP.part.buried>
-4.6114

> <Gold.PLP.part.nonpolar>
-27.2742

> <Gold.PLP.part.repulsive>
0.1778

> <Gold.PLP.ligand.clash>
0.0000

> <Gold.PLP.ligand.torsion>
0.4628

> <Gold.PLP.Chemscore.Hbond>
1.6988

> <Gold.PLP.Chemscore.CHOScore>
0.0000

> <Gold.PLP.Chemscore.Metal>
0.0000

> <Gold.Chemscore.Hbonds>
donor molecule, donor type, donor heavy atom, donor atom, acceptor molecule, acceptor atom, score
      P1  H  6896  6909       L1     3  0.78
      P1  H  7997  8010       L1    11  1.00

> <Gold.PLP.Chemscore.Internal.Correction>
0.0080

> <Gold.Rescore>
     Score         DG    S(hbond)    S(metal)    S(lipo)     H(rot)  DE(clash)    DE(int)     intcor
     16.97     -18.65       1.80        0.00      93.84       1.50       0.03       1.64       ----

> <Gold.Chemscore.Fitness>
16.9742

> <Gold.Chemscore.DG>
-18.6471

> <Gold.Chemscore.ZeroCoef>
-5.4800

> <Gold.Chemscore.Hbond>
1.8040

> <Gold.Chemscore.Metal>
0.0000

> <Gold.Chemscore.Lipo>
93.8351

> <Gold.Chemscore.Internal_Hbond>
0.0000

> <Gold.Chemscore.DEClash>
0.0294

> <Gold.Chemscore.DEInternal>
1.6435

> <Gold.Chemscore.Rot>
1.4989

> <Gold.Chemscore.Internal.Correction>
   9.000000E+99

> <Gold.Chemscore.Hbonds>
donor molecule, donor type, donor heavy atom, donor atom, acceptor molecule, acceptor atom, score
      P1  H  6896  6909       L1     3  0.46
      P1  H  7997  8010       L1    11  0.35

> <Gold.Chemscore.Hbond.Weighted>
-6.0254

> <Gold.Chemscore.Metal.Weighted>
-0.0000

> <Gold.Chemscore.Lipo.Weighted>
-10.9787

> <Gold.Chemscore.Internal_Hbond.Weighted>
0.0000

> <Gold.Chemscore.DEClash.Weighted>
0.0294

> <Gold.Chemscore.DEInternal.Weighted>
1.6435

> <Gold.Chemscore.Rot.Weighted>
3.8371

> <Gold.Chemscore.Internal.Correction.Weighted>
   9.000000E+99

> <Gold.Protein.RotatedTorsions>
[ 6907 6896 6895 6894 ] final  169.88 input  -60.11 | X-H torsion
[ 7974 7965 7964 7962 ] final -114.77 input  175.53 | X-H torsion
[ 8008 7997 7996 7995 ] final   33.61 input   59.86 | X-H torsion
[ 10167 10162 10161 10158 ] final    6.10 input  -65.29 | X-H torsion
[ 10718 10713 10712 10709 ] final  119.42 input   66.30 | X-H torsion
[ 10763 10752 10751 10750 ] final   -6.68 input  -60.55 | X-H torsion
[ 11005 11000 10999 10996 ] final  -46.31 input  -57.11 | X-H torsion

> <Gold.Protein.ActiveResidues>
 VAL166  LYS551  ARG553  GLY616  TRP617  ASP618  TYR619  PRO620  LYS621  CYS622 
 ASP623  PHE694  ASN695  SER759  ASP760  ASP761  ALA762  ILE779  LEU786  VAL792 
 PHE793  MET794  SER795  GLU796  ALA797  LYS798  CYS799  TRP800  GLU811  SER814 

> <Gold.Protein.RotatedAtoms>
  151.8249  133.3400  159.3595 H   0  0  0  0  0  0  0  0  0  0  0  0  # atno 6907 bound_to 6896
  150.7283  134.5538  159.5817 H   0  0  0  0  0  0  0  0  0  0  0  0  # atno 6908 bound_to 6896
  152.2979  134.7647  160.0415 H   0  0  0  0  0  0  0  0  0  0  0  0  # atno 6909 bound_to 6896
  145.1163  140.8642  143.3840 H   0  0  0  0  0  0  0  0  0  0  0  0  # atno 7974 bound_to 7965
  155.1414  140.3266  155.4451 H   0  0  0  0  0  0  0  0  0  0  0  0  # atno 8008 bound_to 7997
  156.2603  140.1993  156.6479 H   0  0  0  0  0  0  0  0  0  0  0  0  # atno 8009 bound_to 7997
  154.6540  140.0555  156.9974 H   0  0  0  0  0  0  0  0  0  0  0  0  # atno 8010 bound_to 7997
  140.6446  143.7693  150.7479 H   0  0  0  0  0  0  0  0  0  0  0  0  # atno 10167 bound_to 10162
  157.5962  131.1057  150.7894 H   0  0  0  0  0  0  0  0  0  0  0  0  # atno 10718 bound_to 10713
  153.4157  135.7009  153.6328 H   0  0  0  0  0  0  0  0  0  0  0  0  # atno 10763 bound_to 10752
  153.4803  135.3695  155.2439 H   0  0  0  0  0  0  0  0  0  0  0  0  # atno 10764 bound_to 10752
  154.8719  135.4064  154.3517 H   0  0  0  0  0  0  0  0  0  0  0  0  # atno 10765 bound_to 10752
  141.0571  133.6722  156.3137 H   0  0  0  0  0  0  0  0  0  0  0  0  # atno 11005 bound_to 11000
  145.0790  139.2974  143.5793 LP  0  0  0  0  0  0  0  0  0  0  0  0  # atno 17320 bound_to 7965
  146.3523  140.0290  142.8652 LP  0  0  0  0  0  0  0  0  0  0  0  0  # atno 17321 bound_to 7965
  140.1331  143.4508  152.2241 LP  0  0  0  0  0  0  0  0  0  0  0  0  # atno 17342 bound_to 10162
  139.5656  144.7433  151.4032 LP  0  0  0  0  0  0  0  0  0  0  0  0  # atno 17343 bound_to 10162
  156.8304  130.5014  149.5332 LP  0  0  0  0  0  0  0  0  0  0  0  0  # atno 17370 bound_to 10713
  156.1026  130.5980  150.9918 LP  0  0  0  0  0  0  0  0  0  0  0  0  # atno 17371 bound_to 10713
  140.5942  134.5620  157.5505 LP  0  0  0  0  0  0  0  0  0  0  0  0  # atno 17394 bound_to 11000
  139.9400  134.7805  156.0704 LP  0  0  0  0  0  0  0  0  0  0  0  0  # atno 17395 bound_to 11000

$$$$
