AV-unprocessed.smi:3216|AV-procd|sdf|12287|dock2
  -GOLD-   2272018123D 1   1.00000     0.00000
 Structure written by MMmdl.
 37 37  0  0  0  0  0  0  0  0  2 V2000
  151.4518  139.7143  155.2983 C   0  0  0  0  0  0  0  0  0  0  0  0
  150.8774  138.5413  154.4851 C   0  0  0  0  0  0  0  0  0  0  0  0
  149.3940  138.7781  154.1658 C   0  0  0  0  0  0  0  0  0  0  0  0
  151.0732  137.1840  155.1937 C   0  0  0  0  0  0  0  0  0  0  0  0
  150.3161  136.1070  154.5627 N   0  0  0  0  0  0  0  0  0  0  0  0
  150.2018  134.8606  155.0452 C   0  0  0  0  0  0  0  0  0  0  0  0
  150.7327  134.4904  156.0932 O   0  0  0  0  0  0  0  0  0  0  0  0
  149.3485  133.8961  154.2195 C   0  0  0  0  0  0  0  0  0  0  0  0
  148.1528  134.5529  153.6528 N   0  3  0  0  0  0  0  0  0  0  0  0
  147.0926  133.6160  153.2352 C   0  0  0  0  0  0  0  0  0  0  0  0
  147.2053  133.2872  151.7394 C   0  0  0  0  0  0  0  0  0  0  0  0
  145.9366  132.8555  151.1851 N   0  0  0  0  0  0  0  0  0  0  0  0
  145.6768  131.7648  150.3821 C   0  0  0  0  0  0  0  0  0  0  0  0
  144.3390  131.7722  150.1083 C   0  0  0  0  0  0  0  0  0  0  0  0
  143.8597  132.9241  150.7925 C   0  0  0  0  0  0  0  0  0  0  0  0
  144.8191  133.5716  151.4345 N   0  0  0  0  0  0  0  0  0  0  0  0
  150.9680  139.7943  156.2723 H   0  0  0  0  0  0  0  0  0  0  0  0
  151.3050  140.6607  154.7770 H   0  0  0  0  0  0  0  0  0  0  0  0
  152.5230  139.6015  155.4661 H   0  0  0  0  0  0  0  0  0  0  0  0
  151.4089  138.5083  153.5330 H   0  0  0  0  0  0  0  0  0  0  0  0
  148.7927  138.8108  155.0750 H   0  0  0  0  0  0  0  0  0  0  0  0
  148.9968  137.9844  153.5322 H   0  0  0  0  0  0  0  0  0  0  0  0
  149.2505  139.7211  153.6374 H   0  0  0  0  0  0  0  0  0  0  0  0
  152.1281  136.9075  155.1800 H   0  0  0  0  0  0  0  0  0  0  0  0
  150.7936  137.2608  156.2461 H   0  0  0  0  0  0  0  0  0  0  0  0
  149.8440  136.3308  153.6982 H   0  0  0  0  0  0  0  0  0  0  0  0
  149.9587  133.4904  153.4115 H   0  0  0  0  0  0  0  0  0  0  0  0
  149.0378  133.0602  154.8480 H   0  0  0  0  0  0  0  0  0  0  0  0
  147.7755  135.1802  154.3487 H   0  0  0  0  0  0  0  0  0  0  0  0
  147.1676  132.7014  153.8253 H   0  0  0  0  0  0  0  0  0  0  0  0
  146.1203  134.0617  153.4512 H   0  0  0  0  0  0  0  0  0  0  0  0
  147.5484  134.1585  151.1793 H   0  0  0  0  0  0  0  0  0  0  0  0
  147.9403  132.4971  151.5787 H   0  0  0  0  0  0  0  0  0  0  0  0
  146.4551  131.0814  150.0760 H   0  0  0  0  0  0  0  0  0  0  0  0
  143.7867  131.0641  149.5084 H   0  0  0  0  0  0  0  0  0  0  0  0
  142.8507  133.3066  150.8408 H   0  0  0  0  0  0  0  0  0  0  0  0
  148.4395  135.0983  152.8522 H   0  0  0  0  0  0  0  0  0  0  0  0
  1  2  1  0  0  0  0
  1 17  1  0  0  0  0
  1 18  1  0  0  0  0
  1 19  1  0  0  0  0
  2  3  1  0  0  0  0
  2  4  1  0  0  0  0
  2 20  1  0  0  0  0
  3 21  1  0  0  0  0
  3 22  1  0  0  0  0
  3 23  1  0  0  0  0
  4  5  1  0  0  0  0
  4 24  1  0  0  0  0
  4 25  1  0  0  0  0
  5  6  1  0  0  0  0
  5 26  1  0  0  0  0
  6  7  2  0  0  0  0
  6  8  1  0  0  0  0
  8  9  1  0  0  0  0
  8 27  1  0  0  0  0
  8 28  1  0  0  0  0
  9 10  1  0  0  0  0
  9 29  1  0  0  0  0
  9 37  1  0  0  0  0
 10 11  1  0  0  0  0
 10 30  1  0  0  0  0
 10 31  1  0  0  0  0
 11 12  1  0  0  0  0
 11 32  1  0  0  0  0
 11 33  1  0  0  0  0
 12 16  1  0  0  0  0
 12 13  1  0  0  0  0
 13 14  2  0  0  0  0
 13 34  1  0  0  0  0
 14 15  1  0  0  0  0
 14 35  1  0  0  0  0
 15 16  2  0  0  0  0
 15 36  1  0  0  0  0
M  CHG  1   9   1
M  END
> <s_m_source_file>
AV-unprocessed.smi

> <i_m_source_file_index>
3216

> <i_lp_mmshare_version>
43012

> <i_f3d_flags>
0

> <s_epik_input>
W0NIM11bQ0hdKFtDSDNdKVtDSDJdW05IXUMoPU8pW0NIMl1bTkhdW0NIMl1bQ0gyXW4xW2NIXVtjSF1bY0hdbjE=

> <s_epik_cmdline>
J2VwaWtfcHl0aG9uJywgJy1waCcsICc3LjAnLCAnLXRuJywgJzgnLCAnLW1hJywgJzIwMCcsICctbWV0YWxfYmluZGluZycsICctaW1hZScsICc8aW5maWxlLm1hZT4nLCAnLW9tYWUnLCAnPG91dGZpbGUubWFlPic=

> <r_lp_tautomer_probability>
1

> <r_epik_Ionization_Penalty>
0.20724

> <r_epik_Ionization_Penalty_Charging>
0.207237

> <r_epik_Ionization_Penalty_Neutral>
3.19342e-06

> <r_epik_State_Penalty>
0.197611

> <r_epik_Charging_Adjusted_Penalty>
0.404848

> <i_epik_Tot_Q>
1

> <i_epik_Tot_abs_Q>
1

> <r_epik_Metal_State_Penalty>
0.197786

> <b_epik_Metal_Only>
0

> <s_lp_Force_Field>
OPLS_2005

> <r_lp_Energy>
2.0828

> <b_lp_Chiralities_Consistent>
1

> <s_lp_Variant>
AV-unprocessed.smi:3216-1

> <Gold.Version>
5.8.1

> <Gold.Id.Protein>
6NUR|6NUR_protein|mol2

> <Gold.PLP.Fitness>
46.0720

> <Gold.PLP.PLP>
-32.9759

> <Gold.PLP.part.hbond>
-2.5382

> <Gold.PLP.part.metal>
0.0000

> <Gold.PLP.part.buried>
-2.1674

> <Gold.PLP.part.nonpolar>
-28.7438

> <Gold.PLP.part.repulsive>
0.1912

> <Gold.PLP.ligand.clash>
0.0000

> <Gold.PLP.ligand.torsion>
0.9874

> <Gold.PLP.Chemscore.Hbond>
3.0000

> <Gold.PLP.Chemscore.CHOScore>
1.9947

> <Gold.PLP.Chemscore.Metal>
0.0000

> <Gold.Chemscore.Hbonds>
donor molecule, donor type, donor heavy atom, donor atom, acceptor molecule, acceptor atom, score
      L1  H     5    26       P1  7948  1.00
      L1  H     9    37       P1  7948  2.00
      L1  C    13    34       P1 10747  1.00
      L1  C    15    36       P1 10186  1.00

> <Gold.PLP.Chemscore.Internal.Correction>
0.0870

> <Gold.Rescore>
     Score         DG    S(hbond)    S(metal)    S(lipo)     H(rot)  DE(clash)    DE(int)     intcor
     12.67     -13.82       1.77        0.00      71.54       2.32       0.08       1.07       ----

> <Gold.Chemscore.Fitness>
12.6749

> <Gold.Chemscore.DG>
-13.8211

> <Gold.Chemscore.ZeroCoef>
-5.4800

> <Gold.Chemscore.Hbond>
1.7685

> <Gold.Chemscore.Metal>
0.0000

> <Gold.Chemscore.Lipo>
71.5437

> <Gold.Chemscore.Internal_Hbond>
0.0000

> <Gold.Chemscore.DEClash>
0.0754

> <Gold.Chemscore.DEInternal>
1.0708

> <Gold.Chemscore.Rot>
2.3189

> <Gold.Chemscore.Internal.Correction>
   9.000000E+99

> <Gold.Chemscore.Hbonds>
donor molecule, donor type, donor heavy atom, donor atom, acceptor molecule, acceptor atom, score
      L1  H     5    26       P1  7948  0.25
      L1  H     9    37       P1  7948  0.71

> <Gold.Chemscore.Hbond.Weighted>
-5.9068

> <Gold.Chemscore.Metal.Weighted>
-0.0000

> <Gold.Chemscore.Lipo.Weighted>
-8.3706

> <Gold.Chemscore.Internal_Hbond.Weighted>
0.0000

> <Gold.Chemscore.DEClash.Weighted>
0.0754

> <Gold.Chemscore.DEInternal.Weighted>
1.0708

> <Gold.Chemscore.Rot.Weighted>
5.9363

> <Gold.Chemscore.Internal.Correction.Weighted>
   9.000000E+99

> <Gold.Protein.RotatedTorsions>
[ 6907 6896 6895 6894 ] final   19.02 input  -60.11 | X-H torsion
[ 7974 7965 7964 7962 ] final  127.24 input  175.53 | X-H torsion
[ 8008 7997 7996 7995 ] final  -74.23 input   59.86 | X-H torsion
[ 10167 10162 10161 10158 ] final   92.50 input  -65.29 | X-H torsion
[ 10718 10713 10712 10709 ] final  -25.17 input   66.30 | X-H torsion
[ 10763 10752 10751 10750 ] final   33.17 input  -60.55 | X-H torsion
[ 11005 11000 10999 10996 ] final   40.78 input  -57.11 | X-H torsion

> <Gold.Protein.ActiveResidues>
 VAL166  LYS551  ARG553  GLY616  TRP617  ASP618  TYR619  PRO620  LYS621  CYS622 
 ASP623  PHE694  ASN695  SER759  ASP760  ASP761  ALA762  ILE779  LEU786  VAL792 
 PHE793  MET794  SER795  GLU796  ALA797  LYS798  CYS799  TRP800  GLU811  SER814 

> <Gold.Protein.RotatedAtoms>
  151.8743  135.0477  160.0482 H   0  0  0  0  0  0  0  0  0  0  0  0  # atno 6907 bound_to 6896
  152.2563  133.5254  159.5363 H   0  0  0  0  0  0  0  0  0  0  0  0  # atno 6908 bound_to 6896
  150.7101  134.0807  159.3939 H   0  0  0  0  0  0  0  0  0  0  0  0  # atno 6909 bound_to 6896
  145.0528  139.3869  143.5045 H   0  0  0  0  0  0  0  0  0  0  0  0  # atno 7974 bound_to 7965
  154.5313  140.0765  156.8350 H   0  0  0  0  0  0  0  0  0  0  0  0  # atno 8008 bound_to 7997
  155.3369  140.3405  155.4221 H   0  0  0  0  0  0  0  0  0  0  0  0  # atno 8009 bound_to 7997
  156.1784  140.1643  156.8307 H   0  0  0  0  0  0  0  0  0  0  0  0  # atno 8010 bound_to 7997
  139.8270  144.6705  150.9446 H   0  0  0  0  0  0  0  0  0  0  0  0  # atno 10167 bound_to 10162
  156.4679  130.4518  149.6887 H   0  0  0  0  0  0  0  0  0  0  0  0  # atno 10718 bound_to 10713
  153.0225  135.6394  154.1470 H   0  0  0  0  0  0  0  0  0  0  0  0  # atno 10763 bound_to 10752
  154.1202  135.2847  155.3212 H   0  0  0  0  0  0  0  0  0  0  0  0  # atno 10764 bound_to 10752
  154.6269  135.5506  153.7699 H   0  0  0  0  0  0  0  0  0  0  0  0  # atno 10765 bound_to 10752
  140.1898  134.4001  155.8153 H   0  0  0  0  0  0  0  0  0  0  0  0  # atno 11005 bound_to 11000
  146.3519  140.0187  142.8660 LP  0  0  0  0  0  0  0  0  0  0  0  0  # atno 17320 bound_to 7965
  145.1506  140.9621  143.4435 LP  0  0  0  0  0  0  0  0  0  0  0  0  # atno 17321 bound_to 7965
  140.7809  143.4036  151.1107 LP  0  0  0  0  0  0  0  0  0  0  0  0  # atno 17342 bound_to 10162
  139.7693  143.8518  152.3117 LP  0  0  0  0  0  0  0  0  0  0  0  0  # atno 17343 bound_to 10162
  156.3648  130.7500  151.2477 LP  0  0  0  0  0  0  0  0  0  0  0  0  # atno 17370 bound_to 10713
  157.7493  131.0340  150.4296 LP  0  0  0  0  0  0  0  0  0  0  0  0  # atno 17371 bound_to 10713
  141.2226  133.7041  156.8075 LP  0  0  0  0  0  0  0  0  0  0  0  0  # atno 17394 bound_to 11000
  140.2173  134.8783  157.3339 LP  0  0  0  0  0  0  0  0  0  0  0  0  # atno 17395 bound_to 11000

$$$$
