AV-unprocessed.smi:338|AV-procd|sdf|2374|dock7
  -GOLD-   2262022293D 1   1.00000     0.00000
 Structure written by MMmdl.
 41 43  0  0  0  0  0  0  0  0  1 V2000
  152.2916  145.0846  160.8455 C   0  0  0  0  0  0  0  0  0  0  0  0
  151.9569  144.6872  159.4086 C   0  0  0  0  0  0  0  0  0  0  0  0
  151.6846  145.5742  158.5999 O   0  0  0  0  0  0  0  0  0  0  0  0
  151.9798  143.2365  159.0636 C   0  0  0  0  0  0  0  0  0  0  0  0
  152.6580  142.2934  159.8704 C   0  0  0  0  0  0  0  0  0  0  0  0
  152.6630  140.9314  159.5188 C   0  0  0  0  0  0  0  0  0  0  0  0
  151.9920  140.4980  158.3615 C   0  0  0  0  0  0  0  0  0  0  0  0
  151.3071  141.4162  157.5417 C   0  0  0  0  0  0  0  0  0  0  0  0
  150.6752  140.9064  156.4273 O   0  0  0  0  0  0  0  0  0  0  0  0
  150.0169  141.8119  155.5508 C   0  0  0  0  0  0  0  0  0  0  0  0
  149.1841  141.0138  154.5370 C   0  0  2  0  0  0  0  0  0  0  0  0
  150.0692  140.2946  153.7009 O   0  0  0  0  0  0  0  0  0  0  0  0
  148.2739  141.9154  153.6806 C   0  0  0  0  0  0  0  0  0  0  0  0
  147.3181  142.6600  154.4810 N   0  0  0  0  0  0  0  0  0  0  0  0
  147.0025  142.4443  155.7726 C   0  0  0  0  0  0  0  0  0  0  0  0
  146.0958  143.2479  156.3208 N   0  0  0  0  0  0  0  0  0  0  0  0
  145.7873  144.0849  155.2621 C   0  0  0  0  0  0  0  0  0  0  0  0
  144.8851  145.1699  155.1829 C   0  0  0  0  0  0  0  0  0  0  0  0
  144.7336  145.8867  153.9775 C   0  0  0  0  0  0  0  0  0  0  0  0
  145.4785  145.5298  152.8347 C   0  0  0  0  0  0  0  0  0  0  0  0
  146.3839  144.4529  152.8893 C   0  0  0  0  0  0  0  0  0  0  0  0
  146.5343  143.7420  154.0946 C   0  0  0  0  0  0  0  0  0  0  0  0
  151.3075  142.7878  157.9022 C   0  0  0  0  0  0  0  0  0  0  0  0
  153.2991  144.7607  161.1070 H   0  0  0  0  0  0  0  0  0  0  0  0
  151.5848  144.6333  161.5419 H   0  0  0  0  0  0  0  0  0  0  0  0
  152.2415  146.1674  160.9637 H   0  0  0  0  0  0  0  0  0  0  0  0
  153.1827  142.5919  160.7656 H   0  0  0  0  0  0  0  0  0  0  0  0
  153.1833  140.2167  160.1394 H   0  0  0  0  0  0  0  0  0  0  0  0
  152.0020  139.4498  158.1008 H   0  0  0  0  0  0  0  0  0  0  0  0
  149.3725  142.4921  156.1104 H   0  0  0  0  0  0  0  0  0  0  0  0
  150.7620  142.4086  155.0212 H   0  0  0  0  0  0  0  0  0  0  0  0
  148.5751  140.2853  155.0736 H   0  0  0  0  0  0  0  0  0  0  0  0
  149.7104  140.2810  152.8266 H   0  0  0  0  0  0  0  0  0  0  0  0
  148.8734  142.6309  153.1160 H   0  0  0  0  0  0  0  0  0  0  0  0
  147.7283  141.3217  152.9461 H   0  0  0  0  0  0  0  0  0  0  0  0
  147.4641  141.6503  156.3414 H   0  0  0  0  0  0  0  0  0  0  0  0
  144.3087  145.4518  156.0517 H   0  0  0  0  0  0  0  0  0  0  0  0
  144.0412  146.7144  153.9294 H   0  0  0  0  0  0  0  0  0  0  0  0
  145.3542  146.0835  151.9157 H   0  0  0  0  0  0  0  0  0  0  0  0
  146.9548  144.1754  152.0155 H   0  0  0  0  0  0  0  0  0  0  0  0
  150.7928  143.5127  157.2896 H   0  0  0  0  0  0  0  0  0  0  0  0
  1  2  1  0  0  0  0
  1 24  1  0  0  0  0
  1 25  1  0  0  0  0
  1 26  1  0  0  0  0
  2  3  2  0  0  0  0
  2  4  1  0  0  0  0
  4 23  1  0  0  0  0
  4  5  2  0  0  0  0
  5  6  1  0  0  0  0
  5 27  1  0  0  0  0
  6  7  2  0  0  0  0
  6 28  1  0  0  0  0
  7  8  1  0  0  0  0
  7 29  1  0  0  0  0
  8  9  1  0  0  0  0
  8 23  2  0  0  0  0
  9 10  1  0  0  0  0
 10 11  1  0  0  0  0
 10 30  1  0  0  0  0
 10 31  1  0  0  0  0
 11 12  1  0  0  0  0
 11 13  1  0  0  0  0
 11 32  1  0  0  0  0
 12 33  1  0  0  0  0
 13 14  1  0  0  0  0
 13 34  1  0  0  0  0
 13 35  1  0  0  0  0
 14 22  1  0  0  0  0
 14 15  1  0  0  0  0
 15 16  2  0  0  0  0
 15 36  1  0  0  0  0
 16 17  1  0  0  0  0
 17 22  2  0  0  0  0
 17 18  1  0  0  0  0
 18 19  2  0  0  0  0
 18 37  1  0  0  0  0
 19 20  1  0  0  0  0
 19 38  1  0  0  0  0
 20 21  2  0  0  0  0
 20 39  1  0  0  0  0
 21 22  1  0  0  0  0
 21 40  1  0  0  0  0
 23 41  1  0  0  0  0
M  END
> <s_m_source_file>
AV-unprocessed.smi

> <i_m_source_file_index>
338

> <i_lp_mmshare_version>
43012

> <i_f3d_flags>
0

> <s_epik_input>
W0NIM11DKD1PKWMxW2NIXVtjSF1bY0hdYyhbY0hdMSlPW0NIMl1bQ0BIXShbT0hdKVtDSDJdbihbY0hdbjIpYyhjMjMpW2NIXVtjSF1bY0hdW2NIXTM=

> <s_epik_cmdline>
J2VwaWtfcHl0aG9uJywgJy1waCcsICc3LjAnLCAnLXRuJywgJzgnLCAnLW1hJywgJzIwMCcsICctbWV0YWxfYmluZGluZycsICctaW1hZScsICc8aW5maWxlLm1hZT4nLCAnLW9tYWUnLCAnPG91dGZpbGUubWFlPic=

> <r_lp_tautomer_probability>
0.99995

> <r_epik_Ionization_Penalty>
0.0640132

> <r_epik_Ionization_Penalty_Charging>
0

> <r_epik_Ionization_Penalty_Neutral>
0.0640132

> <r_epik_State_Penalty>
0.0557325

> <r_epik_Charging_Adjusted_Penalty>
0.0557325

> <i_epik_Tot_Q>
0

> <i_epik_Tot_abs_Q>
0

> <r_epik_Metal_State_Penalty>
5.8435e-05

> <b_epik_Metal_Only>
0

> <s_lp_Force_Field>
OPLS_2005

> <r_lp_Energy>
20.8584

> <b_lp_Chiralities_Consistent>
1

> <s_lp_Variant>
AV-unprocessed.smi:338-1

> <Gold.Version>
5.8.1

> <Gold.Id.Protein>
6NUR|6NUR_protein|mol2

> <Gold.PLP.Fitness>
57.0022

> <Gold.PLP.PLP>
-52.1441

> <Gold.PLP.part.hbond>
-2.9557

> <Gold.PLP.part.metal>
0.0000

> <Gold.PLP.part.buried>
-5.3941

> <Gold.PLP.part.nonpolar>
-44.4612

> <Gold.PLP.part.repulsive>
0.2744

> <Gold.PLP.ligand.clash>
0.0000

> <Gold.PLP.ligand.torsion>
0.3807

> <Gold.PLP.Chemscore.Hbond>
1.8480

> <Gold.PLP.Chemscore.CHOScore>
0.0000

> <Gold.PLP.Chemscore.Metal>
0.0000

> <Gold.Chemscore.Hbonds>
donor molecule, donor type, donor heavy atom, donor atom, acceptor molecule, acceptor atom, score
      L1  H    12    33       P1  7957  1.00
      P1  H  7989  7998       L1    12  0.69

> <Gold.PLP.Chemscore.Internal.Correction>
0.0756

> <Gold.Rescore>
     Score         DG    S(hbond)    S(metal)    S(lipo)     H(rot)  DE(clash)    DE(int)     intcor
     15.69     -16.90       1.11        0.00     118.31       2.40       0.58       0.63       ----

> <Gold.Chemscore.Fitness>
15.6893

> <Gold.Chemscore.DG>
-16.8976

> <Gold.Chemscore.ZeroCoef>
-5.4800

> <Gold.Chemscore.Hbond>
1.1141

> <Gold.Chemscore.Metal>
0.0000

> <Gold.Chemscore.Lipo>
118.3069

> <Gold.Chemscore.Internal_Hbond>
0.0000

> <Gold.Chemscore.DEClash>
0.5771

> <Gold.Chemscore.DEInternal>
0.6313

> <Gold.Chemscore.Rot>
2.4005

> <Gold.Chemscore.Internal.Correction>
   9.000000E+99

> <Gold.Chemscore.Hbonds>
donor molecule, donor type, donor heavy atom, donor atom, acceptor molecule, acceptor atom, score
      L1  H    12    33       P1  7957  0.99
      P1  H  7989  7998       L1    12  0.27

> <Gold.Chemscore.Hbond.Weighted>
-3.7210

> <Gold.Chemscore.Metal.Weighted>
-0.0000

> <Gold.Chemscore.Lipo.Weighted>
-13.8419

> <Gold.Chemscore.Internal_Hbond.Weighted>
0.0000

> <Gold.Chemscore.DEClash.Weighted>
0.5771

> <Gold.Chemscore.DEInternal.Weighted>
0.6313

> <Gold.Chemscore.Rot.Weighted>
6.1453

> <Gold.Chemscore.Internal.Correction.Weighted>
   9.000000E+99

> <Gold.Protein.RotatedTorsions>
[ 6907 6896 6895 6894 ] final -168.34 input  -60.11 | X-H torsion
[ 7974 7965 7964 7962 ] final    6.05 input  175.53 | X-H torsion
[ 8008 7997 7996 7995 ] final -138.41 input   59.86 | X-H torsion
[ 10167 10162 10161 10158 ] final   91.17 input  -65.29 | X-H torsion
[ 10718 10713 10712 10709 ] final  158.73 input   66.30 | X-H torsion
[ 10763 10752 10751 10750 ] final -125.63 input  -60.55 | X-H torsion
[ 11005 11000 10999 10996 ] final  -56.56 input  -57.11 | X-H torsion

> <Gold.Protein.ActiveResidues>
 VAL166  LYS551  ARG553  GLY616  TRP617  ASP618  TYR619  PRO620  LYS621  CYS622 
 ASP623  PHE694  ASN695  SER759  ASP760  ASP761  ALA762  ILE779  LEU786  VAL792 
 PHE793  MET794  SER795  GLU796  ALA797  LYS798  CYS799  TRP800  GLU811  SER814 

> <Gold.Protein.RotatedAtoms>
  151.4740  133.3562  159.2827 H   0  0  0  0  0  0  0  0  0  0  0  0  # atno 6907 bound_to 6896
  150.8942  134.8350  159.7325 H   0  0  0  0  0  0  0  0  0  0  0  0  # atno 6908 bound_to 6896
  152.4841  134.4653  159.9670 H   0  0  0  0  0  0  0  0  0  0  0  0  # atno 6909 bound_to 6896
  146.2437  140.0291  142.8391 H   0  0  0  0  0  0  0  0  0  0  0  0  # atno 7974 bound_to 7965
  155.4278  140.0523  157.3021 H   0  0  0  0  0  0  0  0  0  0  0  0  # atno 8008 bound_to 7997
  154.4873  140.2106  155.9584 H   0  0  0  0  0  0  0  0  0  0  0  0  # atno 8009 bound_to 7997
  156.1293  140.3174  155.8330 H   0  0  0  0  0  0  0  0  0  0  0  0  # atno 8010 bound_to 7997
  139.8400  144.6645  150.9294 H   0  0  0  0  0  0  0  0  0  0  0  0  # atno 10167 bound_to 10162
  157.1739  131.0616  151.2168 H   0  0  0  0  0  0  0  0  0  0  0  0  # atno 10718 bound_to 10713
  154.8738  135.4023  154.3299 H   0  0  0  0  0  0  0  0  0  0  0  0  # atno 10763 bound_to 10752
  153.4114  135.7021  153.6362 H   0  0  0  0  0  0  0  0  0  0  0  0  # atno 10764 bound_to 10752
  153.5063  135.3717  155.2535 H   0  0  0  0  0  0  0  0  0  0  0  0  # atno 10765 bound_to 10752
  141.1125  133.6610  156.4637 H   0  0  0  0  0  0  0  0  0  0  0  0  # atno 11005 bound_to 11000
  145.1171  140.9440  143.4622 LP  0  0  0  0  0  0  0  0  0  0  0  0  # atno 17320 bound_to 7965
  145.0518  139.3175  143.5925 LP  0  0  0  0  0  0  0  0  0  0  0  0  # atno 17321 bound_to 7965
  140.7799  143.3921  151.1292 LP  0  0  0  0  0  0  0  0  0  0  0  0  # atno 17342 bound_to 10162
  139.7568  143.8695  152.3090 LP  0  0  0  0  0  0  0  0  0  0  0  0  # atno 17343 bound_to 10162
  157.4017  130.7337  149.6772 LP  0  0  0  0  0  0  0  0  0  0  0  0  # atno 17370 bound_to 10713
  155.9734  130.4119  150.4005 LP  0  0  0  0  0  0  0  0  0  0  0  0  # atno 17371 bound_to 10713
  140.4736  134.6731  157.5140 LP  0  0  0  0  0  0  0  0  0  0  0  0  # atno 17394 bound_to 11000
  140.0027  134.6811  155.9504 LP  0  0  0  0  0  0  0  0  0  0  0  0  # atno 17395 bound_to 11000

$$$$
