AV-unprocessed.smi:148|AV-procd|sdf|1228|dock2
  -GOLD-   2262018423D 1   1.00000     0.00000
 Structure written by MMmdl.
 63 67  0  0  0  0  0  0  0  0  1 V2000
  147.9171  133.7035  152.9340 O   0  0  0  0  0  0  0  0  0  0  0  0
  147.0272  132.9252  152.1606 C   0  0  0  0  0  0  0  0  0  0  0  0
  145.8163  133.7612  151.6782 C   0  0  2  0  0  0  0  0  0  0  0  0
  145.0074  134.3730  152.8492 C   0  0  0  0  0  0  0  0  0  0  0  0
  145.4197  135.7263  153.1785 N   0  0  0  0  0  0  0  0  0  0  0  0
  145.2997  136.8372  152.3749 C   0  0  0  0  0  0  0  0  0  0  0  0
  145.7550  137.9471  152.8886 N   0  0  0  0  0  0  0  0  0  0  0  0
  146.2172  137.5729  154.1449 C   0  0  0  0  0  0  0  0  0  0  0  0
  146.8281  138.2663  155.2281 C   0  0  0  0  0  0  0  0  0  0  0  0
  147.1200  139.5850  155.2305 N   0  0  0  0  0  0  0  0  0  0  0  0
  145.8671  140.3394  155.3197 C   0  0  0  0  0  0  0  0  0  0  0  0
  146.0877  141.8336  155.0693 C   0  0  0  0  0  0  0  0  0  0  0  0
  147.1381  142.3700  156.0415 C   0  0  0  0  0  0  0  0  0  0  0  0
  148.4322  141.5589  155.9047 C   0  0  0  0  0  0  0  0  0  0  0  0
  148.2159  140.0345  156.1163 C   0  0  2  0  0  0  0  0  0  0  0  0
  149.5673  139.2682  155.8967 C   0  0  2  0  0  0  0  0  0  0  0  0
  150.8559  139.9305  156.4316 C   0  0  0  0  0  0  0  0  0  0  0  0
  152.0277  139.3442  155.6313 C   0  0  0  0  0  0  0  0  0  0  0  0
  151.4047  138.5401  154.4868 C   0  0  0  0  0  0  0  0  0  0  0  0
  149.9428  138.9856  154.4261 C   0  0  2  0  0  0  0  0  0  0  0  0
  149.8620  140.1612  153.6391 O   0  0  0  0  0  0  0  0  0  0  0  0
  147.1718  137.5540  156.3293 N   0  0  0  0  0  0  0  0  0  0  0  0
  146.9130  136.2440  156.3827 C   0  0  0  0  0  0  0  0  0  0  0  0
  146.3393  135.4673  155.4608 N   0  0  0  0  0  0  0  0  0  0  0  0
  146.0086  136.1800  154.3457 C   0  0  0  0  0  0  0  0  0  0  0  0
  144.9063  132.9677  150.7063 C   0  0  1  0  0  0  0  0  0  0  0  0
  143.8976  133.8104  149.9455 C   0  0  0  0  0  0  0  0  0  0  0  0
  143.5164  132.8897  148.7923 C   0  0  0  0  0  0  0  0  0  0  0  0
  144.6951  132.1532  148.4883 O   0  0  0  0  0  0  0  0  0  0  0  0
  145.6428  132.2941  149.5423 C   0  0  0  0  0  0  0  0  0  0  0  0
  148.7618  133.2799  152.9387 H   0  0  0  0  0  0  0  0  0  0  0  0
  147.5736  132.5011  151.3183 H   0  0  0  0  0  0  0  0  0  0  0  0
  146.6992  132.0760  152.7594 H   0  0  0  0  0  0  0  0  0  0  0  0
  146.2313  134.5984  151.1147 H   0  0  0  0  0  0  0  0  0  0  0  0
  143.9452  134.4052  152.6073 H   0  0  0  0  0  0  0  0  0  0  0  0
  145.1000  133.7514  153.7405 H   0  0  0  0  0  0  0  0  0  0  0  0
  144.8669  136.7956  151.3858 H   0  0  0  0  0  0  0  0  0  0  0  0
  145.1471  139.9570  154.5940 H   0  0  0  0  0  0  0  0  0  0  0  0
  145.4255  140.1994  156.3074 H   0  0  0  0  0  0  0  0  0  0  0  0
  146.4139  141.9938  154.0408 H   0  0  0  0  0  0  0  0  0  0  0  0
  145.1500  142.3765  155.1900 H   0  0  0  0  0  0  0  0  0  0  0  0
  147.3311  143.4247  155.8427 H   0  0  0  0  0  0  0  0  0  0  0  0
  146.7669  142.3053  157.0651 H   0  0  0  0  0  0  0  0  0  0  0  0
  148.8592  141.7319  154.9156 H   0  0  0  0  0  0  0  0  0  0  0  0
  149.1486  141.9573  156.6216 H   0  0  0  0  0  0  0  0  0  0  0  0
  147.8951  139.8859  157.1478 H   0  0  0  0  0  0  0  0  0  0  0  0
  149.4759  138.2969  156.3866 H   0  0  0  0  0  0  0  0  0  0  0  0
  150.8171  141.0083  156.2694 H   0  0  0  0  0  0  0  0  0  0  0  0
  151.0058  139.7617  157.4969 H   0  0  0  0  0  0  0  0  0  0  0  0
  152.6584  140.1460  155.2457 H   0  0  0  0  0  0  0  0  0  0  0  0
  152.6558  138.7053  156.2528 H   0  0  0  0  0  0  0  0  0  0  0  0
  151.9333  138.6706  153.5415 H   0  0  0  0  0  0  0  0  0  0  0  0
  151.4446  137.4784  154.7349 H   0  0  0  0  0  0  0  0  0  0  0  0
  149.3186  138.2118  153.9784 H   0  0  0  0  0  0  0  0  0  0  0  0
  149.5241  139.9295  152.7877 H   0  0  0  0  0  0  0  0  0  0  0  0
  147.2084  135.7468  157.2948 H   0  0  0  0  0  0  0  0  0  0  0  0
  144.3607  132.2015  151.2599 H   0  0  0  0  0  0  0  0  0  0  0  0
  143.0356  134.1006  150.5468 H   0  0  0  0  0  0  0  0  0  0  0  0
  144.3686  134.7162  149.5608 H   0  0  0  0  0  0  0  0  0  0  0  0
  142.7402  132.1902  149.1046 H   0  0  0  0  0  0  0  0  0  0  0  0
  143.1508  133.4366  147.9230 H   0  0  0  0  0  0  0  0  0  0  0  0
  146.4577  132.9236  149.1824 H   0  0  0  0  0  0  0  0  0  0  0  0
  146.0626  131.3274  149.8214 H   0  0  0  0  0  0  0  0  0  0  0  0
  1  2  1  0  0  0  0
  1 31  1  0  0  0  0
  2  3  1  0  0  0  0
  2 32  1  0  0  0  0
  2 33  1  0  0  0  0
  3  4  1  0  0  0  0
  3 26  1  0  0  0  0
  3 34  1  0  0  0  0
  4  5  1  0  0  0  0
  4 35  1  0  0  0  0
  4 36  1  0  0  0  0
  5 25  1  0  0  0  0
  5  6  1  0  0  0  0
  6  7  2  0  0  0  0
  6 37  1  0  0  0  0
  7  8  1  0  0  0  0
  8 25  2  0  0  0  0
  8  9  1  0  0  0  0
  9 10  1  0  0  0  0
  9 22  2  0  0  0  0
 10 15  1  0  0  0  0
 10 11  1  0  0  0  0
 11 12  1  0  0  0  0
 11 38  1  0  0  0  0
 11 39  1  0  0  0  0
 12 13  1  0  0  0  0
 12 40  1  0  0  0  0
 12 41  1  0  0  0  0
 13 14  1  0  0  0  0
 13 42  1  0  0  0  0
 13 43  1  0  0  0  0
 14 15  1  0  0  0  0
 14 44  1  0  0  0  0
 14 45  1  0  0  0  0
 15 16  1  0  0  0  0
 15 46  1  0  0  0  0
 16 20  1  0  0  0  0
 16 17  1  0  0  0  0
 16 47  1  0  0  0  0
 17 18  1  0  0  0  0
 17 48  1  0  0  0  0
 17 49  1  0  0  0  0
 18 19  1  0  0  0  0
 18 50  1  0  0  0  0
 18 51  1  0  0  0  0
 19 20  1  0  0  0  0
 19 52  1  0  0  0  0
 19 53  1  0  0  0  0
 20 21  1  0  0  0  0
 20 54  1  0  0  0  0
 21 55  1  0  0  0  0
 22 23  1  0  0  0  0
 23 24  2  0  0  0  0
 23 56  1  0  0  0  0
 24 25  1  0  0  0  0
 26 30  1  0  0  0  0
 26 27  1  0  0  0  0
 26 57  1  0  0  0  0
 27 28  1  0  0  0  0
 27 58  1  0  0  0  0
 27 59  1  0  0  0  0
 28 29  1  0  0  0  0
 28 60  1  0  0  0  0
 28 61  1  0  0  0  0
 29 30  1  0  0  0  0
 30 62  1  0  0  0  0
 30 63  1  0  0  0  0
M  END
> <s_m_source_file>
AV-unprocessed.smi

> <i_m_source_file_index>
148

> <i_lp_mmshare_version>
43012

> <i_f3d_flags>
0

> <s_epik_input>
W0NIMl0xT1tDSDJdW0NIMl1bQ0BIXTFbQ0BIXShbQ0gyXVtPSF0pW0NIMl1uKFtjSF1uMiljKGMyMyluW2NIXW5jM040W0NIMl1bQ0gyXVtDSDJdW0NIMl1bQ0BIXTRbQ0BASF01W0NIMl1bQ0gyXVtDSDJdW0NASF01W09IXQ==

> <s_epik_cmdline>
J2VwaWtfcHl0aG9uJywgJy1waCcsICc3LjAnLCAnLXRuJywgJzgnLCAnLW1hJywgJzIwMCcsICctbWV0YWxfYmluZGluZycsICctaW1hZScsICc8aW5maWxlLm1hZT4nLCAnLW9tYWUnLCAnPG91dGZpbGUubWFlPic=

> <r_lp_tautomer_probability>
1

> <r_epik_Ionization_Penalty>
0.00556303

> <r_epik_Ionization_Penalty_Charging>
0

> <r_epik_Ionization_Penalty_Neutral>
0.00556303

> <r_epik_State_Penalty>
0.00401767

> <r_epik_Charging_Adjusted_Penalty>
0.00401767

> <i_epik_Tot_Q>
0

> <i_epik_Tot_abs_Q>
0

> <r_epik_Metal_State_Penalty>
-0

> <b_epik_Metal_Only>
0

> <s_lp_Force_Field>
OPLS_2005

> <r_lp_Energy>
70.1865

> <b_lp_Chiralities_Consistent>
1

> <s_lp_Variant>
AV-unprocessed.smi:148-27

> <Gold.Version>
5.8.1

> <Gold.Id.Protein>
6NUR|6NUR_protein|mol2

> <Gold.PLP.Fitness>
44.7513

> <Gold.PLP.PLP>
-40.2543

> <Gold.PLP.part.hbond>
-4.5847

> <Gold.PLP.part.metal>
0.0000

> <Gold.PLP.part.buried>
-1.4152

> <Gold.PLP.part.nonpolar>
-33.1034

> <Gold.PLP.part.repulsive>
0.5613

> <Gold.PLP.ligand.clash>
0.0000

> <Gold.PLP.ligand.torsion>
1.4516

> <Gold.PLP.Chemscore.Hbond>
1.6720

> <Gold.PLP.Chemscore.CHOScore>
0.5925

> <Gold.PLP.Chemscore.Metal>
0.0000

> <Gold.Chemscore.Hbonds>
donor molecule, donor type, donor heavy atom, donor atom, acceptor molecule, acceptor atom, score
      L1  H    21    55       P1  7957  0.99
      P1  H  7989  7998       L1    21  0.67
      L1  C     6    37       P1 10171  0.87

> <Gold.PLP.Chemscore.Internal.Correction>
0.6066

> <Gold.Rescore>
     Score         DG    S(hbond)    S(metal)    S(lipo)     H(rot)  DE(clash)    DE(int)     intcor
      9.74     -13.44       1.14        0.00     107.99       3.32       0.19       3.51       ----

> <Gold.Chemscore.Fitness>
9.7377

> <Gold.Chemscore.DG>
-13.4358

> <Gold.Chemscore.ZeroCoef>
-5.4800

> <Gold.Chemscore.Hbond>
1.1440

> <Gold.Chemscore.Metal>
0.0000

> <Gold.Chemscore.Lipo>
107.9916

> <Gold.Chemscore.Internal_Hbond>
0.0000

> <Gold.Chemscore.DEClash>
0.1859

> <Gold.Chemscore.DEInternal>
3.5122

> <Gold.Chemscore.Rot>
3.3203

> <Gold.Chemscore.Internal.Correction>
   9.000000E+99

> <Gold.Chemscore.Hbonds>
donor molecule, donor type, donor heavy atom, donor atom, acceptor molecule, acceptor atom, score
      L1  H    21    55       P1  7957  0.93
      P1  H  7989  7998       L1    21  0.30

> <Gold.Chemscore.Hbond.Weighted>
-3.8208

> <Gold.Chemscore.Metal.Weighted>
-0.0000

> <Gold.Chemscore.Lipo.Weighted>
-12.6350

> <Gold.Chemscore.Internal_Hbond.Weighted>
0.0000

> <Gold.Chemscore.DEClash.Weighted>
0.1859

> <Gold.Chemscore.DEInternal.Weighted>
3.5122

> <Gold.Chemscore.Rot.Weighted>
8.5000

> <Gold.Chemscore.Internal.Correction.Weighted>
   9.000000E+99

> <Gold.Protein.RotatedTorsions>
[ 6907 6896 6895 6894 ] final   73.03 input  -60.11 | X-H torsion
[ 7974 7965 7964 7962 ] final -162.23 input  175.53 | X-H torsion
[ 8008 7997 7996 7995 ] final -178.82 input   59.86 | X-H torsion
[ 10167 10162 10161 10158 ] final  110.32 input  -65.29 | X-H torsion
[ 10718 10713 10712 10709 ] final -170.91 input   66.30 | X-H torsion
[ 10763 10752 10751 10750 ] final  130.96 input  -60.55 | X-H torsion
[ 11005 11000 10999 10996 ] final   89.81 input  -57.11 | X-H torsion

> <Gold.Protein.ActiveResidues>
 VAL166  LYS551  ARG553  GLY616  TRP617  ASP618  TYR619  PRO620  LYS621  CYS622 
 ASP623  PHE694  ASN695  SER759  ASP760  ASP761  ALA762  ILE779  LEU786  VAL792 
 PHE793  MET794  SER795  GLU796  ALA797  LYS798  CYS799  TRP800  GLU811  SER814 

> <Gold.Protein.RotatedAtoms>
  152.4901  134.4483  159.9565 H   0  0  0  0  0  0  0  0  0  0  0  0  # atno 6907 bound_to 6896
  151.4472  133.3621  159.2798 H   0  0  0  0  0  0  0  0  0  0  0  0  # atno 6908 bound_to 6896
  150.9047  134.8485  159.7444 H   0  0  0  0  0  0  0  0  0  0  0  0  # atno 6909 bound_to 6896
  144.7364  140.3283  143.6158 H   0  0  0  0  0  0  0  0  0  0  0  0  # atno 7974 bound_to 7965
  156.0233  140.1266  157.0334 H   0  0  0  0  0  0  0  0  0  0  0  0  # atno 8008 bound_to 7997
  154.4320  140.1064  156.6065 H   0  0  0  0  0  0  0  0  0  0  0  0  # atno 8009 bound_to 7997
  155.5913  140.3469  155.4569 H   0  0  0  0  0  0  0  0  0  0  0  0  # atno 8010 bound_to 7997
  139.6698  144.7126  151.1710 H   0  0  0  0  0  0  0  0  0  0  0  0  # atno 10167 bound_to 10162
  156.7331  130.9314  151.3105 H   0  0  0  0  0  0  0  0  0  0  0  0  # atno 10718 bound_to 10713
  153.7665  135.3188  155.3345 H   0  0  0  0  0  0  0  0  0  0  0  0  # atno 10763 bound_to 10752
  154.8211  135.4602  154.0786 H   0  0  0  0  0  0  0  0  0  0  0  0  # atno 10764 bound_to 10752
  153.2033  135.6925  153.8288 H   0  0  0  0  0  0  0  0  0  0  0  0  # atno 10765 bound_to 10752
  139.8868  134.8574  156.3194 H   0  0  0  0  0  0  0  0  0  0  0  0  # atno 11005 bound_to 11000
  145.7498  139.1790  143.2328 LP  0  0  0  0  0  0  0  0  0  0  0  0  # atno 17320 bound_to 7965
  146.1070  140.7475  142.9521 LP  0  0  0  0  0  0  0  0  0  0  0  0  # atno 17321 bound_to 7965
  140.7613  143.5863  150.8843 LP  0  0  0  0  0  0  0  0  0  0  0  0  # atno 17342 bound_to 10162
  139.9527  143.6254  152.3024 LP  0  0  0  0  0  0  0  0  0  0  0  0  # atno 17343 bound_to 10162
  157.6850  130.9177  150.0364 LP  0  0  0  0  0  0  0  0  0  0  0  0  # atno 17370 bound_to 10713
  156.1515  130.3642  149.9431 LP  0  0  0  0  0  0  0  0  0  0  0  0  # atno 17371 bound_to 10713
  140.9797  133.7275  156.0653 LP  0  0  0  0  0  0  0  0  0  0  0  0  # atno 17394 bound_to 11000
  140.7766  134.3773  157.5496 LP  0  0  0  0  0  0  0  0  0  0  0  0  # atno 17395 bound_to 11000

$$$$
