AV-unprocessed.smi:38|AV-procd|sdf|345|dock4
  -GOLD-   2262016183D 1   1.00000     0.00000
 Structure written by MMmdl.
 27 28  0  0  0  0  0  0  0  0  2 V2000
  153.2536  143.6048  159.9436 O   0  0  0  0  0  0  0  0  0  0  0  0
  152.5828  142.8348  159.2577 C   0  0  0  0  0  0  0  0  0  0  0  0
  152.5383  141.4899  159.4863 N   0  5  0  0  0  0  0  0  0  0  0  0
  151.7958  140.6360  158.7220 C   0  0  0  0  0  0  0  0  0  0  0  0
  151.7304  139.4254  158.9364 O   0  0  0  0  0  0  0  0  0  0  0  0
  151.0533  141.1627  157.6307 N   0  0  0  0  0  0  0  0  0  0  0  0
  150.2166  140.2356  156.7827 C   0  0  1  0  0  0  0  0  0  0  0  0
  149.4076  141.0138  155.7507 C   0  0  0  0  0  0  0  0  0  0  0  0
  149.3346  140.0311  154.5861 C   0  0  1  0  0  0  0  0  0  0  0  0
  149.6787  140.6848  153.3783 O   0  0  0  0  0  0  0  0  0  0  0  0
  150.2889  138.8763  154.9746 C   0  0  1  0  0  0  0  0  0  0  0  0
  151.2251  138.3635  153.8643 C   0  0  0  0  0  0  0  0  0  0  0  0
  151.3932  136.9662  153.9760 O   0  0  0  0  0  0  0  0  0  0  0  0
  151.0527  139.4013  156.0526 O   0  0  0  0  0  0  0  0  0  0  0  0
  151.0628  142.5255  157.3867 C   0  0  0  0  0  0  0  0  0  0  0  0
  151.7913  143.3661  158.1493 C   0  0  0  0  0  0  0  0  0  0  0  0
  151.7802  144.6852  157.8901 F   0  0  0  0  0  0  0  0  0  0  0  0
  149.6092  139.6272  157.4556 H   0  0  0  0  0  0  0  0  0  0  0  0
  148.3204  139.6443  154.4806 H   0  0  0  0  0  0  0  0  0  0  0  0
  149.6817  138.0537  155.3582 H   0  0  0  0  0  0  0  0  0  0  0  0
  148.4336  141.2932  156.1537 H   0  0  0  0  0  0  0  0  0  0  0  0
  149.9504  141.9201  155.4746 H   0  0  0  0  0  0  0  0  0  0  0  0
  149.5883  140.0694  152.6670 H   0  0  0  0  0  0  0  0  0  0  0  0
  150.7904  138.5512  152.8824 H   0  0  0  0  0  0  0  0  0  0  0  0
  152.1919  138.8669  153.8972 H   0  0  0  0  0  0  0  0  0  0  0  0
  150.9814  136.5539  153.2322 H   0  0  0  0  0  0  0  0  0  0  0  0
  150.4743  142.9322  156.5776 H   0  0  0  0  0  0  0  0  0  0  0  0
  1  2  2  0  0  0  0
  2 16  1  0  0  0  0
  2  3  1  0  0  0  0
  3  4  1  0  0  0  0
  4  5  2  0  0  0  0
  4  6  1  0  0  0  0
  6  7  1  0  0  0  0
  6 15  1  0  0  0  0
  7 18  1  0  0  0  0
  7 14  1  0  0  0  0
  7  8  1  0  0  0  0
  8  9  1  0  0  0  0
  8 21  1  0  0  0  0
  8 22  1  0  0  0  0
  9 19  1  0  0  0  0
  9 10  1  0  0  0  0
  9 11  1  0  0  0  0
 10 23  1  0  0  0  0
 11 20  1  0  0  0  0
 11 12  1  0  0  0  0
 11 14  1  0  0  0  0
 12 13  1  0  0  0  0
 12 24  1  0  0  0  0
 12 25  1  0  0  0  0
 13 26  1  0  0  0  0
 15 16  2  0  0  0  0
 15 27  1  0  0  0  0
 16 17  1  0  0  0  0
M  CHG  1   3  -1
M  END
> <s_m_source_file>
AV-unprocessed.smi

> <i_m_source_file_index>
38

> <i_lp_mmshare_version>
43012

> <i_f3d_flags>
0

> <s_epik_input>
Tz1jMVtuSF1jKD1PKW4oW2NIXWMxRilbQ0BIXTJbQ0gyXVtDQEhdKFtPSF0pW0NASF0oTzIpW0NIMl1bT0hd

> <s_epik_cmdline>
J2VwaWtfcHl0aG9uJywgJy1waCcsICc3LjAnLCAnLXRuJywgJzgnLCAnLW1hJywgJzIwMCcsICctbWV0YWxfYmluZGluZycsICctaW1hZScsICc8aW5maWxlLm1hZT4nLCAnLW9tYWUnLCAnPG91dGZpbGUubWFlPic=

> <r_epik_Ionization_Penalty>
1.68146

> <r_epik_Ionization_Penalty_Charging>
3.4211e-08

> <r_epik_Ionization_Penalty_Neutral>
1.68146

> <r_epik_State_Penalty>
1.78593

> <r_epik_Charging_Adjusted_Penalty>
1.78593

> <i_epik_Tot_Q>
-1

> <i_epik_Tot_abs_Q>
1

> <r_epik_Metal_State_Penalty>
0.0113696

> <b_epik_Metal_Only>
0

> <s_epik_Chemistry_Notes>
This compound contains an acetal/aminal-like group ( X-CH(R)-Y where X, Y are N, S, or O) that may be acid/base labile, releasing an aldehyde.

> <s_lp_Force_Field>
OPLS_2005

> <r_lp_Energy>
42.0277

> <b_lp_Chiralities_Consistent>
1

> <s_lp_Variant>
AV-unprocessed.smi:38-11

> <Gold.Version>
5.8.1

> <Gold.Id.Protein>
6NUR|6NUR_protein|mol2

> <Gold.PLP.Fitness>
46.2072

> <Gold.PLP.PLP>
-32.1730

> <Gold.PLP.part.hbond>
-4.4123

> <Gold.PLP.part.metal>
0.0000

> <Gold.PLP.part.buried>
-5.8783

> <Gold.PLP.part.nonpolar>
-22.0236

> <Gold.PLP.part.repulsive>
0.0000

> <Gold.PLP.ligand.clash>
0.0000

> <Gold.PLP.ligand.torsion>
0.5827

> <Gold.PLP.Chemscore.Hbond>
4.0593

> <Gold.PLP.Chemscore.CHOScore>
1.0000

> <Gold.PLP.Chemscore.Metal>
0.0000

> <Gold.Chemscore.Hbonds>
donor molecule, donor type, donor heavy atom, donor atom, acceptor molecule, acceptor atom, score
      L1  H    10    23       P1  7957  0.75
      L1  H    13    26       P1  7949  0.90
      P1  H  7989  7998       L1    10  0.34
      P1  H  8011  8017       L1    10  1.00
      P1  H 10752 10765       L1    13  0.91
      L1  C    15    27       P1  8028  0.93

> <Gold.PLP.Chemscore.Internal.Correction>
0.0216

> <Gold.Rescore>
     Score         DG    S(hbond)    S(metal)    S(lipo)     H(rot)  DE(clash)    DE(int)     intcor
      8.03     -10.51       1.97        0.00      49.79       2.88       1.69       0.79       ----

> <Gold.Chemscore.Fitness>
8.0283

> <Gold.Chemscore.DG>
-10.5126

> <Gold.Chemscore.ZeroCoef>
-5.4800

> <Gold.Chemscore.Hbond>
1.9713

> <Gold.Chemscore.Metal>
0.0000

> <Gold.Chemscore.Lipo>
49.7850

> <Gold.Chemscore.Internal_Hbond>
0.0000

> <Gold.Chemscore.DEClash>
1.6918

> <Gold.Chemscore.DEInternal>
0.7925

> <Gold.Chemscore.Rot>
2.8815

> <Gold.Chemscore.Internal.Correction>
   9.000000E+99

> <Gold.Chemscore.Hbonds>
donor molecule, donor type, donor heavy atom, donor atom, acceptor molecule, acceptor atom, score
      L1  H    10    23       P1  7957  0.72
      L1  H    13    26       P1  7949  0.20
      P1  H  7989  7998       L1    10  0.05
      P1  H  8011  8017       L1    10  0.24
      P1  H 10752 10765       L1    13  0.26

> <Gold.Chemscore.Hbond.Weighted>
-6.5843

> <Gold.Chemscore.Metal.Weighted>
-0.0000

> <Gold.Chemscore.Lipo.Weighted>
-5.8248

> <Gold.Chemscore.Internal_Hbond.Weighted>
0.0000

> <Gold.Chemscore.DEClash.Weighted>
1.6918

> <Gold.Chemscore.DEInternal.Weighted>
0.7925

> <Gold.Chemscore.Rot.Weighted>
7.3765

> <Gold.Chemscore.Internal.Correction.Weighted>
   9.000000E+99

> <Gold.Protein.RotatedTorsions>
[ 6907 6896 6895 6894 ] final -109.32 input  -60.11 | X-H torsion
[ 7974 7965 7964 7962 ] final -126.44 input  175.53 | X-H torsion
[ 8008 7997 7996 7995 ] final   61.58 input   59.86 | X-H torsion
[ 10167 10162 10161 10158 ] final -173.92 input  -65.29 | X-H torsion
[ 10718 10713 10712 10709 ] final -102.57 input   66.30 | X-H torsion
[ 10763 10752 10751 10750 ] final  167.74 input  -60.55 | X-H torsion
[ 11005 11000 10999 10996 ] final  -32.74 input  -57.11 | X-H torsion

> <Gold.Protein.ActiveResidues>
 VAL166  LYS551  ARG553  GLY616  TRP617  ASP618  TYR619  PRO620  LYS621  CYS622 
 ASP623  PHE694  ASN695  SER759  ASP760  ASP761  ALA762  ILE779  LEU786  VAL792 
 PHE793  MET794  SER795  GLU796  ALA797  LYS798  CYS799  TRP800  GLU811  SER814 

> <Gold.Protein.RotatedAtoms>
  150.7555  133.9547  159.3496 H   0  0  0  0  0  0  0  0  0  0  0  0  # atno 6907 bound_to 6896
  151.7467  135.0840  160.0334 H   0  0  0  0  0  0  0  0  0  0  0  0  # atno 6908 bound_to 6896
  152.3493  133.6123  159.5969 H   0  0  0  0  0  0  0  0  0  0  0  0  # atno 6909 bound_to 6896
  144.9873  140.7698  143.4576 H   0  0  0  0  0  0  0  0  0  0  0  0  # atno 7974 bound_to 7965
  155.6007  140.3494  155.4593 H   0  0  0  0  0  0  0  0  0  0  0  0  # atno 8008 bound_to 7997
  156.0230  140.1258  157.0362 H   0  0  0  0  0  0  0  0  0  0  0  0  # atno 8009 bound_to 7997
  154.4322  140.1058  156.5977 H   0  0  0  0  0  0  0  0  0  0  0  0  # atno 8010 bound_to 7997
  139.5662  144.1750  152.1315 H   0  0  0  0  0  0  0  0  0  0  0  0  # atno 10167 bound_to 10162
  156.0233  130.5426  150.7127 H   0  0  0  0  0  0  0  0  0  0  0  0  # atno 10718 bound_to 10713
  154.3584  135.2753  155.2334 H   0  0  0  0  0  0  0  0  0  0  0  0  # atno 10763 bound_to 10752
  154.4533  135.5925  153.6209 H   0  0  0  0  0  0  0  0  0  0  0  0  # atno 10764 bound_to 10752
  152.9845  135.6047  154.3801 H   0  0  0  0  0  0  0  0  0  0  0  0  # atno 10765 bound_to 10752
  140.9577  133.7182  156.1320 H   0  0  0  0  0  0  0  0  0  0  0  0  # atno 11005 bound_to 11000
  145.2336  139.2104  143.5030 LP  0  0  0  0  0  0  0  0  0  0  0  0  # atno 17320 bound_to 7965
  146.3423  140.2218  142.8591 LP  0  0  0  0  0  0  0  0  0  0  0  0  # atno 17321 bound_to 7965
  140.1274  144.5319  150.6824 LP  0  0  0  0  0  0  0  0  0  0  0  0  # atno 17342 bound_to 10162
  140.6945  143.2395  151.5038 LP  0  0  0  0  0  0  0  0  0  0  0  0  # atno 17343 bound_to 10162
  157.4761  131.0898  151.0588 LP  0  0  0  0  0  0  0  0  0  0  0  0  # atno 17370 bound_to 10713
  157.1035  130.5991  149.5465 LP  0  0  0  0  0  0  0  0  0  0  0  0  # atno 17371 bound_to 10713
  140.7512  134.4043  157.5541 LP  0  0  0  0  0  0  0  0  0  0  0  0  # atno 17394 bound_to 11000
  139.8868  134.8900  156.2566 LP  0  0  0  0  0  0  0  0  0  0  0  0  # atno 17395 bound_to 11000

$$$$
