AV-unprocessed.smi:798|AV-procd|sdf|3779|dock7
  -GOLD-   22720 1213D 1   1.00000     0.00000
 Structure written by MMmdl.
 33 35  0  0  0  0  0  0  0  0  2 V2000
  150.6535  135.0530  156.5557 O   0  0  0  0  0  0  0  0  0  0  0  0
  150.6618  135.4712  155.3957 C   0  0  0  0  0  0  0  0  0  0  0  0
  151.4819  136.4213  154.8916 N   0  5  0  0  0  0  0  0  0  0  0  0
  151.1399  137.7177  154.9711 C   0  0  0  0  0  0  0  0  0  0  0  0
  152.0465  138.7050  154.8948 N   0  0  0  0  0  0  0  0  0  0  0  0
  151.4844  139.9712  154.9870 N   0  0  0  0  0  0  0  0  0  0  0  0
  150.1602  139.9059  155.1239 C   0  0  0  0  0  0  0  0  0  0  0  0
  149.4799  138.2927  155.1510 S   0  0  0  0  0  0  0  0  0  0  0  0
  149.7949  134.9788  154.5000 N   0  0  0  0  0  0  0  0  0  0  0  0
  148.7804  133.9588  154.7572 C   0  0  2  0  0  0  0  0  0  0  0  0
  149.3948  132.7716  155.5309 C   0  0  1  0  0  0  0  0  0  0  0  0
  148.2562  131.9218  156.1235 C   0  0  0  0  0  0  0  0  0  0  0  0
  147.6778  131.2253  154.8776 C   0  0  0  0  0  0  0  0  0  0  0  0
  148.5484  131.7852  153.7321 C   0  0  2  0  0  0  0  0  0  0  0  0
  149.9079  131.8659  154.4148 C   0  0  0  0  0  0  0  0  0  0  0  0
  148.2631  133.2838  153.4601 C   0  0  1  0  0  0  0  0  0  0  0  0
  146.8083  133.6440  153.1008 C   0  0  0  0  0  0  0  0  0  0  0  0
  146.6545  135.0443  153.0006 O   0  0  0  0  0  0  0  0  0  0  0  0
  149.5801  140.8131  155.2061 H   0  0  0  0  0  0  0  0  0  0  0  0
  149.8397  135.3493  153.5623 H   0  0  0  0  0  0  0  0  0  0  0  0
  147.9685  134.4024  155.3372 H   0  0  0  0  0  0  0  0  0  0  0  0
  150.1419  133.0627  156.2705 H   0  0  0  0  0  0  0  0  0  0  0  0
  148.6461  131.1857  156.8276 H   0  0  0  0  0  0  0  0  0  0  0  0
  147.5141  132.5249  156.6479 H   0  0  0  0  0  0  0  0  0  0  0  0
  147.8077  130.1454  154.9576 H   0  0  0  0  0  0  0  0  0  0  0  0
  146.6129  131.4100  154.7444 H   0  0  0  0  0  0  0  0  0  0  0  0
  148.5315  131.1699  152.8319 H   0  0  0  0  0  0  0  0  0  0  0  0
  150.6784  132.3310  153.7971 H   0  0  0  0  0  0  0  0  0  0  0  0
  150.2729  130.9015  154.7727 H   0  0  0  0  0  0  0  0  0  0  0  0
  148.8925  133.5893  152.6213 H   0  0  0  0  0  0  0  0  0  0  0  0
  146.4891  133.1740  152.1713 H   0  0  0  0  0  0  0  0  0  0  0  0
  146.1347  133.2823  153.8775 H   0  0  0  0  0  0  0  0  0  0  0  0
  147.3985  135.3943  152.5346 H   0  0  0  0  0  0  0  0  0  0  0  0
  1  2  2  0  0  0  0
  2  3  1  0  0  0  0
  2  9  1  0  0  0  0
  3  4  1  0  0  0  0
  4  8  1  0  0  0  0
  4  5  2  0  0  0  0
  5  6  1  0  0  0  0
  6  7  2  0  0  0  0
  7  8  1  0  0  0  0
  7 19  1  0  0  0  0
  9 10  1  0  0  0  0
  9 20  1  0  0  0  0
 10 16  1  0  0  0  0
 10 11  1  0  0  0  0
 10 21  1  0  0  0  0
 11 15  1  0  0  0  0
 11 12  1  0  0  0  0
 11 22  1  0  0  0  0
 12 13  1  0  0  0  0
 12 23  1  0  0  0  0
 12 24  1  0  0  0  0
 13 14  1  0  0  0  0
 13 25  1  0  0  0  0
 13 26  1  0  0  0  0
 14 15  1  0  0  0  0
 14 16  1  0  0  0  0
 14 27  1  0  0  0  0
 15 28  1  0  0  0  0
 15 29  1  0  0  0  0
 16 17  1  0  0  0  0
 16 30  1  0  0  0  0
 17 18  1  0  0  0  0
 17 31  1  0  0  0  0
 17 32  1  0  0  0  0
 18 33  1  0  0  0  0
M  CHG  1   3  -1
M  END
> <s_m_source_file>
AV-unprocessed.smi

> <i_m_source_file_index>
798

> <i_lp_mmshare_version>
43012

> <i_f3d_flags>
0

> <s_epik_input>
W0NIMl0xW0NIMl1bQ0BASF0oW0NIMl0yKVtDQEBIXShbQ0gyXVtPSF0pW0NAQEhdKFtDQEhdMTIpW05IXUMoPU8pW05IXWMzbm5bY0hdczM=

> <s_epik_cmdline>
J2VwaWtfcHl0aG9uJywgJy1waCcsICc3LjAnLCAnLXRuJywgJzgnLCAnLW1hJywgJzIwMCcsICctbWV0YWxfYmluZGluZycsICctaW1hZScsICc8aW5maWxlLm1hZT4nLCAnLW9tYWUnLCAnPG91dGZpbGUubWFlPic=

> <r_lp_tautomer_probability>
1

> <r_epik_Ionization_Penalty>
4.53732

> <r_epik_Ionization_Penalty_Charging>
4.48632

> <r_epik_Ionization_Penalty_Neutral>
0.0510007

> <r_epik_State_Penalty>
4.48602

> <r_epik_Charging_Adjusted_Penalty>
8.97234

> <i_epik_Tot_Q>
-1

> <i_epik_Tot_abs_Q>
1

> <r_epik_Metal_State_Penalty>
0.812492

> <b_epik_Metal_Only>
1

> <s_lp_Force_Field>
OPLS_2005

> <r_lp_Energy>
47.3134

> <b_lp_Chiralities_Consistent>
1

> <s_lp_Variant>
AV-unprocessed.smi:798-11

> <Gold.Version>
5.8.1

> <Gold.Id.Protein>
6NUR|6NUR_protein|mol2

> <Gold.PLP.Fitness>
38.2429

> <Gold.PLP.PLP>
-27.9785

> <Gold.PLP.part.hbond>
-4.1543

> <Gold.PLP.part.metal>
0.0000

> <Gold.PLP.part.buried>
-4.1989

> <Gold.PLP.part.nonpolar>
-20.1068

> <Gold.PLP.part.repulsive>
0.3433

> <Gold.PLP.ligand.clash>
0.0000

> <Gold.PLP.ligand.torsion>
1.0724

> <Gold.PLP.Chemscore.Hbond>
4.1272

> <Gold.PLP.Chemscore.CHOScore>
0.0000

> <Gold.PLP.Chemscore.Metal>
0.0000

> <Gold.Chemscore.Hbonds>
donor molecule, donor type, donor heavy atom, donor atom, acceptor molecule, acceptor atom, score
      L1  H     9    20       P1  7948  0.37
      L1  H    18    33       P1  7948  1.00
      P1  H  7989  7998       L1     6  1.00
      P1  H 10752 10764       L1     3  2.00

> <Gold.PLP.Chemscore.Internal.Correction>
0.0276

> <Gold.Rescore>
     Score         DG    S(hbond)    S(metal)    S(lipo)     H(rot)  DE(clash)    DE(int)     intcor
     13.50     -15.96       2.84        0.00      50.51       1.92       0.04       2.42       ----

> <Gold.Chemscore.Fitness>
13.5047

> <Gold.Chemscore.DG>
-15.9566

> <Gold.Chemscore.ZeroCoef>
-5.4800

> <Gold.Chemscore.Hbond>
2.8396

> <Gold.Chemscore.Metal>
0.0000

> <Gold.Chemscore.Lipo>
50.5075

> <Gold.Chemscore.Internal_Hbond>
0.0000

> <Gold.Chemscore.DEClash>
0.0368

> <Gold.Chemscore.DEInternal>
2.4151

> <Gold.Chemscore.Rot>
1.9207

> <Gold.Chemscore.Internal.Correction>
   9.000000E+99

> <Gold.Chemscore.Hbonds>
donor molecule, donor type, donor heavy atom, donor atom, acceptor molecule, acceptor atom, score
      L1  H     9    20       P1  7948  0.01
      L1  H    18    33       P1  7948  1.00
      P1  H  7989  7998       L1     6  0.28
      P1  H 10752 10764       L1     3  0.45

> <Gold.Chemscore.Hbond.Weighted>
-9.4841

> <Gold.Chemscore.Metal.Weighted>
-0.0000

> <Gold.Chemscore.Lipo.Weighted>
-5.9094

> <Gold.Chemscore.Internal_Hbond.Weighted>
0.0000

> <Gold.Chemscore.DEClash.Weighted>
0.0368

> <Gold.Chemscore.DEInternal.Weighted>
2.4151

> <Gold.Chemscore.Rot.Weighted>
4.9169

> <Gold.Chemscore.Internal.Correction.Weighted>
   9.000000E+99

> <Gold.Protein.RotatedTorsions>
[ 6907 6896 6895 6894 ] final  -70.17 input  -60.11 | X-H torsion
[ 7974 7965 7964 7962 ] final -125.31 input  175.53 | X-H torsion
[ 8008 7997 7996 7995 ] final  115.18 input   59.86 | X-H torsion
[ 10167 10162 10161 10158 ] final  -90.12 input  -65.29 | X-H torsion
[ 10718 10713 10712 10709 ] final   55.93 input   66.30 | X-H torsion
[ 10763 10752 10751 10750 ] final  -61.43 input  -60.55 | X-H torsion
[ 11005 11000 10999 10996 ] final   59.39 input  -57.11 | X-H torsion

> <Gold.Protein.ActiveResidues>
 VAL166  LYS551  ARG553  GLY616  TRP617  ASP618  TYR619  PRO620  LYS621  CYS622 
 ASP623  PHE694  ASN695  SER759  ASP760  ASP761  ALA762  ILE779  LEU786  VAL792 
 PHE793  MET794  SER795  GLU796  ALA797  LYS798  CYS799  TRP800  GLU811  SER814 

> <Gold.Protein.RotatedAtoms>
  150.7270  134.5491  159.5785 H   0  0  0  0  0  0  0  0  0  0  0  0  # atno 6907 bound_to 6896
  152.2983  134.7639  160.0372 H   0  0  0  0  0  0  0  0  0  0  0  0  # atno 6908 bound_to 6896
  151.8228  133.3361  159.3626 H   0  0  0  0  0  0  0  0  0  0  0  0  # atno 6909 bound_to 6896
  144.9989  140.7802  143.4508 H   0  0  0  0  0  0  0  0  0  0  0  0  # atno 7974 bound_to 7965
  156.2366  140.2944  156.0330 H   0  0  0  0  0  0  0  0  0  0  0  0  # atno 8008 bound_to 7997
  155.2073  140.0411  157.2945 H   0  0  0  0  0  0  0  0  0  0  0  0  # atno 8009 bound_to 7997
  154.6090  140.2447  155.7700 H   0  0  0  0  0  0  0  0  0  0  0  0  # atno 8010 bound_to 7997
  140.3580  143.2856  151.9648 H   0  0  0  0  0  0  0  0  0  0  0  0  # atno 10167 bound_to 10162
  157.5387  130.8682  149.8791 H   0  0  0  0  0  0  0  0  0  0  0  0  # atno 10718 bound_to 10713
  154.2845  135.6265  153.5360 H   0  0  0  0  0  0  0  0  0  0  0  0  # atno 10763 bound_to 10752
  152.9861  135.5641  154.5458 H   0  0  0  0  0  0  0  0  0  0  0  0  # atno 10764 bound_to 10752
  154.5056  135.2874  155.1361 H   0  0  0  0  0  0  0  0  0  0  0  0  # atno 10765 bound_to 10752
  140.0307  134.6016  155.9511 H   0  0  0  0  0  0  0  0  0  0  0  0  # atno 11005 bound_to 11000
  145.2181  139.2172  143.5107 LP  0  0  0  0  0  0  0  0  0  0  0  0  # atno 17320 bound_to 7965
  146.3448  140.2033  142.8589 LP  0  0  0  0  0  0  0  0  0  0  0  0  # atno 17321 bound_to 7965
  139.4817  144.6017  151.7593 LP  0  0  0  0  0  0  0  0  0  0  0  0  # atno 17342 bound_to 10162
  140.5154  144.0961  150.6007 LP  0  0  0  0  0  0  0  0  0  0  0  0  # atno 17343 bound_to 10162
  156.0479  130.3724  150.1271 LP  0  0  0  0  0  0  0  0  0  0  0  0  # atno 17370 bound_to 10713
  156.9452  130.9757  151.3509 LP  0  0  0  0  0  0  0  0  0  0  0  0  # atno 17371 bound_to 10713
  141.1829  133.6550  156.5096 LP  0  0  0  0  0  0  0  0  0  0  0  0  # atno 17394 bound_to 11000
  140.4230  134.7170  157.4900 LP  0  0  0  0  0  0  0  0  0  0  0  0  # atno 17395 bound_to 11000

$$$$
