AV-unprocessed.smi:1198|AV-procd|sdf|5011|dock8
  -GOLD-   22720 4 23D 1   1.00000     0.00000
 Structure written by MMmdl.
 40 41  0  0  0  0  0  0  0  0  2 V2000
  150.6401  142.4701  157.5711 C   0  0  0  0  0  0  0  0  0  0  0  0
  151.3615  141.7427  156.5828 O   0  0  0  0  0  0  0  0  0  0  0  0
  150.6557  140.9157  155.7333 C   0  0  0  0  0  0  0  0  0  0  0  0
  149.3238  141.2491  155.4198 C   0  0  0  0  0  0  0  0  0  0  0  0
  148.6015  140.4082  154.5526 C   0  0  0  0  0  0  0  0  0  0  0  0
  149.2258  139.2612  154.0216 C   0  0  0  0  0  0  0  0  0  0  0  0
  148.4550  138.4392  153.1528 N   0  0  0  0  0  0  0  0  0  0  0  0
  147.1380  138.4750  152.8847 C   0  0  0  0  0  0  0  0  0  0  0  0
  146.3282  139.2665  153.3653 O   0  0  0  0  0  0  0  0  0  0  0  0
  146.7977  137.5123  152.0154 N   0  0  0  0  0  0  0  0  0  0  0  0
  145.4514  137.2706  151.5041 C   0  0  0  0  0  0  0  0  0  0  0  0
  144.9809  135.8265  151.7651 C   0  0  1  0  0  0  0  0  0  0  0  0
  143.7149  135.6912  152.6120 C   0  0  0  0  0  0  0  0  0  0  0  0
  143.2340  134.2840  152.2724 C   0  0  0  0  0  0  0  0  0  0  0  0
  143.5497  134.1009  150.8401 N   0  3  2  0  0  0  0  0  0  0  0  0
  143.8156  132.6998  150.4524 C   0  0  0  0  0  0  0  0  0  0  0  0
  144.6288  135.0531  150.4851 C   0  0  0  0  0  0  0  0  0  0  0  0
  150.5678  139.0105  154.4026 C   0  0  0  0  0  0  0  0  0  0  0  0
  151.2661  139.8136  155.2332 N   0  0  0  0  0  0  0  0  0  0  0  0
  151.3362  143.0708  158.1564 H   0  0  0  0  0  0  0  0  0  0  0  0
  150.1208  141.8013  158.2592 H   0  0  0  0  0  0  0  0  0  0  0  0
  149.9171  143.1499  157.1178 H   0  0  0  0  0  0  0  0  0  0  0  0
  148.8647  142.1331  155.8367 H   0  0  0  0  0  0  0  0  0  0  0  0
  147.5784  140.6455  154.2991 H   0  0  0  0  0  0  0  0  0  0  0  0
  148.9759  137.7114  152.6855 H   0  0  0  0  0  0  0  0  0  0  0  0
  147.5281  136.9054  151.6726 H   0  0  0  0  0  0  0  0  0  0  0  0
  144.7439  137.9879  151.9240 H   0  0  0  0  0  0  0  0  0  0  0  0
  145.4697  137.4574  150.4301 H   0  0  0  0  0  0  0  0  0  0  0  0
  145.7804  135.2833  152.2722 H   0  0  0  0  0  0  0  0  0  0  0  0
  143.8982  135.8266  153.6785 H   0  0  0  0  0  0  0  0  0  0  0  0
  142.9688  136.4238  152.3005 H   0  0  0  0  0  0  0  0  0  0  0  0
  143.7867  133.5585  152.8719 H   0  0  0  0  0  0  0  0  0  0  0  0
  142.1711  134.1437  152.4706 H   0  0  0  0  0  0  0  0  0  0  0  0
  144.6908  132.3072  150.9718 H   0  0  0  0  0  0  0  0  0  0  0  0
  143.9928  132.6285  149.3789 H   0  0  0  0  0  0  0  0  0  0  0  0
  142.9600  132.0689  150.6956 H   0  0  0  0  0  0  0  0  0  0  0  0
  144.2416  135.7235  149.7169 H   0  0  0  0  0  0  0  0  0  0  0  0
  145.5075  134.5559  150.0714 H   0  0  0  0  0  0  0  0  0  0  0  0
  151.1202  138.1526  154.0565 H   0  0  0  0  0  0  0  0  0  0  0  0
  142.7338  134.4023  150.3261 H   0  0  0  0  0  0  0  0  0  0  0  0
  1  2  1  0  0  0  0
  1 20  1  0  0  0  0
  1 21  1  0  0  0  0
  1 22  1  0  0  0  0
  2  3  1  0  0  0  0
  3 19  1  0  0  0  0
  3  4  2  0  0  0  0
  4  5  1  0  0  0  0
  4 23  1  0  0  0  0
  5  6  2  0  0  0  0
  5 24  1  0  0  0  0
  6  7  1  0  0  0  0
  6 18  1  0  0  0  0
  7  8  1  0  0  0  0
  7 25  1  0  0  0  0
  8  9  2  0  0  0  0
  8 10  1  0  0  0  0
 10 11  1  0  0  0  0
 10 26  1  0  0  0  0
 11 12  1  0  0  0  0
 11 27  1  0  0  0  0
 11 28  1  0  0  0  0
 12 17  1  0  0  0  0
 12 13  1  0  0  0  0
 12 29  1  0  0  0  0
 13 14  1  0  0  0  0
 13 30  1  0  0  0  0
 13 31  1  0  0  0  0
 14 15  1  0  0  0  0
 14 32  1  0  0  0  0
 14 33  1  0  0  0  0
 15 16  1  0  0  0  0
 15 17  1  0  0  0  0
 15 40  1  0  0  0  0
 16 34  1  0  0  0  0
 16 35  1  0  0  0  0
 16 36  1  0  0  0  0
 17 37  1  0  0  0  0
 17 38  1  0  0  0  0
 18 19  2  0  0  0  0
 18 39  1  0  0  0  0
M  CHG  1  15   1
M  END
> <s_m_source_file>
AV-unprocessed.smi

> <i_m_source_file_index>
1198

> <i_lp_mmshare_version>
43012

> <i_f3d_flags>
0

> <s_epik_input>
W0NIM11PYzFbY0hdW2NIXWMoW2NIXW4xKVtOSF1DKD1PKVtOSF1bQ0gyXVtDQEBIXTJbQ0gyXVtDSDJdTihbQ0gzXSlbQ0gyXTI=

> <s_epik_cmdline>
J2VwaWtfcHl0aG9uJywgJy1waCcsICc3LjAnLCAnLXRuJywgJzgnLCAnLW1hJywgJzIwMCcsICctbWV0YWxfYmluZGluZycsICctaW1hZScsICc8aW5maWxlLm1hZT4nLCAnLW9tYWUnLCAnPG91dGZpbGUubWFlPic=

> <r_lp_tautomer_probability>
1

> <r_epik_Ionization_Penalty>
0.00131396

> <r_epik_Ionization_Penalty_Charging>
0.0012301

> <r_epik_Ionization_Penalty_Neutral>
8.38549e-05

> <r_epik_State_Penalty>
0.00081314

> <r_epik_Charging_Adjusted_Penalty>
0.00204324

> <i_epik_Tot_Q>
1

> <i_epik_Tot_abs_Q>
1

> <r_epik_Metal_State_Penalty>
-0

> <b_epik_Metal_Only>
0

> <s_lp_Force_Field>
OPLS_2005

> <r_lp_Energy>
29.7758

> <b_lp_Chiralities_Consistent>
1

> <s_lp_Variant>
AV-unprocessed.smi:1198-2

> <Gold.Version>
5.8.1

> <Gold.Id.Protein>
6NUR|6NUR_protein|mol2

> <Gold.PLP.Fitness>
42.7783

> <Gold.PLP.PLP>
-32.8513

> <Gold.PLP.part.hbond>
-4.8562

> <Gold.PLP.part.metal>
0.0000

> <Gold.PLP.part.buried>
1.6328

> <Gold.PLP.part.nonpolar>
-31.1533

> <Gold.PLP.part.repulsive>
1.0745

> <Gold.PLP.ligand.clash>
0.0000

> <Gold.PLP.ligand.torsion>
1.1577

> <Gold.PLP.Chemscore.Hbond>
4.0798

> <Gold.PLP.Chemscore.CHOScore>
0.0000

> <Gold.PLP.Chemscore.Metal>
0.0000

> <Gold.Chemscore.Hbonds>
donor molecule, donor type, donor heavy atom, donor atom, acceptor molecule, acceptor atom, score
      L1  H     7    25       P1  7948  0.99
      L1  H    10    26       P1  7948  1.00
      L1  H    15    40       P1 10186  2.00
      P1  H  7989  7998       L1    19  0.06

> <Gold.PLP.Chemscore.Internal.Correction>
0.0032

> <Gold.Rescore>
     Score         DG    S(hbond)    S(metal)    S(lipo)     H(rot)  DE(clash)    DE(int)     intcor
     14.92     -19.05       2.83        0.00      68.36       1.51       1.59       2.54       ----

> <Gold.Chemscore.Fitness>
14.9163

> <Gold.Chemscore.DG>
-19.0458

> <Gold.Chemscore.ZeroCoef>
-5.4800

> <Gold.Chemscore.Hbond>
2.8280

> <Gold.Chemscore.Metal>
0.0000

> <Gold.Chemscore.Lipo>
68.3625

> <Gold.Chemscore.Internal_Hbond>
0.0000

> <Gold.Chemscore.DEClash>
1.5928

> <Gold.Chemscore.DEInternal>
2.5368

> <Gold.Chemscore.Rot>
1.5149

> <Gold.Chemscore.Internal.Correction>
   9.000000E+99

> <Gold.Chemscore.Hbonds>
donor molecule, donor type, donor heavy atom, donor atom, acceptor molecule, acceptor atom, score
      L1  H     7    25       P1  7948  0.94
      L1  H    10    26       P1  7948  0.92
      L1  H    15    40       P1 10186  0.70

> <Gold.Chemscore.Hbond.Weighted>
-9.4455

> <Gold.Chemscore.Metal.Weighted>
-0.0000

> <Gold.Chemscore.Lipo.Weighted>
-7.9984

> <Gold.Chemscore.Internal_Hbond.Weighted>
0.0000

> <Gold.Chemscore.DEClash.Weighted>
1.5928

> <Gold.Chemscore.DEInternal.Weighted>
2.5368

> <Gold.Chemscore.Rot.Weighted>
3.8781

> <Gold.Chemscore.Internal.Correction.Weighted>
   9.000000E+99

> <Gold.Protein.RotatedTorsions>
[ 6907 6896 6895 6894 ] final  -86.18 input  -60.11 | X-H torsion
[ 7974 7965 7964 7962 ] final    4.72 input  175.53 | X-H torsion
[ 8008 7997 7996 7995 ] final  170.83 input   59.86 | X-H torsion
[ 10167 10162 10161 10158 ] final  -92.98 input  -65.29 | X-H torsion
[ 10718 10713 10712 10709 ] final  122.24 input   66.30 | X-H torsion
[ 10763 10752 10751 10750 ] final  -84.16 input  -60.55 | X-H torsion
[ 11005 11000 10999 10996 ] final  122.78 input  -57.11 | X-H torsion

> <Gold.Protein.ActiveResidues>
 VAL166  LYS551  ARG553  GLY616  TRP617  ASP618  TYR619  PRO620  LYS621  CYS622 
 ASP623  PHE694  ASN695  SER759  ASP760  ASP761  ALA762  ILE779  LEU786  VAL792 
 PHE793  MET794  SER795  GLU796  ALA797  LYS798  CYS799  TRP800  GLU811  SER814 

> <Gold.Protein.RotatedAtoms>
  150.6867  134.3090  159.4738 H   0  0  0  0  0  0  0  0  0  0  0  0  # atno 6907 bound_to 6896
  152.0978  134.9360  160.0579 H   0  0  0  0  0  0  0  0  0  0  0  0  # atno 6908 bound_to 6896
  152.0651  133.4045  159.4471 H   0  0  0  0  0  0  0  0  0  0  0  0  # atno 6909 bound_to 6896
  146.2443  140.0492  142.8376 H   0  0  0  0  0  0  0  0  0  0  0  0  # atno 7974 bound_to 7965
  156.1328  140.1527  156.9039 H   0  0  0  0  0  0  0  0  0  0  0  0  # atno 8008 bound_to 7997
  154.4923  140.0848  156.7661 H   0  0  0  0  0  0  0  0  0  0  0  0  # atno 8009 bound_to 7997
  155.4224  140.3423  155.4275 H   0  0  0  0  0  0  0  0  0  0  0  0  # atno 8010 bound_to 7997
  140.3293  143.3004  151.9960 H   0  0  0  0  0  0  0  0  0  0  0  0  # atno 10167 bound_to 10162
  157.5757  131.1079  150.8284 H   0  0  0  0  0  0  0  0  0  0  0  0  # atno 10718 bound_to 10713
  154.5962  135.5530  153.7328 H   0  0  0  0  0  0  0  0  0  0  0  0  # atno 10763 bound_to 10752
  153.0136  135.6355  154.1779 H   0  0  0  0  0  0  0  0  0  0  0  0  # atno 10764 bound_to 10752
  154.1719  135.2891  155.3058 H   0  0  0  0  0  0  0  0  0  0  0  0  # atno 10765 bound_to 10752
  139.9283  134.9641  156.8161 H   0  0  0  0  0  0  0  0  0  0  0  0  # atno 11005 bound_to 11000
  145.1000  140.9339  143.4718 LP  0  0  0  0  0  0  0  0  0  0  0  0  # atno 17320 bound_to 7965
  145.0683  139.3052  143.5845 LP  0  0  0  0  0  0  0  0  0  0  0  0  # atno 17321 bound_to 7965
  139.4859  144.6248  151.7185 LP  0  0  0  0  0  0  0  0  0  0  0  0  # atno 17342 bound_to 10162
  140.5412  144.0576  150.6089 LP  0  0  0  0  0  0  0  0  0  0  0  0  # atno 17343 bound_to 10162
  156.8743  130.5157  149.5295 LP  0  0  0  0  0  0  0  0  0  0  0  0  # atno 17370 bound_to 10713
  156.0802  130.5814  150.9548 LP  0  0  0  0  0  0  0  0  0  0  0  0  # atno 17371 bound_to 10713
  140.6272  133.9939  155.7645 LP  0  0  0  0  0  0  0  0  0  0  0  0  # atno 17394 bound_to 11000
  141.0856  133.9996  157.3318 LP  0  0  0  0  0  0  0  0  0  0  0  0  # atno 17395 bound_to 11000

$$$$
