AV-unprocessed.smi:198|AV-procd|sdf|1553|dock2
  -GOLD-   2262019423D 1   1.00000     0.00000
 Structure written by MMmdl.
 59 63  0  0  0  0  0  0  0  0  2 V2000
  148.3063  141.7544  156.9877 C   0  0  0  0  0  0  0  0  0  0  0  0
  149.6258  142.2374  156.5179 N   0  3  2  0  0  0  0  0  0  0  0  0
  150.2197  141.4046  155.4418 C   0  0  0  0  0  0  0  0  0  0  0  0
  150.7711  140.0750  155.9835 C   0  0  0  0  0  0  0  0  0  0  0  0
  151.7862  140.3179  157.1233 C   0  0  1  0  0  0  0  0  0  0  0  0
  151.1700  141.2131  158.2246 C   0  0  1  0  0  0  0  0  0  0  0  0
  152.2317  141.5258  159.2967 C   0  0  0  0  0  0  0  0  0  0  0  0
  152.8357  140.2331  159.8666 C   0  0  0  0  0  0  0  0  0  0  0  0
  153.3639  139.3170  158.7437 C   0  0  0  0  0  0  0  0  0  0  0  0
  152.3683  139.0948  157.6938 N   0  0  0  0  0  0  0  0  0  0  0  0
  151.5545  138.0254  157.8677 C   0  0  0  0  0  0  0  0  0  0  0  0
  150.8775  137.8614  159.0336 N   0  0  0  0  0  0  0  0  0  0  0  0
  150.0534  136.8210  159.1887 C   0  0  0  0  0  0  0  0  0  0  0  0
  149.7632  135.8496  158.3204 N   0  0  0  0  0  0  0  0  0  0  0  0
  150.4446  136.0103  157.1494 C   0  0  0  0  0  0  0  0  0  0  0  0
  151.3519  137.0623  156.8437 C   0  0  0  0  0  0  0  0  0  0  0  0
  151.8434  136.9092  155.5544 N   0  0  0  0  0  0  0  0  0  0  0  0
  151.2548  135.8287  155.1188 C   0  0  0  0  0  0  0  0  0  0  0  0
  150.4075  135.2153  156.0166 N   0  0  0  0  0  0  0  0  0  0  0  0
  149.6122  134.0390  155.8032 C   0  0  0  0  0  0  0  0  0  0  0  0
  150.2330  132.6719  155.5038 C   0  0  0  0  0  0  0  0  0  0  0  0
  149.0095  132.3242  154.6230 C   0  0  0  0  0  0  0  0  0  0  0  0
  149.3083  131.6161  153.2898 C   0  0  0  0  0  0  0  0  0  0  0  0
  148.2238  131.7041  152.3883 O   0  0  0  0  0  0  0  0  0  0  0  0
  147.8359  131.6094  155.3257 C   0  0  0  0  0  0  0  0  0  0  0  0
  146.6806  131.5607  154.5143 O   0  0  0  0  0  0  0  0  0  0  0  0
  148.8285  133.8552  154.5041 C   0  0  0  0  0  0  0  0  0  0  0  0
  150.5892  142.5080  157.6155 C   0  0  0  0  0  0  0  0  0  0  0  0
  148.3766  140.7842  157.4794 H   0  0  0  0  0  0  0  0  0  0  0  0
  147.6145  141.6591  156.1505 H   0  0  0  0  0  0  0  0  0  0  0  0
  147.8720  142.4611  157.6957 H   0  0  0  0  0  0  0  0  0  0  0  0
  149.4812  141.2220  154.6602 H   0  0  0  0  0  0  0  0  0  0  0  0
  151.0274  141.9693  154.9748 H   0  0  0  0  0  0  0  0  0  0  0  0
  149.9395  139.4585  156.3257 H   0  0  0  0  0  0  0  0  0  0  0  0
  151.2487  139.5256  155.1718 H   0  0  0  0  0  0  0  0  0  0  0  0
  152.6231  140.8643  156.6850 H   0  0  0  0  0  0  0  0  0  0  0  0
  150.3580  140.6690  158.7082 H   0  0  0  0  0  0  0  0  0  0  0  0
  153.0266  142.1341  158.8628 H   0  0  0  0  0  0  0  0  0  0  0  0
  151.7938  142.1155  160.1029 H   0  0  0  0  0  0  0  0  0  0  0  0
  153.6447  140.4736  160.5566 H   0  0  0  0  0  0  0  0  0  0  0  0
  152.0833  139.7118  160.4580 H   0  0  0  0  0  0  0  0  0  0  0  0
  154.2424  139.7719  158.2844 H   0  0  0  0  0  0  0  0  0  0  0  0
  153.6944  138.3640  159.1598 H   0  0  0  0  0  0  0  0  0  0  0  0
  149.5542  136.7583  160.1444 H   0  0  0  0  0  0  0  0  0  0  0  0
  151.4258  135.4548  154.1203 H   0  0  0  0  0  0  0  0  0  0  0  0
  148.9477  133.9566  156.6649 H   0  0  0  0  0  0  0  0  0  0  0  0
  151.1562  132.7283  154.9259 H   0  0  0  0  0  0  0  0  0  0  0  0
  150.3655  132.0387  156.3813 H   0  0  0  0  0  0  0  0  0  0  0  0
  150.1987  132.0275  152.8132 H   0  0  0  0  0  0  0  0  0  0  0  0
  149.5107  130.5569  153.4521 H   0  0  0  0  0  0  0  0  0  0  0  0
  148.4760  131.2951  151.5744 H   0  0  0  0  0  0  0  0  0  0  0  0
  148.0962  130.5830  155.5851 H   0  0  0  0  0  0  0  0  0  0  0  0
  147.5829  132.1015  156.2655 H   0  0  0  0  0  0  0  0  0  0  0  0
  146.3872  132.4464  154.3608 H   0  0  0  0  0  0  0  0  0  0  0  0
  147.7959  134.2024  154.5494 H   0  0  0  0  0  0  0  0  0  0  0  0
  149.3458  134.2866  153.6449 H   0  0  0  0  0  0  0  0  0  0  0  0
  151.3984  143.1180  157.2113 H   0  0  0  0  0  0  0  0  0  0  0  0
  150.1082  143.1116  158.3862 H   0  0  0  0  0  0  0  0  0  0  0  0
  149.4357  143.1347  156.0942 H   0  0  0  0  0  0  0  0  0  0  0  0
  1  2  1  0  0  0  0
  1 29  1  0  0  0  0
  1 30  1  0  0  0  0
  1 31  1  0  0  0  0
  2 28  1  0  0  0  0
  2  3  1  0  0  0  0
  2 59  1  0  0  0  0
  3  4  1  0  0  0  0
  3 32  1  0  0  0  0
  3 33  1  0  0  0  0
  4  5  1  0  0  0  0
  4 34  1  0  0  0  0
  4 35  1  0  0  0  0
  5 10  1  0  0  0  0
  5  6  1  0  0  0  0
  5 36  1  0  0  0  0
  6  7  1  0  0  0  0
  6 28  1  0  0  0  0
  6 37  1  0  0  0  0
  7  8  1  0  0  0  0
  7 38  1  0  0  0  0
  7 39  1  0  0  0  0
  8  9  1  0  0  0  0
  8 40  1  0  0  0  0
  8 41  1  0  0  0  0
  9 10  1  0  0  0  0
  9 42  1  0  0  0  0
  9 43  1  0  0  0  0
 10 11  1  0  0  0  0
 11 16  1  0  0  0  0
 11 12  2  0  0  0  0
 12 13  1  0  0  0  0
 13 14  2  0  0  0  0
 13 44  1  0  0  0  0
 14 15  1  0  0  0  0
 15 19  1  0  0  0  0
 15 16  2  0  0  0  0
 16 17  1  0  0  0  0
 17 18  2  0  0  0  0
 18 19  1  0  0  0  0
 18 45  1  0  0  0  0
 19 20  1  0  0  0  0
 20 27  1  0  0  0  0
 20 21  1  0  0  0  0
 20 46  1  0  0  0  0
 21 22  1  0  0  0  0
 21 47  1  0  0  0  0
 21 48  1  0  0  0  0
 22 23  1  0  0  0  0
 22 25  1  0  0  0  0
 22 27  1  0  0  0  0
 23 24  1  0  0  0  0
 23 49  1  0  0  0  0
 23 50  1  0  0  0  0
 24 51  1  0  0  0  0
 25 26  1  0  0  0  0
 25 52  1  0  0  0  0
 25 53  1  0  0  0  0
 26 54  1  0  0  0  0
 27 55  1  0  0  0  0
 27 56  1  0  0  0  0
 28 57  1  0  0  0  0
 28 58  1  0  0  0  0
M  CHG  1   2   1
M  END
> <s_m_source_file>
AV-unprocessed.smi

> <i_m_source_file_index>
198

> <i_lp_mmshare_version>
43012

> <i_f3d_flags>
0

> <s_epik_input>
W0NIMl0xW0NIMl1OKFtDSDNdKVtDSDJdW0NAQEhdKFtDQEhdMTIpW0NIMl1bQ0gyXVtDSDJdTjJjKG5bY0hdbjMpYyhjMzQpbltjSF1uNFtDSF0oW0NIMl01KVtDSDJdQzUoW0NIMl1bT0hdKVtDSDJdW09IXQ==

> <s_epik_cmdline>
J2VwaWtfcHl0aG9uJywgJy1waCcsICc3LjAnLCAnLXRuJywgJzgnLCAnLW1hJywgJzIwMCcsICctbWV0YWxfYmluZGluZycsICctaW1hZScsICc8aW5maWxlLm1hZT4nLCAnLW9tYWUnLCAnPG91dGZpbGUubWFlPic=

> <r_lp_tautomer_probability>
1

> <r_epik_Ionization_Penalty>
0.00239938

> <r_epik_Ionization_Penalty_Charging>
0.00138697

> <r_epik_Ionization_Penalty_Neutral>
0.00101241

> <r_epik_State_Penalty>
-0

> <r_epik_Charging_Adjusted_Penalty>
0.00138697

> <i_epik_Tot_Q>
1

> <i_epik_Tot_abs_Q>
1

> <r_epik_Metal_State_Penalty>
-0

> <b_epik_Metal_Only>
0

> <s_lp_Force_Field>
OPLS_2005

> <r_lp_Energy>
59.1545

> <b_lp_Chiralities_Consistent>
1

> <s_lp_Variant>
AV-unprocessed.smi:198-2

> <Gold.Version>
5.8.1

> <Gold.Id.Protein>
6NUR|6NUR_protein|mol2

> <Gold.PLP.Fitness>
47.5198

> <Gold.PLP.PLP>
-34.8437

> <Gold.PLP.part.hbond>
-3.7079

> <Gold.PLP.part.metal>
0.0000

> <Gold.PLP.part.buried>
-1.3317

> <Gold.PLP.part.nonpolar>
-29.3828

> <Gold.PLP.part.repulsive>
0.0794

> <Gold.PLP.ligand.clash>
0.0000

> <Gold.PLP.ligand.torsion>
0.7935

> <Gold.PLP.Chemscore.Hbond>
3.4524

> <Gold.PLP.Chemscore.CHOScore>
0.9932

> <Gold.PLP.Chemscore.Metal>
0.0000

> <Gold.Chemscore.Hbonds>
donor molecule, donor type, donor heavy atom, donor atom, acceptor molecule, acceptor atom, score
      L1  H     2    59       P1  8028  2.00
      L1  H    24    51       P1 10747  0.80
      P1  H  6896  6908       L1    14  0.54
      L1  C    18    45       P1  7949  0.63

> <Gold.PLP.Chemscore.Internal.Correction>
0.9263

> <Gold.Rescore>
     Score         DG    S(hbond)    S(metal)    S(lipo)     H(rot)  DE(clash)    DE(int)     intcor
     14.13     -15.30       2.11        0.00      90.97       3.08       0.05       1.12       ----

> <Gold.Chemscore.Fitness>
14.1274

> <Gold.Chemscore.DG>
-15.2959

> <Gold.Chemscore.ZeroCoef>
-5.4800

> <Gold.Chemscore.Hbond>
2.1115

> <Gold.Chemscore.Metal>
0.0000

> <Gold.Chemscore.Lipo>
90.9715

> <Gold.Chemscore.Internal_Hbond>
0.0000

> <Gold.Chemscore.DEClash>
0.0529

> <Gold.Chemscore.DEInternal>
1.1156

> <Gold.Chemscore.Rot>
3.0781

> <Gold.Chemscore.Internal.Correction>
   9.000000E+99

> <Gold.Chemscore.Hbonds>
donor molecule, donor type, donor heavy atom, donor atom, acceptor molecule, acceptor atom, score
      L1  H     2    59       P1  8028  1.00
      L1  H    24    51       P1 10747  0.79
      P1  H  6896  6908       L1    14  0.02

> <Gold.Chemscore.Hbond.Weighted>
-7.0523

> <Gold.Chemscore.Metal.Weighted>
-0.0000

> <Gold.Chemscore.Lipo.Weighted>
-10.6437

> <Gold.Chemscore.Internal_Hbond.Weighted>
0.0000

> <Gold.Chemscore.DEClash.Weighted>
0.0529

> <Gold.Chemscore.DEInternal.Weighted>
1.1156

> <Gold.Chemscore.Rot.Weighted>
7.8800

> <Gold.Chemscore.Internal.Correction.Weighted>
   9.000000E+99

> <Gold.Protein.RotatedTorsions>
[ 6907 6896 6895 6894 ] final  161.86 input  -60.11 | X-H torsion
[ 7974 7965 7964 7962 ] final  162.96 input  175.53 | X-H torsion
[ 8008 7997 7996 7995 ] final   59.10 input   59.86 | X-H torsion
[ 10167 10162 10161 10158 ] final   16.36 input  -65.29 | X-H torsion
[ 10718 10713 10712 10709 ] final   91.99 input   66.30 | X-H torsion
[ 10763 10752 10751 10750 ] final  -79.04 input  -60.55 | X-H torsion
[ 11005 11000 10999 10996 ] final  104.22 input  -57.11 | X-H torsion

> <Gold.Protein.ActiveResidues>
 VAL166  LYS551  ARG553  GLY616  TRP617  ASP618  TYR619  PRO620  LYS621  CYS622 
 ASP623  PHE694  ASN695  SER759  ASP760  ASP761  ALA762  ILE779  LEU786  VAL792 
 PHE793  MET794  SER795  GLU796  ALA797  LYS798  CYS799  TRP800  GLU811  SER814 

> <Gold.Protein.RotatedAtoms>
  151.9492  133.3661  159.3993 H   0  0  0  0  0  0  0  0  0  0  0  0  # atno 6907 bound_to 6896
  150.6984  134.4358  159.5278 H   0  0  0  0  0  0  0  0  0  0  0  0  # atno 6908 bound_to 6896
  152.2028  134.8572  160.0557 H   0  0  0  0  0  0  0  0  0  0  0  0  # atno 6909 bound_to 6896
  144.7612  139.8115  143.6332 H   0  0  0  0  0  0  0  0  0  0  0  0  # atno 7974 bound_to 7965
  155.5607  140.3488  155.4491 H   0  0  0  0  0  0  0  0  0  0  0  0  # atno 8008 bound_to 7997
  156.0516  140.1319  157.0069 H   0  0  0  0  0  0  0  0  0  0  0  0  # atno 8009 bound_to 7997
  154.4437  140.1003  156.6370 H   0  0  0  0  0  0  0  0  0  0  0  0  # atno 8010 bound_to 7997
  140.5803  143.8994  150.6784 H   0  0  0  0  0  0  0  0  0  0  0  0  # atno 10167 bound_to 10162
  157.6959  131.0427  150.3814 H   0  0  0  0  0  0  0  0  0  0  0  0  # atno 10718 bound_to 10713
  154.5336  135.5709  153.6779 H   0  0  0  0  0  0  0  0  0  0  0  0  # atno 10763 bound_to 10752
  152.9945  135.6210  154.2596 H   0  0  0  0  0  0  0  0  0  0  0  0  # atno 10764 bound_to 10752
  154.2524  135.2858  155.2791 H   0  0  0  0  0  0  0  0  0  0  0  0  # atno 10765 bound_to 10752
  139.8790  134.9292  156.5328 H   0  0  0  0  0  0  0  0  0  0  0  0  # atno 11005 bound_to 11000
  146.1676  139.4813  142.9948 LP  0  0  0  0  0  0  0  0  0  0  0  0  # atno 17320 bound_to 7965
  145.6615  141.0239  143.1706 LP  0  0  0  0  0  0  0  0  0  0  0  0  # atno 17321 bound_to 7965
  140.2491  143.3606  152.1421 LP  0  0  0  0  0  0  0  0  0  0  0  0  # atno 17342 bound_to 10162
  139.5166  144.6980  151.5576 LP  0  0  0  0  0  0  0  0  0  0  0  0  # atno 17343 bound_to 10162
  156.4227  130.3956  149.6813 LP  0  0  0  0  0  0  0  0  0  0  0  0  # atno 17370 bound_to 10713
  156.4059  130.7698  151.2708 LP  0  0  0  0  0  0  0  0  0  0  0  0  # atno 17371 bound_to 10713
  140.8368  133.8236  155.9036 LP  0  0  0  0  0  0  0  0  0  0  0  0  # atno 17394 bound_to 11000
  140.9276  134.2063  157.4885 LP  0  0  0  0  0  0  0  0  0  0  0  0  # atno 17395 bound_to 11000

$$$$
