AV-unprocessed.smi:276|AV-procd|sdf|2077|dock4
  -GOLD-   2262021343D 1   1.00000     0.00000
 Structure written by MMmdl.
 57 61  0  0  0  0  0  0  0  0  1 V2000
  147.5484  133.9438  162.2754 C   0  0  0  0  0  0  0  0  0  0  0  0
  147.3045  133.3284  161.0232 O   0  0  0  0  0  0  0  0  0  0  0  0
  148.1042  133.8719  159.9848 C   0  0  1  0  0  0  0  0  0  0  0  0
  147.7346  133.3865  158.5778 C   0  0  0  0  0  0  0  0  0  0  0  0
  147.9378  134.8290  158.0731 C   0  0  2  0  0  0  0  0  0  0  0  0
  149.3056  135.0391  157.5768 N   0  0  0  0  0  0  0  0  0  0  0  0
  149.7426  134.1527  156.5023 C   0  0  0  0  0  0  0  0  0  0  0  0
  149.6456  136.3150  157.2873 C   0  0  0  0  0  0  0  0  0  0  0  0
  148.9980  136.9021  156.2502 N   0  0  0  0  0  0  0  0  0  0  0  0
  149.2911  138.1590  155.9035 C   0  0  0  0  0  0  0  0  0  0  0  0
  150.1777  138.9916  156.4531 N   0  0  0  0  0  0  0  0  0  0  0  0
  150.8188  138.4090  157.5065 C   0  0  0  0  0  0  0  0  0  0  0  0
  150.6135  137.0870  157.9927 C   0  0  0  0  0  0  0  0  0  0  0  0
  151.4434  136.8515  159.0830 N   0  0  0  0  0  0  0  0  0  0  0  0
  152.1097  137.9645  159.2245 C   0  0  0  0  0  0  0  0  0  0  0  0
  151.7990  138.9518  158.3179 N   0  0  0  0  0  0  0  0  0  0  0  0
  152.3896  140.2765  158.2445 C   0  0  0  0  0  0  0  0  0  0  0  0
  152.5222  140.9363  159.6308 C   0  0  1  0  0  0  0  0  0  0  0  0
  153.6268  140.3732  160.3129 O   0  0  0  0  0  0  0  0  0  0  0  0
  152.7233  142.4594  159.5329 C   0  0  2  0  0  0  0  0  0  0  0  0
  152.7584  143.1841  160.8797 C   0  0  0  0  0  0  0  0  0  0  0  0
  152.3260  144.6005  160.5356 C   0  0  0  0  0  0  0  0  0  0  0  0
  151.6936  144.4701  159.1472 C   0  0  0  0  0  0  0  0  0  0  0  0
  151.6067  143.0726  158.9072 O   0  0  0  0  0  0  0  0  0  0  0  0
  147.6747  135.2803  159.5361 C   0  0  0  0  0  0  0  0  0  0  0  0
  146.2834  135.8166  159.9207 C   0  0  0  0  0  0  0  0  0  0  0  0
  146.9615  136.6266  161.0291 C   0  0  0  0  0  0  0  0  0  0  0  0
  148.2525  136.5390  160.2116 C   0  0  0  0  0  0  0  0  0  0  0  0
  146.9106  133.4925  163.0351 H   0  0  0  0  0  0  0  0  0  0  0  0
  147.3252  135.0108  162.2387 H   0  0  0  0  0  0  0  0  0  0  0  0
  148.5856  133.8140  162.5870 H   0  0  0  0  0  0  0  0  0  0  0  0
  149.1765  133.8196  160.1850 H   0  0  0  0  0  0  0  0  0  0  0  0
  148.4055  132.6273  158.1772 H   0  0  0  0  0  0  0  0  0  0  0  0
  146.6940  133.0656  158.5061 H   0  0  0  0  0  0  0  0  0  0  0  0
  147.1584  135.1304  157.3734 H   0  0  0  0  0  0  0  0  0  0  0  0
  150.6087  134.5451  155.9660 H   0  0  0  0  0  0  0  0  0  0  0  0
  148.9399  134.0009  155.7796 H   0  0  0  0  0  0  0  0  0  0  0  0
  150.0276  133.1811  156.9045 H   0  0  0  0  0  0  0  0  0  0  0  0
  148.7367  138.5531  155.0648 H   0  0  0  0  0  0  0  0  0  0  0  0
  152.8532  138.0962  159.9973 H   0  0  0  0  0  0  0  0  0  0  0  0
  153.3635  140.2028  157.7589 H   0  0  0  0  0  0  0  0  0  0  0  0
  151.7642  140.8882  157.5932 H   0  0  0  0  0  0  0  0  0  0  0  0
  151.6249  140.7278  160.2153 H   0  0  0  0  0  0  0  0  0  0  0  0
  153.5937  139.4338  160.2135 H   0  0  0  0  0  0  0  0  0  0  0  0
  153.6229  142.6924  158.9595 H   0  0  0  0  0  0  0  0  0  0  0  0
  152.0359  142.7399  161.5659 H   0  0  0  0  0  0  0  0  0  0  0  0
  153.7395  143.1434  161.3538 H   0  0  0  0  0  0  0  0  0  0  0  0
  151.6166  144.9817  161.2708 H   0  0  0  0  0  0  0  0  0  0  0  0
  153.1778  145.2808  160.5057 H   0  0  0  0  0  0  0  0  0  0  0  0
  150.7108  144.9385  159.0887 H   0  0  0  0  0  0  0  0  0  0  0  0
  152.3336  144.9260  158.3904 H   0  0  0  0  0  0  0  0  0  0  0  0
  145.8502  136.4512  159.1456 H   0  0  0  0  0  0  0  0  0  0  0  0
  145.5684  135.0704  160.2681 H   0  0  0  0  0  0  0  0  0  0  0  0
  146.5713  137.6358  161.1630 H   0  0  0  0  0  0  0  0  0  0  0  0
  147.0211  136.0842  161.9742 H   0  0  0  0  0  0  0  0  0  0  0  0
  149.1561  136.3735  160.7989 H   0  0  0  0  0  0  0  0  0  0  0  0
  148.3552  137.3962  159.5470 H   0  0  0  0  0  0  0  0  0  0  0  0
  1  2  1  0  0  0  0
  1 29  1  0  0  0  0
  1 30  1  0  0  0  0
  1 31  1  0  0  0  0
  2  3  1  0  0  0  0
  3 25  1  0  0  0  0
  3  4  1  0  0  0  0
  3 32  1  0  0  0  0
  4  5  1  0  0  0  0
  4 33  1  0  0  0  0
  4 34  1  0  0  0  0
  5  6  1  0  0  0  0
  5 25  1  0  0  0  0
  5 35  1  0  0  0  0
  6  7  1  0  0  0  0
  6  8  1  0  0  0  0
  7 36  1  0  0  0  0
  7 37  1  0  0  0  0
  7 38  1  0  0  0  0
  8 13  1  0  0  0  0
  8  9  2  0  0  0  0
  9 10  1  0  0  0  0
 10 11  2  0  0  0  0
 10 39  1  0  0  0  0
 11 12  1  0  0  0  0
 12 16  1  0  0  0  0
 12 13  2  0  0  0  0
 13 14  1  0  0  0  0
 14 15  2  0  0  0  0
 15 16  1  0  0  0  0
 15 40  1  0  0  0  0
 16 17  1  0  0  0  0
 17 18  1  0  0  0  0
 17 41  1  0  0  0  0
 17 42  1  0  0  0  0
 18 19  1  0  0  0  0
 18 20  1  0  0  0  0
 18 43  1  0  0  0  0
 19 44  1  0  0  0  0
 20 24  1  0  0  0  0
 20 21  1  0  0  0  0
 20 45  1  0  0  0  0
 21 22  1  0  0  0  0
 21 46  1  0  0  0  0
 21 47  1  0  0  0  0
 22 23  1  0  0  0  0
 22 48  1  0  0  0  0
 22 49  1  0  0  0  0
 23 24  1  0  0  0  0
 23 50  1  0  0  0  0
 23 51  1  0  0  0  0
 25 28  1  0  0  0  0
 25 26  1  0  0  0  0
 26 27  1  0  0  0  0
 26 52  1  0  0  0  0
 26 53  1  0  0  0  0
 27 28  1  0  0  0  0
 27 54  1  0  0  0  0
 27 55  1  0  0  0  0
 28 56  1  0  0  0  0
 28 57  1  0  0  0  0
M  END
> <s_m_source_file>
AV-unprocessed.smi

> <i_m_source_file_index>
276

> <i_lp_mmshare_version>
43012

> <i_f3d_flags>
0

> <s_epik_input>
W0NIMl0xW0NIMl1bQ0gyXUMxMltDQEhdKE9bQ0gzXSlbQ0gyXVtDQEhdMk4oW0NIM10pYyhuW2NIXW4zKWMoYzM0KW5bY0hdbjRbQ0gyXVtDQEhdKFtPSF0pW0NAQEhdNVtDSDJdW0NIMl1bQ0gyXU81

> <s_epik_cmdline>
J2VwaWtfcHl0aG9uJywgJy1waCcsICc3LjAnLCAnLXRuJywgJzgnLCAnLW1hJywgJzIwMCcsICctbWV0YWxfYmluZGluZycsICctaW1hZScsICc8aW5maWxlLm1hZT4nLCAnLW9tYWUnLCAnPG91dGZpbGUubWFlPic=

> <r_lp_tautomer_probability>
1

> <r_epik_Ionization_Penalty>
0.00204117

> <r_epik_Ionization_Penalty_Charging>
0

> <r_epik_Ionization_Penalty_Neutral>
0.00204117

> <r_epik_State_Penalty>
0.00127401

> <r_epik_Charging_Adjusted_Penalty>
0.00127401

> <i_epik_Tot_Q>
0

> <i_epik_Tot_abs_Q>
0

> <r_epik_Metal_State_Penalty>
-0

> <b_epik_Metal_Only>
0

> <s_lp_Force_Field>
OPLS_2005

> <r_lp_Energy>
57.0409

> <b_lp_Chiralities_Consistent>
1

> <s_lp_Variant>
AV-unprocessed.smi:276-8

> <Gold.Version>
5.8.1

> <Gold.Id.Protein>
6NUR|6NUR_protein|mol2

> <Gold.PLP.Fitness>
43.4189

> <Gold.PLP.PLP>
-39.5539

> <Gold.PLP.part.hbond>
-2.0000

> <Gold.PLP.part.metal>
0.0000

> <Gold.PLP.part.buried>
-6.9855

> <Gold.PLP.part.nonpolar>
-31.7392

> <Gold.PLP.part.repulsive>
0.0457

> <Gold.PLP.ligand.clash>
0.0000

> <Gold.PLP.ligand.torsion>
0.7346

> <Gold.PLP.Chemscore.Hbond>
1.5189

> <Gold.PLP.Chemscore.CHOScore>
0.0000

> <Gold.PLP.Chemscore.Metal>
0.0000

> <Gold.Chemscore.Hbonds>
donor molecule, donor type, donor heavy atom, donor atom, acceptor molecule, acceptor atom, score
      P1  H  6896  6908       L1     6  0.06
      P1  H  6896  6909       L1    14  0.55

> <Gold.PLP.Chemscore.Internal.Correction>
0.7773

> <Gold.Rescore>
     Score         DG    S(hbond)    S(metal)    S(lipo)     H(rot)  DE(clash)    DE(int)     intcor
     13.16     -13.99       0.91        0.00     106.10       2.72       0.03       0.80       ----

> <Gold.Chemscore.Fitness>
13.1649

> <Gold.Chemscore.DG>
-13.9922

> <Gold.Chemscore.ZeroCoef>
-5.4800

> <Gold.Chemscore.Hbond>
0.9146

> <Gold.Chemscore.Metal>
0.0000

> <Gold.Chemscore.Lipo>
106.0976

> <Gold.Chemscore.Internal_Hbond>
0.0000

> <Gold.Chemscore.DEClash>
0.0310

> <Gold.Chemscore.DEInternal>
0.7963

> <Gold.Chemscore.Rot>
2.7172

> <Gold.Chemscore.Internal.Correction>
   9.000000E+99

> <Gold.Chemscore.Hbonds>
donor molecule, donor type, donor heavy atom, donor atom, acceptor molecule, acceptor atom, score
      P1  H  6896  6908       L1     6  0.01
      P1  H  6896  6909       L1    14  0.53

> <Gold.Chemscore.Hbond.Weighted>
-3.0548

> <Gold.Chemscore.Metal.Weighted>
-0.0000

> <Gold.Chemscore.Lipo.Weighted>
-12.4134

> <Gold.Chemscore.Internal_Hbond.Weighted>
0.0000

> <Gold.Chemscore.DEClash.Weighted>
0.0310

> <Gold.Chemscore.DEInternal.Weighted>
0.7963

> <Gold.Chemscore.Rot.Weighted>
6.9560

> <Gold.Chemscore.Internal.Correction.Weighted>
   9.000000E+99

> <Gold.Protein.RotatedTorsions>
[ 6907 6896 6895 6894 ] final  143.40 input  -60.11 | X-H torsion
[ 7974 7965 7964 7962 ] final  -94.16 input  175.53 | X-H torsion
[ 8008 7997 7996 7995 ] final   34.66 input   59.86 | X-H torsion
[ 10167 10162 10161 10158 ] final  -58.42 input  -65.29 | X-H torsion
[ 10718 10713 10712 10709 ] final -156.33 input   66.30 | X-H torsion
[ 10763 10752 10751 10750 ] final  -79.45 input  -60.55 | X-H torsion
[ 11005 11000 10999 10996 ] final -115.58 input  -57.11 | X-H torsion

> <Gold.Protein.ActiveResidues>
 VAL166  LYS551  ARG553  GLY616  TRP617  ASP618  TYR619  PRO620  LYS621  CYS622 
 ASP623  PHE694  ASN695  SER759  ASP760  ASP761  ALA762  ILE779  LEU786  VAL792 
 PHE793  MET794  SER795  GLU796  ALA797  LYS798  CYS799  TRP800  GLU811  SER814 

> <Gold.Protein.RotatedAtoms>
  152.2068  133.4881  159.5087 H   0  0  0  0  0  0  0  0  0  0  0  0  # atno 6907 bound_to 6896
  150.6981  134.1519  159.4153 H   0  0  0  0  0  0  0  0  0  0  0  0  # atno 6908 bound_to 6896
  151.9438  135.0201  160.0588 H   0  0  0  0  0  0  0  0  0  0  0  0  # atno 6909 bound_to 6896
  145.3770  140.9513  143.2415 H   0  0  0  0  0  0  0  0  0  0  0  0  # atno 7974 bound_to 7965
  155.1584  140.3281  155.4416 H   0  0  0  0  0  0  0  0  0  0  0  0  # atno 8008 bound_to 7997
  156.2551  140.1964  156.6643 H   0  0  0  0  0  0  0  0  0  0  0  0  # atno 8009 bound_to 7997
  154.6422  140.0569  156.9845 H   0  0  0  0  0  0  0  0  0  0  0  0  # atno 8010 bound_to 7997
  140.6198  143.2415  151.5508 H   0  0  0  0  0  0  0  0  0  0  0  0  # atno 10167 bound_to 10162
  156.5251  130.8495  151.2696 H   0  0  0  0  0  0  0  0  0  0  0  0  # atno 10718 bound_to 10713
  154.5388  135.5695  153.6821 H   0  0  0  0  0  0  0  0  0  0  0  0  # atno 10763 bound_to 10752
  152.9958  135.6222  154.2530 H   0  0  0  0  0  0  0  0  0  0  0  0  # atno 10764 bound_to 10752
  154.2460  135.2861  155.2815 H   0  0  0  0  0  0  0  0  0  0  0  0  # atno 10765 bound_to 10752
  141.0478  133.9734  157.2887 H   0  0  0  0  0  0  0  0  0  0  0  0  # atno 11005 bound_to 11000
  144.8535  139.5285  143.6845 LP  0  0  0  0  0  0  0  0  0  0  0  0  # atno 17320 bound_to 7965
  146.2859  139.7004  142.9195 LP  0  0  0  0  0  0  0  0  0  0  0  0  # atno 17321 bound_to 7965
  139.5429  144.2598  152.1386 LP  0  0  0  0  0  0  0  0  0  0  0  0  # atno 17342 bound_to 10162
  140.1816  144.4839  150.6525 LP  0  0  0  0  0  0  0  0  0  0  0  0  # atno 17343 bound_to 10162
  157.7431  130.9904  150.2564 LP  0  0  0  0  0  0  0  0  0  0  0  0  # atno 17370 bound_to 10713
  156.3113  130.3772  149.7659 LP  0  0  0  0  0  0  0  0  0  0  0  0  # atno 17371 bound_to 10713
  139.9326  135.0199  156.8450 LP  0  0  0  0  0  0  0  0  0  0  0  0  # atno 17394 bound_to 11000
  140.6113  134.0080  155.7578 LP  0  0  0  0  0  0  0  0  0  0  0  0  # atno 17395 bound_to 11000

$$$$
