AV-unprocessed.smi:86|AV-procd|sdf|818|dock2
  -GOLD-   2262017223D 1   1.00000     0.00000
 Structure written by MMmdl.
 51 55  0  0  0  0  0  0  0  0  1 V2000
  147.4696  136.0149  153.6695 O   0  0  0  0  0  0  0  0  0  0  0  0
  147.3110  136.9232  154.7405 C   0  0  0  0  0  0  0  0  0  0  0  0
  146.4733  138.1436  154.3216 C   0  0  0  0  0  0  0  0  0  0  0  0
  147.3231  139.1120  153.4733 C   0  0  0  0  0  0  0  0  0  0  0  0
  148.4402  139.6980  154.1994 N   0  0  0  0  0  0  0  0  0  0  0  0
  149.7792  139.4768  153.9686 C   0  0  0  0  0  0  0  0  0  0  0  0
  150.5944  140.1241  154.7551 N   0  0  0  0  0  0  0  0  0  0  0  0
  149.7558  140.8392  155.6010 C   0  0  0  0  0  0  0  0  0  0  0  0
  149.9627  141.7411  156.6831 C   0  0  0  0  0  0  0  0  0  0  0  0
  151.1659  142.1276  157.1554 N   0  0  0  0  0  0  0  0  0  0  0  0
  151.4528  141.8327  158.5509 C   0  0  0  0  0  0  0  0  0  0  0  0
  152.6250  142.7509  158.8851 C   0  0  2  0  0  0  0  0  0  0  0  0
  152.9465  142.9348  160.3815 C   0  0  0  0  0  0  0  0  0  0  0  0
  151.9670  143.8740  161.0987 C   0  0  0  0  0  0  0  0  0  0  0  0
  151.8677  145.2159  160.3592 C   0  0  2  0  0  0  0  0  0  0  0  0
  150.9715  146.0640  161.0457 O   0  0  0  0  0  0  0  0  0  0  0  0
  151.3633  144.9958  158.9264 C   0  0  0  0  0  0  0  0  0  0  0  0
  152.2717  144.0393  158.1224 C   0  0  2  0  0  0  0  0  0  0  0  0
  151.5490  143.5077  156.8699 C   0  0  0  0  0  0  0  0  0  0  0  0
  148.8717  142.2495  157.3054 N   0  0  0  0  0  0  0  0  0  0  0  0
  147.6476  141.9072  156.8936 C   0  0  0  0  0  0  0  0  0  0  0  0
  147.3000  141.0874  155.8993 N   0  0  0  0  0  0  0  0  0  0  0  0
  148.3966  140.5715  155.2733 C   0  0  0  0  0  0  0  0  0  0  0  0
  145.0766  137.8145  153.7769 C   0  0  0  0  0  0  0  0  0  0  0  0
  144.4467  138.1435  155.0334 O   0  0  0  0  0  0  0  0  0  0  0  0
  145.6681  138.7794  155.4645 C   0  0  0  0  0  0  0  0  0  0  0  0
  148.1951  136.3020  153.1362 H   0  0  0  0  0  0  0  0  0  0  0  0
  146.8282  136.3890  155.5596 H   0  0  0  0  0  0  0  0  0  0  0  0
  148.2935  137.2163  155.1099 H   0  0  0  0  0  0  0  0  0  0  0  0
  147.7092  138.6167  152.5819 H   0  0  0  0  0  0  0  0  0  0  0  0
  146.7069  139.9326  153.1036 H   0  0  0  0  0  0  0  0  0  0  0  0
  150.1378  138.8162  153.1929 H   0  0  0  0  0  0  0  0  0  0  0  0
  150.5949  142.0471  159.1875 H   0  0  0  0  0  0  0  0  0  0  0  0
  151.7167  140.7828  158.6809 H   0  0  0  0  0  0  0  0  0  0  0  0
  153.5079  142.3159  158.4128 H   0  0  0  0  0  0  0  0  0  0  0  0
  152.9746  141.9660  160.8810 H   0  0  0  0  0  0  0  0  0  0  0  0
  153.9507  143.3505  160.4718 H   0  0  0  0  0  0  0  0  0  0  0  0
  150.9837  143.4054  161.1602 H   0  0  0  0  0  0  0  0  0  0  0  0
  152.2990  144.0336  162.1252 H   0  0  0  0  0  0  0  0  0  0  0  0
  152.8444  145.7009  160.3378 H   0  0  0  0  0  0  0  0  0  0  0  0
  151.4649  146.5916  161.6550 H   0  0  0  0  0  0  0  0  0  0  0  0
  150.3524  144.5923  158.9721 H   0  0  0  0  0  0  0  0  0  0  0  0
  151.2849  145.9499  158.4038 H   0  0  0  0  0  0  0  0  0  0  0  0
  153.1830  144.5720  157.8477 H   0  0  0  0  0  0  0  0  0  0  0  0
  152.2298  143.4990  156.0181 H   0  0  0  0  0  0  0  0  0  0  0  0
  150.6952  144.1299  156.5960 H   0  0  0  0  0  0  0  0  0  0  0  0
  146.8294  142.3548  157.4384 H   0  0  0  0  0  0  0  0  0  0  0  0
  144.7458  138.4748  152.9738 H   0  0  0  0  0  0  0  0  0  0  0  0
  144.9395  136.7685  153.5004 H   0  0  0  0  0  0  0  0  0  0  0  0
  145.9804  138.4622  156.4602 H   0  0  0  0  0  0  0  0  0  0  0  0
  145.5912  139.8659  155.4084 H   0  0  0  0  0  0  0  0  0  0  0  0
  1  2  1  0  0  0  0
  1 27  1  0  0  0  0
  2  3  1  0  0  0  0
  2 28  1  0  0  0  0
  2 29  1  0  0  0  0
  3 26  1  0  0  0  0
  3  4  1  0  0  0  0
  3 24  1  0  0  0  0
  4  5  1  0  0  0  0
  4 30  1  0  0  0  0
  4 31  1  0  0  0  0
  5 23  1  0  0  0  0
  5  6  1  0  0  0  0
  6  7  2  0  0  0  0
  6 32  1  0  0  0  0
  7  8  1  0  0  0  0
  8 23  2  0  0  0  0
  8  9  1  0  0  0  0
  9 10  1  0  0  0  0
  9 20  2  0  0  0  0
 10 19  1  0  0  0  0
 10 11  1  0  0  0  0
 11 12  1  0  0  0  0
 11 33  1  0  0  0  0
 11 34  1  0  0  0  0
 12 18  1  0  0  0  0
 12 13  1  0  0  0  0
 12 35  1  0  0  0  0
 13 14  1  0  0  0  0
 13 36  1  0  0  0  0
 13 37  1  0  0  0  0
 14 15  1  0  0  0  0
 14 38  1  0  0  0  0
 14 39  1  0  0  0  0
 15 16  1  0  0  0  0
 15 17  1  0  0  0  0
 15 40  1  0  0  0  0
 16 41  1  0  0  0  0
 17 18  1  0  0  0  0
 17 42  1  0  0  0  0
 17 43  1  0  0  0  0
 18 19  1  0  0  0  0
 18 44  1  0  0  0  0
 19 45  1  0  0  0  0
 19 46  1  0  0  0  0
 20 21  1  0  0  0  0
 21 22  2  0  0  0  0
 21 47  1  0  0  0  0
 22 23  1  0  0  0  0
 24 25  1  0  0  0  0
 24 48  1  0  0  0  0
 24 49  1  0  0  0  0
 25 26  1  0  0  0  0
 26 50  1  0  0  0  0
 26 51  1  0  0  0  0
M  END
> <s_m_source_file>
AV-unprocessed.smi

> <i_m_source_file_index>
86

> <i_lp_mmshare_version>
43012

> <i_f3d_flags>
0

> <s_epik_input>
W0NIMl0xT1tDSDJdQzEoW0NIMl1bT0hdKVtDSDJdbihbY0hdbjIpYyhjMjMpbltjSF1uYzNOKFtDSDJdNClbQ0gyXVtDQEBIXShbQ0BIXTQ1KVtDSDJdW0NASF0oW09IXSlbQ0gyXVtDSDJdNQ==

> <s_epik_cmdline>
J2VwaWtfcHl0aG9uJywgJy1waCcsICc3LjAnLCAnLXRuJywgJzgnLCAnLW1hJywgJzIwMCcsICctbWV0YWxfYmluZGluZycsICctaW1hZScsICc8aW5maWxlLm1hZT4nLCAnLW9tYWUnLCAnPG91dGZpbGUubWFlPic=

> <r_lp_tautomer_probability>
1

> <r_epik_Ionization_Penalty>
0.00425795

> <r_epik_Ionization_Penalty_Charging>
0

> <r_epik_Ionization_Penalty_Neutral>
0.00425795

> <r_epik_State_Penalty>
0.00299946

> <r_epik_Charging_Adjusted_Penalty>
0.00299946

> <i_epik_Tot_Q>
0

> <i_epik_Tot_abs_Q>
0

> <r_epik_Metal_State_Penalty>
-0

> <b_epik_Metal_Only>
0

> <s_lp_Force_Field>
OPLS_2005

> <r_lp_Energy>
56.4675

> <b_lp_Chiralities_Consistent>
1

> <s_lp_Variant>
AV-unprocessed.smi:86-7

> <Gold.Version>
5.8.1

> <Gold.Id.Protein>
6NUR|6NUR_protein|mol2

> <Gold.PLP.Fitness>
47.7362

> <Gold.PLP.PLP>
-41.1392

> <Gold.PLP.part.hbond>
-3.9406

> <Gold.PLP.part.metal>
0.0000

> <Gold.PLP.part.buried>
-2.5378

> <Gold.PLP.part.nonpolar>
-36.4214

> <Gold.PLP.part.repulsive>
1.6915

> <Gold.PLP.ligand.clash>
0.0000

> <Gold.PLP.ligand.torsion>
0.5044

> <Gold.PLP.Chemscore.Hbond>
1.9500

> <Gold.PLP.Chemscore.CHOScore>
0.4316

> <Gold.PLP.Chemscore.Metal>
0.0000

> <Gold.Chemscore.Hbonds>
donor molecule, donor type, donor heavy atom, donor atom, acceptor molecule, acceptor atom, score
      L1  H     1    27       P1  7948  0.87
      P1  H  7989  7998       L1     7  0.90
      L1  C     6    32       P1  7957  0.47

> <Gold.PLP.Chemscore.Internal.Correction>
0.4611

> <Gold.Rescore>
     Score         DG    S(hbond)    S(metal)    S(lipo)     H(rot)  DE(clash)    DE(int)     intcor
      9.92     -15.40       1.71        0.00     103.51       3.09       3.59       1.90       ----

> <Gold.Chemscore.Fitness>
9.9189

> <Gold.Chemscore.DG>
-15.4026

> <Gold.Chemscore.ZeroCoef>
-5.4800

> <Gold.Chemscore.Hbond>
1.7127

> <Gold.Chemscore.Metal>
0.0000

> <Gold.Chemscore.Lipo>
103.5074

> <Gold.Chemscore.Internal_Hbond>
0.0000

> <Gold.Chemscore.DEClash>
3.5856

> <Gold.Chemscore.DEInternal>
1.8980

> <Gold.Chemscore.Rot>
3.0892

> <Gold.Chemscore.Internal.Correction>
   9.000000E+99

> <Gold.Chemscore.Hbonds>
donor molecule, donor type, donor heavy atom, donor atom, acceptor molecule, acceptor atom, score
      L1  H     1    27       P1  7948  0.80
      P1  H  7989  7998       L1     7  0.18

> <Gold.Chemscore.Hbond.Weighted>
-5.7205

> <Gold.Chemscore.Metal.Weighted>
-0.0000

> <Gold.Chemscore.Lipo.Weighted>
-12.1104

> <Gold.Chemscore.Internal_Hbond.Weighted>
0.0000

> <Gold.Chemscore.DEClash.Weighted>
3.5856

> <Gold.Chemscore.DEInternal.Weighted>
1.8980

> <Gold.Chemscore.Rot.Weighted>
7.9083

> <Gold.Chemscore.Internal.Correction.Weighted>
   9.000000E+99

> <Gold.Protein.RotatedTorsions>
[ 6907 6896 6895 6894 ] final  149.47 input  -60.11 | X-H torsion
[ 7974 7965 7964 7962 ] final   49.38 input  175.53 | X-H torsion
[ 8008 7997 7996 7995 ] final  -90.98 input   59.86 | X-H torsion
[ 10167 10162 10161 10158 ] final  -42.75 input  -65.29 | X-H torsion
[ 10718 10713 10712 10709 ] final -155.39 input   66.30 | X-H torsion
[ 10763 10752 10751 10750 ] final   54.28 input  -60.55 | X-H torsion
[ 11005 11000 10999 10996 ] final  166.32 input  -57.11 | X-H torsion

> <Gold.Protein.ActiveResidues>
 VAL166  LYS551  ARG553  GLY616  TRP617  ASP618  TYR619  PRO620  LYS621  CYS622 
 ASP623  PHE694  ASN695  SER759  ASP760  ASP761  ALA762  ILE779  LEU786  VAL792 
 PHE793  MET794  SER795  GLU796  ALA797  LYS798  CYS799  TRP800  GLU811  SER814 

> <Gold.Protein.RotatedAtoms>
  152.1276  133.4389  159.4705 H   0  0  0  0  0  0  0  0  0  0  0  0  # atno 6907 bound_to 6896
  150.6876  134.2459  159.4500 H   0  0  0  0  0  0  0  0  0  0  0  0  # atno 6908 bound_to 6896
  152.0341  134.9750  160.0623 H   0  0  0  0  0  0  0  0  0  0  0  0  # atno 6909 bound_to 6896
  146.0114  139.4548  142.9953 H   0  0  0  0  0  0  0  0  0  0  0  0  # atno 7974 bound_to 7965
  154.7051  140.0524  157.0496 H   0  0  0  0  0  0  0  0  0  0  0  0  # atno 8008 bound_to 7997
  155.0631  140.3191  155.4635 H   0  0  0  0  0  0  0  0  0  0  0  0  # atno 8009 bound_to 7997
  156.2772  140.2095  156.5758 H   0  0  0  0  0  0  0  0  0  0  0  0  # atno 8010 bound_to 7997
  140.6958  143.3020  151.3254 H   0  0  0  0  0  0  0  0  0  0  0  0  # atno 10167 bound_to 10162
  156.5122  130.8440  151.2651 H   0  0  0  0  0  0  0  0  0  0  0  0  # atno 10718 bound_to 10713
  152.9803  135.5750  154.4878 H   0  0  0  0  0  0  0  0  0  0  0  0  # atno 10763 bound_to 10752
  154.4417  135.2776  155.1845 H   0  0  0  0  0  0  0  0  0  0  0  0  # atno 10764 bound_to 10752
  154.3510  135.6209  153.5696 H   0  0  0  0  0  0  0  0  0  0  0  0  # atno 10765 bound_to 10752
  140.2652  134.7871  157.3626 H   0  0  0  0  0  0  0  0  0  0  0  0  # atno 11005 bound_to 11000
  145.7336  141.0033  143.1339 LP  0  0  0  0  0  0  0  0  0  0  0  0  # atno 17320 bound_to 7965
  144.6954  139.9014  143.7458 LP  0  0  0  0  0  0  0  0  0  0  0  0  # atno 17321 bound_to 7965
  139.6412  144.0536  152.2556 LP  0  0  0  0  0  0  0  0  0  0  0  0  # atno 17342 bound_to 10162
  140.0042  144.6271  150.7703 LP  0  0  0  0  0  0  0  0  0  0  0  0  # atno 17343 bound_to 10162
  157.7449  130.9945  150.2712 LP  0  0  0  0  0  0  0  0  0  0  0  0  # atno 17370 bound_to 10713
  156.3229  130.3788  149.7559 LP  0  0  0  0  0  0  0  0  0  0  0  0  # atno 17371 bound_to 10713
  140.1426  134.4952  155.8020 LP  0  0  0  0  0  0  0  0  0  0  0  0  # atno 17394 bound_to 11000
  141.2185  133.6831  156.7238 LP  0  0  0  0  0  0  0  0  0  0  0  0  # atno 17395 bound_to 11000

$$$$
