AV-unprocessed.smi:2424|AV-procd|sdf|9572|dock10
  -GOLD-   2272013203D 1   1.00000     0.00000
 Structure written by MMmdl.
 49 50  0  0  0  0  0  0  0  0  2 V2000
  143.0549  135.1945  153.7995 C   0  0  0  0  0  0  0  0  0  0  0  0
  143.4111  135.6344  152.3689 C   0  0  0  0  0  0  0  0  0  0  0  0
  144.6158  134.9312  151.6971 C   0  0  0  0  0  0  0  0  0  0  0  0
  145.3446  136.0044  150.8379 C   0  0  0  0  0  0  0  0  0  0  0  0
  145.8892  137.2327  151.5918 C   0  0  0  0  0  0  0  0  0  0  0  0
  145.5346  134.0705  152.6178 C   0  0  2  0  0  0  0  0  0  0  0  0
  146.8016  134.6948  152.9842 N   0  0  0  0  0  0  0  0  0  0  0  0
  147.2817  134.7594  154.2330 C   0  0  0  0  0  0  0  0  0  0  0  0
  146.6952  134.2834  155.2046 O   0  0  0  0  0  0  0  0  0  0  0  0
  148.4593  135.4079  154.2585 N   0  0  0  0  0  0  0  0  0  0  0  0
  149.2799  135.6919  155.3576 C   0  0  0  0  0  0  0  0  0  0  0  0
  150.6483  135.5403  155.2609 C   0  0  0  0  0  0  0  0  0  0  0  0
  151.5938  135.7598  156.2000 N   0  5  0  0  0  0  0  0  0  0  0  0
  151.1904  136.1911  157.4294 C   0  0  0  0  0  0  0  0  0  0  0  0
  151.9945  136.4107  158.3345 O   0  0  0  0  0  0  0  0  0  0  0  0
  149.7487  136.3986  157.6737 C   0  0  0  0  0  0  0  0  0  0  0  0
  149.3030  136.8816  159.0436 C   0  0  0  0  0  0  0  0  0  0  0  0
  148.8583  136.1567  156.6791 C   0  0  0  0  0  0  0  0  0  0  0  0
  145.6899  133.0456  151.4896 C   0  0  1  0  0  0  0  0  0  0  0  0
  145.8608  131.5771  151.8570 C   0  0  0  0  0  0  0  0  0  0  0  0
  144.3256  133.5662  151.0089 C   0  0  2  0  0  0  0  0  0  0  0  0
  144.1931  133.6551  149.5989 O   0  0  0  0  0  0  0  0  0  0  0  0
  144.2602  132.4006  148.9444 C   0  0  0  0  0  0  0  0  0  0  0  0
  142.1410  135.6890  154.1289 H   0  0  0  0  0  0  0  0  0  0  0  0
  143.8333  135.4670  154.5119 H   0  0  0  0  0  0  0  0  0  0  0  0
  142.8833  134.1213  153.8713 H   0  0  0  0  0  0  0  0  0  0  0  0
  142.5201  135.4823  151.7595 H   0  0  0  0  0  0  0  0  0  0  0  0
  143.5741  136.7129  152.3913 H   0  0  0  0  0  0  0  0  0  0  0  0
  146.1816  135.5473  150.3092 H   0  0  0  0  0  0  0  0  0  0  0  0
  144.6844  136.3712  150.0522 H   0  0  0  0  0  0  0  0  0  0  0  0
  146.3054  137.9523  150.8867 H   0  0  0  0  0  0  0  0  0  0  0  0
  146.6912  136.9657  152.2795 H   0  0  0  0  0  0  0  0  0  0  0  0
  145.1183  137.7492  152.1608 H   0  0  0  0  0  0  0  0  0  0  0  0
  145.0216  133.6135  153.4652 H   0  0  0  0  0  0  0  0  0  0  0  0
  147.3428  135.1105  152.2404 H   0  0  0  0  0  0  0  0  0  0  0  0
  148.8085  135.7422  153.3722 H   0  0  0  0  0  0  0  0  0  0  0  0
  151.0422  135.1888  154.2829 H   0  0  0  0  0  0  0  0  0  0  0  0
  148.2199  136.9988  159.0918 H   0  0  0  0  0  0  0  0  0  0  0  0
  149.7566  137.8462  159.2737 H   0  0  0  0  0  0  0  0  0  0  0  0
  149.5995  136.1687  159.8136 H   0  0  0  0  0  0  0  0  0  0  0  0
  147.8149  136.3199  156.8946 H   0  0  0  0  0  0  0  0  0  0  0  0
  146.4710  133.3603  150.7952 H   0  0  0  0  0  0  0  0  0  0  0  0
  145.0354  131.2216  152.4743 H   0  0  0  0  0  0  0  0  0  0  0  0
  146.7820  131.4192  152.4179 H   0  0  0  0  0  0  0  0  0  0  0  0
  145.9064  130.9454  150.9706 H   0  0  0  0  0  0  0  0  0  0  0  0
  143.4918  133.0344  151.4706 H   0  0  0  0  0  0  0  0  0  0  0  0
  144.0923  132.5391  147.8764 H   0  0  0  0  0  0  0  0  0  0  0  0
  143.4968  131.7171  149.3182 H   0  0  0  0  0  0  0  0  0  0  0  0
  145.2386  131.9382  149.0691 H   0  0  0  0  0  0  0  0  0  0  0  0
  1  2  1  0  0  0  0
  1 24  1  0  0  0  0
  1 25  1  0  0  0  0
  1 26  1  0  0  0  0
  2  3  1  0  0  0  0
  2 27  1  0  0  0  0
  2 28  1  0  0  0  0
  3 21  1  0  0  0  0
  3  4  1  0  0  0  0
  3  6  1  0  0  0  0
  4  5  1  0  0  0  0
  4 29  1  0  0  0  0
  4 30  1  0  0  0  0
  5 31  1  0  0  0  0
  5 32  1  0  0  0  0
  5 33  1  0  0  0  0
  6  7  1  0  0  0  0
  6 19  1  0  0  0  0
  6 34  1  0  0  0  0
  7  8  1  0  0  0  0
  7 35  1  0  0  0  0
  8  9  2  0  0  0  0
  8 10  1  0  0  0  0
 10 11  1  0  0  0  0
 10 36  1  0  0  0  0
 11 18  1  0  0  0  0
 11 12  2  0  0  0  0
 12 13  1  0  0  0  0
 12 37  1  0  0  0  0
 13 14  1  0  0  0  0
 14 15  2  0  0  0  0
 14 16  1  0  0  0  0
 16 17  1  0  0  0  0
 16 18  2  0  0  0  0
 17 38  1  0  0  0  0
 17 39  1  0  0  0  0
 17 40  1  0  0  0  0
 18 41  1  0  0  0  0
 19 20  1  0  0  0  0
 19 21  1  0  0  0  0
 19 42  1  0  0  0  0
 20 43  1  0  0  0  0
 20 44  1  0  0  0  0
 20 45  1  0  0  0  0
 21 22  1  0  0  0  0
 21 46  1  0  0  0  0
 22 23  1  0  0  0  0
 23 47  1  0  0  0  0
 23 48  1  0  0  0  0
 23 49  1  0  0  0  0
M  CHG  1  13  -1
M  END
> <s_m_source_file>
AV-unprocessed.smi

> <i_m_source_file_index>
2424

> <i_lp_mmshare_version>
43012

> <i_f3d_flags>
0

> <s_epik_input>
W0NIM11PW0NAQEhdMVtDQEhdKFtDSDNdKVtDQEBIXShDMShbQ0gyXVtDSDNdKVtDSDJdW0NIM10pW05IXUMoPU8pW05IXWMyW2NIXVtuSF1jKD1PKWMoW0NIM10pW2NIXTI=

> <s_epik_cmdline>
J2VwaWtfcHl0aG9uJywgJy1waCcsICc3LjAnLCAnLXRuJywgJzgnLCAnLW1hJywgJzIwMCcsICctbWV0YWxfYmluZGluZycsICctaW1hZScsICc8aW5maWxlLm1hZT4nLCAnLW9tYWUnLCAnPG91dGZpbGUubWFlPic=

> <r_lp_tautomer_probability>
1

> <r_epik_Ionization_Penalty>
7.6122

> <r_epik_Ionization_Penalty_Charging>
1.53843

> <r_epik_Ionization_Penalty_Neutral>
6.07377

> <r_epik_State_Penalty>
6.07371

> <r_epik_Charging_Adjusted_Penalty>
7.61214

> <i_epik_Tot_Q>
-1

> <i_epik_Tot_abs_Q>
1

> <r_epik_Metal_State_Penalty>
2.02136

> <b_epik_Metal_Only>
1

> <s_lp_Force_Field>
OPLS_2005

> <r_lp_Energy>
40.6297

> <b_lp_Chiralities_Consistent>
1

> <s_lp_Variant>
AV-unprocessed.smi:2424-14

> <Gold.Version>
5.8.1

> <Gold.Id.Protein>
6NUR|6NUR_protein|mol2

> <Gold.PLP.Fitness>
42.0033

> <Gold.PLP.PLP>
-30.9578

> <Gold.PLP.part.hbond>
-4.0000

> <Gold.PLP.part.metal>
0.0000

> <Gold.PLP.part.buried>
-1.7192

> <Gold.PLP.part.nonpolar>
-26.0742

> <Gold.PLP.part.repulsive>
1.1604

> <Gold.PLP.ligand.clash>
0.0000

> <Gold.PLP.ligand.torsion>
1.2750

> <Gold.PLP.Chemscore.Hbond>
4.3453

> <Gold.PLP.Chemscore.CHOScore>
0.0000

> <Gold.PLP.Chemscore.Metal>
0.0000

> <Gold.Chemscore.Hbonds>
donor molecule, donor type, donor heavy atom, donor atom, acceptor molecule, acceptor atom, score
      L1  H     7    35       P1  7948  0.90
      L1  H    10    36       P1  7948  1.00
      P1  H  6896  6907       L1    15  0.43
      P1  H 10752 10765       L1    13  2.00

> <Gold.PLP.Chemscore.Internal.Correction>
0.5597

> <Gold.Rescore>
     Score         DG    S(hbond)    S(metal)    S(lipo)     H(rot)  DE(clash)    DE(int)     intcor
     17.56     -18.90       2.52        0.00      76.05       1.52       0.19       1.15       ----

> <Gold.Chemscore.Fitness>
17.5553

> <Gold.Chemscore.DG>
-18.8978

> <Gold.Chemscore.ZeroCoef>
-5.4800

> <Gold.Chemscore.Hbond>
2.5186

> <Gold.Chemscore.Metal>
0.0000

> <Gold.Chemscore.Lipo>
76.0516

> <Gold.Chemscore.Internal_Hbond>
0.0000

> <Gold.Chemscore.DEClash>
0.1923

> <Gold.Chemscore.DEInternal>
1.1502

> <Gold.Chemscore.Rot>
1.5204

> <Gold.Chemscore.Internal.Correction>
   9.000000E+99

> <Gold.Chemscore.Hbonds>
donor molecule, donor type, donor heavy atom, donor atom, acceptor molecule, acceptor atom, score
      L1  H     7    35       P1  7948  0.86
      L1  H    10    36       P1  7948  0.93
      P1  H  6896  6907       L1    15  0.33
      P1  H 10752 10765       L1    13  0.37

> <Gold.Chemscore.Hbond.Weighted>
-8.4120

> <Gold.Chemscore.Metal.Weighted>
-0.0000

> <Gold.Chemscore.Lipo.Weighted>
-8.8980

> <Gold.Chemscore.Internal_Hbond.Weighted>
0.0000

> <Gold.Chemscore.DEClash.Weighted>
0.1923

> <Gold.Chemscore.DEInternal.Weighted>
1.1502

> <Gold.Chemscore.Rot.Weighted>
3.8922

> <Gold.Chemscore.Internal.Correction.Weighted>
   9.000000E+99

> <Gold.Protein.RotatedTorsions>
[ 6907 6896 6895 6894 ] final    5.42 input  -60.11 | X-H torsion
[ 7974 7965 7964 7962 ] final  113.81 input  175.53 | X-H torsion
[ 8008 7997 7996 7995 ] final -123.54 input   59.86 | X-H torsion
[ 10167 10162 10161 10158 ] final  -29.39 input  -65.29 | X-H torsion
[ 10718 10713 10712 10709 ] final   70.16 input   66.30 | X-H torsion
[ 10763 10752 10751 10750 ] final -135.97 input  -60.55 | X-H torsion
[ 11005 11000 10999 10996 ] final  -71.93 input  -57.11 | X-H torsion

> <Gold.Protein.ActiveResidues>
 VAL166  LYS551  ARG553  GLY616  TRP617  ASP618  TYR619  PRO620  LYS621  CYS622 
 ASP623  PHE694  ASN695  SER759  ASP760  ASP761  ALA762  ILE779  LEU786  VAL792 
 PHE793  MET794  SER795  GLU796  ALA797  LYS798  CYS799  TRP800  GLU811  SER814 

> <Gold.Protein.RotatedAtoms>
  151.6572  135.0994  160.0172 H   0  0  0  0  0  0  0  0  0  0  0  0  # atno 6907 bound_to 6896
  152.3967  133.6753  159.6291 H   0  0  0  0  0  0  0  0  0  0  0  0  # atno 6908 bound_to 6896
  150.7873  133.8778  159.3318 H   0  0  0  0  0  0  0  0  0  0  0  0  # atno 6909 bound_to 6896
  145.2123  139.2900  143.4262 H   0  0  0  0  0  0  0  0  0  0  0  0  # atno 7974 bound_to 7965
  155.1822  140.0411  157.2884 H   0  0  0  0  0  0  0  0  0  0  0  0  # atno 8008 bound_to 7997
  154.6196  140.2497  155.7538 H   0  0  0  0  0  0  0  0  0  0  0  0  # atno 8009 bound_to 7997
  156.2426  140.2898  156.0497 H   0  0  0  0  0  0  0  0  0  0  0  0  # atno 8010 bound_to 7997
  140.7261  143.3933  151.1392 H   0  0  0  0  0  0  0  0  0  0  0  0  # atno 10167 bound_to 10162
  157.6385  130.9463  150.0612 H   0  0  0  0  0  0  0  0  0  0  0  0  # atno 10718 bound_to 10713
  154.8693  135.3687  154.4984 H   0  0  0  0  0  0  0  0  0  0  0  0  # atno 10763 bound_to 10752
  153.5626  135.7022  153.5545 H   0  0  0  0  0  0  0  0  0  0  0  0  # atno 10764 bound_to 10752
  153.3614  135.4045  155.1684 H   0  0  0  0  0  0  0  0  0  0  0  0  # atno 10765 bound_to 10752
  141.1600  133.6832  156.6982 H   0  0  0  0  0  0  0  0  0  0  0  0  # atno 11005 bound_to 11000
  146.3395  140.2402  142.8595 LP  0  0  0  0  0  0  0  0  0  0  0  0  # atno 17320 bound_to 7965
  144.9844  140.8489  143.5377 LP  0  0  0  0  0  0  0  0  0  0  0  0  # atno 17321 bound_to 7965
  139.7541  143.8734  152.3084 LP  0  0  0  0  0  0  0  0  0  0  0  0  # atno 17342 bound_to 10162
  139.8598  144.7123  150.9114 LP  0  0  0  0  0  0  0  0  0  0  0  0  # atno 17343 bound_to 10162
  156.1644  130.3644  149.9253 LP  0  0  0  0  0  0  0  0  0  0  0  0  # atno 17370 bound_to 10713
  156.7243  130.9019  151.3621 LP  0  0  0  0  0  0  0  0  0  0  0  0  # atno 17371 bound_to 10713
  140.2979  134.8187  157.4073 LP  0  0  0  0  0  0  0  0  0  0  0  0  # atno 17394 bound_to 11000
  140.1288  134.5122  155.8122 LP  0  0  0  0  0  0  0  0  0  0  0  0  # atno 17395 bound_to 11000

$$$$
