AV-unprocessed.smi:1497|AV-procd|sdf|6058|dock10
  -GOLD-   22720 6173D 1   1.00000     0.00000
 Structure written by MMmdl.
 33 34  0  0  0  0  0  0  0  0  1 V2000
  147.9947  138.6986  152.4456 N   0  0  0  0  0  0  0  0  0  0  0  0
  147.9112  139.0150  153.7409 C   0  0  0  0  0  0  0  0  0  0  0  0
  147.4857  138.2273  154.5827 O   0  0  0  0  0  0  0  0  0  0  0  0
  148.3627  140.4188  154.1498 C   0  0  0  0  0  0  0  0  0  0  0  0
  149.4318  140.3667  155.1314 N   0  0  0  0  0  0  0  0  0  0  0  0
  149.9415  141.3994  155.8941 C   0  0  0  0  0  0  0  0  0  0  0  0
  150.9290  140.8496  156.6544 C   0  0  0  0  0  0  0  0  0  0  0  0
  151.7207  141.5647  157.5876 N   0  0  0  0  0  0  0  0  0  0  0  0
  151.4093  142.7074  158.2283 C   0  0  0  0  0  0  0  0  0  0  0  0
  150.3544  143.3156  158.0442 O   0  0  0  0  0  0  0  0  0  0  0  0
  152.3708  143.1504  159.0793 N   0  0  0  0  0  0  0  0  0  0  0  0
  153.5387  142.3818  159.5432 C   0  0  0  0  0  0  0  0  0  0  0  0
  153.2191  141.7581  160.9120 C   0  0  0  0  0  0  0  0  0  0  0  0
  152.9104  143.0480  162.1587 S   0  0  0  0  0  0  0  0  0  0  0  0
  151.7057  144.0688  161.2527 C   0  0  0  0  0  0  0  0  0  0  0  0
  152.2125  144.3975  159.8380 C   0  0  0  0  0  0  0  0  0  0  0  0
  150.9675  139.4706  156.3033 C   0  0  0  0  0  0  0  0  0  0  0  0
  150.0576  139.1895  155.3827 N   0  0  0  0  0  0  0  0  0  0  0  0
  147.7093  137.7803  152.1372 H   0  0  0  0  0  0  0  0  0  0  0  0
  148.3442  139.3729  151.7806 H   0  0  0  0  0  0  0  0  0  0  0  0
  148.7123  140.9681  153.2745 H   0  0  0  0  0  0  0  0  0  0  0  0
  147.5213  140.9780  154.5626 H   0  0  0  0  0  0  0  0  0  0  0  0
  149.5658  142.4100  155.8281 H   0  0  0  0  0  0  0  0  0  0  0  0
  152.6199  141.1599  157.8032 H   0  0  0  0  0  0  0  0  0  0  0  0
  153.8490  141.6056  158.8435 H   0  0  0  0  0  0  0  0  0  0  0  0
  154.4047  143.0398  159.6291 H   0  0  0  0  0  0  0  0  0  0  0  0
  152.3435  141.1116  160.8418 H   0  0  0  0  0  0  0  0  0  0  0  0
  154.0489  141.1374  161.2501 H   0  0  0  0  0  0  0  0  0  0  0  0
  150.7547  143.5374  161.2024 H   0  0  0  0  0  0  0  0  0  0  0  0
  151.5299  144.9852  161.8163 H   0  0  0  0  0  0  0  0  0  0  0  0
  153.1634  144.9291  159.8925 H   0  0  0  0  0  0  0  0  0  0  0  0
  151.5254  145.0891  159.3482 H   0  0  0  0  0  0  0  0  0  0  0  0
  151.6020  138.6769  156.6687 H   0  0  0  0  0  0  0  0  0  0  0  0
  1  2  1  0  0  0  0
  1 19  1  0  0  0  0
  1 20  1  0  0  0  0
  2  3  2  0  0  0  0
  2  4  1  0  0  0  0
  4  5  1  0  0  0  0
  4 21  1  0  0  0  0
  4 22  1  0  0  0  0
  5 18  1  0  0  0  0
  5  6  1  0  0  0  0
  6  7  2  0  0  0  0
  6 23  1  0  0  0  0
  7  8  1  0  0  0  0
  7 17  1  0  0  0  0
  8  9  1  0  0  0  0
  8 24  1  0  0  0  0
  9 10  2  0  0  0  0
  9 11  1  0  0  0  0
 11 16  1  0  0  0  0
 11 12  1  0  0  0  0
 12 13  1  0  0  0  0
 12 25  1  0  0  0  0
 12 26  1  0  0  0  0
 13 14  1  0  0  0  0
 13 27  1  0  0  0  0
 13 28  1  0  0  0  0
 14 15  1  0  0  0  0
 15 16  1  0  0  0  0
 15 29  1  0  0  0  0
 15 30  1  0  0  0  0
 16 31  1  0  0  0  0
 16 32  1  0  0  0  0
 17 18  2  0  0  0  0
 17 33  1  0  0  0  0
M  END
> <s_m_source_file>
AV-unprocessed.smi

> <i_m_source_file_index>
1497

> <i_lp_mmshare_version>
43012

> <i_f3d_flags>
0

> <s_epik_input>
W05IMl1DKD1PKVtDSDJdbjFbY0hdYyhbY0hdbjEpW05IXUMoPU8pTjJbQ0gyXVtDSDJdU1tDSDJdW0NIMl0y

> <s_epik_cmdline>
J2VwaWtfcHl0aG9uJywgJy1waCcsICc3LjAnLCAnLXRuJywgJzgnLCAnLW1hJywgJzIwMCcsICctbWV0YWxfYmluZGluZycsICctaW1hZScsICc8aW5maWxlLm1hZT4nLCAnLW9tYWUnLCAnPG91dGZpbGUubWFlPic=

> <r_lp_tautomer_probability>
1

> <r_epik_Ionization_Penalty>
3.75542e-05

> <r_epik_Ionization_Penalty_Charging>
0

> <r_epik_Ionization_Penalty_Neutral>
3.75542e-05

> <r_epik_State_Penalty>
-0

> <r_epik_Charging_Adjusted_Penalty>
0

> <i_epik_Tot_Q>
0

> <i_epik_Tot_abs_Q>
0

> <r_epik_Metal_State_Penalty>
-0

> <b_epik_Metal_Only>
0

> <s_lp_Force_Field>
OPLS_2005

> <r_lp_Energy>
28.4964

> <b_lp_Chiralities_Consistent>
1

> <s_lp_Variant>
AV-unprocessed.smi:1497-1

> <Gold.Version>
5.8.1

> <Gold.Id.Protein>
6NUR|6NUR_protein|mol2

> <Gold.PLP.Fitness>
45.7231

> <Gold.PLP.PLP>
-38.9255

> <Gold.PLP.part.hbond>
-1.7104

> <Gold.PLP.part.metal>
0.0000

> <Gold.PLP.part.buried>
-4.5052

> <Gold.PLP.part.nonpolar>
-33.5890

> <Gold.PLP.part.repulsive>
0.6592

> <Gold.PLP.ligand.clash>
0.0000

> <Gold.PLP.ligand.torsion>
0.2893

> <Gold.PLP.Chemscore.Hbond>
1.4475

> <Gold.PLP.Chemscore.CHOScore>
1.0000

> <Gold.PLP.Chemscore.Metal>
0.0000

> <Gold.Chemscore.Hbonds>
donor molecule, donor type, donor heavy atom, donor atom, acceptor molecule, acceptor atom, score
      L1  H     1    19       P1  7948  0.48
      L1  H     1    20       P1  7957  0.94
      L1  C     6    23       P1  8028  1.00

> <Gold.PLP.Chemscore.Internal.Correction>
0.0339

> <Gold.Rescore>
     Score         DG    S(hbond)    S(metal)    S(lipo)     H(rot)  DE(clash)    DE(int)     intcor
     14.13     -16.96       1.73        0.00      82.45       1.54       0.02       2.81       ----

> <Gold.Chemscore.Fitness>
14.1334

> <Gold.Chemscore.DG>
-16.9558

> <Gold.Chemscore.ZeroCoef>
-5.4800

> <Gold.Chemscore.Hbond>
1.7270

> <Gold.Chemscore.Metal>
0.0000

> <Gold.Chemscore.Lipo>
82.4509

> <Gold.Chemscore.Internal_Hbond>
0.0000

> <Gold.Chemscore.DEClash>
0.0167

> <Gold.Chemscore.DEInternal>
2.8057

> <Gold.Chemscore.Rot>
1.5388

> <Gold.Chemscore.Internal.Correction>
   9.000000E+99

> <Gold.Chemscore.Hbonds>
donor molecule, donor type, donor heavy atom, donor atom, acceptor molecule, acceptor atom, score
      L1  H     1    19       P1  7948  0.47
      L1  H     1    20       P1  7957  0.84

> <Gold.Chemscore.Hbond.Weighted>
-5.7682

> <Gold.Chemscore.Metal.Weighted>
-0.0000

> <Gold.Chemscore.Lipo.Weighted>
-9.6468

> <Gold.Chemscore.Internal_Hbond.Weighted>
0.0000

> <Gold.Chemscore.DEClash.Weighted>
0.0167

> <Gold.Chemscore.DEInternal.Weighted>
2.8057

> <Gold.Chemscore.Rot.Weighted>
3.9392

> <Gold.Chemscore.Internal.Correction.Weighted>
   9.000000E+99

> <Gold.Protein.RotatedTorsions>
[ 6907 6896 6895 6894 ] final    1.02 input  -60.11 | X-H torsion
[ 7974 7965 7964 7962 ] final  -93.69 input  175.53 | X-H torsion
[ 8008 7997 7996 7995 ] final   26.38 input   59.86 | X-H torsion
[ 10167 10162 10161 10158 ] final   86.84 input  -65.29 | X-H torsion
[ 10718 10713 10712 10709 ] final  167.71 input   66.30 | X-H torsion
[ 10763 10752 10751 10750 ] final  -17.25 input  -60.55 | X-H torsion
[ 11005 11000 10999 10996 ] final  170.21 input  -57.11 | X-H torsion

> <Gold.Protein.ActiveResidues>
 VAL166  LYS551  ARG553  GLY616  TRP617  ASP618  TYR619  PRO620  LYS621  CYS622 
 ASP623  PHE694  ASN695  SER759  ASP760  ASP761  ALA762  ILE779  LEU786  VAL792 
 PHE793  MET794  SER795  GLU796  ALA797  LYS798  CYS799  TRP800  GLU811  SER814 

> <Gold.Protein.RotatedAtoms>
  151.5859  135.1056  160.0027 H   0  0  0  0  0  0  0  0  0  0  0  0  # atno 6907 bound_to 6896
  152.4331  133.7308  159.6597 H   0  0  0  0  0  0  0  0  0  0  0  0  # atno 6908 bound_to 6896
  150.8225  133.8157  159.3155 H   0  0  0  0  0  0  0  0  0  0  0  0  # atno 6909 bound_to 6896
  145.3832  140.9520  143.2382 H   0  0  0  0  0  0  0  0  0  0  0  0  # atno 7974 bound_to 7965
  155.0263  140.3153  155.4774 H   0  0  0  0  0  0  0  0  0  0  0  0  # atno 8008 bound_to 7997
  156.2882  140.2188  156.5325 H   0  0  0  0  0  0  0  0  0  0  0  0  # atno 8009 bound_to 7997
  154.7408  140.0474  157.0797 H   0  0  0  0  0  0  0  0  0  0  0  0  # atno 8010 bound_to 7997
  139.8835  144.6427  150.8817 H   0  0  0  0  0  0  0  0  0  0  0  0  # atno 10167 bound_to 10162
  157.0476  131.0304  151.2692 H   0  0  0  0  0  0  0  0  0  0  0  0  # atno 10718 bound_to 10713
  153.5710  135.7007  153.5505 H   0  0  0  0  0  0  0  0  0  0  0  0  # atno 10763 bound_to 10752
  153.3345  135.4038  155.1522 H   0  0  0  0  0  0  0  0  0  0  0  0  # atno 10764 bound_to 10752
  154.8633  135.3727  154.5232 H   0  0  0  0  0  0  0  0  0  0  0  0  # atno 10765 bound_to 10752
  140.3059  134.7557  157.3953 H   0  0  0  0  0  0  0  0  0  0  0  0  # atno 11005 bound_to 11000
  144.8493  139.5348  143.6864 LP  0  0  0  0  0  0  0  0  0  0  0  0  # atno 17320 bound_to 7965
  146.2832  139.6934  142.9214 LP  0  0  0  0  0  0  0  0  0  0  0  0  # atno 17321 bound_to 7965
  140.7740  143.3567  151.1908 LP  0  0  0  0  0  0  0  0  0  0  0  0  # atno 17342 bound_to 10162
  139.7174  143.9278  152.2972 LP  0  0  0  0  0  0  0  0  0  0  0  0  # atno 17343 bound_to 10162
  157.5056  130.7906  149.7650 LP  0  0  0  0  0  0  0  0  0  0  0  0  # atno 17370 bound_to 10713
  156.0018  130.3876  150.2578 LP  0  0  0  0  0  0  0  0  0  0  0  0  # atno 17371 bound_to 10713
  140.1068  134.5399  155.8302 LP  0  0  0  0  0  0  0  0  0  0  0  0  # atno 17394 bound_to 11000
  141.2118  133.6712  156.6613 LP  0  0  0  0  0  0  0  0  0  0  0  0  # atno 17395 bound_to 11000

$$$$
