AV-unprocessed.smi:290|AV-procd|sdf|2220|dock6
  -GOLD-   2262022 63D 1   1.00000     0.00000
 Structure written by MMmdl.
 59 62  0  0  0  0  0  0  0  0  2 V2000
  151.4177  140.9453  156.4744 C   0  0  0  0  0  0  0  0  0  0  0  0
  151.0203  139.6277  155.7893 C   0  0  1  0  0  0  0  0  0  0  0  0
  150.7382  139.8488  154.4145 O   0  0  0  0  0  0  0  0  0  0  0  0
  150.8044  138.5913  153.7669 C   0  0  0  0  0  0  0  0  0  0  0  0
  152.0634  137.9772  154.3647 C   0  0  0  0  0  0  0  0  0  0  0  0
  152.0640  138.4782  155.8116 C   0  0  1  0  0  0  0  0  0  0  0  0
  153.3658  138.9519  156.1143 O   0  0  0  0  0  0  0  0  0  0  0  0
  151.7066  137.3525  156.8138 C   0  0  0  0  0  0  0  0  0  0  0  0
  150.8478  136.3221  156.2498 N   0  0  0  0  0  0  0  0  0  0  0  0
  151.1067  134.9704  156.1902 C   0  0  0  0  0  0  0  0  0  0  0  0
  150.1768  134.2477  155.6271 N   0  0  0  0  0  0  0  0  0  0  0  0
  149.1991  135.1713  155.2829 C   0  0  0  0  0  0  0  0  0  0  0  0
  147.9317  135.0741  154.6534 C   0  0  0  0  0  0  0  0  0  0  0  0
  147.4319  133.8847  154.2468 N   0  0  0  0  0  0  0  0  0  0  0  0
  148.4215  132.9553  153.7357 C   0  0  0  0  0  0  0  0  0  0  0  0
  147.6269  131.8862  152.9875 C   0  0  0  0  0  0  0  0  0  0  0  0
  146.2296  132.4922  152.7359 C   0  0  2  0  0  0  0  0  0  0  0  0
  145.8147  132.3294  151.3064 N   0  3  1  0  0  0  0  0  0  0  0  0
  145.8220  130.8970  150.9092 C   0  0  0  0  0  0  0  0  0  0  0  0
  144.5468  133.0154  150.9248 C   0  0  0  0  0  0  0  0  0  0  0  0
  144.1248  132.7780  149.4623 C   0  0  0  0  0  0  0  0  0  0  0  0
  142.8906  132.0929  149.4126 O   0  0  0  0  0  0  0  0  0  0  0  0
  146.3644  133.9449  153.2560 C   0  0  1  0  0  0  0  0  0  0  0  0
  145.0753  134.5094  153.8930 C   0  0  0  0  0  0  0  0  0  0  0  0
  147.2145  136.2165  154.4840 N   0  0  0  0  0  0  0  0  0  0  0  0
  147.7137  137.3843  154.9021 C   0  0  0  0  0  0  0  0  0  0  0  0
  148.8810  137.6263  155.5030 N   0  0  0  0  0  0  0  0  0  0  0  0
  149.5993  136.4790  155.6736 C   0  0  0  0  0  0  0  0  0  0  0  0
  145.5090  131.9706  153.3688 H   0  0  0  0  0  0  0  0  0  0  0  0
  146.6918  134.5934  152.4418 H   0  0  0  0  0  0  0  0  0  0  0  0
  151.6543  140.7859  157.5268 H   0  0  0  0  0  0  0  0  0  0  0  0
  150.6028  141.6674  156.4243 H   0  0  0  0  0  0  0  0  0  0  0  0
  152.2870  141.3987  155.9972 H   0  0  0  0  0  0  0  0  0  0  0  0
  150.0867  139.2768  156.2309 H   0  0  0  0  0  0  0  0  0  0  0  0
  149.9218  137.9993  154.0152 H   0  0  0  0  0  0  0  0  0  0  0  0
  150.8588  138.6966  152.6833 H   0  0  0  0  0  0  0  0  0  0  0  0
  152.0775  136.8900  154.2780 H   0  0  0  0  0  0  0  0  0  0  0  0
  152.9288  138.3574  153.8190 H   0  0  0  0  0  0  0  0  0  0  0  0
  153.7824  138.3355  156.6971 H   0  0  0  0  0  0  0  0  0  0  0  0
  152.6158  136.8736  157.1799 H   0  0  0  0  0  0  0  0  0  0  0  0
  151.2092  137.7688  157.6910 H   0  0  0  0  0  0  0  0  0  0  0  0
  152.0160  134.5327  156.5758 H   0  0  0  0  0  0  0  0  0  0  0  0
  149.1101  133.4550  153.0525 H   0  0  0  0  0  0  0  0  0  0  0  0
  149.0077  132.5227  154.5472 H   0  0  0  0  0  0  0  0  0  0  0  0
  148.1472  131.6150  152.0677 H   0  0  0  0  0  0  0  0  0  0  0  0
  147.5378  130.9818  153.5907 H   0  0  0  0  0  0  0  0  0  0  0  0
  144.9731  130.3682  151.3443 H   0  0  0  0  0  0  0  0  0  0  0  0
  146.7296  130.3899  151.2353 H   0  0  0  0  0  0  0  0  0  0  0  0
  145.7832  130.7796  149.8275 H   0  0  0  0  0  0  0  0  0  0  0  0
  143.7491  132.6952  151.5966 H   0  0  0  0  0  0  0  0  0  0  0  0
  144.6473  134.0927  151.0411 H   0  0  0  0  0  0  0  0  0  0  0  0
  144.0626  133.7024  148.8898 H   0  0  0  0  0  0  0  0  0  0  0  0
  144.8721  132.1622  148.9613 H   0  0  0  0  0  0  0  0  0  0  0  0
  142.1902  132.7208  149.5072 H   0  0  0  0  0  0  0  0  0  0  0  0
  144.2325  134.5191  153.2051 H   0  0  0  0  0  0  0  0  0  0  0  0
  145.2193  135.5359  154.2314 H   0  0  0  0  0  0  0  0  0  0  0  0
  144.7762  133.9196  154.7602 H   0  0  0  0  0  0  0  0  0  0  0  0
  147.0888  138.2484  154.7311 H   0  0  0  0  0  0  0  0  0  0  0  0
  146.5365  132.7818  150.7629 H   0  0  0  0  0  0  0  0  0  0  0  0
  1  2  1  0  0  0  0
  1 31  1  0  0  0  0
  1 32  1  0  0  0  0
  1 33  1  0  0  0  0
  2  6  1  0  0  0  0
  2  3  1  0  0  0  0
  2 34  1  0  0  0  0
  3  4  1  0  0  0  0
  4  5  1  0  0  0  0
  4 35  1  0  0  0  0
  4 36  1  0  0  0  0
  5  6  1  0  0  0  0
  5 37  1  0  0  0  0
  5 38  1  0  0  0  0
  6  7  1  0  0  0  0
  6  8  1  0  0  0  0
  7 39  1  0  0  0  0
  8  9  1  0  0  0  0
  8 40  1  0  0  0  0
  8 41  1  0  0  0  0
  9 28  1  0  0  0  0
  9 10  1  0  0  0  0
 10 11  2  0  0  0  0
 10 42  1  0  0  0  0
 11 12  1  0  0  0  0
 12 28  2  0  0  0  0
 12 13  1  0  0  0  0
 13 14  1  0  0  0  0
 13 25  2  0  0  0  0
 14 23  1  0  0  0  0
 14 15  1  0  0  0  0
 15 16  1  0  0  0  0
 15 43  1  0  0  0  0
 15 44  1  0  0  0  0
 16 17  1  0  0  0  0
 16 45  1  0  0  0  0
 16 46  1  0  0  0  0
 17 29  1  0  0  0  0
 17 18  1  0  0  0  0
 17 23  1  0  0  0  0
 18 19  1  0  0  0  0
 18 20  1  0  0  0  0
 18 59  1  0  0  0  0
 19 47  1  0  0  0  0
 19 48  1  0  0  0  0
 19 49  1  0  0  0  0
 20 21  1  0  0  0  0
 20 50  1  0  0  0  0
 20 51  1  0  0  0  0
 21 22  1  0  0  0  0
 21 52  1  0  0  0  0
 21 53  1  0  0  0  0
 22 54  1  0  0  0  0
 23 30  1  0  0  0  0
 23 24  1  0  0  0  0
 24 55  1  0  0  0  0
 24 56  1  0  0  0  0
 24 57  1  0  0  0  0
 25 26  1  0  0  0  0
 26 27  2  0  0  0  0
 26 58  1  0  0  0  0
 27 28  1  0  0  0  0
M  CHG  1  18   1
M  END
> <s_m_source_file>
AV-unprocessed.smi

> <i_m_source_file_index>
290

> <i_lp_mmshare_version>
43012

> <i_f3d_flags>
0

> <s_epik_input>
W0NIMl0xW0NIMl1PW0NAQEhdKFtDSDNdKVtDQEBdMShbT0hdKVtDSDJdbihbY0hdbjIpYyhjMjMpbltjSF1uYzNONFtDSDJdW0NIMl1bQ0BIXShbQ0BIXTRbQ0gzXSlOKFtDSDNdKVtDSDJdW0NIMl1bT0hd

> <s_epik_cmdline>
J2VwaWtfcHl0aG9uJywgJy1waCcsICc3LjAnLCAnLXRuJywgJzgnLCAnLW1hJywgJzIwMCcsICctbWV0YWxfYmluZGluZycsICctaW1hZScsICc8aW5maWxlLm1hZT4nLCAnLW9tYWUnLCAnPG91dGZpbGUubWFlPic=

> <r_lp_tautomer_probability>
1

> <r_epik_Ionization_Penalty>
0.0036983

> <r_epik_Ionization_Penalty_Charging>
0.0032725

> <r_epik_Ionization_Penalty_Neutral>
0.000425798

> <r_epik_State_Penalty>
-0

> <r_epik_Charging_Adjusted_Penalty>
0.0032725

> <i_epik_Tot_Q>
1

> <i_epik_Tot_abs_Q>
1

> <r_epik_Metal_State_Penalty>
-0

> <b_epik_Metal_Only>
0

> <s_lp_Force_Field>
OPLS_2005

> <r_lp_Energy>
65.0723

> <b_lp_Chiralities_Consistent>
1

> <s_lp_Variant>
AV-unprocessed.smi:290-6

> <Gold.Version>
5.8.1

> <Gold.Id.Protein>
6NUR|6NUR_protein|mol2

> <Gold.PLP.Fitness>
47.9173

> <Gold.PLP.PLP>
-39.5475

> <Gold.PLP.part.hbond>
-4.7197

> <Gold.PLP.part.metal>
0.0000

> <Gold.PLP.part.buried>
-7.0184

> <Gold.PLP.part.nonpolar>
-28.0954

> <Gold.PLP.part.repulsive>
0.3933

> <Gold.PLP.ligand.clash>
0.0000

> <Gold.PLP.ligand.torsion>
1.6320

> <Gold.PLP.Chemscore.Hbond>
3.8037

> <Gold.PLP.Chemscore.CHOScore>
0.0000

> <Gold.PLP.Chemscore.Metal>
0.0000

> <Gold.Chemscore.Hbonds>
donor molecule, donor type, donor heavy atom, donor atom, acceptor molecule, acceptor atom, score
      L1  H    22    54       P1 10186  0.93
      P1  H  7989  7998       L1     3  1.00
      P1  H  7997  8010       L1     7  1.00
      P1  H 10785 10796       L1    22  0.86

> <Gold.PLP.Chemscore.Internal.Correction>
0.2226

> <Gold.Rescore>
     Score         DG    S(hbond)    S(metal)    S(lipo)     H(rot)  DE(clash)    DE(int)     intcor
     11.91     -17.98       3.36        0.00      91.15       3.67       0.43       5.65       ----

> <Gold.Chemscore.Fitness>
11.9052

> <Gold.Chemscore.DG>
-17.9837

> <Gold.Chemscore.ZeroCoef>
-5.4800

> <Gold.Chemscore.Hbond>
3.3603

> <Gold.Chemscore.Metal>
0.0000

> <Gold.Chemscore.Lipo>
91.1524

> <Gold.Chemscore.Internal_Hbond>
0.0000

> <Gold.Chemscore.DEClash>
0.4261

> <Gold.Chemscore.DEInternal>
5.6524

> <Gold.Chemscore.Rot>
3.6658

> <Gold.Chemscore.Internal.Correction>
   9.000000E+99

> <Gold.Chemscore.Hbonds>
donor molecule, donor type, donor heavy atom, donor atom, acceptor molecule, acceptor atom, score
      L1  H    22    54       P1 10186  0.89
      P1  H  7989  7998       L1     3  0.49
      P1  H  7997  8010       L1     7  0.23
      P1  H 10785 10796       L1    22  0.62

> <Gold.Chemscore.Hbond.Weighted>
-11.2233

> <Gold.Chemscore.Metal.Weighted>
-0.0000

> <Gold.Chemscore.Lipo.Weighted>
-10.6648

> <Gold.Chemscore.Internal_Hbond.Weighted>
0.0000

> <Gold.Chemscore.DEClash.Weighted>
0.4261

> <Gold.Chemscore.DEInternal.Weighted>
5.6524

> <Gold.Chemscore.Rot.Weighted>
9.3844

> <Gold.Chemscore.Internal.Correction.Weighted>
   9.000000E+99

> <Gold.Protein.RotatedTorsions>
[ 6907 6896 6895 6894 ] final  -79.78 input  -60.11 | X-H torsion
[ 7974 7965 7964 7962 ] final  -74.05 input  175.53 | X-H torsion
[ 8008 7997 7996 7995 ] final   84.81 input   59.86 | X-H torsion
[ 10167 10162 10161 10158 ] final  143.93 input  -65.29 | X-H torsion
[ 10718 10713 10712 10709 ] final  -34.51 input   66.30 | X-H torsion
[ 10763 10752 10751 10750 ] final -168.98 input  -60.55 | X-H torsion
[ 11005 11000 10999 10996 ] final -139.83 input  -57.11 | X-H torsion

> <Gold.Protein.ActiveResidues>
 VAL166  LYS551  ARG553  GLY616  TRP617  ASP618  TYR619  PRO620  LYS621  CYS622 
 ASP623  PHE694  ASN695  SER759  ASP760  ASP761  ALA762  ILE779  LEU786  VAL792 
 PHE793  MET794  SER795  GLU796  ALA797  LYS798  CYS799  TRP800  GLU811  SER814 

> <Gold.Protein.RotatedAtoms>
  150.6942  134.4069  159.5143 H   0  0  0  0  0  0  0  0  0  0  0  0  # atno 6907 bound_to 6896
  152.1834  134.8732  160.0533 H   0  0  0  0  0  0  0  0  0  0  0  0  # atno 6908 bound_to 6896
  151.9714  133.3692  159.4109 H   0  0  0  0  0  0  0  0  0  0  0  0  # atno 6909 bound_to 6896
  145.6442  140.9302  143.1019 H   0  0  0  0  0  0  0  0  0  0  0  0  # atno 7974 bound_to 7965
  155.9418  140.3407  155.6334 H   0  0  0  0  0  0  0  0  0  0  0  0  # atno 8008 bound_to 7997
  155.7029  140.0762  157.2421 H   0  0  0  0  0  0  0  0  0  0  0  0  # atno 8009 bound_to 7997
  154.4104  140.1636  156.2199 H   0  0  0  0  0  0  0  0  0  0  0  0  # atno 8010 bound_to 7997
  139.4958  144.6006  151.6488 H   0  0  0  0  0  0  0  0  0  0  0  0  # atno 10167 bound_to 10162
  156.3497  130.4306  149.7715 H   0  0  0  0  0  0  0  0  0  0  0  0  # atno 10718 bound_to 10713
  154.6571  135.2919  154.9913 H   0  0  0  0  0  0  0  0  0  0  0  0  # atno 10763 bound_to 10752
  154.0986  135.6580  153.4868 H   0  0  0  0  0  0  0  0  0  0  0  0  # atno 10764 bound_to 10752
  153.0409  135.5237  154.7506 H   0  0  0  0  0  0  0  0  0  0  0  0  # atno 10765 bound_to 10752
  140.8481  134.2319  157.4775 H   0  0  0  0  0  0  0  0  0  0  0  0  # atno 11005 bound_to 11000
  144.7146  139.8243  143.7403 LP  0  0  0  0  0  0  0  0  0  0  0  0  # atno 17320 bound_to 7965
  146.1256  139.4282  143.0201 LP  0  0  0  0  0  0  0  0  0  0  0  0  # atno 17321 bound_to 7965
  140.5655  144.0196  150.6190 LP  0  0  0  0  0  0  0  0  0  0  0  0  # atno 17342 bound_to 10162
  140.3297  143.3085  152.0700 LP  0  0  0  0  0  0  0  0  0  0  0  0  # atno 17343 bound_to 10162
  156.4920  130.8089  151.3098 LP  0  0  0  0  0  0  0  0  0  0  0  0  # atno 17370 bound_to 10713
  157.7459  130.9972  150.2809 LP  0  0  0  0  0  0  0  0  0  0  0  0  # atno 17371 bound_to 10713
  139.8704  134.9669  156.4580 LP  0  0  0  0  0  0  0  0  0  0  0  0  # atno 17394 bound_to 11000
  140.8820  133.7910  155.9477 LP  0  0  0  0  0  0  0  0  0  0  0  0  # atno 17395 bound_to 11000

$$$$
