AV-unprocessed.smi:254|AV-procd|sdf|1946|dock5
  -GOLD-   2262021 83D 1   1.00000     0.00000
 Structure written by MMmdl.
 50 53  0  0  0  0  0  0  0  0  1 V2000
  155.5815  140.9371  163.3300 O   0  0  0  0  0  0  0  0  0  0  0  0
  154.8920  140.6652  162.3484 C   0  0  0  0  0  0  0  0  0  0  0  0
  153.9492  141.6603  161.6966 C   0  0  0  0  0  0  0  0  0  0  0  0
  153.4017  140.8649  160.6044 N   0  0  0  0  0  0  0  0  0  0  0  0
  152.5277  141.3602  159.6904 C   0  0  0  0  0  0  0  0  0  0  0  0
  151.8493  142.4954  160.0032 N   0  0  0  0  0  0  0  0  0  0  0  0
  150.9760  143.0248  159.1427 C   0  0  0  0  0  0  0  0  0  0  0  0
  150.6338  142.5896  157.9299 N   0  0  0  0  0  0  0  0  0  0  0  0
  151.3105  141.4521  157.6029 C   0  0  0  0  0  0  0  0  0  0  0  0
  152.2633  140.7729  158.4168 C   0  0  0  0  0  0  0  0  0  0  0  0
  152.7257  139.6470  157.7444 N   0  0  0  0  0  0  0  0  0  0  0  0
  152.0868  139.6604  156.6075 C   0  0  0  0  0  0  0  0  0  0  0  0
  151.2269  140.7200  156.4300 N   0  0  0  0  0  0  0  0  0  0  0  0
  150.3923  140.9860  155.2665 C   0  0  0  0  0  0  0  0  0  0  0  0
  148.8655  140.8776  155.5326 C   0  0  1  0  0  0  0  0  0  0  0  0
  148.0273  141.5746  154.4351 C   0  0  0  0  0  0  0  0  0  0  0  0
  148.5618  142.8422  154.1172 O   0  0  0  0  0  0  0  0  0  0  0  0
  148.4054  139.4113  155.7469 C   0  0  2  0  0  0  0  0  0  0  0  0
  148.5847  138.4982  154.5454 C   0  0  0  0  0  0  0  0  0  0  0  0
  147.6468  137.3398  154.8689 C   0  0  0  0  0  0  0  0  0  0  0  0
  146.5895  137.9002  155.6387 O   0  0  0  0  0  0  0  0  0  0  0  0
  146.8994  139.2463  155.9808 C   0  0  0  0  0  0  0  0  0  0  0  0
  153.9576  139.5197  160.5596 C   0  0  0  0  0  0  0  0  0  0  0  0
  154.8563  139.4945  161.7018 N   0  0  0  0  0  0  0  0  0  0  0  0
  155.6334  138.2977  162.0163 C   0  0  0  0  0  0  0  0  0  0  0  0
  155.0444  137.5094  163.1995 C   0  0  0  0  0  0  0  0  0  0  0  0
  155.6808  136.3435  163.3028 F   0  0  0  0  0  0  0  0  0  0  0  0
  155.1933  138.1745  164.3450 F   0  0  0  0  0  0  0  0  0  0  0  0
  153.7489  137.2695  162.9972 F   0  0  0  0  0  0  0  0  0  0  0  0
  153.1724  141.9756  162.3940 H   0  0  0  0  0  0  0  0  0  0  0  0
  154.4959  142.5301  161.3302 H   0  0  0  0  0  0  0  0  0  0  0  0
  150.4817  143.9265  159.4731 H   0  0  0  0  0  0  0  0  0  0  0  0
  152.2324  138.8923  155.8629 H   0  0  0  0  0  0  0  0  0  0  0  0
  150.6462  141.9748  154.8847 H   0  0  0  0  0  0  0  0  0  0  0  0
  150.6815  140.2926  154.4761 H   0  0  0  0  0  0  0  0  0  0  0  0
  148.6724  141.4090  156.4659 H   0  0  0  0  0  0  0  0  0  0  0  0
  147.9649  140.9666  153.5326 H   0  0  0  0  0  0  0  0  0  0  0  0
  147.0052  141.7412  154.7726 H   0  0  0  0  0  0  0  0  0  0  0  0
  148.5508  143.3762  154.8976 H   0  0  0  0  0  0  0  0  0  0  0  0
  148.9450  138.9708  156.5862 H   0  0  0  0  0  0  0  0  0  0  0  0
  148.2576  138.9995  153.6330 H   0  0  0  0  0  0  0  0  0  0  0  0
  149.6133  138.1661  154.4029 H   0  0  0  0  0  0  0  0  0  0  0  0
  147.2707  136.8467  153.9723 H   0  0  0  0  0  0  0  0  0  0  0  0
  148.1591  136.5934  155.4770 H   0  0  0  0  0  0  0  0  0  0  0  0
  146.6018  139.4637  157.0060 H   0  0  0  0  0  0  0  0  0  0  0  0
  146.3325  139.9050  155.3212 H   0  0  0  0  0  0  0  0  0  0  0  0
  153.1777  138.7648  160.6680 H   0  0  0  0  0  0  0  0  0  0  0  0
  154.5083  139.3493  159.6332 H   0  0  0  0  0  0  0  0  0  0  0  0
  155.6711  137.6587  161.1331 H   0  0  0  0  0  0  0  0  0  0  0  0
  156.6655  138.5794  162.2312 H   0  0  0  0  0  0  0  0  0  0  0  0
  1  2  2  0  0  0  0
  2 24  1  0  0  0  0
  2  3  1  0  0  0  0
  3  4  1  0  0  0  0
  3 30  1  0  0  0  0
  3 31  1  0  0  0  0
  4  5  1  0  0  0  0
  4 23  1  0  0  0  0
  5 10  1  0  0  0  0
  5  6  2  0  0  0  0
  6  7  1  0  0  0  0
  7  8  2  0  0  0  0
  7 32  1  0  0  0  0
  8  9  1  0  0  0  0
  9 13  1  0  0  0  0
  9 10  2  0  0  0  0
 10 11  1  0  0  0  0
 11 12  2  0  0  0  0
 12 13  1  0  0  0  0
 12 33  1  0  0  0  0
 13 14  1  0  0  0  0
 14 15  1  0  0  0  0
 14 34  1  0  0  0  0
 14 35  1  0  0  0  0
 15 16  1  0  0  0  0
 15 18  1  0  0  0  0
 15 36  1  0  0  0  0
 16 17  1  0  0  0  0
 16 37  1  0  0  0  0
 16 38  1  0  0  0  0
 17 39  1  0  0  0  0
 18 22  1  0  0  0  0
 18 19  1  0  0  0  0
 18 40  1  0  0  0  0
 19 20  1  0  0  0  0
 19 41  1  0  0  0  0
 19 42  1  0  0  0  0
 20 21  1  0  0  0  0
 20 43  1  0  0  0  0
 20 44  1  0  0  0  0
 21 22  1  0  0  0  0
 22 45  1  0  0  0  0
 22 46  1  0  0  0  0
 23 24  1  0  0  0  0
 23 47  1  0  0  0  0
 23 48  1  0  0  0  0
 24 25  1  0  0  0  0
 25 26  1  0  0  0  0
 25 49  1  0  0  0  0
 25 50  1  0  0  0  0
 26 27  1  0  0  0  0
 26 28  1  0  0  0  0
 26 29  1  0  0  0  0
M  END
> <s_m_source_file>
AV-unprocessed.smi

> <i_m_source_file_index>
254

> <i_lp_mmshare_version>
43012

> <i_f3d_flags>
0

> <s_epik_input>
RkMoRikoRilbQ0gyXU4xW0NIMl1OKFtDSDJdQzE9TyljKG5bY0hdbjIpYyhjMjMpbltjSF1uM1tDSDJdW0NASF0oW0NIMl1bT0hdKVtDQEBIXTRbQ0gyXVtDSDJdT1tDSDJdNA==

> <s_epik_cmdline>
J2VwaWtfcHl0aG9uJywgJy1waCcsICc3LjAnLCAnLXRuJywgJzgnLCAnLW1hJywgJzIwMCcsICctbWV0YWxfYmluZGluZycsICctaW1hZScsICc8aW5maWxlLm1hZT4nLCAnLW9tYWUnLCAnPG91dGZpbGUubWFlPic=

> <r_lp_tautomer_probability>
1

> <r_epik_Ionization_Penalty>
0.000292924

> <r_epik_Ionization_Penalty_Charging>
0

> <r_epik_Ionization_Penalty_Neutral>
0.000292924

> <r_epik_State_Penalty>
-0

> <r_epik_Charging_Adjusted_Penalty>
0

> <i_epik_Tot_Q>
0

> <i_epik_Tot_abs_Q>
0

> <r_epik_Metal_State_Penalty>
-0

> <b_epik_Metal_Only>
0

> <s_epik_Chemistry_Notes>
This compound contains an acetal/aminal-like group ( X-CH(R)-Y where X, Y are N, S, or O) that may be acid/base labile, releasing an aldehyde.

> <s_lp_Force_Field>
OPLS_2005

> <r_lp_Energy>
38.5559

> <b_lp_Chiralities_Consistent>
1

> <s_lp_Variant>
AV-unprocessed.smi:254-2

> <Gold.Version>
5.8.1

> <Gold.Id.Protein>
6NUR|6NUR_protein|mol2

> <Gold.PLP.Fitness>
50.4648

> <Gold.PLP.PLP>
-45.4049

> <Gold.PLP.part.hbond>
-4.5461

> <Gold.PLP.part.metal>
0.0000

> <Gold.PLP.part.buried>
-1.3876

> <Gold.PLP.part.nonpolar>
-37.1035

> <Gold.PLP.part.repulsive>
0.1272

> <Gold.PLP.ligand.clash>
0.0000

> <Gold.PLP.ligand.torsion>
0.6642

> <Gold.PLP.Chemscore.Hbond>
1.9920

> <Gold.PLP.Chemscore.CHOScore>
0.0000

> <Gold.PLP.Chemscore.Metal>
0.0000

> <Gold.Chemscore.Hbonds>
donor molecule, donor type, donor heavy atom, donor atom, acceptor molecule, acceptor atom, score
      L1  H    17    39       P1  8028  1.00
      P1  H  7997  8008       L1    11  0.80

> <Gold.PLP.Chemscore.Internal.Correction>
0.4122

> <Gold.Rescore>
     Score         DG    S(hbond)    S(metal)    S(lipo)     H(rot)  DE(clash)    DE(int)     intcor
      4.17      -6.96       1.16        0.00      51.64       3.30       0.25       2.54       ----

> <Gold.Chemscore.Fitness>
4.1683

> <Gold.Chemscore.DG>
-6.9617

> <Gold.Chemscore.ZeroCoef>
-5.4800

> <Gold.Chemscore.Hbond>
1.1619

> <Gold.Chemscore.Metal>
0.0000

> <Gold.Chemscore.Lipo>
51.6436

> <Gold.Chemscore.Internal_Hbond>
0.0000

> <Gold.Chemscore.DEClash>
0.2495

> <Gold.Chemscore.DEInternal>
2.5438

> <Gold.Chemscore.Rot>
3.2974

> <Gold.Chemscore.Internal.Correction>
   9.000000E+99

> <Gold.Chemscore.Hbonds>
donor molecule, donor type, donor heavy atom, donor atom, acceptor molecule, acceptor atom, score
      L1  H    17    39       P1  8028  0.90
      P1  H  7997  8008       L1    11  0.08
      P1  H  8011  8017       L1    17  0.01

> <Gold.Chemscore.Hbond.Weighted>
-3.8808

> <Gold.Chemscore.Metal.Weighted>
-0.0000

> <Gold.Chemscore.Lipo.Weighted>
-6.0423

> <Gold.Chemscore.Internal_Hbond.Weighted>
0.0000

> <Gold.Chemscore.DEClash.Weighted>
0.2495

> <Gold.Chemscore.DEInternal.Weighted>
2.5438

> <Gold.Chemscore.Rot.Weighted>
8.4414

> <Gold.Chemscore.Internal.Correction.Weighted>
   9.000000E+99

> <Gold.Protein.RotatedTorsions>
[ 6907 6896 6895 6894 ] final -143.96 input  -60.11 | X-H torsion
[ 7974 7965 7964 7962 ] final  158.13 input  175.53 | X-H torsion
[ 8008 7997 7996 7995 ] final  -82.76 input   59.86 | X-H torsion
[ 10167 10162 10161 10158 ] final  112.72 input  -65.29 | X-H torsion
[ 10718 10713 10712 10709 ] final  147.06 input   66.30 | X-H torsion
[ 10763 10752 10751 10750 ] final -148.08 input  -60.55 | X-H torsion
[ 11005 11000 10999 10996 ] final  -14.28 input  -57.11 | X-H torsion

> <Gold.Protein.ActiveResidues>
 VAL166  LYS551  ARG553  GLY616  TRP617  ASP618  TYR619  PRO620  LYS621  CYS622 
 ASP623  PHE694  ASN695  SER759  ASP760  ASP761  ALA762  ILE779  LEU786  VAL792 
 PHE793  MET794  SER795  GLU796  ALA797  LYS798  CYS799  TRP800  GLU811  SER814 

> <Gold.Protein.RotatedAtoms>
  151.1075  133.5197  159.2606 H   0  0  0  0  0  0  0  0  0  0  0  0  # atno 6907 bound_to 6896
  151.2004  135.0440  159.8880 H   0  0  0  0  0  0  0  0  0  0  0  0  # atno 6908 bound_to 6896
  152.5448  134.0904  159.8328 H   0  0  0  0  0  0  0  0  0  0  0  0  # atno 6909 bound_to 6896
  144.7863  139.7436  143.6239 H   0  0  0  0  0  0  0  0  0  0  0  0  # atno 7974 bound_to 7965
  154.6119  140.0628  156.9505 H   0  0  0  0  0  0  0  0  0  0  0  0  # atno 8008 bound_to 7997
  155.1958  140.3311  155.4333 H   0  0  0  0  0  0  0  0  0  0  0  0  # atno 8009 bound_to 7997
  156.2382  140.1873  156.7045 H   0  0  0  0  0  0  0  0  0  0  0  0  # atno 8010 bound_to 7997
  139.6515  144.7128  151.2039 H   0  0  0  0  0  0  0  0  0  0  0  0  # atno 10167 bound_to 10162
  157.3256  131.0911  151.1205 H   0  0  0  0  0  0  0  0  0  0  0  0  # atno 10718 bound_to 10713
  154.8252  135.3343  154.6918 H   0  0  0  0  0  0  0  0  0  0  0  0  # atno 10763 bound_to 10752
  153.7545  135.6937  153.4943 H   0  0  0  0  0  0  0  0  0  0  0  0  # atno 10764 bound_to 10752
  153.2153  135.4468  155.0377 H   0  0  0  0  0  0  0  0  0  0  0  0  # atno 10765 bound_to 10752
  140.7848  133.8334  155.9325 H   0  0  0  0  0  0  0  0  0  0  0  0  # atno 11005 bound_to 11000
  146.2096  139.5443  142.9690 LP  0  0  0  0  0  0  0  0  0  0  0  0  # atno 17320 bound_to 7965
  145.5913  141.0369  143.2068 LP  0  0  0  0  0  0  0  0  0  0  0  0  # atno 17321 bound_to 7965
  140.7540  143.6143  150.8575 LP  0  0  0  0  0  0  0  0  0  0  0  0  # atno 17342 bound_to 10162
  139.9791  143.5971  152.2949 LP  0  0  0  0  0  0  0  0  0  0  0  0  # atno 17343 bound_to 10162
  157.2473  130.6597  149.5916 LP  0  0  0  0  0  0  0  0  0  0  0  0  # atno 17370 bound_to 10713
  155.9690  130.4549  150.5869 LP  0  0  0  0  0  0  0  0  0  0  0  0  # atno 17371 bound_to 10713
  140.9447  134.1855  157.4772 LP  0  0  0  0  0  0  0  0  0  0  0  0  # atno 17394 bound_to 11000
  139.8738  134.9886  156.5418 LP  0  0  0  0  0  0  0  0  0  0  0  0  # atno 17395 bound_to 11000

$$$$
