AV-unprocessed.smi:2296|AV-procd|sdf|9221|dock7
  -GOLD-   2272012443D 1   1.00000     0.00000
 Structure written by MMmdl.
 24 24  0  0  0  0  0  0  0  0  2 V2000
  145.0132  136.3276  149.9513 N   0  3  0  0  0  0  0  0  0  0  0  0
  145.8803  136.2477  151.1429 C   0  0  1  0  0  0  0  0  0  0  0  0
  145.8483  137.5781  151.9145 C   0  0  0  0  0  0  0  0  0  0  0  0
  144.5302  137.8707  152.3284 O   0  0  0  0  0  0  0  0  0  0  0  0
  145.4608  135.0677  152.0410 C   0  0  0  0  0  0  0  0  0  0  0  0
  145.1383  133.8066  151.2582 C   0  0  0  0  0  0  0  0  0  0  0  0
  146.1619  133.0570  150.6421 C   0  0  0  0  0  0  0  0  0  0  0  0
  145.8072  131.8920  149.9319 C   0  0  0  0  0  0  0  0  0  0  0  0
  144.5354  131.4546  149.8138 N   0  0  0  0  0  0  0  0  0  0  0  0
  143.5599  132.1782  150.4040 C   0  0  0  0  0  0  0  0  0  0  0  0
  143.8073  133.3570  151.1361 C   0  0  0  0  0  0  0  0  0  0  0  0
  144.1776  135.7813  150.1029 H   0  0  0  0  0  0  0  0  0  0  0  0
  145.5102  135.9705  149.1477 H   0  0  0  0  0  0  0  0  0  0  0  0
  146.9011  136.0719  150.7994 H   0  0  0  0  0  0  0  0  0  0  0  0
  146.5078  137.5486  152.7828 H   0  0  0  0  0  0  0  0  0  0  0  0
  146.1900  138.3951  151.2781 H   0  0  0  0  0  0  0  0  0  0  0  0
  144.0193  138.1050  151.5678 H   0  0  0  0  0  0  0  0  0  0  0  0
  146.2642  134.8321  152.7404 H   0  0  0  0  0  0  0  0  0  0  0  0
  144.6010  135.3466  152.6520 H   0  0  0  0  0  0  0  0  0  0  0  0
  147.1959  133.3633  150.7067 H   0  0  0  0  0  0  0  0  0  0  0  0
  146.5659  131.2949  149.4485 H   0  0  0  0  0  0  0  0  0  0  0  0
  142.5524  131.8060  150.2913 H   0  0  0  0  0  0  0  0  0  0  0  0
  142.9917  133.9002  151.5910 H   0  0  0  0  0  0  0  0  0  0  0  0
  144.7598  137.2922  149.7907 H   0  0  0  0  0  0  0  0  0  0  0  0
  1  2  1  0  0  0  0
  1 12  1  0  0  0  0
  1 13  1  0  0  0  0
  1 24  1  0  0  0  0
  2  3  1  0  0  0  0
  2  5  1  0  0  0  0
  2 14  1  0  0  0  0
  3  4  1  0  0  0  0
  3 15  1  0  0  0  0
  3 16  1  0  0  0  0
  4 17  1  0  0  0  0
  5  6  1  0  0  0  0
  5 18  1  0  0  0  0
  5 19  1  0  0  0  0
  6 11  1  0  0  0  0
  6  7  2  0  0  0  0
  7  8  1  0  0  0  0
  7 20  1  0  0  0  0
  8  9  2  0  0  0  0
  8 21  1  0  0  0  0
  9 10  1  0  0  0  0
 10 11  2  0  0  0  0
 10 22  1  0  0  0  0
 11 23  1  0  0  0  0
M  CHG  1   1   1
M  END
> <s_m_source_file>
AV-unprocessed.smi

> <i_m_source_file_index>
2296

> <i_lp_mmshare_version>
43012

> <i_f3d_flags>
0

> <s_epik_input>
W09IXVtDSDJdW0NAQEhdKFtOSDJdKVtDSDJdYzFbY0hdW2NIXW5bY0hdW2NIXTE=

> <s_epik_cmdline>
J2VwaWtfcHl0aG9uJywgJy1waCcsICc3LjAnLCAnLXRuJywgJzgnLCAnLW1hJywgJzIwMCcsICctbWV0YWxfYmluZGluZycsICctaW1hZScsICc8aW5maWxlLm1hZT4nLCAnLW9tYWUnLCAnPG91dGZpbGUubWFlPic=

> <r_epik_Ionization_Penalty>
0.0199414

> <r_epik_Ionization_Penalty_Charging>
0.0188044

> <r_epik_Ionization_Penalty_Neutral>
0.00113699

> <r_epik_State_Penalty>
0.00788343

> <r_epik_Charging_Adjusted_Penalty>
0.0266878

> <i_epik_Tot_Q>
1

> <i_epik_Tot_abs_Q>
1

> <r_epik_Metal_State_Penalty>
-0

> <b_epik_Metal_Only>
0

> <s_lp_Force_Field>
OPLS_2005

> <r_lp_Energy>
8.03463

> <b_lp_Chiralities_Consistent>
1

> <s_lp_Variant>
AV-unprocessed.smi:2296-2

> <Gold.Version>
5.8.1

> <Gold.Id.Protein>
6NUR|6NUR_protein|mol2

> <Gold.PLP.Fitness>
39.4915

> <Gold.PLP.PLP>
-24.2566

> <Gold.PLP.part.hbond>
-5.0000

> <Gold.PLP.part.metal>
0.0000

> <Gold.PLP.part.buried>
-1.2490

> <Gold.PLP.part.nonpolar>
-19.6933

> <Gold.PLP.part.repulsive>
0.2659

> <Gold.PLP.ligand.clash>
0.0000

> <Gold.PLP.ligand.torsion>
0.2489

> <Gold.PLP.Chemscore.Hbond>
3.2471

> <Gold.PLP.Chemscore.CHOScore>
1.9942

> <Gold.PLP.Chemscore.Metal>
0.0000

> <Gold.Chemscore.Hbonds>
donor molecule, donor type, donor heavy atom, donor atom, acceptor molecule, acceptor atom, score
      L1  H     1    13       P1  7921  1.00
      L1  H     1    24       P1 10171  1.00
      L1  H     4    17       P1 10171  1.00
      P1  H 10785 10796       L1     9  0.26
      L1  C     8    21       P1 10747  0.89
      L1  C    10    22       P1 10952  1.00

> <Gold.PLP.Chemscore.Internal.Correction>
0.0085

> <Gold.Rescore>
     Score         DG    S(hbond)    S(metal)    S(lipo)     H(rot)  DE(clash)    DE(int)     intcor
     19.14     -19.89       3.71        0.00      64.24       2.14       0.44       0.32       ----

> <Gold.Chemscore.Fitness>
19.1355

> <Gold.Chemscore.DG>
-19.8931

> <Gold.Chemscore.ZeroCoef>
-5.4800

> <Gold.Chemscore.Hbond>
3.7055

> <Gold.Chemscore.Metal>
0.0000

> <Gold.Chemscore.Lipo>
64.2431

> <Gold.Chemscore.Internal_Hbond>
0.0000

> <Gold.Chemscore.DEClash>
0.4398

> <Gold.Chemscore.DEInternal>
0.3177

> <Gold.Chemscore.Rot>
2.1405

> <Gold.Chemscore.Internal.Correction>
   9.000000E+99

> <Gold.Chemscore.Hbonds>
donor molecule, donor type, donor heavy atom, donor atom, acceptor molecule, acceptor atom, score
      L1  H     1    13       P1  7921  0.97
      L1  H     1    24       P1 10171  0.95
      L1  H     4    17       P1 10171  0.97
      P1  H 10785 10796       L1     9  0.04

> <Gold.Chemscore.Hbond.Weighted>
-12.3764

> <Gold.Chemscore.Metal.Weighted>
-0.0000

> <Gold.Chemscore.Lipo.Weighted>
-7.5164

> <Gold.Chemscore.Internal_Hbond.Weighted>
0.0000

> <Gold.Chemscore.DEClash.Weighted>
0.4398

> <Gold.Chemscore.DEInternal.Weighted>
0.3177

> <Gold.Chemscore.Rot.Weighted>
5.4797

> <Gold.Chemscore.Internal.Correction.Weighted>
   9.000000E+99

> <Gold.Protein.RotatedTorsions>
[ 6907 6896 6895 6894 ] final   87.55 input  -60.11 | X-H torsion
[ 7974 7965 7964 7962 ] final -108.47 input  175.53 | X-H torsion
[ 8008 7997 7996 7995 ] final   17.29 input   59.86 | X-H torsion
[ 10167 10162 10161 10158 ] final   59.32 input  -65.29 | X-H torsion
[ 10718 10713 10712 10709 ] final   32.53 input   66.30 | X-H torsion
[ 10763 10752 10751 10750 ] final  -83.56 input  -60.55 | X-H torsion
[ 11005 11000 10999 10996 ] final  136.72 input  -57.11 | X-H torsion

> <Gold.Protein.ActiveResidues>
 VAL166  LYS551  ARG553  GLY616  TRP617  ASP618  TYR619  PRO620  LYS621  CYS622 
 ASP623  PHE694  ASN695  SER759  ASP760  ASP761  ALA762  ILE779  LEU786  VAL792 
 PHE793  MET794  SER795  GLU796  ALA797  LYS798  CYS799  TRP800  GLU811  SER814 

> <Gold.Protein.RotatedAtoms>
  152.5413  134.2259  159.8805 H   0  0  0  0  0  0  0  0  0  0  0  0  # atno 6907 bound_to 6896
  151.2233  133.4483  159.2609 H   0  0  0  0  0  0  0  0  0  0  0  0  # atno 6908 bound_to 6896
  151.0784  134.9856  159.8400 H   0  0  0  0  0  0  0  0  0  0  0  0  # atno 6909 bound_to 6896
  145.1925  140.9021  143.3416 H   0  0  0  0  0  0  0  0  0  0  0  0  # atno 7974 bound_to 7965
  154.8893  140.2984  155.5379 H   0  0  0  0  0  0  0  0  0  0  0  0  # atno 8008 bound_to 7997
  156.3021  140.2427  156.3841 H   0  0  0  0  0  0  0  0  0  0  0  0  # atno 8009 bound_to 7997
  154.8635  140.0404  157.1669 H   0  0  0  0  0  0  0  0  0  0  0  0  # atno 8010 bound_to 7997
  140.1777  144.4213  150.6630 H   0  0  0  0  0  0  0  0  0  0  0  0  # atno 10167 bound_to 10162
  157.2863  130.7280  149.6585 H   0  0  0  0  0  0  0  0  0  0  0  0  # atno 10718 bound_to 10713
  154.5891  135.5552  153.7261 H   0  0  0  0  0  0  0  0  0  0  0  0  # atno 10763 bound_to 10752
  153.0110  135.6339  154.1874 H   0  0  0  0  0  0  0  0  0  0  0  0  # atno 10764 bound_to 10752
  154.1815  135.2887  155.3030 H   0  0  0  0  0  0  0  0  0  0  0  0  # atno 10765 bound_to 10752
  140.0065  134.9457  157.0186 H   0  0  0  0  0  0  0  0  0  0  0  0  # atno 11005 bound_to 11000
  145.0027  139.3583  143.6159 LP  0  0  0  0  0  0  0  0  0  0  0  0  # atno 17320 bound_to 7965
  146.3433  139.9257  142.8760 LP  0  0  0  0  0  0  0  0  0  0  0  0  # atno 17321 bound_to 7965
  140.6540  143.2232  151.6011 LP  0  0  0  0  0  0  0  0  0  0  0  0  # atno 17342 bound_to 10162
  139.5310  144.2917  152.1147 LP  0  0  0  0  0  0  0  0  0  0  0  0  # atno 17343 bound_to 10162
  155.9665  130.4322  150.4955 LP  0  0  0  0  0  0  0  0  0  0  0  0  # atno 17370 bound_to 10713
  157.2908  131.0626  151.2135 LP  0  0  0  0  0  0  0  0  0  0  0  0  # atno 17371 bound_to 10713
  140.4631  134.1463  155.7193 LP  0  0  0  0  0  0  0  0  0  0  0  0  # atno 17394 bound_to 11000
  141.1681  133.8664  157.1655 LP  0  0  0  0  0  0  0  0  0  0  0  0  # atno 17395 bound_to 11000

$$$$
