AV-unprocessed.smi:1794|AV-procd|sdf|7235|dock5
  -GOLD-   22720 8483D 1   1.00000     0.00000
 Structure written by MMmdl.
 56 58  0  0  0  0  0  0  0  0  3 V2000
  148.5750  137.0491  156.7878 C   0  0  0  0  0  0  0  0  0  0  0  0
  149.7720  137.9358  156.3641 C   0  0  0  0  0  0  0  0  0  0  0  0
  150.6300  138.2222  157.6259 C   0  0  0  0  0  0  0  0  0  0  0  0
  150.6675  137.1679  155.3469 C   0  0  0  0  0  0  0  0  0  0  0  0
  149.9245  136.2124  154.5296 N   0  0  0  0  0  0  0  0  0  0  0  0
  149.8414  134.9010  154.7865 C   0  0  0  0  0  0  0  0  0  0  0  0
  150.3747  134.3650  155.7575 O   0  0  0  0  0  0  0  0  0  0  0  0
  149.1282  134.2635  153.8434 N   0  0  0  0  0  0  0  0  0  0  0  0
  148.8827  132.8661  153.7266 C   0  0  0  0  0  0  0  0  0  0  0  0
  149.6363  131.9211  154.4694 C   0  0  0  0  0  0  0  0  0  0  0  0
  149.3860  130.5446  154.3145 C   0  0  0  0  0  0  0  0  0  0  0  0
  148.3817  130.1326  153.4221 C   0  0  0  0  0  0  0  0  0  0  0  0
  147.6682  131.0562  152.7457 N   0  3  0  0  0  0  0  0  0  0  0  0
  147.8520  132.3952  152.8623 C   0  0  0  0  0  0  0  0  0  0  0  0
  147.0203  133.2449  152.0980 N   0  0  0  0  0  0  0  0  0  0  0  0
  146.1995  132.7035  151.0211 C   0  0  0  0  0  0  0  0  0  0  0  0
  145.2124  133.8166  150.6805 C   0  0  0  0  0  0  0  0  0  0  0  0
  144.9495  134.4490  152.0439 C   0  0  0  0  0  0  0  0  0  0  0  0
  146.2919  134.3160  152.7710 C   0  0  0  0  0  0  0  0  0  0  0  0
  149.3031  139.2257  155.7324 N   0  3  0  0  0  0  0  0  0  0  0  0
  150.3385  140.2936  155.6112 C   0  0  0  0  0  0  0  0  0  0  0  0
  149.7146  141.6099  155.1209 C   0  0  0  0  0  0  0  0  0  0  0  0
  149.0866  141.3952  153.8662 O   0  0  0  0  0  0  0  0  0  0  0  0
  148.0292  140.4540  153.9692 C   0  0  0  0  0  0  0  0  0  0  0  0
  148.5776  139.0940  154.4352 C   0  0  0  0  0  0  0  0  0  0  0  0
  148.9065  136.1700  157.3413 H   0  0  0  0  0  0  0  0  0  0  0  0
  148.0120  136.6828  155.9294 H   0  0  0  0  0  0  0  0  0  0  0  0
  147.8824  137.5846  157.4369 H   0  0  0  0  0  0  0  0  0  0  0  0
  151.0800  137.3177  158.0353 H   0  0  0  0  0  0  0  0  0  0  0  0
  150.0387  138.6400  158.4406 H   0  0  0  0  0  0  0  0  0  0  0  0
  151.4433  138.9150  157.4062 H   0  0  0  0  0  0  0  0  0  0  0  0
  151.1553  137.8505  154.6527 H   0  0  0  0  0  0  0  0  0  0  0  0
  151.4618  136.6374  155.8753 H   0  0  0  0  0  0  0  0  0  0  0  0
  149.4580  136.5741  153.7107 H   0  0  0  0  0  0  0  0  0  0  0  0
  148.8309  134.8240  153.0584 H   0  0  0  0  0  0  0  0  0  0  0  0
  150.4035  132.2322  155.1619 H   0  0  0  0  0  0  0  0  0  0  0  0
  149.9585  129.8167  154.8709 H   0  0  0  0  0  0  0  0  0  0  0  0
  148.1229  129.1003  153.2353 H   0  0  0  0  0  0  0  0  0  0  0  0
  146.8062  132.4222  150.1600 H   0  0  0  0  0  0  0  0  0  0  0  0
  145.6543  131.8225  151.3621 H   0  0  0  0  0  0  0  0  0  0  0  0
  145.6830  134.5442  150.0179 H   0  0  0  0  0  0  0  0  0  0  0  0
  144.3072  133.4503  150.1954 H   0  0  0  0  0  0  0  0  0  0  0  0
  144.6042  135.4810  151.9756 H   0  0  0  0  0  0  0  0  0  0  0  0
  144.1873  133.8744  152.5723 H   0  0  0  0  0  0  0  0  0  0  0  0
  146.1492  134.1124  153.8330 H   0  0  0  0  0  0  0  0  0  0  0  0
  146.8597  135.2418  152.6751 H   0  0  0  0  0  0  0  0  0  0  0  0
  150.8295  140.4921  156.5608 H   0  0  0  0  0  0  0  0  0  0  0  0
  151.1137  139.9886  154.9076 H   0  0  0  0  0  0  0  0  0  0  0  0
  148.9974  141.9989  155.8453 H   0  0  0  0  0  0  0  0  0  0  0  0
  150.4881  142.3685  154.9998 H   0  0  0  0  0  0  0  0  0  0  0  0
  147.2648  140.8212  154.6561 H   0  0  0  0  0  0  0  0  0  0  0  0
  147.5545  140.3511  152.9933 H   0  0  0  0  0  0  0  0  0  0  0  0
  149.2417  138.6832  153.6743 H   0  0  0  0  0  0  0  0  0  0  0  0
  147.7237  138.4243  154.5171 H   0  0  0  0  0  0  0  0  0  0  0  0
  148.6142  139.5900  156.3753 H   0  0  0  0  0  0  0  0  0  0  0  0
  146.9396  130.7256  152.1129 H   0  0  0  0  0  0  0  0  0  0  0  0
  1  2  1  0  0  0  0
  1 26  1  0  0  0  0
  1 27  1  0  0  0  0
  1 28  1  0  0  0  0
  2  3  1  0  0  0  0
  2  4  1  0  0  0  0
  2 20  1  0  0  0  0
  3 29  1  0  0  0  0
  3 30  1  0  0  0  0
  3 31  1  0  0  0  0
  4  5  1  0  0  0  0
  4 32  1  0  0  0  0
  4 33  1  0  0  0  0
  5  6  1  0  0  0  0
  5 34  1  0  0  0  0
  6  7  2  0  0  0  0
  6  8  1  0  0  0  0
  8  9  1  0  0  0  0
  8 35  1  0  0  0  0
  9 14  1  0  0  0  0
  9 10  2  0  0  0  0
 10 11  1  0  0  0  0
 10 36  1  0  0  0  0
 11 12  2  0  0  0  0
 11 37  1  0  0  0  0
 12 13  1  0  0  0  0
 12 38  1  0  0  0  0
 13 14  2  0  0  0  0
 13 56  1  0  0  0  0
 14 15  1  0  0  0  0
 15 19  1  0  0  0  0
 15 16  1  0  0  0  0
 16 17  1  0  0  0  0
 16 39  1  0  0  0  0
 16 40  1  0  0  0  0
 17 18  1  0  0  0  0
 17 41  1  0  0  0  0
 17 42  1  0  0  0  0
 18 19  1  0  0  0  0
 18 43  1  0  0  0  0
 18 44  1  0  0  0  0
 19 45  1  0  0  0  0
 19 46  1  0  0  0  0
 20 25  1  0  0  0  0
 20 21  1  0  0  0  0
 20 55  1  0  0  0  0
 21 22  1  0  0  0  0
 21 47  1  0  0  0  0
 21 48  1  0  0  0  0
 22 23  1  0  0  0  0
 22 49  1  0  0  0  0
 22 50  1  0  0  0  0
 23 24  1  0  0  0  0
 24 25  1  0  0  0  0
 24 51  1  0  0  0  0
 24 52  1  0  0  0  0
 25 53  1  0  0  0  0
 25 54  1  0  0  0  0
M  CHG  1  13   1
M  CHG  1  20   1
M  END
> <s_m_source_file>
AV-unprocessed.smi

> <i_m_source_file_index>
1794

> <i_lp_mmshare_version>
43012

> <i_f3d_flags>
0

> <s_epik_input>
W0NIMl0xW0NIMl1PW0NIMl1bQ0gyXU4xQyhbQ0gzXSkoW0NIM10pW0NIMl1bTkhdQyg9TylbTkhdYzJbY0hdW2NIXVtjSF1uYzJOM1tDSDJdW0NIMl1bQ0gyXVtDSDJdMw==

> <s_epik_cmdline>
J2VwaWtfcHl0aG9uJywgJy1waCcsICc3LjAnLCAnLXRuJywgJzgnLCAnLW1hJywgJzIwMCcsICctbWV0YWxfYmluZGluZycsICctaW1hZScsICc8aW5maWxlLm1hZT4nLCAnLW9tYWUnLCAnPG91dGZpbGUubWFlPic=

> <r_lp_tautomer_probability>
0.999994

> <r_epik_Ionization_Penalty>
1.80144

> <r_epik_Ionization_Penalty_Charging>
1.80142

> <r_epik_Ionization_Penalty_Neutral>
2.02981e-05

> <r_epik_State_Penalty>
1.84115

> <r_epik_Charging_Adjusted_Penalty>
3.64257

> <i_epik_Tot_Q>
2

> <i_epik_Tot_abs_Q>
2

> <r_epik_Metal_State_Penalty>
1.92426

> <b_epik_Metal_Only>
0

> <s_lp_Force_Field>
OPLS_2005

> <r_lp_Energy>
63.0658

> <b_lp_Chiralities_Consistent>
1

> <s_lp_Variant>
AV-unprocessed.smi:1794-4

> <Gold.Version>
5.8.1

> <Gold.Id.Protein>
6NUR|6NUR_protein|mol2

> <Gold.PLP.Fitness>
43.1137

> <Gold.PLP.PLP>
-37.0483

> <Gold.PLP.part.hbond>
-5.2110

> <Gold.PLP.part.metal>
0.0000

> <Gold.PLP.part.buried>
-3.6539

> <Gold.PLP.part.nonpolar>
-29.3141

> <Gold.PLP.part.repulsive>
1.2817

> <Gold.PLP.ligand.clash>
0.0000

> <Gold.PLP.ligand.torsion>
1.2042

> <Gold.PLP.Chemscore.Hbond>
2.6620

> <Gold.PLP.Chemscore.CHOScore>
0.0000

> <Gold.PLP.Chemscore.Metal>
0.0000

> <Gold.Chemscore.Hbonds>
donor molecule, donor type, donor heavy atom, donor atom, acceptor molecule, acceptor atom, score
      L1  H     5    34       P1  7948  0.90
      L1  H     8    35       P1  7948  0.90
      P1  H  8011  8017       L1    23  0.77

> <Gold.PLP.Chemscore.Internal.Correction>
0.4879

> <Gold.Rescore>
     Score         DG    S(hbond)    S(metal)    S(lipo)     H(rot)  DE(clash)    DE(int)     intcor
     14.60     -17.20       2.06        0.00      77.16       1.64       0.04       2.56       ----

> <Gold.Chemscore.Fitness>
14.5962

> <Gold.Chemscore.DG>
-17.1974

> <Gold.Chemscore.ZeroCoef>
-5.4800

> <Gold.Chemscore.Hbond>
2.0585

> <Gold.Chemscore.Metal>
0.0000

> <Gold.Chemscore.Lipo>
77.1583

> <Gold.Chemscore.Internal_Hbond>
0.0000

> <Gold.Chemscore.DEClash>
0.0408

> <Gold.Chemscore.DEInternal>
2.5603

> <Gold.Chemscore.Rot>
1.6350

> <Gold.Chemscore.Internal.Correction>
   9.000000E+99

> <Gold.Chemscore.Hbonds>
donor molecule, donor type, donor heavy atom, donor atom, acceptor molecule, acceptor atom, score
      L1  H     5    34       P1  7948  0.72
      L1  H     8    35       P1  7948  0.18
      P1  H  8011  8017       L1    23  0.72

> <Gold.Chemscore.Hbond.Weighted>
-6.8755

> <Gold.Chemscore.Metal.Weighted>
-0.0000

> <Gold.Chemscore.Lipo.Weighted>
-9.0275

> <Gold.Chemscore.Internal_Hbond.Weighted>
0.0000

> <Gold.Chemscore.DEClash.Weighted>
0.0408

> <Gold.Chemscore.DEInternal.Weighted>
2.5603

> <Gold.Chemscore.Rot.Weighted>
4.1856

> <Gold.Chemscore.Internal.Correction.Weighted>
   9.000000E+99

> <Gold.Protein.RotatedTorsions>
[ 6907 6896 6895 6894 ] final -116.47 input  -60.11 | X-H torsion
[ 7974 7965 7964 7962 ] final   39.34 input  175.53 | X-H torsion
[ 8008 7997 7996 7995 ] final  -19.10 input   59.86 | X-H torsion
[ 10167 10162 10161 10158 ] final   85.35 input  -65.29 | X-H torsion
[ 10718 10713 10712 10709 ] final  126.65 input   66.30 | X-H torsion
[ 10763 10752 10751 10750 ] final  -30.37 input  -60.55 | X-H torsion
[ 11005 11000 10999 10996 ] final   41.68 input  -57.11 | X-H torsion

> <Gold.Protein.ActiveResidues>
 VAL166  LYS551  ARG553  GLY616  TRP617  ASP618  TYR619  PRO620  LYS621  CYS622 
 ASP623  PHE694  ASN695  SER759  ASP760  ASP761  ALA762  ILE779  LEU786  VAL792 
 PHE793  MET794  SER795  GLU796  ALA797  LYS798  CYS799  TRP800  GLU811  SER814 

> <Gold.Protein.RotatedAtoms>
  150.8059  133.8512  159.3205 H   0  0  0  0  0  0  0  0  0  0  0  0  # atno 6907 bound_to 6896
  151.6311  135.1021  160.0131 H   0  0  0  0  0  0  0  0  0  0  0  0  # atno 6908 bound_to 6896
  152.4149  133.6982  159.6465 H   0  0  0  0  0  0  0  0  0  0  0  0  # atno 6909 bound_to 6896
  146.0992  139.5663  142.9425 H   0  0  0  0  0  0  0  0  0  0  0  0  # atno 7974 bound_to 7965
  154.4860  140.2098  155.9655 H   0  0  0  0  0  0  0  0  0  0  0  0  # atno 8008 bound_to 7997
  156.1236  140.3209  155.8213 H   0  0  0  0  0  0  0  0  0  0  0  0  # atno 8009 bound_to 7997
  155.4423  140.0511  157.3000 H   0  0  0  0  0  0  0  0  0  0  0  0  # atno 8010 bound_to 7997
  139.8986  144.6343  150.8661 H   0  0  0  0  0  0  0  0  0  0  0  0  # atno 10167 bound_to 10162
  157.5401  131.1097  150.8873 H   0  0  0  0  0  0  0  0  0  0  0  0  # atno 10718 bound_to 10713
  153.7799  135.6906  153.4890 H   0  0  0  0  0  0  0  0  0  0  0  0  # atno 10763 bound_to 10752
  153.1818  135.4503  155.0037 H   0  0  0  0  0  0  0  0  0  0  0  0  # atno 10764 bound_to 10752
  154.8086  135.3367  154.7303 H   0  0  0  0  0  0  0  0  0  0  0  0  # atno 10765 bound_to 10752
  140.1811  134.4102  155.8199 H   0  0  0  0  0  0  0  0  0  0  0  0  # atno 11005 bound_to 11000
  145.5888  141.0372  143.2081 LP  0  0  0  0  0  0  0  0  0  0  0  0  # atno 17320 bound_to 7965
  144.7419  139.7425  143.7307 LP  0  0  0  0  0  0  0  0  0  0  0  0  # atno 17321 bound_to 7965
  140.7711  143.3454  151.2122 LP  0  0  0  0  0  0  0  0  0  0  0  0  # atno 17342 bound_to 10162
  139.7045  143.9478  152.2920 LP  0  0  0  0  0  0  0  0  0  0  0  0  # atno 17343 bound_to 10162
  156.9428  130.5391  149.5280 LP  0  0  0  0  0  0  0  0  0  0  0  0  # atno 17370 bound_to 10713
  156.0489  130.5562  150.8945 LP  0  0  0  0  0  0  0  0  0  0  0  0  # atno 17371 bound_to 10713
  141.2223  133.7001  156.7932 LP  0  0  0  0  0  0  0  0  0  0  0  0  # atno 17394 bound_to 11000
  140.2266  134.8717  157.3433 LP  0  0  0  0  0  0  0  0  0  0  0  0  # atno 17395 bound_to 11000

$$$$
