AV-unprocessed.smi:1844|AV-procd|sdf|7509|dock2
  -GOLD-   22720 9213D 1   1.00000     0.00000
 Structure written by MMmdl.
 45 46  0  0  0  0  0  0  0  0  1 V2000
  147.0354  142.1548  154.7897 C   0  0  0  0  0  0  0  0  0  0  0  0
  148.0248  141.2053  155.2762 N   0  0  0  0  0  0  0  0  0  0  0  0
  149.1226  140.8347  154.5966 C   0  0  0  0  0  0  0  0  0  0  0  0
  149.3748  141.2872  153.4787 O   0  0  0  0  0  0  0  0  0  0  0  0
  149.9584  139.8630  155.3060 C   0  0  0  0  0  0  0  0  0  0  0  0
  150.5452  138.6969  154.6629 C   0  0  0  0  0  0  0  0  0  0  0  0
  151.3291  137.8514  155.3602 C   0  0  0  0  0  0  0  0  0  0  0  0
  151.6237  138.0644  156.7798 C   0  0  0  0  0  0  0  0  0  0  0  0
  152.3625  137.3111  157.4138 O   0  0  0  0  0  0  0  0  0  0  0  0
  151.0365  139.1602  157.3502 N   0  0  0  0  0  0  0  0  0  0  0  0
  151.2859  139.5040  158.7630 C   0  0  0  0  0  0  0  0  0  0  0  0
  152.3856  140.5600  158.9720 C   0  0  0  0  0  0  0  0  0  0  0  0
  153.5659  140.2350  158.8513 O   0  0  0  0  0  0  0  0  0  0  0  0
  151.9988  141.8093  159.2777 N   0  0  0  0  0  0  0  0  0  0  0  0
  152.8650  142.9629  159.5024 C   0  0  1  0  0  0  0  0  0  0  0  0
  152.7258  143.9804  158.3496 C   0  0  0  0  0  0  0  0  0  0  0  0
  151.3416  144.6527  158.3368 C   0  0  0  0  0  0  0  0  0  0  0  0
  151.0320  145.3088  159.6907 C   0  0  0  0  0  0  0  0  0  0  0  0
  151.1540  144.3004  160.8446 C   0  0  0  0  0  0  0  0  0  0  0  0
  152.5415  143.6235  160.8658 C   0  0  1  0  0  0  0  0  0  0  0  0
  152.6702  142.6458  162.0473 C   0  0  0  0  0  0  0  0  0  0  0  0
  150.2215  140.0432  156.6150 C   0  0  0  0  0  0  0  0  0  0  0  0
  146.2498  142.2859  155.5339 H   0  0  0  0  0  0  0  0  0  0  0  0
  146.5753  141.7983  153.8672 H   0  0  0  0  0  0  0  0  0  0  0  0
  147.4907  143.1273  154.5993 H   0  0  0  0  0  0  0  0  0  0  0  0
  147.8669  140.8020  156.1881 H   0  0  0  0  0  0  0  0  0  0  0  0
  150.3672  138.4813  153.6196 H   0  0  0  0  0  0  0  0  0  0  0  0
  151.7534  136.9926  154.8610 H   0  0  0  0  0  0  0  0  0  0  0  0
  150.3690  139.8755  159.2228 H   0  0  0  0  0  0  0  0  0  0  0  0
  151.5462  138.6127  159.3362 H   0  0  0  0  0  0  0  0  0  0  0  0
  151.0066  141.9789  159.3578 H   0  0  0  0  0  0  0  0  0  0  0  0
  153.8988  142.6135  159.5319 H   0  0  0  0  0  0  0  0  0  0  0  0
  153.4937  144.7477  158.4556 H   0  0  0  0  0  0  0  0  0  0  0  0
  152.9141  143.4979  157.3898 H   0  0  0  0  0  0  0  0  0  0  0  0
  151.3005  145.4007  157.5444 H   0  0  0  0  0  0  0  0  0  0  0  0
  150.5731  143.9148  158.1018 H   0  0  0  0  0  0  0  0  0  0  0  0
  151.7190  146.1392  159.8584 H   0  0  0  0  0  0  0  0  0  0  0  0
  150.0290  145.7364  159.6751 H   0  0  0  0  0  0  0  0  0  0  0  0
  150.9757  144.8110  161.7915 H   0  0  0  0  0  0  0  0  0  0  0  0
  150.3711  143.5461  160.7529 H   0  0  0  0  0  0  0  0  0  0  0  0
  153.2827  144.4082  161.0252 H   0  0  0  0  0  0  0  0  0  0  0  0
  151.9232  141.8523  162.0010 H   0  0  0  0  0  0  0  0  0  0  0  0
  152.5386  143.1636  162.9975 H   0  0  0  0  0  0  0  0  0  0  0  0
  153.6545  142.1771  162.0623 H   0  0  0  0  0  0  0  0  0  0  0  0
  149.8462  140.8803  157.1875 H   0  0  0  0  0  0  0  0  0  0  0  0
  1  2  1  0  0  0  0
  1 23  1  0  0  0  0
  1 24  1  0  0  0  0
  1 25  1  0  0  0  0
  2  3  1  0  0  0  0
  2 26  1  0  0  0  0
  3  4  2  0  0  0  0
  3  5  1  0  0  0  0
  5 22  2  0  0  0  0
  5  6  1  0  0  0  0
  6  7  2  0  0  0  0
  6 27  1  0  0  0  0
  7  8  1  0  0  0  0
  7 28  1  0  0  0  0
  8  9  2  0  0  0  0
  8 10  1  0  0  0  0
 10 11  1  0  0  0  0
 10 22  1  0  0  0  0
 11 12  1  0  0  0  0
 11 29  1  0  0  0  0
 11 30  1  0  0  0  0
 12 13  2  0  0  0  0
 12 14  1  0  0  0  0
 14 15  1  0  0  0  0
 14 31  1  0  0  0  0
 15 20  1  0  0  0  0
 15 16  1  0  0  0  0
 15 32  1  0  0  0  0
 16 17  1  0  0  0  0
 16 33  1  0  0  0  0
 16 34  1  0  0  0  0
 17 18  1  0  0  0  0
 17 35  1  0  0  0  0
 17 36  1  0  0  0  0
 18 19  1  0  0  0  0
 18 37  1  0  0  0  0
 18 38  1  0  0  0  0
 19 20  1  0  0  0  0
 19 39  1  0  0  0  0
 19 40  1  0  0  0  0
 20 21  1  0  0  0  0
 20 41  1  0  0  0  0
 21 42  1  0  0  0  0
 21 43  1  0  0  0  0
 21 44  1  0  0  0  0
 22 45  1  0  0  0  0
M  END
> <s_m_source_file>
AV-unprocessed.smi

> <i_m_source_file_index>
1844

> <i_lp_mmshare_version>
43012

> <i_f3d_flags>
0

> <s_epik_input>
W0NIM11bTkhdQyg9TyljMVtjSF1bY0hdYyg9TyluKFtjSF0xKVtDSDJdQyg9TylbTkhdW0NAQEhdMltDSDJdW0NIMl1bQ0gyXVtDSDJdW0NASF0yW0NIM10=

> <s_epik_cmdline>
J2VwaWtfcHl0aG9uJywgJy1waCcsICc3LjAnLCAnLXRuJywgJzgnLCAnLW1hJywgJzIwMCcsICctbWV0YWxfYmluZGluZycsICctaW1hZScsICc8aW5maWxlLm1hZT4nLCAnLW9tYWUnLCAnPG91dGZpbGUubWFlPic=

> <r_lp_tautomer_probability>
1

> <r_epik_Ionization_Penalty>
3.66612e-07

> <r_epik_Ionization_Penalty_Charging>
5.18929e-08

> <r_epik_Ionization_Penalty_Neutral>
3.14719e-07

> <r_epik_State_Penalty>
-0

> <r_epik_Charging_Adjusted_Penalty>
5.18929e-08

> <i_epik_Tot_Q>
0

> <i_epik_Tot_abs_Q>
0

> <r_epik_Metal_State_Penalty>
-0

> <b_epik_Metal_Only>
0

> <s_lp_Force_Field>
OPLS_2005

> <r_lp_Energy>
21.2081

> <b_lp_Chiralities_Consistent>
1

> <s_lp_Variant>
AV-unprocessed.smi:1844-2

> <Gold.Version>
5.8.1

> <Gold.Id.Protein>
6NUR|6NUR_protein|mol2

> <Gold.PLP.Fitness>
47.7869

> <Gold.PLP.PLP>
-44.1659

> <Gold.PLP.part.hbond>
-3.0000

> <Gold.PLP.part.metal>
0.0000

> <Gold.PLP.part.buried>
-6.4238

> <Gold.PLP.part.nonpolar>
-38.6724

> <Gold.PLP.part.repulsive>
3.5287

> <Gold.PLP.ligand.clash>
0.0000

> <Gold.PLP.ligand.torsion>
1.3084

> <Gold.PLP.Chemscore.Hbond>
2.0675

> <Gold.PLP.Chemscore.CHOScore>
0.0000

> <Gold.PLP.Chemscore.Metal>
0.0000

> <Gold.Chemscore.Hbonds>
donor molecule, donor type, donor heavy atom, donor atom, acceptor molecule, acceptor atom, score
      P1  H  7989  7998       L1     4  0.06
      P1  H  7997  8008       L1    13  0.86
      P1  H  8011  8017       L1     4  0.98

> <Gold.PLP.Chemscore.Internal.Correction>
0.0354

> <Gold.Rescore>
     Score         DG    S(hbond)    S(metal)    S(lipo)     H(rot)  DE(clash)    DE(int)     intcor
     19.34     -22.19       1.98        0.00     119.05       1.49       1.65       1.20       ----

> <Gold.Chemscore.Fitness>
19.3386

> <Gold.Chemscore.DG>
-22.1941

> <Gold.Chemscore.ZeroCoef>
-5.4800

> <Gold.Chemscore.Hbond>
1.9777

> <Gold.Chemscore.Metal>
0.0000

> <Gold.Chemscore.Lipo>
119.0502

> <Gold.Chemscore.Internal_Hbond>
0.0000

> <Gold.Chemscore.DEClash>
1.6531

> <Gold.Chemscore.DEInternal>
1.2023

> <Gold.Chemscore.Rot>
1.4923

> <Gold.Chemscore.Internal.Correction>
   9.000000E+99

> <Gold.Chemscore.Hbonds>
donor molecule, donor type, donor heavy atom, donor atom, acceptor molecule, acceptor atom, score
      P1  H  7989  7998       L1     4  0.02
      P1  H  7997  8008       L1    13  0.79
      P1  H  8011  8017       L1     4  0.93

> <Gold.Chemscore.Hbond.Weighted>
-6.6056

> <Gold.Chemscore.Metal.Weighted>
-0.0000

> <Gold.Chemscore.Lipo.Weighted>
-13.9289

> <Gold.Chemscore.Internal_Hbond.Weighted>
0.0000

> <Gold.Chemscore.DEClash.Weighted>
1.6531

> <Gold.Chemscore.DEInternal.Weighted>
1.2023

> <Gold.Chemscore.Rot.Weighted>
3.8204

> <Gold.Chemscore.Internal.Correction.Weighted>
   9.000000E+99

> <Gold.Protein.RotatedTorsions>
[ 6907 6896 6895 6894 ] final   42.60 input  -60.11 | X-H torsion
[ 7974 7965 7964 7962 ] final  -45.02 input  175.53 | X-H torsion
[ 8008 7997 7996 7995 ] final -101.06 input   59.86 | X-H torsion
[ 10167 10162 10161 10158 ] final  -37.30 input  -65.29 | X-H torsion
[ 10718 10713 10712 10709 ] final   25.56 input   66.30 | X-H torsion
[ 10763 10752 10751 10750 ] final  103.88 input  -60.55 | X-H torsion
[ 11005 11000 10999 10996 ] final  172.22 input  -57.11 | X-H torsion

> <Gold.Protein.ActiveResidues>
 VAL166  LYS551  ARG553  GLY616  TRP617  ASP618  TYR619  PRO620  LYS621  CYS622 
 ASP623  PHE694  ASN695  SER759  ASP760  ASP761  ALA762  ILE779  LEU786  VAL792 
 PHE793  MET794  SER795  GLU796  ALA797  LYS798  CYS799  TRP800  GLU811  SER814 

> <Gold.Protein.RotatedAtoms>
  152.2099  134.8511  160.0498 H   0  0  0  0  0  0  0  0  0  0  0  0  # atno 6907 bound_to 6896
  151.9334  133.3612  159.3947 H   0  0  0  0  0  0  0  0  0  0  0  0  # atno 6908 bound_to 6896
  150.6974  134.4439  159.5349 H   0  0  0  0  0  0  0  0  0  0  0  0  # atno 6909 bound_to 6896
  145.9863  140.7230  142.9339 H   0  0  0  0  0  0  0  0  0  0  0  0  # atno 7974 bound_to 7965
  154.8373  140.0437  157.1517 H   0  0  0  0  0  0  0  0  0  0  0  0  # atno 8008 bound_to 7997
  154.9086  140.3010  155.5258 H   0  0  0  0  0  0  0  0  0  0  0  0  # atno 8009 bound_to 7997
  156.2990  140.2362  156.4123 H   0  0  0  0  0  0  0  0  0  0  0  0  # atno 8010 bound_to 7997
  140.7121  143.3351  151.2482 H   0  0  0  0  0  0  0  0  0  0  0  0  # atno 10167 bound_to 10162
  157.1950  130.6863  149.6165 H   0  0  0  0  0  0  0  0  0  0  0  0  # atno 10718 bound_to 10713
  153.3585  135.3962  155.1700 H   0  0  0  0  0  0  0  0  0  0  0  0  # atno 10763 bound_to 10752
  154.8675  135.3673  154.5130 H   0  0  0  0  0  0  0  0  0  0  0  0  # atno 10764 bound_to 10752
  153.5588  135.7081  153.5617 H   0  0  0  0  0  0  0  0  0  0  0  0  # atno 10765 bound_to 10752
  140.3274  134.7386  157.4109 H   0  0  0  0  0  0  0  0  0  0  0  0  # atno 11005 bound_to 11000
  144.6875  140.2993  143.7266 LP  0  0  0  0  0  0  0  0  0  0  0  0  # atno 17320 bound_to 7965
  145.7696  139.1853  143.2220 LP  0  0  0  0  0  0  0  0  0  0  0  0  # atno 17321 bound_to 7965
  139.6843  143.9800  152.2826 LP  0  0  0  0  0  0  0  0  0  0  0  0  # atno 17342 bound_to 10162
  139.9440  144.6663  150.8237 LP  0  0  0  0  0  0  0  0  0  0  0  0  # atno 17343 bound_to 10162
  155.9707  130.4602  150.6064 LP  0  0  0  0  0  0  0  0  0  0  0  0  # atno 17370 bound_to 10713
  157.3823  131.0783  151.1466 LP  0  0  0  0  0  0  0  0  0  0  0  0  # atno 17371 bound_to 10713
  140.0890  134.5627  155.8463 LP  0  0  0  0  0  0  0  0  0  0  0  0  # atno 17394 bound_to 11000
  141.2072  133.6662  156.6290 LP  0  0  0  0  0  0  0  0  0  0  0  0  # atno 17395 bound_to 11000

$$$$
