AV-unprocessed.smi:3187|AV-procd|sdf|12179|dock7
  -GOLD-   2272018 23D 1   1.00000     0.00000
 Structure written by MMmdl.
 42 43  0  0  0  0  0  0  0  0  3 V2000
  152.1057  145.2913  157.0882 C   0  0  0  0  0  0  0  0  0  0  0  0
  152.0817  144.6251  158.4541 C   0  0  0  0  0  0  0  0  0  0  0  0
  151.8903  145.3534  159.5720 C   0  0  0  0  0  0  0  0  0  0  0  0
  151.9028  144.7941  160.9839 C   0  0  0  0  0  0  0  0  0  0  0  0
  151.9629  143.2585  161.0237 C   0  0  0  0  0  0  0  0  0  0  0  0
  152.8644  142.7037  159.9076 C   0  0  1  0  0  0  0  0  0  0  0  0
  153.1349  141.1984  160.0746 C   0  0  0  0  0  0  0  0  0  0  0  0
  152.3300  143.1112  158.5052 C   0  0  1  0  0  0  0  0  0  0  0  0
  151.0822  142.2976  158.0713 C   0  0  0  0  0  0  0  0  0  0  0  0
  150.6984  142.5435  156.6671 N   0  3  0  0  0  0  0  0  0  0  0  0
  150.3276  141.3268  155.9188 C   0  0  0  0  0  0  0  0  0  0  0  0
  151.5378  140.3993  155.7389 C   0  0  0  0  0  0  0  0  0  0  0  0
  151.1447  139.0812  155.2354 N   0  0  0  0  0  0  0  0  0  0  0  0
  151.5635  137.8584  155.6942 C   0  0  0  0  0  0  0  0  0  0  0  0
  150.9384  136.9152  154.9196 C   0  0  0  0  0  0  0  0  0  0  0  0
  150.1645  137.6012  154.0223 N   0  3  0  0  0  0  0  0  0  0  0  0
  150.2906  138.9183  154.2161 C   0  0  0  0  0  0  0  0  0  0  0  0
  152.9771  144.9677  156.5185 H   0  0  0  0  0  0  0  0  0  0  0  0
  152.1588  146.3765  157.1836 H   0  0  0  0  0  0  0  0  0  0  0  0
  151.2084  145.0628  156.5159 H   0  0  0  0  0  0  0  0  0  0  0  0
  151.7438  146.4212  159.4949 H   0  0  0  0  0  0  0  0  0  0  0  0
  152.7755  145.2079  161.4902 H   0  0  0  0  0  0  0  0  0  0  0  0
  151.0265  145.1510  161.5256 H   0  0  0  0  0  0  0  0  0  0  0  0
  152.3229  142.9376  162.0020 H   0  0  0  0  0  0  0  0  0  0  0  0
  150.9575  142.8489  160.9247 H   0  0  0  0  0  0  0  0  0  0  0  0
  153.8360  143.1882  160.0211 H   0  0  0  0  0  0  0  0  0  0  0  0
  152.2127  140.6200  160.1305 H   0  0  0  0  0  0  0  0  0  0  0  0
  153.6882  141.0065  160.9945 H   0  0  0  0  0  0  0  0  0  0  0  0
  153.7316  140.8103  159.2487 H   0  0  0  0  0  0  0  0  0  0  0  0
  153.1307  142.8942  157.7963 H   0  0  0  0  0  0  0  0  0  0  0  0
  151.2661  141.2281  158.1634 H   0  0  0  0  0  0  0  0  0  0  0  0
  150.2362  142.5318  158.7187 H   0  0  0  0  0  0  0  0  0  0  0  0
  149.9106  143.1760  156.6622 H   0  0  0  0  0  0  0  0  0  0  0  0
  149.5314  140.8050  156.4519 H   0  0  0  0  0  0  0  0  0  0  0  0
  149.9301  141.6144  154.9442 H   0  0  0  0  0  0  0  0  0  0  0  0
  152.2488  140.8272  155.0304 H   0  0  0  0  0  0  0  0  0  0  0  0
  152.0676  140.2614  156.6830 H   0  0  0  0  0  0  0  0  0  0  0  0
  152.2565  137.7507  156.5162 H   0  0  0  0  0  0  0  0  0  0  0  0
  150.9848  135.8358  154.9393 H   0  0  0  0  0  0  0  0  0  0  0  0
  149.7989  139.6948  153.6573 H   0  0  0  0  0  0  0  0  0  0  0  0
  151.4738  142.9911  156.1991 H   0  0  0  0  0  0  0  0  0  0  0  0
  149.5794  137.1754  153.3141 H   0  0  0  0  0  0  0  0  0  0  0  0
  1  2  1  0  0  0  0
  1 18  1  0  0  0  0
  1 19  1  0  0  0  0
  1 20  1  0  0  0  0
  2  8  1  0  0  0  0
  2  3  2  0  0  0  0
  3  4  1  0  0  0  0
  3 21  1  0  0  0  0
  4  5  1  0  0  0  0
  4 22  1  0  0  0  0
  4 23  1  0  0  0  0
  5  6  1  0  0  0  0
  5 24  1  0  0  0  0
  5 25  1  0  0  0  0
  6  7  1  0  0  0  0
  6  8  1  0  0  0  0
  6 26  1  0  0  0  0
  7 27  1  0  0  0  0
  7 28  1  0  0  0  0
  7 29  1  0  0  0  0
  8  9  1  0  0  0  0
  8 30  1  0  0  0  0
  9 10  1  0  0  0  0
  9 31  1  0  0  0  0
  9 32  1  0  0  0  0
 10 11  1  0  0  0  0
 10 33  1  0  0  0  0
 10 41  1  0  0  0  0
 11 12  1  0  0  0  0
 11 34  1  0  0  0  0
 11 35  1  0  0  0  0
 12 13  1  0  0  0  0
 12 36  1  0  0  0  0
 12 37  1  0  0  0  0
 13 17  1  0  0  0  0
 13 14  1  0  0  0  0
 14 15  2  0  0  0  0
 14 38  1  0  0  0  0
 15 16  1  0  0  0  0
 15 39  1  0  0  0  0
 16 17  2  0  0  0  0
 16 42  1  0  0  0  0
 17 40  1  0  0  0  0
M  CHG  1  10   1
M  CHG  1  16   1
M  END
> <s_m_source_file>
AV-unprocessed.smi

> <i_m_source_file_index>
3187

> <i_lp_mmshare_version>
43012

> <i_f3d_flags>
0

> <s_epik_input>
W0NIM11DMT1bQ0hdW0NIMl1bQ0gyXVtDQEBIXShbQ0gzXSlbQ0BIXTFbQ0gyXVtOSF1bQ0gyXVtDSDJdbjJbY0hdW2NIXW5bY0hdMg==

> <s_epik_cmdline>
J2VwaWtfcHl0aG9uJywgJy1waCcsICc3LjAnLCAnLXRuJywgJzgnLCAnLW1hJywgJzIwMCcsICctbWV0YWxfYmluZGluZycsICctaW1hZScsICc8aW5maWxlLm1hZT4nLCAnLW9tYWUnLCAnPG91dGZpbGUubWFlPic=

> <r_lp_tautomer_probability>
1

> <r_epik_Ionization_Penalty>
1.51066

> <r_epik_Ionization_Penalty_Charging>
0.0026721

> <r_epik_Ionization_Penalty_Neutral>
1.50798

> <r_epik_State_Penalty>
1.12593

> <r_epik_Charging_Adjusted_Penalty>
1.12861

> <i_epik_Tot_Q>
2

> <i_epik_Tot_abs_Q>
2

> <r_epik_Metal_State_Penalty>
5.12155

> <b_epik_Metal_Only>
0

> <s_lp_Force_Field>
OPLS_2005

> <r_lp_Energy>
24.2531

> <b_lp_Chiralities_Consistent>
1

> <s_lp_Variant>
AV-unprocessed.smi:3187-5

> <Gold.Version>
5.8.1

> <Gold.Id.Protein>
6NUR|6NUR_protein|mol2

> <Gold.PLP.Fitness>
58.7554

> <Gold.PLP.PLP>
-45.2233

> <Gold.PLP.part.hbond>
-2.8126

> <Gold.PLP.part.metal>
0.0000

> <Gold.PLP.part.buried>
-3.1437

> <Gold.PLP.part.nonpolar>
-39.2090

> <Gold.PLP.part.repulsive>
0.1258

> <Gold.PLP.ligand.clash>
0.0000

> <Gold.PLP.ligand.torsion>
0.5356

> <Gold.PLP.Chemscore.Hbond>
3.8525

> <Gold.PLP.Chemscore.CHOScore>
0.9941

> <Gold.PLP.Chemscore.Metal>
0.0000

> <Gold.Chemscore.Hbonds>
donor molecule, donor type, donor heavy atom, donor atom, acceptor molecule, acceptor atom, score
      L1  H    10    33       P1  8028  1.53
      L1  H    16    42       P1  7948  2.00
      L1  C    17    40       P1  7957  1.00

> <Gold.PLP.Chemscore.Internal.Correction>
0.0636

> <Gold.Rescore>
     Score         DG    S(hbond)    S(metal)    S(lipo)     H(rot)  DE(clash)    DE(int)     intcor
     19.88     -22.50       1.88        0.00     134.80       1.97       2.09       0.53       ----

> <Gold.Chemscore.Fitness>
19.8771

> <Gold.Chemscore.DG>
-22.4953

> <Gold.Chemscore.ZeroCoef>
-5.4800

> <Gold.Chemscore.Hbond>
1.8848

> <Gold.Chemscore.Metal>
0.0000

> <Gold.Chemscore.Lipo>
134.7995

> <Gold.Chemscore.Internal_Hbond>
0.0000

> <Gold.Chemscore.DEClash>
2.0922

> <Gold.Chemscore.DEInternal>
0.5259

> <Gold.Chemscore.Rot>
1.9732

> <Gold.Chemscore.Internal.Correction>
   9.000000E+99

> <Gold.Chemscore.Hbonds>
donor molecule, donor type, donor heavy atom, donor atom, acceptor molecule, acceptor atom, score
      L1  H    10    33       P1  8028  0.73
      L1  H    16    42       P1  7948  0.78

> <Gold.Chemscore.Hbond.Weighted>
-6.2951

> <Gold.Chemscore.Metal.Weighted>
-0.0000

> <Gold.Chemscore.Lipo.Weighted>
-15.7715

> <Gold.Chemscore.Internal_Hbond.Weighted>
0.0000

> <Gold.Chemscore.DEClash.Weighted>
2.0922

> <Gold.Chemscore.DEInternal.Weighted>
0.5259

> <Gold.Chemscore.Rot.Weighted>
5.0514

> <Gold.Chemscore.Internal.Correction.Weighted>
   9.000000E+99

> <Gold.Protein.RotatedTorsions>
[ 6907 6896 6895 6894 ] final  177.28 input  -60.11 | X-H torsion
[ 7974 7965 7964 7962 ] final   45.68 input  175.53 | X-H torsion
[ 8008 7997 7996 7995 ] final   71.96 input   59.86 | X-H torsion
[ 10167 10162 10161 10158 ] final  171.93 input  -65.29 | X-H torsion
[ 10718 10713 10712 10709 ] final   14.40 input   66.30 | X-H torsion
[ 10763 10752 10751 10750 ] final  -37.43 input  -60.55 | X-H torsion
[ 11005 11000 10999 10996 ] final   83.98 input  -57.11 | X-H torsion

> <Gold.Protein.ActiveResidues>
 VAL166  LYS551  ARG553  GLY616  TRP617  ASP618  TYR619  PRO620  LYS621  CYS622 
 ASP623  PHE694  ASN695  SER759  ASP760  ASP761  ALA762  ILE779  LEU786  VAL792 
 PHE793  MET794  SER795  GLU796  ALA797  LYS798  CYS799  TRP800  GLU811  SER814 

> <Gold.Protein.RotatedAtoms>
  151.7066  133.3311  159.3279 H   0  0  0  0  0  0  0  0  0  0  0  0  # atno 6907 bound_to 6896
  150.7712  134.6569  159.6328 H   0  0  0  0  0  0  0  0  0  0  0  0  # atno 6908 bound_to 6896
  152.3737  134.6698  160.0219 H   0  0  0  0  0  0  0  0  0  0  0  0  # atno 6909 bound_to 6896
  146.0458  139.4937  142.9749 H   0  0  0  0  0  0  0  0  0  0  0  0  # atno 7974 bound_to 7965
  155.7617  140.3486  155.5201 H   0  0  0  0  0  0  0  0  0  0  0  0  # atno 8008 bound_to 7997
  155.8907  140.1017  157.1441 H   0  0  0  0  0  0  0  0  0  0  0  0  # atno 8009 bound_to 7997
  154.4033  140.1305  156.4300 H   0  0  0  0  0  0  0  0  0  0  0  0  # atno 8010 bound_to 7997
  139.5061  144.3431  151.9998 H   0  0  0  0  0  0  0  0  0  0  0  0  # atno 10167 bound_to 10162
  157.0385  130.6221  149.5747 H   0  0  0  0  0  0  0  0  0  0  0  0  # atno 10718 bound_to 10713
  153.8962  135.6807  153.4758 H   0  0  0  0  0  0  0  0  0  0  0  0  # atno 10763 bound_to 10752
  153.1154  135.4764  154.9104 H   0  0  0  0  0  0  0  0  0  0  0  0  # atno 10764 bound_to 10752
  154.7598  135.3207  154.8354 H   0  0  0  0  0  0  0  0  0  0  0  0  # atno 10765 bound_to 10752
  139.9014  134.8184  156.2383 H   0  0  0  0  0  0  0  0  0  0  0  0  # atno 11005 bound_to 11000
  145.6808  141.0191  143.1607 LP  0  0  0  0  0  0  0  0  0  0  0  0  # atno 17320 bound_to 7965
  144.7097  139.8419  143.7418 LP  0  0  0  0  0  0  0  0  0  0  0  0  # atno 17321 bound_to 7965
  140.2869  144.3798  150.6101 LP  0  0  0  0  0  0  0  0  0  0  0  0  # atno 17342 bound_to 10162
  140.5976  143.2167  151.7134 LP  0  0  0  0  0  0  0  0  0  0  0  0  # atno 17343 bound_to 10162
  156.0046  130.5130  150.7784 LP  0  0  0  0  0  0  0  0  0  0  0  0  # atno 17370 bound_to 10713
  157.5123  131.0926  151.0183 LP  0  0  0  0  0  0  0  0  0  0  0  0  # atno 17371 bound_to 10713
  141.0301  133.6993  156.1416 LP  0  0  0  0  0  0  0  0  0  0  0  0  # atno 17394 bound_to 11000
  140.7108  134.4463  157.5581 LP  0  0  0  0  0  0  0  0  0  0  0  0  # atno 17395 bound_to 11000

$$$$
