AV-unprocessed.smi:3115|AV-procd|sdf|11860|dock6
  -GOLD-   2272017243D 1   1.00000     0.00000
 Structure written by MMmdl.
 32 33  0  0  0  0  0  0  0  0  1 V2000
  151.3729  145.2938  159.5537 C   0  0  0  0  0  0  0  0  0  0  0  0
  152.1480  143.9952  159.3067 C   0  0  2  0  0  0  0  0  0  0  0  0
  151.5107  143.1433  158.1914 C   0  0  0  0  0  0  0  0  0  0  0  0
  152.2224  141.8781  158.0578 N   0  0  0  0  0  0  0  0  0  0  0  0
  151.7771  141.0951  156.9834 C   0  0  0  0  0  0  0  0  0  0  0  0
  150.5930  141.4659  156.3114 C   0  0  0  0  0  0  0  0  0  0  0  0
  150.1512  140.6771  155.2299 C   0  0  0  0  0  0  0  0  0  0  0  0
  148.8821  141.0305  154.4831 C   0  0  0  0  0  0  0  0  0  0  0  0
  148.8824  142.4033  154.0206 N   0  0  0  0  0  0  0  0  0  0  0  0
  150.9064  139.5445  154.8659 C   0  0  0  0  0  0  0  0  0  0  0  0
  152.0746  139.2557  155.5976 C   0  0  0  0  0  0  0  0  0  0  0  0
  152.5062  140.0084  156.6320 N   0  0  0  0  0  0  0  0  0  0  0  0
  152.2965  141.1476  159.3167 C   0  0  0  0  0  0  0  0  0  0  0  0
  152.9152  142.0410  160.4049 C   0  0  0  0  0  0  0  0  0  0  0  0
  152.1609  143.2444  160.5193 O   0  0  0  0  0  0  0  0  0  0  0  0
  151.3440  145.9107  158.6553 H   0  0  0  0  0  0  0  0  0  0  0  0
  151.8386  145.8810  160.3455 H   0  0  0  0  0  0  0  0  0  0  0  0
  150.3445  145.0883  159.8523 H   0  0  0  0  0  0  0  0  0  0  0  0
  153.1741  144.2488  159.0336 H   0  0  0  0  0  0  0  0  0  0  0  0
  150.4613  142.9529  158.4214 H   0  0  0  0  0  0  0  0  0  0  0  0
  151.5407  143.6817  157.2431 H   0  0  0  0  0  0  0  0  0  0  0  0
  150.0343  142.3378  156.6200 H   0  0  0  0  0  0  0  0  0  0  0  0
  148.7502  140.3638  153.6305 H   0  0  0  0  0  0  0  0  0  0  0  0
  148.0255  140.8795  155.1405 H   0  0  0  0  0  0  0  0  0  0  0  0
  147.9728  142.6381  153.6498 H   0  0  0  0  0  0  0  0  0  0  0  0
  149.0465  143.0218  154.8022 H   0  0  0  0  0  0  0  0  0  0  0  0
  150.6000  138.9113  154.0462 H   0  0  0  0  0  0  0  0  0  0  0  0
  152.6785  138.3965  155.3460 H   0  0  0  0  0  0  0  0  0  0  0  0
  151.2972  140.8332  159.6213 H   0  0  0  0  0  0  0  0  0  0  0  0
  152.8945  140.2448  159.1867 H   0  0  0  0  0  0  0  0  0  0  0  0
  152.9078  141.5241  161.3646 H   0  0  0  0  0  0  0  0  0  0  0  0
  153.9564  142.2720  160.1742 H   0  0  0  0  0  0  0  0  0  0  0  0
  1  2  1  0  0  0  0
  1 16  1  0  0  0  0
  1 17  1  0  0  0  0
  1 18  1  0  0  0  0
  2 15  1  0  0  0  0
  2  3  1  0  0  0  0
  2 19  1  0  0  0  0
  3  4  1  0  0  0  0
  3 20  1  0  0  0  0
  3 21  1  0  0  0  0
  4  5  1  0  0  0  0
  4 13  1  0  0  0  0
  5 12  1  0  0  0  0
  5  6  2  0  0  0  0
  6  7  1  0  0  0  0
  6 22  1  0  0  0  0
  7  8  1  0  0  0  0
  7 10  2  0  0  0  0
  8  9  1  0  0  0  0
  8 23  1  0  0  0  0
  8 24  1  0  0  0  0
  9 25  1  0  0  0  0
  9 26  1  0  0  0  0
 10 11  1  0  0  0  0
 10 27  1  0  0  0  0
 11 12  2  0  0  0  0
 11 28  1  0  0  0  0
 13 14  1  0  0  0  0
 13 29  1  0  0  0  0
 13 30  1  0  0  0  0
 14 15  1  0  0  0  0
 14 31  1  0  0  0  0
 14 32  1  0  0  0  0
M  END
> <s_m_source_file>
AV-unprocessed.smi

> <i_m_source_file_index>
3115

> <i_lp_mmshare_version>
43012

> <i_f3d_flags>
0

> <s_epik_input>
W0NIM11bQ0BASF0xW0NIMl1OKFtDSDJdW0NIMl1PMSljMltjSF1jKFtDSDJdW05IMl0pW2NIXVtjSF1uMg==

> <s_epik_cmdline>
J2VwaWtfcHl0aG9uJywgJy1waCcsICc3LjAnLCAnLXRuJywgJzgnLCAnLW1hJywgJzIwMCcsICctbWV0YWxfYmluZGluZycsICctaW1hZScsICc8aW5maWxlLm1hZT4nLCAnLW9tYWUnLCAnPG91dGZpbGUubWFlPic=

> <r_lp_tautomer_probability>
1

> <r_epik_Ionization_Penalty>
1.27341

> <r_epik_Ionization_Penalty_Charging>
0

> <r_epik_Ionization_Penalty_Neutral>
1.27341

> <r_epik_State_Penalty>
2.46834

> <r_epik_Charging_Adjusted_Penalty>
2.46834

> <i_epik_Tot_Q>
0

> <i_epik_Tot_abs_Q>
0

> <r_epik_Metal_State_Penalty>
2.44319

> <b_epik_Metal_Only>
0

> <s_lp_Force_Field>
OPLS_2005

> <r_lp_Energy>
17.2418

> <b_lp_Chiralities_Consistent>
1

> <s_lp_Variant>
AV-unprocessed.smi:3115-3

> <Gold.Version>
5.8.1

> <Gold.Id.Protein>
6NUR|6NUR_protein|mol2

> <Gold.PLP.Fitness>
39.8169

> <Gold.PLP.PLP>
-35.9117

> <Gold.PLP.part.hbond>
-3.0000

> <Gold.PLP.part.metal>
0.0000

> <Gold.PLP.part.buried>
-2.8729

> <Gold.PLP.part.nonpolar>
-28.9895

> <Gold.PLP.part.repulsive>
0.0514

> <Gold.PLP.ligand.clash>
2.4633

> <Gold.PLP.ligand.torsion>
0.1598

> <Gold.PLP.Chemscore.Hbond>
2.1960

> <Gold.PLP.Chemscore.CHOScore>
0.0000

> <Gold.PLP.Chemscore.Metal>
0.0000

> <Gold.Chemscore.Hbonds>
donor molecule, donor type, donor heavy atom, donor atom, acceptor molecule, acceptor atom, score
      L1  H     9    26       P1  8028  1.00
      P1  H  7997  8008       L1    12  1.00
      P1  H  8011  8017       L1     9  0.15

> <Gold.PLP.Chemscore.Internal.Correction>
0.1000

> <Gold.Rescore>
     Score         DG    S(hbond)    S(metal)    S(lipo)     H(rot)  DE(clash)    DE(int)     intcor
     18.48     -18.95       1.89        0.00      88.99       1.28       0.41       0.07       ----

> <Gold.Chemscore.Fitness>
18.4775

> <Gold.Chemscore.DG>
-18.9500

> <Gold.Chemscore.ZeroCoef>
-5.4800

> <Gold.Chemscore.Hbond>
1.8937

> <Gold.Chemscore.Metal>
0.0000

> <Gold.Chemscore.Lipo>
88.9925

> <Gold.Chemscore.Internal_Hbond>
0.0000

> <Gold.Chemscore.DEClash>
0.4055

> <Gold.Chemscore.DEInternal>
0.0670

> <Gold.Chemscore.Rot>
1.2762

> <Gold.Chemscore.Internal.Correction>
   9.000000E+99

> <Gold.Chemscore.Hbonds>
donor molecule, donor type, donor heavy atom, donor atom, acceptor molecule, acceptor atom, score
      L1  H     9    26       P1  8028  0.94
      P1  H  7997  8008       L1    12  0.38
      P1  H  8011  8017       L1     9  0.01

> <Gold.Chemscore.Hbond.Weighted>
-6.3249

> <Gold.Chemscore.Metal.Weighted>
-0.0000

> <Gold.Chemscore.Lipo.Weighted>
-10.4121

> <Gold.Chemscore.Internal_Hbond.Weighted>
0.0000

> <Gold.Chemscore.DEClash.Weighted>
0.4055

> <Gold.Chemscore.DEInternal.Weighted>
0.0670

> <Gold.Chemscore.Rot.Weighted>
3.2671

> <Gold.Chemscore.Internal.Correction.Weighted>
   9.000000E+99

> <Gold.Protein.RotatedTorsions>
[ 6907 6896 6895 6894 ] final -160.48 input  -60.11 | X-H torsion
[ 7974 7965 7964 7962 ] final  132.74 input  175.53 | X-H torsion
[ 8008 7997 7996 7995 ] final  -39.66 input   59.86 | X-H torsion
[ 10167 10162 10161 10158 ] final  -47.35 input  -65.29 | X-H torsion
[ 10718 10713 10712 10709 ] final  -36.91 input   66.30 | X-H torsion
[ 10763 10752 10751 10750 ] final  -23.93 input  -60.55 | X-H torsion
[ 11005 11000 10999 10996 ] final  -13.45 input  -57.11 | X-H torsion

> <Gold.Protein.ActiveResidues>
 VAL166  LYS551  ARG553  GLY616  TRP617  ASP618  TYR619  PRO620  LYS621  CYS622 
 ASP623  PHE694  ASN695  SER759  ASP760  ASP761  ALA762  ILE779  LEU786  VAL792 
 PHE793  MET794  SER795  GLU796  ALA797  LYS798  CYS799  TRP800  GLU811  SER814 

> <Gold.Protein.RotatedAtoms>
  151.3498  133.3930  159.2678 H   0  0  0  0  0  0  0  0  0  0  0  0  # atno 6907 bound_to 6896
  150.9810  134.9166  159.7855 H   0  0  0  0  0  0  0  0  0  0  0  0  # atno 6908 bound_to 6896
  152.5217  134.3462  159.9287 H   0  0  0  0  0  0  0  0  0  0  0  0  # atno 6909 bound_to 6896
  144.9937  139.4380  143.5326 H   0  0  0  0  0  0  0  0  0  0  0  0  # atno 7974 bound_to 7965
  154.4020  140.1546  156.2899 H   0  0  0  0  0  0  0  0  0  0  0  0  # atno 8008 bound_to 7997
  155.8795  140.3444  155.5855 H   0  0  0  0  0  0  0  0  0  0  0  0  # atno 8009 bound_to 7997
  155.7684  140.0827  157.2111 H   0  0  0  0  0  0  0  0  0  0  0  0  # atno 8010 bound_to 7997
  140.6779  143.2788  151.3914 H   0  0  0  0  0  0  0  0  0  0  0  0  # atno 10167 bound_to 10162
  156.3214  130.4266  149.7957 H   0  0  0  0  0  0  0  0  0  0  0  0  # atno 10718 bound_to 10713
  153.6757  135.6969  153.5133 H   0  0  0  0  0  0  0  0  0  0  0  0  # atno 10763 bound_to 10752
  153.2524  135.4271  155.0810 H   0  0  0  0  0  0  0  0  0  0  0  0  # atno 10764 bound_to 10752
  154.8414  135.3534  154.6300 H   0  0  0  0  0  0  0  0  0  0  0  0  # atno 10765 bound_to 10752
  140.7762  133.8399  155.9251 H   0  0  0  0  0  0  0  0  0  0  0  0  # atno 11005 bound_to 11000
  146.3437  139.9284  142.8757 LP  0  0  0  0  0  0  0  0  0  0  0  0  # atno 17320 bound_to 7965
  145.2249  140.9950  143.4024 LP  0  0  0  0  0  0  0  0  0  0  0  0  # atno 17321 bound_to 7965
  139.6082  144.1153  152.2271 LP  0  0  0  0  0  0  0  0  0  0  0  0  # atno 17342 bound_to 10162
  140.0558  144.5896  150.7300 LP  0  0  0  0  0  0  0  0  0  0  0  0  # atno 17343 bound_to 10162
  156.5264  130.8238  151.3221 LP  0  0  0  0  0  0  0  0  0  0  0  0  # atno 17370 bound_to 10713
  157.7412  130.9866  150.2432 LP  0  0  0  0  0  0  0  0  0  0  0  0  # atno 17371 bound_to 10713
  140.9526  134.1759  157.4716 LP  0  0  0  0  0  0  0  0  0  0  0  0  # atno 17394 bound_to 11000
  139.8749  134.9915  156.5552 LP  0  0  0  0  0  0  0  0  0  0  0  0  # atno 17395 bound_to 11000

$$$$
