AV-unprocessed.smi:1138|AV-procd|sdf|4868|dock5
  -GOLD-   22720 3433D 1   1.00000     0.00000
 Structure written by MMmdl.
 49 51  0  0  0  0  0  0  0  0  1 V2000
  143.6947  132.2971  149.9789 C   0  0  0  0  0  0  0  0  0  0  0  0
  144.7067  132.6279  150.9771 N   0  0  0  0  0  0  0  0  0  0  0  0
  145.6550  131.6084  151.4089 C   0  0  0  0  0  0  0  0  0  0  0  0
  144.8854  133.9731  151.3742 C   0  0  0  0  0  0  0  0  0  0  0  0
  145.9837  134.3671  152.1782 C   0  0  0  0  0  0  0  0  0  0  0  0
  146.1204  135.7206  152.5401 C   0  0  0  0  0  0  0  0  0  0  0  0
  145.1693  136.6555  152.0897 C   0  0  0  0  0  0  0  0  0  0  0  0
  145.3284  138.0127  152.4797 N   0  0  0  0  0  0  0  0  0  0  0  0
  146.4132  138.6086  153.0040 C   0  0  0  0  0  0  0  0  0  0  0  0
  147.4855  138.0533  153.2426 O   0  0  0  0  0  0  0  0  0  0  0  0
  146.1783  139.9033  153.2609 N   0  0  0  0  0  0  0  0  0  0  0  0
  147.1356  140.8293  153.8590 C   0  0  0  0  0  0  0  0  0  0  0  0
  148.2847  141.1039  152.8656 C   0  0  0  0  0  0  0  0  0  0  0  0
  149.4067  141.9301  153.5204 C   0  0  0  0  0  0  0  0  0  0  0  0
  149.8750  141.2234  154.7193 N   0  0  0  0  0  0  0  0  0  0  0  0
  151.1041  140.6544  154.7987 C   0  0  0  0  0  0  0  0  0  0  0  0
  151.9472  140.7869  153.9102 O   0  0  0  0  0  0  0  0  0  0  0  0
  151.3966  139.8264  156.0129 C   0  0  0  0  0  0  0  0  0  0  0  0
  152.4809  140.3326  156.9410 C   0  0  0  0  0  0  0  0  0  0  0  0
  152.7340  139.1124  156.0956 C   0  0  0  0  0  0  0  0  0  0  0  0
  148.8185  141.1466  155.7383 C   0  0  0  0  0  0  0  0  0  0  0  0
  147.6704  140.2752  155.1995 C   0  0  0  0  0  0  0  0  0  0  0  0
  144.0961  136.1704  151.3066 C   0  0  0  0  0  0  0  0  0  0  0  0
  143.9606  134.8732  150.9592 N   0  0  0  0  0  0  0  0  0  0  0  0
  142.7053  132.6070  150.3167 H   0  0  0  0  0  0  0  0  0  0  0  0
  143.6587  131.2245  149.7889 H   0  0  0  0  0  0  0  0  0  0  0  0
  143.9111  132.7982  149.0345 H   0  0  0  0  0  0  0  0  0  0  0  0
  145.6182  131.4846  152.4916 H   0  0  0  0  0  0  0  0  0  0  0  0
  146.6706  131.8822  151.1213 H   0  0  0  0  0  0  0  0  0  0  0  0
  145.4311  130.6419  150.9570 H   0  0  0  0  0  0  0  0  0  0  0  0
  146.7228  133.6608  152.5244 H   0  0  0  0  0  0  0  0  0  0  0  0
  146.9531  136.0343  153.1528 H   0  0  0  0  0  0  0  0  0  0  0  0
  144.4971  138.5816  152.4148 H   0  0  0  0  0  0  0  0  0  0  0  0
  145.2670  140.2749  153.0364 H   0  0  0  0  0  0  0  0  0  0  0  0
  146.6376  141.7810  154.0551 H   0  0  0  0  0  0  0  0  0  0  0  0
  148.7002  140.1598  152.5094 H   0  0  0  0  0  0  0  0  0  0  0  0
  147.9037  141.6251  151.9867 H   0  0  0  0  0  0  0  0  0  0  0  0
  150.2010  142.1117  152.7950 H   0  0  0  0  0  0  0  0  0  0  0  0
  149.0333  142.9157  153.8020 H   0  0  0  0  0  0  0  0  0  0  0  0
  150.5543  139.2977  156.4557 H   0  0  0  0  0  0  0  0  0  0  0  0
  153.0044  141.2478  156.6683 H   0  0  0  0  0  0  0  0  0  0  0  0
  152.3211  140.1938  158.0080 H   0  0  0  0  0  0  0  0  0  0  0  0
  152.7460  138.1436  156.5910 H   0  0  0  0  0  0  0  0  0  0  0  0
  153.4459  139.2168  155.2789 H   0  0  0  0  0  0  0  0  0  0  0  0
  149.1595  140.7696  156.7015 H   0  0  0  0  0  0  0  0  0  0  0  0
  148.4500  142.1525  155.9447 H   0  0  0  0  0  0  0  0  0  0  0  0
  146.8665  140.2268  155.9349 H   0  0  0  0  0  0  0  0  0  0  0  0
  148.0283  139.2533  155.0640 H   0  0  0  0  0  0  0  0  0  0  0  0
  143.3057  136.8146  150.9549 H   0  0  0  0  0  0  0  0  0  0  0  0
  1  2  1  0  0  0  0
  1 25  1  0  0  0  0
  1 26  1  0  0  0  0
  1 27  1  0  0  0  0
  2  3  1  0  0  0  0
  2  4  1  0  0  0  0
  3 28  1  0  0  0  0
  3 29  1  0  0  0  0
  3 30  1  0  0  0  0
  4 24  1  0  0  0  0
  4  5  2  0  0  0  0
  5  6  1  0  0  0  0
  5 31  1  0  0  0  0
  6  7  2  0  0  0  0
  6 32  1  0  0  0  0
  7  8  1  0  0  0  0
  7 23  1  0  0  0  0
  8  9  1  0  0  0  0
  8 33  1  0  0  0  0
  9 10  2  0  0  0  0
  9 11  1  0  0  0  0
 11 12  1  0  0  0  0
 11 34  1  0  0  0  0
 12 22  1  0  0  0  0
 12 13  1  0  0  0  0
 12 35  1  0  0  0  0
 13 14  1  0  0  0  0
 13 36  1  0  0  0  0
 13 37  1  0  0  0  0
 14 15  1  0  0  0  0
 14 38  1  0  0  0  0
 14 39  1  0  0  0  0
 15 16  1  0  0  0  0
 15 21  1  0  0  0  0
 16 17  2  0  0  0  0
 16 18  1  0  0  0  0
 18 20  1  0  0  0  0
 18 19  1  0  0  0  0
 18 40  1  0  0  0  0
 19 20  1  0  0  0  0
 19 41  1  0  0  0  0
 19 42  1  0  0  0  0
 20 43  1  0  0  0  0
 20 44  1  0  0  0  0
 21 22  1  0  0  0  0
 21 45  1  0  0  0  0
 21 46  1  0  0  0  0
 22 47  1  0  0  0  0
 22 48  1  0  0  0  0
 23 24  2  0  0  0  0
 23 49  1  0  0  0  0
M  END
> <s_m_source_file>
AV-unprocessed.smi

> <i_m_source_file_index>
1138

> <i_lp_mmshare_version>
43012

> <i_f3d_flags>
0

> <s_epik_input>
W0NIM11OKFtDSDNdKWMxW2NIXVtjSF1jKFtjSF1uMSlbTkhdQyg9TylbTkhdW0NIXTJbQ0gyXVtDSDJdTihbQ0gyXVtDSDJdMilDKD1PKVtDSF0zW0NIMl1bQ0gyXTM=

> <s_epik_cmdline>
J2VwaWtfcHl0aG9uJywgJy1waCcsICc3LjAnLCAnLXRuJywgJzgnLCAnLW1hJywgJzIwMCcsICctbWV0YWxfYmluZGluZycsICctaW1hZScsICc8aW5maWxlLm1hZT4nLCAnLW9tYWUnLCAnPG91dGZpbGUubWFlPic=

> <r_lp_tautomer_probability>
1

> <r_epik_Ionization_Penalty>
0.622325

> <r_epik_Ionization_Penalty_Charging>
0

> <r_epik_Ionization_Penalty_Neutral>
0.622325

> <r_epik_State_Penalty>
0.637335

> <r_epik_Charging_Adjusted_Penalty>
0.637335

> <i_epik_Tot_Q>
0

> <i_epik_Tot_abs_Q>
0

> <r_epik_Metal_State_Penalty>
0.306682

> <b_epik_Metal_Only>
0

> <s_lp_Force_Field>
OPLS_2005

> <r_lp_Energy>
33.2088

> <b_lp_Chiralities_Consistent>
1

> <s_lp_Variant>
AV-unprocessed.smi:1138-2

> <Gold.Version>
5.8.1

> <Gold.Id.Protein>
6NUR|6NUR_protein|mol2

> <Gold.PLP.Fitness>
44.7043

> <Gold.PLP.PLP>
-33.5185

> <Gold.PLP.part.hbond>
-3.2497

> <Gold.PLP.part.metal>
0.0000

> <Gold.PLP.part.buried>
-0.9379

> <Gold.PLP.part.nonpolar>
-29.6551

> <Gold.PLP.part.repulsive>
0.4345

> <Gold.PLP.ligand.clash>
0.0000

> <Gold.PLP.ligand.torsion>
0.1680

> <Gold.PLP.Chemscore.Hbond>
2.8155

> <Gold.PLP.Chemscore.CHOScore>
0.9824

> <Gold.PLP.Chemscore.Metal>
0.0000

> <Gold.Chemscore.Hbonds>
donor molecule, donor type, donor heavy atom, donor atom, acceptor molecule, acceptor atom, score
      L1  H     8    33       P1 10175  0.95
      L1  H    11    34       P1 10175  1.00
      L1  C    23    49       P1 10171  0.78

> <Gold.PLP.Chemscore.Internal.Correction>
0.1281

> <Gold.Rescore>
     Score         DG    S(hbond)    S(metal)    S(lipo)     H(rot)  DE(clash)    DE(int)     intcor
     17.01     -19.92       2.71        0.00      72.34       1.20       0.27       2.64       ----

> <Gold.Chemscore.Fitness>
17.0132

> <Gold.Chemscore.DG>
-19.9188

> <Gold.Chemscore.ZeroCoef>
-5.4800

> <Gold.Chemscore.Hbond>
2.7064

> <Gold.Chemscore.Metal>
0.0000

> <Gold.Chemscore.Lipo>
72.3377

> <Gold.Chemscore.Internal_Hbond>
0.0000

> <Gold.Chemscore.DEClash>
0.2698

> <Gold.Chemscore.DEInternal>
2.6359

> <Gold.Chemscore.Rot>
1.1969

> <Gold.Chemscore.Internal.Correction>
   9.000000E+99

> <Gold.Chemscore.Hbonds>
donor molecule, donor type, donor heavy atom, donor atom, acceptor molecule, acceptor atom, score
      L1  H     8    33       P1 10175  0.86
      L1  H    11    34       P1 10175  0.98

> <Gold.Chemscore.Hbond.Weighted>
-9.0394

> <Gold.Chemscore.Metal.Weighted>
-0.0000

> <Gold.Chemscore.Lipo.Weighted>
-8.4635

> <Gold.Chemscore.Internal_Hbond.Weighted>
0.0000

> <Gold.Chemscore.DEClash.Weighted>
0.2698

> <Gold.Chemscore.DEInternal.Weighted>
2.6359

> <Gold.Chemscore.Rot.Weighted>
3.0641

> <Gold.Chemscore.Internal.Correction.Weighted>
   9.000000E+99

> <Gold.Protein.RotatedTorsions>
[ 6907 6896 6895 6894 ] final   83.79 input  -60.11 | X-H torsion
[ 7974 7965 7964 7962 ] final   37.36 input  175.53 | X-H torsion
[ 8008 7997 7996 7995 ] final -172.68 input   59.86 | X-H torsion
[ 10167 10162 10161 10158 ] final   48.53 input  -65.29 | X-H torsion
[ 10718 10713 10712 10709 ] final   32.14 input   66.30 | X-H torsion
[ 10763 10752 10751 10750 ] final  156.56 input  -60.55 | X-H torsion
[ 11005 11000 10999 10996 ] final -154.23 input  -57.11 | X-H torsion

> <Gold.Protein.ActiveResidues>
 VAL166  LYS551  ARG553  GLY616  TRP617  ASP618  TYR619  PRO620  LYS621  CYS622 
 ASP623  PHE694  ASN695  SER759  ASP760  ASP761  ALA762  ILE779  LEU786  VAL792 
 PHE793  MET794  SER795  GLU796  ALA797  LYS798  CYS799  TRP800  GLU811  SER814 

> <Gold.Protein.RotatedAtoms>
  152.5336  134.2841  159.9018 H   0  0  0  0  0  0  0  0  0  0  0  0  # atno 6907 bound_to 6896
  151.2794  133.4210  159.2633 H   0  0  0  0  0  0  0  0  0  0  0  0  # atno 6908 bound_to 6896
  151.0297  134.9545  159.8161 H   0  0  0  0  0  0  0  0  0  0  0  0  # atno 6909 bound_to 6896
  146.1143  139.5903  142.9332 H   0  0  0  0  0  0  0  0  0  0  0  0  # atno 7974 bound_to 7965
  155.9477  140.1120  157.1003 H   0  0  0  0  0  0  0  0  0  0  0  0  # atno 8008 bound_to 7997
  154.4103  140.1206  156.5078 H   0  0  0  0  0  0  0  0  0  0  0  0  # atno 8009 bound_to 7997
  155.6881  140.3473  155.4885 H   0  0  0  0  0  0  0  0  0  0  0  0  # atno 8010 bound_to 7997
  140.2923  144.3031  150.6238 H   0  0  0  0  0  0  0  0  0  0  0  0  # atno 10167 bound_to 10162
  157.2814  130.7257  149.6558 H   0  0  0  0  0  0  0  0  0  0  0  0  # atno 10718 bound_to 10713
  154.1862  135.2797  155.3036 H   0  0  0  0  0  0  0  0  0  0  0  0  # atno 10763 bound_to 10752
  154.5964  135.5543  153.7333 H   0  0  0  0  0  0  0  0  0  0  0  0  # atno 10764 bound_to 10752
  153.0124  135.6381  154.2001 H   0  0  0  0  0  0  0  0  0  0  0  0  # atno 10765 bound_to 10752
  140.6996  134.3952  157.5211 H   0  0  0  0  0  0  0  0  0  0  0  0  # atno 11005 bound_to 11000
  145.5599  141.0405  143.2232 LP  0  0  0  0  0  0  0  0  0  0  0  0  # atno 17320 bound_to 7965
  144.7539  139.7124  143.7262 LP  0  0  0  0  0  0  0  0  0  0  0  0  # atno 17321 bound_to 7965
  140.5722  143.2180  151.7579 LP  0  0  0  0  0  0  0  0  0  0  0  0  # atno 17342 bound_to 10162
  139.4935  144.4201  151.9987 LP  0  0  0  0  0  0  0  0  0  0  0  0  # atno 17343 bound_to 10162
  155.9664  130.4337  150.5017 LP  0  0  0  0  0  0  0  0  0  0  0  0  # atno 17370 bound_to 10713
  157.2962  131.0636  151.2100 LP  0  0  0  0  0  0  0  0  0  0  0  0  # atno 17371 bound_to 10713
  139.8900  134.8815  156.2390 LP  0  0  0  0  0  0  0  0  0  0  0  0  # atno 17394 bound_to 11000
  141.0175  133.7060  156.1212 LP  0  0  0  0  0  0  0  0  0  0  0  0  # atno 17395 bound_to 11000

$$$$
