AV-unprocessed.smi:1367|AV-procd|sdf|5573|dock3
  -GOLD-   22720 5163D 1   1.00000     0.00000
 Structure written by MMmdl.
 30 30  0  0  0  0  0  0  0  0  1 V2000
  150.8221  143.7526  158.4239 C   0  0  0  0  0  0  0  0  0  0  0  0
  150.9463  142.4665  157.6363 C   0  0  0  0  0  0  0  0  0  0  0  0
  150.0987  142.3999  156.5430 N   0  0  0  0  0  0  0  0  0  0  0  0
  150.1435  141.2617  155.7574 C   0  0  0  0  0  0  0  0  0  0  0  0
  149.1844  141.2709  154.5798 C   0  0  0  0  0  0  0  0  0  0  0  0
  150.9870  140.2391  156.0489 C   0  0  0  0  0  0  0  0  0  0  0  0
  151.0650  138.9657  155.2062 C   0  0  0  0  0  0  0  0  0  0  0  0
  150.8579  137.6533  155.9646 C   0  0  0  0  0  0  0  0  0  0  0  0
  151.7270  136.7827  155.9347 O   0  0  0  0  0  0  0  0  0  0  0  0
  149.7047  137.5241  156.6378 N   0  0  0  0  0  0  0  0  0  0  0  0
  149.2894  136.3367  157.3761 C   0  0  0  0  0  0  0  0  0  0  0  0
  148.7138  136.6916  158.7579 C   0  0  0  0  0  0  0  0  0  0  0  0
  148.3618  135.5700  159.3850 F   0  0  0  0  0  0  0  0  0  0  0  0
  149.6312  137.3214  159.4923 F   0  0  0  0  0  0  0  0  0  0  0  0
  147.6371  137.4688  158.6420 F   0  0  0  0  0  0  0  0  0  0  0  0
  151.8638  140.3651  157.2376 C   0  0  0  0  0  0  0  0  0  0  0  0
  152.6374  139.4663  157.5655 O   0  0  0  0  0  0  0  0  0  0  0  0
  151.7846  141.5432  157.9974 N   0  0  0  0  0  0  0  0  0  0  0  0
  149.4551  143.1360  156.2904 H   0  0  0  0  0  0  0  0  0  0  0  0
  151.5631  143.7938  159.2234 H   0  0  0  0  0  0  0  0  0  0  0  0
  149.8312  143.8283  158.8726 H   0  0  0  0  0  0  0  0  0  0  0  0
  150.9755  144.6148  157.7740 H   0  0  0  0  0  0  0  0  0  0  0  0
  149.7308  141.1794  153.6409 H   0  0  0  0  0  0  0  0  0  0  0  0
  148.6058  142.1947  154.5408 H   0  0  0  0  0  0  0  0  0  0  0  0
  148.4820  140.4404  154.6535 H   0  0  0  0  0  0  0  0  0  0  0  0
  152.0142  138.9070  154.6731 H   0  0  0  0  0  0  0  0  0  0  0  0
  150.3123  139.0296  154.4196 H   0  0  0  0  0  0  0  0  0  0  0  0
  149.0512  138.2932  156.6091 H   0  0  0  0  0  0  0  0  0  0  0  0
  148.5666  135.7588  156.7979 H   0  0  0  0  0  0  0  0  0  0  0  0
  150.1650  135.6984  157.4978 H   0  0  0  0  0  0  0  0  0  0  0  0
  1 20  1  0  0  0  0
  1 21  1  0  0  0  0
  1 22  1  0  0  0  0
  1  2  1  0  0  0  0
  2  3  1  0  0  0  0
  2 18  2  0  0  0  0
  3  4  1  0  0  0  0
  3 19  1  0  0  0  0
  4  6  2  0  0  0  0
  4  5  1  0  0  0  0
  5 23  1  0  0  0  0
  5 24  1  0  0  0  0
  5 25  1  0  0  0  0
  6 16  1  0  0  0  0
  6  7  1  0  0  0  0
  7  8  1  0  0  0  0
  7 26  1  0  0  0  0
  7 27  1  0  0  0  0
  8  9  2  0  0  0  0
  8 10  1  0  0  0  0
 10 11  1  0  0  0  0
 10 28  1  0  0  0  0
 11 12  1  0  0  0  0
 11 29  1  0  0  0  0
 11 30  1  0  0  0  0
 12 13  1  0  0  0  0
 12 14  1  0  0  0  0
 12 15  1  0  0  0  0
 16 17  2  0  0  0  0
 16 18  1  0  0  0  0
M  END
> <s_m_source_file>
AV-unprocessed.smi

> <i_m_source_file_index>
1367

> <i_lp_mmshare_version>
43012

> <i_f3d_flags>
0

> <s_epik_input>
W0NIM11jMW5jKFtDSDNdKWMoYyg9TylbbkhdMSlbQ0gyXUMoPU8pW05IXVtDSDJdQyhGKShGKUY=

> <s_epik_cmdline>
J2VwaWtfcHl0aG9uJywgJy1waCcsICc3LjAnLCAnLXRuJywgJzgnLCAnLW1hJywgJzIwMCcsICctbWV0YWxfYmluZGluZycsICctaW1hZScsICc8aW5maWxlLm1hZT4nLCAnLW9tYWUnLCAnPG91dGZpbGUubWFlPic=

> <r_lp_tautomer_probability>
0.156392

> <r_epik_Ionization_Penalty>
0.0162169

> <r_epik_Ionization_Penalty_Charging>
0.0161253

> <r_epik_Ionization_Penalty_Neutral>
9.15634e-05

> <r_epik_State_Penalty>
1.51104

> <r_epik_Charging_Adjusted_Penalty>
1.52717

> <i_epik_Tot_Q>
0

> <i_epik_Tot_abs_Q>
0

> <r_epik_Metal_State_Penalty>
1.71038

> <b_epik_Metal_Only>
0

> <s_lp_Force_Field>
OPLS_2005

> <r_lp_Energy>
7.37455

> <b_lp_Chiralities_Consistent>
1

> <s_lp_Variant>
AV-unprocessed.smi:1367-2

> <Gold.Version>
5.8.1

> <Gold.Id.Protein>
6NUR|6NUR_protein|mol2

> <Gold.PLP.Fitness>
37.1248

> <Gold.PLP.PLP>
-28.3627

> <Gold.PLP.part.hbond>
-3.0000

> <Gold.PLP.part.metal>
0.0000

> <Gold.PLP.part.buried>
-2.8537

> <Gold.PLP.part.nonpolar>
-22.3047

> <Gold.PLP.part.repulsive>
0.1677

> <Gold.PLP.ligand.clash>
0.0000

> <Gold.PLP.ligand.torsion>
0.1264

> <Gold.PLP.Chemscore.Hbond>
3.0000

> <Gold.PLP.Chemscore.CHOScore>
0.0000

> <Gold.PLP.Chemscore.Metal>
0.0000

> <Gold.Chemscore.Hbonds>
donor molecule, donor type, donor heavy atom, donor atom, acceptor molecule, acceptor atom, score
      L1  H     3    19       P1  8028  1.00
      P1  H  7997  8010       L1    17  0.91
      P1  H 10752 10765       L1     9  0.44

> <Gold.PLP.Chemscore.Internal.Correction>
0.0149

> <Gold.Rescore>
     Score         DG    S(hbond)    S(metal)    S(lipo)     H(rot)  DE(clash)    DE(int)     intcor
     14.64     -14.98       2.75        0.00      44.11       1.90       0.25       0.09       ----

> <Gold.Chemscore.Fitness>
14.6416

> <Gold.Chemscore.DG>
-14.9839

> <Gold.Chemscore.ZeroCoef>
-5.4800

> <Gold.Chemscore.Hbond>
2.7542

> <Gold.Chemscore.Metal>
0.0000

> <Gold.Chemscore.Lipo>
44.1107

> <Gold.Chemscore.Internal_Hbond>
0.0000

> <Gold.Chemscore.DEClash>
0.2526

> <Gold.Chemscore.DEInternal>
0.0897

> <Gold.Chemscore.Rot>
1.8968

> <Gold.Chemscore.Internal.Correction>
   9.000000E+99

> <Gold.Chemscore.Hbonds>
donor molecule, donor type, donor heavy atom, donor atom, acceptor molecule, acceptor atom, score
      L1  H     3    19       P1  8028  0.99
      P1  H  7997  8010       L1    17  0.52
      P1  H 10752 10765       L1     9  0.42

> <Gold.Chemscore.Hbond.Weighted>
-9.1989

> <Gold.Chemscore.Metal.Weighted>
-0.0000

> <Gold.Chemscore.Lipo.Weighted>
-5.1609

> <Gold.Chemscore.Internal_Hbond.Weighted>
0.0000

> <Gold.Chemscore.DEClash.Weighted>
0.2526

> <Gold.Chemscore.DEInternal.Weighted>
0.0897

> <Gold.Chemscore.Rot.Weighted>
4.8559

> <Gold.Chemscore.Internal.Correction.Weighted>
   9.000000E+99

> <Gold.Protein.RotatedTorsions>
[ 6907 6896 6895 6894 ] final  171.81 input  -60.11 | X-H torsion
[ 7974 7965 7964 7962 ] final    4.11 input  175.53 | X-H torsion
[ 8008 7997 7996 7995 ] final   40.36 input   59.86 | X-H torsion
[ 10167 10162 10161 10158 ] final  102.56 input  -65.29 | X-H torsion
[ 10718 10713 10712 10709 ] final  100.25 input   66.30 | X-H torsion
[ 10763 10752 10751 10750 ] final  171.23 input  -60.55 | X-H torsion
[ 11005 11000 10999 10996 ] final   85.00 input  -57.11 | X-H torsion

> <Gold.Protein.ActiveResidues>
 VAL166  LYS551  ARG553  GLY616  TRP617  ASP618  TYR619  PRO620  LYS621  CYS622 
 ASP623  PHE694  ASN695  SER759  ASP760  ASP761  ALA762  ILE779  LEU786  VAL792 
 PHE793  MET794  SER795  GLU796  ALA797  LYS798  CYS799  TRP800  GLU811  SER814 

> <Gold.Protein.RotatedAtoms>
  151.7943  133.3362  159.3507 H   0  0  0  0  0  0  0  0  0  0  0  0  # atno 6907 bound_to 6896
  150.7381  134.5813  159.5950 H   0  0  0  0  0  0  0  0  0  0  0  0  # atno 6908 bound_to 6896
  152.3188  134.7407  160.0370 H   0  0  0  0  0  0  0  0  0  0  0  0  # atno 6909 bound_to 6896
  146.2444  140.0583  142.8370 H   0  0  0  0  0  0  0  0  0  0  0  0  # atno 7974 bound_to 7965
  155.2519  140.3353  155.4281 H   0  0  0  0  0  0  0  0  0  0  0  0  # atno 8008 bound_to 7997
  156.2212  140.1810  156.7516 H   0  0  0  0  0  0  0  0  0  0  0  0  # atno 8009 bound_to 7997
  154.5828  140.0651  156.9113 H   0  0  0  0  0  0  0  0  0  0  0  0  # atno 8010 bound_to 7997
  139.7340  144.7029  151.0678 H   0  0  0  0  0  0  0  0  0  0  0  0  # atno 10167 bound_to 10162
  157.6858  131.0693  150.5072 H   0  0  0  0  0  0  0  0  0  0  0  0  # atno 10718 bound_to 10713
  154.4090  135.2756  155.2049 H   0  0  0  0  0  0  0  0  0  0  0  0  # atno 10763 bound_to 10752
  154.4043  135.6037  153.5919 H   0  0  0  0  0  0  0  0  0  0  0  0  # atno 10764 bound_to 10752
  152.9831  135.5934  154.4368 H   0  0  0  0  0  0  0  0  0  0  0  0  # atno 10765 bound_to 10752
  139.8984  134.8256  156.2522 H   0  0  0  0  0  0  0  0  0  0  0  0  # atno 11005 bound_to 11000
  145.0922  140.9292  143.4762 LP  0  0  0  0  0  0  0  0  0  0  0  0  # atno 17320 bound_to 7965
  145.0758  139.2996  143.5808 LP  0  0  0  0  0  0  0  0  0  0  0  0  # atno 17321 bound_to 7965
  140.7776  143.5008  150.9774 LP  0  0  0  0  0  0  0  0  0  0  0  0  # atno 17342 bound_to 10162
  139.8696  143.7209  152.3167 LP  0  0  0  0  0  0  0  0  0  0  0  0  # atno 17343 bound_to 10162
  156.5391  130.4203  149.6163 LP  0  0  0  0  0  0  0  0  0  0  0  0  # atno 17370 bound_to 10713
  156.3001  130.7172  151.2042 LP  0  0  0  0  0  0  0  0  0  0  0  0  # atno 17371 bound_to 10713
  141.0217  133.7038  156.1279 LP  0  0  0  0  0  0  0  0  0  0  0  0  # atno 17394 bound_to 11000
  140.7224  134.4343  157.5573 LP  0  0  0  0  0  0  0  0  0  0  0  0  # atno 17395 bound_to 11000

$$$$
