AV-unprocessed.smi:1978|AV-procd|sdf|7995|dock4
  -GOLD-   2272010173D 1   1.00000     0.00000
 Structure written by MMmdl.
 45 46  0  0  0  0  0  0  0  0  2 V2000
  137.7560  137.0153  153.9512 C   0  0  0  0  0  0  0  0  0  0  0  0
  139.2366  136.9715  153.7857 C   0  0  0  0  0  0  0  0  0  0  0  0
  140.1526  137.8938  153.3637 C   0  0  0  0  0  0  0  0  0  0  0  0
  141.3815  137.1874  153.4516 C   0  0  0  0  0  0  0  0  0  0  0  0
  142.6063  137.8087  153.0968 N   0  0  0  0  0  0  0  0  0  0  0  0
  143.8003  137.2183  152.9181 C   0  0  0  0  0  0  0  0  0  0  0  0
  144.0184  136.0113  153.0271 O   0  0  0  0  0  0  0  0  0  0  0  0
  144.7482  138.1150  152.6054 N   0  0  0  0  0  0  0  0  0  0  0  0
  146.1475  137.8022  152.3235 C   0  0  0  0  0  0  0  0  0  0  0  0
  147.1046  138.2752  153.4462 C   0  0  1  0  0  0  0  0  0  0  0  0
  146.4087  139.1161  154.5394 C   0  0  0  0  0  0  0  0  0  0  0  0
  147.8820  137.1252  154.0150 N   0  3  2  0  0  0  0  0  0  0  0  0
  147.0259  136.0714  154.6373 C   0  0  0  0  0  0  0  0  0  0  0  0
  147.8316  134.8016  154.9448 C   0  0  0  0  0  0  0  0  0  0  0  0
  149.0049  135.1248  155.8718 C   0  0  0  0  0  0  0  0  0  0  0  0
  149.8626  136.2311  155.2496 C   0  0  0  0  0  0  0  0  0  0  0  0
  149.0318  137.4890  154.9106 C   0  0  1  0  0  0  0  0  0  0  0  0
  149.9720  138.5583  154.3168 C   0  0  0  0  0  0  0  0  0  0  0  0
  141.2298  135.9464  153.8875 N   0  0  0  0  0  0  0  0  0  0  0  0
  139.8543  135.8013  154.1029 O   0  0  0  0  0  0  0  0  0  0  0  0
  137.4211  138.0270  154.1803 H   0  0  0  0  0  0  0  0  0  0  0  0
  137.4347  136.3621  154.7629 H   0  0  0  0  0  0  0  0  0  0  0  0
  137.2561  136.6914  153.0383 H   0  0  0  0  0  0  0  0  0  0  0  0
  139.9692  138.9090  153.0448 H   0  0  0  0  0  0  0  0  0  0  0  0
  142.5682  138.8090  152.9686 H   0  0  0  0  0  0  0  0  0  0  0  0
  144.4776  139.0857  152.5400 H   0  0  0  0  0  0  0  0  0  0  0  0
  146.2463  136.7346  152.1295 H   0  0  0  0  0  0  0  0  0  0  0  0
  146.4099  138.3010  151.3899 H   0  0  0  0  0  0  0  0  0  0  0  0
  147.7963  138.9374  152.9317 H   0  0  0  0  0  0  0  0  0  0  0  0
  146.0014  140.0392  154.1279 H   0  0  0  0  0  0  0  0  0  0  0  0
  147.1016  139.4082  155.3279 H   0  0  0  0  0  0  0  0  0  0  0  0
  145.5819  138.5759  155.0013 H   0  0  0  0  0  0  0  0  0  0  0  0
  146.5822  136.4499  155.5591 H   0  0  0  0  0  0  0  0  0  0  0  0
  146.1996  135.7959  153.9856 H   0  0  0  0  0  0  0  0  0  0  0  0
  147.1873  134.0536  155.4077 H   0  0  0  0  0  0  0  0  0  0  0  0
  148.2000  134.3630  154.0162 H   0  0  0  0  0  0  0  0  0  0  0  0
  148.6319  135.4470  156.8448 H   0  0  0  0  0  0  0  0  0  0  0  0
  149.6066  134.2323  156.0462 H   0  0  0  0  0  0  0  0  0  0  0  0
  150.6682  136.4880  155.9389 H   0  0  0  0  0  0  0  0  0  0  0  0
  150.3422  135.8520  154.3457 H   0  0  0  0  0  0  0  0  0  0  0  0
  148.6271  137.8830  155.8439 H   0  0  0  0  0  0  0  0  0  0  0  0
  150.8720  138.6643  154.9230 H   0  0  0  0  0  0  0  0  0  0  0  0
  149.5108  139.5453  154.2916 H   0  0  0  0  0  0  0  0  0  0  0  0
  150.2873  138.2976  153.3061 H   0  0  0  0  0  0  0  0  0  0  0  0
  148.3105  136.6873  153.2121 H   0  0  0  0  0  0  0  0  0  0  0  0
  1  2  1  0  0  0  0
  1 21  1  0  0  0  0
  1 22  1  0  0  0  0
  1 23  1  0  0  0  0
  2 20  1  0  0  0  0
  2  3  2  0  0  0  0
  3  4  1  0  0  0  0
  3 24  1  0  0  0  0
  4  5  1  0  0  0  0
  4 19  2  0  0  0  0
  5  6  1  0  0  0  0
  5 25  1  0  0  0  0
  6  7  2  0  0  0  0
  6  8  1  0  0  0  0
  8  9  1  0  0  0  0
  8 26  1  0  0  0  0
  9 10  1  0  0  0  0
  9 27  1  0  0  0  0
  9 28  1  0  0  0  0
 10 11  1  0  0  0  0
 10 12  1  0  0  0  0
 10 29  1  0  0  0  0
 11 30  1  0  0  0  0
 11 31  1  0  0  0  0
 11 32  1  0  0  0  0
 12 17  1  0  0  0  0
 12 13  1  0  0  0  0
 12 45  1  0  0  0  0
 13 14  1  0  0  0  0
 13 33  1  0  0  0  0
 13 34  1  0  0  0  0
 14 15  1  0  0  0  0
 14 35  1  0  0  0  0
 14 36  1  0  0  0  0
 15 16  1  0  0  0  0
 15 37  1  0  0  0  0
 15 38  1  0  0  0  0
 16 17  1  0  0  0  0
 16 39  1  0  0  0  0
 16 40  1  0  0  0  0
 17 18  1  0  0  0  0
 17 41  1  0  0  0  0
 18 42  1  0  0  0  0
 18 43  1  0  0  0  0
 18 44  1  0  0  0  0
 19 20  1  0  0  0  0
M  CHG  1  12   1
M  END
> <s_m_source_file>
AV-unprocessed.smi

> <i_m_source_file_index>
1978

> <i_lp_mmshare_version>
43012

> <i_f3d_flags>
0

> <s_epik_input>
W0NIM11jMVtjSF1jKG5vMSlbTkhdQyg9TylbTkhdW0NIMl1bQ0BIXShbQ0gzXSlOMltDSDJdW0NIMl1bQ0gyXVtDSDJdW0NASF0yW0NIM10=

> <s_epik_cmdline>
J2VwaWtfcHl0aG9uJywgJy1waCcsICc3LjAnLCAnLXRuJywgJzgnLCAnLW1hJywgJzIwMCcsICctbWV0YWxfYmluZGluZycsICctaW1hZScsICc8aW5maWxlLm1hZT4nLCAnLW9tYWUnLCAnPG91dGZpbGUubWFlPic=

> <r_epik_Ionization_Penalty>
0.00265971

> <r_epik_Ionization_Penalty_Charging>
0.00262393

> <r_epik_Ionization_Penalty_Neutral>
3.57846e-05

> <r_epik_State_Penalty>
0.00182566

> <r_epik_Charging_Adjusted_Penalty>
0.00444959

> <i_epik_Tot_Q>
1

> <i_epik_Tot_abs_Q>
1

> <r_epik_Metal_State_Penalty>
0.0216344

> <b_epik_Metal_Only>
0

> <s_lp_Force_Field>
OPLS_2005

> <r_lp_Energy>
21.4618

> <b_lp_Chiralities_Consistent>
1

> <s_lp_Variant>
AV-unprocessed.smi:1978-4

> <Gold.Version>
5.8.1

> <Gold.Id.Protein>
6NUR|6NUR_protein|mol2

> <Gold.PLP.Fitness>
41.4441

> <Gold.PLP.PLP>
-28.7598

> <Gold.PLP.part.hbond>
-5.0120

> <Gold.PLP.part.metal>
0.0000

> <Gold.PLP.part.buried>
-4.4069

> <Gold.PLP.part.nonpolar>
-20.5844

> <Gold.PLP.part.repulsive>
0.2921

> <Gold.PLP.ligand.clash>
0.4161

> <Gold.PLP.ligand.torsion>
0.8765

> <Gold.PLP.Chemscore.Hbond>
4.9120

> <Gold.PLP.Chemscore.CHOScore>
0.0000

> <Gold.PLP.Chemscore.Metal>
0.0000

> <Gold.Chemscore.Hbonds>
donor molecule, donor type, donor heavy atom, donor atom, acceptor molecule, acceptor atom, score
      L1  H     5    25       P1 10175  0.91
      L1  H     8    26       P1 10175  1.00
      L1  H    12    45       P1  7948  2.00
      P1  H 11000 11005       L1    20  0.57

> <Gold.PLP.Chemscore.Internal.Correction>
0.1175

> <Gold.Rescore>
     Score         DG    S(hbond)    S(metal)    S(lipo)     H(rot)  DE(clash)    DE(int)     intcor
     18.88     -21.09       3.75        0.00      60.33       1.55       0.07       2.15       ----

> <Gold.Chemscore.Fitness>
18.8804

> <Gold.Chemscore.DG>
-21.0944

> <Gold.Chemscore.ZeroCoef>
-5.4800

> <Gold.Chemscore.Hbond>
3.7475

> <Gold.Chemscore.Metal>
0.0000

> <Gold.Chemscore.Lipo>
60.3332

> <Gold.Chemscore.Internal_Hbond>
0.0000

> <Gold.Chemscore.DEClash>
0.0679

> <Gold.Chemscore.DEInternal>
2.1461

> <Gold.Chemscore.Rot>
1.5474

> <Gold.Chemscore.Internal.Correction>
   9.000000E+99

> <Gold.Chemscore.Hbonds>
donor molecule, donor type, donor heavy atom, donor atom, acceptor molecule, acceptor atom, score
      L1  H     5    25       P1 10175  0.87
      L1  H     8    26       P1 10175  0.98
      L1  H    12    45       P1  7948  0.96
      P1  H 11000 11005       L1    20  0.11

> <Gold.Chemscore.Hbond.Weighted>
-12.5167

> <Gold.Chemscore.Metal.Weighted>
-0.0000

> <Gold.Chemscore.Lipo.Weighted>
-7.0590

> <Gold.Chemscore.Internal_Hbond.Weighted>
0.0000

> <Gold.Chemscore.DEClash.Weighted>
0.0679

> <Gold.Chemscore.DEInternal.Weighted>
2.1461

> <Gold.Chemscore.Rot.Weighted>
3.9612

> <Gold.Chemscore.Internal.Correction.Weighted>
   9.000000E+99

> <Gold.Protein.RotatedTorsions>
[ 6907 6896 6895 6894 ] final   84.95 input  -60.11 | X-H torsion
[ 7974 7965 7964 7962 ] final  174.48 input  175.53 | X-H torsion
[ 8008 7997 7996 7995 ] final   -6.25 input   59.86 | X-H torsion
[ 10167 10162 10161 10158 ] final  -40.72 input  -65.29 | X-H torsion
[ 10718 10713 10712 10709 ] final  -10.32 input   66.30 | X-H torsion
[ 10763 10752 10751 10750 ] final  -98.22 input  -60.55 | X-H torsion
[ 11005 11000 10999 10996 ] final   69.90 input  -57.11 | X-H torsion

> <Gold.Protein.ActiveResidues>
 VAL166  LYS551  ARG553  GLY616  TRP617  ASP618  TYR619  PRO620  LYS621  CYS622 
 ASP623  PHE694  ASN695  SER759  ASP760  ASP761  ALA762  ILE779  LEU786  VAL792 
 PHE793  MET794  SER795  GLU796  ALA797  LYS798  CYS799  TRP800  GLU811  SER814 

> <Gold.Protein.RotatedAtoms>
  152.5364  134.2662  159.8953 H   0  0  0  0  0  0  0  0  0  0  0  0  # atno 6907 bound_to 6896
  151.2620  133.4291  159.2624 H   0  0  0  0  0  0  0  0  0  0  0  0  # atno 6908 bound_to 6896
  151.0444  134.9644  159.8235 H   0  0  0  0  0  0  0  0  0  0  0  0  # atno 6909 bound_to 6896
  144.7221  139.9804  143.6438 H   0  0  0  0  0  0  0  0  0  0  0  0  # atno 7974 bound_to 7965
  154.5956  140.2437  155.7861 H   0  0  0  0  0  0  0  0  0  0  0  0  # atno 8008 bound_to 7997
  156.2277  140.2977  156.0062 H   0  0  0  0  0  0  0  0  0  0  0  0  # atno 8009 bound_to 7997
  155.2298  140.0403  157.2951 H   0  0  0  0  0  0  0  0  0  0  0  0  # atno 8010 bound_to 7997
  140.7025  143.3137  151.2964 H   0  0  0  0  0  0  0  0  0  0  0  0  # atno 10167 bound_to 10162
  156.6753  130.5021  149.5988 H   0  0  0  0  0  0  0  0  0  0  0  0  # atno 10718 bound_to 10713
  154.7395  135.5017  153.9098 H   0  0  0  0  0  0  0  0  0  0  0  0  # atno 10763 bound_to 10752
  153.1029  135.6689  153.9648 H   0  0  0  0  0  0  0  0  0  0  0  0  # atno 10764 bound_to 10752
  153.9429  135.3066  155.3421 H   0  0  0  0  0  0  0  0  0  0  0  0  # atno 10765 bound_to 10752
  139.9628  134.7032  156.0610 H   0  0  0  0  0  0  0  0  0  0  0  0  # atno 11005 bound_to 11000
  146.0492  139.3495  143.0650 LP  0  0  0  0  0  0  0  0  0  0  0  0  # atno 17320 bound_to 7965
  145.8236  140.9666  143.0886 LP  0  0  0  0  0  0  0  0  0  0  0  0  # atno 17321 bound_to 7965
  139.6568  144.0261  152.2665 LP  0  0  0  0  0  0  0  0  0  0  0  0  # atno 17342 bound_to 10162
  139.9816  144.6424  150.7896 LP  0  0  0  0  0  0  0  0  0  0  0  0  # atno 17343 bound_to 10162
  156.1908  130.6559  151.1059 LP  0  0  0  0  0  0  0  0  0  0  0  0  # atno 17370 bound_to 10713
  157.7063  131.0755  150.6656 LP  0  0  0  0  0  0  0  0  0  0  0  0  # atno 17371 bound_to 10713
  141.1306  133.6587  156.3454 LP  0  0  0  0  0  0  0  0  0  0  0  0  # atno 17394 bound_to 11000
  140.5463  134.6071  157.5395 LP  0  0  0  0  0  0  0  0  0  0  0  0  # atno 17395 bound_to 11000

$$$$
