AV-unprocessed.smi:249|AV-procd|sdf|1904|dock7
  -GOLD-   2262020583D 1   1.00000     0.00000
 Structure written by MMmdl.
 64 67  0  0  0  0  0  0  0  0  2 V2000
  146.8870  128.4174  152.3343 C   0  0  0  0  0  0  0  0  0  0  0  0
  146.9191  129.6441  153.2609 C   0  0  0  0  0  0  0  0  0  0  0  0
  147.1133  130.9346  152.5378 N   0  3  2  0  0  0  0  0  0  0  0  0
  147.7765  131.9568  153.3979 C   0  0  0  0  0  0  0  0  0  0  0  0
  148.0530  133.2653  152.6404 C   0  0  0  0  0  0  0  0  0  0  0  0
  146.7570  133.8698  152.0627 C   0  0  2  0  0  0  0  0  0  0  0  0
  145.8153  134.3438  153.0904 N   0  0  0  0  0  0  0  0  0  0  0  0
  144.5623  134.9349  152.6310 C   0  0  0  0  0  0  0  0  0  0  0  0
  146.3557  135.0961  154.0750 C   0  0  0  0  0  0  0  0  0  0  0  0
  146.9858  134.4415  155.0812 N   0  0  0  0  0  0  0  0  0  0  0  0
  147.5483  135.1339  156.0768 C   0  0  0  0  0  0  0  0  0  0  0  0
  147.5932  136.4566  156.2532 N   0  0  0  0  0  0  0  0  0  0  0  0
  146.9519  137.1140  155.2448 C   0  0  0  0  0  0  0  0  0  0  0  0
  146.3073  136.5173  154.1260 C   0  0  0  0  0  0  0  0  0  0  0  0
  145.7616  137.5012  153.3104 N   0  0  0  0  0  0  0  0  0  0  0  0
  146.0702  138.6184  153.9112 C   0  0  0  0  0  0  0  0  0  0  0  0
  146.7912  138.4771  155.0754 N   0  0  0  0  0  0  0  0  0  0  0  0
  147.2709  139.5417  155.9381 C   0  0  0  0  0  0  0  0  0  0  0  0
  148.4501  140.3379  155.3261 C   0  0  1  0  0  0  0  0  0  0  0  0
  148.0728  141.0430  154.0004 C   0  0  0  0  0  0  0  0  0  0  0  0
  149.2078  141.2554  153.1860 O   0  0  0  0  0  0  0  0  0  0  0  0
  149.0734  141.3111  156.3581 C   0  0  2  0  0  0  0  0  0  0  0  0
  150.4057  141.9133  155.9472 C   0  0  0  0  0  0  0  0  0  0  0  0
  150.9638  142.3976  157.2807 C   0  0  0  0  0  0  0  0  0  0  0  0
  150.4904  141.4719  158.2517 O   0  0  0  0  0  0  0  0  0  0  0  0
  149.4613  140.6621  157.6918 C   0  0  0  0  0  0  0  0  0  0  0  0
  146.1401  132.7891  151.1559 C   0  0  0  0  0  0  0  0  0  0  0  0
  145.8609  131.4656  151.9055 C   0  0  1  0  0  0  0  0  0  0  0  0
  145.2118  130.4713  150.9201 C   0  0  0  0  0  0  0  0  0  0  0  0
  146.5766  127.5316  152.8891 H   0  0  0  0  0  0  0  0  0  0  0  0
  147.8644  128.1934  151.9082 H   0  0  0  0  0  0  0  0  0  0  0  0
  146.1797  128.5567  151.5162 H   0  0  0  0  0  0  0  0  0  0  0  0
  145.9656  129.6446  153.7837 H   0  0  0  0  0  0  0  0  0  0  0  0
  147.6916  129.5246  154.0219 H   0  0  0  0  0  0  0  0  0  0  0  0
  147.1588  132.1496  154.2762 H   0  0  0  0  0  0  0  0  0  0  0  0
  148.7320  131.5853  153.7639 H   0  0  0  0  0  0  0  0  0  0  0  0
  148.5715  133.9718  153.2886 H   0  0  0  0  0  0  0  0  0  0  0  0
  148.7481  133.0624  151.8245 H   0  0  0  0  0  0  0  0  0  0  0  0
  147.0203  134.7232  151.4374 H   0  0  0  0  0  0  0  0  0  0  0  0
  144.0616  135.5003  153.4191 H   0  0  0  0  0  0  0  0  0  0  0  0
  143.8743  134.1539  152.3072 H   0  0  0  0  0  0  0  0  0  0  0  0
  144.7377  135.6078  151.7908 H   0  0  0  0  0  0  0  0  0  0  0  0
  148.0331  134.5444  156.8410 H   0  0  0  0  0  0  0  0  0  0  0  0
  145.7863  139.5828  153.5151 H   0  0  0  0  0  0  0  0  0  0  0  0
  146.4375  140.2102  156.1579 H   0  0  0  0  0  0  0  0  0  0  0  0
  147.5619  139.0903  156.8869 H   0  0  0  0  0  0  0  0  0  0  0  0
  149.2217  139.6099  155.0714 H   0  0  0  0  0  0  0  0  0  0  0  0
  147.3455  140.4553  153.4410 H   0  0  0  0  0  0  0  0  0  0  0  0
  147.5939  142.0036  154.1906 H   0  0  0  0  0  0  0  0  0  0  0  0
  149.2732  140.5420  152.5695 H   0  0  0  0  0  0  0  0  0  0  0  0
  148.3756  142.1252  156.5619 H   0  0  0  0  0  0  0  0  0  0  0  0
  151.0581  141.1474  155.5247 H   0  0  0  0  0  0  0  0  0  0  0  0
  150.3091  142.7202  155.2204 H   0  0  0  0  0  0  0  0  0  0  0  0
  152.0521  142.4570  157.2818 H   0  0  0  0  0  0  0  0  0  0  0  0
  150.5691  143.3853  157.5217 H   0  0  0  0  0  0  0  0  0  0  0  0
  148.6158  140.5785  158.3751 H   0  0  0  0  0  0  0  0  0  0  0  0
  149.8654  139.6614  157.5329 H   0  0  0  0  0  0  0  0  0  0  0  0
  145.2293  133.1614  150.6869 H   0  0  0  0  0  0  0  0  0  0  0  0
  146.8248  132.5912  150.3296 H   0  0  0  0  0  0  0  0  0  0  0  0
  145.1412  131.6650  152.7013 H   0  0  0  0  0  0  0  0  0  0  0  0
  144.4028  130.9467  150.3645 H   0  0  0  0  0  0  0  0  0  0  0  0
  144.7644  129.6163  151.4251 H   0  0  0  0  0  0  0  0  0  0  0  0
  145.9348  130.1014  150.1923 H   0  0  0  0  0  0  0  0  0  0  0  0
  147.7497  130.7424  151.7775 H   0  0  0  0  0  0  0  0  0  0  0  0
  1  2  1  0  0  0  0
  1 30  1  0  0  0  0
  1 31  1  0  0  0  0
  1 32  1  0  0  0  0
  2  3  1  0  0  0  0
  2 33  1  0  0  0  0
  2 34  1  0  0  0  0
  3 28  1  0  0  0  0
  3  4  1  0  0  0  0
  3 64  1  0  0  0  0
  4  5  1  0  0  0  0
  4 35  1  0  0  0  0
  4 36  1  0  0  0  0
  5  6  1  0  0  0  0
  5 37  1  0  0  0  0
  5 38  1  0  0  0  0
  6  7  1  0  0  0  0
  6 27  1  0  0  0  0
  6 39  1  0  0  0  0
  7  8  1  0  0  0  0
  7  9  1  0  0  0  0
  8 40  1  0  0  0  0
  8 41  1  0  0  0  0
  8 42  1  0  0  0  0
  9 14  1  0  0  0  0
  9 10  2  0  0  0  0
 10 11  1  0  0  0  0
 11 12  2  0  0  0  0
 11 43  1  0  0  0  0
 12 13  1  0  0  0  0
 13 17  1  0  0  0  0
 13 14  2  0  0  0  0
 14 15  1  0  0  0  0
 15 16  2  0  0  0  0
 16 17  1  0  0  0  0
 16 44  1  0  0  0  0
 17 18  1  0  0  0  0
 18 19  1  0  0  0  0
 18 45  1  0  0  0  0
 18 46  1  0  0  0  0
 19 20  1  0  0  0  0
 19 22  1  0  0  0  0
 19 47  1  0  0  0  0
 20 21  1  0  0  0  0
 20 48  1  0  0  0  0
 20 49  1  0  0  0  0
 21 50  1  0  0  0  0
 22 26  1  0  0  0  0
 22 23  1  0  0  0  0
 22 51  1  0  0  0  0
 23 24  1  0  0  0  0
 23 52  1  0  0  0  0
 23 53  1  0  0  0  0
 24 25  1  0  0  0  0
 24 54  1  0  0  0  0
 24 55  1  0  0  0  0
 25 26  1  0  0  0  0
 26 56  1  0  0  0  0
 26 57  1  0  0  0  0
 27 28  1  0  0  0  0
 27 58  1  0  0  0  0
 27 59  1  0  0  0  0
 28 29  1  0  0  0  0
 28 60  1  0  0  0  0
 29 61  1  0  0  0  0
 29 62  1  0  0  0  0
 29 63  1  0  0  0  0
M  CHG  1   3   1
M  END
> <s_m_source_file>
AV-unprocessed.smi

> <i_m_source_file_index>
249

> <i_lp_mmshare_version>
43012

> <i_f3d_flags>
0

> <s_epik_input>
W0NIM11bQ0gyXU4xW0NIMl1bQ0gyXVtDQEhdKFtDSDJdW0NASF0xW0NIM10pTihbQ0gzXSljKG5bY0hdbjIpYyhjMjMpbltjSF1uM1tDSDJdW0NASF0oW0NIMl1bT0hdKVtDQEBIXTRbQ0gyXVtDSDJdT1tDSDJdNA==

> <s_epik_cmdline>
J2VwaWtfcHl0aG9uJywgJy1waCcsICc3LjAnLCAnLXRuJywgJzgnLCAnLW1hJywgJzIwMCcsICctbWV0YWxfYmluZGluZycsICctaW1hZScsICc8aW5maWxlLm1hZT4nLCAnLW9tYWUnLCAnPG91dGZpbGUubWFlPic=

> <r_lp_tautomer_probability>
1

> <r_epik_Ionization_Penalty>
0.00294688

> <r_epik_Ionization_Penalty_Charging>
0.00169971

> <r_epik_Ionization_Penalty_Neutral>
0.00124717

> <r_epik_State_Penalty>
-0

> <r_epik_Charging_Adjusted_Penalty>
0.00169971

> <i_epik_Tot_Q>
1

> <i_epik_Tot_abs_Q>
1

> <r_epik_Metal_State_Penalty>
-0

> <b_epik_Metal_Only>
0

> <s_lp_Force_Field>
OPLS_2005

> <r_lp_Energy>
56.7452

> <b_lp_Chiralities_Consistent>
1

> <s_lp_Variant>
AV-unprocessed.smi:249-7

> <Gold.Version>
5.8.1

> <Gold.Id.Protein>
6NUR|6NUR_protein|mol2

> <Gold.PLP.Fitness>
43.7726

> <Gold.PLP.PLP>
-33.9201

> <Gold.PLP.part.hbond>
-3.5331

> <Gold.PLP.part.metal>
0.0000

> <Gold.PLP.part.buried>
-4.7956

> <Gold.PLP.part.nonpolar>
-25.6123

> <Gold.PLP.part.repulsive>
0.3532

> <Gold.PLP.ligand.clash>
0.0000

> <Gold.PLP.ligand.torsion>
1.3878

> <Gold.PLP.Chemscore.Hbond>
2.9766

> <Gold.PLP.Chemscore.CHOScore>
0.9744

> <Gold.PLP.Chemscore.Metal>
0.0000

> <Gold.Chemscore.Hbonds>
donor molecule, donor type, donor heavy atom, donor atom, acceptor molecule, acceptor atom, score
      L1  H     3    64       P1 10747  1.00
      L1  H    21    50       P1  7957  0.97
      P1  H  8011  8017       L1    21  1.00
      L1  C    16    44       P1 10175  1.00

> <Gold.PLP.Chemscore.Internal.Correction>
0.7750

> <Gold.Rescore>
     Score         DG    S(hbond)    S(metal)    S(lipo)     H(rot)  DE(clash)    DE(int)     intcor
     11.90     -17.47       2.36        0.00      98.53       2.90       0.53       5.04       ----

> <Gold.Chemscore.Fitness>
11.9019

> <Gold.Chemscore.DG>
-17.4655

> <Gold.Chemscore.ZeroCoef>
-5.4800

> <Gold.Chemscore.Hbond>
2.3601

> <Gold.Chemscore.Metal>
0.0000

> <Gold.Chemscore.Lipo>
98.5328

> <Gold.Chemscore.Internal_Hbond>
0.0000

> <Gold.Chemscore.DEClash>
0.5273

> <Gold.Chemscore.DEInternal>
5.0362

> <Gold.Chemscore.Rot>
2.9006

> <Gold.Chemscore.Internal.Correction>
   9.000000E+99

> <Gold.Chemscore.Hbonds>
donor molecule, donor type, donor heavy atom, donor atom, acceptor molecule, acceptor atom, score
      L1  H     3    64       P1 10747  0.99
      L1  H    21    50       P1  7957  0.86
      P1  H  8011  8017       L1    21  0.24

> <Gold.Chemscore.Hbond.Weighted>
-7.8828

> <Gold.Chemscore.Metal.Weighted>
-0.0000

> <Gold.Chemscore.Lipo.Weighted>
-11.5283

> <Gold.Chemscore.Internal_Hbond.Weighted>
0.0000

> <Gold.Chemscore.DEClash.Weighted>
0.5273

> <Gold.Chemscore.DEInternal.Weighted>
5.0362

> <Gold.Chemscore.Rot.Weighted>
7.4256

> <Gold.Chemscore.Internal.Correction.Weighted>
   9.000000E+99

> <Gold.Protein.RotatedTorsions>
[ 6907 6896 6895 6894 ] final  -33.11 input  -60.11 | X-H torsion
[ 7974 7965 7964 7962 ] final   11.98 input  175.53 | X-H torsion
[ 8008 7997 7996 7995 ] final  -67.15 input   59.86 | X-H torsion
[ 10167 10162 10161 10158 ] final  130.68 input  -65.29 | X-H torsion
[ 10718 10713 10712 10709 ] final   68.40 input   66.30 | X-H torsion
[ 10763 10752 10751 10750 ] final -149.68 input  -60.55 | X-H torsion
[ 11005 11000 10999 10996 ] final  -64.07 input  -57.11 | X-H torsion

> <Gold.Protein.ActiveResidues>
 VAL166  LYS551  ARG553  GLY616  TRP617  ASP618  TYR619  PRO620  LYS621  CYS622 
 ASP623  PHE694  ASN695  SER759  ASP760  ASP761  ALA762  ILE779  LEU786  VAL792 
 PHE793  MET794  SER795  GLU796  ALA797  LYS798  CYS799  TRP800  GLU811  SER814 

> <Gold.Protein.RotatedAtoms>
  151.0700  134.9792  159.8303 H   0  0  0  0  0  0  0  0  0  0  0  0  # atno 6907 bound_to 6896
  152.5407  134.2311  159.8835 H   0  0  0  0  0  0  0  0  0  0  0  0  # atno 6908 bound_to 6896
  151.2336  133.4394  159.2638 H   0  0  0  0  0  0  0  0  0  0  0  0  # atno 6909 bound_to 6896
  146.2360  139.9405  142.8484 H   0  0  0  0  0  0  0  0  0  0  0  0  # atno 7974 bound_to 7965
  154.4781  140.0898  156.7311 H   0  0  0  0  0  0  0  0  0  0  0  0  # atno 8008 bound_to 7997
  155.4543  140.3458  155.4286 H   0  0  0  0  0  0  0  0  0  0  0  0  # atno 8009 bound_to 7997
  156.1148  140.1458  156.9276 H   0  0  0  0  0  0  0  0  0  0  0  0  # atno 8010 bound_to 7997
  139.5419  144.6738  151.4598 H   0  0  0  0  0  0  0  0  0  0  0  0  # atno 10167 bound_to 10162
  157.6287  130.9371  150.0372 H   0  0  0  0  0  0  0  0  0  0  0  0  # atno 10718 bound_to 10713
  154.8163  135.3303  154.7166 H   0  0  0  0  0  0  0  0  0  0  0  0  # atno 10763 bound_to 10752
  153.7807  135.6918  153.4893 H   0  0  0  0  0  0  0  0  0  0  0  0  # atno 10764 bound_to 10752
  153.1982  135.4526  155.0182 H   0  0  0  0  0  0  0  0  0  0  0  0  # atno 10765 bound_to 10752
  141.1413  133.6660  156.5777 H   0  0  0  0  0  0  0  0  0  0  0  0  # atno 11005 bound_to 11000
  145.1957  140.9832  143.4185 LP  0  0  0  0  0  0  0  0  0  0  0  0  # atno 17320 bound_to 7965
  144.9818  139.3776  143.6258 LP  0  0  0  0  0  0  0  0  0  0  0  0  # atno 17321 bound_to 7965
  140.6652  143.8413  150.6933 LP  0  0  0  0  0  0  0  0  0  0  0  0  # atno 17342 bound_to 10162
  140.1820  143.4107  152.1926 LP  0  0  0  0  0  0  0  0  0  0  0  0  # atno 17343 bound_to 10162
  156.1475  130.3642  149.9488 LP  0  0  0  0  0  0  0  0  0  0  0  0  # atno 17370 bound_to 10713
  156.7515  130.9117  151.3637 LP  0  0  0  0  0  0  0  0  0  0  0  0  # atno 17371 bound_to 10713
  140.3862  134.7480  157.4693 LP  0  0  0  0  0  0  0  0  0  0  0  0  # atno 17394 bound_to 11000
  140.0600  134.6009  155.8760 LP  0  0  0  0  0  0  0  0  0  0  0  0  # atno 17395 bound_to 11000

$$$$
