AV-unprocessed.smi:2198|AV-procd|sdf|8912|dock10
  -GOLD-   2272012133D 1   1.00000     0.00000
 Structure written by MMmdl.
 43 44  0  0  0  0  0  0  0  0  1 V2000
  146.4474  138.5234  151.6033 C   0  0  0  0  0  0  0  0  0  0  0  0
  146.7317  139.1930  152.9313 C   0  0  0  0  0  0  0  0  0  0  0  0
  146.1137  138.9069  154.0298 N   0  0  0  0  0  0  0  0  0  0  0  0
  146.4651  139.5952  155.1994 C   0  0  0  0  0  0  0  0  0  0  0  0
  145.6992  139.1989  156.4500 C   0  0  0  0  0  0  0  0  0  0  0  0
  147.4347  140.5564  155.2002 C   0  0  0  0  0  0  0  0  0  0  0  0
  147.8422  141.3225  156.4583 C   0  0  0  0  0  0  0  0  0  0  0  0
  149.3460  141.4506  156.7153 C   0  0  0  0  0  0  0  0  0  0  0  0
  150.1258  140.5780  156.3314 O   0  0  0  0  0  0  0  0  0  0  0  0
  149.7369  142.5497  157.3777 N   0  0  0  0  0  0  0  0  0  0  0  0
  151.1122  142.8627  157.7533 C   0  0  1  0  0  0  0  0  0  0  0  0
  151.1762  144.2813  158.3470 C   0  0  0  0  0  0  0  0  0  0  0  0
  152.6004  144.6285  158.8061 C   0  0  0  0  0  0  0  0  0  0  0  0
  153.1310  143.5917  159.8088 C   0  0  0  0  0  0  0  0  0  0  0  0
  153.0760  142.1643  159.2309 C   0  0  1  0  0  0  0  0  0  0  0  0
  153.5934  141.1303  160.2414 C   0  0  0  0  0  0  0  0  0  0  0  0
  151.6482  141.8242  158.7606 C   0  0  0  0  0  0  0  0  0  0  0  0
  148.1347  140.8742  153.9405 C   0  0  0  0  0  0  0  0  0  0  0  0
  149.0263  141.7144  153.8309 O   0  0  0  0  0  0  0  0  0  0  0  0
  147.7331  140.1603  152.8650 N   0  0  0  0  0  0  0  0  0  0  0  0
  148.1834  140.3397  151.9793 H   0  0  0  0  0  0  0  0  0  0  0  0
  146.6235  137.4502  151.6793 H   0  0  0  0  0  0  0  0  0  0  0  0
  147.0822  138.9181  150.8088 H   0  0  0  0  0  0  0  0  0  0  0  0
  145.4072  138.6811  151.3184 H   0  0  0  0  0  0  0  0  0  0  0  0
  145.0967  140.0334  156.8091 H   0  0  0  0  0  0  0  0  0  0  0  0
  146.3836  138.8974  157.2432 H   0  0  0  0  0  0  0  0  0  0  0  0
  145.0280  138.3618  156.2543 H   0  0  0  0  0  0  0  0  0  0  0  0
  147.4080  142.3230  156.4513 H   0  0  0  0  0  0  0  0  0  0  0  0
  147.3940  140.8316  157.3223 H   0  0  0  0  0  0  0  0  0  0  0  0
  149.0280  143.2145  157.6518 H   0  0  0  0  0  0  0  0  0  0  0  0
  151.7382  142.8426  156.8589 H   0  0  0  0  0  0  0  0  0  0  0  0
  150.8402  145.0115  157.6096 H   0  0  0  0  0  0  0  0  0  0  0  0
  150.4940  144.3606  159.1949 H   0  0  0  0  0  0  0  0  0  0  0  0
  153.2624  144.6727  157.9403 H   0  0  0  0  0  0  0  0  0  0  0  0
  152.6138  145.6215  159.2562 H   0  0  0  0  0  0  0  0  0  0  0  0
  154.1558  143.8431  160.0841 H   0  0  0  0  0  0  0  0  0  0  0  0
  152.5438  143.6415  160.7269 H   0  0  0  0  0  0  0  0  0  0  0  0
  153.7321  142.1289  158.3599 H   0  0  0  0  0  0  0  0  0  0  0  0
  152.9812  141.1167  161.1435 H   0  0  0  0  0  0  0  0  0  0  0  0
  154.6189  141.3511  160.5390 H   0  0  0  0  0  0  0  0  0  0  0  0
  153.5825  140.1262  159.8168 H   0  0  0  0  0  0  0  0  0  0  0  0
  150.9821  141.7737  159.6236 H   0  0  0  0  0  0  0  0  0  0  0  0
  151.6400  140.8316  158.3082 H   0  0  0  0  0  0  0  0  0  0  0  0
  1  2  1  0  0  0  0
  1 22  1  0  0  0  0
  1 23  1  0  0  0  0
  1 24  1  0  0  0  0
  2 20  1  0  0  0  0
  2  3  2  0  0  0  0
  3  4  1  0  0  0  0
  4  5  1  0  0  0  0
  4  6  2  0  0  0  0
  5 25  1  0  0  0  0
  5 26  1  0  0  0  0
  5 27  1  0  0  0  0
  6  7  1  0  0  0  0
  6 18  1  0  0  0  0
  7  8  1  0  0  0  0
  7 28  1  0  0  0  0
  7 29  1  0  0  0  0
  8  9  2  0  0  0  0
  8 10  1  0  0  0  0
 10 11  1  0  0  0  0
 10 30  1  0  0  0  0
 11 17  1  0  0  0  0
 11 12  1  0  0  0  0
 11 31  1  0  0  0  0
 12 13  1  0  0  0  0
 12 32  1  0  0  0  0
 12 33  1  0  0  0  0
 13 14  1  0  0  0  0
 13 34  1  0  0  0  0
 13 35  1  0  0  0  0
 14 15  1  0  0  0  0
 14 36  1  0  0  0  0
 14 37  1  0  0  0  0
 15 16  1  0  0  0  0
 15 17  1  0  0  0  0
 15 38  1  0  0  0  0
 16 39  1  0  0  0  0
 16 40  1  0  0  0  0
 16 41  1  0  0  0  0
 17 42  1  0  0  0  0
 17 43  1  0  0  0  0
 18 19  2  0  0  0  0
 18 20  1  0  0  0  0
 20 21  1  0  0  0  0
M  END
> <s_m_source_file>
AV-unprocessed.smi

> <i_m_source_file_index>
2198

> <i_lp_mmshare_version>
43012

> <i_f3d_flags>
0

> <s_epik_input>
W0NIM11jMW5jKFtDSDNdKWMoYyg9TylbbkhdMSlbQ0gyXUMoPU8pW05IXVtDQEBIXTJbQ0gyXVtDSDJdW0NIMl1bQ0BASF0oW0NIM10pW0NIMl0y

> <s_epik_cmdline>
J2VwaWtfcHl0aG9uJywgJy1waCcsICc3LjAnLCAnLXRuJywgJzgnLCAnLW1hJywgJzIwMCcsICctbWV0YWxfYmluZGluZycsICctaW1hZScsICc8aW5maWxlLm1hZT4nLCAnLW9tYWUnLCAnPG91dGZpbGUubWFlPic=

> <r_lp_tautomer_probability>
0.839158

> <r_epik_Ionization_Penalty>
0.000372587

> <r_epik_Ionization_Penalty_Charging>
0.000337977

> <r_epik_Ionization_Penalty_Neutral>
3.46101e-05

> <r_epik_State_Penalty>
0.09125

> <r_epik_Charging_Adjusted_Penalty>
0.091588

> <i_epik_Tot_Q>
0

> <i_epik_Tot_abs_Q>
0

> <r_epik_Metal_State_Penalty>
0.25197

> <b_epik_Metal_Only>
0

> <s_lp_Force_Field>
OPLS_2005

> <r_lp_Energy>
10.3452

> <b_lp_Chiralities_Consistent>
1

> <s_lp_Variant>
AV-unprocessed.smi:2198-2

> <Gold.Version>
5.8.1

> <Gold.Id.Protein>
6NUR|6NUR_protein|mol2

> <Gold.PLP.Fitness>
43.4940

> <Gold.PLP.PLP>
-39.4848

> <Gold.PLP.part.hbond>
-3.7747

> <Gold.PLP.part.metal>
0.0000

> <Gold.PLP.part.buried>
-4.4409

> <Gold.PLP.part.nonpolar>
-32.3688

> <Gold.PLP.part.repulsive>
0.5192

> <Gold.PLP.ligand.clash>
0.0000

> <Gold.PLP.ligand.torsion>
0.5668

> <Gold.PLP.Chemscore.Hbond>
1.7132

> <Gold.PLP.Chemscore.CHOScore>
0.0000

> <Gold.PLP.Chemscore.Metal>
0.0000

> <Gold.Chemscore.Hbonds>
donor molecule, donor type, donor heavy atom, donor atom, acceptor molecule, acceptor atom, score
      L1  H    20    21       P1  7957  0.85
      P1  H  8011  8017       L1    19  0.62

> <Gold.PLP.Chemscore.Internal.Correction>
0.0033

> <Gold.Rescore>
     Score         DG    S(hbond)    S(metal)    S(lipo)     H(rot)  DE(clash)    DE(int)     intcor
     17.57     -19.18       1.85        0.00      96.76       1.48       0.10       1.50       ----

> <Gold.Chemscore.Fitness>
17.5697

> <Gold.Chemscore.DG>
-19.1771

> <Gold.Chemscore.ZeroCoef>
-5.4800

> <Gold.Chemscore.Hbond>
1.8458

> <Gold.Chemscore.Metal>
0.0000

> <Gold.Chemscore.Lipo>
96.7635

> <Gold.Chemscore.Internal_Hbond>
0.0000

> <Gold.Chemscore.DEClash>
0.1036

> <Gold.Chemscore.DEInternal>
1.5038

> <Gold.Chemscore.Rot>
1.4801

> <Gold.Chemscore.Internal.Correction>
   9.000000E+99

> <Gold.Chemscore.Hbonds>
donor molecule, donor type, donor heavy atom, donor atom, acceptor molecule, acceptor atom, score
      L1  H    20    21       P1  7957  0.85
      P1  H  8011  8017       L1    19  0.62

> <Gold.Chemscore.Hbond.Weighted>
-6.1649

> <Gold.Chemscore.Metal.Weighted>
-0.0000

> <Gold.Chemscore.Lipo.Weighted>
-11.3213

> <Gold.Chemscore.Internal_Hbond.Weighted>
0.0000

> <Gold.Chemscore.DEClash.Weighted>
0.1036

> <Gold.Chemscore.DEInternal.Weighted>
1.5038

> <Gold.Chemscore.Rot.Weighted>
3.7891

> <Gold.Chemscore.Internal.Correction.Weighted>
   9.000000E+99

> <Gold.Protein.RotatedTorsions>
[ 6907 6896 6895 6894 ] final   13.32 input  -60.11 | X-H torsion
[ 7974 7965 7964 7962 ] final  -97.72 input  175.53 | X-H torsion
[ 8008 7997 7996 7995 ] final  -39.59 input   59.86 | X-H torsion
[ 10167 10162 10161 10158 ] final  141.56 input  -65.29 | X-H torsion
[ 10718 10713 10712 10709 ] final  -45.00 input   66.30 | X-H torsion
[ 10763 10752 10751 10750 ] final -154.56 input  -60.55 | X-H torsion
[ 11005 11000 10999 10996 ] final   39.93 input  -57.11 | X-H torsion

> <Gold.Protein.ActiveResidues>
 VAL166  LYS551  ARG553  GLY616  TRP617  ASP618  TYR619  PRO620  LYS621  CYS622 
 ASP623  PHE694  ASN695  SER759  ASP760  ASP761  ALA762  ILE779  LEU786  VAL792 
 PHE793  MET794  SER795  GLU796  ALA797  LYS798  CYS799  TRP800  GLU811  SER814 

> <Gold.Protein.RotatedAtoms>
  151.7844  135.0753  160.0378 H   0  0  0  0  0  0  0  0  0  0  0  0  # atno 6907 bound_to 6896
  152.3200  133.5839  159.5746 H   0  0  0  0  0  0  0  0  0  0  0  0  # atno 6908 bound_to 6896
  150.7365  133.9941  159.3658 H   0  0  0  0  0  0  0  0  0  0  0  0  # atno 6909 bound_to 6896
  145.3300  140.9439  143.2667 H   0  0  0  0  0  0  0  0  0  0  0  0  # atno 7974 bound_to 7965
  154.4021  140.1547  156.2889 H   0  0  0  0  0  0  0  0  0  0  0  0  # atno 8008 bound_to 7997
  155.8803  140.3444  155.5861 H   0  0  0  0  0  0  0  0  0  0  0  0  # atno 8009 bound_to 7997
  155.7674  140.0826  157.2115 H   0  0  0  0  0  0  0  0  0  0  0  0  # atno 8010 bound_to 7997
  139.5017  144.6164  151.6154 H   0  0  0  0  0  0  0  0  0  0  0  0  # atno 10167 bound_to 10162
  156.2328  130.4174  149.8854 H   0  0  0  0  0  0  0  0  0  0  0  0  # atno 10718 bound_to 10713
  154.7850  135.3187  154.7906 H   0  0  0  0  0  0  0  0  0  0  0  0  # atno 10763 bound_to 10752
  153.8608  135.6853  153.4787 H   0  0  0  0  0  0  0  0  0  0  0  0  # atno 10764 bound_to 10752
  153.1499  135.4704  154.9559 H   0  0  0  0  0  0  0  0  0  0  0  0  # atno 10765 bound_to 10752
  140.1980  134.3905  155.8111 H   0  0  0  0  0  0  0  0  0  0  0  0  # atno 11005 bound_to 11000
  144.8871  139.4824  143.6695 LP  0  0  0  0  0  0  0  0  0  0  0  0  # atno 17320 bound_to 7965
  146.3049  139.7547  142.9064 LP  0  0  0  0  0  0  0  0  0  0  0  0  # atno 17321 bound_to 7965
  140.5853  143.9875  150.6292 LP  0  0  0  0  0  0  0  0  0  0  0  0  # atno 17342 bound_to 10162
  140.3037  143.3243  152.0946 LP  0  0  0  0  0  0  0  0  0  0  0  0  # atno 17343 bound_to 10162
  156.6462  130.8725  151.3523 LP  0  0  0  0  0  0  0  0  0  0  0  0  # atno 17370 bound_to 10713
  157.7141  130.9475  150.1191 LP  0  0  0  0  0  0  0  0  0  0  0  0  # atno 17371 bound_to 10713
  141.2227  133.7079  156.8209 LP  0  0  0  0  0  0  0  0  0  0  0  0  # atno 17394 bound_to 11000
  140.2085  134.8845  157.3249 LP  0  0  0  0  0  0  0  0  0  0  0  0  # atno 17395 bound_to 11000

$$$$
