AV-unprocessed.smi:1565|AV-procd|sdf|6301|dock9
  -GOLD-   22720 6503D 1   1.00000     0.00000
 Structure written by MMmdl.
 39 40  0  0  0  0  0  0  0  0  2 V2000
  153.4007  142.9043  162.9498 C   0  0  0  0  0  0  0  0  0  0  0  0
  152.7219  142.4385  161.6575 C   0  0  2  0  0  0  0  0  0  0  0  0
  153.3826  141.1714  161.0826 C   0  0  0  0  0  0  0  0  0  0  0  0
  152.7895  140.8258  159.7940 N   0  0  0  0  0  0  0  0  0  0  0  0
  153.1212  139.5450  159.3022 C   0  0  0  0  0  0  0  0  0  0  0  0
  152.1280  138.5421  159.2104 C   0  0  0  0  0  0  0  0  0  0  0  0
  152.4812  137.2662  158.7305 C   0  0  0  0  0  0  0  0  0  0  0  0
  153.8177  137.0205  158.3418 C   0  0  0  0  0  0  0  0  0  0  0  0
  154.2762  135.6703  157.8602 C   0  0  0  0  0  0  0  0  0  0  0  0
  153.7321  134.6695  158.3399 O   0  0  0  0  0  0  0  0  0  0  0  0
  155.2987  135.7563  156.9627 N   0  5  0  0  0  0  0  0  0  0  0  0
  156.6917  135.4193  157.2667 C   0  0  0  0  0  0  0  0  0  0  0  0
  157.6362  135.8426  156.1232 C   0  0  0  0  0  0  0  0  0  0  0  0
  157.4312  137.1304  155.8467 F   0  0  0  0  0  0  0  0  0  0  0  0
  158.9116  135.6873  156.4821 F   0  0  0  0  0  0  0  0  0  0  0  0
  157.4027  135.1345  155.0172 F   0  0  0  0  0  0  0  0  0  0  0  0
  154.7370  138.0837  158.4721 C   0  0  0  0  0  0  0  0  0  0  0  0
  154.4033  139.3096  158.9302 N   0  0  0  0  0  0  0  0  0  0  0  0
  152.7805  141.9394  158.8479 C   0  0  0  0  0  0  0  0  0  0  0  0
  152.1343  143.1827  159.4865 C   0  0  2  0  0  0  0  0  0  0  0  0
  152.2118  144.4072  158.5687 C   0  0  0  0  0  0  0  0  0  0  0  0
  152.8131  143.4906  160.7009 O   0  0  0  0  0  0  0  0  0  0  0  0
  153.3478  142.1347  163.7206 H   0  0  0  0  0  0  0  0  0  0  0  0
  152.9191  143.8006  163.3415 H   0  0  0  0  0  0  0  0  0  0  0  0
  154.4524  143.1376  162.7810 H   0  0  0  0  0  0  0  0  0  0  0  0
  151.6701  142.2391  161.8712 H   0  0  0  0  0  0  0  0  0  0  0  0
  154.4517  141.3358  160.9414 H   0  0  0  0  0  0  0  0  0  0  0  0
  153.2798  140.3601  161.8020 H   0  0  0  0  0  0  0  0  0  0  0  0
  151.1045  138.7361  159.4933 H   0  0  0  0  0  0  0  0  0  0  0  0
  151.7285  136.4936  158.6705 H   0  0  0  0  0  0  0  0  0  0  0  0
  157.0311  135.8747  158.1983 H   0  0  0  0  0  0  0  0  0  0  0  0
  156.7969  134.3453  157.4240 H   0  0  0  0  0  0  0  0  0  0  0  0
  155.7749  137.9548  158.2010 H   0  0  0  0  0  0  0  0  0  0  0  0
  153.8046  142.1617  158.5443 H   0  0  0  0  0  0  0  0  0  0  0  0
  152.2260  141.6629  157.9502 H   0  0  0  0  0  0  0  0  0  0  0  0
  151.0842  142.9799  159.7054 H   0  0  0  0  0  0  0  0  0  0  0  0
  151.6952  144.2244  157.6262 H   0  0  0  0  0  0  0  0  0  0  0  0
  153.2463  144.6641  158.3395 H   0  0  0  0  0  0  0  0  0  0  0  0
  151.7492  145.2758  159.0381 H   0  0  0  0  0  0  0  0  0  0  0  0
  1  2  1  0  0  0  0
  1 23  1  0  0  0  0
  1 24  1  0  0  0  0
  1 25  1  0  0  0  0
  2 22  1  0  0  0  0
  2  3  1  0  0  0  0
  2 26  1  0  0  0  0
  3  4  1  0  0  0  0
  3 27  1  0  0  0  0
  3 28  1  0  0  0  0
  4  5  1  0  0  0  0
  4 19  1  0  0  0  0
  5 18  1  0  0  0  0
  5  6  2  0  0  0  0
  6  7  1  0  0  0  0
  6 29  1  0  0  0  0
  7  8  2  0  0  0  0
  7 30  1  0  0  0  0
  8  9  1  0  0  0  0
  8 17  1  0  0  0  0
  9 10  2  0  0  0  0
  9 11  1  0  0  0  0
 11 12  1  0  0  0  0
 12 13  1  0  0  0  0
 12 31  1  0  0  0  0
 12 32  1  0  0  0  0
 13 14  1  0  0  0  0
 13 15  1  0  0  0  0
 13 16  1  0  0  0  0
 17 18  2  0  0  0  0
 17 33  1  0  0  0  0
 19 20  1  0  0  0  0
 19 34  1  0  0  0  0
 19 35  1  0  0  0  0
 20 21  1  0  0  0  0
 20 22  1  0  0  0  0
 20 36  1  0  0  0  0
 21 37  1  0  0  0  0
 21 38  1  0  0  0  0
 21 39  1  0  0  0  0
M  CHG  1  11  -1
M  END
> <s_m_source_file>
AV-unprocessed.smi

> <i_m_source_file_index>
1565

> <i_lp_mmshare_version>
43012

> <i_f3d_flags>
0

> <s_epik_input>
W0NIM11bQ0BASF0xW0NIMl1OKFtDSDJdW0NASF0oTzEpW0NIM10pYzJbY0hdW2NIXWMoW2NIXW4yKUMoPU8pW05IXVtDSDJdQyhGKShGKUY=

> <s_epik_cmdline>
J2VwaWtfcHl0aG9uJywgJy1waCcsICc3LjAnLCAnLXRuJywgJzgnLCAnLW1hJywgJzIwMCcsICctbWV0YWxfYmluZGluZycsICctaW1hZScsICc8aW5maWxlLm1hZT4nLCAnLW9tYWUnLCAnPG91dGZpbGUubWFlPic=

> <r_lp_tautomer_probability>
1

> <r_epik_Ionization_Penalty>
6.78525

> <r_epik_Ionization_Penalty_Charging>
6.78469

> <r_epik_Ionization_Penalty_Neutral>
0.000559052

> <r_epik_State_Penalty>
6.78469

> <r_epik_Charging_Adjusted_Penalty>
13.5694

> <i_epik_Tot_Q>
-1

> <i_epik_Tot_abs_Q>
1

> <r_epik_Metal_State_Penalty>
2.70441

> <b_epik_Metal_Only>
1

> <s_lp_Force_Field>
OPLS_2005

> <r_lp_Energy>
25.7162

> <b_lp_Chiralities_Consistent>
1

> <s_lp_Variant>
AV-unprocessed.smi:1565-5

> <Gold.Version>
5.8.1

> <Gold.Id.Protein>
6NUR|6NUR_protein|mol2

> <Gold.PLP.Fitness>
44.2094

> <Gold.PLP.PLP>
-37.2373

> <Gold.PLP.part.hbond>
-3.0000

> <Gold.PLP.part.metal>
0.0000

> <Gold.PLP.part.buried>
-4.7592

> <Gold.PLP.part.nonpolar>
-28.6236

> <Gold.PLP.part.repulsive>
0.0413

> <Gold.PLP.ligand.clash>
0.0000

> <Gold.PLP.ligand.torsion>
1.3567

> <Gold.PLP.Chemscore.Hbond>
3.1220

> <Gold.PLP.Chemscore.CHOScore>
0.0000

> <Gold.PLP.Chemscore.Metal>
0.0000

> <Gold.Chemscore.Hbonds>
donor molecule, donor type, donor heavy atom, donor atom, acceptor molecule, acceptor atom, score
      P1  H  6896  6908       L1    10  0.67
      P1  H  7997  8009       L1    18  0.45
      P1  H 10752 10764       L1    11  2.00

> <Gold.PLP.Chemscore.Internal.Correction>
0.3195

> <Gold.Rescore>
     Score         DG    S(hbond)    S(metal)    S(lipo)     H(rot)  DE(clash)    DE(int)     intcor
     16.35     -17.73       1.55        0.00      88.61       1.29       0.06       1.32       ----

> <Gold.Chemscore.Fitness>
16.3455

> <Gold.Chemscore.DG>
-17.7298

> <Gold.Chemscore.ZeroCoef>
-5.4800

> <Gold.Chemscore.Hbond>
1.5540

> <Gold.Chemscore.Metal>
0.0000

> <Gold.Chemscore.Lipo>
88.6092

> <Gold.Chemscore.Internal_Hbond>
0.0000

> <Gold.Chemscore.DEClash>
0.0629

> <Gold.Chemscore.DEInternal>
1.3215

> <Gold.Chemscore.Rot>
1.2921

> <Gold.Chemscore.Internal.Correction>
   9.000000E+99

> <Gold.Chemscore.Hbonds>
donor molecule, donor type, donor heavy atom, donor atom, acceptor molecule, acceptor atom, score
      P1  H  6896  6908       L1    10  0.68
      P1  H  7997  8009       L1    18  0.01
      P1  H 10752 10764       L1    11  0.34

> <Gold.Chemscore.Hbond.Weighted>
-5.1903

> <Gold.Chemscore.Metal.Weighted>
-0.0000

> <Gold.Chemscore.Lipo.Weighted>
-10.3673

> <Gold.Chemscore.Internal_Hbond.Weighted>
0.0000

> <Gold.Chemscore.DEClash.Weighted>
0.0629

> <Gold.Chemscore.DEInternal.Weighted>
1.3215

> <Gold.Chemscore.Rot.Weighted>
3.3078

> <Gold.Chemscore.Internal.Correction.Weighted>
   9.000000E+99

> <Gold.Protein.RotatedTorsions>
[ 6907 6896 6895 6894 ] final  -26.01 input  -60.11 | X-H torsion
[ 7974 7965 7964 7962 ] final  -51.72 input  175.53 | X-H torsion
[ 8008 7997 7996 7995 ] final  135.95 input   59.86 | X-H torsion
[ 10167 10162 10161 10158 ] final  142.46 input  -65.29 | X-H torsion
[ 10718 10713 10712 10709 ] final  -43.31 input   66.30 | X-H torsion
[ 10763 10752 10751 10750 ] final   48.72 input  -60.55 | X-H torsion
[ 11005 11000 10999 10996 ] final    4.14 input  -57.11 | X-H torsion

> <Gold.Protein.ActiveResidues>
 VAL166  LYS551  ARG553  GLY616  TRP617  ASP618  TYR619  PRO620  LYS621  CYS622 
 ASP623  PHE694  ASN695  SER759  ASP760  ASP761  ALA762  ILE779  LEU786  VAL792 
 PHE793  MET794  SER795  GLU796  ALA797  LYS798  CYS799  TRP800  GLU811  SER814 

> <Gold.Protein.RotatedAtoms>
  151.1670  135.0300  159.8735 H   0  0  0  0  0  0  0  0  0  0  0  0  # atno 6907 bound_to 6896
  152.5450  134.1213  159.8410 H   0  0  0  0  0  0  0  0  0  0  0  0  # atno 6908 bound_to 6896
  151.1315  133.4987  159.2631 H   0  0  0  0  0  0  0  0  0  0  0  0  # atno 6909 bound_to 6896
  145.9159  140.7875  142.9672 H   0  0  0  0  0  0  0  0  0  0  0  0  # atno 7974 bound_to 7965
  156.3004  140.2457  156.3665 H   0  0  0  0  0  0  0  0  0  0  0  0  # atno 8008 bound_to 7997
  154.8828  140.0412  157.1812 H   0  0  0  0  0  0  0  0  0  0  0  0  # atno 8009 bound_to 7997
  154.8678  140.2930  155.5504 H   0  0  0  0  0  0  0  0  0  0  0  0  # atno 8010 bound_to 7997
  139.4993  144.6105  151.6282 H   0  0  0  0  0  0  0  0  0  0  0  0  # atno 10167 bound_to 10162
  156.2503  130.4187  149.8657 H   0  0  0  0  0  0  0  0  0  0  0  0  # atno 10718 bound_to 10713
  152.9790  135.5935  154.3972 H   0  0  0  0  0  0  0  0  0  0  0  0  # atno 10763 bound_to 10752
  154.3621  135.2767  155.2316 H   0  0  0  0  0  0  0  0  0  0  0  0  # atno 10764 bound_to 10752
  154.4308  135.6036  153.6122 H   0  0  0  0  0  0  0  0  0  0  0  0  # atno 10765 bound_to 10752
  140.5852  133.9975  155.8065 H   0  0  0  0  0  0  0  0  0  0  0  0  # atno 11005 bound_to 11000
  144.6748  140.1899  143.7397 LP  0  0  0  0  0  0  0  0  0  0  0  0  # atno 17320 bound_to 7965
  145.8612  139.2224  143.1715 LP  0  0  0  0  0  0  0  0  0  0  0  0  # atno 17321 bound_to 7965
  140.5779  143.9997  150.6251 LP  0  0  0  0  0  0  0  0  0  0  0  0  # atno 17342 bound_to 10162
  140.3136  143.3182  152.0854 LP  0  0  0  0  0  0  0  0  0  0  0  0  # atno 17343 bound_to 10162
  156.6208  130.8625  151.3475 LP  0  0  0  0  0  0  0  0  0  0  0  0  # atno 17370 bound_to 10713
  157.7212  130.9561  150.1445 LP  0  0  0  0  0  0  0  0  0  0  0  0  # atno 17371 bound_to 10713
  141.0970  133.9827  157.3143 LP  0  0  0  0  0  0  0  0  0  0  0  0  # atno 17394 bound_to 11000
  139.9299  135.0200  156.8363 LP  0  0  0  0  0  0  0  0  0  0  0  0  # atno 17395 bound_to 11000

$$$$
