AV-unprocessed.smi:2008|AV-procd|sdf|8143|dock2
  -GOLD-   2272010383D 1   1.00000     0.00000
 Structure written by MMmdl.
 46 47  0  0  0  0  0  0  0  0  2 V2000
  151.4534  140.7286  158.3716 C   0  0  0  0  0  0  0  0  0  0  0  0
  151.6954  140.6480  156.9710 O   0  0  0  0  0  0  0  0  0  0  0  0
  151.2035  139.5577  156.2832 C   0  0  0  0  0  0  0  0  0  0  0  0
  151.0388  138.3415  156.9741 C   0  0  0  0  0  0  0  0  0  0  0  0
  150.5383  137.2273  156.2747 C   0  0  0  0  0  0  0  0  0  0  0  0
  150.2163  137.3553  154.9079 C   0  0  0  0  0  0  0  0  0  0  0  0
  149.7172  136.2008  154.2417 N   0  0  0  0  0  0  0  0  0  0  0  0
  149.5576  134.9473  154.7020 C   0  0  0  0  0  0  0  0  0  0  0  0
  149.8589  134.5487  155.8261 O   0  0  0  0  0  0  0  0  0  0  0  0
  149.0198  134.1532  153.7652 N   0  0  0  0  0  0  0  0  0  0  0  0
  148.6982  132.7429  153.9528 C   0  0  0  0  0  0  0  0  0  0  0  0
  147.5318  132.3014  153.0462 C   0  0  0  0  0  0  0  0  0  0  0  0
  147.6778  130.9141  152.5270 N   0  3  2  0  0  0  0  0  0  0  0  0
  146.4207  130.4192  151.9026 C   0  0  0  0  0  0  0  0  0  0  0  0
  146.6415  129.0830  151.1761 C   0  0  0  0  0  0  0  0  0  0  0  0
  147.2288  128.0316  152.1236 C   0  0  0  0  0  0  0  0  0  0  0  0
  148.5130  128.5714  152.7678 C   0  0  0  0  0  0  0  0  0  0  0  0
  148.2894  129.9269  153.4726 C   0  0  2  0  0  0  0  0  0  0  0  0
  147.5119  129.7742  154.7975 C   0  0  0  0  0  0  0  0  0  0  0  0
  150.4186  138.6217  154.3040 C   0  0  0  0  0  0  0  0  0  0  0  0
  150.8978  139.6940  154.9697 N   0  0  0  0  0  0  0  0  0  0  0  0
  151.9002  141.6425  158.7628 H   0  0  0  0  0  0  0  0  0  0  0  0
  151.9011  139.8878  158.9036 H   0  0  0  0  0  0  0  0  0  0  0  0
  150.3852  140.7629  158.5905 H   0  0  0  0  0  0  0  0  0  0  0  0
  151.2929  138.2643  158.0210 H   0  0  0  0  0  0  0  0  0  0  0  0
  150.4058  136.2850  156.7861 H   0  0  0  0  0  0  0  0  0  0  0  0
  149.4292  136.3545  153.2865 H   0  0  0  0  0  0  0  0  0  0  0  0
  148.8013  134.5572  152.8658 H   0  0  0  0  0  0  0  0  0  0  0  0
  149.5825  132.1300  153.7693 H   0  0  0  0  0  0  0  0  0  0  0  0
  148.4411  132.6172  155.0039 H   0  0  0  0  0  0  0  0  0  0  0  0
  146.5784  132.4157  153.5624 H   0  0  0  0  0  0  0  0  0  0  0  0
  147.4892  132.9758  152.1900 H   0  0  0  0  0  0  0  0  0  0  0  0
  145.6416  130.3169  152.6586 H   0  0  0  0  0  0  0  0  0  0  0  0
  146.0566  131.1524  151.1818 H   0  0  0  0  0  0  0  0  0  0  0  0
  145.6994  128.7247  150.7596 H   0  0  0  0  0  0  0  0  0  0  0  0
  147.3155  129.2326  150.3314 H   0  0  0  0  0  0  0  0  0  0  0  0
  146.5001  127.7744  152.8929 H   0  0  0  0  0  0  0  0  0  0  0  0
  147.4407  127.1114  151.5781 H   0  0  0  0  0  0  0  0  0  0  0  0
  148.9152  127.8401  153.4700 H   0  0  0  0  0  0  0  0  0  0  0  0
  149.2721  128.6928  151.9936 H   0  0  0  0  0  0  0  0  0  0  0  0
  149.2844  130.2874  153.7304 H   0  0  0  0  0  0  0  0  0  0  0  0
  147.9876  129.0307  155.4378 H   0  0  0  0  0  0  0  0  0  0  0  0
  146.4822  129.4540  154.6405 H   0  0  0  0  0  0  0  0  0  0  0  0
  147.4895  130.7043  155.3645 H   0  0  0  0  0  0  0  0  0  0  0  0
  150.2030  138.8128  153.2658 H   0  0  0  0  0  0  0  0  0  0  0  0
  148.3339  130.9889  151.7626 H   0  0  0  0  0  0  0  0  0  0  0  0
  1  2  1  0  0  0  0
  1 22  1  0  0  0  0
  1 23  1  0  0  0  0
  1 24  1  0  0  0  0
  2  3  1  0  0  0  0
  3 21  1  0  0  0  0
  3  4  2  0  0  0  0
  4  5  1  0  0  0  0
  4 25  1  0  0  0  0
  5  6  2  0  0  0  0
  5 26  1  0  0  0  0
  6  7  1  0  0  0  0
  6 20  1  0  0  0  0
  7  8  1  0  0  0  0
  7 27  1  0  0  0  0
  8  9  2  0  0  0  0
  8 10  1  0  0  0  0
 10 11  1  0  0  0  0
 10 28  1  0  0  0  0
 11 12  1  0  0  0  0
 11 29  1  0  0  0  0
 11 30  1  0  0  0  0
 12 13  1  0  0  0  0
 12 31  1  0  0  0  0
 12 32  1  0  0  0  0
 13 18  1  0  0  0  0
 13 14  1  0  0  0  0
 13 46  1  0  0  0  0
 14 15  1  0  0  0  0
 14 33  1  0  0  0  0
 14 34  1  0  0  0  0
 15 16  1  0  0  0  0
 15 35  1  0  0  0  0
 15 36  1  0  0  0  0
 16 17  1  0  0  0  0
 16 37  1  0  0  0  0
 16 38  1  0  0  0  0
 17 18  1  0  0  0  0
 17 39  1  0  0  0  0
 17 40  1  0  0  0  0
 18 19  1  0  0  0  0
 18 41  1  0  0  0  0
 19 42  1  0  0  0  0
 19 43  1  0  0  0  0
 19 44  1  0  0  0  0
 20 21  2  0  0  0  0
 20 45  1  0  0  0  0
M  CHG  1  13   1
M  END
> <s_m_source_file>
AV-unprocessed.smi

> <i_m_source_file_index>
2008

> <i_lp_mmshare_version>
43012

> <i_f3d_flags>
0

> <s_epik_input>
W0NIM11PYzFbY0hdW2NIXWMoW2NIXW4xKVtOSF1DKD1PKVtOSF1bQ0gyXVtDSDJdTjJbQ0gyXVtDSDJdW0NIMl1bQ0gyXVtDQEhdMltDSDNd

> <s_epik_cmdline>
J2VwaWtfcHl0aG9uJywgJy1waCcsICc3LjAnLCAnLXRuJywgJzgnLCAnLW1hJywgJzIwMCcsICctbWV0YWxfYmluZGluZycsICctaW1hZScsICc8aW5maWxlLm1hZT4nLCAnLW9tYWUnLCAnPG91dGZpbGUubWFlPic=

> <r_lp_tautomer_probability>
1

> <r_epik_Ionization_Penalty>
0.00219526

> <r_epik_Ionization_Penalty_Charging>
0.00211816

> <r_epik_Ionization_Penalty_Neutral>
7.71003e-05

> <r_epik_State_Penalty>
0.00145254

> <r_epik_Charging_Adjusted_Penalty>
0.0035707

> <i_epik_Tot_Q>
1

> <i_epik_Tot_abs_Q>
1

> <r_epik_Metal_State_Penalty>
-0

> <b_epik_Metal_Only>
0

> <s_lp_Force_Field>
OPLS_2005

> <r_lp_Energy>
23.262

> <b_lp_Chiralities_Consistent>
1

> <s_lp_Variant>
AV-unprocessed.smi:2008-3

> <Gold.Version>
5.8.1

> <Gold.Id.Protein>
6NUR|6NUR_protein|mol2

> <Gold.PLP.Fitness>
47.3838

> <Gold.PLP.PLP>
-33.2571

> <Gold.PLP.part.hbond>
-6.0000

> <Gold.PLP.part.metal>
0.0000

> <Gold.PLP.part.buried>
0.1926

> <Gold.PLP.part.nonpolar>
-26.5202

> <Gold.PLP.part.repulsive>
0.1709

> <Gold.PLP.ligand.clash>
0.0000

> <Gold.PLP.ligand.torsion>
0.9699

> <Gold.PLP.Chemscore.Hbond>
4.3800

> <Gold.PLP.Chemscore.CHOScore>
0.9565

> <Gold.PLP.Chemscore.Metal>
0.0000

> <Gold.Chemscore.Hbonds>
donor molecule, donor type, donor heavy atom, donor atom, acceptor molecule, acceptor atom, score
      L1  H     7    27       P1  7948  0.86
      L1  H    10    28       P1  7948  0.55
      L1  H    13    46       P1 10747  1.00
      P1  H  7989  7998       L1    21  1.00
      L1  C    20    45       P1  7957  1.00

> <Gold.PLP.Chemscore.Internal.Correction>
0.0568

> <Gold.Rescore>
     Score         DG    S(hbond)    S(metal)    S(lipo)     H(rot)  DE(clash)    DE(int)     intcor
     16.01     -18.30       2.45        0.00      77.15       1.71       0.06       2.24       ----

> <Gold.Chemscore.Fitness>
16.0056

> <Gold.Chemscore.DG>
-18.3021

> <Gold.Chemscore.ZeroCoef>
-5.4800

> <Gold.Chemscore.Hbond>
2.4477

> <Gold.Chemscore.Metal>
0.0000

> <Gold.Chemscore.Lipo>
77.1472

> <Gold.Chemscore.Internal_Hbond>
0.0000

> <Gold.Chemscore.DEClash>
0.0551

> <Gold.Chemscore.DEInternal>
2.2414

> <Gold.Chemscore.Rot>
1.7107

> <Gold.Chemscore.Internal.Correction>
   9.000000E+99

> <Gold.Chemscore.Hbonds>
donor molecule, donor type, donor heavy atom, donor atom, acceptor molecule, acceptor atom, score
      L1  H     7    27       P1  7948  0.55
      L1  H    10    28       P1  7948  0.05
      L1  H    13    46       P1 10747  0.99
      P1  H  7989  7998       L1    21  0.37

> <Gold.Chemscore.Hbond.Weighted>
-8.1753

> <Gold.Chemscore.Metal.Weighted>
-0.0000

> <Gold.Chemscore.Lipo.Weighted>
-9.0262

> <Gold.Chemscore.Internal_Hbond.Weighted>
0.0000

> <Gold.Chemscore.DEClash.Weighted>
0.0551

> <Gold.Chemscore.DEInternal.Weighted>
2.2414

> <Gold.Chemscore.Rot.Weighted>
4.3794

> <Gold.Chemscore.Internal.Correction.Weighted>
   9.000000E+99

> <Gold.Protein.RotatedTorsions>
[ 6907 6896 6895 6894 ] final  135.28 input  -60.11 | X-H torsion
[ 7974 7965 7964 7962 ] final -101.64 input  175.53 | X-H torsion
[ 8008 7997 7996 7995 ] final   67.34 input   59.86 | X-H torsion
[ 10167 10162 10161 10158 ] final   28.24 input  -65.29 | X-H torsion
[ 10718 10713 10712 10709 ] final -158.82 input   66.30 | X-H torsion
[ 10763 10752 10751 10750 ] final  127.82 input  -60.55 | X-H torsion
[ 11005 11000 10999 10996 ] final   30.67 input  -57.11 | X-H torsion

> <Gold.Protein.ActiveResidues>
 VAL166  LYS551  ARG553  GLY616  TRP617  ASP618  TYR619  PRO620  LYS621  CYS622 
 ASP623  PHE694  ASN695  SER759  ASP760  ASP761  ALA762  ILE779  LEU786  VAL792 
 PHE793  MET794  SER795  GLU796  ALA797  LYS798  CYS799  TRP800  GLU811  SER814 

> <Gold.Protein.RotatedAtoms>
  152.3022  133.5667  159.5625 H   0  0  0  0  0  0  0  0  0  0  0  0  # atno 6907 bound_to 6896
  150.7283  134.0275  159.3731 H   0  0  0  0  0  0  0  0  0  0  0  0  # atno 6908 bound_to 6896
  151.8174  135.0662  160.0471 H   0  0  0  0  0  0  0  0  0  0  0  0  # atno 6909 bound_to 6896
  145.2790  140.9321  143.2943 H   0  0  0  0  0  0  0  0  0  0  0  0  # atno 7974 bound_to 7965
  155.6913  140.3496  155.4895 H   0  0  0  0  0  0  0  0  0  0  0  0  # atno 8008 bound_to 7997
  155.9521  140.1121  157.0990 H   0  0  0  0  0  0  0  0  0  0  0  0  # atno 8009 bound_to 7997
  154.4124  140.1192  156.5053 H   0  0  0  0  0  0  0  0  0  0  0  0  # atno 8010 bound_to 7997
  140.4870  144.0527  150.6284 H   0  0  0  0  0  0  0  0  0  0  0  0  # atno 10167 bound_to 10162
  156.5595  130.8641  151.2805 H   0  0  0  0  0  0  0  0  0  0  0  0  # atno 10718 bound_to 10713
  153.7155  135.3261  155.3255 H   0  0  0  0  0  0  0  0  0  0  0  0  # atno 10763 bound_to 10752
  154.8372  135.4487  154.1270 H   0  0  0  0  0  0  0  0  0  0  0  0  # atno 10764 bound_to 10752
  153.2376  135.6967  153.7898 H   0  0  0  0  0  0  0  0  0  0  0  0  # atno 10765 bound_to 10752
  140.2920  134.2854  155.7774 H   0  0  0  0  0  0  0  0  0  0  0  0  # atno 11005 bound_to 11000
  144.9270  139.4344  143.6513 LP  0  0  0  0  0  0  0  0  0  0  0  0  # atno 17320 bound_to 7965
  146.3222  139.8160  142.8936 LP  0  0  0  0  0  0  0  0  0  0  0  0  # atno 17321 bound_to 7965
  140.3785  143.2815  152.0197 LP  0  0  0  0  0  0  0  0  0  0  0  0  # atno 17342 bound_to 10162
  139.4844  144.6173  151.7321 LP  0  0  0  0  0  0  0  0  0  0  0  0  # atno 17343 bound_to 10162
  157.7371  130.9790  150.2175 LP  0  0  0  0  0  0  0  0  0  0  0  0  # atno 17370 bound_to 10713
  156.2811  130.3733  149.7934 LP  0  0  0  0  0  0  0  0  0  0  0  0  # atno 17371 bound_to 10713
  141.2144  133.7591  156.9638 LP  0  0  0  0  0  0  0  0  0  0  0  0  # atno 17394 bound_to 11000
  140.1187  134.9431  157.2172 LP  0  0  0  0  0  0  0  0  0  0  0  0  # atno 17395 bound_to 11000

$$$$
