AV-unprocessed.smi:2297|AV-procd|sdf|9222|dock9
  -GOLD-   2272012443D 1   1.00000     0.00000
 Structure written by MMmdl.
 44 45  0  0  0  0  0  0  0  0  1 V2000
  151.6602  144.9331  159.4625 C   0  0  0  0  0  0  0  0  0  0  0  0
  151.8436  143.4702  159.1148 C   0  0  0  0  0  0  0  0  0  0  0  0
  152.5121  142.6051  160.0039 C   0  0  0  0  0  0  0  0  0  0  0  0
  152.6801  141.2462  159.6743 C   0  0  0  0  0  0  0  0  0  0  0  0
  153.4011  140.3223  160.6342 C   0  0  0  0  0  0  0  0  0  0  0  0
  152.1764  140.7553  158.4525 C   0  0  0  0  0  0  0  0  0  0  0  0
  151.5055  141.6073  157.5518 C   0  0  0  0  0  0  0  0  0  0  0  0
  151.0467  141.0413  156.3819 O   0  0  0  0  0  0  0  0  0  0  0  0
  150.1635  141.8013  155.5653 C   0  0  0  0  0  0  0  0  0  0  0  0
  149.6204  140.9294  154.4204 C   0  0  2  0  0  0  0  0  0  0  0  0
  150.7267  140.4059  153.7131 O   0  0  0  0  0  0  0  0  0  0  0  0
  148.6835  141.7014  153.4640 C   0  0  0  0  0  0  0  0  0  0  0  0
  147.3043  141.7741  153.9739 N   0  0  0  0  0  0  0  0  0  0  0  0
  146.7672  143.0616  154.1351 C   0  0  0  0  0  0  0  0  0  0  0  0
  145.5649  143.2458  154.5739 N   0  0  0  0  0  0  0  0  0  0  0  0
  144.7672  142.1464  154.9044 C   0  0  0  0  0  0  0  0  0  0  0  0
  143.3771  142.4752  155.4189 C   0  0  0  0  0  0  0  0  0  0  0  0
  145.2272  140.8726  154.7678 C   0  0  0  0  0  0  0  0  0  0  0  0
  144.4072  139.6370  155.1181 C   0  0  0  0  0  0  0  0  0  0  0  0
  146.5898  140.6473  154.2595 C   0  0  0  0  0  0  0  0  0  0  0  0
  147.0642  139.5217  154.0951 O   0  0  0  0  0  0  0  0  0  0  0  0
  151.3438  142.9736  157.8939 C   0  0  0  0  0  0  0  0  0  0  0  0
  152.0024  145.1485  160.4753 H   0  0  0  0  0  0  0  0  0  0  0  0
  150.6078  145.2097  159.3944 H   0  0  0  0  0  0  0  0  0  0  0  0
  152.2255  145.5583  158.7711 H   0  0  0  0  0  0  0  0  0  0  0  0
  152.8977  142.9816  160.9404 H   0  0  0  0  0  0  0  0  0  0  0  0
  153.4403  139.3018  160.2520 H   0  0  0  0  0  0  0  0  0  0  0  0
  152.8916  140.3055  161.5978 H   0  0  0  0  0  0  0  0  0  0  0  0
  154.4236  140.6660  160.7921 H   0  0  0  0  0  0  0  0  0  0  0  0
  152.3035  139.7132  158.1979 H   0  0  0  0  0  0  0  0  0  0  0  0
  149.3414  142.2154  156.1522 H   0  0  0  0  0  0  0  0  0  0  0  0
  150.7143  142.6376  155.1319 H   0  0  0  0  0  0  0  0  0  0  0  0
  149.0952  140.0854  154.8692 H   0  0  0  0  0  0  0  0  0  0  0  0
  150.4627  140.2388  152.8214 H   0  0  0  0  0  0  0  0  0  0  0  0
  149.0559  142.7200  153.3393 H   0  0  0  0  0  0  0  0  0  0  0  0
  148.7291  141.2770  152.4586 H   0  0  0  0  0  0  0  0  0  0  0  0
  147.4297  143.8851  153.8629 H   0  0  0  0  0  0  0  0  0  0  0  0
  143.2507  142.1070  156.4373 H   0  0  0  0  0  0  0  0  0  0  0  0
  142.6168  142.0179  154.7853 H   0  0  0  0  0  0  0  0  0  0  0  0
  143.2002  143.5513  155.4276 H   0  0  0  0  0  0  0  0  0  0  0  0
  144.2977  138.9962  154.2425 H   0  0  0  0  0  0  0  0  0  0  0  0
  143.4074  139.8724  155.4786 H   0  0  0  0  0  0  0  0  0  0  0  0
  144.9095  139.0621  155.8970 H   0  0  0  0  0  0  0  0  0  0  0  0
  150.8379  143.6618  157.2339 H   0  0  0  0  0  0  0  0  0  0  0  0
  1  2  1  0  0  0  0
  1 23  1  0  0  0  0
  1 24  1  0  0  0  0
  1 25  1  0  0  0  0
  2 22  1  0  0  0  0
  2  3  2  0  0  0  0
  3  4  1  0  0  0  0
  3 26  1  0  0  0  0
  4  5  1  0  0  0  0
  4  6  2  0  0  0  0
  5 27  1  0  0  0  0
  5 28  1  0  0  0  0
  5 29  1  0  0  0  0
  6  7  1  0  0  0  0
  6 30  1  0  0  0  0
  7  8  1  0  0  0  0
  7 22  2  0  0  0  0
  8  9  1  0  0  0  0
  9 10  1  0  0  0  0
  9 31  1  0  0  0  0
  9 32  1  0  0  0  0
 10 11  1  0  0  0  0
 10 12  1  0  0  0  0
 10 33  1  0  0  0  0
 11 34  1  0  0  0  0
 12 13  1  0  0  0  0
 12 35  1  0  0  0  0
 12 36  1  0  0  0  0
 13 20  1  0  0  0  0
 13 14  1  0  0  0  0
 14 15  2  0  0  0  0
 14 37  1  0  0  0  0
 15 16  1  0  0  0  0
 16 17  1  0  0  0  0
 16 18  2  0  0  0  0
 17 38  1  0  0  0  0
 17 39  1  0  0  0  0
 17 40  1  0  0  0  0
 18 19  1  0  0  0  0
 18 20  1  0  0  0  0
 19 41  1  0  0  0  0
 19 42  1  0  0  0  0
 19 43  1  0  0  0  0
 20 21  2  0  0  0  0
 22 44  1  0  0  0  0
M  END
> <s_m_source_file>
AV-unprocessed.smi

> <i_m_source_file_index>
2297

> <i_lp_mmshare_version>
43012

> <i_f3d_flags>
0

> <s_epik_input>
W0NIM11jMVtjSF1jKFtDSDNdKVtjSF1jKFtjSF0xKU9bQ0gyXVtDQEhdKFtPSF0pW0NIMl1uMltjSF1uYyhbQ0gzXSljKFtDSDNdKWMyPU8=

> <s_epik_cmdline>
J2VwaWtfcHl0aG9uJywgJy1waCcsICc3LjAnLCAnLXRuJywgJzgnLCAnLW1hJywgJzIwMCcsICctbWV0YWxfYmluZGluZycsICctaW1hZScsICc8aW5maWxlLm1hZT4nLCAnLW9tYWUnLCAnPG91dGZpbGUubWFlPic=

> <r_lp_tautomer_probability>
1

> <r_epik_Ionization_Penalty>
3.72236e-05

> <r_epik_Ionization_Penalty_Charging>
8.38864e-08

> <r_epik_Ionization_Penalty_Neutral>
3.71397e-05

> <r_epik_State_Penalty>
-0

> <r_epik_Charging_Adjusted_Penalty>
8.38864e-08

> <i_epik_Tot_Q>
0

> <i_epik_Tot_abs_Q>
0

> <r_epik_Metal_State_Penalty>
-0

> <b_epik_Metal_Only>
0

> <s_lp_Force_Field>
OPLS_2005

> <r_lp_Energy>
24.6499

> <b_lp_Chiralities_Consistent>
1

> <s_lp_Variant>
AV-unprocessed.smi:2297-1

> <Gold.Version>
5.8.1

> <Gold.Id.Protein>
6NUR|6NUR_protein|mol2

> <Gold.PLP.Fitness>
51.6488

> <Gold.PLP.PLP>
-45.0117

> <Gold.PLP.part.hbond>
-2.0000

> <Gold.PLP.part.metal>
0.0000

> <Gold.PLP.part.buried>
-3.7774

> <Gold.PLP.part.nonpolar>
-38.9743

> <Gold.PLP.part.repulsive>
0.2970

> <Gold.PLP.ligand.clash>
0.0000

> <Gold.PLP.ligand.torsion>
0.3930

> <Gold.PLP.Chemscore.Hbond>
1.9508

> <Gold.PLP.Chemscore.CHOScore>
0.4945

> <Gold.PLP.Chemscore.Metal>
0.0000

> <Gold.Chemscore.Hbonds>
donor molecule, donor type, donor heavy atom, donor atom, acceptor molecule, acceptor atom, score
      L1  H    11    34       P1  7957  1.00
      L1  C    14    37       P1  8028  0.59

> <Gold.PLP.Chemscore.Internal.Correction>
0.0874

> <Gold.Rescore>
     Score         DG    S(hbond)    S(metal)    S(lipo)     H(rot)  DE(clash)    DE(int)     intcor
     15.74     -17.26       1.50        0.00     108.66       2.32       0.09       1.43       ----

> <Gold.Chemscore.Fitness>
15.7428

> <Gold.Chemscore.DG>
-17.2606

> <Gold.Chemscore.ZeroCoef>
-5.4800

> <Gold.Chemscore.Hbond>
1.5017

> <Gold.Chemscore.Metal>
0.0000

> <Gold.Chemscore.Lipo>
108.6613

> <Gold.Chemscore.Internal_Hbond>
0.0000

> <Gold.Chemscore.DEClash>
0.0888

> <Gold.Chemscore.DEInternal>
1.4290

> <Gold.Chemscore.Rot>
2.3236

> <Gold.Chemscore.Internal.Correction>
   9.000000E+99

> <Gold.Chemscore.Hbonds>
donor molecule, donor type, donor heavy atom, donor atom, acceptor molecule, acceptor atom, score
      L1  H    11    34       P1  7957  0.98

> <Gold.Chemscore.Hbond.Weighted>
-5.0156

> <Gold.Chemscore.Metal.Weighted>
-0.0000

> <Gold.Chemscore.Lipo.Weighted>
-12.7134

> <Gold.Chemscore.Internal_Hbond.Weighted>
0.0000

> <Gold.Chemscore.DEClash.Weighted>
0.0888

> <Gold.Chemscore.DEInternal.Weighted>
1.4290

> <Gold.Chemscore.Rot.Weighted>
5.9484

> <Gold.Chemscore.Internal.Correction.Weighted>
   9.000000E+99

> <Gold.Protein.RotatedTorsions>
[ 6907 6896 6895 6894 ] final  113.16 input  -60.11 | X-H torsion
[ 7974 7965 7964 7962 ] final   46.17 input  175.53 | X-H torsion
[ 8008 7997 7996 7995 ] final  174.66 input   59.86 | X-H torsion
[ 10167 10162 10161 10158 ] final   55.13 input  -65.29 | X-H torsion
[ 10718 10713 10712 10709 ] final   -2.59 input   66.30 | X-H torsion
[ 10763 10752 10751 10750 ] final  166.72 input  -60.55 | X-H torsion
[ 11005 11000 10999 10996 ] final   93.79 input  -57.11 | X-H torsion

> <Gold.Protein.ActiveResidues>
 VAL166  LYS551  ARG553  GLY616  TRP617  ASP618  TYR619  PRO620  LYS621  CYS622 
 ASP623  PHE694  ASN695  SER759  ASP760  ASP761  ALA762  ILE779  LEU786  VAL792 
 PHE793  MET794  SER795  GLU796  ALA797  LYS798  CYS799  TRP800  GLU811  SER814 

> <Gold.Protein.RotatedAtoms>
  152.4876  133.8414  159.7154 H   0  0  0  0  0  0  0  0  0  0  0  0  # atno 6907 bound_to 6896
  150.8976  133.7151  159.2894 H   0  0  0  0  0  0  0  0  0  0  0  0  # atno 6908 bound_to 6896
  151.4602  135.1041  159.9775 H   0  0  0  0  0  0  0  0  0  0  0  0  # atno 6909 bound_to 6896
  146.0414  139.4885  142.9776 H   0  0  0  0  0  0  0  0  0  0  0  0  # atno 7974 bound_to 7965
  156.0951  140.1428  156.9542 H   0  0  0  0  0  0  0  0  0  0  0  0  # atno 8008 bound_to 7997
  154.4666  140.0924  156.7083 H   0  0  0  0  0  0  0  0  0  0  0  0  # atno 8009 bound_to 7997
  155.4855  140.3446  155.4348 H   0  0  0  0  0  0  0  0  0  0  0  0  # atno 8010 bound_to 7997
  140.2228  144.3771  150.6444 H   0  0  0  0  0  0  0  0  0  0  0  0  # atno 10167 bound_to 10162
  156.7886  130.5354  149.5739 H   0  0  0  0  0  0  0  0  0  0  0  0  # atno 10718 bound_to 10713
  154.3431  135.2754  155.2412 H   0  0  0  0  0  0  0  0  0  0  0  0  # atno 10763 bound_to 10752
  154.4673  135.5892  153.6301 H   0  0  0  0  0  0  0  0  0  0  0  0  # atno 10764 bound_to 10752
  152.9856  135.6079  154.3634 H   0  0  0  0  0  0  0  0  0  0  0  0  # atno 10765 bound_to 10752
  139.8806  134.8810  156.3770 H   0  0  0  0  0  0  0  0  0  0  0  0  # atno 11005 bound_to 11000
  145.6878  141.0173  143.1571 LP  0  0  0  0  0  0  0  0  0  0  0  0  # atno 17320 bound_to 7965
  144.7076  139.8497  143.7425 LP  0  0  0  0  0  0  0  0  0  0  0  0  # atno 17321 bound_to 7965
  140.6243  143.2179  151.6630 LP  0  0  0  0  0  0  0  0  0  0  0  0  # atno 17342 bound_to 10162
  139.5138  144.3431  152.0722 LP  0  0  0  0  0  0  0  0  0  0  0  0  # atno 17343 bound_to 10162
  156.1173  130.6084  151.0140 LP  0  0  0  0  0  0  0  0  0  0  0  0  # atno 17370 bound_to 10713
  157.6611  131.0880  150.7835 LP  0  0  0  0  0  0  0  0  0  0  0  0  # atno 17371 bound_to 10713
  140.9425  133.7505  156.0165 LP  0  0  0  0  0  0  0  0  0  0  0  0  # atno 17394 bound_to 11000
  140.8202  134.3298  157.5384 LP  0  0  0  0  0  0  0  0  0  0  0  0  # atno 17395 bound_to 11000

$$$$
