AV-unprocessed.smi:1596|AV-procd|sdf|6419|dock5
  -GOLD-   22720 7 53D 1   1.00000     0.00000
 Structure written by MMmdl.
 48 49  0  0  0  0  0  0  0  0  1 V2000
  151.9029  143.8483  158.0276 C   0  0  0  0  0  0  0  0  0  0  0  0
  150.8976  142.8769  157.3879 C   0  0  0  0  0  0  0  0  0  0  0  0
  151.4185  141.5184  157.2350 N   0  0  0  0  0  0  0  0  0  0  0  0
  151.7858  140.8616  158.4891 C   0  0  0  0  0  0  0  0  0  0  0  0
  152.4223  139.4758  158.2932 C   0  0  0  0  0  0  0  0  0  0  0  0
  150.6223  140.7065  156.4074 C   0  0  0  0  0  0  0  0  0  0  0  0
  149.4002  140.2087  156.9056 C   0  0  0  0  0  0  0  0  0  0  0  0
  148.6047  139.3997  156.0723 C   0  0  0  0  0  0  0  0  0  0  0  0
  149.0548  139.1182  154.7606 C   0  0  0  0  0  0  0  0  0  0  0  0
  148.3558  138.2971  153.8351 N   0  0  0  0  0  0  0  0  0  0  0  0
  147.0310  138.0967  153.7316 C   0  0  0  0  0  0  0  0  0  0  0  0
  146.1718  138.6539  154.4146 O   0  0  0  0  0  0  0  0  0  0  0  0
  146.7489  137.2170  152.7598 N   0  0  0  0  0  0  0  0  0  0  0  0
  145.4083  136.7848  152.3758 C   0  0  2  0  0  0  0  0  0  0  0  0
  144.6374  136.3190  153.6242 C   0  0  0  0  0  0  0  0  0  0  0  0
  143.2319  135.8082  153.2611 C   0  0  0  0  0  0  0  0  0  0  0  0
  143.2717  134.7017  152.1901 C   0  0  2  0  0  0  0  0  0  0  0  0
  143.8183  133.5181  152.7376 O   0  0  0  0  0  0  0  0  0  0  0  0
  144.0835  135.1370  150.9554 C   0  0  0  0  0  0  0  0  0  0  0  0
  145.4836  135.6557  151.3287 C   0  0  0  0  0  0  0  0  0  0  0  0
  150.2982  139.6528  154.3646 C   0  0  0  0  0  0  0  0  0  0  0  0
  151.0645  140.4313  155.1573 N   0  0  0  0  0  0  0  0  0  0  0  0
  151.4459  144.8259  158.1813 H   0  0  0  0  0  0  0  0  0  0  0  0
  152.7825  143.9953  157.4004 H   0  0  0  0  0  0  0  0  0  0  0  0
  152.2383  143.4833  158.9987 H   0  0  0  0  0  0  0  0  0  0  0  0
  150.0060  142.8373  158.0143 H   0  0  0  0  0  0  0  0  0  0  0  0
  150.5734  143.2602  156.4195 H   0  0  0  0  0  0  0  0  0  0  0  0
  152.4949  141.4978  159.0199 H   0  0  0  0  0  0  0  0  0  0  0  0
  150.9081  140.7793  159.1314 H   0  0  0  0  0  0  0  0  0  0  0  0
  152.7358  139.0605  159.2511 H   0  0  0  0  0  0  0  0  0  0  0  0
  153.3036  139.5356  157.6538 H   0  0  0  0  0  0  0  0  0  0  0  0
  151.7264  138.7667  157.8439 H   0  0  0  0  0  0  0  0  0  0  0  0
  149.0790  140.4394  157.9109 H   0  0  0  0  0  0  0  0  0  0  0  0
  147.6797  139.0021  156.4595 H   0  0  0  0  0  0  0  0  0  0  0  0
  148.9299  137.8425  153.1401 H   0  0  0  0  0  0  0  0  0  0  0  0
  147.5185  136.8156  152.2445 H   0  0  0  0  0  0  0  0  0  0  0  0
  144.8696  137.6309  151.9443 H   0  0  0  0  0  0  0  0  0  0  0  0
  145.1927  135.5276  154.1295 H   0  0  0  0  0  0  0  0  0  0  0  0
  144.5537  137.1391  154.3383 H   0  0  0  0  0  0  0  0  0  0  0  0
  142.7198  135.4513  154.1553 H   0  0  0  0  0  0  0  0  0  0  0  0
  142.6396  136.6437  152.8858 H   0  0  0  0  0  0  0  0  0  0  0  0
  142.2522  134.4674  151.8820 H   0  0  0  0  0  0  0  0  0  0  0  0
  143.2318  133.1971  153.4057 H   0  0  0  0  0  0  0  0  0  0  0  0
  144.1657  134.3129  150.2460 H   0  0  0  0  0  0  0  0  0  0  0  0
  143.5423  135.9295  150.4370 H   0  0  0  0  0  0  0  0  0  0  0  0
  145.9902  136.0098  150.4302 H   0  0  0  0  0  0  0  0  0  0  0  0
  146.0854  134.8323  151.7157 H   0  0  0  0  0  0  0  0  0  0  0  0
  150.6910  139.4551  153.3778 H   0  0  0  0  0  0  0  0  0  0  0  0
  1  2  1  0  0  0  0
  1 23  1  0  0  0  0
  1 24  1  0  0  0  0
  1 25  1  0  0  0  0
  2  3  1  0  0  0  0
  2 26  1  0  0  0  0
  2 27  1  0  0  0  0
  3  4  1  0  0  0  0
  3  6  1  0  0  0  0
  4  5  1  0  0  0  0
  4 28  1  0  0  0  0
  4 29  1  0  0  0  0
  5 30  1  0  0  0  0
  5 31  1  0  0  0  0
  5 32  1  0  0  0  0
  6 22  1  0  0  0  0
  6  7  2  0  0  0  0
  7  8  1  0  0  0  0
  7 33  1  0  0  0  0
  8  9  2  0  0  0  0
  8 34  1  0  0  0  0
  9 10  1  0  0  0  0
  9 21  1  0  0  0  0
 10 11  1  0  0  0  0
 10 35  1  0  0  0  0
 11 12  2  0  0  0  0
 11 13  1  0  0  0  0
 13 14  1  0  0  0  0
 13 36  1  0  0  0  0
 14 20  1  0  0  0  0
 14 15  1  0  0  0  0
 14 37  1  0  0  0  0
 15 16  1  0  0  0  0
 15 38  1  0  0  0  0
 15 39  1  0  0  0  0
 16 17  1  0  0  0  0
 16 40  1  0  0  0  0
 16 41  1  0  0  0  0
 17 18  1  0  0  0  0
 17 19  1  0  0  0  0
 17 42  1  0  0  0  0
 18 43  1  0  0  0  0
 19 20  1  0  0  0  0
 19 44  1  0  0  0  0
 19 45  1  0  0  0  0
 20 46  1  0  0  0  0
 20 47  1  0  0  0  0
 21 22  2  0  0  0  0
 21 48  1  0  0  0  0
M  END
> <s_m_source_file>
AV-unprocessed.smi

> <i_m_source_file_index>
1596

> <i_lp_mmshare_version>
43012

> <i_f3d_flags>
0

> <s_epik_input>
W0NIM11bQ0gyXU4oW0NIMl1bQ0gzXSljMVtjSF1bY0hdYyhbY0hdbjEpW05IXUMoPU8pW05IXVtDQEBIXTJbQ0gyXVtDSDJdW0NAQEhdKFtPSF0pW0NIMl1bQ0gyXTI=

> <s_epik_cmdline>
J2VwaWtfcHl0aG9uJywgJy1waCcsICc3LjAnLCAnLXRuJywgJzgnLCAnLW1hJywgJzIwMCcsICctbWV0YWxfYmluZGluZycsICctaW1hZScsICc8aW5maWxlLm1hZT4nLCAnLW9tYWUnLCAnPG91dGZpbGUubWFlPic=

> <r_lp_tautomer_probability>
1

> <r_epik_Ionization_Penalty>
0.709395

> <r_epik_Ionization_Penalty_Charging>
0

> <r_epik_Ionization_Penalty_Neutral>
0.709395

> <r_epik_State_Penalty>
2.20721

> <r_epik_Charging_Adjusted_Penalty>
2.20721

> <i_epik_Tot_Q>
0

> <i_epik_Tot_abs_Q>
0

> <r_epik_Metal_State_Penalty>
1.55411

> <b_epik_Metal_Only>
0

> <s_lp_Force_Field>
OPLS_2005

> <r_lp_Energy>
19.3677

> <b_lp_Chiralities_Consistent>
1

> <s_lp_Variant>
AV-unprocessed.smi:1596-4

> <Gold.Version>
5.8.1

> <Gold.Id.Protein>
6NUR|6NUR_protein|mol2

> <Gold.PLP.Fitness>
43.3286

> <Gold.PLP.PLP>
-32.5444

> <Gold.PLP.part.hbond>
-4.0000

> <Gold.PLP.part.metal>
0.0000

> <Gold.PLP.part.buried>
-3.9018

> <Gold.PLP.part.nonpolar>
-25.5878

> <Gold.PLP.part.repulsive>
0.2140

> <Gold.PLP.ligand.clash>
0.0000

> <Gold.PLP.ligand.torsion>
0.4728

> <Gold.PLP.Chemscore.Hbond>
2.8636

> <Gold.PLP.Chemscore.CHOScore>
0.9586

> <Gold.PLP.Chemscore.Metal>
0.0000

> <Gold.Chemscore.Hbonds>
donor molecule, donor type, donor heavy atom, donor atom, acceptor molecule, acceptor atom, score
      L1  H    10    35       P1  7948  0.86
      L1  H    13    36       P1  7948  1.00
      L1  H    18    43       P1 10957  0.93
      L1  C    21    48       P1  7957  0.96

> <Gold.PLP.Chemscore.Internal.Correction>
0.2634

> <Gold.Rescore>
     Score         DG    S(hbond)    S(metal)    S(lipo)     H(rot)  DE(clash)    DE(int)     intcor
     15.80     -18.51       2.77        0.00      76.26       2.01       0.22       2.49       ----

> <Gold.Chemscore.Fitness>
15.7968

> <Gold.Chemscore.DG>
-18.5065

> <Gold.Chemscore.ZeroCoef>
-5.4800

> <Gold.Chemscore.Hbond>
2.7657

> <Gold.Chemscore.Metal>
0.0000

> <Gold.Chemscore.Lipo>
76.2604

> <Gold.Chemscore.Internal_Hbond>
0.0000

> <Gold.Chemscore.DEClash>
0.2228

> <Gold.Chemscore.DEInternal>
2.4869

> <Gold.Chemscore.Rot>
2.0052

> <Gold.Chemscore.Internal.Correction>
   9.000000E+99

> <Gold.Chemscore.Hbonds>
donor molecule, donor type, donor heavy atom, donor atom, acceptor molecule, acceptor atom, score
      L1  H    10    35       P1  7948  0.78
      L1  H    13    36       P1  7948  0.98
      L1  H    18    43       P1 10957  0.78

> <Gold.Chemscore.Hbond.Weighted>
-9.2374

> <Gold.Chemscore.Metal.Weighted>
-0.0000

> <Gold.Chemscore.Lipo.Weighted>
-8.9225

> <Gold.Chemscore.Internal_Hbond.Weighted>
0.0000

> <Gold.Chemscore.DEClash.Weighted>
0.2228

> <Gold.Chemscore.DEInternal.Weighted>
2.4869

> <Gold.Chemscore.Rot.Weighted>
5.1334

> <Gold.Chemscore.Internal.Correction.Weighted>
   9.000000E+99

> <Gold.Protein.RotatedTorsions>
[ 6907 6896 6895 6894 ] final -118.53 input  -60.11 | X-H torsion
[ 7974 7965 7964 7962 ] final  -97.11 input  175.53 | X-H torsion
[ 8008 7997 7996 7995 ] final  -44.42 input   59.86 | X-H torsion
[ 10167 10162 10161 10158 ] final  166.05 input  -65.29 | X-H torsion
[ 10718 10713 10712 10709 ] final -132.71 input   66.30 | X-H torsion
[ 10763 10752 10751 10750 ] final  116.48 input  -60.55 | X-H torsion
[ 11005 11000 10999 10996 ] final  -52.22 input  -57.11 | X-H torsion

> <Gold.Protein.ActiveResidues>
 VAL166  LYS551  ARG553  GLY616  TRP617  ASP618  TYR619  PRO620  LYS621  CYS622 
 ASP623  PHE694  ASN695  SER759  ASP760  ASP761  ALA762  ILE779  LEU786  VAL792 
 PHE793  MET794  SER795  GLU796  ALA797  LYS798  CYS799  TRP800  GLU811  SER814 

> <Gold.Protein.RotatedAtoms>
  150.8227  133.8224  159.3131 H   0  0  0  0  0  0  0  0  0  0  0  0  # atno 6907 bound_to 6896
  151.5978  135.1047  160.0063 H   0  0  0  0  0  0  0  0  0  0  0  0  # atno 6908 bound_to 6896
  152.4315  133.7245  159.6609 H   0  0  0  0  0  0  0  0  0  0  0  0  # atno 6909 bound_to 6896
  145.3381  140.9454  143.2624 H   0  0  0  0  0  0  0  0  0  0  0  0  # atno 7974 bound_to 7965
  154.3997  140.1422  156.3680 H   0  0  0  0  0  0  0  0  0  0  0  0  # atno 8008 bound_to 7997
  155.8119  140.3472  155.5442 H   0  0  0  0  0  0  0  0  0  0  0  0  # atno 8009 bound_to 7997
  155.8377  140.0922  157.1744 H   0  0  0  0  0  0  0  0  0  0  0  0  # atno 8010 bound_to 7997
  139.4917  144.4068  151.9346 H   0  0  0  0  0  0  0  0  0  0  0  0  # atno 10167 bound_to 10162
  156.2374  130.7075  151.0921 H   0  0  0  0  0  0  0  0  0  0  0  0  # atno 10718 bound_to 10713
  153.5379  135.3565  155.2705 H   0  0  0  0  0  0  0  0  0  0  0  0  # atno 10763 bound_to 10752
  154.8720  135.4084  154.3077 H   0  0  0  0  0  0  0  0  0  0  0  0  # atno 10764 bound_to 10752
  153.3779  135.7067  153.6656 H   0  0  0  0  0  0  0  0  0  0  0  0  # atno 10765 bound_to 10752
  141.0912  133.6632  156.3991 H   0  0  0  0  0  0  0  0  0  0  0  0  # atno 11005 bound_to 11000
  144.8812  139.4902  143.6722 LP  0  0  0  0  0  0  0  0  0  0  0  0  # atno 17320 bound_to 7965
  146.3019  139.7453  142.9085 LP  0  0  0  0  0  0  0  0  0  0  0  0  # atno 17321 bound_to 7965
  140.3508  144.3091  150.5949 LP  0  0  0  0  0  0  0  0  0  0  0  0  # atno 17342 bound_to 10162
  140.5487  143.2210  151.7964 LP  0  0  0  0  0  0  0  0  0  0  0  0  # atno 17343 bound_to 10162
  157.7160  131.0709  150.6324 LP  0  0  0  0  0  0  0  0  0  0  0  0  # atno 17370 bound_to 10713
  156.6395  130.4454  149.5757 LP  0  0  0  0  0  0  0  0  0  0  0  0  # atno 17371 bound_to 10713
  140.5246  134.6271  157.5330 LP  0  0  0  0  0  0  0  0  0  0  0  0  # atno 17394 bound_to 11000
  139.9739  134.7247  155.9988 LP  0  0  0  0  0  0  0  0  0  0  0  0  # atno 17395 bound_to 11000

$$$$
