AV-unprocessed.smi:3188|AV-procd|sdf|12184|dock5
  -GOLD-   2272018 23D 1   1.00000     0.00000
 Structure written by MMmdl.
 40 41  0  0  0  0  0  0  0  0  2 V2000
  152.3229  144.7048  158.2672 C   0  0  0  0  0  0  0  0  0  0  0  0
  152.4746  143.8659  159.5256 C   0  0  0  0  0  0  0  0  0  0  0  0
  152.0524  144.3537  160.7078 C   0  0  0  0  0  0  0  0  0  0  0  0
  152.2163  143.6431  162.0315 C   0  0  0  0  0  0  0  0  0  0  0  0
  153.3194  142.5853  161.9549 C   0  0  0  0  0  0  0  0  0  0  0  0
  153.1421  141.6757  160.7280 C   0  0  2  0  0  0  0  0  0  0  0  0
  154.2179  140.5723  160.7515 C   0  0  0  0  0  0  0  0  0  0  0  0
  153.1380  142.4796  159.3908 C   0  0  1  0  0  0  0  0  0  0  0  0
  152.5155  141.6247  158.2549 C   0  0  0  0  0  0  0  0  0  0  0  0
  151.0498  141.4830  158.3787 N   0  3  0  0  0  0  0  0  0  0  0  0
  150.4210  140.7339  157.2742 C   0  0  0  0  0  0  0  0  0  0  0  0
  151.1565  140.9854  155.9498 C   0  0  0  0  0  0  0  0  0  0  0  0
  151.5573  139.7459  155.3129 N   0  0  0  0  0  0  0  0  0  0  0  0
  150.7633  138.7894  154.7142 C   0  0  0  0  0  0  0  0  0  0  0  0
  151.6618  137.8527  154.2892 C   0  0  0  0  0  0  0  0  0  0  0  0
  152.9441  138.2723  154.6396 N   0  0  0  0  0  0  0  0  0  0  0  0
  152.8687  139.4124  155.2504 N   0  0  0  0  0  0  0  0  0  0  0  0
  153.2731  144.7751  157.7373 H   0  0  0  0  0  0  0  0  0  0  0  0
  152.0028  145.7200  158.5048 H   0  0  0  0  0  0  0  0  0  0  0  0
  151.5738  144.2775  157.6009 H   0  0  0  0  0  0  0  0  0  0  0  0
  151.5723  145.3207  160.7520 H   0  0  0  0  0  0  0  0  0  0  0  0
  152.4598  144.3746  162.8027 H   0  0  0  0  0  0  0  0  0  0  0  0
  151.2626  143.1921  162.3067 H   0  0  0  0  0  0  0  0  0  0  0  0
  154.2922  143.0772  161.9073 H   0  0  0  0  0  0  0  0  0  0  0  0
  153.3177  141.9955  162.8725 H   0  0  0  0  0  0  0  0  0  0  0  0
  152.1695  141.1917  160.8337 H   0  0  0  0  0  0  0  0  0  0  0  0
  155.2172  140.9927  160.6346 H   0  0  0  0  0  0  0  0  0  0  0  0
  154.0762  139.8328  159.9650 H   0  0  0  0  0  0  0  0  0  0  0  0
  154.1997  140.0312  161.6981 H   0  0  0  0  0  0  0  0  0  0  0  0
  154.1796  142.6808  159.1346 H   0  0  0  0  0  0  0  0  0  0  0  0
  152.7083  142.0664  157.2785 H   0  0  0  0  0  0  0  0  0  0  0  0
  152.9807  140.6378  158.2406 H   0  0  0  0  0  0  0  0  0  0  0  0
  150.8499  141.0029  159.2445 H   0  0  0  0  0  0  0  0  0  0  0  0
  150.4278  139.6698  157.5149 H   0  0  0  0  0  0  0  0  0  0  0  0
  149.3775  141.0386  157.1839 H   0  0  0  0  0  0  0  0  0  0  0  0
  150.5167  141.5371  155.2598 H   0  0  0  0  0  0  0  0  0  0  0  0
  152.0463  141.5949  156.1138 H   0  0  0  0  0  0  0  0  0  0  0  0
  149.6872  138.8538  154.6456 H   0  0  0  0  0  0  0  0  0  0  0  0
  151.4950  136.9223  153.7661 H   0  0  0  0  0  0  0  0  0  0  0  0
  150.6404  142.4055  158.4191 H   0  0  0  0  0  0  0  0  0  0  0  0
  1  2  1  0  0  0  0
  1 18  1  0  0  0  0
  1 19  1  0  0  0  0
  1 20  1  0  0  0  0
  2  8  1  0  0  0  0
  2  3  2  0  0  0  0
  3  4  1  0  0  0  0
  3 21  1  0  0  0  0
  4  5  1  0  0  0  0
  4 22  1  0  0  0  0
  4 23  1  0  0  0  0
  5  6  1  0  0  0  0
  5 24  1  0  0  0  0
  5 25  1  0  0  0  0
  6  7  1  0  0  0  0
  6  8  1  0  0  0  0
  6 26  1  0  0  0  0
  7 27  1  0  0  0  0
  7 28  1  0  0  0  0
  7 29  1  0  0  0  0
  8  9  1  0  0  0  0
  8 30  1  0  0  0  0
  9 10  1  0  0  0  0
  9 31  1  0  0  0  0
  9 32  1  0  0  0  0
 10 11  1  0  0  0  0
 10 33  1  0  0  0  0
 10 40  1  0  0  0  0
 11 12  1  0  0  0  0
 11 34  1  0  0  0  0
 11 35  1  0  0  0  0
 12 13  1  0  0  0  0
 12 36  1  0  0  0  0
 12 37  1  0  0  0  0
 13 17  1  0  0  0  0
 13 14  1  0  0  0  0
 14 15  2  0  0  0  0
 14 38  1  0  0  0  0
 15 16  1  0  0  0  0
 15 39  1  0  0  0  0
 16 17  2  0  0  0  0
M  CHG  1  10   1
M  END
> <s_m_source_file>
AV-unprocessed.smi

> <i_m_source_file_index>
3188

> <i_lp_mmshare_version>
43012

> <i_f3d_flags>
0

> <s_epik_input>
W0NIM11DMT1bQ0hdW0NIMl1bQ0gyXVtDQEBIXShbQ0gzXSlbQ0BIXTFbQ0gyXVtOSF1bQ0gyXVtDSDJdbjJbY0hdW2NIXW5uMg==

> <s_epik_cmdline>
J2VwaWtfcHl0aG9uJywgJy1waCcsICc3LjAnLCAnLXRuJywgJzgnLCAnLW1hJywgJzIwMCcsICctbWV0YWxfYmluZGluZycsICctaW1hZScsICc8aW5maWxlLm1hZT4nLCAnLW9tYWUnLCAnPG91dGZpbGUubWFlPic=

> <r_lp_tautomer_probability>
1

> <r_epik_Ionization_Penalty>
0.007268

> <r_epik_Ionization_Penalty_Charging>
0.00726786

> <r_epik_Ionization_Penalty_Neutral>
1.34882e-07

> <r_epik_State_Penalty>
0.00542069

> <r_epik_Charging_Adjusted_Penalty>
0.0126886

> <i_epik_Tot_Q>
1

> <i_epik_Tot_abs_Q>
1

> <r_epik_Metal_State_Penalty>
-0

> <b_epik_Metal_Only>
0

> <s_lp_Force_Field>
OPLS_2005

> <r_lp_Energy>
15.008

> <b_lp_Chiralities_Consistent>
1

> <s_lp_Variant>
AV-unprocessed.smi:3188-2

> <Gold.Version>
5.8.1

> <Gold.Id.Protein>
6NUR|6NUR_protein|mol2

> <Gold.PLP.Fitness>
53.0129

> <Gold.PLP.PLP>
-48.2942

> <Gold.PLP.part.hbond>
-1.6814

> <Gold.PLP.part.metal>
0.0000

> <Gold.PLP.part.buried>
-4.4784

> <Gold.PLP.part.nonpolar>
-40.8403

> <Gold.PLP.part.repulsive>
0.1472

> <Gold.PLP.ligand.clash>
0.0000

> <Gold.PLP.ligand.torsion>
0.6614

> <Gold.PLP.Chemscore.Hbond>
1.0000

> <Gold.PLP.Chemscore.CHOScore>
0.9936

> <Gold.PLP.Chemscore.Metal>
0.0000

> <Gold.Chemscore.Hbonds>
donor molecule, donor type, donor heavy atom, donor atom, acceptor molecule, acceptor atom, score
      P1  H  7997  8009       L1    17  1.00
      L1  C    15    39       P1  7949  1.00

> <Gold.PLP.Chemscore.Internal.Correction>
0.0605

> <Gold.Rescore>
     Score         DG    S(hbond)    S(metal)    S(lipo)     H(rot)  DE(clash)    DE(int)     intcor
     18.57     -19.31       0.99        0.00     128.92       1.78       0.04       0.70       ----

> <Gold.Chemscore.Fitness>
18.5739

> <Gold.Chemscore.DG>
-19.3109

> <Gold.Chemscore.ZeroCoef>
-5.4800

> <Gold.Chemscore.Hbond>
0.9900

> <Gold.Chemscore.Metal>
0.0000

> <Gold.Chemscore.Lipo>
128.9160

> <Gold.Chemscore.Internal_Hbond>
0.0000

> <Gold.Chemscore.DEClash>
0.0358

> <Gold.Chemscore.DEInternal>
0.7012

> <Gold.Chemscore.Rot>
1.7809

> <Gold.Chemscore.Internal.Correction>
   9.000000E+99

> <Gold.Chemscore.Hbonds>
donor molecule, donor type, donor heavy atom, donor atom, acceptor molecule, acceptor atom, score
      P1  H  7997  8009       L1    17  0.98

> <Gold.Chemscore.Hbond.Weighted>
-3.3067

> <Gold.Chemscore.Metal.Weighted>
-0.0000

> <Gold.Chemscore.Lipo.Weighted>
-15.0832

> <Gold.Chemscore.Internal_Hbond.Weighted>
0.0000

> <Gold.Chemscore.DEClash.Weighted>
0.0358

> <Gold.Chemscore.DEInternal.Weighted>
0.7012

> <Gold.Chemscore.Rot.Weighted>
4.5590

> <Gold.Chemscore.Internal.Correction.Weighted>
   9.000000E+99

> <Gold.Protein.RotatedTorsions>
[ 6907 6896 6895 6894 ] final  166.83 input  -60.11 | X-H torsion
[ 7974 7965 7964 7962 ] final -109.25 input  175.53 | X-H torsion
[ 8008 7997 7996 7995 ] final -142.51 input   59.86 | X-H torsion
[ 10167 10162 10161 10158 ] final  -15.99 input  -65.29 | X-H torsion
[ 10718 10713 10712 10709 ] final  140.35 input   66.30 | X-H torsion
[ 10763 10752 10751 10750 ] final -118.69 input  -60.55 | X-H torsion
[ 11005 11000 10999 10996 ] final -106.01 input  -57.11 | X-H torsion

> <Gold.Protein.ActiveResidues>
 VAL166  LYS551  ARG553  GLY616  TRP617  ASP618  TYR619  PRO620  LYS621  CYS622 
 ASP623  PHE694  ASN695  SER759  ASP760  ASP761  ALA762  ILE779  LEU786  VAL792 
 PHE793  MET794  SER795  GLU796  ALA797  LYS798  CYS799  TRP800  GLU811  SER814 

> <Gold.Protein.RotatedAtoms>
  151.8727  133.3479  159.3740 H   0  0  0  0  0  0  0  0  0  0  0  0  # atno 6907 bound_to 6896
  150.7148  134.5096  159.5610 H   0  0  0  0  0  0  0  0  0  0  0  0  # atno 6908 bound_to 6896
  152.2632  134.8012  160.0478 H   0  0  0  0  0  0  0  0  0  0  0  0  # atno 6909 bound_to 6896
  145.1828  140.8979  143.3470 H   0  0  0  0  0  0  0  0  0  0  0  0  # atno 7974 bound_to 7965
  155.4954  140.0571  157.2947 H   0  0  0  0  0  0  0  0  0  0  0  0  # atno 8008 bound_to 7997
  154.4607  140.1995  156.0203 H   0  0  0  0  0  0  0  0  0  0  0  0  # atno 8009 bound_to 7997
  156.0885  140.3237  155.7789 H   0  0  0  0  0  0  0  0  0  0  0  0  # atno 8010 bound_to 7997
  140.7227  143.5161  150.9690 H   0  0  0  0  0  0  0  0  0  0  0  0  # atno 10167 bound_to 10162
  157.4042  131.1020  151.0520 H   0  0  0  0  0  0  0  0  0  0  0  0  # atno 10718 bound_to 10713
  154.8595  135.4265  154.2178 H   0  0  0  0  0  0  0  0  0  0  0  0  # atno 10763 bound_to 10752
  153.3190  135.6981  153.7053 H   0  0  0  0  0  0  0  0  0  0  0  0  # atno 10764 bound_to 10752
  153.6116  135.3518  155.2954 H   0  0  0  0  0  0  0  0  0  0  0  0  # atno 10765 bound_to 10752
  141.1026  133.8856  157.1804 H   0  0  0  0  0  0  0  0  0  0  0  0  # atno 11005 bound_to 11000
  145.0119  139.3502  143.6116 LP  0  0  0  0  0  0  0  0  0  0  0  0  # atno 17320 bound_to 7965
  146.3450  139.9385  142.8744 LP  0  0  0  0  0  0  0  0  0  0  0  0  # atno 17321 bound_to 7965
  139.8877  143.6992  152.3149 LP  0  0  0  0  0  0  0  0  0  0  0  0  # atno 17342 bound_to 10162
  139.7297  144.7585  151.0822 LP  0  0  0  0  0  0  0  0  0  0  0  0  # atno 17343 bound_to 10162
  157.1508  130.6183  149.5582 LP  0  0  0  0  0  0  0  0  0  0  0  0  # atno 17370 bound_to 10713
  155.9832  130.4850  150.6919 LP  0  0  0  0  0  0  0  0  0  0  0  0  # atno 17371 bound_to 10713
  139.9883  135.0074  156.9914 LP  0  0  0  0  0  0  0  0  0  0  0  0  # atno 17394 bound_to 11000
  140.4984  134.1122  155.7246 LP  0  0  0  0  0  0  0  0  0  0  0  0  # atno 17395 bound_to 11000

$$$$
