AV-unprocessed.smi:252|AV-procd|sdf|1942|dock10
  -GOLD-   2262021 73D 1   1.00000     0.00000
 Structure written by MMmdl.
 56 59  0  0  0  0  0  0  0  0  1 V2000
  145.3516  133.9227  151.3954 C   0  0  0  0  0  0  0  0  0  0  0  0
  146.0739  132.6448  151.8498 C   0  0  0  0  0  0  0  0  0  0  0  0
  147.0584  132.8698  153.0021 C   0  0  0  0  0  0  0  0  0  0  0  0
  146.6742  133.2950  154.0921 O   0  0  0  0  0  0  0  0  0  0  0  0
  148.3398  132.5724  152.7395 N   0  0  0  0  0  0  0  0  0  0  0  0
  149.4470  132.6922  153.6821 C   0  0  2  0  0  0  0  0  0  0  0  0
  149.4155  131.5438  154.7103 C   0  0  0  0  0  0  0  0  0  0  0  0
  150.5107  131.7409  155.7689 C   0  0  0  0  0  0  0  0  0  0  0  0
  150.3951  133.1233  156.4302 C   0  0  0  0  0  0  0  0  0  0  0  0
  150.3949  134.1822  155.4199 N   0  0  0  0  0  0  0  0  0  0  0  0
  150.6124  135.4539  155.8398 C   0  0  0  0  0  0  0  0  0  0  0  0
  151.8774  135.8739  156.1110 N   0  0  0  0  0  0  0  0  0  0  0  0
  152.0968  137.1214  156.5365 C   0  0  0  0  0  0  0  0  0  0  0  0
  151.2127  138.0965  156.7544 N   0  0  0  0  0  0  0  0  0  0  0  0
  149.9423  137.6831  156.4812 C   0  0  0  0  0  0  0  0  0  0  0  0
  149.5577  136.3923  156.0201 C   0  0  0  0  0  0  0  0  0  0  0  0
  148.1813  136.3483  155.8312 N   0  0  0  0  0  0  0  0  0  0  0  0
  147.7755  137.5425  156.1659 C   0  0  0  0  0  0  0  0  0  0  0  0
  148.7652  138.4045  156.5820 N   0  0  0  0  0  0  0  0  0  0  0  0
  148.5955  139.7853  157.0070 C   0  0  0  0  0  0  0  0  0  0  0  0
  148.8550  140.8315  155.8877 C   0  0  2  0  0  0  0  0  0  0  0  0
  148.1506  142.0239  156.1780 O   0  0  0  0  0  0  0  0  0  0  0  0
  148.4680  140.3557  154.4926 C   0  0  0  0  0  0  0  0  0  0  0  0
  149.6892  139.5462  154.0665 C   0  0  0  0  0  0  0  0  0  0  0  0
  150.7984  140.1424  154.7331 O   0  0  0  0  0  0  0  0  0  0  0  0
  150.3464  141.1363  155.6494 C   0  0  2  0  0  0  0  0  0  0  0  0
  151.2503  141.1840  156.8901 C   0  0  0  0  0  0  0  0  0  0  0  0
  149.3643  134.0567  154.3902 C   0  0  0  0  0  0  0  0  0  0  0  0
  144.6882  133.7115  150.5566 H   0  0  0  0  0  0  0  0  0  0  0  0
  146.0594  134.6867  151.0714 H   0  0  0  0  0  0  0  0  0  0  0  0
  144.7433  134.3427  152.1974 H   0  0  0  0  0  0  0  0  0  0  0  0
  145.3400  131.9008  152.1609 H   0  0  0  0  0  0  0  0  0  0  0  0
  146.6158  132.2174  151.0052 H   0  0  0  0  0  0  0  0  0  0  0  0
  148.5649  132.2295  151.8169 H   0  0  0  0  0  0  0  0  0  0  0  0
  150.3912  132.6528  153.1348 H   0  0  0  0  0  0  0  0  0  0  0  0
  148.4411  131.5092  155.1993 H   0  0  0  0  0  0  0  0  0  0  0  0
  149.5502  130.5826  154.2134 H   0  0  0  0  0  0  0  0  0  0  0  0
  150.4462  130.9587  156.5254 H   0  0  0  0  0  0  0  0  0  0  0  0
  151.4912  131.6412  155.3014 H   0  0  0  0  0  0  0  0  0  0  0  0
  149.4751  133.1810  157.0138 H   0  0  0  0  0  0  0  0  0  0  0  0
  151.2269  133.2650  157.1217 H   0  0  0  0  0  0  0  0  0  0  0  0
  153.1284  137.3741  156.7328 H   0  0  0  0  0  0  0  0  0  0  0  0
  146.7343  137.8279  156.1243 H   0  0  0  0  0  0  0  0  0  0  0  0
  147.5820  139.8908  157.3954 H   0  0  0  0  0  0  0  0  0  0  0  0
  149.2625  139.9600  157.8518 H   0  0  0  0  0  0  0  0  0  0  0  0
  148.6606  142.7572  155.8696 H   0  0  0  0  0  0  0  0  0  0  0  0
  147.5381  139.7912  154.4411 H   0  0  0  0  0  0  0  0  0  0  0  0
  148.3616  141.2084  153.8194 H   0  0  0  0  0  0  0  0  0  0  0  0
  149.5982  138.5106  154.3959 H   0  0  0  0  0  0  0  0  0  0  0  0
  149.8288  139.5454  152.9854 H   0  0  0  0  0  0  0  0  0  0  0  0
  150.4300  142.0900  155.1244 H   0  0  0  0  0  0  0  0  0  0  0  0
  150.8883  141.9187  157.6098 H   0  0  0  0  0  0  0  0  0  0  0  0
  152.2673  141.4633  156.6142 H   0  0  0  0  0  0  0  0  0  0  0  0
  151.3031  140.2169  157.3902 H   0  0  0  0  0  0  0  0  0  0  0  0
  149.4463  134.8522  153.6498 H   0  0  0  0  0  0  0  0  0  0  0  0
  148.3885  134.1729  154.8644 H   0  0  0  0  0  0  0  0  0  0  0  0
  1  2  1  0  0  0  0
  1 29  1  0  0  0  0
  1 30  1  0  0  0  0
  1 31  1  0  0  0  0
  2  3  1  0  0  0  0
  2 32  1  0  0  0  0
  2 33  1  0  0  0  0
  3  4  2  0  0  0  0
  3  5  1  0  0  0  0
  5  6  1  0  0  0  0
  5 34  1  0  0  0  0
  6 28  1  0  0  0  0
  6  7  1  0  0  0  0
  6 35  1  0  0  0  0
  7  8  1  0  0  0  0
  7 36  1  0  0  0  0
  7 37  1  0  0  0  0
  8  9  1  0  0  0  0
  8 38  1  0  0  0  0
  8 39  1  0  0  0  0
  9 10  1  0  0  0  0
  9 40  1  0  0  0  0
  9 41  1  0  0  0  0
 10 11  1  0  0  0  0
 10 28  1  0  0  0  0
 11 16  1  0  0  0  0
 11 12  2  0  0  0  0
 12 13  1  0  0  0  0
 13 14  2  0  0  0  0
 13 42  1  0  0  0  0
 14 15  1  0  0  0  0
 15 19  1  0  0  0  0
 15 16  2  0  0  0  0
 16 17  1  0  0  0  0
 17 18  2  0  0  0  0
 18 19  1  0  0  0  0
 18 43  1  0  0  0  0
 19 20  1  0  0  0  0
 20 21  1  0  0  0  0
 20 44  1  0  0  0  0
 20 45  1  0  0  0  0
 21 26  1  0  0  0  0
 21 22  1  0  0  0  0
 21 23  1  0  0  0  0
 22 46  1  0  0  0  0
 23 24  1  0  0  0  0
 23 47  1  0  0  0  0
 23 48  1  0  0  0  0
 24 25  1  0  0  0  0
 24 49  1  0  0  0  0
 24 50  1  0  0  0  0
 25 26  1  0  0  0  0
 26 27  1  0  0  0  0
 26 51  1  0  0  0  0
 27 52  1  0  0  0  0
 27 53  1  0  0  0  0
 27 54  1  0  0  0  0
 28 55  1  0  0  0  0
 28 56  1  0  0  0  0
M  END
> <s_m_source_file>
AV-unprocessed.smi

> <i_m_source_file_index>
252

> <i_lp_mmshare_version>
43012

> <i_f3d_flags>
0

> <s_epik_input>
W0NIM11bQ0gyXUMoPU8pW05IXVtDQEBIXTFbQ0gyXVtDSDJdW0NIMl1OKFtDSDJdMSljKG5bY0hdbjIpYyhjMjMpbltjSF1uM1tDSDJdW0NAQF00KFtPSF0pW0NIMl1bQ0gyXU9bQ0BIXTRbQ0gzXQ==

> <s_epik_cmdline>
J2VwaWtfcHl0aG9uJywgJy1waCcsICc3LjAnLCAnLXRuJywgJzgnLCAnLW1hJywgJzIwMCcsICctbWV0YWxfYmluZGluZycsICctaW1hZScsICc8aW5maWxlLm1hZT4nLCAnLW9tYWUnLCAnPG91dGZpbGUubWFlPic=

> <r_lp_tautomer_probability>
1

> <r_epik_Ionization_Penalty>
0.00182575

> <r_epik_Ionization_Penalty_Charging>
0

> <r_epik_Ionization_Penalty_Neutral>
0.00182575

> <r_epik_State_Penalty>
0.00104524

> <r_epik_Charging_Adjusted_Penalty>
0.00104524

> <i_epik_Tot_Q>
0

> <i_epik_Tot_abs_Q>
0

> <r_epik_Metal_State_Penalty>
-0

> <b_epik_Metal_Only>
0

> <s_lp_Force_Field>
OPLS_2005

> <r_lp_Energy>
36.2255

> <b_lp_Chiralities_Consistent>
1

> <s_lp_Variant>
AV-unprocessed.smi:252-7

> <Gold.Version>
5.8.1

> <Gold.Id.Protein>
6NUR|6NUR_protein|mol2

> <Gold.PLP.Fitness>
44.6410

> <Gold.PLP.PLP>
-35.2973

> <Gold.PLP.part.hbond>
-4.0000

> <Gold.PLP.part.metal>
0.0000

> <Gold.PLP.part.buried>
-5.3017

> <Gold.PLP.part.nonpolar>
-25.9973

> <Gold.PLP.part.repulsive>
0.2681

> <Gold.PLP.ligand.clash>
0.0000

> <Gold.PLP.ligand.torsion>
1.4703

> <Gold.PLP.Chemscore.Hbond>
3.9600

> <Gold.PLP.Chemscore.CHOScore>
0.0000

> <Gold.PLP.Chemscore.Metal>
0.0000

> <Gold.Chemscore.Hbonds>
donor molecule, donor type, donor heavy atom, donor atom, acceptor molecule, acceptor atom, score
      L1  H     5    34       P1 10747  0.84
      L1  H    22    46       P1  8028  0.98
      P1  H  7989  7998       L1    25  1.00
      P1  H 10752 10764       L1    12  1.00

> <Gold.PLP.Chemscore.Internal.Correction>
0.4042

> <Gold.Rescore>
     Score         DG    S(hbond)    S(metal)    S(lipo)     H(rot)  DE(clash)    DE(int)     intcor
     12.18     -18.91       3.45        0.00      75.52       2.70       1.54       5.19       ----

> <Gold.Chemscore.Fitness>
12.1785

> <Gold.Chemscore.DG>
-18.9090

> <Gold.Chemscore.ZeroCoef>
-5.4800

> <Gold.Chemscore.Hbond>
3.4478

> <Gold.Chemscore.Metal>
0.0000

> <Gold.Chemscore.Lipo>
75.5207

> <Gold.Chemscore.Internal_Hbond>
0.0000

> <Gold.Chemscore.DEClash>
1.5371

> <Gold.Chemscore.DEInternal>
5.1934

> <Gold.Chemscore.Rot>
2.7041

> <Gold.Chemscore.Internal.Correction>
   9.000000E+99

> <Gold.Chemscore.Hbonds>
donor molecule, donor type, donor heavy atom, donor atom, acceptor molecule, acceptor atom, score
      L1  H     5    34       P1 10747  0.83
      L1  H    22    46       P1  8028  0.91
      P1  H  7989  7998       L1    25  0.28
      P1  H 10752 10764       L1    12  0.62

> <Gold.Chemscore.Hbond.Weighted>
-11.5156

> <Gold.Chemscore.Metal.Weighted>
-0.0000

> <Gold.Chemscore.Lipo.Weighted>
-8.8359

> <Gold.Chemscore.Internal_Hbond.Weighted>
0.0000

> <Gold.Chemscore.DEClash.Weighted>
1.5371

> <Gold.Chemscore.DEInternal.Weighted>
5.1934

> <Gold.Chemscore.Rot.Weighted>
6.9225

> <Gold.Chemscore.Internal.Correction.Weighted>
   9.000000E+99

> <Gold.Protein.RotatedTorsions>
[ 6907 6896 6895 6894 ] final   89.80 input  -60.11 | X-H torsion
[ 7974 7965 7964 7962 ] final  169.52 input  175.53 | X-H torsion
[ 8008 7997 7996 7995 ] final  -95.27 input   59.86 | X-H torsion
[ 10167 10162 10161 10158 ] final  -43.19 input  -65.29 | X-H torsion
[ 10718 10713 10712 10709 ] final   97.20 input   66.30 | X-H torsion
[ 10763 10752 10751 10750 ] final  -36.91 input  -60.55 | X-H torsion
[ 11005 11000 10999 10996 ] final    4.68 input  -57.11 | X-H torsion

> <Gold.Protein.ActiveResidues>
 VAL166  LYS551  ARG553  GLY616  TRP617  ASP618  TYR619  PRO620  LYS621  CYS622 
 ASP623  PHE694  ASN695  SER759  ASP760  ASP761  ALA762  ILE779  LEU786  VAL792 
 PHE793  MET794  SER795  GLU796  ALA797  LYS798  CYS799  TRP800  GLU811  SER814 

> <Gold.Protein.RotatedAtoms>
  152.5439  134.1910  159.8673 H   0  0  0  0  0  0  0  0  0  0  0  0  # atno 6907 bound_to 6896
  151.1905  133.4663  159.2602 H   0  0  0  0  0  0  0  0  0  0  0  0  # atno 6908 bound_to 6896
  151.1088  135.0026  159.8539 H   0  0  0  0  0  0  0  0  0  0  0  0  # atno 6909 bound_to 6896
  144.7352  139.9066  143.6412 H   0  0  0  0  0  0  0  0  0  0  0  0  # atno 7974 bound_to 7965
  154.7592  140.0481  157.0959 H   0  0  0  0  0  0  0  0  0  0  0  0  # atno 8008 bound_to 7997
  154.9960  140.3119  155.4867 H   0  0  0  0  0  0  0  0  0  0  0  0  # atno 8009 bound_to 7997
  156.2901  140.2210  156.5067 H   0  0  0  0  0  0  0  0  0  0  0  0  # atno 8010 bound_to 7997
  140.6943  143.2996  151.3316 H   0  0  0  0  0  0  0  0  0  0  0  0  # atno 10167 bound_to 10162
  157.6916  131.0602  150.4607 H   0  0  0  0  0  0  0  0  0  0  0  0  # atno 10718 bound_to 10713
  153.8875  135.6815  153.4763 H   0  0  0  0  0  0  0  0  0  0  0  0  # atno 10763 bound_to 10752
  153.1199  135.4744  154.9176 H   0  0  0  0  0  0  0  0  0  0  0  0  # atno 10764 bound_to 10752
  154.7639  135.3218  154.8278 H   0  0  0  0  0  0  0  0  0  0  0  0  # atno 10765 bound_to 10752
  140.5792  134.0029  155.8040 H   0  0  0  0  0  0  0  0  0  0  0  0  # atno 11005 bound_to 11000
  146.1032  139.4029  143.0334 LP  0  0  0  0  0  0  0  0  0  0  0  0  # atno 17320 bound_to 7965
  145.7549  140.9958  143.1230 LP  0  0  0  0  0  0  0  0  0  0  0  0  # atno 17321 bound_to 7965
  139.6379  144.0595  152.2531 LP  0  0  0  0  0  0  0  0  0  0  0  0  # atno 17342 bound_to 10162
  140.0090  144.6237  150.7663 LP  0  0  0  0  0  0  0  0  0  0  0  0  # atno 17343 bound_to 10162
  156.4952  130.4104  149.6384 LP  0  0  0  0  0  0  0  0  0  0  0  0  # atno 17370 bound_to 10713
  156.3380  130.7367  151.2307 LP  0  0  0  0  0  0  0  0  0  0  0  0  # atno 17371 bound_to 10713
  141.1007  133.9773  157.3084 LP  0  0  0  0  0  0  0  0  0  0  0  0  # atno 17394 bound_to 11000
  139.9325  135.0199  156.8447 LP  0  0  0  0  0  0  0  0  0  0  0  0  # atno 17395 bound_to 11000

$$$$
