AV-unprocessed.smi:613|AV-procd|sdf|3066|dock5
  -GOLD-   2262023593D 1   1.00000     0.00000
 Structure written by MMmdl.
 39 40  0  0  0  0  0  0  0  0  2 V2000
  151.5138  140.0288  157.4898 C   0  0  0  0  0  0  0  0  0  0  0  0
  151.4046  141.4049  157.0201 N   0  0  0  0  0  0  0  0  0  0  0  0
  150.6329  141.6710  155.8053 C   0  0  0  0  0  0  0  0  0  0  0  0
  149.2491  140.9960  155.8209 C   0  0  2  0  0  0  0  0  0  0  0  0
  148.6320  140.9272  154.4095 C   0  0  0  0  0  0  0  0  0  0  0  0
  147.2816  140.3572  154.4295 N   0  0  0  0  0  0  0  0  0  0  0  0
  146.6565  140.2506  153.1045 C   0  0  0  0  0  0  0  0  0  0  0  0
  147.1191  139.0444  152.2767 C   0  0  0  0  0  0  0  0  0  0  0  0
  147.8851  138.1402  152.8921 N   0  0  0  0  0  0  0  0  0  0  0  0
  146.7852  138.9285  151.0991 O   0  0  0  0  0  0  0  0  0  0  0  0
  146.4445  141.1109  155.3581 C   0  0  0  0  0  0  0  0  0  0  0  0
  147.0736  141.1926  156.7583 C   0  0  0  0  0  0  0  0  0  0  0  0
  148.3782  141.7523  156.6584 O   0  0  0  0  0  0  0  0  0  0  0  0
  151.7244  142.4563  157.9111 C   0  0  0  0  0  0  0  0  0  0  0  0
  152.7332  142.3462  158.8996 C   0  0  0  0  0  0  0  0  0  0  0  0
  152.9796  143.4427  159.7428 C   0  0  0  0  0  0  0  0  0  0  0  0
  152.2032  144.5977  159.5515 C   0  0  0  0  0  0  0  0  0  0  0  0
  151.2464  144.6951  158.6038 N   0  0  0  0  0  0  0  0  0  0  0  0
  151.0376  143.6279  157.8141 N   0  3  0  0  0  0  0  0  0  0  0  0
  152.5507  139.7818  157.7194 H   0  0  0  0  0  0  0  0  0  0  0  0
  151.1671  139.3277  156.7299 H   0  0  0  0  0  0  0  0  0  0  0  0
  150.9089  139.8758  158.3841 H   0  0  0  0  0  0  0  0  0  0  0  0
  150.5398  142.7399  155.6122 H   0  0  0  0  0  0  0  0  0  0  0  0
  151.2082  141.2784  154.9659 H   0  0  0  0  0  0  0  0  0  0  0  0
  149.3416  139.9825  156.2166 H   0  0  0  0  0  0  0  0  0  0  0  0
  148.6044  141.9267  153.9719 H   0  0  0  0  0  0  0  0  0  0  0  0
  149.2921  140.3313  153.7789 H   0  0  0  0  0  0  0  0  0  0  0  0
  145.5750  140.1620  153.2169 H   0  0  0  0  0  0  0  0  0  0  0  0
  146.8297  141.1685  152.5392 H   0  0  0  0  0  0  0  0  0  0  0  0
  148.2101  137.3268  152.3901 H   0  0  0  0  0  0  0  0  0  0  0  0
  148.1328  138.2720  153.8622 H   0  0  0  0  0  0  0  0  0  0  0  0
  146.2818  142.1210  154.9777 H   0  0  0  0  0  0  0  0  0  0  0  0
  145.4607  140.6464  155.4359 H   0  0  0  0  0  0  0  0  0  0  0  0
  146.4662  141.8190  157.4120 H   0  0  0  0  0  0  0  0  0  0  0  0
  147.1271  140.2049  157.2188 H   0  0  0  0  0  0  0  0  0  0  0  0
  153.3169  141.4467  159.0253 H   0  0  0  0  0  0  0  0  0  0  0  0
  153.7379  143.4000  160.5107 H   0  0  0  0  0  0  0  0  0  0  0  0
  152.3525  145.4680  160.1738 H   0  0  0  0  0  0  0  0  0  0  0  0
  150.3114  143.6949  157.1006 H   0  0  0  0  0  0  0  0  0  0  0  0
  1  2  1  0  0  0  0
  1 20  1  0  0  0  0
  1 21  1  0  0  0  0
  1 22  1  0  0  0  0
  2  3  1  0  0  0  0
  2 14  1  0  0  0  0
  3  4  1  0  0  0  0
  3 23  1  0  0  0  0
  3 24  1  0  0  0  0
  4 13  1  0  0  0  0
  4  5  1  0  0  0  0
  4 25  1  0  0  0  0
  5  6  1  0  0  0  0
  5 26  1  0  0  0  0
  5 27  1  0  0  0  0
  6  7  1  0  0  0  0
  6 11  1  0  0  0  0
  7  8  1  0  0  0  0
  7 28  1  0  0  0  0
  7 29  1  0  0  0  0
  8  9  1  0  0  0  0
  8 10  2  0  0  0  0
  9 30  1  0  0  0  0
  9 31  1  0  0  0  0
 11 12  1  0  0  0  0
 11 32  1  0  0  0  0
 11 33  1  0  0  0  0
 12 13  1  0  0  0  0
 12 34  1  0  0  0  0
 12 35  1  0  0  0  0
 14 19  1  0  0  0  0
 14 15  2  0  0  0  0
 15 16  1  0  0  0  0
 15 36  1  0  0  0  0
 16 17  2  0  0  0  0
 16 37  1  0  0  0  0
 17 18  1  0  0  0  0
 17 38  1  0  0  0  0
 18 19  2  0  0  0  0
 19 39  1  0  0  0  0
M  CHG  1  19   1
M  END
> <s_m_source_file>
AV-unprocessed.smi

> <i_m_source_file_index>
613

> <i_lp_mmshare_version>
43012

> <i_f3d_flags>
0

> <s_epik_input>
bjFuW2NIXVtjSF1bY0hdYzFOKFtDSDNdKVtDSDJdW0NAQEhdMltDSDJdTihbQ0gyXVtDSDJdTzIpW0NIMl1DKD1PKVtOSDJd

> <s_epik_cmdline>
J2VwaWtfcHl0aG9uJywgJy1waCcsICc3LjAnLCAnLXRuJywgJzgnLCAnLW1hJywgJzIwMCcsICctbWV0YWxfYmluZGluZycsICctaW1hZScsICc8aW5maWxlLm1hZT4nLCAnLW9tYWUnLCAnPG91dGZpbGUubWFlPic=

> <r_lp_tautomer_probability>
0.966961

> <r_epik_Ionization_Penalty>
1.86301

> <r_epik_Ionization_Penalty_Charging>
1.86058

> <r_epik_Ionization_Penalty_Neutral>
0.00243207

> <r_epik_State_Penalty>
1.48112

> <r_epik_Charging_Adjusted_Penalty>
3.3417

> <i_epik_Tot_Q>
1

> <i_epik_Tot_abs_Q>
1

> <r_epik_Metal_State_Penalty>
1.50193

> <b_epik_Metal_Only>
0

> <s_lp_Force_Field>
OPLS_2005

> <r_lp_Energy>
27.1625

> <b_lp_Chiralities_Consistent>
1

> <s_lp_Variant>
AV-unprocessed.smi:613-3

> <Gold.Version>
5.8.1

> <Gold.Id.Protein>
6NUR|6NUR_protein|mol2

> <Gold.PLP.Fitness>
44.8036

> <Gold.PLP.PLP>
-34.1845

> <Gold.PLP.part.hbond>
-2.9273

> <Gold.PLP.part.metal>
0.0000

> <Gold.PLP.part.buried>
-3.6213

> <Gold.PLP.part.nonpolar>
-30.1875

> <Gold.PLP.part.repulsive>
2.6148

> <Gold.PLP.ligand.clash>
0.0000

> <Gold.PLP.ligand.torsion>
0.7964

> <Gold.PLP.Chemscore.Hbond>
3.9920

> <Gold.PLP.Chemscore.CHOScore>
0.0000

> <Gold.PLP.Chemscore.Metal>
0.0000

> <Gold.Chemscore.Hbonds>
donor molecule, donor type, donor heavy atom, donor atom, acceptor molecule, acceptor atom, score
      L1  H     9    30       P1  7948  0.70
      L1  H    19    39       P1  8028  0.88
      P1  H  7954  7966       L1    10  0.71

> <Gold.PLP.Chemscore.Internal.Correction>
0.2360

> <Gold.Rescore>
     Score         DG    S(hbond)    S(metal)    S(lipo)     H(rot)  DE(clash)    DE(int)     intcor
     14.68     -17.80       2.83        0.00      73.49       2.23       2.06       1.06       ----

> <Gold.Chemscore.Fitness>
14.6842

> <Gold.Chemscore.DG>
-17.8028

> <Gold.Chemscore.ZeroCoef>
-5.4800

> <Gold.Chemscore.Hbond>
2.8279

> <Gold.Chemscore.Metal>
0.0000

> <Gold.Chemscore.Lipo>
73.4927

> <Gold.Chemscore.Internal_Hbond>
0.0000

> <Gold.Chemscore.DEClash>
2.0591

> <Gold.Chemscore.DEInternal>
1.0595

> <Gold.Chemscore.Rot>
2.2348

> <Gold.Chemscore.Internal.Correction>
   9.000000E+99

> <Gold.Chemscore.Hbonds>
donor molecule, donor type, donor heavy atom, donor atom, acceptor molecule, acceptor atom, score
      L1  H     9    30       P1  7948  0.69
      L1  H    19    39       P1  8028  0.42
      P1  H  7954  7966       L1    10  0.62

> <Gold.Chemscore.Hbond.Weighted>
-9.4453

> <Gold.Chemscore.Metal.Weighted>
-0.0000

> <Gold.Chemscore.Lipo.Weighted>
-8.5986

> <Gold.Chemscore.Internal_Hbond.Weighted>
0.0000

> <Gold.Chemscore.DEClash.Weighted>
2.0591

> <Gold.Chemscore.DEInternal.Weighted>
1.0595

> <Gold.Chemscore.Rot.Weighted>
5.7211

> <Gold.Chemscore.Internal.Correction.Weighted>
   9.000000E+99

> <Gold.Protein.RotatedTorsions>
[ 6907 6896 6895 6894 ] final  179.72 input  -60.11 | X-H torsion
[ 7974 7965 7964 7962 ] final   -9.98 input  175.53 | X-H torsion
[ 8008 7997 7996 7995 ] final  -57.83 input   59.86 | X-H torsion
[ 10167 10162 10161 10158 ] final  -96.55 input  -65.29 | X-H torsion
[ 10718 10713 10712 10709 ] final  -41.63 input   66.30 | X-H torsion
[ 10763 10752 10751 10750 ] final  -58.02 input  -60.55 | X-H torsion
[ 11005 11000 10999 10996 ] final  -63.06 input  -57.11 | X-H torsion

> <Gold.Protein.ActiveResidues>
 VAL166  LYS551  ARG553  GLY616  TRP617  ASP618  TYR619  PRO620  LYS621  CYS622 
 ASP623  PHE694  ASN695  SER759  ASP760  ASP761  ALA762  ILE779  LEU786  VAL792 
 PHE793  MET794  SER795  GLU796  ALA797  LYS798  CYS799  TRP800  GLU811  SER814 

> <Gold.Protein.RotatedAtoms>
  151.6670  133.3315  159.3187 H   0  0  0  0  0  0  0  0  0  0  0  0  # atno 6907 bound_to 6896
  150.7886  134.6895  159.6498 H   0  0  0  0  0  0  0  0  0  0  0  0  # atno 6908 bound_to 6896
  152.3961  134.6367  160.0141 H   0  0  0  0  0  0  0  0  0  0  0  0  # atno 6909 bound_to 6896
  146.2235  140.2696  142.8356 H   0  0  0  0  0  0  0  0  0  0  0  0  # atno 7974 bound_to 7965
  154.4284  140.1098  156.5860 H   0  0  0  0  0  0  0  0  0  0  0  0  # atno 8008 bound_to 7997
  155.6062  140.3494  155.4590 H   0  0  0  0  0  0  0  0  0  0  0  0  # atno 8009 bound_to 7997
  156.0135  140.1224  157.0420 H   0  0  0  0  0  0  0  0  0  0  0  0  # atno 8010 bound_to 7997
  140.2927  143.3211  152.0330 H   0  0  0  0  0  0  0  0  0  0  0  0  # atno 10167 bound_to 10162
  156.2683  130.4204  149.8466 H   0  0  0  0  0  0  0  0  0  0  0  0  # atno 10718 bound_to 10713
  154.2315  135.6360  153.5177 H   0  0  0  0  0  0  0  0  0  0  0  0  # atno 10763 bound_to 10752
  152.9948  135.5520  154.6007 H   0  0  0  0  0  0  0  0  0  0  0  0  # atno 10764 bound_to 10752
  154.5491  135.2900  155.0999 H   0  0  0  0  0  0  0  0  0  0  0  0  # atno 10765 bound_to 10752
  141.1381  133.6647  156.5623 H   0  0  0  0  0  0  0  0  0  0  0  0  # atno 11005 bound_to 11000
  144.9278  140.7941  143.5708 LP  0  0  0  0  0  0  0  0  0  0  0  0  # atno 17320 bound_to 7965
  145.2637  139.1982  143.4878 LP  0  0  0  0  0  0  0  0  0  0  0  0  # atno 17321 bound_to 7965
  139.4934  144.6513  151.6668 LP  0  0  0  0  0  0  0  0  0  0  0  0  # atno 17342 bound_to 10162
  140.5719  144.0095  150.6221 LP  0  0  0  0  0  0  0  0  0  0  0  0  # atno 17343 bound_to 10162
  156.5957  130.8525  151.3419 LP  0  0  0  0  0  0  0  0  0  0  0  0  # atno 17370 bound_to 10713
  157.7275  130.9644  150.1701 LP  0  0  0  0  0  0  0  0  0  0  0  0  # atno 17371 bound_to 10713
  140.3978  134.7383  157.4761 LP  0  0  0  0  0  0  0  0  0  0  0  0  # atno 17394 bound_to 11000
  140.0518  134.6120  155.8852 LP  0  0  0  0  0  0  0  0  0  0  0  0  # atno 17395 bound_to 11000

$$$$
