AV-unprocessed.smi:2312|AV-procd|sdf|9263|dock9
  -GOLD-   2272012483D 1   1.00000     0.00000
 Structure written by MMmdl.
 34 35  0  0  0  0  0  0  0  0  1 V2000
  152.4618  143.0052  162.0788 C   0  0  0  0  0  0  0  0  0  0  0  0
  152.7940  143.9022  161.0269 O   0  0  0  0  0  0  0  0  0  0  0  0
  152.2578  143.5849  159.7419 C   0  0  0  0  0  0  0  0  0  0  0  0
  152.3952  142.0908  159.4178 C   0  0  0  0  0  0  0  0  0  0  0  0
  151.6620  141.7587  158.2037 N   0  0  0  0  0  0  0  0  0  0  0  0
  151.8885  140.6729  157.4542 C   0  0  0  0  0  0  0  0  0  0  0  0
  152.7607  139.8422  157.7094 O   0  0  0  0  0  0  0  0  0  0  0  0
  151.0425  140.6163  156.4119 N   0  0  0  0  0  0  0  0  0  0  0  0
  150.9781  139.6258  155.3956 C   0  0  0  0  0  0  0  0  0  0  0  0
  151.8415  138.6311  155.2155 N   0  0  0  0  0  0  0  0  0  0  0  0
  151.2802  138.0377  154.1207 C   0  0  0  0  0  0  0  0  0  0  0  0
  150.1677  138.6052  153.6539 N   0  0  0  0  0  0  0  0  0  0  0  0
  149.9842  139.6436  154.5026 N   0  0  0  0  0  0  0  0  0  0  0  0
  148.8571  140.5429  154.3467 C   0  0  0  0  0  0  0  0  0  0  0  0
  150.8538  144.2110  159.6445 C   0  0  0  0  0  0  0  0  0  0  0  0
  151.2251  144.7340  158.2557 C   0  0  0  0  0  0  0  0  0  0  0  0
  152.6893  144.6181  158.6820 C   0  0  0  0  0  0  0  0  0  0  0  0
  153.0044  143.2942  162.9785 H   0  0  0  0  0  0  0  0  0  0  0  0
  152.7380  141.9775  161.8422 H   0  0  0  0  0  0  0  0  0  0  0  0
  151.3992  143.0370  162.3179 H   0  0  0  0  0  0  0  0  0  0  0  0
  153.4457  141.8309  159.2790 H   0  0  0  0  0  0  0  0  0  0  0  0
  152.0390  141.4714  160.2416 H   0  0  0  0  0  0  0  0  0  0  0  0
  150.9258  142.3924  157.9289 H   0  0  0  0  0  0  0  0  0  0  0  0
  150.3656  141.3612  156.3384 H   0  0  0  0  0  0  0  0  0  0  0  0
  151.7051  137.1620  153.6523 H   0  0  0  0  0  0  0  0  0  0  0  0
  149.2041  141.5000  153.9567 H   0  0  0  0  0  0  0  0  0  0  0  0
  148.3768  140.7034  155.3122 H   0  0  0  0  0  0  0  0  0  0  0  0
  148.1250  140.1216  153.6567 H   0  0  0  0  0  0  0  0  0  0  0  0
  150.0295  143.4972  159.6512 H   0  0  0  0  0  0  0  0  0  0  0  0
  150.6893  145.0159  160.3635 H   0  0  0  0  0  0  0  0  0  0  0  0
  150.9595  144.0415  157.4553 H   0  0  0  0  0  0  0  0  0  0  0  0
  150.8892  145.7495  158.0440 H   0  0  0  0  0  0  0  0  0  0  0  0
  153.0698  145.5467  159.1112 H   0  0  0  0  0  0  0  0  0  0  0  0
  153.3552  144.2315  157.9099 H   0  0  0  0  0  0  0  0  0  0  0  0
  1  2  1  0  0  0  0
  1 18  1  0  0  0  0
  1 19  1  0  0  0  0
  1 20  1  0  0  0  0
  2  3  1  0  0  0  0
  3 17  1  0  0  0  0
  3  4  1  0  0  0  0
  3 15  1  0  0  0  0
  4  5  1  0  0  0  0
  4 21  1  0  0  0  0
  4 22  1  0  0  0  0
  5  6  1  0  0  0  0
  5 23  1  0  0  0  0
  6  7  2  0  0  0  0
  6  8  1  0  0  0  0
  8  9  1  0  0  0  0
  8 24  1  0  0  0  0
  9 13  1  0  0  0  0
  9 10  2  0  0  0  0
 10 11  1  0  0  0  0
 11 12  2  0  0  0  0
 11 25  1  0  0  0  0
 12 13  1  0  0  0  0
 13 14  1  0  0  0  0
 14 26  1  0  0  0  0
 14 27  1  0  0  0  0
 14 28  1  0  0  0  0
 15 16  1  0  0  0  0
 15 29  1  0  0  0  0
 15 30  1  0  0  0  0
 16 17  1  0  0  0  0
 16 31  1  0  0  0  0
 16 32  1  0  0  0  0
 17 33  1  0  0  0  0
 17 34  1  0  0  0  0
M  END
> <s_m_source_file>
AV-unprocessed.smi

> <i_m_source_file_index>
2312

> <i_lp_mmshare_version>
43012

> <i_f3d_flags>
0

> <s_epik_input>
W0NIMl0xW0NIMl1bQ0gyXUMxKE9bQ0gzXSlbQ0gyXVtOSF1DKD1PKVtOSF1jMm5bY0hdbm4yW0NIM10=

> <s_epik_cmdline>
J2VwaWtfcHl0aG9uJywgJy1waCcsICc3LjAnLCAnLXRuJywgJzgnLCAnLW1hJywgJzIwMCcsICctbWV0YWxfYmluZGluZycsICctaW1hZScsICc8aW5maWxlLm1hZT4nLCAnLW9tYWUnLCAnPG91dGZpbGUubWFlPic=

> <r_lp_tautomer_probability>
1

> <r_epik_Ionization_Penalty>
2.1066e-05

> <r_epik_Ionization_Penalty_Charging>
0

> <r_epik_Ionization_Penalty_Neutral>
2.1066e-05

> <r_epik_State_Penalty>
-0

> <r_epik_Charging_Adjusted_Penalty>
0

> <i_epik_Tot_Q>
0

> <i_epik_Tot_abs_Q>
0

> <r_epik_Metal_State_Penalty>
-0

> <b_epik_Metal_Only>
0

> <s_lp_Force_Field>
OPLS_2005

> <r_lp_Energy>
16.1455

> <b_lp_Chiralities_Consistent>
1

> <s_lp_Variant>
AV-unprocessed.smi:2312-1

> <Gold.Version>
5.8.1

> <Gold.Id.Protein>
6NUR|6NUR_protein|mol2

> <Gold.PLP.Fitness>
40.0424

> <Gold.PLP.PLP>
-34.6771

> <Gold.PLP.part.hbond>
-1.0000

> <Gold.PLP.part.metal>
0.0000

> <Gold.PLP.part.buried>
-2.8814

> <Gold.PLP.part.nonpolar>
-32.2225

> <Gold.PLP.part.repulsive>
1.7676

> <Gold.PLP.ligand.clash>
0.0000

> <Gold.PLP.ligand.torsion>
0.4497

> <Gold.PLP.Chemscore.Hbond>
1.0000

> <Gold.PLP.Chemscore.CHOScore>
1.0000

> <Gold.PLP.Chemscore.Metal>
0.0000

> <Gold.Chemscore.Hbonds>
donor molecule, donor type, donor heavy atom, donor atom, acceptor molecule, acceptor atom, score
      P1  H  7997  8008       L1     7  1.00
      L1  C    11    25       P1  7949  1.00

> <Gold.PLP.Chemscore.Internal.Correction>
0.2647

> <Gold.Rescore>
     Score         DG    S(hbond)    S(metal)    S(lipo)     H(rot)  DE(clash)    DE(int)     intcor
     10.49     -13.31       0.97        0.00      76.58       1.71       0.16       2.66       ----

> <Gold.Chemscore.Fitness>
10.4911

> <Gold.Chemscore.DG>
-13.3136

> <Gold.Chemscore.ZeroCoef>
-5.4800

> <Gold.Chemscore.Hbond>
0.9702

> <Gold.Chemscore.Metal>
0.0000

> <Gold.Chemscore.Lipo>
76.5813

> <Gold.Chemscore.Internal_Hbond>
0.0000

> <Gold.Chemscore.DEClash>
0.1576

> <Gold.Chemscore.DEInternal>
2.6649

> <Gold.Chemscore.Rot>
1.7059

> <Gold.Chemscore.Internal.Correction>
   9.000000E+99

> <Gold.Chemscore.Hbonds>
donor molecule, donor type, donor heavy atom, donor atom, acceptor molecule, acceptor atom, score
      P1  H  7997  8008       L1     7  0.87

> <Gold.Chemscore.Hbond.Weighted>
-3.2406

> <Gold.Chemscore.Metal.Weighted>
-0.0000

> <Gold.Chemscore.Lipo.Weighted>
-8.9600

> <Gold.Chemscore.Internal_Hbond.Weighted>
0.0000

> <Gold.Chemscore.DEClash.Weighted>
0.1576

> <Gold.Chemscore.DEInternal.Weighted>
2.6649

> <Gold.Chemscore.Rot.Weighted>
4.3670

> <Gold.Chemscore.Internal.Correction.Weighted>
   9.000000E+99

> <Gold.Protein.RotatedTorsions>
[ 6907 6896 6895 6894 ] final   72.50 input  -60.11 | X-H torsion
[ 7974 7965 7964 7962 ] final   42.89 input  175.53 | X-H torsion
[ 8008 7997 7996 7995 ] final  -62.83 input   59.86 | X-H torsion
[ 10167 10162 10161 10158 ] final  110.36 input  -65.29 | X-H torsion
[ 10718 10713 10712 10709 ] final  157.19 input   66.30 | X-H torsion
[ 10763 10752 10751 10750 ] final   90.54 input  -60.55 | X-H torsion
[ 11005 11000 10999 10996 ] final  116.75 input  -57.11 | X-H torsion

> <Gold.Protein.ActiveResidues>
 VAL166  LYS551  ARG553  GLY616  TRP617  ASP618  TYR619  PRO620  LYS621  CYS622 
 ASP623  PHE694  ASN695  SER759  ASP760  ASP761  ALA762  ILE779  LEU786  VAL792 
 PHE793  MET794  SER795  GLU796  ALA797  LYS798  CYS799  TRP800  GLU811  SER814 

> <Gold.Protein.RotatedAtoms>
  152.4871  134.4562  159.9590 H   0  0  0  0  0  0  0  0  0  0  0  0  # atno 6907 bound_to 6896
  151.4556  133.3600  159.2809 H   0  0  0  0  0  0  0  0  0  0  0  0  # atno 6908 bound_to 6896
  150.8991  134.8427  159.7408 H   0  0  0  0  0  0  0  0  0  0  0  0  # atno 6909 bound_to 6896
  146.0702  139.5249  142.9602 H   0  0  0  0  0  0  0  0  0  0  0  0  # atno 7974 bound_to 7965
  154.4521  140.0988  156.6648 H   0  0  0  0  0  0  0  0  0  0  0  0  # atno 8008 bound_to 7997
  155.5253  140.3480  155.4396 H   0  0  0  0  0  0  0  0  0  0  0  0  # atno 8009 bound_to 7997
  156.0702  140.1347  156.9827 H   0  0  0  0  0  0  0  0  0  0  0  0  # atno 8010 bound_to 7997
  139.6695  144.7126  151.1715 H   0  0  0  0  0  0  0  0  0  0  0  0  # atno 10167 bound_to 10162
  157.1948  131.0663  151.2059 H   0  0  0  0  0  0  0  0  0  0  0  0  # atno 10718 bound_to 10713
  153.1987  135.4430  155.0239 H   0  0  0  0  0  0  0  0  0  0  0  0  # atno 10763 bound_to 10752
  154.8134  135.3304  154.7246 H   0  0  0  0  0  0  0  0  0  0  0  0  # atno 10764 bound_to 10752
  153.7693  135.6986  153.4965 H   0  0  0  0  0  0  0  0  0  0  0  0  # atno 10765 bound_to 10752
  139.9051  134.9602  156.7245 H   0  0  0  0  0  0  0  0  0  0  0  0  # atno 11005 bound_to 11000
  145.6405  141.0285  143.1814 LP  0  0  0  0  0  0  0  0  0  0  0  0  # atno 17320 bound_to 7965
  144.7227  139.7977  143.7376 LP  0  0  0  0  0  0  0  0  0  0  0  0  # atno 17321 bound_to 7965
  140.7612  143.5867  150.8838 LP  0  0  0  0  0  0  0  0  0  0  0  0  # atno 17342 bound_to 10162
  139.9531  143.6249  152.3023 LP  0  0  0  0  0  0  0  0  0  0  0  0  # atno 17343 bound_to 10162
  157.3825  130.7239  149.6640 LP  0  0  0  0  0  0  0  0  0  0  0  0  # atno 17370 bound_to 10713
  155.9707  130.4168  150.4251 LP  0  0  0  0  0  0  0  0  0  0  0  0  # atno 17371 bound_to 10713
  140.6974  133.9336  155.8003 LP  0  0  0  0  0  0  0  0  0  0  0  0  # atno 17394 bound_to 11000
  141.0397  134.0639  157.3917 LP  0  0  0  0  0  0  0  0  0  0  0  0  # atno 17395 bound_to 11000

$$$$
