AV-unprocessed.smi:3330|AV-procd|sdf|12816|dock4
  -GOLD-   2272019183D 1   1.00000     0.00000
 Structure written by MMmdl.
 37 38  0  0  0  0  0  0  0  0  2 V2000
  149.7448  143.7251  158.9515 C   0  0  0  0  0  0  0  0  0  0  0  0
  150.7725  142.7446  158.3533 C   0  0  1  0  0  0  0  0  0  0  0  0
  150.5633  142.6632  156.9105 N   0  0  0  0  0  0  0  0  0  0  0  0
  149.4331  141.8121  156.5678 C   0  0  0  0  0  0  0  0  0  0  0  0
  149.6704  140.3927  157.1120 C   0  0  0  0  0  0  0  0  0  0  0  0
  150.9603  139.8451  156.6707 N   0  0  0  0  0  0  0  0  0  0  0  0
  151.2974  139.6365  155.3939 C   0  0  0  0  0  0  0  0  0  0  0  0
  150.6262  139.8621  154.3865 O   0  0  0  0  0  0  0  0  0  0  0  0
  152.6971  139.0677  155.3788 C   0  0  0  0  0  0  0  0  0  0  0  0
  153.0334  139.0367  156.7836 N   0  5  0  0  0  0  0  0  0  0  0  0
  151.9758  139.5040  157.4876 C   0  0  0  0  0  0  0  0  0  0  0  0
  151.9029  139.6233  158.7104 O   0  0  0  0  0  0  0  0  0  0  0  0
  152.2431  143.1719  158.6132 C   0  0  1  0  0  0  0  0  0  0  0  0
  152.5050  144.6536  158.2851 C   0  0  0  0  0  0  0  0  0  0  0  0
  152.6502  142.8952  159.9880 N   0  0  0  0  0  0  0  0  0  0  0  0
  152.1891  143.4849  161.1470 C   0  0  0  0  0  0  0  0  0  0  0  0
  152.8611  142.9165  162.1905 C   0  0  0  0  0  0  0  0  0  0  0  0
  153.7269  141.9776  161.5637 C   0  0  0  0  0  0  0  0  0  0  0  0
  153.5938  141.9614  160.2479 N   0  0  0  0  0  0  0  0  0  0  0  0
  149.8197  143.7677  160.0376 H   0  0  0  0  0  0  0  0  0  0  0  0
  148.7213  143.4286  158.7241 H   0  0  0  0  0  0  0  0  0  0  0  0
  149.8903  144.7352  158.5677 H   0  0  0  0  0  0  0  0  0  0  0  0
  150.6245  141.7577  158.7948 H   0  0  0  0  0  0  0  0  0  0  0  0
  151.3899  142.2548  156.4963 H   0  0  0  0  0  0  0  0  0  0  0  0
  148.5055  142.2145  156.9771 H   0  0  0  0  0  0  0  0  0  0  0  0
  149.3209  141.7792  155.4842 H   0  0  0  0  0  0  0  0  0  0  0  0
  149.6562  140.4221  158.2025 H   0  0  0  0  0  0  0  0  0  0  0  0
  148.8486  139.7315  156.8316 H   0  0  0  0  0  0  0  0  0  0  0  0
  152.6902  138.0802  154.9165 H   0  0  0  0  0  0  0  0  0  0  0  0
  153.3558  139.7083  154.7926 H   0  0  0  0  0  0  0  0  0  0  0  0
  152.8895  142.5756  157.9670 H   0  0  0  0  0  0  0  0  0  0  0  0
  152.3798  144.8596  157.2227 H   0  0  0  0  0  0  0  0  0  0  0  0
  153.5255  144.9360  158.5457 H   0  0  0  0  0  0  0  0  0  0  0  0
  151.8289  145.3092  158.8349 H   0  0  0  0  0  0  0  0  0  0  0  0
  151.4334  144.2563  161.1327 H   0  0  0  0  0  0  0  0  0  0  0  0
  152.7571  143.1431  163.2410 H   0  0  0  0  0  0  0  0  0  0  0  0
  154.4437  141.3128  162.0226 H   0  0  0  0  0  0  0  0  0  0  0  0
  1  2  1  0  0  0  0
  1 20  1  0  0  0  0
  1 21  1  0  0  0  0
  1 22  1  0  0  0  0
  2  3  1  0  0  0  0
  2 13  1  0  0  0  0
  2 23  1  0  0  0  0
  3  4  1  0  0  0  0
  3 24  1  0  0  0  0
  4  5  1  0  0  0  0
  4 25  1  0  0  0  0
  4 26  1  0  0  0  0
  5  6  1  0  0  0  0
  5 27  1  0  0  0  0
  5 28  1  0  0  0  0
  6 11  1  0  0  0  0
  6  7  1  0  0  0  0
  7  8  2  0  0  0  0
  7  9  1  0  0  0  0
  9 10  1  0  0  0  0
  9 29  1  0  0  0  0
  9 30  1  0  0  0  0
 10 11  1  0  0  0  0
 11 12  2  0  0  0  0
 13 14  1  0  0  0  0
 13 15  1  0  0  0  0
 13 31  1  0  0  0  0
 14 32  1  0  0  0  0
 14 33  1  0  0  0  0
 14 34  1  0  0  0  0
 15 19  1  0  0  0  0
 15 16  1  0  0  0  0
 16 17  2  0  0  0  0
 16 35  1  0  0  0  0
 17 18  1  0  0  0  0
 17 36  1  0  0  0  0
 18 19  2  0  0  0  0
 18 37  1  0  0  0  0
M  CHG  1  10  -1
M  END
> <s_m_source_file>
AV-unprocessed.smi

> <i_m_source_file_index>
3330

> <i_lp_mmshare_version>
43012

> <i_f3d_flags>
0

> <s_epik_input>
bjFbY0hdW2NIXVtjSF1uMVtDQEBIXShbQ0gzXSlbQ0BIXShbQ0gzXSlbTkhdW0NIMl1bQ0gyXU4yQyg9TylbQ0gyXVtOSF1DMj1P

> <s_epik_cmdline>
J2VwaWtfcHl0aG9uJywgJy1waCcsICc3LjAnLCAnLXRuJywgJzgnLCAnLW1hJywgJzIwMCcsICctbWV0YWxfYmluZGluZycsICctaW1hZScsICc8aW5maWxlLm1hZT4nLCAnLW9tYWUnLCAnPG91dGZpbGUubWFlPic=

> <r_lp_tautomer_probability>
1

> <r_epik_Ionization_Penalty>
8.77477

> <r_epik_Ionization_Penalty_Charging>
6.28461

> <r_epik_Ionization_Penalty_Neutral>
2.49016

> <r_epik_State_Penalty>
8.73376

> <r_epik_Charging_Adjusted_Penalty>
15.0184

> <i_epik_Tot_Q>
-1

> <i_epik_Tot_abs_Q>
1

> <r_epik_Metal_State_Penalty>
4.73175

> <b_epik_Metal_Only>
1

> <s_lp_Force_Field>
OPLS_2005

> <r_lp_Energy>
23.0712

> <b_lp_Chiralities_Consistent>
1

> <s_lp_Variant>
AV-unprocessed.smi:3330-16

> <Gold.Version>
5.8.1

> <Gold.Id.Protein>
6NUR|6NUR_protein|mol2

> <Gold.PLP.Fitness>
52.0609

> <Gold.PLP.PLP>
-43.8836

> <Gold.PLP.part.hbond>
-3.0000

> <Gold.PLP.part.metal>
0.0000

> <Gold.PLP.part.buried>
-4.4342

> <Gold.PLP.part.nonpolar>
-36.3210

> <Gold.PLP.part.repulsive>
0.1209

> <Gold.PLP.ligand.clash>
0.0000

> <Gold.PLP.ligand.torsion>
0.4607

> <Gold.PLP.Chemscore.Hbond>
3.0000

> <Gold.PLP.Chemscore.CHOScore>
0.0000

> <Gold.PLP.Chemscore.Metal>
0.0000

> <Gold.Chemscore.Hbonds>
donor molecule, donor type, donor heavy atom, donor atom, acceptor molecule, acceptor atom, score
      P1  H  7989  7998       L1     8  1.00
      P1  H  7997  8009       L1    10  2.00

> <Gold.PLP.Chemscore.Internal.Correction>
0.0986

> <Gold.Rescore>
     Score         DG    S(hbond)    S(metal)    S(lipo)     H(rot)  DE(clash)    DE(int)     intcor
     12.68     -13.21       0.98        0.00      93.02       2.52       0.05       0.48       ----

> <Gold.Chemscore.Fitness>
12.6828

> <Gold.Chemscore.DG>
-13.2115

> <Gold.Chemscore.ZeroCoef>
-5.4800

> <Gold.Chemscore.Hbond>
0.9848

> <Gold.Chemscore.Metal>
0.0000

> <Gold.Chemscore.Lipo>
93.0211

> <Gold.Chemscore.Internal_Hbond>
0.0000

> <Gold.Chemscore.DEClash>
0.0526

> <Gold.Chemscore.DEInternal>
0.4761

> <Gold.Chemscore.Rot>
2.5160

> <Gold.Chemscore.Internal.Correction>
   9.000000E+99

> <Gold.Chemscore.Hbonds>
donor molecule, donor type, donor heavy atom, donor atom, acceptor molecule, acceptor atom, score
      P1  H  7989  7998       L1     8  0.40
      P1  H  7997  8009       L1    10  0.31

> <Gold.Chemscore.Hbond.Weighted>
-3.2891

> <Gold.Chemscore.Metal.Weighted>
-0.0000

> <Gold.Chemscore.Lipo.Weighted>
-10.8835

> <Gold.Chemscore.Internal_Hbond.Weighted>
0.0000

> <Gold.Chemscore.DEClash.Weighted>
0.0526

> <Gold.Chemscore.DEInternal.Weighted>
0.4761

> <Gold.Chemscore.Rot.Weighted>
6.4410

> <Gold.Chemscore.Internal.Correction.Weighted>
   9.000000E+99

> <Gold.Protein.RotatedTorsions>
[ 6907 6896 6895 6894 ] final   66.32 input  -60.11 | X-H torsion
[ 7974 7965 7964 7962 ] final -156.17 input  175.53 | X-H torsion
[ 8008 7997 7996 7995 ] final  166.60 input   59.86 | X-H torsion
[ 10167 10162 10161 10158 ] final  168.03 input  -65.29 | X-H torsion
[ 10718 10713 10712 10709 ] final  -28.01 input   66.30 | X-H torsion
[ 10763 10752 10751 10750 ] final    7.63 input  -60.55 | X-H torsion
[ 11005 11000 10999 10996 ] final  158.98 input  -57.11 | X-H torsion

> <Gold.Protein.ActiveResidues>
 VAL166  LYS551  ARG553  GLY616  TRP617  ASP618  TYR619  PRO620  LYS621  CYS622 
 ASP623  PHE694  ASN695  SER759  ASP760  ASP761  ALA762  ILE779  LEU786  VAL792 
 PHE793  MET794  SER795  GLU796  ALA797  LYS798  CYS799  TRP800  GLU811  SER814 

> <Gold.Protein.RotatedAtoms>
  152.4472  134.5470  159.9855 H   0  0  0  0  0  0  0  0  0  0  0  0  # atno 6907 bound_to 6896
  151.5552  133.3405  159.2968 H   0  0  0  0  0  0  0  0  0  0  0  0  # atno 6908 bound_to 6896
  150.8391  134.7708  159.6981 H   0  0  0  0  0  0  0  0  0  0  0  0  # atno 6909 bound_to 6896
  144.7605  140.4147  143.5980 H   0  0  0  0  0  0  0  0  0  0  0  0  # atno 7974 bound_to 7965
  156.1704  140.1639  156.8457 H   0  0  0  0  0  0  0  0  0  0  0  0  # atno 8008 bound_to 7997
  154.5251  140.0769  156.8278 H   0  0  0  0  0  0  0  0  0  0  0  0  # atno 8009 bound_to 7997
  155.3524  140.3390  155.4242 H   0  0  0  0  0  0  0  0  0  0  0  0  # atno 8010 bound_to 7997
  139.4958  144.3858  151.9572 H   0  0  0  0  0  0  0  0  0  0  0  0  # atno 10167 bound_to 10162
  156.4307  130.4444  149.7119 H   0  0  0  0  0  0  0  0  0  0  0  0  # atno 10718 bound_to 10713
  153.2341  135.6896  153.7856 H   0  0  0  0  0  0  0  0  0  0  0  0  # atno 10763 bound_to 10752
  153.7010  135.3297  155.3225 H   0  0  0  0  0  0  0  0  0  0  0  0  # atno 10764 bound_to 10752
  154.8327  135.4568  154.1238 H   0  0  0  0  0  0  0  0  0  0  0  0  # atno 10765 bound_to 10752
  140.1917  134.8402  157.2919 H   0  0  0  0  0  0  0  0  0  0  0  0  # atno 11005 bound_to 11000
  145.6634  139.1585  143.2795 LP  0  0  0  0  0  0  0  0  0  0  0  0  # atno 17320 bound_to 7965
  146.1664  140.6712  142.9254 LP  0  0  0  0  0  0  0  0  0  0  0  0  # atno 17321 bound_to 7965
  140.3295  144.3333  150.5990 LP  0  0  0  0  0  0  0  0  0  0  0  0  # atno 17342 bound_to 10162
  140.5657  143.2186  151.7688 LP  0  0  0  0  0  0  0  0  0  0  0  0  # atno 17343 bound_to 10162
  156.4023  130.7681  151.2689 LP  0  0  0  0  0  0  0  0  0  0  0  0  # atno 17370 bound_to 10713
  157.7508  131.0236  150.3841 LP  0  0  0  0  0  0  0  0  0  0  0  0  # atno 17371 bound_to 10713
  140.2152  134.4090  155.7593 LP  0  0  0  0  0  0  0  0  0  0  0  0  # atno 17394 bound_to 11000
  141.2226  133.7138  156.8402 LP  0  0  0  0  0  0  0  0  0  0  0  0  # atno 17395 bound_to 11000

$$$$
