AV-unprocessed.smi:1200|AV-procd|sdf|5026|dock6
  -GOLD-   22720 4 43D 1   1.00000     0.00000
 Structure written by MMmdl.
 42 43  0  0  0  0  0  0  0  0  3 V2000
  152.0901  138.9477  154.9919 C   0  0  0  0  0  0  0  0  0  0  0  0
  150.8952  139.4776  154.3454 N   0  5  0  0  0  0  0  0  0  0  0  0
  149.6304  139.1529  154.7254 C   0  0  0  0  0  0  0  0  0  0  0  0
  149.2209  138.5094  155.6976 O   0  0  0  0  0  0  0  0  0  0  0  0
  148.5952  139.7315  153.7539 C   0  0  0  0  0  0  0  0  0  0  0  0
  147.8413  138.6339  153.0987 N   0  3  2  0  0  0  0  0  0  0  0  0
  147.0391  139.1112  151.9445 C   0  0  0  0  0  0  0  0  0  0  0  0
  146.3900  137.9356  151.1914 C   0  0  0  0  0  0  0  0  0  0  0  0
  145.5389  137.0513  152.1191 C   0  0  2  0  0  0  0  0  0  0  0  0
  144.3113  137.7457  152.5065 N   0  0  0  0  0  0  0  0  0  0  0  0
  143.1846  137.1521  152.9264 C   0  0  0  0  0  0  0  0  0  0  0  0
  143.0661  135.9335  153.0491 O   0  0  0  0  0  0  0  0  0  0  0  0
  142.2334  138.0598  153.2058 N   0  0  0  0  0  0  0  0  0  0  0  0
  140.9056  137.8420  153.6641 C   0  0  0  0  0  0  0  0  0  0  0  0
  139.8193  138.7149  153.4128 C   0  0  0  0  0  0  0  0  0  0  0  0
  138.5528  138.3928  153.9377 C   0  0  0  0  0  0  0  0  0  0  0  0
  138.4193  137.2161  154.6999 C   0  0  0  0  0  0  0  0  0  0  0  0
  139.4482  136.3823  154.9589 N   0  0  0  0  0  0  0  0  0  0  0  0
  140.6593  136.6977  154.4526 C   0  0  0  0  0  0  0  0  0  0  0  0
  146.3710  136.6319  153.3470 C   0  0  0  0  0  0  0  0  0  0  0  0
  147.0161  137.8400  154.0485 C   0  0  0  0  0  0  0  0  0  0  0  0
  153.0020  139.3111  154.5185 H   0  0  0  0  0  0  0  0  0  0  0  0
  152.1359  137.8587  154.9562 H   0  0  0  0  0  0  0  0  0  0  0  0
  152.1536  139.2324  156.0425 H   0  0  0  0  0  0  0  0  0  0  0  0
  147.9092  140.4361  154.2299 H   0  0  0  0  0  0  0  0  0  0  0  0
  149.1504  140.3008  153.0071 H   0  0  0  0  0  0  0  0  0  0  0  0
  146.2766  139.8092  152.2937 H   0  0  0  0  0  0  0  0  0  0  0  0
  147.6798  139.6624  151.2553 H   0  0  0  0  0  0  0  0  0  0  0  0
  145.7859  138.3083  150.3632 H   0  0  0  0  0  0  0  0  0  0  0  0
  147.1759  137.3271  150.7420 H   0  0  0  0  0  0  0  0  0  0  0  0
  145.2580  136.1550  151.5630 H   0  0  0  0  0  0  0  0  0  0  0  0
  144.3174  138.7529  152.4397 H   0  0  0  0  0  0  0  0  0  0  0  0
  142.5083  139.0280  153.1289 H   0  0  0  0  0  0  0  0  0  0  0  0
  139.9303  139.6250  152.8448 H   0  0  0  0  0  0  0  0  0  0  0  0
  137.7035  139.0364  153.7631 H   0  0  0  0  0  0  0  0  0  0  0  0
  137.4621  136.9406  155.1172 H   0  0  0  0  0  0  0  0  0  0  0  0
  141.4590  136.0083  154.6815 H   0  0  0  0  0  0  0  0  0  0  0  0
  145.7579  136.0719  154.0540 H   0  0  0  0  0  0  0  0  0  0  0  0
  147.1583  135.9481  153.0267 H   0  0  0  0  0  0  0  0  0  0  0  0
  147.6316  137.4806  154.8736 H   0  0  0  0  0  0  0  0  0  0  0  0
  146.2478  138.4780  154.4880 H   0  0  0  0  0  0  0  0  0  0  0  0
  148.5408  138.0096  152.7225 H   0  0  0  0  0  0  0  0  0  0  0  0
  1  2  1  0  0  0  0
  1 22  1  0  0  0  0
  1 23  1  0  0  0  0
  1 24  1  0  0  0  0
  2  3  1  0  0  0  0
  3  4  2  0  0  0  0
  3  5  1  0  0  0  0
  5  6  1  0  0  0  0
  5 25  1  0  0  0  0
  5 26  1  0  0  0  0
  6 21  1  0  0  0  0
  6  7  1  0  0  0  0
  6 42  1  0  0  0  0
  7  8  1  0  0  0  0
  7 27  1  0  0  0  0
  7 28  1  0  0  0  0
  8  9  1  0  0  0  0
  8 29  1  0  0  0  0
  8 30  1  0  0  0  0
  9 10  1  0  0  0  0
  9 20  1  0  0  0  0
  9 31  1  0  0  0  0
 10 11  1  0  0  0  0
 10 32  1  0  0  0  0
 11 12  2  0  0  0  0
 11 13  1  0  0  0  0
 13 14  1  0  0  0  0
 13 33  1  0  0  0  0
 14 19  1  0  0  0  0
 14 15  2  0  0  0  0
 15 16  1  0  0  0  0
 15 34  1  0  0  0  0
 16 17  2  0  0  0  0
 16 35  1  0  0  0  0
 17 18  1  0  0  0  0
 17 36  1  0  0  0  0
 18 19  2  0  0  0  0
 19 37  1  0  0  0  0
 20 21  1  0  0  0  0
 20 38  1  0  0  0  0
 20 39  1  0  0  0  0
 21 40  1  0  0  0  0
 21 41  1  0  0  0  0
M  CHG  1   2  -1
M  CHG  1   6   1
M  END
> <s_m_source_file>
AV-unprocessed.smi

> <i_m_source_file_index>
1200

> <i_lp_mmshare_version>
43012

> <i_f3d_flags>
0

> <s_epik_input>
W0NIM11bTkhdQyg9TylbQ0gyXU4xW0NIMl1bQ0gyXVtDSF0oW0NIMl1bQ0gyXTEpW05IXUMoPU8pW05IXWMyW2NIXVtjSF1bY0hdbltjSF0y

> <s_epik_cmdline>
J2VwaWtfcHl0aG9uJywgJy1waCcsICc3LjAnLCAnLXRuJywgJzgnLCAnLW1hJywgJzIwMCcsICctbWV0YWxfYmluZGluZycsICctaW1hZScsICc8aW5maWxlLm1hZT4nLCAnLW9tYWUnLCAnPG91dGZpbGUubWFlPic=

> <r_epik_Ionization_Penalty>
6.14345

> <r_epik_Ionization_Penalty_Charging>
6.13946

> <r_epik_Ionization_Penalty_Neutral>
0.00398477

> <r_epik_State_Penalty>
6.94483

> <r_epik_Charging_Adjusted_Penalty>
13.0843

> <i_epik_Tot_Q>
0

> <i_epik_Tot_abs_Q>
2

> <r_epik_Metal_State_Penalty>
2.87819

> <b_epik_Metal_Only>
1

> <s_lp_Force_Field>
OPLS_2005

> <r_lp_Energy>
15.1129

> <b_lp_Chiralities_Consistent>
1

> <s_lp_Variant>
AV-unprocessed.smi:1200-5

> <Gold.Version>
5.8.1

> <Gold.Id.Protein>
6NUR|6NUR_protein|mol2

> <Gold.PLP.Fitness>
50.4515

> <Gold.PLP.PLP>
-33.8912

> <Gold.PLP.part.hbond>
-7.0000

> <Gold.PLP.part.metal>
0.0000

> <Gold.PLP.part.buried>
6.1279

> <Gold.PLP.part.nonpolar>
-33.9636

> <Gold.PLP.part.repulsive>
0.4964

> <Gold.PLP.ligand.clash>
0.0000

> <Gold.PLP.ligand.torsion>
0.5430

> <Gold.PLP.Chemscore.Hbond>
5.8700

> <Gold.PLP.Chemscore.CHOScore>
0.0000

> <Gold.PLP.Chemscore.Metal>
0.0000

> <Gold.Chemscore.Hbonds>
donor molecule, donor type, donor heavy atom, donor atom, acceptor molecule, acceptor atom, score
      L1  H     6    42       P1  7948  1.95
      L1  H    10    32       P1 10175  1.00
      L1  H    13    33       P1 10175  1.00
      P1  H  7989  7998       L1     2  0.95
      P1  H 11000 11005       L1    18  1.00

> <Gold.PLP.Chemscore.Internal.Correction>
0.0363

> <Gold.Rescore>
     Score         DG    S(hbond)    S(metal)    S(lipo)     H(rot)  DE(clash)    DE(int)     intcor
     16.86     -23.63       3.96        0.00      77.65       1.63       3.69       3.08       ----

> <Gold.Chemscore.Fitness>
16.8554

> <Gold.Chemscore.DG>
-23.6272

> <Gold.Chemscore.ZeroCoef>
-5.4800

> <Gold.Chemscore.Hbond>
3.9643

> <Gold.Chemscore.Metal>
0.0000

> <Gold.Chemscore.Lipo>
77.6481

> <Gold.Chemscore.Internal_Hbond>
0.0000

> <Gold.Chemscore.DEClash>
3.6885

> <Gold.Chemscore.DEInternal>
3.0833

> <Gold.Chemscore.Rot>
1.6323

> <Gold.Chemscore.Internal.Correction>
   9.000000E+99

> <Gold.Chemscore.Hbonds>
donor molecule, donor type, donor heavy atom, donor atom, acceptor molecule, acceptor atom, score
      L1  H     6    42       P1  7948  0.90
      L1  H    10    32       P1 10175  0.99
      L1  H    13    33       P1 10175  0.97
      P1  H  7989  7998       L1     2  0.22
      P1  H 11000 11005       L1    18  0.29

> <Gold.Chemscore.Hbond.Weighted>
-13.2409

> <Gold.Chemscore.Metal.Weighted>
-0.0000

> <Gold.Chemscore.Lipo.Weighted>
-9.0848

> <Gold.Chemscore.Internal_Hbond.Weighted>
0.0000

> <Gold.Chemscore.DEClash.Weighted>
3.6885

> <Gold.Chemscore.DEInternal.Weighted>
3.0833

> <Gold.Chemscore.Rot.Weighted>
4.1786

> <Gold.Chemscore.Internal.Correction.Weighted>
   9.000000E+99

> <Gold.Protein.RotatedTorsions>
[ 6907 6896 6895 6894 ] final -172.63 input  -60.11 | X-H torsion
[ 7974 7965 7964 7962 ] final  156.78 input  175.53 | X-H torsion
[ 8008 7997 7996 7995 ] final -168.08 input   59.86 | X-H torsion
[ 10167 10162 10161 10158 ] final  121.85 input  -65.29 | X-H torsion
[ 10718 10713 10712 10709 ] final  125.70 input   66.30 | X-H torsion
[ 10763 10752 10751 10750 ] final  -26.80 input  -60.55 | X-H torsion
[ 11005 11000 10999 10996 ] final   75.93 input  -57.11 | X-H torsion

> <Gold.Protein.ActiveResidues>
 VAL166  LYS551  ARG553  GLY616  TRP617  ASP618  TYR619  PRO620  LYS621  CYS622 
 ASP623  PHE694  ASN695  SER759  ASP760  ASP761  ALA762  ILE779  LEU786  VAL792 
 PHE793  MET794  SER795  GLU796  ALA797  LYS798  CYS799  TRP800  GLU811  SER814 

> <Gold.Protein.RotatedAtoms>
  151.5432  133.3429  159.2938 H   0  0  0  0  0  0  0  0  0  0  0  0  # atno 6907 bound_to 6896
  150.8523  134.7854  159.7029 H   0  0  0  0  0  0  0  0  0  0  0  0  # atno 6908 bound_to 6896
  152.4566  134.5286  159.9856 H   0  0  0  0  0  0  0  0  0  0  0  0  # atno 6909 bound_to 6896
  144.7942  139.7251  143.6208 H   0  0  0  0  0  0  0  0  0  0  0  0  # atno 7974 bound_to 7965
  155.8865  140.1017  157.1449 H   0  0  0  0  0  0  0  0  0  0  0  0  # atno 8008 bound_to 7997
  154.4010  140.1319  156.4325 H   0  0  0  0  0  0  0  0  0  0  0  0  # atno 8009 bound_to 7997
  155.7583  140.3463  155.5187 H   0  0  0  0  0  0  0  0  0  0  0  0  # atno 8010 bound_to 7997
  139.5894  144.7019  151.3327 H   0  0  0  0  0  0  0  0  0  0  0  0  # atno 10167 bound_to 10162
  157.5481  131.1095  150.8748 H   0  0  0  0  0  0  0  0  0  0  0  0  # atno 10718 bound_to 10713
  153.7218  135.6944  153.5011 H   0  0  0  0  0  0  0  0  0  0  0  0  # atno 10763 bound_to 10752
  153.2198  135.4374  155.0475 H   0  0  0  0  0  0  0  0  0  0  0  0  # atno 10764 bound_to 10752
  154.8282  135.3457  154.6752 H   0  0  0  0  0  0  0  0  0  0  0  0  # atno 10765 bound_to 10752
  139.9321  134.7559  156.1333 H   0  0  0  0  0  0  0  0  0  0  0  0  # atno 11005 bound_to 11000
  146.2205  139.5627  142.9621 LP  0  0  0  0  0  0  0  0  0  0  0  0  # atno 17320 bound_to 7965
  145.5715  141.0393  143.2171 LP  0  0  0  0  0  0  0  0  0  0  0  0  # atno 17321 bound_to 7965
  140.7160  143.7265  150.7656 LP  0  0  0  0  0  0  0  0  0  0  0  0  # atno 17342 bound_to 10162
  140.0817  143.4962  152.2526 LP  0  0  0  0  0  0  0  0  0  0  0  0  # atno 17343 bound_to 10162
  156.9281  130.5339  149.5279 LP  0  0  0  0  0  0  0  0  0  0  0  0  # atno 17370 bound_to 10713
  156.0553  130.5615  150.9078 LP  0  0  0  0  0  0  0  0  0  0  0  0  # atno 17371 bound_to 10713
  141.0915  133.6712  156.2551 LP  0  0  0  0  0  0  0  0  0  0  0  0  # atno 17394 bound_to 11000
  140.6174  134.5396  157.5542 LP  0  0  0  0  0  0  0  0  0  0  0  0  # atno 17395 bound_to 11000

$$$$
