AV-unprocessed.smi:564|AV-procd|sdf|2947|dock7
  -GOLD-   2262023443D 1   1.00000     0.00000
 Structure written by MMmdl.
 50 51  0  0  0  0  0  0  0  0  2 V2000
  149.0624  141.4668  154.1999 C   0  0  0  0  0  0  0  0  0  0  0  0
  149.9870  140.9042  155.2416 C   0  0  0  0  0  0  0  0  0  0  0  0
  150.2604  141.6241  156.3160 N   0  0  0  0  0  0  0  0  0  0  0  0
  151.1114  140.8655  157.0344 N   0  0  0  0  0  0  0  0  0  0  0  0
  151.6223  141.3806  158.2904 C   0  0  0  0  0  0  0  0  0  0  0  0
  151.3676  139.6555  156.4174 C   0  0  0  0  0  0  0  0  0  0  0  0
  152.2796  138.6291  157.0096 C   0  0  0  0  0  0  0  0  0  0  0  0
  150.6548  139.6439  155.2476 C   0  0  0  0  0  0  0  0  0  0  0  0
  150.5793  138.5616  154.1989 C   0  0  0  0  0  0  0  0  0  0  0  0
  150.2712  137.2272  154.8758 C   0  0  0  0  0  0  0  0  0  0  0  0
  151.1675  136.5946  155.4327 O   0  0  0  0  0  0  0  0  0  0  0  0
  149.0056  136.7901  154.7842 N   0  0  0  0  0  0  0  0  0  0  0  0
  148.5377  135.4776  155.2202 C   0  0  0  0  0  0  0  0  0  0  0  0
  147.0631  135.2162  154.8358 C   0  0  0  0  0  0  0  0  0  0  0  0
  146.8602  135.0412  153.3673 N   0  3  2  0  0  0  0  0  0  0  0  0
  145.6998  135.8436  152.8873 C   0  0  0  0  0  0  0  0  0  0  0  0
  145.5667  135.8047  151.3603 C   0  0  0  0  0  0  0  0  0  0  0  0
  145.4348  134.3627  150.8720 C   0  0  0  0  0  0  0  0  0  0  0  0
  146.6293  133.5468  151.3716 C   0  0  0  0  0  0  0  0  0  0  0  0
  146.7873  133.6163  152.9074 C   0  0  1  0  0  0  0  0  0  0  0  0
  148.0267  132.7882  153.3055 C   0  0  0  0  0  0  0  0  0  0  0  0
  148.4674  140.6818  153.7330 H   0  0  0  0  0  0  0  0  0  0  0  0
  149.6239  141.9702  153.4127 H   0  0  0  0  0  0  0  0  0  0  0  0
  148.3682  142.1905  154.6293 H   0  0  0  0  0  0  0  0  0  0  0  0
  152.6515  141.0530  158.4387 H   0  0  0  0  0  0  0  0  0  0  0  0
  151.0085  141.0170  159.1142 H   0  0  0  0  0  0  0  0  0  0  0  0
  151.6030  142.4714  158.2891 H   0  0  0  0  0  0  0  0  0  0  0  0
  152.1003  137.6450  156.5774 H   0  0  0  0  0  0  0  0  0  0  0  0
  152.1365  138.5459  158.0867 H   0  0  0  0  0  0  0  0  0  0  0  0
  153.3218  138.8910  156.8269 H   0  0  0  0  0  0  0  0  0  0  0  0
  149.8034  138.7774  153.4633 H   0  0  0  0  0  0  0  0  0  0  0  0
  151.5105  138.4744  153.6381 H   0  0  0  0  0  0  0  0  0  0  0  0
  148.3322  137.3872  154.3261 H   0  0  0  0  0  0  0  0  0  0  0  0
  149.1794  134.6974  154.8074 H   0  0  0  0  0  0  0  0  0  0  0  0
  148.6608  135.4238  156.3017 H   0  0  0  0  0  0  0  0  0  0  0  0
  146.7675  134.3209  155.3757 H   0  0  0  0  0  0  0  0  0  0  0  0
  146.4205  136.0129  155.2126 H   0  0  0  0  0  0  0  0  0  0  0  0
  144.7844  135.4716  153.3505 H   0  0  0  0  0  0  0  0  0  0  0  0
  145.8060  136.8837  153.1935 H   0  0  0  0  0  0  0  0  0  0  0  0
  144.6999  136.3863  151.0451 H   0  0  0  0  0  0  0  0  0  0  0  0
  146.4382  136.2729  150.9041 H   0  0  0  0  0  0  0  0  0  0  0  0
  144.5050  133.9266  151.2395 H   0  0  0  0  0  0  0  0  0  0  0  0
  145.3879  134.3351  149.7829 H   0  0  0  0  0  0  0  0  0  0  0  0
  146.5132  132.5101  151.0533 H   0  0  0  0  0  0  0  0  0  0  0  0
  147.5383  133.9118  150.8927 H   0  0  0  0  0  0  0  0  0  0  0  0
  145.9081  133.1584  153.3640 H   0  0  0  0  0  0  0  0  0  0  0  0
  148.0346  131.8260  152.7926 H   0  0  0  0  0  0  0  0  0  0  0  0
  148.0530  132.5588  154.3699 H   0  0  0  0  0  0  0  0  0  0  0  0
  148.9501  133.3050  153.0441 H   0  0  0  0  0  0  0  0  0  0  0  0
  147.6829  135.4271  152.9258 H   0  0  0  0  0  0  0  0  0  0  0  0
  1  2  1  0  0  0  0
  1 22  1  0  0  0  0
  1 23  1  0  0  0  0
  1 24  1  0  0  0  0
  2  8  1  0  0  0  0
  2  3  2  0  0  0  0
  3  4  1  0  0  0  0
  4  5  1  0  0  0  0
  4  6  1  0  0  0  0
  5 25  1  0  0  0  0
  5 26  1  0  0  0  0
  5 27  1  0  0  0  0
  6  7  1  0  0  0  0
  6  8  2  0  0  0  0
  7 28  1  0  0  0  0
  7 29  1  0  0  0  0
  7 30  1  0  0  0  0
  8  9  1  0  0  0  0
  9 10  1  0  0  0  0
  9 31  1  0  0  0  0
  9 32  1  0  0  0  0
 10 11  2  0  0  0  0
 10 12  1  0  0  0  0
 12 13  1  0  0  0  0
 12 33  1  0  0  0  0
 13 14  1  0  0  0  0
 13 34  1  0  0  0  0
 13 35  1  0  0  0  0
 14 15  1  0  0  0  0
 14 36  1  0  0  0  0
 14 37  1  0  0  0  0
 15 20  1  0  0  0  0
 15 16  1  0  0  0  0
 15 50  1  0  0  0  0
 16 17  1  0  0  0  0
 16 38  1  0  0  0  0
 16 39  1  0  0  0  0
 17 18  1  0  0  0  0
 17 40  1  0  0  0  0
 17 41  1  0  0  0  0
 18 19  1  0  0  0  0
 18 42  1  0  0  0  0
 18 43  1  0  0  0  0
 19 20  1  0  0  0  0
 19 44  1  0  0  0  0
 19 45  1  0  0  0  0
 20 21  1  0  0  0  0
 20 46  1  0  0  0  0
 21 47  1  0  0  0  0
 21 48  1  0  0  0  0
 21 49  1  0  0  0  0
M  CHG  1  15   1
M  END
> <s_m_source_file>
AV-unprocessed.smi

> <i_m_source_file_index>
564

> <i_lp_mmshare_version>
43012

> <i_f3d_flags>
0

> <s_epik_input>
W0NIM11jMW5uKFtDSDNdKWMoW0NIM10pYzFbQ0gyXUMoPU8pW05IXVtDSDJdW0NIMl1OMltDSDJdW0NIMl1bQ0gyXVtDSDJdW0NASF0yW0NIM10=

> <s_epik_cmdline>
J2VwaWtfcHl0aG9uJywgJy1waCcsICc3LjAnLCAnLXRuJywgJzgnLCAnLW1hJywgJzIwMCcsICctbWV0YWxfYmluZGluZycsICctaW1hZScsICc8aW5maWxlLm1hZT4nLCAnLW9tYWUnLCAnPG91dGZpbGUubWFlPic=

> <r_lp_tautomer_probability>
1

> <r_epik_Ionization_Penalty>
0.00456826

> <r_epik_Ionization_Penalty_Charging>
0.00240401

> <r_epik_Ionization_Penalty_Neutral>
0.00216425

> <r_epik_State_Penalty>
-0

> <r_epik_Charging_Adjusted_Penalty>
0.00240401

> <i_epik_Tot_Q>
1

> <i_epik_Tot_abs_Q>
1

> <r_epik_Metal_State_Penalty>
-0

> <b_epik_Metal_Only>
0

> <s_lp_Force_Field>
OPLS_2005

> <r_lp_Energy>
16.6365

> <b_lp_Chiralities_Consistent>
1

> <s_lp_Variant>
AV-unprocessed.smi:564-1

> <Gold.Version>
5.8.1

> <Gold.Id.Protein>
6NUR|6NUR_protein|mol2

> <Gold.PLP.Fitness>
45.8427

> <Gold.PLP.PLP>
-38.7749

> <Gold.PLP.part.hbond>
-3.0000

> <Gold.PLP.part.metal>
0.0000

> <Gold.PLP.part.buried>
-2.7973

> <Gold.PLP.part.nonpolar>
-32.2935

> <Gold.PLP.part.repulsive>
0.1972

> <Gold.PLP.ligand.clash>
0.0000

> <Gold.PLP.ligand.torsion>
0.9823

> <Gold.PLP.Chemscore.Hbond>
3.0000

> <Gold.PLP.Chemscore.CHOScore>
0.0000

> <Gold.PLP.Chemscore.Metal>
0.0000

> <Gold.Chemscore.Hbonds>
donor molecule, donor type, donor heavy atom, donor atom, acceptor molecule, acceptor atom, score
      L1  H    15    50       P1  7948  2.00
      P1  H 10752 10764       L1    11  0.41

> <Gold.PLP.Chemscore.Internal.Correction>
0.0323

> <Gold.Rescore>
     Score         DG    S(hbond)    S(metal)    S(lipo)     H(rot)  DE(clash)    DE(int)     intcor
     16.74     -17.82       1.99        0.00      83.94       1.61       0.00       1.08       ----

> <Gold.Chemscore.Fitness>
16.7413

> <Gold.Chemscore.DG>
-17.8229

> <Gold.Chemscore.ZeroCoef>
-5.4800

> <Gold.Chemscore.Hbond>
1.9921

> <Gold.Chemscore.Metal>
0.0000

> <Gold.Chemscore.Lipo>
83.9448

> <Gold.Chemscore.Internal_Hbond>
0.0000

> <Gold.Chemscore.DEClash>
0.0038

> <Gold.Chemscore.DEInternal>
1.0778

> <Gold.Chemscore.Rot>
1.6142

> <Gold.Chemscore.Internal.Correction>
   9.000000E+99

> <Gold.Chemscore.Hbonds>
donor molecule, donor type, donor heavy atom, donor atom, acceptor molecule, acceptor atom, score
      L1  H    15    50       P1  7948  1.00
      P1  H 10752 10764       L1    11  0.38

> <Gold.Chemscore.Hbond.Weighted>
-6.6538

> <Gold.Chemscore.Metal.Weighted>
-0.0000

> <Gold.Chemscore.Lipo.Weighted>
-9.8215

> <Gold.Chemscore.Internal_Hbond.Weighted>
0.0000

> <Gold.Chemscore.DEClash.Weighted>
0.0038

> <Gold.Chemscore.DEInternal.Weighted>
1.0778

> <Gold.Chemscore.Rot.Weighted>
4.1324

> <Gold.Chemscore.Internal.Correction.Weighted>
   9.000000E+99

> <Gold.Protein.RotatedTorsions>
[ 6907 6896 6895 6894 ] final   -6.85 input  -60.11 | X-H torsion
[ 7974 7965 7964 7962 ] final  -33.03 input  175.53 | X-H torsion
[ 8008 7997 7996 7995 ] final   -4.10 input   59.86 | X-H torsion
[ 10167 10162 10161 10158 ] final   74.35 input  -65.29 | X-H torsion
[ 10718 10713 10712 10709 ] final  -17.45 input   66.30 | X-H torsion
[ 10763 10752 10751 10750 ] final  -74.14 input  -60.55 | X-H torsion
[ 11005 11000 10999 10996 ] final  -71.78 input  -57.11 | X-H torsion

> <Gold.Protein.ActiveResidues>
 VAL166  LYS551  ARG553  GLY616  TRP617  ASP618  TYR619  PRO620  LYS621  CYS622 
 ASP623  PHE694  ASN695  SER759  ASP760  ASP761  ALA762  ILE779  LEU786  VAL792 
 PHE793  MET794  SER795  GLU796  ALA797  LYS798  CYS799  TRP800  GLU811  SER814 

> <Gold.Protein.RotatedAtoms>
  151.4589  135.1036  159.9718 H   0  0  0  0  0  0  0  0  0  0  0  0  # atno 6907 bound_to 6896
  152.4860  133.8371  159.7143 H   0  0  0  0  0  0  0  0  0  0  0  0  # atno 6908 bound_to 6896
  150.8970  133.7107  159.2916 H   0  0  0  0  0  0  0  0  0  0  0  0  # atno 6909 bound_to 6896
  146.0943  140.5866  142.8850 H   0  0  0  0  0  0  0  0  0  0  0  0  # atno 7974 bound_to 7965
  154.6178  140.2492  155.7587 H   0  0  0  0  0  0  0  0  0  0  0  0  # atno 8008 bound_to 7997
  156.2409  140.2933  156.0391 H   0  0  0  0  0  0  0  0  0  0  0  0  # atno 8009 bound_to 7997
  155.1945  140.0392  157.2897 H   0  0  0  0  0  0  0  0  0  0  0  0  # atno 8010 bound_to 7997
  140.0146  144.5587  150.7630 H   0  0  0  0  0  0  0  0  0  0  0  0  # atno 10167 bound_to 10162
  156.5734  130.4755  149.6352 H   0  0  0  0  0  0  0  0  0  0  0  0  # atno 10718 bound_to 10713
  154.4691  135.5874  153.6309 H   0  0  0  0  0  0  0  0  0  0  0  0  # atno 10763 bound_to 10752
  152.9832  135.6062  154.3389 H   0  0  0  0  0  0  0  0  0  0  0  0  # atno 10764 bound_to 10752
  154.3269  135.2843  155.2470 H   0  0  0  0  0  0  0  0  0  0  0  0  # atno 10765 bound_to 10752
  141.1598  133.6827  156.6957 H   0  0  0  0  0  0  0  0  0  0  0  0  # atno 11005 bound_to 11000
  144.7383  140.4872  143.6887 LP  0  0  0  0  0  0  0  0  0  0  0  0  # atno 17320 bound_to 7965
  145.5978  139.1501  143.3146 LP  0  0  0  0  0  0  0  0  0  0  0  0  # atno 17321 bound_to 7965
  140.7367  143.2757  151.3751 LP  0  0  0  0  0  0  0  0  0  0  0  0  # atno 17342 bound_to 10162
  139.6181  144.0962  152.2365 LP  0  0  0  0  0  0  0  0  0  0  0  0  # atno 17343 bound_to 10162
  156.2694  130.7008  151.1801 LP  0  0  0  0  0  0  0  0  0  0  0  0  # atno 17370 bound_to 10713
  157.7343  131.0583  150.5531 LP  0  0  0  0  0  0  0  0  0  0  0  0  # atno 17371 bound_to 10713
  140.2996  134.8174  157.4086 LP  0  0  0  0  0  0  0  0  0  0  0  0  # atno 17394 bound_to 11000
  140.1273  134.5141  155.8134 LP  0  0  0  0  0  0  0  0  0  0  0  0  # atno 17395 bound_to 11000

$$$$
