AV-unprocessed.smi:2805|AV-procd|sdf|10814|dock3
  -GOLD-   2272015253D 1   1.00000     0.00000
 Structure written by MMmdl.
 43 44  0  0  0  0  0  0  0  0  1 V2000
  147.7813  132.9928  161.7764 C   0  0  0  0  0  0  0  0  0  0  0  0
  147.4978  134.4608  161.5372 C   0  0  0  0  0  0  0  0  0  0  0  0
  146.4623  135.1165  162.2299 C   0  0  0  0  0  0  0  0  0  0  0  0
  146.2487  136.4839  161.9671 C   0  0  0  0  0  0  0  0  0  0  0  0
  145.1534  137.2522  162.6766 C   0  0  0  0  0  0  0  0  0  0  0  0
  146.9901  137.1894  161.0863 N   0  0  0  0  0  0  0  0  0  0  0  0
  147.9904  136.5682  160.4139 C   0  0  0  0  0  0  0  0  0  0  0  0
  148.8261  137.2179  159.4675 N   0  0  0  0  0  0  0  0  0  0  0  0
  149.4775  136.6762  158.4237 C   0  0  0  0  0  0  0  0  0  0  0  0
  149.4626  135.4847  158.1129 O   0  0  0  0  0  0  0  0  0  0  0  0
  150.1572  137.6101  157.7428 N   0  0  0  0  0  0  0  0  0  0  0  0
  150.9559  137.3732  156.5413 C   0  0  1  0  0  0  0  0  0  0  0  0
  150.0720  136.9449  155.3511 C   0  0  0  0  0  0  0  0  0  0  0  0
  149.1786  138.0923  154.8481 C   0  0  0  0  0  0  0  0  0  0  0  0
  150.0054  139.3424  154.4788 C   0  0  1  0  0  0  0  0  0  0  0  0
  149.1148  140.5022  153.9963 C   0  0  0  0  0  0  0  0  0  0  0  0
  148.1031  140.0322  153.1308 O   0  0  0  0  0  0  0  0  0  0  0  0
  150.8714  139.7780  155.6778 C   0  0  0  0  0  0  0  0  0  0  0  0
  151.7667  138.6336  156.1867 C   0  0  0  0  0  0  0  0  0  0  0  0
  148.2713  135.1987  160.6187 C   0  0  0  0  0  0  0  0  0  0  0  0
  151.6625  136.5701  156.7587 H   0  0  0  0  0  0  0  0  0  0  0  0
  150.6813  139.0759  153.6646 H   0  0  0  0  0  0  0  0  0  0  0  0
  146.9086  132.4878  162.1915 H   0  0  0  0  0  0  0  0  0  0  0  0
  148.6095  132.8796  162.4760 H   0  0  0  0  0  0  0  0  0  0  0  0
  148.0480  132.4957  160.8434 H   0  0  0  0  0  0  0  0  0  0  0  0
  145.8490  134.5859  162.9438 H   0  0  0  0  0  0  0  0  0  0  0  0
  144.5181  136.5861  163.2610 H   0  0  0  0  0  0  0  0  0  0  0  0
  144.5244  137.7736  161.9544 H   0  0  0  0  0  0  0  0  0  0  0  0
  145.5869  137.9905  163.3517 H   0  0  0  0  0  0  0  0  0  0  0  0
  148.9354  138.2127  159.5969 H   0  0  0  0  0  0  0  0  0  0  0  0
  150.1134  138.5626  158.0738 H   0  0  0  0  0  0  0  0  0  0  0  0
  150.7127  136.6111  154.5341 H   0  0  0  0  0  0  0  0  0  0  0  0
  149.4579  136.0845  155.6194 H   0  0  0  0  0  0  0  0  0  0  0  0
  148.6110  137.7479  153.9832 H   0  0  0  0  0  0  0  0  0  0  0  0
  148.4436  138.3472  155.6128 H   0  0  0  0  0  0  0  0  0  0  0  0
  148.6570  141.0187  154.8405 H   0  0  0  0  0  0  0  0  0  0  0  0
  149.7092  141.2379  153.4534 H   0  0  0  0  0  0  0  0  0  0  0  0
  148.5067  139.7315  152.3309 H   0  0  0  0  0  0  0  0  0  0  0  0
  151.4969  140.6252  155.3949 H   0  0  0  0  0  0  0  0  0  0  0  0
  150.2302  140.1297  156.4871 H   0  0  0  0  0  0  0  0  0  0  0  0
  152.3436  138.9663  157.0504 H   0  0  0  0  0  0  0  0  0  0  0  0
  152.4957  138.3834  155.4150 H   0  0  0  0  0  0  0  0  0  0  0  0
  149.0725  134.7162  160.0774 H   0  0  0  0  0  0  0  0  0  0  0  0
  1  2  1  0  0  0  0
  1 23  1  0  0  0  0
  1 24  1  0  0  0  0
  1 25  1  0  0  0  0
  2 20  1  0  0  0  0
  2  3  2  0  0  0  0
  3  4  1  0  0  0  0
  3 26  1  0  0  0  0
  4  5  1  0  0  0  0
  4  6  2  0  0  0  0
  5 27  1  0  0  0  0
  5 28  1  0  0  0  0
  5 29  1  0  0  0  0
  6  7  1  0  0  0  0
  7  8  1  0  0  0  0
  7 20  2  0  0  0  0
  8  9  1  0  0  0  0
  8 30  1  0  0  0  0
  9 10  2  0  0  0  0
  9 11  1  0  0  0  0
 11 12  1  0  0  0  0
 11 31  1  0  0  0  0
 12 21  1  0  0  0  0
 12 19  1  0  0  0  0
 12 13  1  0  0  0  0
 13 14  1  0  0  0  0
 13 32  1  0  0  0  0
 13 33  1  0  0  0  0
 14 15  1  0  0  0  0
 14 34  1  0  0  0  0
 14 35  1  0  0  0  0
 15 22  1  0  0  0  0
 15 16  1  0  0  0  0
 15 18  1  0  0  0  0
 16 17  1  0  0  0  0
 16 36  1  0  0  0  0
 16 37  1  0  0  0  0
 17 38  1  0  0  0  0
 18 19  1  0  0  0  0
 18 39  1  0  0  0  0
 18 40  1  0  0  0  0
 19 41  1  0  0  0  0
 19 42  1  0  0  0  0
 20 43  1  0  0  0  0
M  END
> <s_m_source_file>
AV-unprocessed.smi

> <i_m_source_file_index>
2805

> <i_lp_mmshare_version>
43012

> <i_f3d_flags>
0

> <s_epik_input>
W0NIM11jMVtjSF1jKFtDSDNdKW5jKFtjSF0xKVtOSF1DKD1PKVtOSF1bQ0BIXTJbQ0gyXVtDSDJdW0NASF0oW0NIMl1bT0hdKVtDSDJdW0NIMl0y

> <s_epik_cmdline>
J2VwaWtfcHl0aG9uJywgJy1waCcsICc3LjAnLCAnLXRuJywgJzgnLCAnLW1hJywgJzIwMCcsICctbWV0YWxfYmluZGluZycsICctaW1hZScsICc8aW5maWxlLm1hZT4nLCAnLW9tYWUnLCAnPG91dGZpbGUubWFlPic=

> <r_lp_tautomer_probability>
1

> <r_epik_Ionization_Penalty>
0.000279533

> <r_epik_Ionization_Penalty_Charging>
0

> <r_epik_Ionization_Penalty_Neutral>
0.000279533

> <r_epik_State_Penalty>
-0

> <r_epik_Charging_Adjusted_Penalty>
0

> <i_epik_Tot_Q>
0

> <i_epik_Tot_abs_Q>
0

> <r_epik_Metal_State_Penalty>
-0

> <b_epik_Metal_Only>
0

> <s_lp_Force_Field>
OPLS_2005

> <r_lp_Energy>
9.89075

> <b_lp_Chiralities_Consistent>
1

> <s_lp_Variant>
AV-unprocessed.smi:2805-2

> <Gold.Version>
5.8.1

> <Gold.Id.Protein>
6NUR|6NUR_protein|mol2

> <Gold.PLP.Fitness>
39.7159

> <Gold.PLP.PLP>
-31.4542

> <Gold.PLP.part.hbond>
-3.0509

> <Gold.PLP.part.metal>
0.0000

> <Gold.PLP.part.buried>
-4.0877

> <Gold.PLP.part.nonpolar>
-25.5098

> <Gold.PLP.part.repulsive>
0.3100

> <Gold.PLP.ligand.clash>
0.0000

> <Gold.PLP.ligand.torsion>
0.3360

> <Gold.PLP.Chemscore.Hbond>
2.9750

> <Gold.PLP.Chemscore.CHOScore>
0.0000

> <Gold.PLP.Chemscore.Metal>
0.0000

> <Gold.Chemscore.Hbonds>
donor molecule, donor type, donor heavy atom, donor atom, acceptor molecule, acceptor atom, score
      L1  H    17    38       P1  7957  0.94
      P1  H  6896  6908       L1    10  0.88
      P1  H  6934  6947       L1     6  1.00

> <Gold.PLP.Chemscore.Internal.Correction>
0.0088

> <Gold.Rescore>
     Score         DG    S(hbond)    S(metal)    S(lipo)     H(rot)  DE(clash)    DE(int)     intcor
     17.12     -18.95       2.51        0.00      81.87       1.75       0.12       1.72       ----

> <Gold.Chemscore.Fitness>
17.1194

> <Gold.Chemscore.DG>
-18.9530

> <Gold.Chemscore.ZeroCoef>
-5.4800

> <Gold.Chemscore.Hbond>
2.5111

> <Gold.Chemscore.Metal>
0.0000

> <Gold.Chemscore.Lipo>
81.8666

> <Gold.Chemscore.Internal_Hbond>
0.0000

> <Gold.Chemscore.DEClash>
0.1150

> <Gold.Chemscore.DEInternal>
1.7186

> <Gold.Chemscore.Rot>
1.7548

> <Gold.Chemscore.Internal.Correction>
   9.000000E+99

> <Gold.Chemscore.Hbonds>
donor molecule, donor type, donor heavy atom, donor atom, acceptor molecule, acceptor atom, score
      L1  H    17    38       P1  7957  0.90
      P1  H  6896  6908       L1    10  0.38
      P1  H  6934  6947       L1     6  0.74

> <Gold.Chemscore.Hbond.Weighted>
-8.3871

> <Gold.Chemscore.Metal.Weighted>
-0.0000

> <Gold.Chemscore.Lipo.Weighted>
-9.5784

> <Gold.Chemscore.Internal_Hbond.Weighted>
0.0000

> <Gold.Chemscore.DEClash.Weighted>
0.1150

> <Gold.Chemscore.DEInternal.Weighted>
1.7186

> <Gold.Chemscore.Rot.Weighted>
4.4924

> <Gold.Chemscore.Internal.Correction.Weighted>
   9.000000E+99

> <Gold.Protein.RotatedTorsions>
[ 6907 6896 6895 6894 ] final  169.70 input  -60.11 | X-H torsion
[ 7974 7965 7964 7962 ] final   75.49 input  175.53 | X-H torsion
[ 8008 7997 7996 7995 ] final  -72.74 input   59.86 | X-H torsion
[ 10167 10162 10161 10158 ] final  118.07 input  -65.29 | X-H torsion
[ 10718 10713 10712 10709 ] final  166.07 input   66.30 | X-H torsion
[ 10763 10752 10751 10750 ] final   44.83 input  -60.55 | X-H torsion
[ 11005 11000 10999 10996 ] final -154.85 input  -57.11 | X-H torsion

> <Gold.Protein.ActiveResidues>
 VAL166  LYS551  ARG553  GLY616  TRP617  ASP618  TYR619  PRO620  LYS621  CYS622 
 ASP623  PHE694  ASN695  SER759  ASP760  ASP761  ALA762  ILE779  LEU786  VAL792 
 PHE793  MET794  SER795  GLU796  ALA797  LYS798  CYS799  TRP800  GLU811  SER814 

> <Gold.Protein.RotatedAtoms>
  151.8277  133.3404  159.3603 H   0  0  0  0  0  0  0  0  0  0  0  0  # atno 6907 bound_to 6896
  150.7274  134.5513  159.5805 H   0  0  0  0  0  0  0  0  0  0  0  0  # atno 6908 bound_to 6896
  152.2959  134.7669  160.0419 H   0  0  0  0  0  0  0  0  0  0  0  0  # atno 6909 bound_to 6896
  145.7149  139.2628  143.1629 H   0  0  0  0  0  0  0  0  0  0  0  0  # atno 7974 bound_to 7965
  154.5190  140.0792  156.8136 H   0  0  0  0  0  0  0  0  0  0  0  0  # atno 8008 bound_to 7997
  155.3617  140.3418  155.4223 H   0  0  0  0  0  0  0  0  0  0  0  0  # atno 8009 bound_to 7997
  156.1660  140.1604  156.8518 H   0  0  0  0  0  0  0  0  0  0  0  0  # atno 8010 bound_to 7997
  139.6136  144.7087  151.2789 H   0  0  0  0  0  0  0  0  0  0  0  0  # atno 10167 bound_to 10162
  157.0711  131.0366  151.2611 H   0  0  0  0  0  0  0  0  0  0  0  0  # atno 10718 bound_to 10713
  152.9834  135.6058  154.3337 H   0  0  0  0  0  0  0  0  0  0  0  0  # atno 10763 bound_to 10752
  154.3039  135.2772  155.2600 H   0  0  0  0  0  0  0  0  0  0  0  0  # atno 10764 bound_to 10752
  154.4840  135.5910  153.6466 H   0  0  0  0  0  0  0  0  0  0  0  0  # atno 10765 bound_to 10752
  140.6928  134.4022  157.5217 H   0  0  0  0  0  0  0  0  0  0  0  0  # atno 11005 bound_to 11000
  146.0678  140.7901  142.9703 LP  0  0  0  0  0  0  0  0  0  0  0  0  # atno 17320 bound_to 7965
  144.6932  140.3296  143.7218 LP  0  0  0  0  0  0  0  0  0  0  0  0  # atno 17321 bound_to 7965
  140.7336  143.6791  150.8016 LP  0  0  0  0  0  0  0  0  0  0  0  0  # atno 17342 bound_to 10162
  140.0390  143.5366  152.2726 LP  0  0  0  0  0  0  0  0  0  0  0  0  # atno 17343 bound_to 10162
  157.4877  130.7803  149.7476 LP  0  0  0  0  0  0  0  0  0  0  0  0  # atno 17370 bound_to 10713
  155.9950  130.3914  150.2836 LP  0  0  0  0  0  0  0  0  0  0  0  0  # atno 17371 bound_to 10713
  139.8918  134.8770  156.2300 LP  0  0  0  0  0  0  0  0  0  0  0  0  # atno 17394 bound_to 11000
  141.0227  133.7032  156.1295 LP  0  0  0  0  0  0  0  0  0  0  0  0  # atno 17395 bound_to 11000

$$$$
