AV-unprocessed.smi:2092|AV-procd|sdf|8542|dock9
  -GOLD-   2272011263D 1   1.00000     0.00000
 Structure written by MMmdl.
 44 45  0  0  0  0  0  0  0  0  1 V2000
  145.8689  142.5419  158.3568 C   0  0  0  0  0  0  0  0  0  0  0  0
  146.0830  142.7910  156.8568 C   0  0  2  0  0  0  0  0  0  0  0  0
  144.7969  142.9721  156.2635 O   0  0  0  0  0  0  0  0  0  0  0  0
  144.7804  143.5912  154.9795 C   0  0  0  0  0  0  0  0  0  0  0  0
  143.7555  144.7309  154.9671 C   0  0  0  0  0  0  0  0  0  0  0  0
  143.9370  145.4705  153.8732 F   0  0  0  0  0  0  0  0  0  0  0  0
  142.5170  144.2388  154.9497 F   0  0  0  0  0  0  0  0  0  0  0  0
  143.9157  145.5058  156.0396 F   0  0  0  0  0  0  0  0  0  0  0  0
  146.8311  141.6208  156.1978 C   0  0  0  0  0  0  0  0  0  0  0  0
  146.3856  140.4756  156.2744 O   0  0  0  0  0  0  0  0  0  0  0  0
  147.9445  141.9342  155.5168 N   0  0  0  0  0  0  0  0  0  0  0  0
  148.7095  141.0010  154.6961 C   0  0  0  0  0  0  0  0  0  0  0  0
  150.0316  140.5874  155.3262 C   0  0  0  0  0  0  0  0  0  0  0  0
  150.8541  139.6352  154.6938 C   0  0  0  0  0  0  0  0  0  0  0  0
  152.0831  139.3075  155.2959 C   0  0  0  0  0  0  0  0  0  0  0  0
  152.5136  139.8601  156.4496 N   0  0  0  0  0  0  0  0  0  0  0  0
  151.7245  140.7677  157.0758 C   0  0  0  0  0  0  0  0  0  0  0  0
  152.1917  141.3532  158.2718 N   0  0  0  0  0  0  0  0  0  0  0  0
  152.4796  140.4747  159.4036 C   0  0  0  0  0  0  0  0  0  0  0  0
  153.2715  141.2355  160.4803 C   0  0  0  0  0  0  0  0  0  0  0  0
  152.5602  142.4089  160.8599 O   0  0  0  0  0  0  0  0  0  0  0  0
  152.3861  143.3008  159.7640 C   0  0  0  0  0  0  0  0  0  0  0  0
  151.5659  142.6151  158.6577 C   0  0  0  0  0  0  0  0  0  0  0  0
  150.4690  141.1474  156.5465 C   0  0  0  0  0  0  0  0  0  0  0  0
  146.8175  142.3930  158.8739 H   0  0  0  0  0  0  0  0  0  0  0  0
  145.2487  141.6622  158.5330 H   0  0  0  0  0  0  0  0  0  0  0  0
  145.3710  143.3928  158.8220 H   0  0  0  0  0  0  0  0  0  0  0  0
  146.6599  143.7104  156.7381 H   0  0  0  0  0  0  0  0  0  0  0  0
  145.7686  143.9830  154.7343 H   0  0  0  0  0  0  0  0  0  0  0  0
  144.5142  142.8648  154.2118 H   0  0  0  0  0  0  0  0  0  0  0  0
  148.2423  142.8989  155.5094 H   0  0  0  0  0  0  0  0  0  0  0  0
  148.1067  140.1059  154.5429 H   0  0  0  0  0  0  0  0  0  0  0  0
  148.8824  141.4323  153.7086 H   0  0  0  0  0  0  0  0  0  0  0  0
  150.5602  139.1739  153.7624 H   0  0  0  0  0  0  0  0  0  0  0  0
  152.7424  138.5872  154.8347 H   0  0  0  0  0  0  0  0  0  0  0  0
  151.5425  140.1032  159.8203 H   0  0  0  0  0  0  0  0  0  0  0  0
  153.0570  139.6097  159.0747 H   0  0  0  0  0  0  0  0  0  0  0  0
  153.4118  140.6051  161.3584 H   0  0  0  0  0  0  0  0  0  0  0  0
  154.2656  141.5012  160.1164 H   0  0  0  0  0  0  0  0  0  0  0  0
  151.8698  144.1948  160.1137 H   0  0  0  0  0  0  0  0  0  0  0  0
  153.3574  143.6230  159.3850 H   0  0  0  0  0  0  0  0  0  0  0  0
  151.4700  143.2963  157.8136 H   0  0  0  0  0  0  0  0  0  0  0  0
  150.5561  142.4106  159.0155 H   0  0  0  0  0  0  0  0  0  0  0  0
  149.8592  141.8826  157.0493 H   0  0  0  0  0  0  0  0  0  0  0  0
  1  2  1  0  0  0  0
  1 25  1  0  0  0  0
  1 26  1  0  0  0  0
  1 27  1  0  0  0  0
  2  3  1  0  0  0  0
  2  9  1  0  0  0  0
  2 28  1  0  0  0  0
  3  4  1  0  0  0  0
  4  5  1  0  0  0  0
  4 29  1  0  0  0  0
  4 30  1  0  0  0  0
  5  6  1  0  0  0  0
  5  7  1  0  0  0  0
  5  8  1  0  0  0  0
  9 10  2  0  0  0  0
  9 11  1  0  0  0  0
 11 12  1  0  0  0  0
 11 31  1  0  0  0  0
 12 13  1  0  0  0  0
 12 32  1  0  0  0  0
 12 33  1  0  0  0  0
 13 24  1  0  0  0  0
 13 14  2  0  0  0  0
 14 15  1  0  0  0  0
 14 34  1  0  0  0  0
 15 16  2  0  0  0  0
 15 35  1  0  0  0  0
 16 17  1  0  0  0  0
 17 18  1  0  0  0  0
 17 24  2  0  0  0  0
 18 23  1  0  0  0  0
 18 19  1  0  0  0  0
 19 20  1  0  0  0  0
 19 36  1  0  0  0  0
 19 37  1  0  0  0  0
 20 21  1  0  0  0  0
 20 38  1  0  0  0  0
 20 39  1  0  0  0  0
 21 22  1  0  0  0  0
 22 23  1  0  0  0  0
 22 40  1  0  0  0  0
 22 41  1  0  0  0  0
 23 42  1  0  0  0  0
 23 43  1  0  0  0  0
 24 44  1  0  0  0  0
M  END
> <s_m_source_file>
AV-unprocessed.smi

> <i_m_source_file_index>
2092

> <i_lp_mmshare_version>
43012

> <i_f3d_flags>
0

> <s_epik_input>
RkMoRikoRilbQ0gyXU9bQ0BASF0oW0NIM10pQyg9TylbTkhdW0NIMl1jMVtjSF1bY0hdbmMoW2NIXTEpTjJbQ0gyXVtDSDJdT1tDSDJdW0NIMl0y

> <s_epik_cmdline>
J2VwaWtfcHl0aG9uJywgJy1waCcsICc3LjAnLCAnLXRuJywgJzgnLCAnLW1hJywgJzIwMCcsICctbWV0YWxfYmluZGluZycsICctaW1hZScsICc8aW5maWxlLm1hZT4nLCAnLW9tYWUnLCAnPG91dGZpbGUubWFlPic=

> <r_lp_tautomer_probability>
1

> <r_epik_Ionization_Penalty>
0.00451782

> <r_epik_Ionization_Penalty_Charging>
0

> <r_epik_Ionization_Penalty_Neutral>
0.00451782

> <r_epik_State_Penalty>
0.00326147

> <r_epik_Charging_Adjusted_Penalty>
0.00326147

> <i_epik_Tot_Q>
0

> <i_epik_Tot_abs_Q>
0

> <r_epik_Metal_State_Penalty>
-0

> <b_epik_Metal_Only>
0

> <s_lp_Force_Field>
OPLS_2005

> <r_lp_Energy>
14.8319

> <b_lp_Chiralities_Consistent>
1

> <s_lp_Variant>
AV-unprocessed.smi:2092-1

> <Gold.Version>
5.8.1

> <Gold.Id.Protein>
6NUR|6NUR_protein|mol2

> <Gold.PLP.Fitness>
46.7914

> <Gold.PLP.PLP>
-42.3969

> <Gold.PLP.part.hbond>
-2.0000

> <Gold.PLP.part.metal>
0.0000

> <Gold.PLP.part.buried>
-6.1288

> <Gold.PLP.part.nonpolar>
-34.0063

> <Gold.PLP.part.repulsive>
0.2056

> <Gold.PLP.ligand.clash>
0.0000

> <Gold.PLP.ligand.torsion>
1.0094

> <Gold.PLP.Chemscore.Hbond>
2.0000

> <Gold.PLP.Chemscore.CHOScore>
0.0000

> <Gold.PLP.Chemscore.Metal>
0.0000

> <Gold.Chemscore.Hbonds>
donor molecule, donor type, donor heavy atom, donor atom, acceptor molecule, acceptor atom, score
      L1  H    11    31       P1  8028  1.00
      P1  H  7997  8009       L1    16  1.00

> <Gold.PLP.Chemscore.Internal.Correction>
0.4134

> <Gold.Rescore>
     Score         DG    S(hbond)    S(metal)    S(lipo)     H(rot)  DE(clash)    DE(int)     intcor
     13.01     -14.31       1.77        0.00      79.32       2.49       0.40       0.89       ----

> <Gold.Chemscore.Fitness>
13.0115

> <Gold.Chemscore.DG>
-14.3068

> <Gold.Chemscore.ZeroCoef>
-5.4800

> <Gold.Chemscore.Hbond>
1.7728

> <Gold.Chemscore.Metal>
0.0000

> <Gold.Chemscore.Lipo>
79.3154

> <Gold.Chemscore.Internal_Hbond>
0.0000

> <Gold.Chemscore.DEClash>
0.4037

> <Gold.Chemscore.DEInternal>
0.8916

> <Gold.Chemscore.Rot>
2.4899

> <Gold.Chemscore.Internal.Correction>
   9.000000E+99

> <Gold.Chemscore.Hbonds>
donor molecule, donor type, donor heavy atom, donor atom, acceptor molecule, acceptor atom, score
      L1  H    11    31       P1  8028  0.97
      P1  H  7997  8009       L1    16  0.54

> <Gold.Chemscore.Hbond.Weighted>
-5.9211

> <Gold.Chemscore.Metal.Weighted>
-0.0000

> <Gold.Chemscore.Lipo.Weighted>
-9.2799

> <Gold.Chemscore.Internal_Hbond.Weighted>
0.0000

> <Gold.Chemscore.DEClash.Weighted>
0.4037

> <Gold.Chemscore.DEInternal.Weighted>
0.8916

> <Gold.Chemscore.Rot.Weighted>
6.3741

> <Gold.Chemscore.Internal.Correction.Weighted>
   9.000000E+99

> <Gold.Protein.RotatedTorsions>
[ 6907 6896 6895 6894 ] final -129.21 input  -60.11 | X-H torsion
[ 7974 7965 7964 7962 ] final  111.47 input  175.53 | X-H torsion
[ 8008 7997 7996 7995 ] final -153.96 input   59.86 | X-H torsion
[ 10167 10162 10161 10158 ] final   86.78 input  -65.29 | X-H torsion
[ 10718 10713 10712 10709 ] final  176.83 input   66.30 | X-H torsion
[ 10763 10752 10751 10750 ] final   13.28 input  -60.55 | X-H torsion
[ 11005 11000 10999 10996 ] final   82.99 input  -57.11 | X-H torsion

> <Gold.Protein.ActiveResidues>
 VAL166  LYS551  ARG553  GLY616  TRP617  ASP618  TYR619  PRO620  LYS621  CYS622 
 ASP623  PHE694  ASN695  SER759  ASP760  ASP761  ALA762  ILE779  LEU786  VAL792 
 PHE793  MET794  SER795  GLU796  ALA797  LYS798  CYS799  TRP800  GLU811  SER814 

> <Gold.Protein.RotatedAtoms>
  150.9262  133.6821  159.2820 H   0  0  0  0  0  0  0  0  0  0  0  0  # atno 6907 bound_to 6896
  151.4258  135.1002  159.9637 H   0  0  0  0  0  0  0  0  0  0  0  0  # atno 6908 bound_to 6896
  152.5004  133.8703  159.7350 H   0  0  0  0  0  0  0  0  0  0  0  0  # atno 6909 bound_to 6896
  145.2418  139.2775  143.4113 H   0  0  0  0  0  0  0  0  0  0  0  0  # atno 7974 bound_to 7965
  155.6790  140.0742  157.2492 H   0  0  0  0  0  0  0  0  0  0  0  0  # atno 8008 bound_to 7997
  154.4109  140.1685  156.2013 H   0  0  0  0  0  0  0  0  0  0  0  0  # atno 8009 bound_to 7997
  155.9551  140.3374  155.6445 H   0  0  0  0  0  0  0  0  0  0  0  0  # atno 8010 bound_to 7997
  139.8840  144.6423  150.8811 H   0  0  0  0  0  0  0  0  0  0  0  0  # atno 10167 bound_to 10162
  156.9143  130.9920  151.3015 H   0  0  0  0  0  0  0  0  0  0  0  0  # atno 10718 bound_to 10713
  153.1737  135.6816  153.8572 H   0  0  0  0  0  0  0  0  0  0  0  0  # atno 10763 bound_to 10752
  153.7927  135.3167  155.3381 H   0  0  0  0  0  0  0  0  0  0  0  0  # atno 10764 bound_to 10752
  154.8015  135.4775  154.0380 H   0  0  0  0  0  0  0  0  0  0  0  0  # atno 10765 bound_to 10752
  139.9045  134.8112  156.2248 H   0  0  0  0  0  0  0  0  0  0  0  0  # atno 11005 bound_to 11000
  146.3326  140.2784  142.8609 LP  0  0  0  0  0  0  0  0  0  0  0  0  # atno 17320 bound_to 7965
  144.9582  140.8248  143.5530 LP  0  0  0  0  0  0  0  0  0  0  0  0  # atno 17321 bound_to 7965
  140.7739  143.3562  151.1916 LP  0  0  0  0  0  0  0  0  0  0  0  0  # atno 17342 bound_to 10162
  139.7170  143.9285  152.2970 LP  0  0  0  0  0  0  0  0  0  0  0  0  # atno 17343 bound_to 10162
  157.5948  130.8469  149.8712 LP  0  0  0  0  0  0  0  0  0  0  0  0  # atno 17370 bound_to 10713
  156.0521  130.3715  150.1177 LP  0  0  0  0  0  0  0  0  0  0  0  0  # atno 17371 bound_to 10713
  141.0383  133.6951  156.1551 LP  0  0  0  0  0  0  0  0  0  0  0  0  # atno 17394 bound_to 11000
  140.6994  134.4580  157.5586 LP  0  0  0  0  0  0  0  0  0  0  0  0  # atno 17395 bound_to 11000

$$$$
