AV-unprocessed.smi:1782|AV-procd|sdf|7190|dock8
  -GOLD-   22720 8433D 1   1.00000     0.00000
 Structure written by MMmdl.
 42 44  0  0  0  0  0  0  0  0  2 V2000
  147.6665  137.5181  156.8240 O   0  0  0  0  0  0  0  0  0  0  0  0
  148.3487  138.2786  157.5091 C   0  0  0  0  0  0  0  0  0  0  0  0
  148.8725  137.7907  158.8718 C   0  0  0  0  0  0  0  0  0  0  0  0
  148.4197  136.4448  159.2715 N   0  0  0  0  0  0  0  0  0  0  0  0
  148.5952  135.4123  158.3330 C   0  0  0  0  0  0  0  0  0  0  0  0
  148.2170  134.1530  158.5903 C   0  0  0  0  0  0  0  0  0  0  0  0
  147.6150  133.8696  159.8702 C   0  0  0  0  0  0  0  0  0  0  0  0
  147.4289  134.8424  160.7920 C   0  0  0  0  0  0  0  0  0  0  0  0
  146.7876  134.5611  162.1491 C   0  0  0  0  0  0  0  0  0  0  0  0
  145.4968  134.8950  162.1368 F   0  0  0  0  0  0  0  0  0  0  0  0
  146.8805  133.2649  162.4493 F   0  0  0  0  0  0  0  0  0  0  0  0
  147.3781  135.2490  163.1276 F   0  0  0  0  0  0  0  0  0  0  0  0
  147.8489  136.2277  160.4975 C   0  0  0  0  0  0  0  0  0  0  0  0
  147.6887  137.1502  161.2983 O   0  0  0  0  0  0  0  0  0  0  0  0
  148.6612  139.5241  157.1139 N   0  0  0  0  0  0  0  0  0  0  0  0
  148.2697  140.1240  155.8445 C   0  0  2  0  0  0  0  0  0  0  0  0
  149.4346  140.5313  154.9473 C   0  0  0  0  0  0  0  0  0  0  0  0
  148.7880  141.5577  154.0110 C   0  0  0  0  0  0  0  0  0  0  0  0
  147.6757  142.1837  154.7687 N   0  3  1  0  0  0  0  0  0  0  0  0
  146.4128  142.2719  154.0038 C   0  0  0  0  0  0  0  0  0  0  0  0
  145.9236  143.6867  153.8042 C   0  0  0  0  0  0  0  0  0  0  0  0
  145.2505  142.7875  154.8186 C   0  0  0  0  0  0  0  0  0  0  0  0
  147.5429  141.4527  156.0483 C   0  0  0  0  0  0  0  0  0  0  0  0
  149.9624  137.8282  158.8440 H   0  0  0  0  0  0  0  0  0  0  0  0
  148.5897  138.5222  159.6309 H   0  0  0  0  0  0  0  0  0  0  0  0
  149.0489  135.7086  157.3982 H   0  0  0  0  0  0  0  0  0  0  0  0
  148.3573  133.3713  157.8581 H   0  0  0  0  0  0  0  0  0  0  0  0
  147.3102  132.8550  160.0798 H   0  0  0  0  0  0  0  0  0  0  0  0
  149.2212  140.0894  157.7355 H   0  0  0  0  0  0  0  0  0  0  0  0
  147.6135  139.4398  155.3026 H   0  0  0  0  0  0  0  0  0  0  0  0
  150.2202  141.0064  155.5374 H   0  0  0  0  0  0  0  0  0  0  0  0
  149.8762  139.6906  154.4112 H   0  0  0  0  0  0  0  0  0  0  0  0
  149.5014  142.3081  153.6697 H   0  0  0  0  0  0  0  0  0  0  0  0
  148.4001  141.0474  153.1275 H   0  0  0  0  0  0  0  0  0  0  0  0
  146.2576  141.5185  153.2330 H   0  0  0  0  0  0  0  0  0  0  0  0
  146.5377  144.5021  154.1830 H   0  0  0  0  0  0  0  0  0  0  0  0
  145.3746  143.9040  152.8901 H   0  0  0  0  0  0  0  0  0  0  0  0
  144.2589  142.4127  154.5723 H   0  0  0  0  0  0  0  0  0  0  0  0
  145.4162  143.0057  155.8723 H   0  0  0  0  0  0  0  0  0  0  0  0
  146.5043  141.3166  156.3542 H   0  0  0  0  0  0  0  0  0  0  0  0
  148.0377  142.0423  156.8218 H   0  0  0  0  0  0  0  0  0  0  0  0
  147.9518  143.1281  154.9967 H   0  0  0  0  0  0  0  0  0  0  0  0
  1  2  2  0  0  0  0
  2  3  1  0  0  0  0
  2 15  1  0  0  0  0
  3  4  1  0  0  0  0
  3 24  1  0  0  0  0
  3 25  1  0  0  0  0
  4 13  1  0  0  0  0
  4  5  1  0  0  0  0
  5  6  2  0  0  0  0
  5 26  1  0  0  0  0
  6  7  1  0  0  0  0
  6 27  1  0  0  0  0
  7  8  2  0  0  0  0
  7 28  1  0  0  0  0
  8  9  1  0  0  0  0
  8 13  1  0  0  0  0
  9 10  1  0  0  0  0
  9 11  1  0  0  0  0
  9 12  1  0  0  0  0
 13 14  2  0  0  0  0
 15 16  1  0  0  0  0
 15 29  1  0  0  0  0
 16 23  1  0  0  0  0
 16 17  1  0  0  0  0
 16 30  1  0  0  0  0
 17 18  1  0  0  0  0
 17 31  1  0  0  0  0
 17 32  1  0  0  0  0
 18 19  1  0  0  0  0
 18 33  1  0  0  0  0
 18 34  1  0  0  0  0
 19 20  1  0  0  0  0
 19 23  1  0  0  0  0
 19 42  1  0  0  0  0
 20 22  1  0  0  0  0
 20 21  1  0  0  0  0
 20 35  1  0  0  0  0
 21 22  1  0  0  0  0
 21 36  1  0  0  0  0
 21 37  1  0  0  0  0
 22 38  1  0  0  0  0
 22 39  1  0  0  0  0
 23 40  1  0  0  0  0
 23 41  1  0  0  0  0
M  CHG  1  19   1
M  END
> <s_m_source_file>
AV-unprocessed.smi

> <i_m_source_file_index>
1782

> <i_lp_mmshare_version>
43012

> <i_f3d_flags>
0

> <s_epik_input>
W0NIMl0xW0NIMl1bQ0hdMU4oW0NIMl0yKVtDSDJdW0NIMl1bQ0BIXTJbTkhdQyg9TylbQ0gyXW4zW2NIXVtjSF1bY0hdYyhDKEYpKEYpRiljMz1P

> <s_epik_cmdline>
J2VwaWtfcHl0aG9uJywgJy1waCcsICc3LjAnLCAnLXRuJywgJzgnLCAnLW1hJywgJzIwMCcsICctbWV0YWxfYmluZGluZycsICctaW1hZScsICc8aW5maWxlLm1hZT4nLCAnLW9tYWUnLCAnPG91dGZpbGUubWFlPic=

> <r_lp_tautomer_probability>
1

> <r_epik_Ionization_Penalty>
0.00106789

> <r_epik_Ionization_Penalty_Charging>
0.00106781

> <r_epik_Ionization_Penalty_Neutral>
8.2288e-08

> <r_epik_State_Penalty>
0.000699156

> <r_epik_Charging_Adjusted_Penalty>
0.00176697

> <i_epik_Tot_Q>
1

> <i_epik_Tot_abs_Q>
1

> <r_epik_Metal_State_Penalty>
-0

> <b_epik_Metal_Only>
0

> <s_lp_Force_Field>
OPLS_2005

> <r_lp_Energy>
47.5501

> <b_lp_Chiralities_Consistent>
1

> <s_lp_Variant>
AV-unprocessed.smi:1782-3

> <Gold.Version>
5.8.1

> <Gold.Id.Protein>
6NUR|6NUR_protein|mol2

> <Gold.PLP.Fitness>
49.2842

> <Gold.PLP.PLP>
-39.7304

> <Gold.PLP.part.hbond>
-3.0000

> <Gold.PLP.part.metal>
0.0000

> <Gold.PLP.part.buried>
-3.4183

> <Gold.PLP.part.nonpolar>
-34.2500

> <Gold.PLP.part.repulsive>
0.1785

> <Gold.PLP.ligand.clash>
0.0355

> <Gold.PLP.ligand.torsion>
1.7755

> <Gold.PLP.Chemscore.Hbond>
3.8480

> <Gold.PLP.Chemscore.CHOScore>
0.0000

> <Gold.PLP.Chemscore.Metal>
0.0000

> <Gold.Chemscore.Hbonds>
donor molecule, donor type, donor heavy atom, donor atom, acceptor molecule, acceptor atom, score
      L1  H    19    42       P1  8028  2.00
      P1  H  6931  6943       L1    14  0.99
      P1  H  6934  6947       L1    14  0.83

> <Gold.PLP.Chemscore.Internal.Correction>
1.5963

> <Gold.Rescore>
     Score         DG    S(hbond)    S(metal)    S(lipo)     H(rot)  DE(clash)    DE(int)     intcor
     12.74     -17.62       2.68        0.00      66.86       1.81       0.15       4.73       ----

> <Gold.Chemscore.Fitness>
12.7413

> <Gold.Chemscore.DG>
-17.6211

> <Gold.Chemscore.ZeroCoef>
-5.4800

> <Gold.Chemscore.Hbond>
2.6802

> <Gold.Chemscore.Metal>
0.0000

> <Gold.Chemscore.Lipo>
66.8633

> <Gold.Chemscore.Internal_Hbond>
0.0000

> <Gold.Chemscore.DEClash>
0.1530

> <Gold.Chemscore.DEInternal>
4.7268

> <Gold.Chemscore.Rot>
1.8101

> <Gold.Chemscore.Internal.Correction>
   9.000000E+99

> <Gold.Chemscore.Hbonds>
donor molecule, donor type, donor heavy atom, donor atom, acceptor molecule, acceptor atom, score
      L1  H    19    42       P1  8028  0.85
      P1  H  6931  6943       L1    14  0.93
      P1  H  6934  6947       L1    14  0.82

> <Gold.Chemscore.Hbond.Weighted>
-8.9519

> <Gold.Chemscore.Metal.Weighted>
-0.0000

> <Gold.Chemscore.Lipo.Weighted>
-7.8230

> <Gold.Chemscore.Internal_Hbond.Weighted>
0.0000

> <Gold.Chemscore.DEClash.Weighted>
0.1530

> <Gold.Chemscore.DEInternal.Weighted>
4.7268

> <Gold.Chemscore.Rot.Weighted>
4.6338

> <Gold.Chemscore.Internal.Correction.Weighted>
   9.000000E+99

> <Gold.Protein.RotatedTorsions>
[ 6907 6896 6895 6894 ] final  159.92 input  -60.11 | X-H torsion
[ 7974 7965 7964 7962 ] final  130.11 input  175.53 | X-H torsion
[ 8008 7997 7996 7995 ] final   42.15 input   59.86 | X-H torsion
[ 10167 10162 10161 10158 ] final -107.08 input  -65.29 | X-H torsion
[ 10718 10713 10712 10709 ] final -112.43 input   66.30 | X-H torsion
[ 10763 10752 10751 10750 ] final   90.18 input  -60.55 | X-H torsion
[ 11005 11000 10999 10996 ] final  143.38 input  -57.11 | X-H torsion

> <Gold.Protein.ActiveResidues>
 VAL166  LYS551  ARG553  GLY616  TRP617  ASP618  TYR619  PRO620  LYS621  CYS622 
 ASP623  PHE694  ASN695  SER759  ASP760  ASP761  ALA762  ILE779  LEU786  VAL792 
 PHE793  MET794  SER795  GLU796  ALA797  LYS798  CYS799  TRP800  GLU811  SER814 

> <Gold.Protein.RotatedAtoms>
  151.9784  133.3749  159.4097 H   0  0  0  0  0  0  0  0  0  0  0  0  # atno 6907 bound_to 6896
  150.6938  134.4065  159.5151 H   0  0  0  0  0  0  0  0  0  0  0  0  # atno 6908 bound_to 6896
  152.1780  134.8778  160.0579 H   0  0  0  0  0  0  0  0  0  0  0  0  # atno 6909 bound_to 6896
  145.0214  139.4128  143.5195 H   0  0  0  0  0  0  0  0  0  0  0  0  # atno 7974 bound_to 7965
  155.2814  140.3373  155.4258 H   0  0  0  0  0  0  0  0  0  0  0  0  # atno 8008 bound_to 7997
  156.2088  140.1761  156.7782 H   0  0  0  0  0  0  0  0  0  0  0  0  # atno 8009 bound_to 7997
  154.5657  140.0679  156.8872 H   0  0  0  0  0  0  0  0  0  0  0  0  # atno 8010 bound_to 7997
  140.1808  143.3968  152.1283 H   0  0  0  0  0  0  0  0  0  0  0  0  # atno 10167 bound_to 10162
  156.0705  130.5919  150.8507 H   0  0  0  0  0  0  0  0  0  0  0  0  # atno 10718 bound_to 10713
  153.1948  135.4443  155.0194 H   0  0  0  0  0  0  0  0  0  0  0  0  # atno 10763 bound_to 10752
  154.8112  135.3295  154.7302 H   0  0  0  0  0  0  0  0  0  0  0  0  # atno 10764 bound_to 10752
  153.7753  135.6981  153.4954 H   0  0  0  0  0  0  0  0  0  0  0  0  # atno 10765 bound_to 10752
  140.0549  134.9236  157.1083 H   0  0  0  0  0  0  0  0  0  0  0  0  # atno 11005 bound_to 11000
  146.3486  139.9714  142.8706 LP  0  0  0  0  0  0  0  0  0  0  0  0  # atno 17320 bound_to 7965
  145.1890  140.9803  143.4222 LP  0  0  0  0  0  0  0  0  0  0  0  0  # atno 17321 bound_to 7965
  139.5297  144.7144  151.5101 LP  0  0  0  0  0  0  0  0  0  0  0  0  # atno 17342 bound_to 10162
  140.6521  143.8675  150.6796 LP  0  0  0  0  0  0  0  0  0  0  0  0  # atno 17343 bound_to 10162
  157.5773  131.0946  150.9326 LP  0  0  0  0  0  0  0  0  0  0  0  0  # atno 17370 bound_to 10713
  156.9529  130.5426  149.5283 LP  0  0  0  0  0  0  0  0  0  0  0  0  # atno 17371 bound_to 10713
  140.3859  134.2236  155.7168 LP  0  0  0  0  0  0  0  0  0  0  0  0  # atno 17394 bound_to 11000
  141.1947  133.8121  157.0744 LP  0  0  0  0  0  0  0  0  0  0  0  0  # atno 17395 bound_to 11000

$$$$
