AV-unprocessed.smi:1626|AV-procd|sdf|6508|dock9
  -GOLD-   22720 7173D 1   1.00000     0.00000
 Structure written by MMmdl.
 48 50  0  0  0  0  0  0  0  0  2 V2000
  153.5689  142.6115  160.1268 C   0  0  0  0  0  0  0  0  0  0  0  0
  152.4601  142.3139  159.1330 C   0  0  0  0  0  0  0  0  0  0  0  0
  152.0817  140.9712  158.9081 C   0  0  0  0  0  0  0  0  0  0  0  0
  151.0574  140.6512  157.9906 C   0  0  0  0  0  0  0  0  0  0  0  0
  150.5360  139.4245  157.6183 N   0  0  0  0  0  0  0  0  0  0  0  0
  149.6124  139.7831  156.7319 C   0  0  0  0  0  0  0  0  0  0  0  0
  149.4826  141.0990  156.4742 N   0  0  0  0  0  0  0  0  0  0  0  0
  148.5571  141.7209  155.5437 C   0  0  0  0  0  0  0  0  0  0  0  0
  148.3731  140.9016  154.2501 C   0  0  2  0  0  0  0  0  0  0  0  0
  149.3938  141.2874  153.3515 O   0  0  0  0  0  0  0  0  0  0  0  0
  146.9986  141.1129  153.5752 C   0  0  0  0  0  0  0  0  0  0  0  0
  146.2812  139.8351  153.3341 N   0  3  2  0  0  0  0  0  0  0  0  0
  146.1450  139.0228  154.5703 C   0  0  0  0  0  0  0  0  0  0  0  0
  145.2691  137.7802  154.3271 C   0  0  0  0  0  0  0  0  0  0  0  0
  145.7934  136.9252  153.1617 C   0  0  2  0  0  0  0  0  0  0  0  0
  147.0019  136.2914  153.5309 O   0  0  0  0  0  0  0  0  0  0  0  0
  146.0104  137.7974  151.9138 C   0  0  0  0  0  0  0  0  0  0  0  0
  146.8672  139.0386  152.2224 C   0  0  0  0  0  0  0  0  0  0  0  0
  150.4160  141.7199  157.2983 C   0  0  0  0  0  0  0  0  0  0  0  0
  150.7797  143.0604  157.5183 C   0  0  0  0  0  0  0  0  0  0  0  0
  151.8081  143.3620  158.4352 C   0  0  0  0  0  0  0  0  0  0  0  0
  152.1995  144.8120  158.6587 C   0  0  0  0  0  0  0  0  0  0  0  0
  153.9050  141.7052  160.6315 H   0  0  0  0  0  0  0  0  0  0  0  0
  153.2246  143.3092  160.8905 H   0  0  0  0  0  0  0  0  0  0  0  0
  154.4273  143.0504  159.6177 H   0  0  0  0  0  0  0  0  0  0  0  0
  152.5778  140.1728  159.4402 H   0  0  0  0  0  0  0  0  0  0  0  0
  149.0018  139.0447  156.2327 H   0  0  0  0  0  0  0  0  0  0  0  0
  147.5977  141.8546  156.0461 H   0  0  0  0  0  0  0  0  0  0  0  0
  148.9303  142.7193  155.3109 H   0  0  0  0  0  0  0  0  0  0  0  0
  148.5254  139.8501  154.4872 H   0  0  0  0  0  0  0  0  0  0  0  0
  149.5271  140.5970  152.7206 H   0  0  0  0  0  0  0  0  0  0  0  0
  146.3542  141.7556  154.1761 H   0  0  0  0  0  0  0  0  0  0  0  0
  147.1544  141.6442  152.6349 H   0  0  0  0  0  0  0  0  0  0  0  0
  147.1339  138.7281  154.9251 H   0  0  0  0  0  0  0  0  0  0  0  0
  145.6926  139.6251  155.3590 H   0  0  0  0  0  0  0  0  0  0  0  0
  145.2035  137.1820  155.2369 H   0  0  0  0  0  0  0  0  0  0  0  0
  144.2515  138.1028  154.1024 H   0  0  0  0  0  0  0  0  0  0  0  0
  145.0721  136.1388  152.9366 H   0  0  0  0  0  0  0  0  0  0  0  0
  147.5794  136.2799  152.7823 H   0  0  0  0  0  0  0  0  0  0  0  0
  146.4698  137.2115  151.1166 H   0  0  0  0  0  0  0  0  0  0  0  0
  145.0415  138.1217  151.5318 H   0  0  0  0  0  0  0  0  0  0  0  0
  146.9485  139.6435  151.3202 H   0  0  0  0  0  0  0  0  0  0  0  0
  147.8827  138.7383  152.4852 H   0  0  0  0  0  0  0  0  0  0  0  0
  150.2723  143.8513  156.9864 H   0  0  0  0  0  0  0  0  0  0  0  0
  151.6467  145.4800  157.9975 H   0  0  0  0  0  0  0  0  0  0  0  0
  153.2626  144.9564  158.4652 H   0  0  0  0  0  0  0  0  0  0  0  0
  151.9906  145.1093  159.6866 H   0  0  0  0  0  0  0  0  0  0  0  0
  145.3418  140.0840  153.0600 H   0  0  0  0  0  0  0  0  0  0  0  0
  1  2  1  0  0  0  0
  1 23  1  0  0  0  0
  1 24  1  0  0  0  0
  1 25  1  0  0  0  0
  2 21  1  0  0  0  0
  2  3  2  0  0  0  0
  3  4  1  0  0  0  0
  3 26  1  0  0  0  0
  4 19  2  0  0  0  0
  4  5  1  0  0  0  0
  5  6  2  0  0  0  0
  6  7  1  0  0  0  0
  6 27  1  0  0  0  0
  7  8  1  0  0  0  0
  7 19  1  0  0  0  0
  8  9  1  0  0  0  0
  8 28  1  0  0  0  0
  8 29  1  0  0  0  0
  9 10  1  0  0  0  0
  9 11  1  0  0  0  0
  9 30  1  0  0  0  0
 10 31  1  0  0  0  0
 11 12  1  0  0  0  0
 11 32  1  0  0  0  0
 11 33  1  0  0  0  0
 12 18  1  0  0  0  0
 12 13  1  0  0  0  0
 12 48  1  0  0  0  0
 13 14  1  0  0  0  0
 13 34  1  0  0  0  0
 13 35  1  0  0  0  0
 14 15  1  0  0  0  0
 14 36  1  0  0  0  0
 14 37  1  0  0  0  0
 15 16  1  0  0  0  0
 15 17  1  0  0  0  0
 15 38  1  0  0  0  0
 16 39  1  0  0  0  0
 17 18  1  0  0  0  0
 17 40  1  0  0  0  0
 17 41  1  0  0  0  0
 18 42  1  0  0  0  0
 18 43  1  0  0  0  0
 19 20  1  0  0  0  0
 20 21  2  0  0  0  0
 20 44  1  0  0  0  0
 21 22  1  0  0  0  0
 22 45  1  0  0  0  0
 22 46  1  0  0  0  0
 22 47  1  0  0  0  0
M  CHG  1  12   1
M  END
> <s_m_source_file>
AV-unprocessed.smi

> <i_m_source_file_index>
1626

> <i_lp_mmshare_version>
43012

> <i_f3d_flags>
0

> <s_epik_input>
W0NIM11jKFtjSF0xKWMoW0NIM10pW2NIXWMoYzEyKW4oW2NIXW4yKVtDSDJdW0NASF0oW09IXSlbQ0gyXU4zW0NIMl1bQ0gyXVtDSF0oW09IXSlbQ0gyXVtDSDJdMw==

> <s_epik_cmdline>
J2VwaWtfcHl0aG9uJywgJy1waCcsICc3LjAnLCAnLXRuJywgJzgnLCAnLW1hJywgJzIwMCcsICctbWV0YWxfYmluZGluZycsICctaW1hZScsICc8aW5maWxlLm1hZT4nLCAnLW9tYWUnLCAnPG91dGZpbGUubWFlPic=

> <r_epik_Ionization_Penalty>
0.106584

> <r_epik_Ionization_Penalty_Charging>
0.0185694

> <r_epik_Ionization_Penalty_Neutral>
0.0880147

> <r_epik_State_Penalty>
0.0908428

> <r_epik_Charging_Adjusted_Penalty>
0.109412

> <i_epik_Tot_Q>
1

> <i_epik_Tot_abs_Q>
1

> <r_epik_Metal_State_Penalty>
0.0153739

> <b_epik_Metal_Only>
0

> <s_lp_Force_Field>
OPLS_2005

> <r_lp_Energy>
24.9536

> <b_lp_Chiralities_Consistent>
1

> <s_lp_Variant>
AV-unprocessed.smi:1626-3

> <Gold.Version>
5.8.1

> <Gold.Id.Protein>
6NUR|6NUR_protein|mol2

> <Gold.PLP.Fitness>
55.5839

> <Gold.PLP.PLP>
-43.5842

> <Gold.PLP.part.hbond>
-4.4603

> <Gold.PLP.part.metal>
0.0000

> <Gold.PLP.part.buried>
-1.0515

> <Gold.PLP.part.nonpolar>
-37.6967

> <Gold.PLP.part.repulsive>
0.0000

> <Gold.PLP.ligand.clash>
0.0000

> <Gold.PLP.ligand.torsion>
1.4152

> <Gold.PLP.Chemscore.Hbond>
4.9345

> <Gold.PLP.Chemscore.CHOScore>
0.0000

> <Gold.PLP.Chemscore.Metal>
0.0000

> <Gold.Chemscore.Hbonds>
donor molecule, donor type, donor heavy atom, donor atom, acceptor molecule, acceptor atom, score
      L1  H    10    31       P1  7957  1.00
      L1  H    12    48       P1 10175  2.00
      L1  H    16    39       P1  7948  1.00
      P1  H  8011  8017       L1    10  0.65

> <Gold.PLP.Chemscore.Internal.Correction>
0.0264

> <Gold.Rescore>
     Score         DG    S(hbond)    S(metal)    S(lipo)     H(rot)  DE(clash)    DE(int)     intcor
     22.05     -23.60       3.18        0.00     122.45       2.67       0.19       1.36       ----

> <Gold.Chemscore.Fitness>
22.0510

> <Gold.Chemscore.DG>
-23.6028

> <Gold.Chemscore.ZeroCoef>
-5.4800

> <Gold.Chemscore.Hbond>
3.1839

> <Gold.Chemscore.Metal>
0.0000

> <Gold.Chemscore.Lipo>
122.4515

> <Gold.Chemscore.Internal_Hbond>
0.0000

> <Gold.Chemscore.DEClash>
0.1928

> <Gold.Chemscore.DEInternal>
1.3589

> <Gold.Chemscore.Rot>
2.6712

> <Gold.Chemscore.Internal.Correction>
   9.000000E+99

> <Gold.Chemscore.Hbonds>
donor molecule, donor type, donor heavy atom, donor atom, acceptor molecule, acceptor atom, score
      L1  H    10    31       P1  7957  0.95
      L1  H    12    48       P1 10175  1.00
      L1  H    16    39       P1  7948  1.00
      P1  H  8011  8017       L1    10  0.05

> <Gold.Chemscore.Hbond.Weighted>
-10.6343

> <Gold.Chemscore.Metal.Weighted>
-0.0000

> <Gold.Chemscore.Lipo.Weighted>
-14.3268

> <Gold.Chemscore.Internal_Hbond.Weighted>
0.0000

> <Gold.Chemscore.DEClash.Weighted>
0.1928

> <Gold.Chemscore.DEInternal.Weighted>
1.3589

> <Gold.Chemscore.Rot.Weighted>
6.8383

> <Gold.Chemscore.Internal.Correction.Weighted>
   9.000000E+99

> <Gold.Protein.RotatedTorsions>
[ 6907 6896 6895 6894 ] final    3.53 input  -60.11 | X-H torsion
[ 7974 7965 7964 7962 ] final    7.78 input  175.53 | X-H torsion
[ 8008 7997 7996 7995 ] final  -37.41 input   59.86 | X-H torsion
[ 10167 10162 10161 10158 ] final  -99.68 input  -65.29 | X-H torsion
[ 10718 10713 10712 10709 ] final  175.95 input   66.30 | X-H torsion
[ 10763 10752 10751 10750 ] final -144.92 input  -60.55 | X-H torsion
[ 11005 11000 10999 10996 ] final -164.02 input  -57.11 | X-H torsion

> <Gold.Protein.ActiveResidues>
 VAL166  LYS551  ARG553  GLY616  TRP617  ASP618  TYR619  PRO620  LYS621  CYS622 
 ASP623  PHE694  ASN695  SER759  ASP760  ASP761  ALA762  ILE779  LEU786  VAL792 
 PHE793  MET794  SER795  GLU796  ALA797  LYS798  CYS799  TRP800  GLU811  SER814 

> <Gold.Protein.RotatedAtoms>
  151.6266  135.1027  160.0112 H   0  0  0  0  0  0  0  0  0  0  0  0  # atno 6907 bound_to 6896
  152.4129  133.6987  159.6422 H   0  0  0  0  0  0  0  0  0  0  0  0  # atno 6908 bound_to 6896
  150.8018  133.8509  159.3246 H   0  0  0  0  0  0  0  0  0  0  0  0  # atno 6909 bound_to 6896
  146.2423  140.0031  142.8414 H   0  0  0  0  0  0  0  0  0  0  0  0  # atno 7974 bound_to 7965
  154.4054  140.1605  156.2532 H   0  0  0  0  0  0  0  0  0  0  0  0  # atno 8008 bound_to 7997
  155.9101  140.3428  155.6070 H   0  0  0  0  0  0  0  0  0  0  0  0  # atno 8009 bound_to 7997
  155.7346  140.0784  157.2264 H   0  0  0  0  0  0  0  0  0  0  0  0  # atno 8010 bound_to 7997
  140.2599  143.3415  152.0636 H   0  0  0  0  0  0  0  0  0  0  0  0  # atno 10167 bound_to 10162
  156.9274  130.9960  151.2993 H   0  0  0  0  0  0  0  0  0  0  0  0  # atno 10718 bound_to 10713
  154.8407  135.3427  154.6422 H   0  0  0  0  0  0  0  0  0  0  0  0  # atno 10763 bound_to 10752
  153.7033  135.6968  153.5061 H   0  0  0  0  0  0  0  0  0  0  0  0  # atno 10764 bound_to 10752
  153.2506  135.4354  155.0748 H   0  0  0  0  0  0  0  0  0  0  0  0  # atno 10765 bound_to 10752
  140.5916  134.5039  157.5193 H   0  0  0  0  0  0  0  0  0  0  0  0  # atno 11005 bound_to 11000
  145.1397  140.9564  143.4496 LP  0  0  0  0  0  0  0  0  0  0  0  0  # atno 17320 bound_to 7965
  145.0308  139.3342  143.6025 LP  0  0  0  0  0  0  0  0  0  0  0  0  # atno 17321 bound_to 7965
  139.5020  144.6726  151.6207 LP  0  0  0  0  0  0  0  0  0  0  0  0  # atno 17342 bound_to 10162
  140.5974  143.9671  150.6363 LP  0  0  0  0  0  0  0  0  0  0  0  0  # atno 17343 bound_to 10162
  157.5869  130.8416  149.8602 LP  0  0  0  0  0  0  0  0  0  0  0  0  # atno 17370 bound_to 10713
  156.0463  130.3727  150.1310 LP  0  0  0  0  0  0  0  0  0  0  0  0  # atno 17371 bound_to 10713
  139.9271  134.8034  156.1036 LP  0  0  0  0  0  0  0  0  0  0  0  0  # atno 17394 bound_to 11000
  141.0931  133.6706  156.2585 LP  0  0  0  0  0  0  0  0  0  0  0  0  # atno 17395 bound_to 11000

$$$$
