AV-unprocessed.smi:55|AV-procd|sdf|574|dock3
  -GOLD-   2262016473D 1   1.00000     0.00000
 Structure written by MMmdl.
 30 31  0  0  0  0  0  0  0  0  2 V2000
  152.5083  142.6740  160.7718 C   0  0  0  0  0  0  0  0  0  0  0  0
  152.3363  141.7679  159.5654 C   0  0  0  0  0  0  0  0  0  0  0  0
  151.2376  141.8141  158.7793 C   0  0  0  0  0  0  0  0  0  0  0  0
  151.0857  140.9840  157.6826 N   0  0  0  0  0  0  0  0  0  0  0  0
  149.8354  141.0438  156.8388 C   0  0  1  0  0  0  0  0  0  0  0  0
  150.1032  141.7413  155.5113 C   0  0  0  0  0  0  0  0  0  0  0  0
  149.0963  141.0666  154.5872 C   0  0  1  0  0  0  0  0  0  0  0  0
  149.7106  140.7469  153.3522 O   0  0  0  0  0  0  0  0  0  0  0  0
  148.5760  139.8435  155.3826 C   0  0  1  0  0  0  0  0  0  0  0  0
  148.5629  138.4979  154.6329 C   0  0  0  0  0  0  0  0  0  0  0  0
  148.1833  138.6944  153.2872 O   0  0  0  0  0  0  0  0  0  0  0  0
  149.4421  139.7541  156.5076 O   0  0  0  0  0  0  0  0  0  0  0  0
  152.0887  140.0274  157.3801 C   0  0  0  0  0  0  0  0  0  0  0  0
  151.9027  139.2736  156.4244 O   0  0  0  0  0  0  0  0  0  0  0  0
  153.2051  139.9797  158.1619 N   0  5  0  0  0  0  0  0  0  0  0  0
  153.3899  140.7996  159.2366 C   0  0  0  0  0  0  0  0  0  0  0  0
  154.4042  140.7474  159.9320 O   0  0  0  0  0  0  0  0  0  0  0  0
  149.0516  141.5121  157.4372 H   0  0  0  0  0  0  0  0  0  0  0  0
  148.2653  141.7430  154.3832 H   0  0  0  0  0  0  0  0  0  0  0  0
  147.5729  140.0795  155.7435 H   0  0  0  0  0  0  0  0  0  0  0  0
  151.6506  143.3353  160.8971 H   0  0  0  0  0  0  0  0  0  0  0  0
  153.3987  143.2931  160.6595 H   0  0  0  0  0  0  0  0  0  0  0  0
  152.6128  142.0807  161.6808 H   0  0  0  0  0  0  0  0  0  0  0  0
  150.4544  142.5166  159.0224 H   0  0  0  0  0  0  0  0  0  0  0  0
  149.9697  142.8196  155.6024 H   0  0  0  0  0  0  0  0  0  0  0  0
  151.1285  141.5340  155.1992 H   0  0  0  0  0  0  0  0  0  0  0  0
  149.0854  140.2835  152.8164 H   0  0  0  0  0  0  0  0  0  0  0  0
  149.5604  138.0583  154.6162 H   0  0  0  0  0  0  0  0  0  0  0  0
  147.8962  137.7827  155.1161 H   0  0  0  0  0  0  0  0  0  0  0  0
  148.8485  139.2122  152.8601 H   0  0  0  0  0  0  0  0  0  0  0  0
  1  2  1  0  0  0  0
  1 21  1  0  0  0  0
  1 22  1  0  0  0  0
  1 23  1  0  0  0  0
  2 16  1  0  0  0  0
  2  3  2  0  0  0  0
  3  4  1  0  0  0  0
  3 24  1  0  0  0  0
  4  5  1  0  0  0  0
  4 13  1  0  0  0  0
  5 18  1  0  0  0  0
  5 12  1  0  0  0  0
  5  6  1  0  0  0  0
  6  7  1  0  0  0  0
  6 25  1  0  0  0  0
  6 26  1  0  0  0  0
  7 19  1  0  0  0  0
  7  8  1  0  0  0  0
  7  9  1  0  0  0  0
  8 27  1  0  0  0  0
  9 20  1  0  0  0  0
  9 10  1  0  0  0  0
  9 12  1  0  0  0  0
 10 11  1  0  0  0  0
 10 28  1  0  0  0  0
 10 29  1  0  0  0  0
 11 30  1  0  0  0  0
 13 14  2  0  0  0  0
 13 15  1  0  0  0  0
 15 16  1  0  0  0  0
 16 17  2  0  0  0  0
M  CHG  1  15  -1
M  END
> <s_m_source_file>
AV-unprocessed.smi

> <i_m_source_file_index>
55

> <i_lp_mmshare_version>
43012

> <i_f3d_flags>
0

> <s_epik_input>
Tz1jMVtuSF1jKD1PKW4oW2NIXWMxW0NIM10pW0NAQEhdMltDSDJdW0NAQEhdKFtPSF0pW0NAQEhdKE8yKVtDSDJdW09IXQ==

> <s_epik_cmdline>
J2VwaWtfcHl0aG9uJywgJy1waCcsICc3LjAnLCAnLXRuJywgJzgnLCAnLW1hJywgJzIwMCcsICctbWV0YWxfYmluZGluZycsICctaW1hZScsICc8aW5maWxlLm1hZT4nLCAnLW9tYWUnLCAnPG91dGZpbGUubWFlPic=

> <r_lp_tautomer_probability>
0.999537

> <r_epik_Ionization_Penalty>
3.66603

> <r_epik_Ionization_Penalty_Charging>
1.09773e-07

> <r_epik_Ionization_Penalty_Neutral>
3.66603

> <r_epik_State_Penalty>
3.66562

> <r_epik_Charging_Adjusted_Penalty>
3.66562

> <i_epik_Tot_Q>
-1

> <i_epik_Tot_abs_Q>
1

> <r_epik_Metal_State_Penalty>
0.234536

> <b_epik_Metal_Only>
1

> <s_epik_Chemistry_Notes>
This compound contains an acetal/aminal-like group ( X-CH(R)-Y where X, Y are N, S, or O) that may be acid/base labile, releasing an aldehyde.

> <s_lp_Force_Field>
OPLS_2005

> <r_lp_Energy>
40.7451

> <b_lp_Chiralities_Consistent>
1

> <s_lp_Variant>
AV-unprocessed.smi:55-14

> <Gold.Version>
5.8.1

> <Gold.Id.Protein>
6NUR|6NUR_protein|mol2

> <Gold.PLP.Fitness>
40.4570

> <Gold.PLP.PLP>
-28.3127

> <Gold.PLP.part.hbond>
-5.1141

> <Gold.PLP.part.metal>
0.0000

> <Gold.PLP.part.buried>
-3.1899

> <Gold.PLP.part.nonpolar>
-19.0546

> <Gold.PLP.part.repulsive>
0.0000

> <Gold.PLP.ligand.clash>
0.0000

> <Gold.PLP.ligand.torsion>
0.7170

> <Gold.PLP.Chemscore.Hbond>
4.5180

> <Gold.PLP.Chemscore.CHOScore>
0.0000

> <Gold.PLP.Chemscore.Metal>
0.0000

> <Gold.Chemscore.Hbonds>
donor molecule, donor type, donor heavy atom, donor atom, acceptor molecule, acceptor atom, score
      L1  H     8    27       P1  7957  0.27
      L1  H    11    30       P1  7957  0.97
      P1  H  7989  7998       L1     8  0.30
      P1  H  7997  8010       L1    15  2.00
      P1  H  8011  8017       L1     8  0.95

> <Gold.PLP.Chemscore.Internal.Correction>
0.0242

> <Gold.Rescore>
     Score         DG    S(hbond)    S(metal)    S(lipo)     H(rot)  DE(clash)    DE(int)     intcor
     11.93     -14.26       3.00        0.00      48.19       2.69       0.14       2.18       ----

> <Gold.Chemscore.Fitness>
11.9332

> <Gold.Chemscore.DG>
-14.2608

> <Gold.Chemscore.ZeroCoef>
-5.4800

> <Gold.Chemscore.Hbond>
3.0004

> <Gold.Chemscore.Metal>
0.0000

> <Gold.Chemscore.Lipo>
48.1927

> <Gold.Chemscore.Internal_Hbond>
0.0000

> <Gold.Chemscore.DEClash>
0.1445

> <Gold.Chemscore.DEInternal>
2.1831

> <Gold.Chemscore.Rot>
2.6871

> <Gold.Chemscore.Internal.Correction>
   9.000000E+99

> <Gold.Chemscore.Hbonds>
donor molecule, donor type, donor heavy atom, donor atom, acceptor molecule, acceptor atom, score
      L1  H     8    27       P1  7957  0.28
      L1  H    11    30       P1  7957  0.87
      P1  H  7989  7998       L1     8  0.25
      P1  H  7997  8010       L1    15  0.22
      P1  H  8011  8017       L1     8  0.13

> <Gold.Chemscore.Hbond.Weighted>
-10.0213

> <Gold.Chemscore.Metal.Weighted>
-0.0000

> <Gold.Chemscore.Lipo.Weighted>
-5.6385

> <Gold.Chemscore.Internal_Hbond.Weighted>
0.0000

> <Gold.Chemscore.DEClash.Weighted>
0.1445

> <Gold.Chemscore.DEInternal.Weighted>
2.1831

> <Gold.Chemscore.Rot.Weighted>
6.8791

> <Gold.Chemscore.Internal.Correction.Weighted>
   9.000000E+99

> <Gold.Protein.RotatedTorsions>
[ 6907 6896 6895 6894 ] final  152.45 input  -60.11 | X-H torsion
[ 7974 7965 7964 7962 ] final -146.39 input  175.53 | X-H torsion
[ 8008 7997 7996 7995 ] final   45.05 input   59.86 | X-H torsion
[ 10167 10162 10161 10158 ] final   23.20 input  -65.29 | X-H torsion
[ 10718 10713 10712 10709 ] final   17.64 input   66.30 | X-H torsion
[ 10763 10752 10751 10750 ] final   12.62 input  -60.55 | X-H torsion
[ 11005 11000 10999 10996 ] final  -10.51 input  -57.11 | X-H torsion

> <Gold.Protein.ActiveResidues>
 VAL166  LYS551  ARG553  GLY616  TRP617  ASP618  TYR619  PRO620  LYS621  CYS622 
 ASP623  PHE694  ASN695  SER759  ASP760  ASP761  ALA762  ILE779  LEU786  VAL792 
 PHE793  MET794  SER795  GLU796  ALA797  LYS798  CYS799  TRP800  GLU811  SER814 

> <Gold.Protein.RotatedAtoms>
  152.0865  133.4179  159.4524 H   0  0  0  0  0  0  0  0  0  0  0  0  # atno 6907 bound_to 6896
  150.6862  134.2921  159.4680 H   0  0  0  0  0  0  0  0  0  0  0  0  # atno 6908 bound_to 6896
  152.0768  134.9497  160.0624 H   0  0  0  0  0  0  0  0  0  0  0  0  # atno 6909 bound_to 6896
  144.8163  140.5462  143.5609 H   0  0  0  0  0  0  0  0  0  0  0  0  # atno 7974 bound_to 7965
  155.3295  140.3401  155.4240 H   0  0  0  0  0  0  0  0  0  0  0  0  # atno 8008 bound_to 7997
  156.1869  140.1683  156.8205 H   0  0  0  0  0  0  0  0  0  0  0  0  # atno 8009 bound_to 7997
  154.5396  140.0727  156.8471 H   0  0  0  0  0  0  0  0  0  0  0  0  # atno 8010 bound_to 7997
  140.5288  143.9878  150.6454 H   0  0  0  0  0  0  0  0  0  0  0  0  # atno 10167 bound_to 10162
  157.0851  130.6404  149.5835 H   0  0  0  0  0  0  0  0  0  0  0  0  # atno 10718 bound_to 10713
  153.1804  135.6827  153.8485 H   0  0  0  0  0  0  0  0  0  0  0  0  # atno 10763 bound_to 10752
  153.7819  135.3181  155.3368 H   0  0  0  0  0  0  0  0  0  0  0  0  # atno 10764 bound_to 10752
  154.8056  135.4750  154.0479 H   0  0  0  0  0  0  0  0  0  0  0  0  # atno 10765 bound_to 10752
  140.7455  133.8635  155.9002 H   0  0  0  0  0  0  0  0  0  0  0  0  # atno 11005 bound_to 11000
  145.5208  139.1477  143.3553 LP  0  0  0  0  0  0  0  0  0  0  0  0  # atno 17320 bound_to 7965
  146.2466  140.5349  142.8911 LP  0  0  0  0  0  0  0  0  0  0  0  0  # atno 17321 bound_to 7965
  140.3247  143.3115  152.0749 LP  0  0  0  0  0  0  0  0  0  0  0  0  # atno 17342 bound_to 10162
  139.4947  144.6550  151.6592 LP  0  0  0  0  0  0  0  0  0  0  0  0  # atno 17343 bound_to 10162
  155.9913  130.4967  150.7293 LP  0  0  0  0  0  0  0  0  0  0  0  0  # atno 17370 bound_to 10713
  157.4768  131.0898  151.0581 LP  0  0  0  0  0  0  0  0  0  0  0  0  # atno 17371 bound_to 10713
  140.9798  134.1420  157.4504 LP  0  0  0  0  0  0  0  0  0  0  0  0  # atno 17394 bound_to 11000
  139.8797  135.0007  156.6024 LP  0  0  0  0  0  0  0  0  0  0  0  0  # atno 17395 bound_to 11000

$$$$
