AV-unprocessed.smi:265|AV-procd|sdf|2021|dock3
  -GOLD-   2262021223D 1   1.00000     0.00000
 Structure written by MMmdl.
 52 56  0  0  0  0  0  0  0  0  1 V2000
  148.3346  137.0029  156.8611 C   0  0  0  0  0  0  0  0  0  0  0  0
  147.5396  137.9867  155.9866 C   0  0  2  0  0  0  0  0  0  0  0  0
  146.1780  137.5611  155.9809 O   0  0  0  0  0  0  0  0  0  0  0  0
  145.6177  137.7950  154.7008 C   0  0  0  0  0  0  0  0  0  0  0  0
  146.7743  137.4684  153.7710 C   0  0  0  0  0  0  0  0  0  0  0  0
  147.9677  138.0886  154.4961 C   0  0  2  0  0  0  0  0  0  0  0  0
  149.1204  137.3177  154.2034 O   0  0  0  0  0  0  0  0  0  0  0  0
  148.2482  139.5631  154.0989 C   0  0  0  0  0  0  0  0  0  0  0  0
  149.0186  140.3163  155.0779 N   0  0  0  0  0  0  0  0  0  0  0  0
  150.3900  140.4271  155.1335 C   0  0  0  0  0  0  0  0  0  0  0  0
  150.8505  141.1679  156.1038 N   0  0  0  0  0  0  0  0  0  0  0  0
  149.7101  141.6113  156.7632 C   0  0  0  0  0  0  0  0  0  0  0  0
  149.4807  142.4510  157.8898 C   0  0  0  0  0  0  0  0  0  0  0  0
  150.4906  143.0078  158.6056 N   0  0  0  0  0  0  0  0  0  0  0  0
  150.1398  143.9991  159.6221 C   0  0  0  0  0  0  0  0  0  0  0  0
  151.3751  144.8139  160.0348 C   0  0  0  0  0  0  0  0  0  0  0  0
  152.5402  143.9085  160.4670 C   0  0  1  0  0  0  0  0  0  0  0  0
  152.2267  143.2497  161.6873 O   0  0  0  0  0  0  0  0  0  0  0  0
  153.3251  142.5317  162.2527 C   0  0  0  0  0  0  0  0  0  0  0  0
  154.0247  141.6248  161.2232 C   0  0  0  0  0  0  0  0  0  0  0  0
  154.7861  140.7387  161.6041 O   0  0  0  0  0  0  0  0  0  0  0  0
  153.8078  141.8630  159.9196 N   0  0  0  0  0  0  0  0  0  0  0  0
  152.8304  142.8197  159.4111 C   0  0  1  0  0  0  0  0  0  0  0  0
  151.5446  142.0746  158.9981 C   0  0  0  0  0  0  0  0  0  0  0  0
  148.1878  142.6873  158.2396 N   0  0  0  0  0  0  0  0  0  0  0  0
  147.1883  142.1376  157.5437 C   0  0  0  0  0  0  0  0  0  0  0  0
  147.2554  141.3339  156.4808 N   0  0  0  0  0  0  0  0  0  0  0  0
  148.5487  141.0948  156.1218 C   0  0  0  0  0  0  0  0  0  0  0  0
  153.4241  144.5307  160.6211 H   0  0  0  0  0  0  0  0  0  0  0  0
  153.2561  143.2944  158.5261 H   0  0  0  0  0  0  0  0  0  0  0  0
  149.3852  137.2878  156.9231 H   0  0  0  0  0  0  0  0  0  0  0  0
  148.2807  135.9878  156.4661 H   0  0  0  0  0  0  0  0  0  0  0  0
  147.9397  136.9830  157.8770 H   0  0  0  0  0  0  0  0  0  0  0  0
  147.5761  138.9718  156.4543 H   0  0  0  0  0  0  0  0  0  0  0  0
  144.7432  137.1688  154.5241 H   0  0  0  0  0  0  0  0  0  0  0  0
  145.3206  138.8408  154.6102 H   0  0  0  0  0  0  0  0  0  0  0  0
  146.8815  136.3833  153.7198 H   0  0  0  0  0  0  0  0  0  0  0  0
  146.6186  137.8249  152.7541 H   0  0  0  0  0  0  0  0  0  0  0  0
  148.9640  136.8330  153.4075 H   0  0  0  0  0  0  0  0  0  0  0  0
  148.7892  139.5999  153.1525 H   0  0  0  0  0  0  0  0  0  0  0  0
  147.3083  140.0899  153.9273 H   0  0  0  0  0  0  0  0  0  0  0  0
  151.0432  139.9324  154.4292 H   0  0  0  0  0  0  0  0  0  0  0  0
  149.3732  144.6755  159.2410 H   0  0  0  0  0  0  0  0  0  0  0  0
  149.7193  143.4916  160.4913 H   0  0  0  0  0  0  0  0  0  0  0  0
  151.6942  145.4263  159.1905 H   0  0  0  0  0  0  0  0  0  0  0  0
  151.1183  145.5059  160.8372 H   0  0  0  0  0  0  0  0  0  0  0  0
  154.0531  143.2384  162.6526 H   0  0  0  0  0  0  0  0  0  0  0  0
  152.9641  141.9315  163.0881 H   0  0  0  0  0  0  0  0  0  0  0  0
  154.2942  141.2935  159.2422 H   0  0  0  0  0  0  0  0  0  0  0  0
  151.1752  141.4762  159.8325 H   0  0  0  0  0  0  0  0  0  0  0  0
  151.7755  141.3735  158.1966 H   0  0  0  0  0  0  0  0  0  0  0  0
  146.1925  142.3758  157.8877 H   0  0  0  0  0  0  0  0  0  0  0  0
  1  2  1  0  0  0  0
  1 31  1  0  0  0  0
  1 32  1  0  0  0  0
  1 33  1  0  0  0  0
  2  6  1  0  0  0  0
  2  3  1  0  0  0  0
  2 34  1  0  0  0  0
  3  4  1  0  0  0  0
  4  5  1  0  0  0  0
  4 35  1  0  0  0  0
  4 36  1  0  0  0  0
  5  6  1  0  0  0  0
  5 37  1  0  0  0  0
  5 38  1  0  0  0  0
  6  7  1  0  0  0  0
  6  8  1  0  0  0  0
  7 39  1  0  0  0  0
  8  9  1  0  0  0  0
  8 40  1  0  0  0  0
  8 41  1  0  0  0  0
  9 28  1  0  0  0  0
  9 10  1  0  0  0  0
 10 11  2  0  0  0  0
 10 42  1  0  0  0  0
 11 12  1  0  0  0  0
 12 28  2  0  0  0  0
 12 13  1  0  0  0  0
 13 14  1  0  0  0  0
 13 25  2  0  0  0  0
 14 24  1  0  0  0  0
 14 15  1  0  0  0  0
 15 16  1  0  0  0  0
 15 43  1  0  0  0  0
 15 44  1  0  0  0  0
 16 17  1  0  0  0  0
 16 45  1  0  0  0  0
 16 46  1  0  0  0  0
 17 29  1  0  0  0  0
 17 23  1  0  0  0  0
 17 18  1  0  0  0  0
 18 19  1  0  0  0  0
 19 20  1  0  0  0  0
 19 47  1  0  0  0  0
 19 48  1  0  0  0  0
 20 21  2  0  0  0  0
 20 22  1  0  0  0  0
 22 23  1  0  0  0  0
 22 49  1  0  0  0  0
 23 30  1  0  0  0  0
 23 24  1  0  0  0  0
 24 50  1  0  0  0  0
 24 51  1  0  0  0  0
 25 26  1  0  0  0  0
 26 27  2  0  0  0  0
 26 52  1  0  0  0  0
 27 28  1  0  0  0  0
M  END
> <s_m_source_file>
AV-unprocessed.smi

> <i_m_source_file_index>
265

> <i_lp_mmshare_version>
43012

> <i_f3d_flags>
0

> <s_epik_input>
W0NIMl0xW0NIMl1PW0NAQEhdKFtDSDNdKVtDQEBdMShbT0hdKVtDSDJdbihbY0hdbjIpYyhjMjMpbltjSF1uYzNOKFtDSDJdW0NIMl00KVtDSDJdW0NAQEhdKFtDQEhdNDUpW05IXUMoPU8pW0NIMl1PNQ==

> <s_epik_cmdline>
J2VwaWtfcHl0aG9uJywgJy1waCcsICc3LjAnLCAnLXRuJywgJzgnLCAnLW1hJywgJzIwMCcsICctbWV0YWxfYmluZGluZycsICctaW1hZScsICc8aW5maWxlLm1hZT4nLCAnLW9tYWUnLCAnPG91dGZpbGUubWFlPic=

> <r_lp_tautomer_probability>
1

> <r_epik_Ionization_Penalty>
0.00221504

> <r_epik_Ionization_Penalty_Charging>
0

> <r_epik_Ionization_Penalty_Neutral>
0.00221504

> <r_epik_State_Penalty>
-0

> <r_epik_Charging_Adjusted_Penalty>
0

> <i_epik_Tot_Q>
0

> <i_epik_Tot_abs_Q>
0

> <r_epik_Metal_State_Penalty>
-0

> <b_epik_Metal_Only>
0

> <s_lp_Force_Field>
OPLS_2005

> <r_lp_Energy>
45.2978

> <b_lp_Chiralities_Consistent>
1

> <s_lp_Variant>
AV-unprocessed.smi:265-7

> <Gold.Version>
5.8.1

> <Gold.Id.Protein>
6NUR|6NUR_protein|mol2

> <Gold.PLP.Fitness>
40.7613

> <Gold.PLP.PLP>
-39.0307

> <Gold.PLP.part.hbond>
-1.0409

> <Gold.PLP.part.metal>
0.0000

> <Gold.PLP.part.buried>
-7.2200

> <Gold.PLP.part.nonpolar>
-31.1829

> <Gold.PLP.part.repulsive>
0.9419

> <Gold.PLP.ligand.clash>
0.0000

> <Gold.PLP.ligand.torsion>
0.8235

> <Gold.PLP.Chemscore.Hbond>
1.0000

> <Gold.PLP.Chemscore.CHOScore>
0.0000

> <Gold.PLP.Chemscore.Metal>
0.0000

> <Gold.Chemscore.Hbonds>
donor molecule, donor type, donor heavy atom, donor atom, acceptor molecule, acceptor atom, score
      L1  H     7    39       P1  7948  1.00

> <Gold.PLP.Chemscore.Internal.Correction>
0.3777

> <Gold.Rescore>
     Score         DG    S(hbond)    S(metal)    S(lipo)     H(rot)  DE(clash)    DE(int)     intcor
     12.44     -13.47       1.29        0.00      80.53       2.25       0.36       0.67       ----

> <Gold.Chemscore.Fitness>
12.4419

> <Gold.Chemscore.DG>
-13.4711

> <Gold.Chemscore.ZeroCoef>
-5.4800

> <Gold.Chemscore.Hbond>
1.2926

> <Gold.Chemscore.Metal>
0.0000

> <Gold.Chemscore.Lipo>
80.5266

> <Gold.Chemscore.Internal_Hbond>
0.0000

> <Gold.Chemscore.DEClash>
0.3639

> <Gold.Chemscore.DEInternal>
0.6653

> <Gold.Chemscore.Rot>
2.2453

> <Gold.Chemscore.Internal.Correction>
   9.000000E+99

> <Gold.Chemscore.Hbonds>
donor molecule, donor type, donor heavy atom, donor atom, acceptor molecule, acceptor atom, score
      L1  H     7    39       P1  7948  1.00

> <Gold.Chemscore.Hbond.Weighted>
-4.3174

> <Gold.Chemscore.Metal.Weighted>
-0.0000

> <Gold.Chemscore.Lipo.Weighted>
-9.4216

> <Gold.Chemscore.Internal_Hbond.Weighted>
0.0000

> <Gold.Chemscore.DEClash.Weighted>
0.3639

> <Gold.Chemscore.DEInternal.Weighted>
0.6653

> <Gold.Chemscore.Rot.Weighted>
5.7479

> <Gold.Chemscore.Internal.Correction.Weighted>
   9.000000E+99

> <Gold.Protein.RotatedTorsions>
[ 6907 6896 6895 6894 ] final   99.52 input  -60.11 | X-H torsion
[ 7974 7965 7964 7962 ] final  113.32 input  175.53 | X-H torsion
[ 8008 7997 7996 7995 ] final   10.02 input   59.86 | X-H torsion
[ 10167 10162 10161 10158 ] final  121.84 input  -65.29 | X-H torsion
[ 10718 10713 10712 10709 ] final   93.53 input   66.30 | X-H torsion
[ 10763 10752 10751 10750 ] final -139.73 input  -60.55 | X-H torsion
[ 11005 11000 10999 10996 ] final  -61.58 input  -57.11 | X-H torsion

> <Gold.Protein.ActiveResidues>
 VAL166  LYS551  ARG553  GLY616  TRP617  ASP618  TYR619  PRO620  LYS621  CYS622 
 ASP623  PHE694  ASN695  SER759  ASP760  ASP761  ALA762  ILE779  LEU786  VAL792 
 PHE793  MET794  SER795  GLU796  ALA797  LYS798  CYS799  TRP800  GLU811  SER814 

> <Gold.Protein.RotatedAtoms>
  152.5390  134.0415  159.8069 H   0  0  0  0  0  0  0  0  0  0  0  0  # atno 6907 bound_to 6896
  151.0571  133.5568  159.2644 H   0  0  0  0  0  0  0  0  0  0  0  0  # atno 6908 bound_to 6896
  151.2480  135.0620  159.9105 H   0  0  0  0  0  0  0  0  0  0  0  0  # atno 6909 bound_to 6896
  145.2184  139.2873  143.4231 H   0  0  0  0  0  0  0  0  0  0  0  0  # atno 7974 bound_to 7965
  154.7878  140.2830  155.6014 H   0  0  0  0  0  0  0  0  0  0  0  0  # atno 8008 bound_to 7997
  156.2960  140.2610  156.2647 H   0  0  0  0  0  0  0  0  0  0  0  0  # atno 8009 bound_to 7997
  154.9706  140.0376  157.2222 H   0  0  0  0  0  0  0  0  0  0  0  0  # atno 8010 bound_to 7997
  139.5895  144.7020  151.3325 H   0  0  0  0  0  0  0  0  0  0  0  0  # atno 10167 bound_to 10162
  157.6954  131.0481  150.4048 H   0  0  0  0  0  0  0  0  0  0  0  0  # atno 10718 bound_to 10713
  154.8600  135.3574  154.5594 H   0  0  0  0  0  0  0  0  0  0  0  0  # atno 10763 bound_to 10752
  153.6209  135.7006  153.5315 H   0  0  0  0  0  0  0  0  0  0  0  0  # atno 10764 bound_to 10752
  153.3129  135.4173  155.1311 H   0  0  0  0  0  0  0  0  0  0  0  0  # atno 10765 bound_to 10752
  141.1329  133.6631  156.5396 H   0  0  0  0  0  0  0  0  0  0  0  0  # atno 11005 bound_to 11000
  146.3381  140.2482  142.8597 LP  0  0  0  0  0  0  0  0  0  0  0  0  # atno 17320 bound_to 7965
  144.9789  140.8440  143.5409 LP  0  0  0  0  0  0  0  0  0  0  0  0  # atno 17321 bound_to 7965
  140.7161  143.7263  150.7657 LP  0  0  0  0  0  0  0  0  0  0  0  0  # atno 17342 bound_to 10162
  140.0815  143.4964  152.2527 LP  0  0  0  0  0  0  0  0  0  0  0  0  # atno 17343 bound_to 10162
  156.4438  130.3997  149.6680 LP  0  0  0  0  0  0  0  0  0  0  0  0  # atno 17370 bound_to 10713
  156.3854  130.7600  151.2597 LP  0  0  0  0  0  0  0  0  0  0  0  0  # atno 17371 bound_to 10713
  140.4150  134.7238  157.4857 LP  0  0  0  0  0  0  0  0  0  0  0  0  # atno 17394 bound_to 11000
  140.0400  134.6281  155.8993 LP  0  0  0  0  0  0  0  0  0  0  0  0  # atno 17395 bound_to 11000

$$$$
