AV-unprocessed.smi:1960|AV-procd|sdf|7917|dock10
  -GOLD-   2272010 83D 1   1.00000     0.00000
 Structure written by MMmdl.
 39 40  0  0  0  0  0  0  0  0  2 V2000
  150.0529  141.6808  156.5382 C   0  0  0  0  0  0  0  0  0  0  0  0
  149.6257  140.8455  154.9561 S   0  0  0  0  0  0  0  0  0  0  0  0
  149.2080  141.8749  153.9919 O   0  0  0  0  0  0  0  0  0  0  0  0
  150.7217  139.9265  154.6123 O   0  0  0  0  0  0  0  0  0  0  0  0
  148.2285  139.8843  155.3478 N   0  0  0  0  0  0  0  0  0  0  0  0
  146.9584  140.1014  154.6264 C   0  0  0  0  0  0  0  0  0  0  0  0
  146.7268  139.0309  153.5452 C   0  0  0  0  0  0  0  0  0  0  0  0
  146.8226  137.6117  154.1307 C   0  0  0  0  0  0  0  0  0  0  0  0
  146.6755  136.6034  153.0843 N   0  0  0  0  0  0  0  0  0  0  0  0
  145.5704  135.8775  152.8613 C   0  0  0  0  0  0  0  0  0  0  0  0
  144.5376  135.9938  153.5204 O   0  0  0  0  0  0  0  0  0  0  0  0
  145.7393  135.0383  151.8245 N   0  0  0  0  0  0  0  0  0  0  0  0
  144.8158  134.1026  151.2829 C   0  0  0  0  0  0  0  0  0  0  0  0
  143.5466  134.0068  151.8959 C   0  0  0  0  0  0  0  0  0  0  0  0
  142.5926  133.1039  151.3836 C   0  0  0  0  0  0  0  0  0  0  0  0
  142.8939  132.3462  150.3073 N   0  3  0  0  0  0  0  0  0  0  0  0
  144.0872  132.4127  149.6789 C   0  0  0  0  0  0  0  0  0  0  0  0
  145.0810  133.2971  150.1457 C   0  0  0  0  0  0  0  0  0  0  0  0
  148.1797  137.4432  154.8292 C   0  0  0  0  0  0  0  0  0  0  0  0
  148.3980  138.5256  155.9011 C   0  0  0  0  0  0  0  0  0  0  0  0
  150.9271  142.3120  156.3815 H   0  0  0  0  0  0  0  0  0  0  0  0
  150.2864  140.9380  157.2989 H   0  0  0  0  0  0  0  0  0  0  0  0
  149.2223  142.3037  156.8654 H   0  0  0  0  0  0  0  0  0  0  0  0
  146.1429  140.0694  155.3498 H   0  0  0  0  0  0  0  0  0  0  0  0
  146.9375  141.0972  154.1847 H   0  0  0  0  0  0  0  0  0  0  0  0
  145.7468  139.1852  153.0925 H   0  0  0  0  0  0  0  0  0  0  0  0
  147.4531  139.1504  152.7420 H   0  0  0  0  0  0  0  0  0  0  0  0
  146.0338  137.4757  154.8733 H   0  0  0  0  0  0  0  0  0  0  0  0
  147.4771  136.4474  152.4908 H   0  0  0  0  0  0  0  0  0  0  0  0
  146.6153  135.1183  151.3294 H   0  0  0  0  0  0  0  0  0  0  0  0
  143.3043  134.6140  152.7561 H   0  0  0  0  0  0  0  0  0  0  0  0
  141.6044  132.9678  151.7979 H   0  0  0  0  0  0  0  0  0  0  0  0
  144.2088  131.7657  148.8223 H   0  0  0  0  0  0  0  0  0  0  0  0
  146.0194  133.3485  149.6151 H   0  0  0  0  0  0  0  0  0  0  0  0
  148.2393  136.4579  155.2928 H   0  0  0  0  0  0  0  0  0  0  0  0
  148.9835  137.4815  154.0947 H   0  0  0  0  0  0  0  0  0  0  0  0
  149.3838  138.4190  156.3528 H   0  0  0  0  0  0  0  0  0  0  0  0
  147.6758  138.3907  156.7070 H   0  0  0  0  0  0  0  0  0  0  0  0
  142.1891  131.7001  149.9508 H   0  0  0  0  0  0  0  0  0  0  0  0
  1  2  1  0  0  0  0
  1 21  1  0  0  0  0
  1 22  1  0  0  0  0
  1 23  1  0  0  0  0
  2  3  2  0  0  0  0
  2  4  2  0  0  0  0
  2  5  1  0  0  0  0
  5 20  1  0  0  0  0
  5  6  1  0  0  0  0
  6  7  1  0  0  0  0
  6 24  1  0  0  0  0
  6 25  1  0  0  0  0
  7  8  1  0  0  0  0
  7 26  1  0  0  0  0
  7 27  1  0  0  0  0
  8  9  1  0  0  0  0
  8 19  1  0  0  0  0
  8 28  1  0  0  0  0
  9 10  1  0  0  0  0
  9 29  1  0  0  0  0
 10 11  2  0  0  0  0
 10 12  1  0  0  0  0
 12 13  1  0  0  0  0
 12 30  1  0  0  0  0
 13 18  1  0  0  0  0
 13 14  2  0  0  0  0
 14 15  1  0  0  0  0
 14 31  1  0  0  0  0
 15 16  2  0  0  0  0
 15 32  1  0  0  0  0
 16 17  1  0  0  0  0
 16 39  1  0  0  0  0
 17 18  2  0  0  0  0
 17 33  1  0  0  0  0
 18 34  1  0  0  0  0
 19 20  1  0  0  0  0
 19 35  1  0  0  0  0
 19 36  1  0  0  0  0
 20 37  1  0  0  0  0
 20 38  1  0  0  0  0
M  CHG  1  16   1
M  END
> <s_m_source_file>
AV-unprocessed.smi

> <i_m_source_file_index>
1960

> <i_lp_mmshare_version>
43012

> <i_f3d_flags>
0

> <s_epik_input>
W0NIM11TKD1PKSg9TylOMVtDSDJdW0NIMl1bQ0hdKFtDSDJdW0NIMl0xKVtOSF1DKD1PKVtOSF1jMltjSF1bY0hdbltjSF1bY0hdMg==

> <s_epik_cmdline>
J2VwaWtfcHl0aG9uJywgJy1waCcsICc3LjAnLCAnLXRuJywgJzgnLCAnLW1hJywgJzIwMCcsICctbWV0YWxfYmluZGluZycsICctaW1hZScsICc8aW5maWxlLm1hZT4nLCAnLW9tYWUnLCAnPG91dGZpbGUubWFlPic=

> <r_epik_Ionization_Penalty>
1.01996

> <r_epik_Ionization_Penalty_Charging>
1.01994

> <r_epik_Ionization_Penalty_Neutral>
1.92463e-05

> <r_epik_State_Penalty>
1.07014

> <r_epik_Charging_Adjusted_Penalty>
2.09007

> <i_epik_Tot_Q>
1

> <i_epik_Tot_abs_Q>
1

> <r_epik_Metal_State_Penalty>
1.16909

> <b_epik_Metal_Only>
0

> <s_lp_Force_Field>
OPLS_2005

> <r_lp_Energy>
12.0857

> <b_lp_Chiralities_Consistent>
1

> <s_lp_Variant>
AV-unprocessed.smi:1960-2

> <Gold.Version>
5.8.1

> <Gold.Id.Protein>
6NUR|6NUR_protein|mol2

> <Gold.PLP.Fitness>
36.7863

> <Gold.PLP.PLP>
-26.7473

> <Gold.PLP.part.hbond>
-5.9245

> <Gold.PLP.part.metal>
0.0000

> <Gold.PLP.part.buried>
-1.1567

> <Gold.PLP.part.nonpolar>
-19.6033

> <Gold.PLP.part.repulsive>
0.4775

> <Gold.PLP.ligand.clash>
0.0000

> <Gold.PLP.ligand.torsion>
1.2504

> <Gold.PLP.Chemscore.Hbond>
3.4960

> <Gold.PLP.Chemscore.CHOScore>
0.0000

> <Gold.PLP.Chemscore.Metal>
0.0000

> <Gold.Chemscore.Hbonds>
donor molecule, donor type, donor heavy atom, donor atom, acceptor molecule, acceptor atom, score
      L1  H     9    29       P1  7948  1.00
      L1  H    16    39       P1 10952  1.00
      P1  H  7989  7998       L1     4  1.00
      P1  H  8011  8017       L1     3  0.50

> <Gold.PLP.Chemscore.Internal.Correction>
2.0518

> <Gold.Rescore>
     Score         DG    S(hbond)    S(metal)    S(lipo)     H(rot)  DE(clash)    DE(int)     intcor
     17.81     -20.63       3.22        0.00      59.56       1.00       0.17       2.66       ----

> <Gold.Chemscore.Fitness>
17.8057

> <Gold.Chemscore.DG>
-20.6286

> <Gold.Chemscore.ZeroCoef>
-5.4800

> <Gold.Chemscore.Hbond>
3.2155

> <Gold.Chemscore.Metal>
0.0000

> <Gold.Chemscore.Lipo>
59.5622

> <Gold.Chemscore.Internal_Hbond>
0.0000

> <Gold.Chemscore.DEClash>
0.1661

> <Gold.Chemscore.DEInternal>
2.6567

> <Gold.Chemscore.Rot>
1.0000

> <Gold.Chemscore.Internal.Correction>
   9.000000E+99

> <Gold.Chemscore.Hbonds>
donor molecule, donor type, donor heavy atom, donor atom, acceptor molecule, acceptor atom, score
      L1  H     9    29       P1  7948  0.99
      L1  H    16    39       P1 10952  0.93
      P1  H  7989  7998       L1     4  0.35
      P1  H  8011  8017       L1     3  0.50

> <Gold.Chemscore.Hbond.Weighted>
-10.7398

> <Gold.Chemscore.Metal.Weighted>
-0.0000

> <Gold.Chemscore.Lipo.Weighted>
-6.9688

> <Gold.Chemscore.Internal_Hbond.Weighted>
0.0000

> <Gold.Chemscore.DEClash.Weighted>
0.1661

> <Gold.Chemscore.DEInternal.Weighted>
2.6567

> <Gold.Chemscore.Rot.Weighted>
2.5600

> <Gold.Chemscore.Internal.Correction.Weighted>
   9.000000E+99

> <Gold.Protein.RotatedTorsions>
[ 6907 6896 6895 6894 ] final  132.46 input  -60.11 | X-H torsion
[ 7974 7965 7964 7962 ] final  -47.57 input  175.53 | X-H torsion
[ 8008 7997 7996 7995 ] final  -12.70 input   59.86 | X-H torsion
[ 10167 10162 10161 10158 ] final   46.54 input  -65.29 | X-H torsion
[ 10718 10713 10712 10709 ] final    3.06 input   66.30 | X-H torsion
[ 10763 10752 10751 10750 ] final -167.35 input  -60.55 | X-H torsion
[ 11005 11000 10999 10996 ] final   78.41 input  -57.11 | X-H torsion

> <Gold.Protein.ActiveResidues>
 VAL166  LYS551  ARG553  GLY616  TRP617  ASP618  TYR619  PRO620  LYS621  CYS622 
 ASP623  PHE694  ASN695  SER759  ASP760  ASP761  ALA762  ILE779  LEU786  VAL792 
 PHE793  MET794  SER795  GLU796  ALA797  LYS798  CYS799  TRP800  GLU811  SER814 

> <Gold.Protein.RotatedAtoms>
  152.3322  133.5971  159.5817 H   0  0  0  0  0  0  0  0  0  0  0  0  # atno 6907 bound_to 6896
  150.7429  133.9851  159.3597 H   0  0  0  0  0  0  0  0  0  0  0  0  # atno 6908 bound_to 6896
  151.7724  135.0783  160.0413 H   0  0  0  0  0  0  0  0  0  0  0  0  # atno 6909 bound_to 6896
  145.9602  140.7486  142.9461 H   0  0  0  0  0  0  0  0  0  0  0  0  # atno 7974 bound_to 7965
  154.5355  140.2269  155.8730 H   0  0  0  0  0  0  0  0  0  0  0  0  # atno 8008 bound_to 7997
  156.1807  140.3101  155.9106 H   0  0  0  0  0  0  0  0  0  0  0  0  # atno 8009 bound_to 7997
  155.3363  140.0448  157.3034 H   0  0  0  0  0  0  0  0  0  0  0  0  # atno 8010 bound_to 7997
  140.3129  144.2798  150.6196 H   0  0  0  0  0  0  0  0  0  0  0  0  # atno 10167 bound_to 10162
  156.8722  130.5624  149.5657 H   0  0  0  0  0  0  0  0  0  0  0  0  # atno 10718 bound_to 10713
  154.6741  135.2944  154.9702 H   0  0  0  0  0  0  0  0  0  0  0  0  # atno 10763 bound_to 10752
  154.0719  135.6617  153.4829 H   0  0  0  0  0  0  0  0  0  0  0  0  # atno 10764 bound_to 10752
  153.0505  135.5177  154.7751 H   0  0  0  0  0  0  0  0  0  0  0  0  # atno 10765 bound_to 10752
  139.9214  134.7761  156.1646 H   0  0  0  0  0  0  0  0  0  0  0  0  # atno 11005 bound_to 11000
  144.6813  140.2578  143.7323 LP  0  0  0  0  0  0  0  0  0  0  0  0  # atno 17320 bound_to 7965
  145.8050  139.1980  143.2026 LP  0  0  0  0  0  0  0  0  0  0  0  0  # atno 17321 bound_to 7965
  140.5552  143.2200  151.7859 LP  0  0  0  0  0  0  0  0  0  0  0  0  # atno 17342 bound_to 10162
  139.4890  144.4423  151.9750 LP  0  0  0  0  0  0  0  0  0  0  0  0  # atno 17343 bound_to 10162
  156.0721  130.5751  150.9403 LP  0  0  0  0  0  0  0  0  0  0  0  0  # atno 17370 bound_to 10713
  157.6189  131.0931  150.8659 LP  0  0  0  0  0  0  0  0  0  0  0  0  # atno 17371 bound_to 10713
  141.0737  133.6785  156.2193 LP  0  0  0  0  0  0  0  0  0  0  0  0  # atno 17394 bound_to 11000
  140.6464  134.5113  157.5574 LP  0  0  0  0  0  0  0  0  0  0  0  0  # atno 17395 bound_to 11000

$$$$
