AV-unprocessed.smi:2801|AV-procd|sdf|10799|dock2
  -GOLD-   2272015233D 1   1.00000     0.00000
 Structure written by MMmdl.
 32 32  0  0  0  0  0  0  0  0  1 V2000
  150.6934  145.3559  159.9556 C   0  0  0  0  0  0  0  0  0  0  0  0
  152.0278  144.6282  160.1317 C   0  0  0  0  0  0  0  0  0  0  0  0
  152.1161  143.5969  159.1559 O   0  0  0  0  0  0  0  0  0  0  0  0
  151.9892  142.2678  159.6571 C   0  0  2  0  0  0  0  0  0  0  0  0
  153.1203  142.0369  160.6770 C   0  0  0  0  0  0  0  0  0  0  0  0
  152.7126  142.4024  162.1097 C   0  0  0  0  0  0  0  0  0  0  0  0
  152.0695  141.2575  158.5006 C   0  0  0  0  0  0  0  0  0  0  0  0
  152.9549  140.4028  158.5032 O   0  0  0  0  0  0  0  0  0  0  0  0
  151.1531  141.4136  157.5269 N   0  0  0  0  0  0  0  0  0  0  0  0
  150.9561  140.6540  156.3390 C   0  0  0  0  0  0  0  0  0  0  0  0
  151.7641  139.5549  155.9582 C   0  0  0  0  0  0  0  0  0  0  0  0
  151.4575  138.8692  154.7661 C   0  0  0  0  0  0  0  0  0  0  0  0
  150.4246  139.1978  153.9627 N   0  0  0  0  0  0  0  0  0  0  0  0
  149.6477  140.2364  154.3329 C   0  0  0  0  0  0  0  0  0  0  0  0
  149.8649  140.9907  155.5044 C   0  0  0  0  0  0  0  0  0  0  0  0
  149.0267  142.0259  155.8112 O   0  0  0  0  0  0  0  0  0  0  0  0
  150.5888  146.1595  160.6846 H   0  0  0  0  0  0  0  0  0  0  0  0
  149.8544  144.6725  160.0890 H   0  0  0  0  0  0  0  0  0  0  0  0
  150.6147  145.7935  158.9601 H   0  0  0  0  0  0  0  0  0  0  0  0
  152.8518  145.3321  160.0071 H   0  0  0  0  0  0  0  0  0  0  0  0
  152.0901  144.2226  161.1420 H   0  0  0  0  0  0  0  0  0  0  0  0
  151.0314  142.1606  160.1706 H   0  0  0  0  0  0  0  0  0  0  0  0
  153.4230  140.9888  160.6601 H   0  0  0  0  0  0  0  0  0  0  0  0
  154.0018  142.6144  160.3952 H   0  0  0  0  0  0  0  0  0  0  0  0
  153.5305  142.2159  162.8057 H   0  0  0  0  0  0  0  0  0  0  0  0
  151.8560  141.8135  162.4383 H   0  0  0  0  0  0  0  0  0  0  0  0
  152.4448  143.4564  162.1876 H   0  0  0  0  0  0  0  0  0  0  0  0
  150.5413  142.2108  157.6260 H   0  0  0  0  0  0  0  0  0  0  0  0
  152.5973  139.2150  156.5524 H   0  0  0  0  0  0  0  0  0  0  0  0
  152.0570  138.0277  154.4523 H   0  0  0  0  0  0  0  0  0  0  0  0
  148.8242  140.4716  153.6748 H   0  0  0  0  0  0  0  0  0  0  0  0
  149.3834  142.8701  155.5793 H   0  0  0  0  0  0  0  0  0  0  0  0
  1  2  1  0  0  0  0
  1 17  1  0  0  0  0
  1 18  1  0  0  0  0
  1 19  1  0  0  0  0
  2  3  1  0  0  0  0
  2 20  1  0  0  0  0
  2 21  1  0  0  0  0
  3  4  1  0  0  0  0
  4  5  1  0  0  0  0
  4  7  1  0  0  0  0
  4 22  1  0  0  0  0
  5  6  1  0  0  0  0
  5 23  1  0  0  0  0
  5 24  1  0  0  0  0
  6 25  1  0  0  0  0
  6 26  1  0  0  0  0
  6 27  1  0  0  0  0
  7  8  2  0  0  0  0
  7  9  1  0  0  0  0
  9 10  1  0  0  0  0
  9 28  1  0  0  0  0
 10 15  1  0  0  0  0
 10 11  2  0  0  0  0
 11 12  1  0  0  0  0
 11 29  1  0  0  0  0
 12 13  2  0  0  0  0
 12 30  1  0  0  0  0
 13 14  1  0  0  0  0
 14 15  2  0  0  0  0
 14 31  1  0  0  0  0
 15 16  1  0  0  0  0
 16 32  1  0  0  0  0
M  END
> <s_m_source_file>
AV-unprocessed.smi

> <i_m_source_file_index>
2801

> <i_lp_mmshare_version>
43012

> <i_f3d_flags>
0

> <s_epik_input>
W0NIM11bQ0gyXU9bQ0BIXShbQ0gyXVtDSDNdKUMoPU8pW05IXWMxW2NIXVtjSF1uW2NIXWMxW09IXQ==

> <s_epik_cmdline>
J2VwaWtfcHl0aG9uJywgJy1waCcsICc3LjAnLCAnLXRuJywgJzgnLCAnLW1hJywgJzIwMCcsICctbWV0YWxfYmluZGluZycsICctaW1hZScsICc8aW5maWxlLm1hZT4nLCAnLW9tYWUnLCAnPG91dGZpbGUubWFlPic=

> <r_lp_tautomer_probability>
0.43658

> <r_epik_Ionization_Penalty>
0.0250035

> <r_epik_Ionization_Penalty_Charging>
0

> <r_epik_Ionization_Penalty_Neutral>
0.0250035

> <r_epik_State_Penalty>
0.520524

> <r_epik_Charging_Adjusted_Penalty>
0.520524

> <i_epik_Tot_Q>
0

> <i_epik_Tot_abs_Q>
0

> <r_epik_Metal_State_Penalty>
0.772586

> <b_epik_Metal_Only>
0

> <s_lp_Force_Field>
OPLS_2005

> <r_lp_Energy>
11.8743

> <b_lp_Chiralities_Consistent>
1

> <s_lp_Variant>
AV-unprocessed.smi:2801-3

> <Gold.Version>
5.8.1

> <Gold.Id.Protein>
6NUR|6NUR_protein|mol2

> <Gold.PLP.Fitness>
41.7248

> <Gold.PLP.PLP>
-37.5208

> <Gold.PLP.part.hbond>
-2.8803

> <Gold.PLP.part.metal>
0.0000

> <Gold.PLP.part.buried>
-3.1597

> <Gold.PLP.part.nonpolar>
-31.8212

> <Gold.PLP.part.repulsive>
0.8336

> <Gold.PLP.ligand.clash>
0.0000

> <Gold.PLP.ligand.torsion>
0.7439

> <Gold.PLP.Chemscore.Hbond>
1.7120

> <Gold.PLP.Chemscore.CHOScore>
0.1812

> <Gold.PLP.Chemscore.Metal>
0.0000

> <Gold.Chemscore.Hbonds>
donor molecule, donor type, donor heavy atom, donor atom, acceptor molecule, acceptor atom, score
      L1  H    16    32       P1  8028  0.78
      P1  H  7997  8008       L1     8  0.44
      L1  C    14    31       P1  7957  0.37

> <Gold.PLP.Chemscore.Internal.Correction>
0.0123

> <Gold.Rescore>
     Score         DG    S(hbond)    S(metal)    S(lipo)     H(rot)  DE(clash)    DE(int)     intcor
     14.41     -16.44       1.87        0.00      86.57       2.11       0.02       2.01       ----

> <Gold.Chemscore.Fitness>
14.4125

> <Gold.Chemscore.DG>
-16.4403

> <Gold.Chemscore.ZeroCoef>
-5.4800

> <Gold.Chemscore.Hbond>
1.8683

> <Gold.Chemscore.Metal>
0.0000

> <Gold.Chemscore.Lipo>
86.5729

> <Gold.Chemscore.Internal_Hbond>
0.0000

> <Gold.Chemscore.DEClash>
0.0171

> <Gold.Chemscore.DEInternal>
2.0107

> <Gold.Chemscore.Rot>
2.1129

> <Gold.Chemscore.Internal.Correction>
   9.000000E+99

> <Gold.Chemscore.Hbonds>
donor molecule, donor type, donor heavy atom, donor atom, acceptor molecule, acceptor atom, score
      L1  H    16    32       P1  8028  0.77
      P1  H  7997  8008       L1     8  0.45

> <Gold.Chemscore.Hbond.Weighted>
-6.2402

> <Gold.Chemscore.Metal.Weighted>
-0.0000

> <Gold.Chemscore.Lipo.Weighted>
-10.1290

> <Gold.Chemscore.Internal_Hbond.Weighted>
0.0000

> <Gold.Chemscore.DEClash.Weighted>
0.0171

> <Gold.Chemscore.DEInternal.Weighted>
2.0107

> <Gold.Chemscore.Rot.Weighted>
5.4089

> <Gold.Chemscore.Internal.Correction.Weighted>
   9.000000E+99

> <Gold.Protein.RotatedTorsions>
[ 6907 6896 6895 6894 ] final  -26.47 input  -60.11 | X-H torsion
[ 7974 7965 7964 7962 ] final   19.00 input  175.53 | X-H torsion
[ 8008 7997 7996 7995 ] final  -83.30 input   59.86 | X-H torsion
[ 10167 10162 10161 10158 ] final  -89.58 input  -65.29 | X-H torsion
[ 10718 10713 10712 10709 ] final  137.98 input   66.30 | X-H torsion
[ 10763 10752 10751 10750 ] final  -57.97 input  -60.55 | X-H torsion
[ 11005 11000 10999 10996 ] final   15.77 input  -57.11 | X-H torsion

> <Gold.Protein.ActiveResidues>
 VAL166  LYS551  ARG553  GLY616  TRP617  ASP618  TYR619  PRO620  LYS621  CYS622 
 ASP623  PHE694  ASN695  SER759  ASP760  ASP761  ALA762  ILE779  LEU786  VAL792 
 PHE793  MET794  SER795  GLU796  ALA797  LYS798  CYS799  TRP800  GLU811  SER814 

> <Gold.Protein.RotatedAtoms>
  151.1606  135.0271  159.8708 H   0  0  0  0  0  0  0  0  0  0  0  0  # atno 6907 bound_to 6896
  152.5451  134.1284  159.8439 H   0  0  0  0  0  0  0  0  0  0  0  0  # atno 6908 bound_to 6896
  151.1379  133.4945  159.2630 H   0  0  0  0  0  0  0  0  0  0  0  0  # atno 6909 bound_to 6896
  146.2165  139.8376  142.8647 H   0  0  0  0  0  0  0  0  0  0  0  0  # atno 7974 bound_to 7965
  154.6176  140.0621  156.9574 H   0  0  0  0  0  0  0  0  0  0  0  0  # atno 8008 bound_to 7997
  155.1870  140.3304  155.4346 H   0  0  0  0  0  0  0  0  0  0  0  0  # atno 8009 bound_to 7997
  156.2413  140.1887  156.6963 H   0  0  0  0  0  0  0  0  0  0  0  0  # atno 8010 bound_to 7997
  140.3634  143.2830  151.9587 H   0  0  0  0  0  0  0  0  0  0  0  0  # atno 10167 bound_to 10162
  157.4302  131.1048  151.0258 H   0  0  0  0  0  0  0  0  0  0  0  0  # atno 10718 bound_to 10713
  154.2308  135.6361  153.5174 H   0  0  0  0  0  0  0  0  0  0  0  0  # atno 10763 bound_to 10752
  152.9949  135.5519  154.6015 H   0  0  0  0  0  0  0  0  0  0  0  0  # atno 10764 bound_to 10752
  154.5497  135.2900  155.0994 H   0  0  0  0  0  0  0  0  0  0  0  0  # atno 10765 bound_to 10752
  140.4546  134.1190  155.7707 H   0  0  0  0  0  0  0  0  0  0  0  0  # atno 11005 bound_to 11000
  145.2932  141.0173  143.3651 LP  0  0  0  0  0  0  0  0  0  0  0  0  # atno 17320 bound_to 7965
  144.9062  139.4587  143.6609 LP  0  0  0  0  0  0  0  0  0  0  0  0  # atno 17321 bound_to 7965
  139.4811  144.5972  151.7669 LP  0  0  0  0  0  0  0  0  0  0  0  0  # atno 17342 bound_to 10162
  140.5104  144.1033  150.5994 LP  0  0  0  0  0  0  0  0  0  0  0  0  # atno 17343 bound_to 10162
  157.1157  130.6040  149.5493 LP  0  0  0  0  0  0  0  0  0  0  0  0  # atno 17370 bound_to 10713
  155.9910  130.4964  150.7283 LP  0  0  0  0  0  0  0  0  0  0  0  0  # atno 17371 bound_to 10713
  141.1649  133.8722  157.1743 LP  0  0  0  0  0  0  0  0  0  0  0  0  # atno 17394 bound_to 11000
  139.9985  135.0037  157.0136 LP  0  0  0  0  0  0  0  0  0  0  0  0  # atno 17395 bound_to 11000

$$$$
