AV-unprocessed.smi:2923|AV-procd|sdf|11210|dock3
  -GOLD-   2272016103D 1   1.00000     0.00000
 Structure written by MMmdl.
 46 48  0  0  0  0  0  0  0  0  1 V2000
  151.5603  140.7579  158.3995 C   0  0  0  0  0  0  0  0  0  0  0  0
  151.3897  141.0262  156.9799 N   0  0  0  0  0  0  0  0  0  0  0  0
  151.0699  142.3986  156.6174 C   0  0  0  0  0  0  0  0  0  0  0  0
  150.5698  140.0862  156.3423 C   0  0  0  0  0  0  0  0  0  0  0  0
  149.6366  139.3118  157.0684 C   0  0  0  0  0  0  0  0  0  0  0  0
  148.8381  138.3838  156.3728 C   0  0  0  0  0  0  0  0  0  0  0  0
  149.0029  138.2542  154.9733 C   0  0  0  0  0  0  0  0  0  0  0  0
  148.2428  137.3751  154.1562 N   0  0  0  0  0  0  0  0  0  0  0  0
  147.1486  136.6660  154.4807 C   0  0  0  0  0  0  0  0  0  0  0  0
  146.6234  136.6318  155.5932 O   0  0  0  0  0  0  0  0  0  0  0  0
  146.6955  135.9719  153.4288 N   0  0  0  0  0  0  0  0  0  0  0  0
  145.5314  135.0800  153.4555 C   0  0  2  0  0  0  0  0  0  0  0  0
  145.9250  133.6090  153.6123 C   0  0  2  0  0  0  0  0  0  0  0  0
  147.1374  132.8730  154.0564 C   0  0  0  0  0  0  0  0  0  0  0  0
  147.1055  131.7695  152.9641 C   0  0  0  0  0  0  0  0  0  0  0  0
  146.1029  132.1879  152.0025 O   0  0  0  0  0  0  0  0  0  0  0  0
  146.0994  133.5979  152.1072 C   0  0  1  0  0  0  0  0  0  0  0  0
  144.9670  134.6471  152.0435 C   0  0  0  0  0  0  0  0  0  0  0  0
  143.5224  134.1172  151.9935 C   0  0  0  0  0  0  0  0  0  0  0  0
  145.0763  135.6648  150.9026 C   0  0  0  0  0  0  0  0  0  0  0  0
  149.9546  139.0835  154.3448 C   0  0  0  0  0  0  0  0  0  0  0  0
  150.7242  139.9738  155.0054 N   0  0  0  0  0  0  0  0  0  0  0  0
  151.7937  139.7062  158.5709 H   0  0  0  0  0  0  0  0  0  0  0  0
  150.6560  141.0057  158.9562 H   0  0  0  0  0  0  0  0  0  0  0  0
  152.3815  141.3537  158.7983 H   0  0  0  0  0  0  0  0  0  0  0  0
  150.9790  142.5030  155.5354 H   0  0  0  0  0  0  0  0  0  0  0  0
  151.8596  143.0703  156.9545 H   0  0  0  0  0  0  0  0  0  0  0  0
  150.1328  142.7174  157.0747 H   0  0  0  0  0  0  0  0  0  0  0  0
  149.5280  139.4271  158.1369 H   0  0  0  0  0  0  0  0  0  0  0  0
  148.1106  137.8064  156.9217 H   0  0  0  0  0  0  0  0  0  0  0  0
  148.6042  137.2317  153.2245 H   0  0  0  0  0  0  0  0  0  0  0  0
  147.1888  136.0544  152.5521 H   0  0  0  0  0  0  0  0  0  0  0  0
  144.7547  135.3874  154.1579 H   0  0  0  0  0  0  0  0  0  0  0  0
  145.0437  133.0526  153.9403 H   0  0  0  0  0  0  0  0  0  0  0  0
  148.0386  133.4844  153.9956 H   0  0  0  0  0  0  0  0  0  0  0  0
  147.0447  132.4690  155.0647 H   0  0  0  0  0  0  0  0  0  0  0  0
  148.0789  131.6736  152.4810 H   0  0  0  0  0  0  0  0  0  0  0  0
  146.8344  130.7966  153.3750 H   0  0  0  0  0  0  0  0  0  0  0  0
  147.0558  134.0062  151.7646 H   0  0  0  0  0  0  0  0  0  0  0  0
  143.3351  133.5725  151.0675 H   0  0  0  0  0  0  0  0  0  0  0  0
  142.7998  134.9326  152.0424 H   0  0  0  0  0  0  0  0  0  0  0  0
  143.2774  133.4400  152.8098 H   0  0  0  0  0  0  0  0  0  0  0  0
  144.7645  135.2350  149.9501 H   0  0  0  0  0  0  0  0  0  0  0  0
  146.0980  136.0192  150.7664 H   0  0  0  0  0  0  0  0  0  0  0  0
  144.4530  136.5397  151.0896 H   0  0  0  0  0  0  0  0  0  0  0  0
  150.1079  139.0300  153.2768 H   0  0  0  0  0  0  0  0  0  0  0  0
  1  2  1  0  0  0  0
  1 23  1  0  0  0  0
  1 24  1  0  0  0  0
  1 25  1  0  0  0  0
  2  3  1  0  0  0  0
  2  4  1  0  0  0  0
  3 26  1  0  0  0  0
  3 27  1  0  0  0  0
  3 28  1  0  0  0  0
  4 22  1  0  0  0  0
  4  5  2  0  0  0  0
  5  6  1  0  0  0  0
  5 29  1  0  0  0  0
  6  7  2  0  0  0  0
  6 30  1  0  0  0  0
  7  8  1  0  0  0  0
  7 21  1  0  0  0  0
  8  9  1  0  0  0  0
  8 31  1  0  0  0  0
  9 10  2  0  0  0  0
  9 11  1  0  0  0  0
 11 12  1  0  0  0  0
 11 32  1  0  0  0  0
 12 18  1  0  0  0  0
 12 13  1  0  0  0  0
 12 33  1  0  0  0  0
 13 17  1  0  0  0  0
 13 14  1  0  0  0  0
 13 34  1  0  0  0  0
 14 15  1  0  0  0  0
 14 35  1  0  0  0  0
 14 36  1  0  0  0  0
 15 16  1  0  0  0  0
 15 37  1  0  0  0  0
 15 38  1  0  0  0  0
 16 17  1  0  0  0  0
 17 18  1  0  0  0  0
 17 39  1  0  0  0  0
 18 19  1  0  0  0  0
 18 20  1  0  0  0  0
 19 40  1  0  0  0  0
 19 41  1  0  0  0  0
 19 42  1  0  0  0  0
 20 43  1  0  0  0  0
 20 44  1  0  0  0  0
 20 45  1  0  0  0  0
 21 22  2  0  0  0  0
 21 46  1  0  0  0  0
M  END
> <s_m_source_file>
AV-unprocessed.smi

> <i_m_source_file_index>
2923

> <i_lp_mmshare_version>
43012

> <i_f3d_flags>
0

> <s_epik_input>
W0NIM11OKFtDSDNdKWMxW2NIXVtjSF1jKFtjSF1uMSlbTkhdQyg9TylbTkhdW0NASF0yQyhbQ0gzXSkoW0NIM10pW0NAQEhdKFtDQEhdMjMpT1tDSDJdW0NIMl0z

> <s_epik_cmdline>
J2VwaWtfcHl0aG9uJywgJy1waCcsICc3LjAnLCAnLXRuJywgJzgnLCAnLW1hJywgJzIwMCcsICctbWV0YWxfYmluZGluZycsICctaW1hZScsICc8aW5maWxlLm1hZT4nLCAnLW9tYWUnLCAnPG91dGZpbGUubWFlPic=

> <r_lp_tautomer_probability>
1

> <r_epik_Ionization_Penalty>
0.628785

> <r_epik_Ionization_Penalty_Charging>
0

> <r_epik_Ionization_Penalty_Neutral>
0.628785

> <r_epik_State_Penalty>
0.644286

> <r_epik_Charging_Adjusted_Penalty>
0.644286

> <i_epik_Tot_Q>
0

> <i_epik_Tot_abs_Q>
0

> <r_epik_Metal_State_Penalty>
0.308404

> <b_epik_Metal_Only>
0

> <s_lp_Force_Field>
OPLS_2005

> <r_lp_Energy>
70.0189

> <b_lp_Chiralities_Consistent>
1

> <s_lp_Variant>
AV-unprocessed.smi:2923-9

> <Gold.Version>
5.8.1

> <Gold.Id.Protein>
6NUR|6NUR_protein|mol2

> <Gold.PLP.Fitness>
37.4663

> <Gold.PLP.PLP>
-26.7889

> <Gold.PLP.part.hbond>
-3.0000

> <Gold.PLP.part.metal>
0.0000

> <Gold.PLP.part.buried>
-5.4439

> <Gold.PLP.part.nonpolar>
-19.6261

> <Gold.PLP.part.repulsive>
0.2116

> <Gold.PLP.ligand.clash>
0.0000

> <Gold.PLP.ligand.torsion>
0.6452

> <Gold.PLP.Chemscore.Hbond>
2.8320

> <Gold.PLP.Chemscore.CHOScore>
1.0000

> <Gold.PLP.Chemscore.Metal>
0.0000

> <Gold.Chemscore.Hbonds>
donor molecule, donor type, donor heavy atom, donor atom, acceptor molecule, acceptor atom, score
      L1  H     8    31       P1  7948  1.00
      L1  H    11    32       P1  7948  0.83
      P1  H  7989  7998       L1    22  1.00
      L1  C    21    46       P1  7957  1.00

> <Gold.PLP.Chemscore.Internal.Correction>
0.4718

> <Gold.Rescore>
     Score         DG    S(hbond)    S(metal)    S(lipo)     H(rot)  DE(clash)    DE(int)     intcor
     16.61     -18.32       2.62        0.00      61.13       1.19       0.19       1.51       ----

> <Gold.Chemscore.Fitness>
16.6142

> <Gold.Chemscore.DG>
-18.3163

> <Gold.Chemscore.ZeroCoef>
-5.4800

> <Gold.Chemscore.Hbond>
2.6166

> <Gold.Chemscore.Metal>
0.0000

> <Gold.Chemscore.Lipo>
61.1340

> <Gold.Chemscore.Internal_Hbond>
0.0000

> <Gold.Chemscore.DEClash>
0.1877

> <Gold.Chemscore.DEInternal>
1.5144

> <Gold.Chemscore.Rot>
1.1937

> <Gold.Chemscore.Internal.Correction>
   9.000000E+99

> <Gold.Chemscore.Hbonds>
donor molecule, donor type, donor heavy atom, donor atom, acceptor molecule, acceptor atom, score
      L1  H     8    31       P1  7948  0.97
      L1  H    11    32       P1  7948  0.83
      P1  H  7989  7998       L1    22  0.29

> <Gold.Chemscore.Hbond.Weighted>
-8.7395

> <Gold.Chemscore.Metal.Weighted>
-0.0000

> <Gold.Chemscore.Lipo.Weighted>
-7.1527

> <Gold.Chemscore.Internal_Hbond.Weighted>
0.0000

> <Gold.Chemscore.DEClash.Weighted>
0.1877

> <Gold.Chemscore.DEInternal.Weighted>
1.5144

> <Gold.Chemscore.Rot.Weighted>
3.0559

> <Gold.Chemscore.Internal.Correction.Weighted>
   9.000000E+99

> <Gold.Protein.RotatedTorsions>
[ 6907 6896 6895 6894 ] final -142.02 input  -60.11 | X-H torsion
[ 7974 7965 7964 7962 ] final  -79.72 input  175.53 | X-H torsion
[ 8008 7997 7996 7995 ] final -153.44 input   59.86 | X-H torsion
[ 10167 10162 10161 10158 ] final -174.77 input  -65.29 | X-H torsion
[ 10718 10713 10712 10709 ] final  -35.69 input   66.30 | X-H torsion
[ 10763 10752 10751 10750 ] final   94.65 input  -60.55 | X-H torsion
[ 11005 11000 10999 10996 ] final   21.85 input  -57.11 | X-H torsion

> <Gold.Protein.ActiveResidues>
 VAL166  LYS551  ARG553  GLY616  TRP617  ASP618  TYR619  PRO620  LYS621  CYS622 
 ASP623  PHE694  ASN695  SER759  ASP760  ASP761  ALA762  ILE779  LEU786  VAL792 
 PHE793  MET794  SER795  GLU796  ALA797  LYS798  CYS799  TRP800  GLU811  SER814 

> <Gold.Protein.RotatedAtoms>
  151.0815  133.5386  159.2620 H   0  0  0  0  0  0  0  0  0  0  0  0  # atno 6907 bound_to 6896
  151.2287  135.0545  159.8989 H   0  0  0  0  0  0  0  0  0  0  0  0  # atno 6908 bound_to 6896
  152.5424  134.0607  159.8204 H   0  0  0  0  0  0  0  0  0  0  0  0  # atno 6909 bound_to 6896
  145.5695  140.9468  143.1403 H   0  0  0  0  0  0  0  0  0  0  0  0  # atno 7974 bound_to 7965
  155.6708  140.0733  157.2520 H   0  0  0  0  0  0  0  0  0  0  0  0  # atno 8008 bound_to 7997
  154.4124  140.1699  156.1929 H   0  0  0  0  0  0  0  0  0  0  0  0  # atno 8009 bound_to 7997
  155.9618  140.3369  155.6500 H   0  0  0  0  0  0  0  0  0  0  0  0  # atno 8010 bound_to 7997
  139.5616  144.1856  152.1247 H   0  0  0  0  0  0  0  0  0  0  0  0  # atno 10167 bound_to 10162
  156.3357  130.4286  149.7832 H   0  0  0  0  0  0  0  0  0  0  0  0  # atno 10718 bound_to 10713
  153.2441  135.4282  155.0729 H   0  0  0  0  0  0  0  0  0  0  0  0  # atno 10763 bound_to 10752
  154.8353  135.3410  154.6607 H   0  0  0  0  0  0  0  0  0  0  0  0  # atno 10764 bound_to 10752
  153.7029  135.7027  153.5114 H   0  0  0  0  0  0  0  0  0  0  0  0  # atno 10765 bound_to 10752
  140.3871  134.1859  155.7663 H   0  0  0  0  0  0  0  0  0  0  0  0  # atno 11005 bound_to 11000
  144.7445  139.7359  143.7298 LP  0  0  0  0  0  0  0  0  0  0  0  0  # atno 17320 bound_to 7965
  146.1795  139.4980  142.9876 LP  0  0  0  0  0  0  0  0  0  0  0  0  # atno 17321 bound_to 7965
  140.1371  144.5236  150.6767 LP  0  0  0  0  0  0  0  0  0  0  0  0  # atno 17342 bound_to 10162
  140.6896  143.2368  151.5167 LP  0  0  0  0  0  0  0  0  0  0  0  0  # atno 17343 bound_to 10162
  156.5088  130.8162  151.3161 LP  0  0  0  0  0  0  0  0  0  0  0  0  # atno 17370 bound_to 10713
  157.7438  130.9921  150.2623 LP  0  0  0  0  0  0  0  0  0  0  0  0  # atno 17371 bound_to 10713
  141.1904  133.8218  157.0921 LP  0  0  0  0  0  0  0  0  0  0  0  0  # atno 17394 bound_to 11000
  140.0435  134.9842  157.1005 LP  0  0  0  0  0  0  0  0  0  0  0  0  # atno 17395 bound_to 11000

$$$$
