AV-unprocessed.smi:1826|AV-procd|sdf|7416|dock2
  -GOLD-   22720 9 93D 1   1.00000     0.00000
 Structure written by MMmdl.
 39 41  0  0  0  0  0  0  0  0  1 V2000
  152.1406  139.5037  154.5801 O   0  0  0  0  0  0  0  0  0  0  0  0
  151.8976  139.0692  155.9010 C   0  0  0  0  0  0  0  0  0  0  0  0
  151.9710  140.1840  156.8989 C   0  0  0  0  0  0  0  0  0  0  0  0
  152.8164  140.1511  157.9301 N   0  0  0  0  0  0  0  0  0  0  0  0
  152.5530  141.3424  158.5774 C   0  0  0  0  0  0  0  0  0  0  0  0
  153.1219  141.8990  159.7455 C   0  0  0  0  0  0  0  0  0  0  0  0
  152.6847  143.1510  160.2254 C   0  0  0  0  0  0  0  0  0  0  0  0
  151.6746  143.8629  159.5464 C   0  0  0  0  0  0  0  0  0  0  0  0
  151.0944  143.3263  158.3809 C   0  0  0  0  0  0  0  0  0  0  0  0
  151.5349  142.0766  157.9059 C   0  0  0  0  0  0  0  0  0  0  0  0
  151.1845  141.2872  156.8159 N   0  0  0  0  0  0  0  0  0  0  0  0
  150.1745  141.6115  155.8169 C   0  0  0  0  0  0  0  0  0  0  0  0
  148.8987  140.7584  155.9656 C   0  0  1  0  0  0  0  0  0  0  0  0
  148.9011  140.0951  157.2151 O   0  0  0  0  0  0  0  0  0  0  0  0
  147.6460  141.5965  155.7640 C   0  0  0  0  0  0  0  0  0  0  0  0
  146.7582  141.8094  156.8394 C   0  0  0  0  0  0  0  0  0  0  0  0
  145.5941  142.5808  156.6570 C   0  0  0  0  0  0  0  0  0  0  0  0
  145.3022  143.1487  155.3987 C   0  0  0  0  0  0  0  0  0  0  0  0
  144.0370  143.9756  155.2226 C   0  0  0  0  0  0  0  0  0  0  0  0
  144.0037  144.5858  154.0375 F   0  0  0  0  0  0  0  0  0  0  0  0
  142.9730  143.1794  155.3217 F   0  0  0  0  0  0  0  0  0  0  0  0
  143.9676  144.9056  156.1753 F   0  0  0  0  0  0  0  0  0  0  0  0
  146.1873  142.9282  154.3205 C   0  0  0  0  0  0  0  0  0  0  0  0
  147.3516  142.1571  154.5025 C   0  0  0  0  0  0  0  0  0  0  0  0
  153.0671  139.4348  154.4082 H   0  0  0  0  0  0  0  0  0  0  0  0
  150.9071  138.6145  155.9412 H   0  0  0  0  0  0  0  0  0  0  0  0
  152.6104  138.2879  156.1641 H   0  0  0  0  0  0  0  0  0  0  0  0
  153.8958  141.3613  160.2729 H   0  0  0  0  0  0  0  0  0  0  0  0
  153.1262  143.5670  161.1191 H   0  0  0  0  0  0  0  0  0  0  0  0
  151.3452  144.8211  159.9211 H   0  0  0  0  0  0  0  0  0  0  0  0
  150.3206  143.8684  157.8582 H   0  0  0  0  0  0  0  0  0  0  0  0
  149.9362  142.6737  155.8652 H   0  0  0  0  0  0  0  0  0  0  0  0
  150.6149  141.4478  154.8326 H   0  0  0  0  0  0  0  0  0  0  0  0
  148.9102  139.9778  155.2039 H   0  0  0  0  0  0  0  0  0  0  0  0
  149.6031  139.4623  157.2163 H   0  0  0  0  0  0  0  0  0  0  0  0
  146.9650  141.3811  157.8092 H   0  0  0  0  0  0  0  0  0  0  0  0
  144.9209  142.7363  157.4872 H   0  0  0  0  0  0  0  0  0  0  0  0
  145.9809  143.3457  153.3463 H   0  0  0  0  0  0  0  0  0  0  0  0
  148.0178  141.9946  153.6677 H   0  0  0  0  0  0  0  0  0  0  0  0
  1  2  1  0  0  0  0
  1 25  1  0  0  0  0
  2  3  1  0  0  0  0
  2 26  1  0  0  0  0
  2 27  1  0  0  0  0
  3 11  1  0  0  0  0
  3  4  2  0  0  0  0
  4  5  1  0  0  0  0
  5 10  2  0  0  0  0
  5  6  1  0  0  0  0
  6  7  2  0  0  0  0
  6 28  1  0  0  0  0
  7  8  1  0  0  0  0
  7 29  1  0  0  0  0
  8  9  2  0  0  0  0
  8 30  1  0  0  0  0
  9 10  1  0  0  0  0
  9 31  1  0  0  0  0
 10 11  1  0  0  0  0
 11 12  1  0  0  0  0
 12 13  1  0  0  0  0
 12 32  1  0  0  0  0
 12 33  1  0  0  0  0
 13 14  1  0  0  0  0
 13 15  1  0  0  0  0
 13 34  1  0  0  0  0
 14 35  1  0  0  0  0
 15 24  1  0  0  0  0
 15 16  2  0  0  0  0
 16 17  1  0  0  0  0
 16 36  1  0  0  0  0
 17 18  2  0  0  0  0
 17 37  1  0  0  0  0
 18 19  1  0  0  0  0
 18 23  1  0  0  0  0
 19 20  1  0  0  0  0
 19 21  1  0  0  0  0
 19 22  1  0  0  0  0
 23 24  2  0  0  0  0
 23 38  1  0  0  0  0
 24 39  1  0  0  0  0
M  END
> <s_m_source_file>
AV-unprocessed.smi

> <i_m_source_file_index>
1826

> <i_lp_mmshare_version>
43012

> <i_f3d_flags>
0

> <s_epik_input>
W2NIXTFbY0hdW2NIXVtjSF1jKGMxMiluKGMobjIpW0NIMl1bT0hdKVtDSDJdW0NASF0oW09IXSljM1tjSF1bY0hdYyhDKEYpKEYpRilbY0hdW2NIXTM=

> <s_epik_cmdline>
J2VwaWtfcHl0aG9uJywgJy1waCcsICc3LjAnLCAnLXRuJywgJzgnLCAnLW1hJywgJzIwMCcsICctbWV0YWxfYmluZGluZycsICctaW1hZScsICc8aW5maWxlLm1hZT4nLCAnLW9tYWUnLCAnPG91dGZpbGUubWFlPic=

> <r_epik_Ionization_Penalty>
0.0634718

> <r_epik_Ionization_Penalty_Charging>
0

> <r_epik_Ionization_Penalty_Neutral>
0.0634718

> <r_epik_State_Penalty>
0.0551572

> <r_epik_Charging_Adjusted_Penalty>
0.0551572

> <i_epik_Tot_Q>
0

> <i_epik_Tot_abs_Q>
0

> <r_epik_Metal_State_Penalty>
5.78034e-05

> <b_epik_Metal_Only>
0

> <s_lp_Force_Field>
OPLS_2005

> <r_lp_Energy>
14.1967

> <b_lp_Chiralities_Consistent>
1

> <s_lp_Variant>
AV-unprocessed.smi:1826-2

> <Gold.Version>
5.8.1

> <Gold.Id.Protein>
6NUR|6NUR_protein|mol2

> <Gold.PLP.Fitness>
50.0266

> <Gold.PLP.PLP>
-46.4564

> <Gold.PLP.part.hbond>
-2.0000

> <Gold.PLP.part.metal>
0.0000

> <Gold.PLP.part.buried>
-5.4262

> <Gold.PLP.part.nonpolar>
-39.9325

> <Gold.PLP.part.repulsive>
0.0000

> <Gold.PLP.ligand.clash>
0.0000

> <Gold.PLP.ligand.torsion>
1.1321

> <Gold.PLP.Chemscore.Hbond>
1.8880

> <Gold.PLP.Chemscore.CHOScore>
0.0000

> <Gold.PLP.Chemscore.Metal>
0.0000

> <Gold.Chemscore.Hbonds>
donor molecule, donor type, donor heavy atom, donor atom, acceptor molecule, acceptor atom, score
      P1  H  7989  7998       L1     1  0.82
      P1  H  7997  8010       L1     4  0.96

> <Gold.PLP.Chemscore.Internal.Correction>
0.1703

> <Gold.Rescore>
     Score         DG    S(hbond)    S(metal)    S(lipo)     H(rot)  DE(clash)    DE(int)     intcor
     13.12     -14.17       1.14        0.00     105.47       2.91       0.12       0.93       ----

> <Gold.Chemscore.Fitness>
13.1180

> <Gold.Chemscore.DG>
-14.1737

> <Gold.Chemscore.ZeroCoef>
-5.4800

> <Gold.Chemscore.Hbond>
1.1420

> <Gold.Chemscore.Metal>
0.0000

> <Gold.Chemscore.Lipo>
105.4653

> <Gold.Chemscore.Internal_Hbond>
0.0000

> <Gold.Chemscore.DEClash>
0.1220

> <Gold.Chemscore.DEInternal>
0.9337

> <Gold.Chemscore.Rot>
2.9141

> <Gold.Chemscore.Internal.Correction>
   9.000000E+99

> <Gold.Chemscore.Hbonds>
donor molecule, donor type, donor heavy atom, donor atom, acceptor molecule, acceptor atom, score
      P1  H  7989  7998       L1     1  0.24
      P1  H  7997  8010       L1     4  0.28

> <Gold.Chemscore.Hbond.Weighted>
-3.8143

> <Gold.Chemscore.Metal.Weighted>
-0.0000

> <Gold.Chemscore.Lipo.Weighted>
-12.3394

> <Gold.Chemscore.Internal_Hbond.Weighted>
0.0000

> <Gold.Chemscore.DEClash.Weighted>
0.1220

> <Gold.Chemscore.DEInternal.Weighted>
0.9337

> <Gold.Chemscore.Rot.Weighted>
7.4600

> <Gold.Chemscore.Internal.Correction.Weighted>
   9.000000E+99

> <Gold.Protein.RotatedTorsions>
[ 6907 6896 6895 6894 ] final   46.41 input  -60.11 | X-H torsion
[ 7974 7965 7964 7962 ] final   48.65 input  175.53 | X-H torsion
[ 8008 7997 7996 7995 ] final   35.56 input   59.86 | X-H torsion
[ 10167 10162 10161 10158 ] final -144.96 input  -65.29 | X-H torsion
[ 10718 10713 10712 10709 ] final   80.59 input   66.30 | X-H torsion
[ 10763 10752 10751 10750 ] final  163.97 input  -60.55 | X-H torsion
[ 11005 11000 10999 10996 ] final   75.17 input  -57.11 | X-H torsion

> <Gold.Protein.ActiveResidues>
 VAL166  LYS551  ARG553  GLY616  TRP617  ASP618  TYR619  PRO620  LYS621  CYS622 
 ASP623  PHE694  ASN695  SER759  ASP760  ASP761  ALA762  ILE779  LEU786  VAL792 
 PHE793  MET794  SER795  GLU796  ALA797  LYS798  CYS799  TRP800  GLU811  SER814 

> <Gold.Protein.RotatedAtoms>
  152.2561  134.8083  160.0438 H   0  0  0  0  0  0  0  0  0  0  0  0  # atno 6907 bound_to 6896
  151.8746  133.3477  159.3754 H   0  0  0  0  0  0  0  0  0  0  0  0  # atno 6908 bound_to 6896
  150.7100  134.5006  159.5603 H   0  0  0  0  0  0  0  0  0  0  0  0  # atno 6909 bound_to 6896
  146.0184  139.4623  142.9912 H   0  0  0  0  0  0  0  0  0  0  0  0  # atno 7974 bound_to 7965
  155.1731  140.3293  155.4389 H   0  0  0  0  0  0  0  0  0  0  0  0  # atno 8008 bound_to 7997
  156.2503  140.1940  156.6783 H   0  0  0  0  0  0  0  0  0  0  0  0  # atno 8009 bound_to 7997
  154.6324  140.0581  156.9734 H   0  0  0  0  0  0  0  0  0  0  0  0  # atno 8010 bound_to 7997
  139.7850  143.8046  152.2643 H   0  0  0  0  0  0  0  0  0  0  0  0  # atno 10167 bound_to 10162
  157.6810  130.9966  150.2101 H   0  0  0  0  0  0  0  0  0  0  0  0  # atno 10718 bound_to 10713
  154.3018  135.2759  155.2607 H   0  0  0  0  0  0  0  0  0  0  0  0  # atno 10763 bound_to 10752
  154.5041  135.5800  153.6557 H   0  0  0  0  0  0  0  0  0  0  0  0  # atno 10764 bound_to 10752
  152.9899  135.6165  154.3189 H   0  0  0  0  0  0  0  0  0  0  0  0  # atno 10765 bound_to 10752
  139.9356  134.7495  156.1238 H   0  0  0  0  0  0  0  0  0  0  0  0  # atno 11005 bound_to 11000
  145.7232  141.0068  143.1391 LP  0  0  0  0  0  0  0  0  0  0  0  0  # atno 17320 bound_to 7965
  144.6980  139.8895  143.7452 LP  0  0  0  0  0  0  0  0  0  0  0  0  # atno 17321 bound_to 7965
  139.8121  144.7331  150.9684 LP  0  0  0  0  0  0  0  0  0  0  0  0  # atno 17342 bound_to 10162
  140.7819  143.4241  151.0796 LP  0  0  0  0  0  0  0  0  0  0  0  0  # atno 17343 bound_to 10162
  156.2774  130.3729  149.7970 LP  0  0  0  0  0  0  0  0  0  0  0  0  # atno 17370 bound_to 10713
  156.5668  130.8407  151.3345 LP  0  0  0  0  0  0  0  0  0  0  0  0  # atno 17371 bound_to 10713
  141.0968  133.6692  156.2664 LP  0  0  0  0  0  0  0  0  0  0  0  0  # atno 17394 bound_to 11000
  140.6084  134.5483  157.5529 LP  0  0  0  0  0  0  0  0  0  0  0  0  # atno 17395 bound_to 11000

$$$$
