AV-unprocessed.smi:149|AV-procd|sdf|1236|dock9
  -GOLD-   2262018453D 1   1.00000     0.00000
 Structure written by MMmdl.
 60 64  0  0  0  0  0  0  0  0  2 V2000
  146.9571  137.7916  153.7655 C   0  0  0  0  0  0  0  0  0  0  0  0
  146.8362  137.0680  155.1222 C   0  0  2  0  0  0  0  0  0  0  0  0
  147.2954  137.9860  156.2677 C   0  0  0  0  0  0  0  0  0  0  0  0
  148.6666  137.5976  156.5745 N   0  0  0  0  0  0  0  0  0  0  0  0
  149.5577  138.4918  157.0758 C   0  0  0  0  0  0  0  0  0  0  0  0
  150.7302  138.0297  157.5856 N   0  0  0  0  0  0  0  0  0  0  0  0
  151.6299  138.8769  158.0933 C   0  0  0  0  0  0  0  0  0  0  0  0
  151.5614  140.2050  158.1919 N   0  0  0  0  0  0  0  0  0  0  0  0
  150.3859  140.6792  157.6894 C   0  0  0  0  0  0  0  0  0  0  0  0
  149.3353  139.8999  157.1241 C   0  0  0  0  0  0  0  0  0  0  0  0
  148.2861  140.7330  156.7509 N   0  0  0  0  0  0  0  0  0  0  0  0
  148.6934  141.9299  157.0725 C   0  0  0  0  0  0  0  0  0  0  0  0
  149.9568  141.9936  157.6133 N   0  0  0  0  0  0  0  0  0  0  0  0
  150.6245  143.1703  158.0893 C   0  0  0  0  0  0  0  0  0  0  0  0
  152.0794  143.1121  158.5667 C   0  0  0  0  0  0  0  0  0  0  0  0
  151.7708  144.1421  159.6763 C   0  0  0  0  0  0  0  0  0  0  0  0
  152.3322  143.7721  161.0577 C   0  0  0  0  0  0  0  0  0  0  0  0
  151.7713  144.5731  162.0779 O   0  0  0  0  0  0  0  0  0  0  0  0
  152.1890  145.6016  159.3894 C   0  0  0  0  0  0  0  0  0  0  0  0
  151.7049  146.5210  160.3473 O   0  0  0  0  0  0  0  0  0  0  0  0
  150.2864  143.7776  159.4540 C   0  0  0  0  0  0  0  0  0  0  0  0
  149.0832  136.5022  155.7118 C   0  0  0  0  0  0  0  0  0  0  0  0
  147.7673  135.8481  155.2774 C   0  0  2  0  0  0  0  0  0  0  0  0
  147.8589  134.9690  154.0775 N   0  3  0  0  0  0  0  0  0  0  0  0
  148.6171  133.7125  154.3083 C   0  0  0  0  0  0  0  0  0  0  0  0
  148.6929  132.8801  153.0165 C   0  0  0  0  0  0  0  0  0  0  0  0
  147.3815  132.6074  152.5417 O   0  0  0  0  0  0  0  0  0  0  0  0
  146.6749  133.7999  152.2288 C   0  0  0  0  0  0  0  0  0  0  0  0
  146.5278  134.6570  153.4964 C   0  0  0  0  0  0  0  0  0  0  0  0
  147.9825  138.1024  153.5640 H   0  0  0  0  0  0  0  0  0  0  0  0
  146.3349  138.6868  153.7484 H   0  0  0  0  0  0  0  0  0  0  0  0
  146.6320  137.1606  152.9387 H   0  0  0  0  0  0  0  0  0  0  0  0
  145.7945  136.7815  155.2701 H   0  0  0  0  0  0  0  0  0  0  0  0
  147.2179  139.0387  155.9921 H   0  0  0  0  0  0  0  0  0  0  0  0
  146.6827  137.8244  157.1550 H   0  0  0  0  0  0  0  0  0  0  0  0
  152.5347  138.4267  158.4742 H   0  0  0  0  0  0  0  0  0  0  0  0
  148.0789  142.8051  156.9179 H   0  0  0  0  0  0  0  0  0  0  0  0
  150.5078  143.9144  157.3007 H   0  0  0  0  0  0  0  0  0  0  0  0
  152.3469  142.1311  158.9626 H   0  0  0  0  0  0  0  0  0  0  0  0
  152.8080  143.4405  157.8248 H   0  0  0  0  0  0  0  0  0  0  0  0
  152.1149  142.7310  161.2986 H   0  0  0  0  0  0  0  0  0  0  0  0
  153.4176  143.8737  161.0833 H   0  0  0  0  0  0  0  0  0  0  0  0
  152.0122  145.4732  161.9202 H   0  0  0  0  0  0  0  0  0  0  0  0
  153.2747  145.6997  159.3663 H   0  0  0  0  0  0  0  0  0  0  0  0
  151.8262  145.9222  158.4123 H   0  0  0  0  0  0  0  0  0  0  0  0
  151.6123  147.3651  159.9328 H   0  0  0  0  0  0  0  0  0  0  0  0
  149.6082  144.6301  159.4099 H   0  0  0  0  0  0  0  0  0  0  0  0
  149.9243  143.0296  160.1615 H   0  0  0  0  0  0  0  0  0  0  0  0
  149.6332  136.8942  154.8549 H   0  0  0  0  0  0  0  0  0  0  0  0
  149.7258  135.8030  156.2484 H   0  0  0  0  0  0  0  0  0  0  0  0
  147.4079  135.2447  156.1137 H   0  0  0  0  0  0  0  0  0  0  0  0
  149.6315  133.9307  154.6413 H   0  0  0  0  0  0  0  0  0  0  0  0
  148.1360  133.1344  155.0991 H   0  0  0  0  0  0  0  0  0  0  0  0
  149.2686  133.4017  152.2502 H   0  0  0  0  0  0  0  0  0  0  0  0
  149.2021  131.9353  153.2077 H   0  0  0  0  0  0  0  0  0  0  0  0
  147.1919  134.3508  151.4413 H   0  0  0  0  0  0  0  0  0  0  0  0
  145.6917  133.5349  151.8393 H   0  0  0  0  0  0  0  0  0  0  0  0
  145.9227  134.1260  154.2331 H   0  0  0  0  0  0  0  0  0  0  0  0
  145.9929  135.5734  153.2488 H   0  0  0  0  0  0  0  0  0  0  0  0
  148.3718  135.4878  153.3789 H   0  0  0  0  0  0  0  0  0  0  0  0
  1  2  1  0  0  0  0
  1 30  1  0  0  0  0
  1 31  1  0  0  0  0
  1 32  1  0  0  0  0
  2 23  1  0  0  0  0
  2  3  1  0  0  0  0
  2 33  1  0  0  0  0
  3  4  1  0  0  0  0
  3 34  1  0  0  0  0
  3 35  1  0  0  0  0
  4  5  1  0  0  0  0
  4 22  1  0  0  0  0
  5 10  1  0  0  0  0
  5  6  2  0  0  0  0
  6  7  1  0  0  0  0
  7  8  2  0  0  0  0
  7 36  1  0  0  0  0
  8  9  1  0  0  0  0
  9 13  1  0  0  0  0
  9 10  2  0  0  0  0
 10 11  1  0  0  0  0
 11 12  2  0  0  0  0
 12 13  1  0  0  0  0
 12 37  1  0  0  0  0
 13 14  1  0  0  0  0
 14 21  1  0  0  0  0
 14 15  1  0  0  0  0
 14 38  1  0  0  0  0
 15 16  1  0  0  0  0
 15 39  1  0  0  0  0
 15 40  1  0  0  0  0
 16 17  1  0  0  0  0
 16 19  1  0  0  0  0
 16 21  1  0  0  0  0
 17 18  1  0  0  0  0
 17 41  1  0  0  0  0
 17 42  1  0  0  0  0
 18 43  1  0  0  0  0
 19 20  1  0  0  0  0
 19 44  1  0  0  0  0
 19 45  1  0  0  0  0
 20 46  1  0  0  0  0
 21 47  1  0  0  0  0
 21 48  1  0  0  0  0
 22 23  1  0  0  0  0
 22 49  1  0  0  0  0
 22 50  1  0  0  0  0
 23 24  1  0  0  0  0
 23 51  1  0  0  0  0
 24 29  1  0  0  0  0
 24 25  1  0  0  0  0
 24 60  1  0  0  0  0
 25 26  1  0  0  0  0
 25 52  1  0  0  0  0
 25 53  1  0  0  0  0
 26 27  1  0  0  0  0
 26 54  1  0  0  0  0
 26 55  1  0  0  0  0
 27 28  1  0  0  0  0
 28 29  1  0  0  0  0
 28 56  1  0  0  0  0
 28 57  1  0  0  0  0
 29 58  1  0  0  0  0
 29 59  1  0  0  0  0
M  CHG  1  24   1
M  END
> <s_m_source_file>
AV-unprocessed.smi

> <i_m_source_file_index>
149

> <i_lp_mmshare_version>
43012

> <i_f3d_flags>
0

> <s_epik_input>
W0NIMl0xW0NIMl1PW0NIMl1bQ0gyXU4xW0NAQEhdMltDSDJdTihbQ0gyXVtDQEhdMltDSDNdKWMobltjSF1uMyljKGMzNCluW2NIXW40W0NIXShbQ0gyXTUpW0NIMl1DNShbQ0gyXVtPSF0pW0NIMl1bT0hd

> <s_epik_cmdline>
J2VwaWtfcHl0aG9uJywgJy1waCcsICc3LjAnLCAnLXRuJywgJzgnLCAnLW1hJywgJzIwMCcsICctbWV0YWxfYmluZGluZycsICctaW1hZScsICc8aW5maWxlLm1hZT4nLCAnLW9tYWUnLCAnPG91dGZpbGUubWFlPic=

> <r_lp_tautomer_probability>
1

> <r_epik_Ionization_Penalty>
0.404847

> <r_epik_Ionization_Penalty_Charging>
0.404623

> <r_epik_Ionization_Penalty_Neutral>
0.000224096

> <r_epik_State_Penalty>
0.238803

> <r_epik_Charging_Adjusted_Penalty>
0.643425

> <i_epik_Tot_Q>
1

> <i_epik_Tot_abs_Q>
1

> <r_epik_Metal_State_Penalty>
0.239083

> <b_epik_Metal_Only>
0

> <s_lp_Force_Field>
OPLS_2005

> <r_lp_Energy>
71.321

> <b_lp_Chiralities_Consistent>
1

> <s_lp_Variant>
AV-unprocessed.smi:149-3

> <Gold.Version>
5.8.1

> <Gold.Id.Protein>
6NUR|6NUR_protein|mol2

> <Gold.PLP.Fitness>
47.7962

> <Gold.PLP.PLP>
-40.6924

> <Gold.PLP.part.hbond>
-6.5346

> <Gold.PLP.part.metal>
0.0000

> <Gold.PLP.part.buried>
-5.9654

> <Gold.PLP.part.nonpolar>
-27.8120

> <Gold.PLP.part.repulsive>
0.1914

> <Gold.PLP.ligand.clash>
0.0000

> <Gold.PLP.ligand.torsion>
0.9972

> <Gold.PLP.Chemscore.Hbond>
2.0000

> <Gold.PLP.Chemscore.CHOScore>
0.8038

> <Gold.PLP.Chemscore.Metal>
0.0000

> <Gold.Chemscore.Hbonds>
donor molecule, donor type, donor heavy atom, donor atom, acceptor molecule, acceptor atom, score
      L1  H    24    60       P1  7948  2.00
      L1  C    12    37       P1  8028  0.85

> <Gold.PLP.Chemscore.Internal.Correction>
0.6868

> <Gold.Rescore>
     Score         DG    S(hbond)    S(metal)    S(lipo)     H(rot)  DE(clash)    DE(int)     intcor
      8.03     -11.52       1.00        0.00      90.69       3.09       0.13       3.36       ----

> <Gold.Chemscore.Fitness>
8.0261

> <Gold.Chemscore.DG>
-11.5169

> <Gold.Chemscore.ZeroCoef>
-5.4800

> <Gold.Chemscore.Hbond>
1.0000

> <Gold.Chemscore.Metal>
0.0000

> <Gold.Chemscore.Lipo>
90.6866

> <Gold.Chemscore.Internal_Hbond>
0.0000

> <Gold.Chemscore.DEClash>
0.1303

> <Gold.Chemscore.DEInternal>
3.3604

> <Gold.Chemscore.Rot>
3.0912

> <Gold.Chemscore.Internal.Correction>
   9.000000E+99

> <Gold.Chemscore.Hbonds>
donor molecule, donor type, donor heavy atom, donor atom, acceptor molecule, acceptor atom, score
      L1  H    24    60       P1  7948  0.99

> <Gold.Chemscore.Hbond.Weighted>
-3.3400

> <Gold.Chemscore.Metal.Weighted>
-0.0000

> <Gold.Chemscore.Lipo.Weighted>
-10.6103

> <Gold.Chemscore.Internal_Hbond.Weighted>
0.0000

> <Gold.Chemscore.DEClash.Weighted>
0.1303

> <Gold.Chemscore.DEInternal.Weighted>
3.3604

> <Gold.Chemscore.Rot.Weighted>
7.9135

> <Gold.Chemscore.Internal.Correction.Weighted>
   9.000000E+99

> <Gold.Protein.RotatedTorsions>
[ 6907 6896 6895 6894 ] final  -17.14 input  -60.11 | X-H torsion
[ 7974 7965 7964 7962 ] final   72.55 input  175.53 | X-H torsion
[ 8008 7997 7996 7995 ] final   14.89 input   59.86 | X-H torsion
[ 10167 10162 10161 10158 ] final -168.47 input  -65.29 | X-H torsion
[ 10718 10713 10712 10709 ] final -129.79 input   66.30 | X-H torsion
[ 10763 10752 10751 10750 ] final -126.35 input  -60.55 | X-H torsion
[ 11005 11000 10999 10996 ] final  -39.97 input  -57.11 | X-H torsion

> <Gold.Protein.ActiveResidues>
 VAL166  LYS551  ARG553  GLY616  TRP617  ASP618  TYR619  PRO620  LYS621  CYS622 
 ASP623  PHE694  ASN695  SER759  ASP760  ASP761  ALA762  ILE779  LEU786  VAL792 
 PHE793  MET794  SER795  GLU796  ALA797  LYS798  CYS799  TRP800  GLU811  SER814 

> <Gold.Protein.RotatedAtoms>
  151.2978  135.0760  159.9227 H   0  0  0  0  0  0  0  0  0  0  0  0  # atno 6907 bound_to 6896
  152.5304  133.9865  159.7841 H   0  0  0  0  0  0  0  0  0  0  0  0  # atno 6908 bound_to 6896
  151.0146  133.5882  159.2709 H   0  0  0  0  0  0  0  0  0  0  0  0  # atno 6909 bound_to 6896
  145.7520  139.2764  143.1426 H   0  0  0  0  0  0  0  0  0  0  0  0  # atno 7974 bound_to 7965
  154.8548  140.2935  155.5576 H   0  0  0  0  0  0  0  0  0  0  0  0  # atno 8008 bound_to 7997
  156.3018  140.2489  156.3445 H   0  0  0  0  0  0  0  0  0  0  0  0  # atno 8009 bound_to 7997
  154.8982  140.0392  157.1867 H   0  0  0  0  0  0  0  0  0  0  0  0  # atno 8010 bound_to 7997
  139.5983  144.1064  152.1715 H   0  0  0  0  0  0  0  0  0  0  0  0  # atno 10167 bound_to 10162
  156.2081  130.6900  151.0617 H   0  0  0  0  0  0  0  0  0  0  0  0  # atno 10718 bound_to 10713
  154.8745  135.3998  154.3417 H   0  0  0  0  0  0  0  0  0  0  0  0  # atno 10763 bound_to 10752
  153.4215  135.7023  153.6296 H   0  0  0  0  0  0  0  0  0  0  0  0  # atno 10764 bound_to 10752
  153.4956  135.3739  155.2484 H   0  0  0  0  0  0  0  0  0  0  0  0  # atno 10765 bound_to 10752
  141.0141  133.6894  156.2258 H   0  0  0  0  0  0  0  0  0  0  0  0  # atno 11005 bound_to 11000
  146.0348  140.8223  142.9858 LP  0  0  0  0  0  0  0  0  0  0  0  0  # atno 17320 bound_to 7965
  144.6848  140.2822  143.7290 LP  0  0  0  0  0  0  0  0  0  0  0  0  # atno 17321 bound_to 7965
  140.0654  144.5822  150.7231 LP  0  0  0  0  0  0  0  0  0  0  0  0  # atno 17342 bound_to 10162
  140.7230  143.2607  151.4216 LP  0  0  0  0  0  0  0  0  0  0  0  0  # atno 17343 bound_to 10162
  157.7023  131.0771  150.6780 LP  0  0  0  0  0  0  0  0  0  0  0  0  # atno 17370 bound_to 10713
  156.6839  130.4575  149.5619 LP  0  0  0  0  0  0  0  0  0  0  0  0  # atno 17371 bound_to 10713
  140.6685  134.4893  157.5586 LP  0  0  0  0  0  0  0  0  0  0  0  0  # atno 17394 bound_to 11000
  139.9106  134.8352  156.1541 LP  0  0  0  0  0  0  0  0  0  0  0  0  # atno 17395 bound_to 11000

$$$$
