AV-unprocessed.smi:308|AV-procd|sdf|2287|dock9
  -GOLD-   2262022183D 1   1.00000     0.00000
 Structure written by MMmdl.
 50 51  0  0  0  0  0  0  0  0  2 V2000
  145.9290  132.3087  151.2434 C   0  0  0  0  0  0  0  0  0  0  0  0
  145.5825  133.7055  151.7773 C   0  0  2  0  0  0  0  0  0  0  0  0
  145.7781  134.7915  150.7064 C   0  0  0  0  0  0  0  0  0  0  0  0
  145.4550  136.1885  151.2629 C   0  0  0  0  0  0  0  0  0  0  0  0
  146.2730  136.4929  152.4650 N   0  3  1  0  0  0  0  0  0  0  0  0
  146.0699  137.8843  152.9445 C   0  0  0  0  0  0  0  0  0  0  0  0
  147.0841  138.8898  152.3572 C   0  0  0  0  0  0  0  0  0  0  0  0
  148.3322  138.9540  153.1138 N   0  0  0  0  0  0  0  0  0  0  0  0
  148.6003  139.8434  154.0804 C   0  0  0  0  0  0  0  0  0  0  0  0
  147.8137  140.7265  154.4184 O   0  0  0  0  0  0  0  0  0  0  0  0
  149.8180  139.6310  154.6083 N   0  0  0  0  0  0  0  0  0  0  0  0
  150.4855  140.3320  155.6507 C   0  0  0  0  0  0  0  0  0  0  0  0
  151.4451  139.7700  156.5253 C   0  0  0  0  0  0  0  0  0  0  0  0
  152.0253  140.5830  157.5181 C   0  0  0  0  0  0  0  0  0  0  0  0
  151.6334  141.9406  157.6237 C   0  0  0  0  0  0  0  0  0  0  0  0
  152.1886  142.7956  158.6031 N   0  0  0  0  0  0  0  0  0  0  0  0
  152.8361  142.2272  159.7811 C   0  0  0  0  0  0  0  0  0  0  0  0
  152.0203  144.2393  158.4946 C   0  0  0  0  0  0  0  0  0  0  0  0
  150.7061  142.4698  156.7891 N   0  0  0  0  0  0  0  0  0  0  0  0
  150.1548  141.6884  155.8381 C   0  0  0  0  0  0  0  0  0  0  0  0
  146.0822  135.4737  153.5302 C   0  0  0  0  0  0  0  0  0  0  0  0
  146.4183  134.0635  153.0171 C   0  0  0  0  0  0  0  0  0  0  0  0
  146.9733  132.2480  150.9358 H   0  0  0  0  0  0  0  0  0  0  0  0
  145.3126  132.0540  150.3809 H   0  0  0  0  0  0  0  0  0  0  0  0
  145.7610  131.5459  152.0041 H   0  0  0  0  0  0  0  0  0  0  0  0
  144.5302  133.6977  152.0662 H   0  0  0  0  0  0  0  0  0  0  0  0
  146.8066  134.7735  150.3424 H   0  0  0  0  0  0  0  0  0  0  0  0
  145.1429  134.5853  149.8443 H   0  0  0  0  0  0  0  0  0  0  0  0
  145.6477  136.9328  150.4891 H   0  0  0  0  0  0  0  0  0  0  0  0
  144.3956  136.2585  151.5150 H   0  0  0  0  0  0  0  0  0  0  0  0
  145.0693  138.2108  152.6581 H   0  0  0  0  0  0  0  0  0  0  0  0
  146.0930  137.9114  154.0347 H   0  0  0  0  0  0  0  0  0  0  0  0
  147.2967  138.6397  151.3166 H   0  0  0  0  0  0  0  0  0  0  0  0
  146.6540  139.8908  152.3396 H   0  0  0  0  0  0  0  0  0  0  0  0
  149.0296  138.2536  152.9060 H   0  0  0  0  0  0  0  0  0  0  0  0
  150.3239  138.8394  154.2388 H   0  0  0  0  0  0  0  0  0  0  0  0
  151.7492  138.7374  156.4687 H   0  0  0  0  0  0  0  0  0  0  0  0
  152.7562  140.1464  158.1816 H   0  0  0  0  0  0  0  0  0  0  0  0
  152.1186  141.6620  160.3766 H   0  0  0  0  0  0  0  0  0  0  0  0
  153.2601  143.0052  160.4159 H   0  0  0  0  0  0  0  0  0  0  0  0
  153.6476  141.5596  159.4895 H   0  0  0  0  0  0  0  0  0  0  0  0
  152.5342  144.6194  157.6113 H   0  0  0  0  0  0  0  0  0  0  0  0
  152.4292  144.7529  159.3650 H   0  0  0  0  0  0  0  0  0  0  0  0
  150.9635  144.4988  158.4235 H   0  0  0  0  0  0  0  0  0  0  0  0
  149.4235  142.1671  155.2031 H   0  0  0  0  0  0  0  0  0  0  0  0
  146.7206  135.6981  154.3841 H   0  0  0  0  0  0  0  0  0  0  0  0
  145.0517  135.5071  153.8883 H   0  0  0  0  0  0  0  0  0  0  0  0
  146.2434  133.3340  153.8088 H   0  0  0  0  0  0  0  0  0  0  0  0
  147.4812  134.0082  152.7762 H   0  0  0  0  0  0  0  0  0  0  0  0
  147.2374  136.4341  152.1702 H   0  0  0  0  0  0  0  0  0  0  0  0
  1  2  1  0  0  0  0
  1 23  1  0  0  0  0
  1 24  1  0  0  0  0
  1 25  1  0  0  0  0
  2 22  1  0  0  0  0
  2  3  1  0  0  0  0
  2 26  1  0  0  0  0
  3  4  1  0  0  0  0
  3 27  1  0  0  0  0
  3 28  1  0  0  0  0
  4  5  1  0  0  0  0
  4 29  1  0  0  0  0
  4 30  1  0  0  0  0
  5  6  1  0  0  0  0
  5 21  1  0  0  0  0
  5 50  1  0  0  0  0
  6  7  1  0  0  0  0
  6 31  1  0  0  0  0
  6 32  1  0  0  0  0
  7  8  1  0  0  0  0
  7 33  1  0  0  0  0
  7 34  1  0  0  0  0
  8  9  1  0  0  0  0
  8 35  1  0  0  0  0
  9 10  2  0  0  0  0
  9 11  1  0  0  0  0
 11 12  1  0  0  0  0
 11 36  1  0  0  0  0
 12 20  1  0  0  0  0
 12 13  2  0  0  0  0
 13 14  1  0  0  0  0
 13 37  1  0  0  0  0
 14 15  2  0  0  0  0
 14 38  1  0  0  0  0
 15 16  1  0  0  0  0
 15 19  1  0  0  0  0
 16 17  1  0  0  0  0
 16 18  1  0  0  0  0
 17 39  1  0  0  0  0
 17 40  1  0  0  0  0
 17 41  1  0  0  0  0
 18 42  1  0  0  0  0
 18 43  1  0  0  0  0
 18 44  1  0  0  0  0
 19 20  2  0  0  0  0
 20 45  1  0  0  0  0
 21 22  1  0  0  0  0
 21 46  1  0  0  0  0
 21 47  1  0  0  0  0
 22 48  1  0  0  0  0
 22 49  1  0  0  0  0
M  CHG  1   5   1
M  END
> <s_m_source_file>
AV-unprocessed.smi

> <i_m_source_file_index>
308

> <i_lp_mmshare_version>
43012

> <i_f3d_flags>
0

> <s_epik_input>
W0NIM11bQ0hdMVtDSDJdW0NIMl1OKFtDSDJdW0NIMl0xKVtDSDJdW0NIMl1bTkhdQyg9TylbTkhdYzJbY0hdW2NIXWMoTihbQ0gzXSlbQ0gzXSluW2NIXTI=

> <s_epik_cmdline>
J2VwaWtfcHl0aG9uJywgJy1waCcsICc3LjAnLCAnLXRuJywgJzgnLCAnLW1hJywgJzIwMCcsICctbWV0YWxfYmluZGluZycsICctaW1hZScsICc8aW5maWxlLm1hZT4nLCAnLW9tYWUnLCAnPG91dGZpbGUubWFlPic=

> <r_lp_tautomer_probability>
1

> <r_epik_Ionization_Penalty>
0.536661

> <r_epik_Ionization_Penalty_Charging>
0.00139388

> <r_epik_Ionization_Penalty_Neutral>
0.535267

> <r_epik_State_Penalty>
0.543381

> <r_epik_Charging_Adjusted_Penalty>
0.544775

> <i_epik_Tot_Q>
1

> <i_epik_Tot_abs_Q>
1

> <r_epik_Metal_State_Penalty>
0.284523

> <b_epik_Metal_Only>
0

> <s_lp_Force_Field>
OPLS_2005

> <r_lp_Energy>
27.2838

> <b_lp_Chiralities_Consistent>
1

> <s_lp_Variant>
AV-unprocessed.smi:308-3

> <Gold.Version>
5.8.1

> <Gold.Id.Protein>
6NUR|6NUR_protein|mol2

> <Gold.PLP.Fitness>
48.2867

> <Gold.PLP.PLP>
-41.8942

> <Gold.PLP.part.hbond>
-2.9534

> <Gold.PLP.part.metal>
0.0000

> <Gold.PLP.part.buried>
-3.9621

> <Gold.PLP.part.nonpolar>
-35.5810

> <Gold.PLP.part.repulsive>
0.6705

> <Gold.PLP.ligand.clash>
0.0000

> <Gold.PLP.ligand.torsion>
1.1169

> <Gold.PLP.Chemscore.Hbond>
2.3019

> <Gold.PLP.Chemscore.CHOScore>
0.5606

> <Gold.PLP.Chemscore.Metal>
0.0000

> <Gold.Chemscore.Hbonds>
donor molecule, donor type, donor heavy atom, donor atom, acceptor molecule, acceptor atom, score
      L1  H     5    50       P1  7948  2.00
      L1  H     8    35       P1  7948  0.32
      L1  C    20    45       P1  8028  0.55

> <Gold.PLP.Chemscore.Internal.Correction>
0.0388

> <Gold.Rescore>
     Score         DG    S(hbond)    S(metal)    S(lipo)     H(rot)  DE(clash)    DE(int)     intcor
     15.64     -18.05       1.65        0.00      91.59       1.42       0.18       2.23       ----

> <Gold.Chemscore.Fitness>
15.6381

> <Gold.Chemscore.DG>
-18.0473

> <Gold.Chemscore.ZeroCoef>
-5.4800

> <Gold.Chemscore.Hbond>
1.6457

> <Gold.Chemscore.Metal>
0.0000

> <Gold.Chemscore.Lipo>
91.5909

> <Gold.Chemscore.Internal_Hbond>
0.0000

> <Gold.Chemscore.DEClash>
0.1841

> <Gold.Chemscore.DEInternal>
2.2250

> <Gold.Chemscore.Rot>
1.4241

> <Gold.Chemscore.Internal.Correction>
   9.000000E+99

> <Gold.Chemscore.Hbonds>
donor molecule, donor type, donor heavy atom, donor atom, acceptor molecule, acceptor atom, score
      L1  H     5    50       P1  7948  1.00
      L1  H     8    35       P1  7948  0.31

> <Gold.Chemscore.Hbond.Weighted>
-5.4968

> <Gold.Chemscore.Metal.Weighted>
-0.0000

> <Gold.Chemscore.Lipo.Weighted>
-10.7161

> <Gold.Chemscore.Internal_Hbond.Weighted>
0.0000

> <Gold.Chemscore.DEClash.Weighted>
0.1841

> <Gold.Chemscore.DEInternal.Weighted>
2.2250

> <Gold.Chemscore.Rot.Weighted>
3.6456

> <Gold.Chemscore.Internal.Correction.Weighted>
   9.000000E+99

> <Gold.Protein.RotatedTorsions>
[ 6907 6896 6895 6894 ] final  -10.20 input  -60.11 | X-H torsion
[ 7974 7965 7964 7962 ] final -131.07 input  175.53 | X-H torsion
[ 8008 7997 7996 7995 ] final  154.40 input   59.86 | X-H torsion
[ 10167 10162 10161 10158 ] final   44.42 input  -65.29 | X-H torsion
[ 10718 10713 10712 10709 ] final -144.39 input   66.30 | X-H torsion
[ 10763 10752 10751 10750 ] final  -56.97 input  -60.55 | X-H torsion
[ 11005 11000 10999 10996 ] final   81.14 input  -57.11 | X-H torsion

> <Gold.Protein.ActiveResidues>
 VAL166  LYS551  ARG553  GLY616  TRP617  ASP618  TYR619  PRO620  LYS621  CYS622 
 ASP623  PHE694  ASN695  SER759  ASP760  ASP761  ALA762  ILE779  LEU786  VAL792 
 PHE793  MET794  SER795  GLU796  ALA797  LYS798  CYS799  TRP800  GLU811  SER814 

> <Gold.Protein.RotatedAtoms>
  151.4058  135.0978  159.9569 H   0  0  0  0  0  0  0  0  0  0  0  0  # atno 6907 bound_to 6896
  152.5036  133.8845  159.7373 H   0  0  0  0  0  0  0  0  0  0  0  0  # atno 6908 bound_to 6896
  150.9329  133.6689  159.2835 H   0  0  0  0  0  0  0  0  0  0  0  0  # atno 6909 bound_to 6896
  144.9414  140.7243  143.4844 H   0  0  0  0  0  0  0  0  0  0  0  0  # atno 7974 bound_to 7965
  156.2533  140.1967  156.6640 H   0  0  0  0  0  0  0  0  0  0  0  0  # atno 8008 bound_to 7997
  154.6443  140.0580  156.9907 H   0  0  0  0  0  0  0  0  0  0  0  0  # atno 8009 bound_to 7997
  155.1515  140.3252  155.4433 H   0  0  0  0  0  0  0  0  0  0  0  0  # atno 8010 bound_to 7997
  140.3344  144.2548  150.6163 H   0  0  0  0  0  0  0  0  0  0  0  0  # atno 10167 bound_to 10162
  156.3695  130.7780  151.1959 H   0  0  0  0  0  0  0  0  0  0  0  0  # atno 10718 bound_to 10713
  154.2151  135.6387  153.5127 H   0  0  0  0  0  0  0  0  0  0  0  0  # atno 10763 bound_to 10752
  152.9981  135.5483  154.6174 H   0  0  0  0  0  0  0  0  0  0  0  0  # atno 10764 bound_to 10752
  154.5620  135.2910  155.0884 H   0  0  0  0  0  0  0  0  0  0  0  0  # atno 10765 bound_to 10752
  139.9109  134.7974  156.2002 H   0  0  0  0  0  0  0  0  0  0  0  0  # atno 11005 bound_to 11000
  145.2985  139.1858  143.4702 LP  0  0  0  0  0  0  0  0  0  0  0  0  # atno 17320 bound_to 7965
  146.3287  140.2973  142.8618 LP  0  0  0  0  0  0  0  0  0  0  0  0  # atno 17321 bound_to 7965
  140.5367  143.2232  151.8151 LP  0  0  0  0  0  0  0  0  0  0  0  0  # atno 17342 bound_to 10162
  139.4851  144.4652  151.9492 LP  0  0  0  0  0  0  0  0  0  0  0  0  # atno 17343 bound_to 10162
  157.7482  131.0376  150.4465 LP  0  0  0  0  0  0  0  0  0  0  0  0  # atno 17370 bound_to 10713
  156.4690  130.4048  149.6530 LP  0  0  0  0  0  0  0  0  0  0  0  0  # atno 17371 bound_to 10713
  141.0529  133.6879  156.1806 LP  0  0  0  0  0  0  0  0  0  0  0  0  # atno 17394 bound_to 11000
  140.6781  134.4796  157.5588 LP  0  0  0  0  0  0  0  0  0  0  0  0  # atno 17395 bound_to 11000

$$$$
