AV-unprocessed.smi:2728|AV-procd|sdf|10525|dock5
  -GOLD-   2272014563D 1   1.00000     0.00000
 Structure written by MMmdl.
 34 35  0  0  0  0  0  0  0  0  1 V2000
  149.7693  140.3961  156.0666 O   0  0  0  0  0  0  0  0  0  0  0  0
  149.6184  141.6153  155.9794 C   0  0  0  0  0  0  0  0  0  0  0  0
  148.7898  142.1959  155.0993 N   0  0  0  0  0  0  0  0  0  0  0  0
  147.9548  141.4823  154.1400 C   0  0  0  0  0  0  0  0  0  0  0  0
  146.5041  141.3593  154.6357 C   0  0  0  0  0  0  0  0  0  0  0  0
  145.7021  142.6255  154.4077 C   0  0  0  0  0  0  0  0  0  0  0  0
  145.8944  143.5235  153.4425 C   0  0  0  0  0  0  0  0  0  0  0  0
  144.9023  144.6527  153.4944 C   0  0  0  0  0  0  0  0  0  0  0  0
  144.0106  144.3120  154.7092 C   0  0  0  0  0  0  0  0  0  0  0  0
  144.5336  142.9794  155.2915 C   0  0  0  0  0  0  0  0  0  0  0  0
  150.2462  142.5335  156.7355 N   0  0  0  0  0  0  0  0  0  0  0  0
  151.1785  142.3182  157.7855 C   0  0  0  0  0  0  0  0  0  0  0  0
  151.8119  143.4846  158.2717 C   0  0  0  0  0  0  0  0  0  0  0  0
  152.7512  143.3793  159.3162 C   0  0  0  0  0  0  0  0  0  0  0  0
  153.0323  142.1078  159.8466 C   0  0  0  0  0  0  0  0  0  0  0  0
  153.9271  141.9570  160.8516 F   0  0  0  0  0  0  0  0  0  0  0  0
  152.3595  140.9965  159.3058 C   0  0  0  0  0  0  0  0  0  0  0  0
  151.4589  141.0962  158.3049 N   0  0  0  0  0  0  0  0  0  0  0  0
  148.7273  143.2034  155.0948 H   0  0  0  0  0  0  0  0  0  0  0  0
  147.9937  141.9811  153.1701 H   0  0  0  0  0  0  0  0  0  0  0  0
  148.3818  140.4894  153.9957 H   0  0  0  0  0  0  0  0  0  0  0  0
  146.0092  140.5330  154.1234 H   0  0  0  0  0  0  0  0  0  0  0  0
  146.4829  141.1250  155.7007 H   0  0  0  0  0  0  0  0  0  0  0  0
  146.6654  143.4726  152.6878 H   0  0  0  0  0  0  0  0  0  0  0  0
  145.4186  145.6040  153.6249 H   0  0  0  0  0  0  0  0  0  0  0  0
  144.3273  144.6911  152.5690 H   0  0  0  0  0  0  0  0  0  0  0  0
  144.0634  145.1040  155.4570 H   0  0  0  0  0  0  0  0  0  0  0  0
  142.9662  144.2201  154.4091 H   0  0  0  0  0  0  0  0  0  0  0  0
  143.7766  142.1959  155.2465 H   0  0  0  0  0  0  0  0  0  0  0  0
  144.8526  143.0954  156.3276 H   0  0  0  0  0  0  0  0  0  0  0  0
  150.0238  143.4989  156.5441 H   0  0  0  0  0  0  0  0  0  0  0  0
  151.5824  144.4536  157.8527 H   0  0  0  0  0  0  0  0  0  0  0  0
  153.2454  144.2584  159.7026 H   0  0  0  0  0  0  0  0  0  0  0  0
  152.5476  140.0032  159.6855 H   0  0  0  0  0  0  0  0  0  0  0  0
  1  2  2  0  0  0  0
  2  3  1  0  0  0  0
  2 11  1  0  0  0  0
  3  4  1  0  0  0  0
  3 19  1  0  0  0  0
  4  5  1  0  0  0  0
  4 20  1  0  0  0  0
  4 21  1  0  0  0  0
  5  6  1  0  0  0  0
  5 22  1  0  0  0  0
  5 23  1  0  0  0  0
  6 10  1  0  0  0  0
  6  7  2  0  0  0  0
  7  8  1  0  0  0  0
  7 24  1  0  0  0  0
  8  9  1  0  0  0  0
  8 25  1  0  0  0  0
  8 26  1  0  0  0  0
  9 10  1  0  0  0  0
  9 27  1  0  0  0  0
  9 28  1  0  0  0  0
 10 29  1  0  0  0  0
 10 30  1  0  0  0  0
 11 12  1  0  0  0  0
 11 31  1  0  0  0  0
 12 18  1  0  0  0  0
 12 13  2  0  0  0  0
 13 14  1  0  0  0  0
 13 32  1  0  0  0  0
 14 15  2  0  0  0  0
 14 33  1  0  0  0  0
 15 16  1  0  0  0  0
 15 17  1  0  0  0  0
 17 18  2  0  0  0  0
 17 34  1  0  0  0  0
M  END
> <s_m_source_file>
AV-unprocessed.smi

> <i_m_source_file_index>
2728

> <i_lp_mmshare_version>
43012

> <i_f3d_flags>
0

> <s_epik_input>
bjFbY0hdYyhGKVtjSF1bY0hdYzFbTkhdQyg9TylbTkhdW0NIMl1bQ0gyXUMyPVtDSF1bQ0gyXVtDSDJdW0NIMl0y

> <s_epik_cmdline>
J2VwaWtfcHl0aG9uJywgJy1waCcsICc3LjAnLCAnLXRuJywgJzgnLCAnLW1hJywgJzIwMCcsICctbWV0YWxfYmluZGluZycsICctaW1hZScsICc8aW5maWxlLm1hZT4nLCAnLW9tYWUnLCAnPG91dGZpbGUubWFlPic=

> <r_lp_tautomer_probability>
1

> <r_epik_Ionization_Penalty>
3.75783e-05

> <r_epik_Ionization_Penalty_Charging>
0

> <r_epik_Ionization_Penalty_Neutral>
3.75783e-05

> <r_epik_State_Penalty>
-0

> <r_epik_Charging_Adjusted_Penalty>
0

> <i_epik_Tot_Q>
0

> <i_epik_Tot_abs_Q>
0

> <r_epik_Metal_State_Penalty>
-0

> <b_epik_Metal_Only>
0

> <s_lp_Force_Field>
OPLS_2005

> <r_lp_Energy>
20.4042

> <b_lp_Chiralities_Consistent>
1

> <s_lp_Variant>
AV-unprocessed.smi:2728-1

> <Gold.Version>
5.8.1

> <Gold.Id.Protein>
6NUR|6NUR_protein|mol2

> <Gold.PLP.Fitness>
46.0658

> <Gold.PLP.PLP>
-41.4315

> <Gold.PLP.part.hbond>
-2.0000

> <Gold.PLP.part.metal>
0.0000

> <Gold.PLP.part.buried>
-6.2379

> <Gold.PLP.part.nonpolar>
-33.8249

> <Gold.PLP.part.repulsive>
0.2636

> <Gold.PLP.ligand.clash>
0.0000

> <Gold.PLP.ligand.torsion>
0.6248

> <Gold.PLP.Chemscore.Hbond>
1.9600

> <Gold.PLP.Chemscore.CHOScore>
0.0000

> <Gold.PLP.Chemscore.Metal>
0.0000

> <Gold.Chemscore.Hbonds>
donor molecule, donor type, donor heavy atom, donor atom, acceptor molecule, acceptor atom, score
      L1  H     3    19       P1  8028  1.00
      L1  H    11    31       P1  8028  0.96

> <Gold.PLP.Chemscore.Internal.Correction>
0.0039

> <Gold.Rescore>
     Score         DG    S(hbond)    S(metal)    S(lipo)     H(rot)  DE(clash)    DE(int)     intcor
     16.38     -18.23       1.95        0.00      85.73       1.48       0.03       1.82       ----

> <Gold.Chemscore.Fitness>
16.3820

> <Gold.Chemscore.DG>
-18.2298

> <Gold.Chemscore.ZeroCoef>
-5.4800

> <Gold.Chemscore.Hbond>
1.9499

> <Gold.Chemscore.Metal>
0.0000

> <Gold.Chemscore.Lipo>
85.7286

> <Gold.Chemscore.Internal_Hbond>
0.0000

> <Gold.Chemscore.DEClash>
0.0265

> <Gold.Chemscore.DEInternal>
1.8213

> <Gold.Chemscore.Rot>
1.4818

> <Gold.Chemscore.Internal.Correction>
   9.000000E+99

> <Gold.Chemscore.Hbonds>
donor molecule, donor type, donor heavy atom, donor atom, acceptor molecule, acceptor atom, score
      L1  H     3    19       P1  8028  0.98
      L1  H    11    31       P1  8028  0.92

> <Gold.Chemscore.Hbond.Weighted>
-6.5128

> <Gold.Chemscore.Metal.Weighted>
-0.0000

> <Gold.Chemscore.Lipo.Weighted>
-10.0302

> <Gold.Chemscore.Internal_Hbond.Weighted>
0.0000

> <Gold.Chemscore.DEClash.Weighted>
0.0265

> <Gold.Chemscore.DEInternal.Weighted>
1.8213

> <Gold.Chemscore.Rot.Weighted>
3.7933

> <Gold.Chemscore.Internal.Correction.Weighted>
   9.000000E+99

> <Gold.Protein.RotatedTorsions>
[ 6907 6896 6895 6894 ] final  -96.82 input  -60.11 | X-H torsion
[ 7974 7965 7964 7962 ] final  -46.64 input  175.53 | X-H torsion
[ 8008 7997 7996 7995 ] final  -99.28 input   59.86 | X-H torsion
[ 10167 10162 10161 10158 ] final  -16.39 input  -65.29 | X-H torsion
[ 10718 10713 10712 10709 ] final  -70.32 input   66.30 | X-H torsion
[ 10763 10752 10751 10750 ] final  -78.57 input  -60.55 | X-H torsion
[ 11005 11000 10999 10996 ] final    2.72 input  -57.11 | X-H torsion

> <Gold.Protein.ActiveResidues>
 VAL166  LYS551  ARG553  GLY616  TRP617  ASP618  TYR619  PRO620  LYS621  CYS622 
 ASP623  PHE694  ASN695  SER759  ASP760  ASP761  ALA762  ILE779  LEU786  VAL792 
 PHE793  MET794  SER795  GLU796  ALA797  LYS798  CYS799  TRP800  GLU811  SER814 

> <Gold.Protein.RotatedAtoms>
  150.6999  134.1444  159.4116 H   0  0  0  0  0  0  0  0  0  0  0  0  # atno 6907 bound_to 6896
  151.9428  135.0203  160.0546 H   0  0  0  0  0  0  0  0  0  0  0  0  # atno 6908 bound_to 6896
  152.2079  133.4854  159.5131 H   0  0  0  0  0  0  0  0  0  0  0  0  # atno 6909 bound_to 6896
  145.9698  140.7394  142.9416 H   0  0  0  0  0  0  0  0  0  0  0  0  # atno 7974 bound_to 7965
  154.8126  140.0449  157.1354 H   0  0  0  0  0  0  0  0  0  0  0  0  # atno 8008 bound_to 7997
  154.9351  140.3045  155.5128 H   0  0  0  0  0  0  0  0  0  0  0  0  # atno 8009 bound_to 7997
  156.2973  140.2316  156.4414 H   0  0  0  0  0  0  0  0  0  0  0  0  # atno 8010 bound_to 7997
  140.7233  143.5121  150.9737 H   0  0  0  0  0  0  0  0  0  0  0  0  # atno 10167 bound_to 10162
  156.0413  130.4329  150.2277 H   0  0  0  0  0  0  0  0  0  0  0  0  # atno 10718 bound_to 10713
  154.5275  135.5725  153.6731 H   0  0  0  0  0  0  0  0  0  0  0  0  # atno 10763 bound_to 10752
  152.9931  135.6196  154.2673 H   0  0  0  0  0  0  0  0  0  0  0  0  # atno 10764 bound_to 10752
  154.2597  135.2856  155.2763 H   0  0  0  0  0  0  0  0  0  0  0  0  # atno 10765 bound_to 10752
  140.6011  133.9835  155.8132 H   0  0  0  0  0  0  0  0  0  0  0  0  # atno 11005 bound_to 11000
  144.6834  140.2730  143.7303 LP  0  0  0  0  0  0  0  0  0  0  0  0  # atno 17320 bound_to 7965
  145.7922  139.1931  143.2096 LP  0  0  0  0  0  0  0  0  0  0  0  0  # atno 17321 bound_to 7965
  139.8835  143.7042  152.3154 LP  0  0  0  0  0  0  0  0  0  0  0  0  # atno 17342 bound_to 10162
  139.7333  144.7577  151.0768 LP  0  0  0  0  0  0  0  0  0  0  0  0  # atno 17343 bound_to 10162
  157.0372  131.0024  151.3294 LP  0  0  0  0  0  0  0  0  0  0  0  0  # atno 17370 bound_to 10713
  157.5235  130.8013  149.7836 LP  0  0  0  0  0  0  0  0  0  0  0  0  # atno 17371 bound_to 10713
  141.0871  133.9973  157.3296 LP  0  0  0  0  0  0  0  0  0  0  0  0  # atno 17394 bound_to 11000
  139.9232  135.0201  156.8140 LP  0  0  0  0  0  0  0  0  0  0  0  0  # atno 17395 bound_to 11000

$$$$
