AV-unprocessed.smi:3303|AV-procd|sdf|12685|dock3
  -GOLD-   2272019 23D 1   1.00000     0.00000
 Structure written by MMmdl.
 44 45  0  0  0  0  0  0  0  0  2 V2000
  146.9963  142.5753  154.2788 C   0  0  0  0  0  0  0  0  0  0  0  0
  147.7669  141.3688  153.7136 C   0  0  2  0  0  0  0  0  0  0  0  0
  146.7771  140.3159  153.1717 C   0  0  0  0  0  0  0  0  0  0  0  0
  147.4819  139.1282  152.6274 N   0  3  2  0  0  0  0  0  0  0  0  0
  146.5778  138.2014  151.9094 C   0  0  0  0  0  0  0  0  0  0  0  0
  148.3734  138.4644  153.6199 C   0  0  2  0  0  0  0  0  0  0  0  0
  147.6136  137.7398  154.7523 C   0  0  0  0  0  0  0  0  0  0  0  0
  149.3970  139.4808  154.1593 C   0  0  0  0  0  0  0  0  0  0  0  0
  148.7228  140.7326  154.7520 C   0  0  1  0  0  0  0  0  0  0  0  0
  149.7806  141.6753  155.0926 N   0  0  0  0  0  0  0  0  0  0  0  0
  150.2935  141.4471  156.4363 C   0  0  0  0  0  0  0  0  0  0  0  0
  150.8941  142.7360  157.0227 C   0  0  0  0  0  0  0  0  0  0  0  0
  151.6666  142.5021  158.3110 C   0  0  0  0  0  0  0  0  0  0  0  0
  152.2059  143.5911  159.0285 C   0  0  0  0  0  0  0  0  0  0  0  0
  152.9330  143.3265  160.2052 C   0  0  0  0  0  0  0  0  0  0  0  0
  153.0949  141.9895  160.6163 C   0  0  0  0  0  0  0  0  0  0  0  0
  152.5184  140.9725  159.8298 C   0  0  0  0  0  0  0  0  0  0  0  0
  151.8187  141.2156  158.7006 N   0  0  0  0  0  0  0  0  0  0  0  0
  146.4091  142.2962  155.1541 H   0  0  0  0  0  0  0  0  0  0  0  0
  146.3115  142.9863  153.5365 H   0  0  0  0  0  0  0  0  0  0  0  0
  147.6703  143.3807  154.5719 H   0  0  0  0  0  0  0  0  0  0  0  0
  148.3625  141.7232  152.8703 H   0  0  0  0  0  0  0  0  0  0  0  0
  146.0763  140.0104  153.9491 H   0  0  0  0  0  0  0  0  0  0  0  0
  146.1780  140.7633  152.3773 H   0  0  0  0  0  0  0  0  0  0  0  0
  145.7896  137.8246  152.5617 H   0  0  0  0  0  0  0  0  0  0  0  0
  147.1311  137.3516  151.5085 H   0  0  0  0  0  0  0  0  0  0  0  0
  146.1019  138.7112  151.0713 H   0  0  0  0  0  0  0  0  0  0  0  0
  148.9377  137.7033  153.0793 H   0  0  0  0  0  0  0  0  0  0  0  0
  148.3138  137.2708  155.4442 H   0  0  0  0  0  0  0  0  0  0  0  0
  146.9731  136.9462  154.3679 H   0  0  0  0  0  0  0  0  0  0  0  0
  146.9904  138.4166  155.3358 H   0  0  0  0  0  0  0  0  0  0  0  0
  150.0357  139.0069  154.9061 H   0  0  0  0  0  0  0  0  0  0  0  0
  150.0573  139.7763  153.3419 H   0  0  0  0  0  0  0  0  0  0  0  0
  148.1613  140.4435  155.6420 H   0  0  0  0  0  0  0  0  0  0  0  0
  150.5381  141.6117  154.4273 H   0  0  0  0  0  0  0  0  0  0  0  0
  149.4997  141.0835  157.0897 H   0  0  0  0  0  0  0  0  0  0  0  0
  151.0569  140.6696  156.3919 H   0  0  0  0  0  0  0  0  0  0  0  0
  151.5679  143.1836  156.2913 H   0  0  0  0  0  0  0  0  0  0  0  0
  150.1089  143.4737  157.1966 H   0  0  0  0  0  0  0  0  0  0  0  0
  152.0705  144.6059  158.6841 H   0  0  0  0  0  0  0  0  0  0  0  0
  153.3604  144.1342  160.7807 H   0  0  0  0  0  0  0  0  0  0  0  0
  153.6476  141.7491  161.5123 H   0  0  0  0  0  0  0  0  0  0  0  0
  152.6234  139.9361  160.1142 H   0  0  0  0  0  0  0  0  0  0  0  0
  148.1043  139.4906  151.9188 H   0  0  0  0  0  0  0  0  0  0  0  0
  1  2  1  0  0  0  0
  1 19  1  0  0  0  0
  1 20  1  0  0  0  0
  1 21  1  0  0  0  0
  2  9  1  0  0  0  0
  2  3  1  0  0  0  0
  2 22  1  0  0  0  0
  3  4  1  0  0  0  0
  3 23  1  0  0  0  0
  3 24  1  0  0  0  0
  4  5  1  0  0  0  0
  4  6  1  0  0  0  0
  4 44  1  0  0  0  0
  5 25  1  0  0  0  0
  5 26  1  0  0  0  0
  5 27  1  0  0  0  0
  6  7  1  0  0  0  0
  6  8  1  0  0  0  0
  6 28  1  0  0  0  0
  7 29  1  0  0  0  0
  7 30  1  0  0  0  0
  7 31  1  0  0  0  0
  8  9  1  0  0  0  0
  8 32  1  0  0  0  0
  8 33  1  0  0  0  0
  9 10  1  0  0  0  0
  9 34  1  0  0  0  0
 10 11  1  0  0  0  0
 10 35  1  0  0  0  0
 11 12  1  0  0  0  0
 11 36  1  0  0  0  0
 11 37  1  0  0  0  0
 12 13  1  0  0  0  0
 12 38  1  0  0  0  0
 12 39  1  0  0  0  0
 13 18  1  0  0  0  0
 13 14  2  0  0  0  0
 14 15  1  0  0  0  0
 14 40  1  0  0  0  0
 15 16  2  0  0  0  0
 15 41  1  0  0  0  0
 16 17  1  0  0  0  0
 16 42  1  0  0  0  0
 17 18  2  0  0  0  0
 17 43  1  0  0  0  0
M  CHG  1   4   1
M  END
> <s_m_source_file>
AV-unprocessed.smi

> <i_m_source_file_index>
3303

> <i_lp_mmshare_version>
43012

> <i_f3d_flags>
0

> <s_epik_input>
W0NIM11bQ0BASF0xW0NIMl1OKFtDSDNdKVtDQEBIXShbQ0gzXSlbQ0gyXVtDQEhdMVtOSF1bQ0gyXVtDSDJdYzJbY0hdW2NIXVtjSF1bY0hdbjI=

> <s_epik_cmdline>
J2VwaWtfcHl0aG9uJywgJy1waCcsICc3LjAnLCAnLXRuJywgJzgnLCAnLW1hJywgJzIwMCcsICctbWV0YWxfYmluZGluZycsICctaW1hZScsICc8aW5maWxlLm1hZT4nLCAnLW9tYWUnLCAnPG91dGZpbGUubWFlPic=

> <r_epik_Ionization_Penalty>
2.31085

> <r_epik_Ionization_Penalty_Charging>
0.000313057

> <r_epik_Ionization_Penalty_Neutral>
2.31054

> <r_epik_State_Penalty>
2.4087

> <r_epik_Charging_Adjusted_Penalty>
2.40902

> <i_epik_Tot_Q>
1

> <i_epik_Tot_abs_Q>
1

> <r_epik_Metal_State_Penalty>
2.30979

> <b_epik_Metal_Only>
0

> <s_lp_Force_Field>
OPLS_2005

> <r_lp_Energy>
26.7889

> <b_lp_Chiralities_Consistent>
1

> <s_lp_Variant>
AV-unprocessed.smi:3303-29

> <Gold.Version>
5.8.1

> <Gold.Id.Protein>
6NUR|6NUR_protein|mol2

> <Gold.PLP.Fitness>
39.2523

> <Gold.PLP.PLP>
-37.2871

> <Gold.PLP.part.hbond>
-1.9305

> <Gold.PLP.part.metal>
0.0000

> <Gold.PLP.part.buried>
3.2692

> <Gold.PLP.part.nonpolar>
-38.7834

> <Gold.PLP.part.repulsive>
0.0535

> <Gold.PLP.ligand.clash>
0.0000

> <Gold.PLP.ligand.torsion>
0.5211

> <Gold.PLP.Chemscore.Hbond>
1.0000

> <Gold.PLP.Chemscore.CHOScore>
0.0000

> <Gold.PLP.Chemscore.Metal>
0.0000

> <Gold.Chemscore.Hbonds>
donor molecule, donor type, donor heavy atom, donor atom, acceptor molecule, acceptor atom, score
      L1  H     4    44       P1  7957  1.00

> <Gold.PLP.Chemscore.Internal.Correction>
0.0074

> <Gold.Rescore>
     Score         DG    S(hbond)    S(metal)    S(lipo)     H(rot)  DE(clash)    DE(int)     intcor
     18.08     -19.63       0.99        0.00     121.58       1.33       1.04       0.50       ----

> <Gold.Chemscore.Fitness>
18.0819

> <Gold.Chemscore.DG>
-19.6293

> <Gold.Chemscore.ZeroCoef>
-5.4800

> <Gold.Chemscore.Hbond>
0.9946

> <Gold.Chemscore.Metal>
0.0000

> <Gold.Chemscore.Lipo>
121.5798

> <Gold.Chemscore.Internal_Hbond>
0.0000

> <Gold.Chemscore.DEClash>
1.0448

> <Gold.Chemscore.DEInternal>
0.5025

> <Gold.Chemscore.Rot>
1.3272

> <Gold.Chemscore.Internal.Correction>
   9.000000E+99

> <Gold.Chemscore.Hbonds>
donor molecule, donor type, donor heavy atom, donor atom, acceptor molecule, acceptor atom, score
      L1  H     4    44       P1  7957  1.00

> <Gold.Chemscore.Hbond.Weighted>
-3.3221

> <Gold.Chemscore.Metal.Weighted>
-0.0000

> <Gold.Chemscore.Lipo.Weighted>
-14.2248

> <Gold.Chemscore.Internal_Hbond.Weighted>
0.0000

> <Gold.Chemscore.DEClash.Weighted>
1.0448

> <Gold.Chemscore.DEInternal.Weighted>
0.5025

> <Gold.Chemscore.Rot.Weighted>
3.3976

> <Gold.Chemscore.Internal.Correction.Weighted>
   9.000000E+99

> <Gold.Protein.RotatedTorsions>
[ 6907 6896 6895 6894 ] final   54.22 input  -60.11 | X-H torsion
[ 7974 7965 7964 7962 ] final -157.80 input  175.53 | X-H torsion
[ 8008 7997 7996 7995 ] final -109.46 input   59.86 | X-H torsion
[ 10167 10162 10161 10158 ] final  -85.51 input  -65.29 | X-H torsion
[ 10718 10713 10712 10709 ] final -178.67 input   66.30 | X-H torsion
[ 10763 10752 10751 10750 ] final   51.46 input  -60.55 | X-H torsion
[ 11005 11000 10999 10996 ] final  -71.50 input  -57.11 | X-H torsion

> <Gold.Protein.ActiveResidues>
 VAL166  LYS551  ARG553  GLY616  TRP617  ASP618  TYR619  PRO620  LYS621  CYS622 
 ASP623  PHE694  ASN695  SER759  ASP760  ASP761  ALA762  ILE779  LEU786  VAL792 
 PHE793  MET794  SER795  GLU796  ALA797  LYS798  CYS799  TRP800  GLU811  SER814 

> <Gold.Protein.RotatedAtoms>
  152.3417  134.7125  160.0261 H   0  0  0  0  0  0  0  0  0  0  0  0  # atno 6907 bound_to 6896
  151.7508  133.3322  159.3399 H   0  0  0  0  0  0  0  0  0  0  0  0  # atno 6908 bound_to 6896
  150.7484  134.6126  159.6139 H   0  0  0  0  0  0  0  0  0  0  0  0  # atno 6909 bound_to 6896
  144.7532  140.3918  143.6032 H   0  0  0  0  0  0  0  0  0  0  0  0  # atno 7974 bound_to 7965
  154.9597  140.0399  157.2184 H   0  0  0  0  0  0  0  0  0  0  0  0  # atno 8008 bound_to 7997
  154.7900  140.2834  155.5976 H   0  0  0  0  0  0  0  0  0  0  0  0  # atno 8009 bound_to 7997
  156.2948  140.2575  156.2746 H   0  0  0  0  0  0  0  0  0  0  0  0  # atno 8010 bound_to 7997
  140.4030  143.2654  151.9118 H   0  0  0  0  0  0  0  0  0  0  0  0  # atno 10167 bound_to 10162
  156.8477  130.9708  151.3095 H   0  0  0  0  0  0  0  0  0  0  0  0  # atno 10718 bound_to 10713
  152.9785  135.5845  154.4419 H   0  0  0  0  0  0  0  0  0  0  0  0  # atno 10763 bound_to 10752
  154.4019  135.2769  155.2093 H   0  0  0  0  0  0  0  0  0  0  0  0  # atno 10764 bound_to 10752
  154.3920  135.6123  153.5903 H   0  0  0  0  0  0  0  0  0  0  0  0  # atno 10765 bound_to 10752
  141.1593  133.6819  156.6916 H   0  0  0  0  0  0  0  0  0  0  0  0  # atno 11005 bound_to 11000
  145.6869  139.1630  143.2669 LP  0  0  0  0  0  0  0  0  0  0  0  0  # atno 17320 bound_to 7965
  146.1511  140.6924  142.9322 LP  0  0  0  0  0  0  0  0  0  0  0  0  # atno 17321 bound_to 7965
  139.4784  144.5614  151.8233 LP  0  0  0  0  0  0  0  0  0  0  0  0  # atno 17342 bound_to 10162
  140.4719  144.1574  150.5919 LP  0  0  0  0  0  0  0  0  0  0  0  0  # atno 17343 bound_to 10162
  157.6320  130.8737  149.9291 LP  0  0  0  0  0  0  0  0  0  0  0  0  # atno 17370 bound_to 10713
  156.0845  130.3669  150.0515 LP  0  0  0  0  0  0  0  0  0  0  0  0  # atno 17371 bound_to 10713
  140.3026  134.8151  157.4111 LP  0  0  0  0  0  0  0  0  0  0  0  0  # atno 17394 bound_to 11000
  140.1248  134.5172  155.8153 LP  0  0  0  0  0  0  0  0  0  0  0  0  # atno 17395 bound_to 11000

$$$$
