AV-unprocessed.smi:19|AV-procd|sdf|112|dock8
  -GOLD-   2262015273D 1   1.00000     0.00000
 Structure written by MMmdl.
 57 60  0  0  0  0  0  0  0  0  1 V2000
  147.2153  127.6479  153.1485 C   0  0  0  0  0  0  0  0  0  0  0  0
  146.6132  128.9201  152.9869 O   0  0  0  0  0  0  0  0  0  0  0  0
  146.3899  129.2471  151.6243 C   0  0  0  0  0  0  0  0  0  0  0  0
  145.8389  130.6752  151.5071 C   0  0  1  0  0  0  0  0  0  0  0  0
  146.6389  131.6993  152.3332 C   0  0  0  0  0  0  0  0  0  0  0  0
  146.1236  133.0433  152.1003 N   0  0  0  0  0  0  0  0  0  0  0  0
  146.5409  133.9788  152.9916 C   0  0  0  0  0  0  0  0  0  0  0  0
  147.5636  133.6980  153.8435 N   0  0  0  0  0  0  0  0  0  0  0  0
  147.9717  134.6072  154.7331 C   0  0  0  0  0  0  0  0  0  0  0  0
  147.5090  135.8416  154.9356 N   0  0  0  0  0  0  0  0  0  0  0  0
  146.4937  136.1383  154.0755 C   0  0  0  0  0  0  0  0  0  0  0  0
  145.9509  135.2716  153.0841 C   0  0  0  0  0  0  0  0  0  0  0  0
  144.9304  135.9203  152.3993 N   0  0  0  0  0  0  0  0  0  0  0  0
  144.8645  137.0953  152.9623 C   0  0  0  0  0  0  0  0  0  0  0  0
  145.7783  137.3194  153.9681 N   0  0  0  0  0  0  0  0  0  0  0  0
  145.9213  138.5343  154.7599 C   0  0  0  0  0  0  0  0  0  0  0  0
  147.1073  139.4562  154.3456 C   0  0  0  0  0  0  0  0  0  0  0  0
  147.0048  139.8397  152.8413 C   0  0  0  0  0  0  0  0  0  0  0  0
  147.2563  138.7399  151.9899 O   0  0  0  0  0  0  0  0  0  0  0  0
  147.1045  140.7440  155.2089 C   0  0  0  0  0  0  0  0  0  0  0  0
  148.4121  141.5509  155.0984 C   0  0  0  0  0  0  0  0  0  0  0  0
  149.5261  140.7300  155.4230 O   0  0  0  0  0  0  0  0  0  0  0  0
  149.6684  139.6229  154.5427 C   0  0  0  0  0  0  0  0  0  0  0  0
  148.4327  138.7123  154.6496 C   0  0  0  0  0  0  0  0  0  0  0  0
  146.0991  133.4056  150.6853 C   0  0  0  0  0  0  0  0  0  0  0  0
  145.3253  132.3569  149.8628 C   0  0  2  0  0  0  0  0  0  0  0  0
  143.8000  132.4377  150.0494 C   0  0  0  0  0  0  0  0  0  0  0  0
  145.8312  131.0469  150.1289 O   0  0  0  0  0  0  0  0  0  0  0  0
  147.3598  127.4424  154.2091 H   0  0  0  0  0  0  0  0  0  0  0  0
  148.1910  127.6088  152.6625 H   0  0  0  0  0  0  0  0  0  0  0  0
  146.5860  126.8582  152.7356 H   0  0  0  0  0  0  0  0  0  0  0  0
  147.3177  129.1594  151.0567 H   0  0  0  0  0  0  0  0  0  0  0  0
  145.6773  128.5427  151.1925 H   0  0  0  0  0  0  0  0  0  0  0  0
  144.8112  130.6537  151.8700 H   0  0  0  0  0  0  0  0  0  0  0  0
  146.5941  131.4286  153.3872 H   0  0  0  0  0  0  0  0  0  0  0  0
  147.6914  131.6787  152.0472 H   0  0  0  0  0  0  0  0  0  0  0  0
  148.7849  134.3019  155.3750 H   0  0  0  0  0  0  0  0  0  0  0  0
  144.1455  137.8394  152.6518 H   0  0  0  0  0  0  0  0  0  0  0  0
  144.9809  139.0823  154.6867 H   0  0  0  0  0  0  0  0  0  0  0  0
  146.0101  138.2494  155.8089 H   0  0  0  0  0  0  0  0  0  0  0  0
  146.0177  140.2393  152.6085 H   0  0  0  0  0  0  0  0  0  0  0  0
  147.7129  140.6225  152.5755 H   0  0  0  0  0  0  0  0  0  0  0  0
  148.0977  138.8646  151.5780 H   0  0  0  0  0  0  0  0  0  0  0  0
  146.2650  141.3858  154.9400 H   0  0  0  0  0  0  0  0  0  0  0  0
  146.9602  140.4767  156.2568 H   0  0  0  0  0  0  0  0  0  0  0  0
  148.5379  141.9796  154.1039 H   0  0  0  0  0  0  0  0  0  0  0  0
  148.3874  142.3897  155.7940 H   0  0  0  0  0  0  0  0  0  0  0  0
  149.8280  139.9671  153.5204 H   0  0  0  0  0  0  0  0  0  0  0  0
  150.5622  139.0672  154.8263 H   0  0  0  0  0  0  0  0  0  0  0  0
  148.4001  138.3119  155.6639 H   0  0  0  0  0  0  0  0  0  0  0  0
  148.5520  137.8475  153.9964 H   0  0  0  0  0  0  0  0  0  0  0  0
  145.6465  134.3890  150.5509 H   0  0  0  0  0  0  0  0  0  0  0  0
  147.1251  133.4705  150.3200 H   0  0  0  0  0  0  0  0  0  0  0  0
  145.5241  132.5500  148.8083 H   0  0  0  0  0  0  0  0  0  0  0  0
  143.4206  133.4013  149.7081 H   0  0  0  0  0  0  0  0  0  0  0  0
  143.5045  132.3260  151.0921 H   0  0  0  0  0  0  0  0  0  0  0  0
  143.2960  131.6622  149.4725 H   0  0  0  0  0  0  0  0  0  0  0  0
  1  2  1  0  0  0  0
  1 29  1  0  0  0  0
  1 30  1  0  0  0  0
  1 31  1  0  0  0  0
  2  3  1  0  0  0  0
  3  4  1  0  0  0  0
  3 32  1  0  0  0  0
  3 33  1  0  0  0  0
  4 28  1  0  0  0  0
  4  5  1  0  0  0  0
  4 34  1  0  0  0  0
  5  6  1  0  0  0  0
  5 35  1  0  0  0  0
  5 36  1  0  0  0  0
  6  7  1  0  0  0  0
  6 25  1  0  0  0  0
  7 12  1  0  0  0  0
  7  8  2  0  0  0  0
  8  9  1  0  0  0  0
  9 10  2  0  0  0  0
  9 37  1  0  0  0  0
 10 11  1  0  0  0  0
 11 15  1  0  0  0  0
 11 12  2  0  0  0  0
 12 13  1  0  0  0  0
 13 14  2  0  0  0  0
 14 15  1  0  0  0  0
 14 38  1  0  0  0  0
 15 16  1  0  0  0  0
 16 17  1  0  0  0  0
 16 39  1  0  0  0  0
 16 40  1  0  0  0  0
 17 24  1  0  0  0  0
 17 18  1  0  0  0  0
 17 20  1  0  0  0  0
 18 19  1  0  0  0  0
 18 41  1  0  0  0  0
 18 42  1  0  0  0  0
 19 43  1  0  0  0  0
 20 21  1  0  0  0  0
 20 44  1  0  0  0  0
 20 45  1  0  0  0  0
 21 22  1  0  0  0  0
 21 46  1  0  0  0  0
 21 47  1  0  0  0  0
 22 23  1  0  0  0  0
 23 24  1  0  0  0  0
 23 48  1  0  0  0  0
 23 49  1  0  0  0  0
 24 50  1  0  0  0  0
 24 51  1  0  0  0  0
 25 26  1  0  0  0  0
 25 52  1  0  0  0  0
 25 53  1  0  0  0  0
 26 27  1  0  0  0  0
 26 28  1  0  0  0  0
 26 54  1  0  0  0  0
 27 55  1  0  0  0  0
 27 56  1  0  0  0  0
 27 57  1  0  0  0  0
M  END
> <s_m_source_file>
AV-unprocessed.smi

> <i_m_source_file_index>
19

> <i_lp_mmshare_version>
43012

> <i_f3d_flags>
0

> <s_epik_input>
W0NIM11PW0NIMl1bQ0BASF0xW0NIMl1OKFtDSDJdW0NASF0oTzEpW0NIM10pYyhuW2NIXW4yKWMoYzIzKW5bY0hdbjNbQ0gyXUM0KFtDSDJdW09IXSlbQ0gyXVtDSDJdT1tDSDJdW0NIMl00

> <s_epik_cmdline>
J2VwaWtfcHl0aG9uJywgJy1waCcsICc3LjAnLCAnLXRuJywgJzgnLCAnLW1hJywgJzIwMCcsICctbWV0YWxfYmluZGluZycsICctaW1hZScsICc8aW5maWxlLm1hZT4nLCAnLW9tYWUnLCAnPG91dGZpbGUubWFlPic=

> <r_lp_tautomer_probability>
1

> <r_epik_Ionization_Penalty>
6.20357e-05

> <r_epik_Ionization_Penalty_Charging>
0

> <r_epik_Ionization_Penalty_Neutral>
6.20357e-05

> <r_epik_State_Penalty>
-0

> <r_epik_Charging_Adjusted_Penalty>
0

> <i_epik_Tot_Q>
0

> <i_epik_Tot_abs_Q>
0

> <r_epik_Metal_State_Penalty>
-0

> <b_epik_Metal_Only>
0

> <s_lp_Force_Field>
OPLS_2005

> <r_lp_Energy>
39.077

> <b_lp_Chiralities_Consistent>
1

> <s_lp_Variant>
AV-unprocessed.smi:19-4

> <Gold.Version>
5.8.1

> <Gold.Id.Protein>
6NUR|6NUR_protein|mol2

> <Gold.PLP.Fitness>
44.9515

> <Gold.PLP.PLP>
-37.4263

> <Gold.PLP.part.hbond>
-3.0000

> <Gold.PLP.part.metal>
0.0000

> <Gold.PLP.part.buried>
-0.3875

> <Gold.PLP.part.nonpolar>
-34.6162

> <Gold.PLP.part.repulsive>
0.8009

> <Gold.PLP.ligand.clash>
0.0000

> <Gold.PLP.ligand.torsion>
0.5755

> <Gold.PLP.Chemscore.Hbond>
0.7840

> <Gold.PLP.Chemscore.CHOScore>
1.9993

> <Gold.PLP.Chemscore.Metal>
0.0000

> <Gold.Chemscore.Hbonds>
donor molecule, donor type, donor heavy atom, donor atom, acceptor molecule, acceptor atom, score
      L1  H    19    43       P1  7957  1.00
      L1  C    14    38       P1 10175  0.70

> <Gold.PLP.Chemscore.Internal.Correction>
0.3261

> <Gold.Rescore>
     Score         DG    S(hbond)    S(metal)    S(lipo)     H(rot)  DE(clash)    DE(int)     intcor
      9.06     -12.65       0.90        0.00      98.36       2.87       0.43       3.16       ----

> <Gold.Chemscore.Fitness>
9.0632

> <Gold.Chemscore.DG>
-12.6528

> <Gold.Chemscore.ZeroCoef>
-5.4800

> <Gold.Chemscore.Hbond>
0.9040

> <Gold.Chemscore.Metal>
0.0000

> <Gold.Chemscore.Lipo>
98.3582

> <Gold.Chemscore.Internal_Hbond>
0.0000

> <Gold.Chemscore.DEClash>
0.4300

> <Gold.Chemscore.DEInternal>
3.1596

> <Gold.Chemscore.Rot>
2.8729

> <Gold.Chemscore.Internal.Correction>
   9.000000E+99

> <Gold.Chemscore.Hbonds>
donor molecule, donor type, donor heavy atom, donor atom, acceptor molecule, acceptor atom, score
      L1  H    19    43       P1  7957  0.70

> <Gold.Chemscore.Hbond.Weighted>
-3.0195

> <Gold.Chemscore.Metal.Weighted>
-0.0000

> <Gold.Chemscore.Lipo.Weighted>
-11.5079

> <Gold.Chemscore.Internal_Hbond.Weighted>
0.0000

> <Gold.Chemscore.DEClash.Weighted>
0.4300

> <Gold.Chemscore.DEInternal.Weighted>
3.1596

> <Gold.Chemscore.Rot.Weighted>
7.3546

> <Gold.Chemscore.Internal.Correction.Weighted>
   9.000000E+99

> <Gold.Protein.RotatedTorsions>
[ 6907 6896 6895 6894 ] final -125.40 input  -60.11 | X-H torsion
[ 7974 7965 7964 7962 ] final    1.64 input  175.53 | X-H torsion
[ 8008 7997 7996 7995 ] final  128.23 input   59.86 | X-H torsion
[ 10167 10162 10161 10158 ] final -123.38 input  -65.29 | X-H torsion
[ 10718 10713 10712 10709 ] final   -8.81 input   66.30 | X-H torsion
[ 10763 10752 10751 10750 ] final  -31.71 input  -60.55 | X-H torsion
[ 11005 11000 10999 10996 ] final -140.88 input  -57.11 | X-H torsion

> <Gold.Protein.ActiveResidues>
 VAL166  LYS551  ARG553  GLY616  TRP617  ASP618  TYR619  PRO620  LYS621  CYS622 
 ASP623  PHE694  ASN695  SER759  ASP760  ASP761  ALA762  ILE779  LEU786  VAL792 
 PHE793  MET794  SER795  GLU796  ALA797  LYS798  CYS799  TRP800  GLU811  SER814 

> <Gold.Protein.RotatedAtoms>
  150.8863  133.7303  159.2917 H   0  0  0  0  0  0  0  0  0  0  0  0  # atno 6907 bound_to 6896
  151.4867  135.1054  159.9802 H   0  0  0  0  0  0  0  0  0  0  0  0  # atno 6908 bound_to 6896
  152.4792  133.8166  159.7087 H   0  0  0  0  0  0  0  0  0  0  0  0  # atno 6909 bound_to 6896
  146.2441  140.0957  142.8350 H   0  0  0  0  0  0  0  0  0  0  0  0  # atno 7974 bound_to 7965
  156.2910  140.2650  156.2402 H   0  0  0  0  0  0  0  0  0  0  0  0  # atno 8008 bound_to 7997
  154.9985  140.0388  157.2368 H   0  0  0  0  0  0  0  0  0  0  0  0  # atno 8009 bound_to 7997
  154.7622  140.2763  155.6209 H   0  0  0  0  0  0  0  0  0  0  0  0  # atno 8010 bound_to 7997
  140.0041  143.5510  152.2291 H   0  0  0  0  0  0  0  0  0  0  0  0  # atno 10167 bound_to 10162
  156.6972  130.5082  149.5927 H   0  0  0  0  0  0  0  0  0  0  0  0  # atno 10718 bound_to 10713
  153.8019  135.6889  153.4854 H   0  0  0  0  0  0  0  0  0  0  0  0  # atno 10763 bound_to 10752
  153.1683  135.4552  154.9866 H   0  0  0  0  0  0  0  0  0  0  0  0  # atno 10764 bound_to 10752
  154.8003  135.3335  154.7507 H   0  0  0  0  0  0  0  0  0  0  0  0  # atno 10765 bound_to 10752
  140.8379  134.2437  157.4824 H   0  0  0  0  0  0  0  0  0  0  0  0  # atno 11005 bound_to 11000
  145.0612  140.9089  143.4937 LP  0  0  0  0  0  0  0  0  0  0  0  0  # atno 17320 bound_to 7965
  145.1073  139.2781  143.5655 LP  0  0  0  0  0  0  0  0  0  0  0  0  # atno 17321 bound_to 7965
  139.6251  144.7636  151.2656 LP  0  0  0  0  0  0  0  0  0  0  0  0  # atno 17342 bound_to 10162
  140.7407  143.6579  150.8190 LP  0  0  0  0  0  0  0  0  0  0  0  0  # atno 17343 bound_to 10162
  156.1755  130.6465  151.0889 LP  0  0  0  0  0  0  0  0  0  0  0  0  # atno 17370 bound_to 10713
  157.6987  131.0784  150.6890 LP  0  0  0  0  0  0  0  0  0  0  0  0  # atno 17371 bound_to 10713
  139.8703  134.9620  156.4416 LP  0  0  0  0  0  0  0  0  0  0  0  0  # atno 17394 bound_to 11000
  140.8927  133.7837  155.9590 LP  0  0  0  0  0  0  0  0  0  0  0  0  # atno 17395 bound_to 11000

$$$$
