AV-unprocessed.smi:1082|AV-procd|sdf|4713|dock6
  -GOLD-   22720 3233D 1   1.00000     0.00000
 Structure written by MMmdl.
 49 51  0  0  0  0  0  0  0  0  3 V2000
  147.8934  140.2149  156.0449 O   0  0  0  0  0  0  0  0  0  0  0  0
  148.2389  141.3961  156.0503 C   0  0  0  0  0  0  0  0  0  0  0  0
  147.7876  142.3010  155.1719 N   0  0  0  0  0  0  0  0  0  0  0  0
  146.8420  142.0084  154.1032 C   0  0  0  0  0  0  0  0  0  0  0  0
  147.2470  140.7232  153.3640 C   0  0  0  0  0  0  0  0  0  0  0  0
  146.1042  139.7990  153.1708 N   0  3  0  0  0  0  0  0  0  0  0  0
  146.4120  138.6248  152.3180 C   0  0  0  0  0  0  0  0  0  0  0  0
  145.8949  137.3862  153.0586 C   0  0  0  0  0  0  0  0  0  0  0  0
  144.8858  137.9426  154.0551 C   0  0  0  0  0  0  0  0  0  0  0  0
  145.4876  139.2961  154.4188 C   0  0  0  0  0  0  0  0  0  0  0  0
  149.1186  141.9430  156.9059 N   0  0  0  0  0  0  0  0  0  0  0  0
  149.8393  141.3027  157.9536 C   0  0  0  0  0  0  0  0  0  0  0  0
  149.8865  139.8926  158.0986 C   0  0  0  0  0  0  0  0  0  0  0  0
  150.6026  139.3245  159.1710 C   0  0  0  0  0  0  0  0  0  0  0  0
  151.2539  140.1723  160.0861 C   0  0  0  0  0  0  0  0  0  0  0  0
  151.1784  141.5104  159.9288 N   0  3  0  0  0  0  0  0  0  0  0  0
  150.5001  142.1064  158.9172 C   0  0  0  0  0  0  0  0  0  0  0  0
  150.4894  143.5103  158.8456 N   0  0  0  0  0  0  0  0  0  0  0  0
  149.4088  144.1548  159.5867 C   0  0  0  0  0  0  0  0  0  0  0  0
  149.9919  145.4531  160.1437 C   0  0  0  0  0  0  0  0  0  0  0  0
  151.4547  145.0921  160.3668 C   0  0  0  0  0  0  0  0  0  0  0  0
  151.7538  144.1480  159.2014 C   0  0  0  0  0  0  0  0  0  0  0  0
  148.1240  143.2503  155.2430 H   0  0  0  0  0  0  0  0  0  0  0  0
  145.8450  141.9065  154.5346 H   0  0  0  0  0  0  0  0  0  0  0  0
  146.8094  142.8476  153.4064 H   0  0  0  0  0  0  0  0  0  0  0  0
  147.6443  140.9909  152.3835 H   0  0  0  0  0  0  0  0  0  0  0  0
  148.0477  140.2090  153.8983 H   0  0  0  0  0  0  0  0  0  0  0  0
  145.8949  138.7481  151.3660 H   0  0  0  0  0  0  0  0  0  0  0  0
  147.4776  138.5301  152.1034 H   0  0  0  0  0  0  0  0  0  0  0  0
  145.4632  136.6420  152.3887 H   0  0  0  0  0  0  0  0  0  0  0  0
  146.7162  136.9124  153.5980 H   0  0  0  0  0  0  0  0  0  0  0  0
  143.9191  138.0807  153.5689 H   0  0  0  0  0  0  0  0  0  0  0  0
  144.7408  137.2959  154.9210 H   0  0  0  0  0  0  0  0  0  0  0  0
  146.2535  139.1578  155.1839 H   0  0  0  0  0  0  0  0  0  0  0  0
  144.7430  139.9905  154.8093 H   0  0  0  0  0  0  0  0  0  0  0  0
  149.3723  142.9040  156.7299 H   0  0  0  0  0  0  0  0  0  0  0  0
  149.3737  139.2356  157.4125 H   0  0  0  0  0  0  0  0  0  0  0  0
  150.6474  138.2519  159.2915 H   0  0  0  0  0  0  0  0  0  0  0  0
  151.8236  139.8241  160.9357 H   0  0  0  0  0  0  0  0  0  0  0  0
  148.5568  144.3500  158.9350 H   0  0  0  0  0  0  0  0  0  0  0  0
  149.0595  143.5225  160.4044 H   0  0  0  0  0  0  0  0  0  0  0  0
  149.9161  146.2464  159.3984 H   0  0  0  0  0  0  0  0  0  0  0  0
  149.4903  145.7907  161.0512 H   0  0  0  0  0  0  0  0  0  0  0  0
  152.1122  145.9614  160.3891 H   0  0  0  0  0  0  0  0  0  0  0  0
  151.5637  144.5600  161.3130 H   0  0  0  0  0  0  0  0  0  0  0  0
  152.5386  143.4338  159.4557 H   0  0  0  0  0  0  0  0  0  0  0  0
  152.0985  144.7159  158.3368 H   0  0  0  0  0  0  0  0  0  0  0  0
  145.3840  140.3112  152.6812 H   0  0  0  0  0  0  0  0  0  0  0  0
  151.6556  142.1037  160.6078 H   0  0  0  0  0  0  0  0  0  0  0  0
  1  2  2  0  0  0  0
  2  3  1  0  0  0  0
  2 11  1  0  0  0  0
  3  4  1  0  0  0  0
  3 23  1  0  0  0  0
  4  5  1  0  0  0  0
  4 24  1  0  0  0  0
  4 25  1  0  0  0  0
  5  6  1  0  0  0  0
  5 26  1  0  0  0  0
  5 27  1  0  0  0  0
  6 10  1  0  0  0  0
  6  7  1  0  0  0  0
  6 48  1  0  0  0  0
  7  8  1  0  0  0  0
  7 28  1  0  0  0  0
  7 29  1  0  0  0  0
  8  9  1  0  0  0  0
  8 30  1  0  0  0  0
  8 31  1  0  0  0  0
  9 10  1  0  0  0  0
  9 32  1  0  0  0  0
  9 33  1  0  0  0  0
 10 34  1  0  0  0  0
 10 35  1  0  0  0  0
 11 12  1  0  0  0  0
 11 36  1  0  0  0  0
 12 17  1  0  0  0  0
 12 13  2  0  0  0  0
 13 14  1  0  0  0  0
 13 37  1  0  0  0  0
 14 15  2  0  0  0  0
 14 38  1  0  0  0  0
 15 16  1  0  0  0  0
 15 39  1  0  0  0  0
 16 17  2  0  0  0  0
 16 49  1  0  0  0  0
 17 18  1  0  0  0  0
 18 22  1  0  0  0  0
 18 19  1  0  0  0  0
 19 20  1  0  0  0  0
 19 40  1  0  0  0  0
 19 41  1  0  0  0  0
 20 21  1  0  0  0  0
 20 42  1  0  0  0  0
 20 43  1  0  0  0  0
 21 22  1  0  0  0  0
 21 44  1  0  0  0  0
 21 45  1  0  0  0  0
 22 46  1  0  0  0  0
 22 47  1  0  0  0  0
M  CHG  1   6   1
M  CHG  1  16   1
M  END
> <s_m_source_file>
AV-unprocessed.smi

> <i_m_source_file_index>
1082

> <i_lp_mmshare_version>
43012

> <i_f3d_flags>
0

> <s_epik_input>
W0NIMl0xW0NIMl1bQ0gyXVtDSDJdTjFbQ0gyXVtDSDJdW05IXUMoPU8pW05IXWMyW2NIXVtjSF1bY0hdbmMyTjNbQ0gyXVtDSDJdW0NIMl1bQ0gyXTM=

> <s_epik_cmdline>
J2VwaWtfcHl0aG9uJywgJy1waCcsICc3LjAnLCAnLXRuJywgJzgnLCAnLW1hJywgJzIwMCcsICctbWV0YWxfYmluZGluZycsICctaW1hZScsICc8aW5maWxlLm1hZT4nLCAnLW9tYWUnLCAnPG91dGZpbGUubWFlPic=

> <r_lp_tautomer_probability>
0.999994

> <r_epik_Ionization_Penalty>
1.21588

> <r_epik_Ionization_Penalty_Charging>
1.21586

> <r_epik_Ionization_Penalty_Neutral>
1.99004e-05

> <r_epik_State_Penalty>
1.28011

> <r_epik_Charging_Adjusted_Penalty>
2.49596

> <i_epik_Tot_Q>
2

> <i_epik_Tot_abs_Q>
2

> <r_epik_Metal_State_Penalty>
1.35385

> <b_epik_Metal_Only>
0

> <s_lp_Force_Field>
OPLS_2005

> <r_lp_Energy>
65.6653

> <b_lp_Chiralities_Consistent>
1

> <s_lp_Variant>
AV-unprocessed.smi:1082-2

> <Gold.Version>
5.8.1

> <Gold.Id.Protein>
6NUR|6NUR_protein|mol2

> <Gold.PLP.Fitness>
50.3156

> <Gold.PLP.PLP>
-40.5940

> <Gold.PLP.part.hbond>
-3.0000

> <Gold.PLP.part.metal>
0.0000

> <Gold.PLP.part.buried>
-5.6591

> <Gold.PLP.part.nonpolar>
-32.9073

> <Gold.PLP.part.repulsive>
0.4620

> <Gold.PLP.ligand.clash>
0.0000

> <Gold.PLP.ligand.torsion>
1.1354

> <Gold.PLP.Chemscore.Hbond>
3.9600

> <Gold.PLP.Chemscore.CHOScore>
0.0000

> <Gold.PLP.Chemscore.Metal>
0.0000

> <Gold.Chemscore.Hbonds>
donor molecule, donor type, donor heavy atom, donor atom, acceptor molecule, acceptor atom, score
      L1  H     3    23       P1  8028  1.00
      L1  H     6    48       P1 10175  1.82
      L1  H    11    36       P1  8028  0.62

> <Gold.PLP.Chemscore.Internal.Correction>
0.1124

> <Gold.Rescore>
     Score         DG    S(hbond)    S(metal)    S(lipo)     H(rot)  DE(clash)    DE(int)     intcor
     18.66     -22.40       2.85        0.00      98.84       1.63       0.10       3.64       ----

> <Gold.Chemscore.Fitness>
18.6612

> <Gold.Chemscore.DG>
-22.3988

> <Gold.Chemscore.ZeroCoef>
-5.4800

> <Gold.Chemscore.Hbond>
2.8542

> <Gold.Chemscore.Metal>
0.0000

> <Gold.Chemscore.Lipo>
98.8417

> <Gold.Chemscore.Internal_Hbond>
0.0000

> <Gold.Chemscore.DEClash>
0.0973

> <Gold.Chemscore.DEInternal>
3.6403

> <Gold.Chemscore.Rot>
1.6323

> <Gold.Chemscore.Internal.Correction>
   9.000000E+99

> <Gold.Chemscore.Hbonds>
donor molecule, donor type, donor heavy atom, donor atom, acceptor molecule, acceptor atom, score
      L1  H     3    23       P1  8028  0.88
      L1  H     6    48       P1 10175  0.75
      L1  H    11    36       P1  8028  0.60

> <Gold.Chemscore.Hbond.Weighted>
-9.5329

> <Gold.Chemscore.Metal.Weighted>
-0.0000

> <Gold.Chemscore.Lipo.Weighted>
-11.5645

> <Gold.Chemscore.Internal_Hbond.Weighted>
0.0000

> <Gold.Chemscore.DEClash.Weighted>
0.0973

> <Gold.Chemscore.DEInternal.Weighted>
3.6403

> <Gold.Chemscore.Rot.Weighted>
4.1786

> <Gold.Chemscore.Internal.Correction.Weighted>
   9.000000E+99

> <Gold.Protein.RotatedTorsions>
[ 6907 6896 6895 6894 ] final   36.46 input  -60.11 | X-H torsion
[ 7974 7965 7964 7962 ] final  -98.16 input  175.53 | X-H torsion
[ 8008 7997 7996 7995 ] final   62.64 input   59.86 | X-H torsion
[ 10167 10162 10161 10158 ] final  150.07 input  -65.29 | X-H torsion
[ 10718 10713 10712 10709 ] final  -63.38 input   66.30 | X-H torsion
[ 10763 10752 10751 10750 ] final   10.71 input  -60.55 | X-H torsion
[ 11005 11000 10999 10996 ] final -171.54 input  -57.11 | X-H torsion

> <Gold.Protein.ActiveResidues>
 VAL166  LYS551  ARG553  GLY616  TRP617  ASP618  TYR619  PRO620  LYS621  CYS622 
 ASP623  PHE694  ASN695  SER759  ASP760  ASP761  ALA762  ILE779  LEU786  VAL792 
 PHE793  MET794  SER795  GLU796  ALA797  LYS798  CYS799  TRP800  GLU811  SER814 

> <Gold.Protein.RotatedAtoms>
  152.1300  134.9142  160.0558 H   0  0  0  0  0  0  0  0  0  0  0  0  # atno 6907 bound_to 6896
  152.0250  133.3909  159.4282 H   0  0  0  0  0  0  0  0  0  0  0  0  # atno 6908 bound_to 6896
  150.6855  134.3505  159.4951 H   0  0  0  0  0  0  0  0  0  0  0  0  # atno 6909 bound_to 6896
  145.3242  140.9428  143.2698 H   0  0  0  0  0  0  0  0  0  0  0  0  # atno 7974 bound_to 7965
  155.6176  140.3495  155.4641 H   0  0  0  0  0  0  0  0  0  0  0  0  # atno 8008 bound_to 7997
  156.0105  140.1232  157.0482 H   0  0  0  0  0  0  0  0  0  0  0  0  # atno 8009 bound_to 7997
  154.4279  140.1082  156.5809 H   0  0  0  0  0  0  0  0  0  0  0  0  # atno 8010 bound_to 7997
  139.4854  144.5551  151.7331 H   0  0  0  0  0  0  0  0  0  0  0  0  # atno 10167 bound_to 10162
  156.0795  130.4220  150.1269 H   0  0  0  0  0  0  0  0  0  0  0  0  # atno 10718 bound_to 10713
  153.2003  135.6855  153.8239 H   0  0  0  0  0  0  0  0  0  0  0  0  # atno 10763 bound_to 10752
  153.7508  135.3224  155.3322 H   0  0  0  0  0  0  0  0  0  0  0  0  # atno 10764 bound_to 10752
  154.8168  135.4680  154.0766 H   0  0  0  0  0  0  0  0  0  0  0  0  # atno 10765 bound_to 10752
  140.5071  134.5837  157.5007 H   0  0  0  0  0  0  0  0  0  0  0  0  # atno 11005 bound_to 11000
  144.8915  139.4768  143.6675 LP  0  0  0  0  0  0  0  0  0  0  0  0  # atno 17320 bound_to 7965
  146.3071  139.7616  142.9048 LP  0  0  0  0  0  0  0  0  0  0  0  0  # atno 17321 bound_to 7965
  140.5112  144.1023  150.5995 LP  0  0  0  0  0  0  0  0  0  0  0  0  # atno 17342 bound_to 10162
  140.3949  143.2733  152.0017 LP  0  0  0  0  0  0  0  0  0  0  0  0  # atno 17343 bound_to 10162
  156.9303  130.9711  151.3534 LP  0  0  0  0  0  0  0  0  0  0  0  0  # atno 17370 bound_to 10713
  157.5905  130.8440  149.8652 LP  0  0  0  0  0  0  0  0  0  0  0  0  # atno 17371 bound_to 10713
  139.9680  134.7341  156.0099 LP  0  0  0  0  0  0  0  0  0  0  0  0  # atno 17394 bound_to 11000
  141.1405  133.6566  156.3716 LP  0  0  0  0  0  0  0  0  0  0  0  0  # atno 17395 bound_to 11000

$$$$
