AV-unprocessed.smi:447|AV-procd|sdf|2604|dock10
  -GOLD-   2262023 03D 1   1.00000     0.00000
 Structure written by MMmdl.
 46 48  0  0  0  0  0  0  0  0  2 V2000
  153.7337  136.8745  151.1410 C   0  0  0  0  0  0  0  0  0  0  0  0
  153.2922  137.6620  152.3692 C   0  0  0  0  0  0  0  0  0  0  0  0
  153.0224  137.0737  153.4143 O   0  0  0  0  0  0  0  0  0  0  0  0
  153.2126  138.9936  152.2222 N   0  0  0  0  0  0  0  0  0  0  0  0
  152.8750  139.9635  153.2650 C   0  0  1  0  0  0  0  0  0  0  0  0
  153.4993  141.3161  152.8905 C   0  0  0  0  0  0  0  0  0  0  0  0
  151.3955  140.1167  153.4993 C   0  0  0  0  0  0  0  0  0  0  0  0
  150.4051  139.6352  152.6930 N   0  3  0  0  0  0  0  0  0  0  0  0
  149.1584  139.9992  153.1960 C   0  0  0  0  0  0  0  0  0  0  0  0
  147.8763  139.7364  152.7239 C   0  0  0  0  0  0  0  0  0  0  0  0
  146.8056  140.2711  153.4694 C   0  0  0  0  0  0  0  0  0  0  0  0
  147.0321  141.0366  154.6312 C   0  0  0  0  0  0  0  0  0  0  0  0
  148.3374  141.2953  155.0982 C   0  0  0  0  0  0  0  0  0  0  0  0
  149.3924  140.7550  154.3618 C   0  0  0  0  0  0  0  0  0  0  0  0
  150.7854  140.7933  154.5205 N   0  0  0  0  0  0  0  0  0  0  0  0
  151.3571  141.5458  155.6566 C   0  0  0  0  0  0  0  0  0  0  0  0
  151.2135  140.8634  157.0377 C   0  0  1  0  0  0  0  0  0  0  0  0
  152.0891  139.7588  157.1521 O   0  0  0  0  0  0  0  0  0  0  0  0
  151.3257  141.8415  158.2001 C   0  0  0  0  0  0  0  0  0  0  0  0
  152.3143  141.6912  159.1991 C   0  0  0  0  0  0  0  0  0  0  0  0
  152.3843  142.6021  160.2711 C   0  0  0  0  0  0  0  0  0  0  0  0
  151.4786  143.6767  160.3455 C   0  0  0  0  0  0  0  0  0  0  0  0
  150.4960  143.8363  159.3507 C   0  0  0  0  0  0  0  0  0  0  0  0
  150.4183  142.9199  158.2843 C   0  0  0  0  0  0  0  0  0  0  0  0
  153.0224  137.0104  150.3258 H   0  0  0  0  0  0  0  0  0  0  0  0
  153.7972  135.8092  151.3650 H   0  0  0  0  0  0  0  0  0  0  0  0
  154.7149  137.2110  150.8050 H   0  0  0  0  0  0  0  0  0  0  0  0
  153.4503  139.3750  151.3178 H   0  0  0  0  0  0  0  0  0  0  0  0
  153.3341  139.6187  154.1906 H   0  0  0  0  0  0  0  0  0  0  0  0
  153.3331  142.0659  153.6632 H   0  0  0  0  0  0  0  0  0  0  0  0
  153.0773  141.7028  151.9619 H   0  0  0  0  0  0  0  0  0  0  0  0
  154.5774  141.2258  152.7530 H   0  0  0  0  0  0  0  0  0  0  0  0
  147.7019  139.1546  151.8309 H   0  0  0  0  0  0  0  0  0  0  0  0
  145.7913  140.0929  153.1427 H   0  0  0  0  0  0  0  0  0  0  0  0
  146.1881  141.4330  155.1769 H   0  0  0  0  0  0  0  0  0  0  0  0
  148.4966  141.8803  155.9918 H   0  0  0  0  0  0  0  0  0  0  0  0
  152.4098  141.7286  155.4452 H   0  0  0  0  0  0  0  0  0  0  0  0
  150.8915  142.5315  155.6759 H   0  0  0  0  0  0  0  0  0  0  0  0
  150.2088  140.4417  157.0877 H   0  0  0  0  0  0  0  0  0  0  0  0
  152.0430  139.2581  156.3518 H   0  0  0  0  0  0  0  0  0  0  0  0
  153.0273  140.8814  159.1516 H   0  0  0  0  0  0  0  0  0  0  0  0
  153.1421  142.4821  161.0315 H   0  0  0  0  0  0  0  0  0  0  0  0
  151.5384  144.3779  161.1648 H   0  0  0  0  0  0  0  0  0  0  0  0
  149.7996  144.6598  159.4069 H   0  0  0  0  0  0  0  0  0  0  0  0
  149.6591  143.0490  157.5269 H   0  0  0  0  0  0  0  0  0  0  0  0
  150.5779  139.0908  151.8579 H   0  0  0  0  0  0  0  0  0  0  0  0
  1  2  1  0  0  0  0
  1 25  1  0  0  0  0
  1 26  1  0  0  0  0
  1 27  1  0  0  0  0
  2  3  2  0  0  0  0
  2  4  1  0  0  0  0
  4  5  1  0  0  0  0
  4 28  1  0  0  0  0
  5  6  1  0  0  0  0
  5  7  1  0  0  0  0
  5 29  1  0  0  0  0
  6 30  1  0  0  0  0
  6 31  1  0  0  0  0
  6 32  1  0  0  0  0
  7 15  1  0  0  0  0
  7  8  2  0  0  0  0
  8  9  1  0  0  0  0
  8 46  1  0  0  0  0
  9 14  2  0  0  0  0
  9 10  1  0  0  0  0
 10 11  2  0  0  0  0
 10 33  1  0  0  0  0
 11 12  1  0  0  0  0
 11 34  1  0  0  0  0
 12 13  2  0  0  0  0
 12 35  1  0  0  0  0
 13 14  1  0  0  0  0
 13 36  1  0  0  0  0
 14 15  1  0  0  0  0
 15 16  1  0  0  0  0
 16 17  1  0  0  0  0
 16 37  1  0  0  0  0
 16 38  1  0  0  0  0
 17 18  1  0  0  0  0
 17 19  1  0  0  0  0
 17 39  1  0  0  0  0
 18 40  1  0  0  0  0
 19 24  1  0  0  0  0
 19 20  2  0  0  0  0
 20 21  1  0  0  0  0
 20 41  1  0  0  0  0
 21 22  2  0  0  0  0
 21 42  1  0  0  0  0
 22 23  1  0  0  0  0
 22 43  1  0  0  0  0
 23 24  2  0  0  0  0
 23 44  1  0  0  0  0
 24 45  1  0  0  0  0
M  CHG  1   8   1
M  END
> <s_m_source_file>
AV-unprocessed.smi

> <i_m_source_file_index>
447

> <i_lp_mmshare_version>
43012

> <i_f3d_flags>
0

> <s_epik_input>
W0NIM11DKD1PKVtOSF1bQ0BIXShbQ0gzXSljKG4xKW4oYyhjMTIpW2NIXVtjSF1bY0hdW2NIXTIpW0NIMl1bQ0BIXShbT0hdKWMzW2NIXVtjSF1bY0hdW2NIXVtjSF0z

> <s_epik_cmdline>
J2VwaWtfcHl0aG9uJywgJy1waCcsICc3LjAnLCAnLXRuJywgJzgnLCAnLW1hJywgJzIwMCcsICctbWV0YWxfYmluZGluZycsICctaW1hZScsICc8aW5maWxlLm1hZT4nLCAnLW9tYWUnLCAnPG91dGZpbGUubWFlPic=

> <r_epik_Ionization_Penalty>
0.950381

> <r_epik_Ionization_Penalty_Charging>
0.950379

> <r_epik_Ionization_Penalty_Neutral>
1.42115e-06

> <r_epik_State_Penalty>
0.994584

> <r_epik_Charging_Adjusted_Penalty>
1.94496

> <i_epik_Tot_Q>
1

> <i_epik_Tot_abs_Q>
1

> <r_epik_Metal_State_Penalty>
1.10485

> <b_epik_Metal_Only>
0

> <s_lp_Force_Field>
OPLS_2005

> <r_lp_Energy>
11.8

> <b_lp_Chiralities_Consistent>
1

> <s_lp_Variant>
AV-unprocessed.smi:447-8

> <Gold.Version>
5.8.1

> <Gold.Id.Protein>
6NUR|6NUR_protein|mol2

> <Gold.PLP.Fitness>
60.1025

> <Gold.PLP.PLP>
-52.6960

> <Gold.PLP.part.hbond>
-3.6577

> <Gold.PLP.part.metal>
0.0000

> <Gold.PLP.part.buried>
-0.2111

> <Gold.PLP.part.nonpolar>
-49.6426

> <Gold.PLP.part.repulsive>
0.1678

> <Gold.PLP.ligand.clash>
0.0000

> <Gold.PLP.ligand.torsion>
0.8665

> <Gold.PLP.Chemscore.Hbond>
3.0000

> <Gold.PLP.Chemscore.CHOScore>
0.0000

> <Gold.PLP.Chemscore.Metal>
0.0000

> <Gold.Chemscore.Hbonds>
donor molecule, donor type, donor heavy atom, donor atom, acceptor molecule, acceptor atom, score
      P1  H 10752 10763       L1     3  0.46

> <Gold.PLP.Chemscore.Internal.Correction>
0.1395

> <Gold.Rescore>
     Score         DG    S(hbond)    S(metal)    S(lipo)     H(rot)  DE(clash)    DE(int)     intcor
     16.26     -19.14       0.91        0.00     143.64       2.41       1.93       0.96       ----

> <Gold.Chemscore.Fitness>
16.2600

> <Gold.Chemscore.DG>
-19.1411

> <Gold.Chemscore.ZeroCoef>
-5.4800

> <Gold.Chemscore.Hbond>
0.9065

> <Gold.Chemscore.Metal>
0.0000

> <Gold.Chemscore.Lipo>
143.6409

> <Gold.Chemscore.Internal_Hbond>
0.0000

> <Gold.Chemscore.DEClash>
1.9261

> <Gold.Chemscore.DEInternal>
0.9550

> <Gold.Chemscore.Rot>
2.4112

> <Gold.Chemscore.Internal.Correction>
   9.000000E+99

> <Gold.Chemscore.Hbonds>
donor molecule, donor type, donor heavy atom, donor atom, acceptor molecule, acceptor atom, score
      P1  H 10752 10763       L1     3  0.46

> <Gold.Chemscore.Hbond.Weighted>
-3.0278

> <Gold.Chemscore.Metal.Weighted>
-0.0000

> <Gold.Chemscore.Lipo.Weighted>
-16.8060

> <Gold.Chemscore.Internal_Hbond.Weighted>
0.0000

> <Gold.Chemscore.DEClash.Weighted>
1.9261

> <Gold.Chemscore.DEInternal.Weighted>
0.9550

> <Gold.Chemscore.Rot.Weighted>
6.1727

> <Gold.Chemscore.Internal.Correction.Weighted>
   9.000000E+99

> <Gold.Protein.RotatedTorsions>
[ 6907 6896 6895 6894 ] final   -4.68 input  -60.11 | X-H torsion
[ 7974 7965 7964 7962 ] final  -40.75 input  175.53 | X-H torsion
[ 8008 7997 7996 7995 ] final  144.99 input   59.86 | X-H torsion
[ 10167 10162 10161 10158 ] final   26.92 input  -65.29 | X-H torsion
[ 10718 10713 10712 10709 ] final   13.15 input   66.30 | X-H torsion
[ 10763 10752 10751 10750 ] final    3.89 input  -60.55 | X-H torsion
[ 11005 11000 10999 10996 ] final  148.02 input  -57.11 | X-H torsion

> <Gold.Protein.ActiveResidues>
 VAL166  LYS551  ARG553  GLY616  TRP617  ASP618  TYR619  PRO620  LYS621  CYS622 
 ASP623  PHE694  ASN695  SER759  ASP760  ASP761  ALA762  ILE779  LEU786  VAL792 
 PHE793  MET794  SER795  GLU796  ALA797  LYS798  CYS799  TRP800  GLU811  SER814 

> <Gold.Protein.RotatedAtoms>
  151.4938  135.1059  159.9810 H   0  0  0  0  0  0  0  0  0  0  0  0  # atno 6907 bound_to 6896
  152.4730  133.8069  159.6993 H   0  0  0  0  0  0  0  0  0  0  0  0  # atno 6908 bound_to 6896
  150.8751  133.7388  159.2975 H   0  0  0  0  0  0  0  0  0  0  0  0  # atno 6909 bound_to 6896
  146.0275  140.6773  142.9148 H   0  0  0  0  0  0  0  0  0  0  0  0  # atno 7974 bound_to 7965
  156.2894  140.2221  156.5143 H   0  0  0  0  0  0  0  0  0  0  0  0  # atno 8008 bound_to 7997
  154.7582  140.0475  157.0973 H   0  0  0  0  0  0  0  0  0  0  0  0  # atno 8009 bound_to 7997
  155.0024  140.3103  155.4865 H   0  0  0  0  0  0  0  0  0  0  0  0  # atno 8010 bound_to 7997
  140.4982  144.0358  150.6322 H   0  0  0  0  0  0  0  0  0  0  0  0  # atno 10167 bound_to 10162
  157.0205  130.6153  149.5720 H   0  0  0  0  0  0  0  0  0  0  0  0  # atno 10718 bound_to 10713
  153.2779  135.6938  153.7415 H   0  0  0  0  0  0  0  0  0  0  0  0  # atno 10763 bound_to 10752
  153.6413  135.3393  155.3073 H   0  0  0  0  0  0  0  0  0  0  0  0  # atno 10764 bound_to 10752
  154.8485  135.4432  154.1822 H   0  0  0  0  0  0  0  0  0  0  0  0  # atno 10765 bound_to 10752
  140.0924  134.9033  157.1671 H   0  0  0  0  0  0  0  0  0  0  0  0  # atno 11005 bound_to 11000
  144.7016  140.3677  143.7151 LP  0  0  0  0  0  0  0  0  0  0  0  0  # atno 17320 bound_to 7965
  145.7094  139.1681  143.2547 LP  0  0  0  0  0  0  0  0  0  0  0  0  # atno 17321 bound_to 7965
  140.3646  143.2888  152.0346 LP  0  0  0  0  0  0  0  0  0  0  0  0  # atno 17342 bound_to 10162
  139.4866  144.6277  151.7132 LP  0  0  0  0  0  0  0  0  0  0  0  0  # atno 17343 bound_to 10162
  156.0104  130.5195  150.7969 LP  0  0  0  0  0  0  0  0  0  0  0  0  # atno 17370 bound_to 10713
  157.5253  131.0934  151.0025 LP  0  0  0  0  0  0  0  0  0  0  0  0  # atno 17371 bound_to 10713
  140.3333  134.2785  155.7224 LP  0  0  0  0  0  0  0  0  0  0  0  0  # atno 17394 bound_to 11000
  141.2082  133.7785  157.0074 LP  0  0  0  0  0  0  0  0  0  0  0  0  # atno 17395 bound_to 11000

$$$$
