AV-unprocessed.smi:1192|AV-procd|sdf|4988|dock8
  -GOLD-   22720 3583D 1   1.00000     0.00000
 Structure written by MMmdl.
 39 40  0  0  0  0  0  0  0  0  1 V2000
  147.9738  135.4679  159.4384 C   0  0  0  0  0  0  0  0  0  0  0  0
  149.0778  135.2227  158.5860 O   0  0  0  0  0  0  0  0  0  0  0  0
  148.7319  135.3093  157.2136 C   0  0  0  0  0  0  0  0  0  0  0  0
  150.0146  135.3323  156.3785 C   0  0  0  0  0  0  0  0  0  0  0  0
  150.8340  136.3929  156.8554 O   0  0  0  0  0  0  0  0  0  0  0  0
  150.7998  137.6095  156.2058 C   0  0  0  0  0  0  0  0  0  0  0  0
  150.4129  137.6365  154.9055 N   0  0  0  0  0  0  0  0  0  0  0  0
  150.3703  138.8270  154.2722 C   0  0  0  0  0  0  0  0  0  0  0  0
  150.7062  140.0439  154.8943 C   0  0  0  0  0  0  0  0  0  0  0  0
  151.1069  140.0161  156.2428 C   0  0  0  0  0  0  0  0  0  0  0  0
  151.1604  138.7785  156.9183 C   0  0  0  0  0  0  0  0  0  0  0  0
  151.5816  138.7252  158.3795 C   0  0  0  0  0  0  0  0  0  0  0  0
  151.9417  140.0332  158.9217 N   0  0  0  0  0  0  0  0  0  0  0  0
  152.9920  140.2921  159.7169 C   0  0  0  0  0  0  0  0  0  0  0  0
  153.8002  139.4344  160.0742 O   0  0  0  0  0  0  0  0  0  0  0  0
  153.1530  141.7552  160.1490 C   0  0  0  0  0  0  0  0  0  0  0  0
  152.8464  142.0595  161.6290 C   0  0  0  0  0  0  0  0  0  0  0  0
  152.0740  143.2984  161.1681 C   0  0  0  0  0  0  0  0  0  0  0  0
  151.9536  142.6472  159.7875 C   0  0  0  0  0  0  0  0  0  0  0  0
  148.2870  135.3743  160.4779 H   0  0  0  0  0  0  0  0  0  0  0  0
  147.1719  134.7495  159.2635 H   0  0  0  0  0  0  0  0  0  0  0  0
  147.5813  136.4753  159.2927 H   0  0  0  0  0  0  0  0  0  0  0  0
  148.1337  134.4393  156.9381 H   0  0  0  0  0  0  0  0  0  0  0  0
  148.1310  136.1985  157.0164 H   0  0  0  0  0  0  0  0  0  0  0  0
  150.5220  134.3685  156.4473 H   0  0  0  0  0  0  0  0  0  0  0  0
  149.7666  135.5100  155.3311 H   0  0  0  0  0  0  0  0  0  0  0  0
  150.0574  138.8089  153.2389 H   0  0  0  0  0  0  0  0  0  0  0  0
  150.6566  140.9755  154.3502 H   0  0  0  0  0  0  0  0  0  0  0  0
  151.3695  140.9340  156.7479 H   0  0  0  0  0  0  0  0  0  0  0  0
  150.7652  138.3288  158.9838 H   0  0  0  0  0  0  0  0  0  0  0  0
  152.4000  138.0095  158.4716 H   0  0  0  0  0  0  0  0  0  0  0  0
  151.3415  140.8061  158.6725 H   0  0  0  0  0  0  0  0  0  0  0  0
  154.1040  142.1866  159.8305 H   0  0  0  0  0  0  0  0  0  0  0  0
  152.1999  141.3306  162.1209 H   0  0  0  0  0  0  0  0  0  0  0  0
  153.7213  142.2880  162.2368 H   0  0  0  0  0  0  0  0  0  0  0  0
  151.1246  143.4610  161.6795 H   0  0  0  0  0  0  0  0  0  0  0  0
  152.6895  144.1992  161.1576 H   0  0  0  0  0  0  0  0  0  0  0  0
  152.1335  143.3297  158.9563 H   0  0  0  0  0  0  0  0  0  0  0  0
  151.0186  142.0979  159.6587 H   0  0  0  0  0  0  0  0  0  0  0  0
  1  2  1  0  0  0  0
  1 20  1  0  0  0  0
  1 21  1  0  0  0  0
  1 22  1  0  0  0  0
  2  3  1  0  0  0  0
  3  4  1  0  0  0  0
  3 23  1  0  0  0  0
  3 24  1  0  0  0  0
  4  5  1  0  0  0  0
  4 25  1  0  0  0  0
  4 26  1  0  0  0  0
  5  6  1  0  0  0  0
  6 11  1  0  0  0  0
  6  7  2  0  0  0  0
  7  8  1  0  0  0  0
  8  9  2  0  0  0  0
  8 27  1  0  0  0  0
  9 10  1  0  0  0  0
  9 28  1  0  0  0  0
 10 11  2  0  0  0  0
 10 29  1  0  0  0  0
 11 12  1  0  0  0  0
 12 13  1  0  0  0  0
 12 30  1  0  0  0  0
 12 31  1  0  0  0  0
 13 14  1  0  0  0  0
 13 32  1  0  0  0  0
 14 15  2  0  0  0  0
 14 16  1  0  0  0  0
 16 19  1  0  0  0  0
 16 17  1  0  0  0  0
 16 33  1  0  0  0  0
 17 18  1  0  0  0  0
 17 34  1  0  0  0  0
 17 35  1  0  0  0  0
 18 19  1  0  0  0  0
 18 36  1  0  0  0  0
 18 37  1  0  0  0  0
 19 38  1  0  0  0  0
 19 39  1  0  0  0  0
M  END
> <s_m_source_file>
AV-unprocessed.smi

> <i_m_source_file_index>
1192

> <i_lp_mmshare_version>
43012

> <i_f3d_flags>
0

> <s_epik_input>
W0NIM11PW0NIMl1bQ0gyXU9jMW5bY0hdW2NIXVtjSF1jMVtDSDJdW05IXUMoPU8pW0NIXTJbQ0gyXVtDSDJdW0NIMl0y

> <s_epik_cmdline>
J2VwaWtfcHl0aG9uJywgJy1waCcsICc3LjAnLCAnLXRuJywgJzgnLCAnLW1hJywgJzIwMCcsICctbWV0YWxfYmluZGluZycsICctaW1hZScsICc8aW5maWxlLm1hZT4nLCAnLW9tYWUnLCAnPG91dGZpbGUubWFlPic=

> <r_lp_tautomer_probability>
1

> <r_epik_Ionization_Penalty>
6.50215e-05

> <r_epik_Ionization_Penalty_Charging>
0

> <r_epik_Ionization_Penalty_Neutral>
6.50215e-05

> <r_epik_State_Penalty>
-0

> <r_epik_Charging_Adjusted_Penalty>
0

> <i_epik_Tot_Q>
0

> <i_epik_Tot_abs_Q>
0

> <r_epik_Metal_State_Penalty>
-0

> <b_epik_Metal_Only>
0

> <s_lp_Force_Field>
OPLS_2005

> <r_lp_Energy>
11.4086

> <b_lp_Chiralities_Consistent>
1

> <s_lp_Variant>
AV-unprocessed.smi:1192-1

> <Gold.Version>
5.8.1

> <Gold.Id.Protein>
6NUR|6NUR_protein|mol2

> <Gold.PLP.Fitness>
41.5963

> <Gold.PLP.PLP>
-34.0488

> <Gold.PLP.part.hbond>
-2.3951

> <Gold.PLP.part.metal>
0.0000

> <Gold.PLP.part.buried>
-3.0023

> <Gold.PLP.part.nonpolar>
-28.9182

> <Gold.PLP.part.repulsive>
0.2205

> <Gold.PLP.ligand.clash>
0.0000

> <Gold.PLP.ligand.torsion>
0.9593

> <Gold.PLP.Chemscore.Hbond>
2.0000

> <Gold.PLP.Chemscore.CHOScore>
1.0000

> <Gold.PLP.Chemscore.Metal>
0.0000

> <Gold.Chemscore.Hbonds>
donor molecule, donor type, donor heavy atom, donor atom, acceptor molecule, acceptor atom, score
      P1  H  6896  6909       L1     2  1.00
      L1  C     8    27       P1  7957  1.00

> <Gold.PLP.Chemscore.Internal.Correction>
0.4661

> <Gold.Rescore>
     Score         DG    S(hbond)    S(metal)    S(lipo)     H(rot)  DE(clash)    DE(int)     intcor
     13.39     -14.85       1.42        0.00      86.01       2.12       0.45       1.00       ----

> <Gold.Chemscore.Fitness>
13.3948

> <Gold.Chemscore.DG>
-14.8478

> <Gold.Chemscore.ZeroCoef>
-5.4800

> <Gold.Chemscore.Hbond>
1.4184

> <Gold.Chemscore.Metal>
0.0000

> <Gold.Chemscore.Lipo>
86.0072

> <Gold.Chemscore.Internal_Hbond>
0.0000

> <Gold.Chemscore.DEClash>
0.4533

> <Gold.Chemscore.DEInternal>
0.9996

> <Gold.Chemscore.Rot>
2.1221

> <Gold.Chemscore.Internal.Correction>
   9.000000E+99

> <Gold.Chemscore.Hbonds>
donor molecule, donor type, donor heavy atom, donor atom, acceptor molecule, acceptor atom, score
      P1  H  6896  6909       L1     2  0.89

> <Gold.Chemscore.Hbond.Weighted>
-4.7375

> <Gold.Chemscore.Metal.Weighted>
-0.0000

> <Gold.Chemscore.Lipo.Weighted>
-10.0628

> <Gold.Chemscore.Internal_Hbond.Weighted>
0.0000

> <Gold.Chemscore.DEClash.Weighted>
0.4533

> <Gold.Chemscore.DEInternal.Weighted>
0.9996

> <Gold.Chemscore.Rot.Weighted>
5.4326

> <Gold.Chemscore.Internal.Correction.Weighted>
   9.000000E+99

> <Gold.Protein.RotatedTorsions>
[ 6907 6896 6895 6894 ] final   29.56 input  -60.11 | X-H torsion
[ 7974 7965 7964 7962 ] final -128.25 input  175.53 | X-H torsion
[ 8008 7997 7996 7995 ] final  110.03 input   59.86 | X-H torsion
[ 10167 10162 10161 10158 ] final  160.12 input  -65.29 | X-H torsion
[ 10718 10713 10712 10709 ] final  147.66 input   66.30 | X-H torsion
[ 10763 10752 10751 10750 ] final  -69.40 input  -60.55 | X-H torsion
[ 11005 11000 10999 10996 ] final   46.84 input  -57.11 | X-H torsion

> <Gold.Protein.ActiveResidues>
 VAL166  LYS551  ARG553  GLY616  TRP617  ASP618  TYR619  PRO620  LYS621  CYS622 
 ASP623  PHE694  ASN695  SER759  ASP760  ASP761  ALA762  ILE779  LEU786  VAL792 
 PHE793  MET794  SER795  GLU796  ALA797  LYS798  CYS799  TRP800  GLU811  SER814 

> <Gold.Protein.RotatedAtoms>
  152.0333  134.9754  160.0572 H   0  0  0  0  0  0  0  0  0  0  0  0  # atno 6907 bound_to 6896
  152.1222  133.4355  159.4689 H   0  0  0  0  0  0  0  0  0  0  0  0  # atno 6908 bound_to 6896
  150.6850  134.2440  159.4527 H   0  0  0  0  0  0  0  0  0  0  0  0  # atno 6909 bound_to 6896
  144.9689  140.7525  143.4683 H   0  0  0  0  0  0  0  0  0  0  0  0  # atno 7974 bound_to 7965
  156.2023  140.3046  155.9553 H   0  0  0  0  0  0  0  0  0  0  0  0  # atno 8008 bound_to 7997
  155.2924  140.0442  157.3041 H   0  0  0  0  0  0  0  0  0  0  0  0  # atno 8009 bound_to 7997
  154.5587  140.2313  155.8378 H   0  0  0  0  0  0  0  0  0  0  0  0  # atno 8010 bound_to 7997
  139.4837  144.4665  151.8635 H   0  0  0  0  0  0  0  0  0  0  0  0  # atno 10167 bound_to 10162
  157.3183  131.0900  151.1261 H   0  0  0  0  0  0  0  0  0  0  0  0  # atno 10718 bound_to 10713
  154.4028  135.6027  153.5907 H   0  0  0  0  0  0  0  0  0  0  0  0  # atno 10763 bound_to 10752
  152.9788  135.5910  154.4163 H   0  0  0  0  0  0  0  0  0  0  0  0  # atno 10764 bound_to 10752
  154.3964  135.2842  155.2101 H   0  0  0  0  0  0  0  0  0  0  0  0  # atno 10765 bound_to 10752
  140.1333  134.4678  155.8505 H   0  0  0  0  0  0  0  0  0  0  0  0  # atno 11005 bound_to 11000
  145.2588  139.2001  143.4903 LP  0  0  0  0  0  0  0  0  0  0  0  0  # atno 17320 bound_to 7965
  146.3376  140.2515  142.8598 LP  0  0  0  0  0  0  0  0  0  0  0  0  # atno 17321 bound_to 7965
  140.4130  144.2343  150.5888 LP  0  0  0  0  0  0  0  0  0  0  0  0  # atno 17342 bound_to 10162
  140.4947  143.2336  151.8766 LP  0  0  0  0  0  0  0  0  0  0  0  0  # atno 17343 bound_to 10162
  157.2556  130.6635  149.5951 LP  0  0  0  0  0  0  0  0  0  0  0  0  # atno 17370 bound_to 10713
  155.9683  130.4524  150.5774 LP  0  0  0  0  0  0  0  0  0  0  0  0  # atno 17371 bound_to 10713
  141.2174  133.6804  156.7109 LP  0  0  0  0  0  0  0  0  0  0  0  0  # atno 17394 bound_to 11000
  140.2815  134.8313  157.3937 LP  0  0  0  0  0  0  0  0  0  0  0  0  # atno 17395 bound_to 11000

$$$$
