AV-unprocessed.smi:658|AV-procd|sdf|3236|dock10
  -GOLD-   22720 0183D 1   1.00000     0.00000
 Structure written by MMmdl.
 37 37  0  0  0  0  0  0  0  0  3 V2000
  145.8196  136.7609  153.4843 C   0  0  0  0  0  0  0  0  0  0  0  0
  145.6759  135.3532  152.8777 C   0  0  2  0  0  0  0  0  0  0  0  0
  146.9839  134.6643  152.9566 N   0  3  0  0  0  0  0  0  0  0  0  0
  147.4589  134.3924  154.3282 C   0  0  0  0  0  0  0  0  0  0  0  0
  148.9148  133.9170  154.3182 C   0  0  0  0  0  0  0  0  0  0  0  0
  149.1466  132.7727  153.3247 C   0  0  0  0  0  0  0  0  0  0  0  0
  148.3180  131.2316  153.8951 S   0  0  0  0  0  0  0  0  0  0  0  0
  147.4100  130.8817  152.6093 N   0  5  0  0  0  0  0  0  0  0  0  0
  149.3975  130.2557  154.1099 O   0  0  0  0  0  0  0  0  0  0  0  0
  147.5135  131.6167  155.0642 O   0  0  0  0  0  0  0  0  0  0  0  0
  145.1555  135.3757  151.4145 C   0  0  1  0  0  0  0  0  0  0  0  0
  145.9078  136.3801  150.5201 C   0  0  0  0  0  0  0  0  0  0  0  0
  145.1831  134.0507  150.8080 N   0  0  0  0  0  0  0  0  0  0  0  0
  144.1179  133.2793  150.3903 C   0  0  0  0  0  0  0  0  0  0  0  0
  144.6280  132.1165  149.8882 C   0  0  0  0  0  0  0  0  0  0  0  0
  146.0339  132.2688  150.0422 C   0  0  0  0  0  0  0  0  0  0  0  0
  146.3630  133.4251  150.5946 N   0  0  0  0  0  0  0  0  0  0  0  0
  144.8590  137.2715  153.5569 H   0  0  0  0  0  0  0  0  0  0  0  0
  146.4842  137.3849  152.8858 H   0  0  0  0  0  0  0  0  0  0  0  0
  146.2306  136.7111  154.4933 H   0  0  0  0  0  0  0  0  0  0  0  0
  144.9546  134.8145  153.4952 H   0  0  0  0  0  0  0  0  0  0  0  0
  146.9189  133.7904  152.4546 H   0  0  0  0  0  0  0  0  0  0  0  0
  147.3661  135.3008  154.9248 H   0  0  0  0  0  0  0  0  0  0  0  0
  146.8260  133.6354  154.7924 H   0  0  0  0  0  0  0  0  0  0  0  0
  149.5689  134.7526  154.0660 H   0  0  0  0  0  0  0  0  0  0  0  0
  149.2005  133.5909  155.3191 H   0  0  0  0  0  0  0  0  0  0  0  0
  148.7499  133.0247  152.3409 H   0  0  0  0  0  0  0  0  0  0  0  0
  150.2103  132.5617  153.2121 H   0  0  0  0  0  0  0  0  0  0  0  0
  148.0356  130.6197  151.8382 H   0  0  0  0  0  0  0  0  0  0  0  0
  144.1087  135.6833  151.4378 H   0  0  0  0  0  0  0  0  0  0  0  0
  145.7643  137.4053  150.8608 H   0  0  0  0  0  0  0  0  0  0  0  0
  145.5488  136.3323  149.4915 H   0  0  0  0  0  0  0  0  0  0  0  0
  146.9799  136.1813  150.5065 H   0  0  0  0  0  0  0  0  0  0  0  0
  143.0964  133.6174  150.4841 H   0  0  0  0  0  0  0  0  0  0  0  0
  144.0807  131.2837  149.4722 H   0  0  0  0  0  0  0  0  0  0  0  0
  146.8190  131.5786  149.7712 H   0  0  0  0  0  0  0  0  0  0  0  0
  147.6754  135.2427  152.5010 H   0  0  0  0  0  0  0  0  0  0  0  0
  1  2  1  0  0  0  0
  1 18  1  0  0  0  0
  1 19  1  0  0  0  0
  1 20  1  0  0  0  0
  2  3  1  0  0  0  0
  2 11  1  0  0  0  0
  2 21  1  0  0  0  0
  3  4  1  0  0  0  0
  3 22  1  0  0  0  0
  3 37  1  0  0  0  0
  4  5  1  0  0  0  0
  4 23  1  0  0  0  0
  4 24  1  0  0  0  0
  5  6  1  0  0  0  0
  5 25  1  0  0  0  0
  5 26  1  0  0  0  0
  6  7  1  0  0  0  0
  6 27  1  0  0  0  0
  6 28  1  0  0  0  0
  7  8  1  0  0  0  0
  7  9  2  0  0  0  0
  7 10  2  0  0  0  0
  8 29  1  0  0  0  0
 11 12  1  0  0  0  0
 11 13  1  0  0  0  0
 11 30  1  0  0  0  0
 12 31  1  0  0  0  0
 12 32  1  0  0  0  0
 12 33  1  0  0  0  0
 13 17  1  0  0  0  0
 13 14  1  0  0  0  0
 14 15  2  0  0  0  0
 14 34  1  0  0  0  0
 15 16  1  0  0  0  0
 15 35  1  0  0  0  0
 16 17  2  0  0  0  0
 16 36  1  0  0  0  0
M  CHG  1   3   1
M  CHG  1   8  -1
M  END
> <s_m_source_file>
AV-unprocessed.smi

> <i_m_source_file_index>
658

> <i_lp_mmshare_version>
43012

> <i_f3d_flags>
0

> <s_epik_input>
bjFbY0hdW2NIXVtjSF1uMVtDQEBIXShbQ0gzXSlbQ0BIXShbQ0gzXSlbTkhdW0NIMl1bQ0gyXVtDSDJdUyg9TykoPU8pW05IMl0=

> <s_epik_cmdline>
J2VwaWtfcHl0aG9uJywgJy1waCcsICc3LjAnLCAnLXRuJywgJzgnLCAnLW1hJywgJzIwMCcsICctbWV0YWxfYmluZGluZycsICctaW1hZScsICc8aW5maWxlLm1hZT4nLCAnLW9tYWUnLCAnPG91dGZpbGUubWFlPic=

> <r_lp_tautomer_probability>
1

> <r_epik_Ionization_Penalty>
4.63642

> <r_epik_Ionization_Penalty_Charging>
4.63641

> <r_epik_Ionization_Penalty_Neutral>
1.08396e-05

> <r_epik_State_Penalty>
4.63466

> <r_epik_Charging_Adjusted_Penalty>
9.27106

> <i_epik_Tot_Q>
0

> <i_epik_Tot_abs_Q>
2

> <r_epik_Metal_State_Penalty>
0.890424

> <b_epik_Metal_Only>
1

> <s_lp_Force_Field>
OPLS_2005

> <r_lp_Energy>
-1.73265

> <b_lp_Chiralities_Consistent>
1

> <s_lp_Variant>
AV-unprocessed.smi:658-7

> <Gold.Version>
5.8.1

> <Gold.Id.Protein>
6NUR|6NUR_protein|mol2

> <Gold.PLP.Fitness>
42.4220

> <Gold.PLP.PLP>
-27.8690

> <Gold.PLP.part.hbond>
-2.0000

> <Gold.PLP.part.metal>
0.0000

> <Gold.PLP.part.buried>
-3.2825

> <Gold.PLP.part.nonpolar>
-22.2785

> <Gold.PLP.part.repulsive>
0.3271

> <Gold.PLP.ligand.clash>
0.0000

> <Gold.PLP.ligand.torsion>
0.2924

> <Gold.PLP.Chemscore.Hbond>
3.0000

> <Gold.PLP.Chemscore.CHOScore>
2.0000

> <Gold.PLP.Chemscore.Metal>
0.0000

> <Gold.Chemscore.Hbonds>
donor molecule, donor type, donor heavy atom, donor atom, acceptor molecule, acceptor atom, score
      L1  H     3    37       P1  7948  2.00
      L1  H     8    29       P1 10747  1.00
      L1  C    14    34       P1 10186  1.00
      L1  C    16    36       P1 10747  1.00

> <Gold.PLP.Chemscore.Internal.Correction>
0.1377

> <Gold.Rescore>
     Score         DG    S(hbond)    S(metal)    S(lipo)     H(rot)  DE(clash)    DE(int)     intcor
     10.01     -11.80       1.99        0.00      63.73       3.04       0.14       1.65       ----

> <Gold.Chemscore.Fitness>
10.0128

> <Gold.Chemscore.DG>
-11.8005

> <Gold.Chemscore.ZeroCoef>
-5.4800

> <Gold.Chemscore.Hbond>
1.9907

> <Gold.Chemscore.Metal>
0.0000

> <Gold.Chemscore.Lipo>
63.7302

> <Gold.Chemscore.Internal_Hbond>
0.0000

> <Gold.Chemscore.DEClash>
0.1380

> <Gold.Chemscore.DEInternal>
1.6497

> <Gold.Chemscore.Rot>
3.0409

> <Gold.Chemscore.Internal.Correction>
   9.000000E+99

> <Gold.Chemscore.Hbonds>
donor molecule, donor type, donor heavy atom, donor atom, acceptor molecule, acceptor atom, score
      L1  H     3    37       P1  7948  1.00
      L1  H     8    29       P1 10747  0.99

> <Gold.Chemscore.Hbond.Weighted>
-6.6489

> <Gold.Chemscore.Metal.Weighted>
-0.0000

> <Gold.Chemscore.Lipo.Weighted>
-7.4564

> <Gold.Chemscore.Internal_Hbond.Weighted>
0.0000

> <Gold.Chemscore.DEClash.Weighted>
0.1380

> <Gold.Chemscore.DEInternal.Weighted>
1.6497

> <Gold.Chemscore.Rot.Weighted>
7.7848

> <Gold.Chemscore.Internal.Correction.Weighted>
   9.000000E+99

> <Gold.Protein.RotatedTorsions>
[ 6907 6896 6895 6894 ] final -160.12 input  -60.11 | X-H torsion
[ 7974 7965 7964 7962 ] final  103.52 input  175.53 | X-H torsion
[ 8008 7997 7996 7995 ] final  120.06 input   59.86 | X-H torsion
[ 10167 10162 10161 10158 ] final   49.06 input  -65.29 | X-H torsion
[ 10718 10713 10712 10709 ] final   13.18 input   66.30 | X-H torsion
[ 10763 10752 10751 10750 ] final   83.00 input  -60.55 | X-H torsion
[ 11005 11000 10999 10996 ] final -172.68 input  -57.11 | X-H torsion

> <Gold.Protein.ActiveResidues>
 VAL166  LYS551  ARG553  GLY616  TRP617  ASP618  TYR619  PRO620  LYS621  CYS622 
 ASP623  PHE694  ASN695  SER759  ASP760  ASP761  ALA762  ILE779  LEU786  VAL792 
 PHE793  MET794  SER795  GLU796  ALA797  LYS798  CYS799  TRP800  GLU811  SER814 

> <Gold.Protein.RotatedAtoms>
  151.3442  133.3950  159.2673 H   0  0  0  0  0  0  0  0  0  0  0  0  # atno 6907 bound_to 6896
  150.9853  134.9201  159.7878 H   0  0  0  0  0  0  0  0  0  0  0  0  # atno 6908 bound_to 6896
  152.5230  134.3406  159.9268 H   0  0  0  0  0  0  0  0  0  0  0  0  # atno 6909 bound_to 6896
  145.3448  139.2453  143.3590 H   0  0  0  0  0  0  0  0  0  0  0  0  # atno 7974 bound_to 7965
  156.2625  140.2839  156.1090 H   0  0  0  0  0  0  0  0  0  0  0  0  # atno 8008 bound_to 7997
  155.1278  140.0393  157.2784 H   0  0  0  0  0  0  0  0  0  0  0  0  # atno 8009 bound_to 7997
  154.6622  140.2569  155.7103 H   0  0  0  0  0  0  0  0  0  0  0  0  # atno 8010 bound_to 7997
  140.2868  144.3093  150.6250 H   0  0  0  0  0  0  0  0  0  0  0  0  # atno 10167 bound_to 10162
  157.0209  130.6154  149.5721 H   0  0  0  0  0  0  0  0  0  0  0  0  # atno 10718 bound_to 10713
  153.1252  135.4707  154.9260 H   0  0  0  0  0  0  0  0  0  0  0  0  # atno 10763 bound_to 10752
  154.7613  135.3132  154.8375 H   0  0  0  0  0  0  0  0  0  0  0  0  # atno 10764 bound_to 10752
  153.8930  135.6883  153.4813 H   0  0  0  0  0  0  0  0  0  0  0  0  # atno 10765 bound_to 10752
  140.4943  134.5955  157.4965 H   0  0  0  0  0  0  0  0  0  0  0  0  # atno 11005 bound_to 11000
  146.2992  140.4053  142.8710 LP  0  0  0  0  0  0  0  0  0  0  0  0  # atno 17320 bound_to 7965
  144.8762  140.7340  143.6015 LP  0  0  0  0  0  0  0  0  0  0  0  0  # atno 17321 bound_to 7965
  140.5766  143.2176  151.7504 LP  0  0  0  0  0  0  0  0  0  0  0  0  # atno 17342 bound_to 10162
  139.4948  144.4141  152.0049 LP  0  0  0  0  0  0  0  0  0  0  0  0  # atno 17343 bound_to 10162
  156.0102  130.5193  150.7965 LP  0  0  0  0  0  0  0  0  0  0  0  0  # atno 17370 bound_to 10713
  157.5250  131.0933  151.0029 LP  0  0  0  0  0  0  0  0  0  0  0  0  # atno 17371 bound_to 10713
  139.9751  134.7229  155.9966 LP  0  0  0  0  0  0  0  0  0  0  0  0  # atno 17394 bound_to 11000
  141.1468  133.6554  156.3892 LP  0  0  0  0  0  0  0  0  0  0  0  0  # atno 17395 bound_to 11000

$$$$
