AV-unprocessed.smi:645|AV-procd|sdf|3159|dock9
  -GOLD-   22720 0 83D 1   1.00000     0.00000
 Structure written by MMmdl.
 23 24  0  0  0  0  0  0  0  0  1 V2000
  144.1624  133.4536  152.6593 C   0  0  0  0  0  0  0  0  0  0  0  0
  144.8328  132.6369  151.5361 C   0  0  1  0  0  0  0  0  0  0  0  0
  145.8061  131.5799  152.0814 C   0  0  0  0  0  0  0  0  0  0  0  0
  146.9089  131.9228  152.9012 C   0  0  0  0  0  0  0  0  0  0  0  0
  147.7635  130.9000  153.3586 C   0  0  0  0  0  0  0  0  0  0  0  0
  147.5915  129.5966  153.0562 N   0  0  0  0  0  0  0  0  0  0  0  0
  146.5426  129.2677  152.2743 C   0  0  0  0  0  0  0  0  0  0  0  0
  145.6307  130.2125  151.7646 C   0  0  0  0  0  0  0  0  0  0  0  0
  143.8145  132.0919  150.6469 N   0  0  0  0  0  0  0  0  0  0  0  0
  143.9339  132.5233  149.3843 C   0  0  0  0  0  0  0  0  0  0  0  0
  143.2216  132.1960  148.4383 O   0  0  0  0  0  0  0  0  0  0  0  0
  144.9582  133.3792  149.3392 N   0  0  0  0  0  0  0  0  0  0  0  0
  145.5380  133.5409  150.5274 C   0  0  0  0  0  0  0  0  0  0  0  0
  146.4764  134.2933  150.7864 O   0  0  0  0  0  0  0  0  0  0  0  0
  144.8930  133.9808  153.2732 H   0  0  0  0  0  0  0  0  0  0  0  0
  143.5844  132.8063  153.3196 H   0  0  0  0  0  0  0  0  0  0  0  0
  143.4794  134.2033  152.2565 H   0  0  0  0  0  0  0  0  0  0  0  0
  147.1132  132.9439  153.1861 H   0  0  0  0  0  0  0  0  0  0  0  0
  148.6106  131.1372  153.9853 H   0  0  0  0  0  0  0  0  0  0  0  0
  146.4252  128.2187  152.0469 H   0  0  0  0  0  0  0  0  0  0  0  0
  144.8084  129.8847  151.1461 H   0  0  0  0  0  0  0  0  0  0  0  0
  143.1165  131.4325  150.9584 H   0  0  0  0  0  0  0  0  0  0  0  0
  145.2499  133.8619  148.5019 H   0  0  0  0  0  0  0  0  0  0  0  0
  1  2  1  0  0  0  0
  1 15  1  0  0  0  0
  1 16  1  0  0  0  0
  1 17  1  0  0  0  0
  2 13  1  0  0  0  0
  2  3  1  0  0  0  0
  2  9  1  0  0  0  0
  3  8  1  0  0  0  0
  3  4  2  0  0  0  0
  4  5  1  0  0  0  0
  4 18  1  0  0  0  0
  5  6  2  0  0  0  0
  5 19  1  0  0  0  0
  6  7  1  0  0  0  0
  7  8  2  0  0  0  0
  7 20  1  0  0  0  0
  8 21  1  0  0  0  0
  9 10  1  0  0  0  0
  9 22  1  0  0  0  0
 10 11  2  0  0  0  0
 10 12  1  0  0  0  0
 12 13  1  0  0  0  0
 12 23  1  0  0  0  0
 13 14  2  0  0  0  0
M  END
> <s_m_source_file>
AV-unprocessed.smi

> <i_m_source_file_index>
645

> <i_lp_mmshare_version>
43012

> <i_f3d_flags>
0

> <s_epik_input>
Tz1DMVtOSF1DKD1PKVtOSF1bQ0BAXTEoW0NIM10pYzJbY0hdW2NIXW5bY0hdW2NIXTI=

> <s_epik_cmdline>
J2VwaWtfcHl0aG9uJywgJy1waCcsICc3LjAnLCAnLXRuJywgJzgnLCAnLW1hJywgJzIwMCcsICctbWV0YWxfYmluZGluZycsICctaW1hZScsICc8aW5maWxlLm1hZT4nLCAnLW9tYWUnLCAnPG91dGZpbGUubWFlPic=

> <r_lp_tautomer_probability>
1

> <r_epik_Ionization_Penalty>
0.0327402

> <r_epik_Ionization_Penalty_Charging>
0

> <r_epik_Ionization_Penalty_Neutral>
0.0327402

> <r_epik_State_Penalty>
0.022996

> <r_epik_Charging_Adjusted_Penalty>
0.022996

> <i_epik_Tot_Q>
0

> <i_epik_Tot_abs_Q>
0

> <r_epik_Metal_State_Penalty>
0.426243

> <b_epik_Metal_Only>
0

> <s_lp_Force_Field>
OPLS_2005

> <r_lp_Energy>
18.0362

> <b_lp_Chiralities_Consistent>
1

> <s_lp_Variant>
AV-unprocessed.smi:645-1

> <Gold.Version>
5.8.1

> <Gold.Id.Protein>
6NUR|6NUR_protein|mol2

> <Gold.PLP.Fitness>
25.6996

> <Gold.PLP.PLP>
-20.4673

> <Gold.PLP.part.hbond>
-1.9524

> <Gold.PLP.part.metal>
0.0000

> <Gold.PLP.part.buried>
-1.1198

> <Gold.PLP.part.nonpolar>
-17.9843

> <Gold.PLP.part.repulsive>
0.8798

> <Gold.PLP.ligand.clash>
0.0000

> <Gold.PLP.ligand.torsion>
0.0712

> <Gold.PLP.Chemscore.Hbond>
1.7520

> <Gold.PLP.Chemscore.CHOScore>
0.0000

> <Gold.PLP.Chemscore.Metal>
0.0000

> <Gold.Chemscore.Hbonds>
donor molecule, donor type, donor heavy atom, donor atom, acceptor molecule, acceptor atom, score
      L1  H    12    23       P1  7921  1.00
      P1  H 10785 10796       L1    11  0.71

> <Gold.PLP.Chemscore.Internal.Correction>
0.1187

> <Gold.Rescore>
     Score         DG    S(hbond)    S(metal)    S(lipo)     H(rot)  DE(clash)    DE(int)     intcor
     12.50     -13.22       1.58        0.00      42.92       1.00       0.66       0.06       ----

> <Gold.Chemscore.Fitness>
12.5038

> <Gold.Chemscore.DG>
-13.2247

> <Gold.Chemscore.ZeroCoef>
-5.4800

> <Gold.Chemscore.Hbond>
1.5817

> <Gold.Chemscore.Metal>
0.0000

> <Gold.Chemscore.Lipo>
42.9219

> <Gold.Chemscore.Internal_Hbond>
0.0000

> <Gold.Chemscore.DEClash>
0.6616

> <Gold.Chemscore.DEInternal>
0.0593

> <Gold.Chemscore.Rot>
1.0000

> <Gold.Chemscore.Internal.Correction>
   9.000000E+99

> <Gold.Chemscore.Hbonds>
donor molecule, donor type, donor heavy atom, donor atom, acceptor molecule, acceptor atom, score
      L1  H    12    23       P1  7921  0.80
      P1  H 10785 10796       L1    11  0.17

> <Gold.Chemscore.Hbond.Weighted>
-5.2828

> <Gold.Chemscore.Metal.Weighted>
-0.0000

> <Gold.Chemscore.Lipo.Weighted>
-5.0219

> <Gold.Chemscore.Internal_Hbond.Weighted>
0.0000

> <Gold.Chemscore.DEClash.Weighted>
0.6616

> <Gold.Chemscore.DEInternal.Weighted>
0.0593

> <Gold.Chemscore.Rot.Weighted>
2.5600

> <Gold.Chemscore.Internal.Correction.Weighted>
   9.000000E+99

> <Gold.Protein.RotatedTorsions>
[ 6907 6896 6895 6894 ] final -170.92 input  -60.11 | X-H torsion
[ 7974 7965 7964 7962 ] final  122.25 input  175.53 | X-H torsion
[ 8008 7997 7996 7995 ] final  177.99 input   59.86 | X-H torsion
[ 10167 10162 10161 10158 ] final  113.50 input  -65.29 | X-H torsion
[ 10718 10713 10712 10709 ] final   33.98 input   66.30 | X-H torsion
[ 10763 10752 10751 10750 ] final  -88.64 input  -60.55 | X-H torsion
[ 11005 11000 10999 10996 ] final   39.02 input  -57.11 | X-H torsion

> <Gold.Protein.ActiveResidues>
 VAL166  LYS551  ARG553  GLY616  TRP617  ASP618  TYR619  PRO620  LYS621  CYS622 
 ASP623  PHE694  ASN695  SER759  ASP760  ASP761  ALA762  ILE779  LEU786  VAL792 
 PHE793  MET794  SER795  GLU796  ALA797  LYS798  CYS799  TRP800  GLU811  SER814 

> <Gold.Protein.RotatedAtoms>
  151.5155  133.3476  159.2892 H   0  0  0  0  0  0  0  0  0  0  0  0  # atno 6907 bound_to 6896
  150.8685  134.8056  159.7148 H   0  0  0  0  0  0  0  0  0  0  0  0  # atno 6908 bound_to 6896
  152.4681  134.5036  159.9784 H   0  0  0  0  0  0  0  0  0  0  0  0  # atno 6909 bound_to 6896
  145.1097  139.3461  143.4769 H   0  0  0  0  0  0  0  0  0  0  0  0  # atno 7974 bound_to 7965
  156.0596  140.1344  156.9957 H   0  0  0  0  0  0  0  0  0  0  0  0  # atno 8008 bound_to 7997
  154.4475  140.0994  156.6567 H   0  0  0  0  0  0  0  0  0  0  0  0  # atno 8009 bound_to 7997
  155.5398  140.3460  155.4446 H   0  0  0  0  0  0  0  0  0  0  0  0  # atno 8010 bound_to 7997
  139.6456  144.7126  151.2149 H   0  0  0  0  0  0  0  0  0  0  0  0  # atno 10167 bound_to 10162
  157.3047  130.7368  149.6688 H   0  0  0  0  0  0  0  0  0  0  0  0  # atno 10718 bound_to 10713
  154.6467  135.5370  153.7853 H   0  0  0  0  0  0  0  0  0  0  0  0  # atno 10763 bound_to 10752
  153.0363  135.6472  154.1079 H   0  0  0  0  0  0  0  0  0  0  0  0  # atno 10764 bound_to 10752
  154.0999  135.2934  155.3233 H   0  0  0  0  0  0  0  0  0  0  0  0  # atno 10765 bound_to 10752
  140.2069  134.3802  155.8068 H   0  0  0  0  0  0  0  0  0  0  0  0  # atno 11005 bound_to 11000
  146.3527  140.1011  142.8608 LP  0  0  0  0  0  0  0  0  0  0  0  0  # atno 17320 bound_to 7965
  145.0861  140.9253  143.4797 LP  0  0  0  0  0  0  0  0  0  0  0  0  # atno 17321 bound_to 7965
  140.7513  143.6236  150.8489 LP  0  0  0  0  0  0  0  0  0  0  0  0  # atno 17342 bound_to 10162
  139.9879  143.5880  152.2920 LP  0  0  0  0  0  0  0  0  0  0  0  0  # atno 17343 bound_to 10162
  155.9673  130.4269  150.4721 LP  0  0  0  0  0  0  0  0  0  0  0  0  # atno 17370 bound_to 10713
  157.2709  131.0587  151.2260 LP  0  0  0  0  0  0  0  0  0  0  0  0  # atno 17371 bound_to 10713
  141.2227  133.7123  156.8352 LP  0  0  0  0  0  0  0  0  0  0  0  0  # atno 17394 bound_to 11000
  140.1993  134.8909  157.3151 LP  0  0  0  0  0  0  0  0  0  0  0  0  # atno 17395 bound_to 11000

$$$$
