AV-unprocessed.smi:35|AV-procd|sdf|267|dock6
  -GOLD-   2262016 33D 1   1.00000     0.00000
 Structure written by MMmdl.
 28 29  0  0  0  0  0  0  0  0  2 V2000
  153.5282  138.9332  160.3731 O   0  0  0  0  0  0  0  0  0  0  0  0
  153.2212  138.9279  159.1824 C   0  0  0  0  0  0  0  0  0  0  0  0
  153.5075  137.8874  158.3481 N   0  5  0  0  0  0  0  0  0  0  0  0
  153.1540  137.8814  157.0294 C   0  0  0  0  0  0  0  0  0  0  0  0
  153.4298  136.9560  156.2651 O   0  0  0  0  0  0  0  0  0  0  0  0
  152.4348  138.9899  156.5003 N   0  0  0  0  0  0  0  0  0  0  0  0
  152.0600  138.9780  155.0274 C   0  0  2  0  0  0  0  0  0  0  0  0
  151.3411  140.1317  154.7071 O   0  0  0  0  0  0  0  0  0  0  0  0
  149.9473  139.8636  154.7953 C   0  0  1  0  0  0  0  0  0  0  0  0
  149.1600  140.9175  154.0023 C   0  0  0  0  0  0  0  0  0  0  0  0
  149.2736  142.1782  154.6277 O   0  0  0  0  0  0  0  0  0  0  0  0
  149.8583  138.4562  154.2033 C   0  0  2  0  0  0  0  0  0  0  0  0
  148.7180  137.7836  154.6992 O   0  0  0  0  0  0  0  0  0  0  0  0
  151.1383  137.7837  154.6935 C   0  0  1  0  0  0  0  0  0  0  0  0
  151.6866  136.9729  153.6746 O   0  0  0  0  0  0  0  0  0  0  0  0
  152.1631  140.0765  157.3179 C   0  0  0  0  0  0  0  0  0  0  0  0
  152.5231  140.0788  158.6172 C   0  0  0  0  0  0  0  0  0  0  0  0
  152.0661  141.6979  159.6646 Br  0  0  0  0  0  0  0  0  0  0  0  0
  153.0145  138.9790  154.4977 H   0  0  0  0  0  0  0  0  0  0  0  0
  149.6339  139.8437  155.8410 H   0  0  0  0  0  0  0  0  0  0  0  0
  149.5005  140.9730  152.9680 H   0  0  0  0  0  0  0  0  0  0  0  0
  148.1015  140.6570  153.9818 H   0  0  0  0  0  0  0  0  0  0  0  0
  149.2105  142.0569  155.5626 H   0  0  0  0  0  0  0  0  0  0  0  0
  149.8324  138.5054  153.1131 H   0  0  0  0  0  0  0  0  0  0  0  0
  149.0091  137.0352  155.1978 H   0  0  0  0  0  0  0  0  0  0  0  0
  150.9567  137.1868  155.5890 H   0  0  0  0  0  0  0  0  0  0  0  0
  151.2246  137.1610  152.8709 H   0  0  0  0  0  0  0  0  0  0  0  0
  151.6607  140.9482  156.9279 H   0  0  0  0  0  0  0  0  0  0  0  0
  1  2  2  0  0  0  0
  2 17  1  0  0  0  0
  2  3  1  0  0  0  0
  3  4  1  0  0  0  0
  4  5  2  0  0  0  0
  4  6  1  0  0  0  0
  6  7  1  0  0  0  0
  6 16  1  0  0  0  0
  7 14  1  0  0  0  0
  7  8  1  0  0  0  0
  7 19  1  0  0  0  0
  8  9  1  0  0  0  0
  9 10  1  0  0  0  0
  9 12  1  0  0  0  0
  9 20  1  0  0  0  0
 10 11  1  0  0  0  0
 10 21  1  0  0  0  0
 10 22  1  0  0  0  0
 11 23  1  0  0  0  0
 12 13  1  0  0  0  0
 12 14  1  0  0  0  0
 12 24  1  0  0  0  0
 13 25  1  0  0  0  0
 14 15  1  0  0  0  0
 14 26  1  0  0  0  0
 15 27  1  0  0  0  0
 16 17  2  0  0  0  0
 16 28  1  0  0  0  0
 17 18  1  0  0  0  0
M  CHG  1   3  -1
M  END
> <s_m_source_file>
AV-unprocessed.smi

> <i_m_source_file_index>
35

> <i_lp_mmshare_version>
43012

> <i_f3d_flags>
0

> <s_epik_input>
Tz1jMVtuSF1jKD1PKW4oW2NIXWMxQnIpW0NAQEhdMk9bQ0BASF0oW0NIMl1bT0hdKVtDQEBIXShbT0hdKVtDQEhdMltPSF0=

> <s_epik_cmdline>
J2VwaWtfcHl0aG9uJywgJy1waCcsICc3LjAnLCAnLXRuJywgJzgnLCAnLW1hJywgJzIwMCcsICctbWV0YWxfYmluZGluZycsICctaW1hZScsICc8aW5maWxlLm1hZT4nLCAnLW9tYWUnLCAnPG91dGZpbGUubWFlPic=

> <r_epik_Ionization_Penalty>
1.06112

> <r_epik_Ionization_Penalty_Charging>
2.1796e-09

> <r_epik_Ionization_Penalty_Neutral>
1.06112

> <r_epik_State_Penalty>
1.11484

> <r_epik_Charging_Adjusted_Penalty>
1.11484

> <i_epik_Tot_Q>
-1

> <i_epik_Tot_abs_Q>
1

> <r_epik_Metal_State_Penalty>
0.0032876

> <b_epik_Metal_Only>
0

> <s_epik_Chemistry_Notes>
This compound contains an acetal/aminal-like group ( X-CH(R)-Y where X, Y are N, S, or O) that may be acid/base labile, releasing an aldehyde.

> <s_lp_Force_Field>
OPLS_2005

> <r_lp_Energy>
34.7757

> <b_lp_Chiralities_Consistent>
1

> <s_lp_Variant>
AV-unprocessed.smi:35-21

> <Gold.Version>
5.8.1

> <Gold.Id.Protein>
6NUR|6NUR_protein|mol2

> <Gold.PLP.Fitness>
39.5268

> <Gold.PLP.PLP>
-30.1317

> <Gold.PLP.part.hbond>
-5.9628

> <Gold.PLP.part.metal>
0.0000

> <Gold.PLP.part.buried>
-2.5990

> <Gold.PLP.part.nonpolar>
-21.1392

> <Gold.PLP.part.repulsive>
0.0696

> <Gold.PLP.ligand.clash>
0.0000

> <Gold.PLP.ligand.torsion>
0.0310

> <Gold.PLP.Chemscore.Hbond>
3.1423

> <Gold.PLP.Chemscore.CHOScore>
0.0000

> <Gold.PLP.Chemscore.Metal>
0.0000

> <Gold.Chemscore.Hbonds>
donor molecule, donor type, donor heavy atom, donor atom, acceptor molecule, acceptor atom, score
      L1  H    15    27       P1  7949  0.45
      P1  H  7989  7998       L1     8  0.78
      P1  H 10752 10763       L1     5  0.54
      P1  H 10752 10765       L1    15  1.00

> <Gold.PLP.Chemscore.Internal.Correction>
0.0303

> <Gold.Rescore>
     Score         DG    S(hbond)    S(metal)    S(lipo)     H(rot)  DE(clash)    DE(int)     intcor
     10.15     -11.40       2.88        0.00      47.64       3.63       0.04       1.21       ----

> <Gold.Chemscore.Fitness>
10.1508

> <Gold.Chemscore.DG>
-11.4021

> <Gold.Chemscore.ZeroCoef>
-5.4800

> <Gold.Chemscore.Hbond>
2.8834

> <Gold.Chemscore.Metal>
0.0000

> <Gold.Chemscore.Lipo>
47.6427

> <Gold.Chemscore.Internal_Hbond>
0.0000

> <Gold.Chemscore.DEClash>
0.0402

> <Gold.Chemscore.DEInternal>
1.2110

> <Gold.Chemscore.Rot>
3.6261

> <Gold.Chemscore.Internal.Correction>
   9.000000E+99

> <Gold.Chemscore.Hbonds>
donor molecule, donor type, donor heavy atom, donor atom, acceptor molecule, acceptor atom, score
      L1  H    15    27       P1  7949  0.28
      P1  H  7989  7998       L1     8  0.59
      P1  H 10752 10763       L1     5  0.54
      P1  H 10752 10765       L1    15  0.99

> <Gold.Chemscore.Hbond.Weighted>
-9.6306

> <Gold.Chemscore.Metal.Weighted>
-0.0000

> <Gold.Chemscore.Lipo.Weighted>
-5.5742

> <Gold.Chemscore.Internal_Hbond.Weighted>
0.0000

> <Gold.Chemscore.DEClash.Weighted>
0.0402

> <Gold.Chemscore.DEInternal.Weighted>
1.2110

> <Gold.Chemscore.Rot.Weighted>
9.2828

> <Gold.Chemscore.Internal.Correction.Weighted>
   9.000000E+99

> <Gold.Protein.RotatedTorsions>
[ 6907 6896 6895 6894 ] final  118.28 input  -60.11 | X-H torsion
[ 7974 7965 7964 7962 ] final   58.85 input  175.53 | X-H torsion
[ 8008 7997 7996 7995 ] final   95.94 input   59.86 | X-H torsion
[ 10167 10162 10161 10158 ] final   28.90 input  -65.29 | X-H torsion
[ 10718 10713 10712 10709 ] final  -21.50 input   66.30 | X-H torsion
[ 10763 10752 10751 10750 ] final  135.08 input  -60.55 | X-H torsion
[ 11005 11000 10999 10996 ] final  115.53 input  -57.11 | X-H torsion

> <Gold.Protein.ActiveResidues>
 VAL166  LYS551  ARG553  GLY616  TRP617  ASP618  TYR619  PRO620  LYS621  CYS622 
 ASP623  PHE694  ASN695  SER759  ASP760  ASP761  ALA762  ILE779  LEU786  VAL792 
 PHE793  MET794  SER795  GLU796  ALA797  LYS798  CYS799  TRP800  GLU811  SER814 

> <Gold.Protein.RotatedAtoms>
  152.4554  133.7712  159.6799 H   0  0  0  0  0  0  0  0  0  0  0  0  # atno 6907 bound_to 6896
  150.8479  133.7823  159.3042 H   0  0  0  0  0  0  0  0  0  0  0  0  # atno 6908 bound_to 6896
  151.5428  135.1071  159.9982 H   0  0  0  0  0  0  0  0  0  0  0  0  # atno 6909 bound_to 6896
  145.9137  139.3674  143.0520 H   0  0  0  0  0  0  0  0  0  0  0  0  # atno 7974 bound_to 7965
  156.0743  140.3279  155.7614 H   0  0  0  0  0  0  0  0  0  0  0  0  # atno 8008 bound_to 7997
  155.5255  140.0589  157.2916 H   0  0  0  0  0  0  0  0  0  0  0  0  # atno 8009 bound_to 7997
  154.4547  140.1936  156.0432 H   0  0  0  0  0  0  0  0  0  0  0  0  # atno 8010 bound_to 7997
  140.4812  144.0612  150.6266 H   0  0  0  0  0  0  0  0  0  0  0  0  # atno 10167 bound_to 10162
  156.5173  130.4624  149.6615 H   0  0  0  0  0  0  0  0  0  0  0  0  # atno 10718 bound_to 10713
  153.8342  135.3100  155.3421 H   0  0  0  0  0  0  0  0  0  0  0  0  # atno 10763 bound_to 10752
  154.7960  135.4755  154.0165 H   0  0  0  0  0  0  0  0  0  0  0  0  # atno 10764 bound_to 10752
  153.1615  135.6862  153.8827 H   0  0  0  0  0  0  0  0  0  0  0  0  # atno 10765 bound_to 10752
  139.9013  134.9585  156.7060 H   0  0  0  0  0  0  0  0  0  0  0  0  # atno 11005 bound_to 11000
  145.8639  140.9459  143.0686 LP  0  0  0  0  0  0  0  0  0  0  0  0  # atno 17320 bound_to 7965
  144.6745  140.0566  143.7477 LP  0  0  0  0  0  0  0  0  0  0  0  0  # atno 17321 bound_to 7965
  140.3855  143.2780  152.0121 LP  0  0  0  0  0  0  0  0  0  0  0  0  # atno 17342 bound_to 10162
  139.4834  144.6120  151.7416 LP  0  0  0  0  0  0  0  0  0  0  0  0  # atno 17343 bound_to 10162
  156.3182  130.7266  151.2173 LP  0  0  0  0  0  0  0  0  0  0  0  0  # atno 17370 bound_to 10713
  157.7442  131.0463  150.4885 LP  0  0  0  0  0  0  0  0  0  0  0  0  # atno 17371 bound_to 10713
  140.7113  133.9221  155.8086 LP  0  0  0  0  0  0  0  0  0  0  0  0  # atno 17394 bound_to 11000
  141.0298  134.0772  157.4027 LP  0  0  0  0  0  0  0  0  0  0  0  0  # atno 17395 bound_to 11000

$$$$
