AV-unprocessed.smi:48|AV-procd|sdf|453|dock6
  -GOLD-   2262016323D 1   1.00000     0.00000
 Structure written by MMmdl.
 30 32  0  0  0  0  0  0  0  0  1 V2000
  151.8537  136.1542  155.6425 O   0  0  0  0  0  0  0  0  0  0  0  0
  151.3732  136.6628  156.8686 C   0  0  0  0  0  0  0  0  0  0  0  0
  150.9692  138.1354  156.7035 C   0  0  1  0  0  0  0  0  0  0  0  0
  152.0932  138.9038  156.2942 O   0  0  0  0  0  0  0  0  0  0  0  0
  151.6514  140.1001  155.7317 C   0  0  2  0  0  0  0  0  0  0  0  0
  151.5613  141.1387  156.8096 N   0  0  0  0  0  0  0  0  0  0  0  0
  150.7954  142.2500  156.8713 C   0  0  0  0  0  0  0  0  0  0  0  0
  150.8897  143.0003  157.9689 N   0  0  0  0  0  0  0  0  0  0  0  0
  151.8090  142.2833  158.7162 C   0  0  0  0  0  0  0  0  0  0  0  0
  152.3768  142.4872  159.9975 C   0  0  0  0  0  0  0  0  0  0  0  0
  151.9504  143.8608  160.9511 Cl  0  0  0  0  0  0  0  0  0  0  0  0
  153.2641  141.5748  160.4617 N   0  0  0  0  0  0  0  0  0  0  0  0
  153.5742  140.5157  159.7034 C   0  0  0  0  0  0  0  0  0  0  0  0
  153.1240  140.1927  158.4852 N   0  0  0  0  0  0  0  0  0  0  0  0
  152.2330  141.1173  158.0192 C   0  0  0  0  0  0  0  0  0  0  0  0
  150.2577  139.8211  155.1380 C   0  0  1  0  0  0  0  0  0  0  0  0
  150.2629  139.9353  153.7302 O   0  0  0  0  0  0  0  0  0  0  0  0
  149.9819  138.3772  155.5577 C   0  0  2  0  0  0  0  0  0  0  0  0
  148.6534  138.2389  156.0198 O   0  0  0  0  0  0  0  0  0  0  0  0
  150.5635  138.5374  157.6342 H   0  0  0  0  0  0  0  0  0  0  0  0
  152.3785  140.5070  155.0275 H   0  0  0  0  0  0  0  0  0  0  0  0
  149.5240  140.5124  155.5565 H   0  0  0  0  0  0  0  0  0  0  0  0
  150.1767  137.6841  154.7370 H   0  0  0  0  0  0  0  0  0  0  0  0
  151.1138  135.9017  155.1117 H   0  0  0  0  0  0  0  0  0  0  0  0
  150.5403  136.0597  157.2315 H   0  0  0  0  0  0  0  0  0  0  0  0
  152.1792  136.5751  157.5977 H   0  0  0  0  0  0  0  0  0  0  0  0
  150.1288  142.5292  156.0685 H   0  0  0  0  0  0  0  0  0  0  0  0
  154.2857  139.8267  160.1342 H   0  0  0  0  0  0  0  0  0  0  0  0
  150.5572  139.1147  153.3649 H   0  0  0  0  0  0  0  0  0  0  0  0
  148.4783  138.9344  156.6353 H   0  0  0  0  0  0  0  0  0  0  0  0
  1  2  1  0  0  0  0
  1 24  1  0  0  0  0
  2  3  1  0  0  0  0
  2 25  1  0  0  0  0
  2 26  1  0  0  0  0
  3 20  1  0  0  0  0
  3 18  1  0  0  0  0
  3  4  1  0  0  0  0
  4  5  1  0  0  0  0
  5 21  1  0  0  0  0
  5  6  1  0  0  0  0
  5 16  1  0  0  0  0
  6 15  1  0  0  0  0
  6  7  1  0  0  0  0
  7  8  2  0  0  0  0
  7 27  1  0  0  0  0
  8  9  1  0  0  0  0
  9 15  2  0  0  0  0
  9 10  1  0  0  0  0
 10 11  1  0  0  0  0
 10 12  2  0  0  0  0
 12 13  1  0  0  0  0
 13 14  2  0  0  0  0
 13 28  1  0  0  0  0
 14 15  1  0  0  0  0
 16 22  1  0  0  0  0
 16 17  1  0  0  0  0
 16 18  1  0  0  0  0
 17 29  1  0  0  0  0
 18 23  1  0  0  0  0
 18 19  1  0  0  0  0
 19 30  1  0  0  0  0
M  END
> <s_m_source_file>
AV-unprocessed.smi

> <i_m_source_file_index>
48

> <i_lp_mmshare_version>
43012

> <i_f3d_flags>
0

> <s_epik_input>
W09IXVtDSDJdW0NASF0xT1tDQEhdKFtDQEhdKFtPSF0pW0NAQEhdMVtPSF0pbihbY0hdbjIpYyhjMjMpbltjSF1uYzNDbA==

> <s_epik_cmdline>
J2VwaWtfcHl0aG9uJywgJy1waCcsICc3LjAnLCAnLXRuJywgJzgnLCAnLW1hJywgJzIwMCcsICctbWV0YWxfYmluZGluZycsICctaW1hZScsICc8aW5maWxlLm1hZT4nLCAnLW9tYWUnLCAnPG91dGZpbGUubWFlPic=

> <r_lp_tautomer_probability>
1

> <r_epik_Ionization_Penalty>
3.45505e-06

> <r_epik_Ionization_Penalty_Charging>
0

> <r_epik_Ionization_Penalty_Neutral>
3.45505e-06

> <r_epik_State_Penalty>
-0

> <r_epik_Charging_Adjusted_Penalty>
0

> <i_epik_Tot_Q>
0

> <i_epik_Tot_abs_Q>
0

> <r_epik_Metal_State_Penalty>
-0

> <b_epik_Metal_Only>
0

> <s_epik_Chemistry_Notes>
This compound contains an acetal/aminal-like group ( X-CH(R)-Y where X, Y are N, S, or O) that may be acid/base labile, releasing an aldehyde.

> <s_lp_Force_Field>
OPLS_2005

> <r_lp_Energy>
31.0033

> <b_lp_Chiralities_Consistent>
1

> <s_lp_Variant>
AV-unprocessed.smi:48-7

> <Gold.Version>
5.8.1

> <Gold.Id.Protein>
6NUR|6NUR_protein|mol2

> <Gold.PLP.Fitness>
40.2366

> <Gold.PLP.PLP>
-29.9061

> <Gold.PLP.part.hbond>
-4.0000

> <Gold.PLP.part.metal>
0.0000

> <Gold.PLP.part.buried>
-4.9781

> <Gold.PLP.part.nonpolar>
-20.3667

> <Gold.PLP.part.repulsive>
0.1183

> <Gold.PLP.ligand.clash>
0.0000

> <Gold.PLP.ligand.torsion>
0.6205

> <Gold.PLP.Chemscore.Hbond>
2.8473

> <Gold.PLP.Chemscore.CHOScore>
0.9994

> <Gold.PLP.Chemscore.Metal>
0.0000

> <Gold.Chemscore.Hbonds>
donor molecule, donor type, donor heavy atom, donor atom, acceptor molecule, acceptor atom, score
      P1  H  7989  7998       L1    17  0.86
      P1  H  7997  8008       L1    14  0.89
      P1  H 10752 10763       L1     1  1.00
      L1  C     7    27       P1  8028  0.95

> <Gold.PLP.Chemscore.Internal.Correction>
0.0313

> <Gold.Rescore>
     Score         DG    S(hbond)    S(metal)    S(lipo)     H(rot)  DE(clash)    DE(int)     intcor
      4.22      -6.37       1.43        0.00      50.09       3.80       0.04       2.12       ----

> <Gold.Chemscore.Fitness>
4.2156

> <Gold.Chemscore.DG>
-6.3722

> <Gold.Chemscore.ZeroCoef>
-5.4800

> <Gold.Chemscore.Hbond>
1.4262

> <Gold.Chemscore.Metal>
0.0000

> <Gold.Chemscore.Lipo>
50.0945

> <Gold.Chemscore.Internal_Hbond>
0.0000

> <Gold.Chemscore.DEClash>
0.0408

> <Gold.Chemscore.DEInternal>
2.1157

> <Gold.Chemscore.Rot>
3.8017

> <Gold.Chemscore.Internal.Correction>
   9.000000E+99

> <Gold.Chemscore.Hbonds>
donor molecule, donor type, donor heavy atom, donor atom, acceptor molecule, acceptor atom, score
      P1  H  7989  7998       L1    17  0.08
      P1  H  7997  8008       L1    14  0.40
      P1  H 10752 10763       L1     1  0.72

> <Gold.Chemscore.Hbond.Weighted>
-4.7635

> <Gold.Chemscore.Metal.Weighted>
-0.0000

> <Gold.Chemscore.Lipo.Weighted>
-5.8611

> <Gold.Chemscore.Internal_Hbond.Weighted>
0.0000

> <Gold.Chemscore.DEClash.Weighted>
0.0408

> <Gold.Chemscore.DEInternal.Weighted>
2.1157

> <Gold.Chemscore.Rot.Weighted>
9.7324

> <Gold.Chemscore.Internal.Correction.Weighted>
   9.000000E+99

> <Gold.Protein.RotatedTorsions>
[ 6907 6896 6895 6894 ] final  136.50 input  -60.11 | X-H torsion
[ 7974 7965 7964 7962 ] final    5.75 input  175.53 | X-H torsion
[ 8008 7997 7996 7995 ] final  -86.16 input   59.86 | X-H torsion
[ 10167 10162 10161 10158 ] final  -91.49 input  -65.29 | X-H torsion
[ 10718 10713 10712 10709 ] final   53.22 input   66.30 | X-H torsion
[ 10763 10752 10751 10750 ] final   93.85 input  -60.55 | X-H torsion
[ 11005 11000 10999 10996 ] final  -68.66 input  -57.11 | X-H torsion

> <Gold.Protein.ActiveResidues>
 VAL166  LYS551  ARG553  GLY616  TRP617  ASP618  TYR619  PRO620  LYS621  CYS622 
 ASP623  PHE694  ASN695  SER759  ASP760  ASP761  ALA762  ILE779  LEU786  VAL792 
 PHE793  MET794  SER795  GLU796  ALA797  LYS798  CYS799  TRP800  GLU811  SER814 

> <Gold.Protein.RotatedAtoms>
  152.2886  133.5539  159.5542 H   0  0  0  0  0  0  0  0  0  0  0  0  # atno 6907 bound_to 6896
  150.7226  134.0461  159.3791 H   0  0  0  0  0  0  0  0  0  0  0  0  # atno 6908 bound_to 6896
  151.8368  135.0604  160.0494 H   0  0  0  0  0  0  0  0  0  0  0  0  # atno 6909 bound_to 6896
  146.2439  140.0337  142.8387 H   0  0  0  0  0  0  0  0  0  0  0  0  # atno 7974 bound_to 7965
  154.6488  140.0582  156.9932 H   0  0  0  0  0  0  0  0  0  0  0  0  # atno 8008 bound_to 7997
  155.1403  140.3265  155.4435 H   0  0  0  0  0  0  0  0  0  0  0  0  # atno 8009 bound_to 7997
  156.2566  140.1965  156.6519 H   0  0  0  0  0  0  0  0  0  0  0  0  # atno 8010 bound_to 7997
  140.3444  143.2925  151.9799 H   0  0  0  0  0  0  0  0  0  0  0  0  # atno 10167 bound_to 10162
  157.5147  130.8524  149.8480 H   0  0  0  0  0  0  0  0  0  0  0  0  # atno 10718 bound_to 10713
  153.2350  135.4310  155.0636 H   0  0  0  0  0  0  0  0  0  0  0  0  # atno 10763 bound_to 10752
  154.8314  135.3389  154.6732 H   0  0  0  0  0  0  0  0  0  0  0  0  # atno 10764 bound_to 10752
  153.7158  135.7020  153.5082 H   0  0  0  0  0  0  0  0  0  0  0  0  # atno 10765 bound_to 10752
  141.1537  133.6746  156.6480 H   0  0  0  0  0  0  0  0  0  0  0  0  # atno 11005 bound_to 11000
  145.1132  140.9417  143.4644 LP  0  0  0  0  0  0  0  0  0  0  0  0  # atno 17320 bound_to 7965
  145.0555  139.3147  143.5906 LP  0  0  0  0  0  0  0  0  0  0  0  0  # atno 17321 bound_to 7965
  139.4835  144.6130  151.7399 LP  0  0  0  0  0  0  0  0  0  0  0  0  # atno 17342 bound_to 10162
  140.5279  144.0777  150.6043 LP  0  0  0  0  0  0  0  0  0  0  0  0  # atno 17343 bound_to 10162
  156.0312  130.3764  150.1682 LP  0  0  0  0  0  0  0  0  0  0  0  0  # atno 17370 bound_to 10713
  156.9871  130.9882  151.3423 LP  0  0  0  0  0  0  0  0  0  0  0  0  # atno 17371 bound_to 10713
  140.3342  134.7903  157.4349 LP  0  0  0  0  0  0  0  0  0  0  0  0  # atno 17394 bound_to 11000
  140.0991  134.5496  155.8370 LP  0  0  0  0  0  0  0  0  0  0  0  0  # atno 17395 bound_to 11000

$$$$
