AV-unprocessed.smi:912|AV-procd|sdf|4142|dock5
  -GOLD-   22720 2 43D 1   1.00000     0.00000
 Structure written by MMmdl.
 27 27  0  0  0  0  0  0  0  0  2 V2000
  146.8068  138.8475  152.2462 C   0  0  0  0  0  0  0  0  0  0  0  0
  148.1750  138.8293  152.8149 N   0  3  0  0  0  0  0  0  0  0  0  0
  148.3337  139.0922  154.2751 C   0  0  1  0  0  0  0  0  0  0  0  0
  147.6173  140.4144  154.6562 C   0  0  0  0  0  0  0  0  0  0  0  0
  147.7446  137.8811  155.0431 C   0  0  0  0  0  0  0  0  0  0  0  0
  148.1387  136.6558  154.6758 N   0  0  0  0  0  0  0  0  0  0  0  0
  146.9299  138.0420  155.9501 O   0  0  0  0  0  0  0  0  0  0  0  0
  149.8293  139.2175  154.6365 C   0  0  0  0  0  0  0  0  0  0  0  0
  150.7929  138.2493  154.2539 C   0  0  0  0  0  0  0  0  0  0  0  0
  152.1401  138.4413  154.6215 C   0  0  0  0  0  0  0  0  0  0  0  0
  152.5744  139.5061  155.3254 N   0  0  0  0  0  0  0  0  0  0  0  0
  151.6635  140.4307  155.6903 C   0  0  0  0  0  0  0  0  0  0  0  0
  150.2944  140.3338  155.3736 C   0  0  0  0  0  0  0  0  0  0  0  0
  146.8494  138.5408  151.2013 H   0  0  0  0  0  0  0  0  0  0  0  0
  146.3745  139.8476  152.2727 H   0  0  0  0  0  0  0  0  0  0  0  0
  146.1379  138.1608  152.7647 H   0  0  0  0  0  0  0  0  0  0  0  0
  148.5772  137.9224  152.6268 H   0  0  0  0  0  0  0  0  0  0  0  0
  147.7387  140.6551  155.7127 H   0  0  0  0  0  0  0  0  0  0  0  0
  146.5431  140.3778  154.4743 H   0  0  0  0  0  0  0  0  0  0  0  0
  148.0174  141.2541  154.0870 H   0  0  0  0  0  0  0  0  0  0  0  0
  147.7579  135.8381  155.1297 H   0  0  0  0  0  0  0  0  0  0  0  0
  148.7999  136.5520  153.9191 H   0  0  0  0  0  0  0  0  0  0  0  0
  150.5368  137.3657  153.6895 H   0  0  0  0  0  0  0  0  0  0  0  0
  152.8898  137.7163  154.3416 H   0  0  0  0  0  0  0  0  0  0  0  0
  152.0355  141.2737  156.2536 H   0  0  0  0  0  0  0  0  0  0  0  0
  149.6163  141.1086  155.7009 H   0  0  0  0  0  0  0  0  0  0  0  0
  148.7180  139.5224  152.3201 H   0  0  0  0  0  0  0  0  0  0  0  0
  1  2  1  0  0  0  0
  1 14  1  0  0  0  0
  1 15  1  0  0  0  0
  1 16  1  0  0  0  0
  2  3  1  0  0  0  0
  2 17  1  0  0  0  0
  2 27  1  0  0  0  0
  3  4  1  0  0  0  0
  3  5  1  0  0  0  0
  3  8  1  0  0  0  0
  4 18  1  0  0  0  0
  4 19  1  0  0  0  0
  4 20  1  0  0  0  0
  5  6  1  0  0  0  0
  5  7  2  0  0  0  0
  6 21  1  0  0  0  0
  6 22  1  0  0  0  0
  8 13  1  0  0  0  0
  8  9  2  0  0  0  0
  9 10  1  0  0  0  0
  9 23  1  0  0  0  0
 10 11  2  0  0  0  0
 10 24  1  0  0  0  0
 11 12  1  0  0  0  0
 12 13  2  0  0  0  0
 12 25  1  0  0  0  0
 13 26  1  0  0  0  0
M  CHG  1   2   1
M  END
> <s_m_source_file>
AV-unprocessed.smi

> <i_m_source_file_index>
912

> <i_lp_mmshare_version>
43012

> <i_f3d_flags>
0

> <s_epik_input>
W0NIM11bTkhdW0NAQF0oW0NIM10pKEMoPU8pW05IMl0pYzFbY0hdW2NIXW5bY0hdW2NIXTE=

> <s_epik_cmdline>
J2VwaWtfcHl0aG9uJywgJy1waCcsICc3LjAnLCAnLXRuJywgJzgnLCAnLW1hJywgJzIwMCcsICctbWV0YWxfYmluZGluZycsICctaW1hZScsICc8aW5maWxlLm1hZT4nLCAnLW9tYWUnLCAnPG91dGZpbGUubWFlPic=

> <r_epik_Ionization_Penalty>
0.8426

> <r_epik_Ionization_Penalty_Charging>
0.842363

> <r_epik_Ionization_Penalty_Neutral>
0.000236815

> <r_epik_State_Penalty>
0.498415

> <r_epik_Charging_Adjusted_Penalty>
1.34078

> <i_epik_Tot_Q>
1

> <i_epik_Tot_abs_Q>
1

> <r_epik_Metal_State_Penalty>
0.661775

> <b_epik_Metal_Only>
0

> <s_lp_Force_Field>
OPLS_2005

> <r_lp_Energy>
11.5285

> <b_lp_Chiralities_Consistent>
1

> <s_lp_Variant>
AV-unprocessed.smi:912-3

> <Gold.Version>
5.8.1

> <Gold.Id.Protein>
6NUR|6NUR_protein|mol2

> <Gold.PLP.Fitness>
38.0345

> <Gold.PLP.PLP>
-24.4746

> <Gold.PLP.part.hbond>
-4.3122

> <Gold.PLP.part.metal>
0.0000

> <Gold.PLP.part.buried>
-2.4896

> <Gold.PLP.part.nonpolar>
-18.3041

> <Gold.PLP.part.repulsive>
0.0806

> <Gold.PLP.ligand.clash>
0.0000

> <Gold.PLP.ligand.torsion>
0.4851

> <Gold.PLP.Chemscore.Hbond>
4.8393

> <Gold.PLP.Chemscore.CHOScore>
0.0000

> <Gold.PLP.Chemscore.Metal>
0.0000

> <Gold.Chemscore.Hbonds>
donor molecule, donor type, donor heavy atom, donor atom, acceptor molecule, acceptor atom, score
      L1  H     2    17       P1  7948  2.00
      L1  H     2    27       P1  7957  1.00
      L1  H     6    22       P1  7948  0.79
      P1  H  7997  8010       L1    11  0.93

> <Gold.PLP.Chemscore.Internal.Correction>
0.0123

> <Gold.Rescore>
     Score         DG    S(hbond)    S(metal)    S(lipo)     H(rot)  DE(clash)    DE(int)     intcor
     18.35     -19.02       3.53        0.00      55.03       1.83       0.01       0.66       ----

> <Gold.Chemscore.Fitness>
18.3546

> <Gold.Chemscore.DG>
-19.0156

> <Gold.Chemscore.ZeroCoef>
-5.4800

> <Gold.Chemscore.Hbond>
3.5251

> <Gold.Chemscore.Metal>
0.0000

> <Gold.Chemscore.Lipo>
55.0333

> <Gold.Chemscore.Internal_Hbond>
0.0000

> <Gold.Chemscore.DEClash>
0.0059

> <Gold.Chemscore.DEInternal>
0.6551

> <Gold.Chemscore.Rot>
1.8270

> <Gold.Chemscore.Internal.Correction>
   9.000000E+99

> <Gold.Chemscore.Hbonds>
donor molecule, donor type, donor heavy atom, donor atom, acceptor molecule, acceptor atom, score
      L1  H     2    17       P1  7948  1.00
      L1  H     2    27       P1  7957  0.92
      L1  H     6    22       P1  7948  0.74
      P1  H  7997  8010       L1    11  0.44

> <Gold.Chemscore.Hbond.Weighted>
-11.7738

> <Gold.Chemscore.Metal.Weighted>
-0.0000

> <Gold.Chemscore.Lipo.Weighted>
-6.4389

> <Gold.Chemscore.Internal_Hbond.Weighted>
0.0000

> <Gold.Chemscore.DEClash.Weighted>
0.0059

> <Gold.Chemscore.DEInternal.Weighted>
0.6551

> <Gold.Chemscore.Rot.Weighted>
4.6771

> <Gold.Chemscore.Internal.Correction.Weighted>
   9.000000E+99

> <Gold.Protein.RotatedTorsions>
[ 6907 6896 6895 6894 ] final  -15.86 input  -60.11 | X-H torsion
[ 7974 7965 7964 7962 ] final   -9.93 input  175.53 | X-H torsion
[ 8008 7997 7996 7995 ] final   89.38 input   59.86 | X-H torsion
[ 10167 10162 10161 10158 ] final -111.78 input  -65.29 | X-H torsion
[ 10718 10713 10712 10709 ] final   26.93 input   66.30 | X-H torsion
[ 10763 10752 10751 10750 ] final   47.03 input  -60.55 | X-H torsion
[ 11005 11000 10999 10996 ] final -144.71 input  -57.11 | X-H torsion

> <Gold.Protein.ActiveResidues>
 VAL166  LYS551  ARG553  GLY616  TRP617  ASP618  TYR619  PRO620  LYS621  CYS622 
 ASP623  PHE694  ASN695  SER759  ASP760  ASP761  ALA762  ILE779  LEU786  VAL792 
 PHE793  MET794  SER795  GLU796  ALA797  LYS798  CYS799  TRP800  GLU811  SER814 

> <Gold.Protein.RotatedAtoms>
  151.3174  135.0810  159.9293 H   0  0  0  0  0  0  0  0  0  0  0  0  # atno 6907 bound_to 6896
  152.5264  133.9673  159.7756 H   0  0  0  0  0  0  0  0  0  0  0  0  # atno 6908 bound_to 6896
  150.9988  133.6024  159.2728 H   0  0  0  0  0  0  0  0  0  0  0  0  # atno 6909 bound_to 6896
  146.2236  140.2689  142.8355 H   0  0  0  0  0  0  0  0  0  0  0  0  # atno 7974 bound_to 7965
  155.9993  140.3361  155.6829 H   0  0  0  0  0  0  0  0  0  0  0  0  # atno 8008 bound_to 7997
  155.6313  140.0685  157.2666 H   0  0  0  0  0  0  0  0  0  0  0  0  # atno 8009 bound_to 7997
  154.4244  140.1759  156.1463 H   0  0  0  0  0  0  0  0  0  0  0  0  # atno 8010 bound_to 7997
  140.1299  143.4370  152.1634 H   0  0  0  0  0  0  0  0  0  0  0  0  # atno 10167 bound_to 10162
  157.2134  130.6944  149.6238 H   0  0  0  0  0  0  0  0  0  0  0  0  # atno 10718 bound_to 10713
  152.9804  135.5989  154.3696 H   0  0  0  0  0  0  0  0  0  0  0  0  # atno 10763 bound_to 10752
  154.3370  135.2768  155.2444 H   0  0  0  0  0  0  0  0  0  0  0  0  # atno 10764 bound_to 10752
  154.4542  135.5982  153.6267 H   0  0  0  0  0  0  0  0  0  0  0  0  # atno 10765 bound_to 10752
  140.7997  134.2871  157.4983 H   0  0  0  0  0  0  0  0  0  0  0  0  # atno 11005 bound_to 11000
  144.9283  140.7946  143.5705 LP  0  0  0  0  0  0  0  0  0  0  0  0  # atno 17320 bound_to 7965
  145.2631  139.1984  143.4881 LP  0  0  0  0  0  0  0  0  0  0  0  0  # atno 17321 bound_to 7965
  139.5525  144.7348  151.4392 LP  0  0  0  0  0  0  0  0  0  0  0  0  # atno 17342 bound_to 10162
  140.6823  143.8054  150.7138 LP  0  0  0  0  0  0  0  0  0  0  0  0  # atno 17343 bound_to 10162
  155.9688  130.4544  150.5847 LP  0  0  0  0  0  0  0  0  0  0  0  0  # atno 17370 bound_to 10713
  157.3649  131.0756  151.1605 LP  0  0  0  0  0  0  0  0  0  0  0  0  # atno 17371 bound_to 10713
  139.8723  134.9422  156.3819 LP  0  0  0  0  0  0  0  0  0  0  0  0  # atno 17394 bound_to 11000
  140.9307  133.7581  156.0021 LP  0  0  0  0  0  0  0  0  0  0  0  0  # atno 17395 bound_to 11000

$$$$
