AV-unprocessed.smi:3270|AV-procd|sdf|12514|dock5
  -GOLD-   2272018423D 1   1.00000     0.00000
 Structure written by MMmdl.
 39 40  0  0  0  0  0  0  0  0  2 V2000
  147.0594  133.2154  153.3329 C   0  0  0  0  0  0  0  0  0  0  0  0
  146.5225  134.1028  152.1912 C   0  0  2  0  0  0  0  0  0  0  0  0
  145.7356  135.3260  152.6963 C   0  0  0  0  0  0  0  0  0  0  0  0
  144.6303  135.1935  153.2237 O   0  0  0  0  0  0  0  0  0  0  0  0
  146.3283  136.5216  152.5440 N   0  0  0  0  0  0  0  0  0  0  0  0
  145.7570  137.7973  152.9580 C   0  0  0  0  0  0  0  0  0  0  0  0
  146.8099  138.9214  152.9231 C   0  0  0  0  0  0  0  0  0  0  0  0
  146.3128  140.1897  153.5128 N   0  3  0  0  0  0  0  0  0  0  0  0
  146.0232  140.0579  154.9611 C   0  0  0  0  0  0  0  0  0  0  0  0
  145.4650  141.3757  155.5240 C   0  0  0  0  0  0  0  0  0  0  0  0
  146.3912  142.4266  155.2803 O   0  0  0  0  0  0  0  0  0  0  0  0
  146.6113  142.6279  153.8900 C   0  0  0  0  0  0  0  0  0  0  0  0
  147.2038  141.3516  153.2676 C   0  0  0  0  0  0  0  0  0  0  0  0
  145.7339  133.3326  151.2352 N   0  0  0  0  0  0  0  0  0  0  0  0
  146.1407  132.2593  150.4685 C   0  0  0  0  0  0  0  0  0  0  0  0
  145.0774  131.8745  149.7033 C   0  0  0  0  0  0  0  0  0  0  0  0
  144.0499  132.7875  150.0697 C   0  0  0  0  0  0  0  0  0  0  0  0
  144.4461  133.6612  150.9805 N   0  0  0  0  0  0  0  0  0  0  0  0
  147.7090  133.7820  154.0010 H   0  0  0  0  0  0  0  0  0  0  0  0
  147.6456  132.3856  152.9369 H   0  0  0  0  0  0  0  0  0  0  0  0
  146.2535  132.7923  153.9343 H   0  0  0  0  0  0  0  0  0  0  0  0
  147.3884  134.4913  151.6529 H   0  0  0  0  0  0  0  0  0  0  0  0
  147.2347  136.5479  152.0995 H   0  0  0  0  0  0  0  0  0  0  0  0
  144.9331  138.0147  152.2794 H   0  0  0  0  0  0  0  0  0  0  0  0
  145.3230  137.7078  153.9555 H   0  0  0  0  0  0  0  0  0  0  0  0
  147.6830  138.5936  153.4895 H   0  0  0  0  0  0  0  0  0  0  0  0
  147.1535  139.0978  151.9025 H   0  0  0  0  0  0  0  0  0  0  0  0
  145.3012  139.2568  155.1243 H   0  0  0  0  0  0  0  0  0  0  0  0
  146.9350  139.7814  155.4928 H   0  0  0  0  0  0  0  0  0  0  0  0
  144.4982  141.6133  155.0773 H   0  0  0  0  0  0  0  0  0  0  0  0
  145.3063  141.2876  156.5990 H   0  0  0  0  0  0  0  0  0  0  0  0
  145.6776  142.9049  153.3977 H   0  0  0  0  0  0  0  0  0  0  0  0
  147.2996  143.4632  153.7598 H   0  0  0  0  0  0  0  0  0  0  0  0
  148.1894  141.1543  153.6924 H   0  0  0  0  0  0  0  0  0  0  0  0
  147.3422  141.5095  152.1987 H   0  0  0  0  0  0  0  0  0  0  0  0
  147.1430  131.8617  150.5304 H   0  0  0  0  0  0  0  0  0  0  0  0
  145.0396  131.0653  148.9893 H   0  0  0  0  0  0  0  0  0  0  0  0
  143.0361  132.8432  149.7016 H   0  0  0  0  0  0  0  0  0  0  0  0
  145.4302  140.3915  153.0647 H   0  0  0  0  0  0  0  0  0  0  0  0
  1  2  1  0  0  0  0
  1 19  1  0  0  0  0
  1 20  1  0  0  0  0
  1 21  1  0  0  0  0
  2  3  1  0  0  0  0
  2 14  1  0  0  0  0
  2 22  1  0  0  0  0
  3  4  2  0  0  0  0
  3  5  1  0  0  0  0
  5  6  1  0  0  0  0
  5 23  1  0  0  0  0
  6  7  1  0  0  0  0
  6 24  1  0  0  0  0
  6 25  1  0  0  0  0
  7  8  1  0  0  0  0
  7 26  1  0  0  0  0
  7 27  1  0  0  0  0
  8 13  1  0  0  0  0
  8  9  1  0  0  0  0
  8 39  1  0  0  0  0
  9 10  1  0  0  0  0
  9 28  1  0  0  0  0
  9 29  1  0  0  0  0
 10 11  1  0  0  0  0
 10 30  1  0  0  0  0
 10 31  1  0  0  0  0
 11 12  1  0  0  0  0
 12 13  1  0  0  0  0
 12 32  1  0  0  0  0
 12 33  1  0  0  0  0
 13 34  1  0  0  0  0
 13 35  1  0  0  0  0
 14 18  1  0  0  0  0
 14 15  1  0  0  0  0
 15 16  2  0  0  0  0
 15 36  1  0  0  0  0
 16 17  1  0  0  0  0
 16 37  1  0  0  0  0
 17 18  2  0  0  0  0
 17 38  1  0  0  0  0
M  CHG  1   8   1
M  END
> <s_m_source_file>
AV-unprocessed.smi

> <i_m_source_file_index>
3270

> <i_lp_mmshare_version>
43012

> <i_f3d_flags>
0

> <s_epik_input>
bjFbY0hdW2NIXVtjSF1uMVtDQEhdKFtDSDNdKUMoPU8pW05IXVtDSDJdW0NIMl1OMltDSDJdW0NIMl1PW0NIMl1bQ0gyXTI=

> <s_epik_cmdline>
J2VwaWtfcHl0aG9uJywgJy1waCcsICc3LjAnLCAnLXRuJywgJzgnLCAnLW1hJywgJzIwMCcsICctbWV0YWxfYmluZGluZycsICctaW1hZScsICc8aW5maWxlLm1hZT4nLCAnLW9tYWUnLCAnPG91dGZpbGUubWFlPic=

> <r_lp_tautomer_probability>
1

> <r_epik_Ionization_Penalty>
0.73255

> <r_epik_Ionization_Penalty_Charging>
0.732531

> <r_epik_Ionization_Penalty_Neutral>
1.96965e-05

> <r_epik_State_Penalty>
0.757939

> <r_epik_Charging_Adjusted_Penalty>
1.49047

> <i_epik_Tot_Q>
1

> <i_epik_Tot_abs_Q>
1

> <r_epik_Metal_State_Penalty>
0.757952

> <b_epik_Metal_Only>
0

> <s_lp_Force_Field>
OPLS_2005

> <r_lp_Energy>
19.6504

> <b_lp_Chiralities_Consistent>
1

> <s_lp_Variant>
AV-unprocessed.smi:3270-3

> <Gold.Version>
5.8.1

> <Gold.Id.Protein>
6NUR|6NUR_protein|mol2

> <Gold.PLP.Fitness>
45.2107

> <Gold.PLP.PLP>
-30.6448

> <Gold.PLP.part.hbond>
-2.0000

> <Gold.PLP.part.metal>
0.0000

> <Gold.PLP.part.buried>
-5.0404

> <Gold.PLP.part.nonpolar>
-24.2799

> <Gold.PLP.part.repulsive>
0.4024

> <Gold.PLP.ligand.clash>
0.0000

> <Gold.PLP.ligand.torsion>
0.2803

> <Gold.PLP.Chemscore.Hbond>
3.0000

> <Gold.PLP.Chemscore.CHOScore>
2.0000

> <Gold.PLP.Chemscore.Metal>
0.0000

> <Gold.Chemscore.Hbonds>
donor molecule, donor type, donor heavy atom, donor atom, acceptor molecule, acceptor atom, score
      L1  H     5    23       P1  7948  1.00
      L1  H     8    39       P1 10175  2.00
      L1  C    15    36       P1 10747  1.00
      L1  C    17    38       P1 10186  0.89

> <Gold.PLP.Chemscore.Internal.Correction>
0.1265

> <Gold.Rescore>
     Score         DG    S(hbond)    S(metal)    S(lipo)     H(rot)  DE(clash)    DE(int)     intcor
     14.06     -15.75       1.97        0.00      73.35       1.91       0.04       1.65       ----

> <Gold.Chemscore.Fitness>
14.0634

> <Gold.Chemscore.DG>
-15.7474

> <Gold.Chemscore.ZeroCoef>
-5.4800

> <Gold.Chemscore.Hbond>
1.9691

> <Gold.Chemscore.Metal>
0.0000

> <Gold.Chemscore.Lipo>
73.3547

> <Gold.Chemscore.Internal_Hbond>
0.0000

> <Gold.Chemscore.DEClash>
0.0388

> <Gold.Chemscore.DEInternal>
1.6452

> <Gold.Chemscore.Rot>
1.9109

> <Gold.Chemscore.Internal.Correction>
   9.000000E+99

> <Gold.Chemscore.Hbonds>
donor molecule, donor type, donor heavy atom, donor atom, acceptor molecule, acceptor atom, score
      L1  H     5    23       P1  7948  0.99
      L1  H     8    39       P1 10175  0.94

> <Gold.Chemscore.Hbond.Weighted>
-6.5768

> <Gold.Chemscore.Metal.Weighted>
-0.0000

> <Gold.Chemscore.Lipo.Weighted>
-8.5825

> <Gold.Chemscore.Internal_Hbond.Weighted>
0.0000

> <Gold.Chemscore.DEClash.Weighted>
0.0388

> <Gold.Chemscore.DEInternal.Weighted>
1.6452

> <Gold.Chemscore.Rot.Weighted>
4.8919

> <Gold.Chemscore.Internal.Correction.Weighted>
   9.000000E+99

> <Gold.Protein.RotatedTorsions>
[ 6907 6896 6895 6894 ] final  -29.04 input  -60.11 | X-H torsion
[ 7974 7965 7964 7962 ] final    4.78 input  175.53 | X-H torsion
[ 8008 7997 7996 7995 ] final   87.87 input   59.86 | X-H torsion
[ 10167 10162 10161 10158 ] final -144.48 input  -65.29 | X-H torsion
[ 10718 10713 10712 10709 ] final   56.71 input   66.30 | X-H torsion
[ 10763 10752 10751 10750 ] final   73.88 input  -60.55 | X-H torsion
[ 11005 11000 10999 10996 ] final  129.33 input  -57.11 | X-H torsion

> <Gold.Protein.ActiveResidues>
 VAL166  LYS551  ARG553  GLY616  TRP617  ASP618  TYR619  PRO620  LYS621  CYS622 
 ASP623  PHE694  ASN695  SER759  ASP760  ASP761  ALA762  ILE779  LEU786  VAL792 
 PHE793  MET794  SER795  GLU796  ALA797  LYS798  CYS799  TRP800  GLU811  SER814 

> <Gold.Protein.RotatedAtoms>
  151.1247  135.0098  159.8554 H   0  0  0  0  0  0  0  0  0  0  0  0  # atno 6907 bound_to 6896
  152.5449  134.1681  159.8595 H   0  0  0  0  0  0  0  0  0  0  0  0  # atno 6908 bound_to 6896
  151.1742  133.4720  159.2627 H   0  0  0  0  0  0  0  0  0  0  0  0  # atno 6909 bound_to 6896
  146.2443  140.0484  142.8377 H   0  0  0  0  0  0  0  0  0  0  0  0  # atno 7974 bound_to 7965
  155.9807  140.3377  155.6661 H   0  0  0  0  0  0  0  0  0  0  0  0  # atno 8008 bound_to 7997
  155.6552  140.0710  157.2591 H   0  0  0  0  0  0  0  0  0  0  0  0  # atno 8009 bound_to 7997
  154.4191  140.1718  156.1704 H   0  0  0  0  0  0  0  0  0  0  0  0  # atno 8010 bound_to 7997
  139.7895  143.7987  152.2648 H   0  0  0  0  0  0  0  0  0  0  0  0  # atno 10167 bound_to 10162
  157.5453  130.8727  149.8882 H   0  0  0  0  0  0  0  0  0  0  0  0  # atno 10718 bound_to 10713
  153.0550  135.5046  154.7959 H   0  0  0  0  0  0  0  0  0  0  0  0  # atno 10763 bound_to 10752
  154.6792  135.2965  154.9639 H   0  0  0  0  0  0  0  0  0  0  0  0  # atno 10764 bound_to 10752
  154.0430  135.6714  153.4845 H   0  0  0  0  0  0  0  0  0  0  0  0  # atno 10765 bound_to 10752
  139.9609  134.9602  156.9132 H   0  0  0  0  0  0  0  0  0  0  0  0  # atno 11005 bound_to 11000
  145.1007  140.9343  143.4714 LP  0  0  0  0  0  0  0  0  0  0  0  0  # atno 17320 bound_to 7965
  145.0676  139.3056  143.5848 LP  0  0  0  0  0  0  0  0  0  0  0  0  # atno 17321 bound_to 7965
  139.8074  144.7350  150.9743 LP  0  0  0  0  0  0  0  0  0  0  0  0  # atno 17342 bound_to 10162
  140.7820  143.4285  151.0731 LP  0  0  0  0  0  0  0  0  0  0  0  0  # atno 17343 bound_to 10162
  156.0531  130.3714  150.1155 LP  0  0  0  0  0  0  0  0  0  0  0  0  # atno 17370 bound_to 10713
  156.9332  130.9720  151.3529 LP  0  0  0  0  0  0  0  0  0  0  0  0  # atno 17371 bound_to 10713
  140.5502  134.0634  155.7367 LP  0  0  0  0  0  0  0  0  0  0  0  0  # atno 17394 bound_to 11000
  141.1286  133.9341  157.2583 LP  0  0  0  0  0  0  0  0  0  0  0  0  # atno 17395 bound_to 11000

$$$$
