AV-unprocessed.smi:646|AV-procd|sdf|3165|dock8
  -GOLD-   22720 0 83D 1   1.00000     0.00000
 Structure written by MMmdl.
 44 45  0  0  0  0  0  0  0  0  1 V2000
  144.9209  135.6822  152.3485 C   0  0  0  0  0  0  0  0  0  0  0  0
  145.3435  134.3748  152.7176 O   0  0  0  0  0  0  0  0  0  0  0  0
  145.2375  133.3426  151.7272 C   0  0  1  0  0  0  0  0  0  0  0  0
  143.7923  133.2379  151.2222 C   0  0  0  0  0  0  0  0  0  0  0  0
  146.3845  133.4671  150.7065 C   0  0  0  0  0  0  0  0  0  0  0  0
  147.2486  132.5898  151.6146 C   0  0  1  0  0  0  0  0  0  0  0  0
  148.0716  133.4048  152.5065 N   0  0  0  0  0  0  0  0  0  0  0  0
  148.7906  132.9381  153.5377 C   0  0  0  0  0  0  0  0  0  0  0  0
  148.8472  131.7472  153.8424 O   0  0  0  0  0  0  0  0  0  0  0  0
  149.5501  133.9775  154.3639 C   0  0  0  0  0  0  0  0  0  0  0  0
  149.7937  133.4597  155.7591 C   0  0  0  0  0  0  0  0  0  0  0  0
  150.4928  132.2796  156.1423 C   0  0  0  0  0  0  0  0  0  0  0  0
  151.1579  131.2646  155.2580 C   0  0  0  0  0  0  0  0  0  0  0  0
  150.5229  132.1271  157.4555 N   0  0  0  0  0  0  0  0  0  0  0  0
  149.8327  133.2225  157.9837 O   0  0  0  0  0  0  0  0  0  0  0  0
  149.4108  134.0017  156.9557 C   0  0  0  0  0  0  0  0  0  0  0  0
  148.6565  135.2351  157.3213 C   0  0  0  0  0  0  0  0  0  0  0  0
  145.9459  132.0571  152.2685 C   0  0  0  0  0  0  0  0  0  0  0  0
  145.9302  131.8384  153.7907 C   0  0  0  0  0  0  0  0  0  0  0  0
  145.4706  130.7269  151.6651 C   0  0  0  0  0  0  0  0  0  0  0  0
  145.1930  136.3798  153.1400 H   0  0  0  0  0  0  0  0  0  0  0  0
  143.8390  135.7385  152.2317 H   0  0  0  0  0  0  0  0  0  0  0  0
  145.3916  136.0280  151.4287 H   0  0  0  0  0  0  0  0  0  0  0  0
  143.6567  132.3917  150.5495 H   0  0  0  0  0  0  0  0  0  0  0  0
  143.4929  134.1202  150.6576 H   0  0  0  0  0  0  0  0  0  0  0  0
  143.0915  133.1142  152.0481 H   0  0  0  0  0  0  0  0  0  0  0  0
  146.1540  132.9785  149.7585 H   0  0  0  0  0  0  0  0  0  0  0  0
  146.7736  134.4709  150.5356 H   0  0  0  0  0  0  0  0  0  0  0  0
  147.8057  131.8338  151.0583 H   0  0  0  0  0  0  0  0  0  0  0  0
  148.0793  134.3997  152.3345 H   0  0  0  0  0  0  0  0  0  0  0  0
  150.4856  134.2110  153.8546 H   0  0  0  0  0  0  0  0  0  0  0  0
  148.9780  134.9058  154.3833 H   0  0  0  0  0  0  0  0  0  0  0  0
  150.4507  130.8535  154.5376 H   0  0  0  0  0  0  0  0  0  0  0  0
  151.5682  130.4326  155.8314 H   0  0  0  0  0  0  0  0  0  0  0  0
  151.9763  131.7163  154.6970 H   0  0  0  0  0  0  0  0  0  0  0  0
  148.5601  135.9051  156.4669 H   0  0  0  0  0  0  0  0  0  0  0  0
  149.1665  135.7790  158.1166 H   0  0  0  0  0  0  0  0  0  0  0  0
  147.6545  134.9852  157.6697 H   0  0  0  0  0  0  0  0  0  0  0  0
  146.5956  131.0250  154.0819 H   0  0  0  0  0  0  0  0  0  0  0  0
  144.9303  131.5879  154.1462 H   0  0  0  0  0  0  0  0  0  0  0  0
  146.2503  132.7191  154.3472 H   0  0  0  0  0  0  0  0  0  0  0  0
  146.1272  129.9038  151.9488 H   0  0  0  0  0  0  0  0  0  0  0  0
  145.4552  130.7554  150.5753 H   0  0  0  0  0  0  0  0  0  0  0  0
  144.4641  130.4692  151.9965 H   0  0  0  0  0  0  0  0  0  0  0  0
  1  2  1  0  0  0  0
  1 21  1  0  0  0  0
  1 22  1  0  0  0  0
  1 23  1  0  0  0  0
  2  3  1  0  0  0  0
  3 18  1  0  0  0  0
  3  4  1  0  0  0  0
  3  5  1  0  0  0  0
  4 24  1  0  0  0  0
  4 25  1  0  0  0  0
  4 26  1  0  0  0  0
  5  6  1  0  0  0  0
  5 27  1  0  0  0  0
  5 28  1  0  0  0  0
  6  7  1  0  0  0  0
  6 18  1  0  0  0  0
  6 29  1  0  0  0  0
  7  8  1  0  0  0  0
  7 30  1  0  0  0  0
  8  9  2  0  0  0  0
  8 10  1  0  0  0  0
 10 11  1  0  0  0  0
 10 31  1  0  0  0  0
 10 32  1  0  0  0  0
 11 16  2  0  0  0  0
 11 12  1  0  0  0  0
 12 13  1  0  0  0  0
 12 14  2  0  0  0  0
 13 33  1  0  0  0  0
 13 34  1  0  0  0  0
 13 35  1  0  0  0  0
 14 15  1  0  0  0  0
 15 16  1  0  0  0  0
 16 17  1  0  0  0  0
 17 36  1  0  0  0  0
 17 37  1  0  0  0  0
 17 38  1  0  0  0  0
 18 19  1  0  0  0  0
 18 20  1  0  0  0  0
 19 39  1  0  0  0  0
 19 40  1  0  0  0  0
 19 41  1  0  0  0  0
 20 42  1  0  0  0  0
 20 43  1  0  0  0  0
 20 44  1  0  0  0  0
M  END
> <s_m_source_file>
AV-unprocessed.smi

> <i_m_source_file_index>
646

> <i_lp_mmshare_version>
43012

> <i_f3d_flags>
0

> <s_epik_input>
W0NIM11PW0NAQF0xKFtDSDNdKVtDSDJdW0NASF0oQzEoW0NIM10pW0NIM10pW05IXUMoPU8pW0NIMl1jMmMoW0NIM10pbm9jMltDSDNd

> <s_epik_cmdline>
J2VwaWtfcHl0aG9uJywgJy1waCcsICc3LjAnLCAnLXRuJywgJzgnLCAnLW1hJywgJzIwMCcsICctbWV0YWxfYmluZGluZycsICctaW1hZScsICc8aW5maWxlLm1hZT4nLCAnLW9tYWUnLCAnPG91dGZpbGUubWFlPic=

> <r_lp_tautomer_probability>
1

> <r_epik_Ionization_Penalty>
2.13169e-08

> <r_epik_Ionization_Penalty_Charging>
0

> <r_epik_Ionization_Penalty_Neutral>
2.13169e-08

> <r_epik_State_Penalty>
-0

> <r_epik_Charging_Adjusted_Penalty>
0

> <i_epik_Tot_Q>
0

> <i_epik_Tot_abs_Q>
0

> <r_epik_Metal_State_Penalty>
-0

> <b_epik_Metal_Only>
0

> <s_lp_Force_Field>
OPLS_2005

> <r_lp_Energy>
17.7516

> <b_lp_Chiralities_Consistent>
1

> <s_lp_Variant>
AV-unprocessed.smi:646-1

> <Gold.Version>
5.8.1

> <Gold.Id.Protein>
6NUR|6NUR_protein|mol2

> <Gold.PLP.Fitness>
32.8034

> <Gold.PLP.PLP>
-27.6614

> <Gold.PLP.part.hbond>
-2.3283

> <Gold.PLP.part.metal>
0.0000

> <Gold.PLP.part.buried>
-2.1278

> <Gold.PLP.part.nonpolar>
-23.7089

> <Gold.PLP.part.repulsive>
0.1668

> <Gold.PLP.ligand.clash>
0.0000

> <Gold.PLP.ligand.torsion>
0.5497

> <Gold.PLP.Chemscore.Hbond>
1.9500

> <Gold.PLP.Chemscore.CHOScore>
0.0000

> <Gold.PLP.Chemscore.Metal>
0.0000

> <Gold.Chemscore.Hbonds>
donor molecule, donor type, donor heavy atom, donor atom, acceptor molecule, acceptor atom, score
      L1  H     7    30       P1  7948  0.94
      P1  H  6896  6907       L1    15  1.00

> <Gold.PLP.Chemscore.Internal.Correction>
0.3913

> <Gold.Rescore>
     Score         DG    S(hbond)    S(metal)    S(lipo)     H(rot)  DE(clash)    DE(int)     intcor
     10.07     -14.93       1.43        0.00      72.67       1.49       1.45       3.40       ----

> <Gold.Chemscore.Fitness>
10.0727

> <Gold.Chemscore.DG>
-14.9270

> <Gold.Chemscore.ZeroCoef>
-5.4800

> <Gold.Chemscore.Hbond>
1.4271

> <Gold.Chemscore.Metal>
0.0000

> <Gold.Chemscore.Lipo>
72.6677

> <Gold.Chemscore.Internal_Hbond>
0.0000

> <Gold.Chemscore.DEClash>
1.4493

> <Gold.Chemscore.DEInternal>
3.4050

> <Gold.Chemscore.Rot>
1.4928

> <Gold.Chemscore.Internal.Correction>
   9.000000E+99

> <Gold.Chemscore.Hbonds>
donor molecule, donor type, donor heavy atom, donor atom, acceptor molecule, acceptor atom, score
      L1  H     7    30       P1  7948  0.19
      P1  H  6896  6907       L1    15  0.40

> <Gold.Chemscore.Hbond.Weighted>
-4.7665

> <Gold.Chemscore.Metal.Weighted>
-0.0000

> <Gold.Chemscore.Lipo.Weighted>
-8.5021

> <Gold.Chemscore.Internal_Hbond.Weighted>
0.0000

> <Gold.Chemscore.DEClash.Weighted>
1.4493

> <Gold.Chemscore.DEInternal.Weighted>
3.4050

> <Gold.Chemscore.Rot.Weighted>
3.8217

> <Gold.Chemscore.Internal.Correction.Weighted>
   9.000000E+99

> <Gold.Protein.RotatedTorsions>
[ 6907 6896 6895 6894 ] final -123.65 input  -60.11 | X-H torsion
[ 7974 7965 7964 7962 ] final  -83.92 input  175.53 | X-H torsion
[ 8008 7997 7996 7995 ] final  -73.98 input   59.86 | X-H torsion
[ 10167 10162 10161 10158 ] final  107.25 input  -65.29 | X-H torsion
[ 10718 10713 10712 10709 ] final  -44.80 input   66.30 | X-H torsion
[ 10763 10752 10751 10750 ] final    5.38 input  -60.55 | X-H torsion
[ 11005 11000 10999 10996 ] final  -10.13 input  -57.11 | X-H torsion

> <Gold.Protein.ActiveResidues>
 VAL166  LYS551  ARG553  GLY616  TRP617  ASP618  TYR619  PRO620  LYS621  CYS622 
 ASP623  PHE694  ASN695  SER759  ASP760  ASP761  ALA762  ILE779  LEU786  VAL792 
 PHE793  MET794  SER795  GLU796  ALA797  LYS798  CYS799  TRP800  GLU811  SER814 

> <Gold.Protein.RotatedAtoms>
  150.8691  133.7531  159.2966 H   0  0  0  0  0  0  0  0  0  0  0  0  # atno 6907 bound_to 6896
  151.5149  135.1064  159.9873 H   0  0  0  0  0  0  0  0  0  0  0  0  # atno 6908 bound_to 6896
  152.4682  133.7926  159.6966 H   0  0  0  0  0  0  0  0  0  0  0  0  # atno 6909 bound_to 6896
  145.5135  140.9538  143.1694 H   0  0  0  0  0  0  0  0  0  0  0  0  # atno 7974 bound_to 7965
  154.5292  140.0769  156.8314 H   0  0  0  0  0  0  0  0  0  0  0  0  # atno 8008 bound_to 7997
  155.3411  140.3407  155.4221 H   0  0  0  0  0  0  0  0  0  0  0  0  # atno 8009 bound_to 7997
  156.1763  140.1637  156.8342 H   0  0  0  0  0  0  0  0  0  0  0  0  # atno 8010 bound_to 7997
  139.6942  144.7103  151.1295 H   0  0  0  0  0  0  0  0  0  0  0  0  # atno 10167 bound_to 10162
  156.2348  130.4175  149.8831 H   0  0  0  0  0  0  0  0  0  0  0  0  # atno 10718 bound_to 10713
  153.2601  135.6922  153.7587 H   0  0  0  0  0  0  0  0  0  0  0  0  # atno 10763 bound_to 10752
  153.6650  135.3354  155.3138 H   0  0  0  0  0  0  0  0  0  0  0  0  # atno 10764 bound_to 10752
  154.8427  135.4486  154.1588 H   0  0  0  0  0  0  0  0  0  0  0  0  # atno 10765 bound_to 10752
  140.7415  133.8666  155.8971 H   0  0  0  0  0  0  0  0  0  0  0  0  # atno 11005 bound_to 11000
  144.7714  139.6726  143.7193 LP  0  0  0  0  0  0  0  0  0  0  0  0  # atno 17320 bound_to 7965
  146.2151  139.5535  142.9655 LP  0  0  0  0  0  0  0  0  0  0  0  0  # atno 17321 bound_to 7965
  140.7691  143.5515  150.9199 LP  0  0  0  0  0  0  0  0  0  0  0  0  # atno 17342 bound_to 10162
  139.9194  143.6624  152.3100 LP  0  0  0  0  0  0  0  0  0  0  0  0  # atno 17343 bound_to 10162
  156.6433  130.8713  151.3518 LP  0  0  0  0  0  0  0  0  0  0  0  0  # atno 17370 bound_to 10713
  157.7149  130.9485  150.1220 LP  0  0  0  0  0  0  0  0  0  0  0  0  # atno 17371 bound_to 10713
  140.9832  134.1377  157.4475 LP  0  0  0  0  0  0  0  0  0  0  0  0  # atno 17394 bound_to 11000
  139.8805  135.0017  156.6084 LP  0  0  0  0  0  0  0  0  0  0  0  0  # atno 17395 bound_to 11000

$$$$
