AV-unprocessed.smi:3153|AV-procd|sdf|12020|dock5
  -GOLD-   2272017433D 1   1.00000     0.00000
 Structure written by MMmdl.
 37 38  0  0  0  0  0  0  0  0  1 V2000
  149.6039  140.8053  153.4162 O   0  0  0  0  0  0  0  0  0  0  0  0
  149.1503  139.8473  154.3563 C   0  0  0  0  0  0  0  0  0  0  0  0
  147.7749  139.3414  153.8640 C   0  0  0  0  0  0  0  0  0  0  0  0
  147.8303  138.7737  152.5177 N   0  0  0  0  0  0  0  0  0  0  0  0
  146.5138  138.4880  151.9550 C   0  0  0  0  0  0  0  0  0  0  0  0
  145.7307  137.4961  152.8303 C   0  0  0  0  0  0  0  0  0  0  0  0
  145.2246  136.3665  152.0710 N   0  0  0  0  0  0  0  0  0  0  0  0
  145.9011  135.5605  151.1796 C   0  0  0  0  0  0  0  0  0  0  0  0
  145.0132  134.6318  150.7171 C   0  0  0  0  0  0  0  0  0  0  0  0
  143.8023  134.9575  151.3899 C   0  0  0  0  0  0  0  0  0  0  0  0
  143.9315  135.9974  152.1981 N   0  0  0  0  0  0  0  0  0  0  0  0
  150.1602  138.6747  154.3508 C   0  0  0  0  0  0  0  0  0  0  0  0
  151.5385  139.0605  154.9173 C   0  0  0  0  0  0  0  0  0  0  0  0
  151.4156  139.6571  156.3259 C   0  0  0  0  0  0  0  0  0  0  0  0
  150.4628  140.8605  156.3277 C   0  0  0  0  0  0  0  0  0  0  0  0
  149.0791  140.4847  155.7676 C   0  0  0  0  0  0  0  0  0  0  0  0
  149.3171  140.5389  152.5565 H   0  0  0  0  0  0  0  0  0  0  0  0
  147.3877  138.5991  154.5638 H   0  0  0  0  0  0  0  0  0  0  0  0
  147.0640  140.1686  153.8741 H   0  0  0  0  0  0  0  0  0  0  0  0
  148.3811  137.9213  152.5334 H   0  0  0  0  0  0  0  0  0  0  0  0
  145.9425  139.4107  151.8453 H   0  0  0  0  0  0  0  0  0  0  0  0
  146.6252  138.0725  150.9529 H   0  0  0  0  0  0  0  0  0  0  0  0
  146.3735  137.1135  153.6242 H   0  0  0  0  0  0  0  0  0  0  0  0
  144.8943  137.9964  153.3205 H   0  0  0  0  0  0  0  0  0  0  0  0
  146.9465  135.7116  150.9536 H   0  0  0  0  0  0  0  0  0  0  0  0
  145.2000  133.8405  150.0063 H   0  0  0  0  0  0  0  0  0  0  0  0
  142.8399  134.4727  151.3154 H   0  0  0  0  0  0  0  0  0  0  0  0
  149.7599  137.8536  154.9474 H   0  0  0  0  0  0  0  0  0  0  0  0
  150.2771  138.2809  153.3402 H   0  0  0  0  0  0  0  0  0  0  0  0
  152.1862  138.1838  154.9425 H   0  0  0  0  0  0  0  0  0  0  0  0
  152.0226  139.7798  154.2557 H   0  0  0  0  0  0  0  0  0  0  0  0
  151.0491  138.8972  157.0170 H   0  0  0  0  0  0  0  0  0  0  0  0
  152.3982  139.9592  156.6893 H   0  0  0  0  0  0  0  0  0  0  0  0
  150.3581  141.2471  157.3416 H   0  0  0  0  0  0  0  0  0  0  0  0
  150.8934  141.6686  155.7352 H   0  0  0  0  0  0  0  0  0  0  0  0
  148.4466  141.3731  155.7587 H   0  0  0  0  0  0  0  0  0  0  0  0
  148.6032  139.7820  156.4528 H   0  0  0  0  0  0  0  0  0  0  0  0
  1  2  1  0  0  0  0
  1 17  1  0  0  0  0
  2 16  1  0  0  0  0
  2  3  1  0  0  0  0
  2 12  1  0  0  0  0
  3  4  1  0  0  0  0
  3 18  1  0  0  0  0
  3 19  1  0  0  0  0
  4  5  1  0  0  0  0
  4 20  1  0  0  0  0
  5  6  1  0  0  0  0
  5 21  1  0  0  0  0
  5 22  1  0  0  0  0
  6  7  1  0  0  0  0
  6 23  1  0  0  0  0
  6 24  1  0  0  0  0
  7 11  1  0  0  0  0
  7  8  1  0  0  0  0
  8  9  2  0  0  0  0
  8 25  1  0  0  0  0
  9 10  1  0  0  0  0
  9 26  1  0  0  0  0
 10 11  2  0  0  0  0
 10 27  1  0  0  0  0
 12 13  1  0  0  0  0
 12 28  1  0  0  0  0
 12 29  1  0  0  0  0
 13 14  1  0  0  0  0
 13 30  1  0  0  0  0
 13 31  1  0  0  0  0
 14 15  1  0  0  0  0
 14 32  1  0  0  0  0
 14 33  1  0  0  0  0
 15 16  1  0  0  0  0
 15 34  1  0  0  0  0
 15 35  1  0  0  0  0
 16 36  1  0  0  0  0
 16 37  1  0  0  0  0
M  END
> <s_m_source_file>
AV-unprocessed.smi

> <i_m_source_file_index>
3153

> <i_lp_mmshare_version>
43012

> <i_f3d_flags>
0

> <s_epik_input>
W0NIMl0xW0NIMl1bQ0gyXVtDSDJdW0NIMl1DMShbT0hdKVtDSDJdW05IXVtDSDJdW0NIMl1uMltjSF1bY0hdW2NIXW4y

> <s_epik_cmdline>
J2VwaWtfcHl0aG9uJywgJy1waCcsICc3LjAnLCAnLXRuJywgJzgnLCAnLW1hJywgJzIwMCcsICctbWV0YWxfYmluZGluZycsICctaW1hZScsICc8aW5maWxlLm1hZT4nLCAnLW9tYWUnLCAnPG91dGZpbGUubWFlPic=

> <r_lp_tautomer_probability>
1

> <r_epik_Ionization_Penalty>
1.91265

> <r_epik_Ionization_Penalty_Charging>
0

> <r_epik_Ionization_Penalty_Neutral>
1.91265

> <r_epik_State_Penalty>
2.0334

> <r_epik_Charging_Adjusted_Penalty>
2.0334

> <i_epik_Tot_Q>
0

> <i_epik_Tot_abs_Q>
0

> <r_epik_Metal_State_Penalty>
2.03214

> <b_epik_Metal_Only>
0

> <s_lp_Force_Field>
OPLS_2005

> <r_lp_Energy>
22.2281

> <b_lp_Chiralities_Consistent>
1

> <s_lp_Variant>
AV-unprocessed.smi:3153-2

> <Gold.Version>
5.8.1

> <Gold.Id.Protein>
6NUR|6NUR_protein|mol2

> <Gold.PLP.Fitness>
45.3732

> <Gold.PLP.PLP>
-34.1323

> <Gold.PLP.part.hbond>
-4.5674

> <Gold.PLP.part.metal>
0.0000

> <Gold.PLP.part.buried>
-4.0724

> <Gold.PLP.part.nonpolar>
-27.1212

> <Gold.PLP.part.repulsive>
0.1467

> <Gold.PLP.ligand.clash>
0.0000

> <Gold.PLP.ligand.torsion>
0.4995

> <Gold.PLP.Chemscore.Hbond>
2.3200

> <Gold.PLP.Chemscore.CHOScore>
1.7425

> <Gold.PLP.Chemscore.Metal>
0.0000

> <Gold.Chemscore.Hbonds>
donor molecule, donor type, donor heavy atom, donor atom, acceptor molecule, acceptor atom, score
      L1  H     1    17       P1  7957  0.94
      L1  H     4    20       P1  7948  1.00
      P1  H  7989  7998       L1     1  0.30
      L1  C     8    25       P1  7948  1.00
      L1  C    10    27       P1 10186  0.74

> <Gold.PLP.Chemscore.Internal.Correction>
0.0525

> <Gold.Rescore>
     Score         DG    S(hbond)    S(metal)    S(lipo)     H(rot)  DE(clash)    DE(int)     intcor
     16.03     -16.58       2.36        0.00      75.16       2.18       0.05       0.51       ----

> <Gold.Chemscore.Fitness>
16.0295

> <Gold.Chemscore.DG>
-16.5846

> <Gold.Chemscore.ZeroCoef>
-5.4800

> <Gold.Chemscore.Hbond>
2.3595

> <Gold.Chemscore.Metal>
0.0000

> <Gold.Chemscore.Lipo>
75.1593

> <Gold.Chemscore.Internal_Hbond>
0.0000

> <Gold.Chemscore.DEClash>
0.0464

> <Gold.Chemscore.DEInternal>
0.5087

> <Gold.Chemscore.Rot>
2.1756

> <Gold.Chemscore.Internal.Correction>
   9.000000E+99

> <Gold.Chemscore.Hbonds>
donor molecule, donor type, donor heavy atom, donor atom, acceptor molecule, acceptor atom, score
      L1  H     1    17       P1  7957  0.86
      L1  H     4    20       P1  7948  0.97
      P1  H  7989  7998       L1     1  0.15

> <Gold.Chemscore.Hbond.Weighted>
-7.8806

> <Gold.Chemscore.Metal.Weighted>
-0.0000

> <Gold.Chemscore.Lipo.Weighted>
-8.7936

> <Gold.Chemscore.Internal_Hbond.Weighted>
0.0000

> <Gold.Chemscore.DEClash.Weighted>
0.0464

> <Gold.Chemscore.DEInternal.Weighted>
0.5087

> <Gold.Chemscore.Rot.Weighted>
5.5696

> <Gold.Chemscore.Internal.Correction.Weighted>
   9.000000E+99

> <Gold.Protein.RotatedTorsions>
[ 6907 6896 6895 6894 ] final  140.16 input  -60.11 | X-H torsion
[ 7974 7965 7964 7962 ] final  -70.65 input  175.53 | X-H torsion
[ 8008 7997 7996 7995 ] final  118.29 input   59.86 | X-H torsion
[ 10167 10162 10161 10158 ] final -163.06 input  -65.29 | X-H torsion
[ 10718 10713 10712 10709 ] final  -67.28 input   66.30 | X-H torsion
[ 10763 10752 10751 10750 ] final   22.07 input  -60.55 | X-H torsion
[ 11005 11000 10999 10996 ] final  102.33 input  -57.11 | X-H torsion

> <Gold.Protein.ActiveResidues>
 VAL166  LYS551  ARG553  GLY616  TRP617  ASP618  TYR619  PRO620  LYS621  CYS622 
 ASP623  PHE694  ASN695  SER759  ASP760  ASP761  ALA762  ILE779  LEU786  VAL792 
 PHE793  MET794  SER795  GLU796  ALA797  LYS798  CYS799  TRP800  GLU811  SER814 

> <Gold.Protein.RotatedAtoms>
  152.2464  133.5178  159.5299 H   0  0  0  0  0  0  0  0  0  0  0  0  # atno 6907 bound_to 6896
  150.7080  134.1020  159.3978 H   0  0  0  0  0  0  0  0  0  0  0  0  # atno 6908 bound_to 6896
  151.8940  135.0405  160.0551 H   0  0  0  0  0  0  0  0  0  0  0  0  # atno 6909 bound_to 6896
  145.6882  140.9163  143.0796 H   0  0  0  0  0  0  0  0  0  0  0  0  # atno 7974 bound_to 7965
  156.2539  140.2878  156.0811 H   0  0  0  0  0  0  0  0  0  0  0  0  # atno 8008 bound_to 7997
  155.1565  140.0398  157.2850 H   0  0  0  0  0  0  0  0  0  0  0  0  # atno 8009 bound_to 7997
  154.6423  140.2525  155.7314 H   0  0  0  0  0  0  0  0  0  0  0  0  # atno 8010 bound_to 7997
  139.6347  144.0372  152.2045 H   0  0  0  0  0  0  0  0  0  0  0  0  # atno 10167 bound_to 10162
  156.0566  130.4275  150.1831 H   0  0  0  0  0  0  0  0  0  0  0  0  # atno 10718 bound_to 10713
  153.0945  135.6656  153.9790 H   0  0  0  0  0  0  0  0  0  0  0  0  # atno 10763 bound_to 10752
  153.9378  135.2997  155.3445 H   0  0  0  0  0  0  0  0  0  0  0  0  # atno 10764 bound_to 10752
  154.7362  135.5100  153.9119 H   0  0  0  0  0  0  0  0  0  0  0  0  # atno 10765 bound_to 10752
  139.8777  134.9219  156.5041 H   0  0  0  0  0  0  0  0  0  0  0  0  # atno 11005 bound_to 11000
  144.7005  139.8786  143.7445 LP  0  0  0  0  0  0  0  0  0  0  0  0  # atno 17320 bound_to 7965
  146.0905  139.3895  143.0409 LP  0  0  0  0  0  0  0  0  0  0  0  0  # atno 17321 bound_to 7965
  140.0046  144.6268  150.7700 LP  0  0  0  0  0  0  0  0  0  0  0  0  # atno 17342 bound_to 10162
  140.7459  143.2882  151.3403 LP  0  0  0  0  0  0  0  0  0  0  0  0  # atno 17343 bound_to 10162
  156.9906  130.9892  151.3415 LP  0  0  0  0  0  0  0  0  0  0  0  0  # atno 17370 bound_to 10713
  157.5541  130.8202  149.8182 LP  0  0  0  0  0  0  0  0  0  0  0  0  # atno 17371 bound_to 10713
  140.8568  133.8090  155.9224 LP  0  0  0  0  0  0  0  0  0  0  0  0  # atno 17394 bound_to 11000
  140.9089  134.2285  157.4997 LP  0  0  0  0  0  0  0  0  0  0  0  0  # atno 17395 bound_to 11000

$$$$
