AV-unprocessed.smi:2695|AV-procd|sdf|10407|dock3
  -GOLD-   2272014443D 1   1.00000     0.00000
 Structure written by MMmdl.
 41 42  0  0  0  0  0  0  0  0  2 V2000
  146.8154  141.1677  157.4293 C   0  0  0  0  0  0  0  0  0  0  0  0
  147.5720  140.6555  156.2094 C   0  0  0  0  0  0  0  0  0  0  0  0
  148.9121  140.8057  156.1214 C   0  0  0  0  0  0  0  0  0  0  0  0
  149.6320  140.3222  155.0367 C   0  0  0  0  0  0  0  0  0  0  0  0
  150.8720  140.4611  154.9487 O   0  5  0  0  0  0  0  0  0  0  0  0
  148.8911  139.6706  154.0592 C   0  0  0  0  0  0  0  0  0  0  0  0
  147.4474  139.4720  154.1016 C   0  0  0  0  0  0  0  0  0  0  0  0
  146.8421  138.8721  153.2112 O   0  0  0  0  0  0  0  0  0  0  0  0
  146.8261  140.0024  155.1924 N   0  0  0  0  0  0  0  0  0  0  0  0
  145.3522  139.8931  155.2913 C   0  0  0  0  0  0  0  0  0  0  0  0
  144.8292  138.4564  155.1429 C   0  0  0  0  0  0  0  0  0  0  0  0
  145.1838  137.5678  155.9186 O   0  0  0  0  0  0  0  0  0  0  0  0
  143.9730  138.2539  154.1298 N   0  0  0  0  0  0  0  0  0  0  0  0
  143.3538  136.9786  153.7641 C   0  0  2  0  0  0  0  0  0  0  0  0
  143.7880  136.5926  152.3264 C   0  0  0  0  0  0  0  0  0  0  0  0
  143.6263  135.1090  151.9735 C   0  0  0  0  0  0  0  0  0  0  0  0
  144.5340  134.8780  150.7608 C   0  0  0  0  0  0  0  0  0  0  0  0
  145.5920  135.9897  150.7964 C   0  0  0  0  0  0  0  0  0  0  0  0
  145.2727  136.8446  152.0266 C   0  0  0  0  0  0  0  0  0  0  0  0
  141.8234  137.0973  153.9478 C   0  0  0  0  0  0  0  0  0  0  0  0
  141.2346  135.9611  153.5720 F   0  0  0  0  0  0  0  0  0  0  0  0
  141.5187  137.3336  155.2246 F   0  0  0  0  0  0  0  0  0  0  0  0
  141.3262  138.0787  153.1965 F   0  0  0  0  0  0  0  0  0  0  0  0
  147.5074  141.4399  158.2272 H   0  0  0  0  0  0  0  0  0  0  0  0
  146.1463  140.4102  157.8375 H   0  0  0  0  0  0  0  0  0  0  0  0
  146.2387  142.0580  157.1782 H   0  0  0  0  0  0  0  0  0  0  0  0
  149.4366  141.3121  156.9192 H   0  0  0  0  0  0  0  0  0  0  0  0
  149.4120  139.2757  153.1989 H   0  0  0  0  0  0  0  0  0  0  0  0
  144.9652  140.3144  156.2173 H   0  0  0  0  0  0  0  0  0  0  0  0
  144.8810  140.5088  154.5225 H   0  0  0  0  0  0  0  0  0  0  0  0
  143.7349  139.0486  153.5545 H   0  0  0  0  0  0  0  0  0  0  0  0
  143.7019  136.1954  154.4398 H   0  0  0  0  0  0  0  0  0  0  0  0
  143.2030  137.1746  151.6121 H   0  0  0  0  0  0  0  0  0  0  0  0
  143.9679  134.4906  152.8047 H   0  0  0  0  0  0  0  0  0  0  0  0
  142.5927  134.8359  151.7599 H   0  0  0  0  0  0  0  0  0  0  0  0
  144.9833  133.8847  150.7833 H   0  0  0  0  0  0  0  0  0  0  0  0
  143.9544  134.9516  149.8398 H   0  0  0  0  0  0  0  0  0  0  0  0
  146.6049  135.5888  150.8439 H   0  0  0  0  0  0  0  0  0  0  0  0
  145.5224  136.5936  149.8906 H   0  0  0  0  0  0  0  0  0  0  0  0
  145.4960  137.8994  151.8614 H   0  0  0  0  0  0  0  0  0  0  0  0
  145.8815  136.5097  152.8680 H   0  0  0  0  0  0  0  0  0  0  0  0
  1  2  1  0  0  0  0
  1 24  1  0  0  0  0
  1 25  1  0  0  0  0
  1 26  1  0  0  0  0
  2  9  1  0  0  0  0
  2  3  2  0  0  0  0
  3  4  1  0  0  0  0
  3 27  1  0  0  0  0
  4  5  1  0  0  0  0
  4  6  2  0  0  0  0
  6  7  1  0  0  0  0
  6 28  1  0  0  0  0
  7  8  2  0  0  0  0
  7  9  1  0  0  0  0
  9 10  1  0  0  0  0
 10 11  1  0  0  0  0
 10 29  1  0  0  0  0
 10 30  1  0  0  0  0
 11 12  2  0  0  0  0
 11 13  1  0  0  0  0
 13 14  1  0  0  0  0
 13 31  1  0  0  0  0
 14 15  1  0  0  0  0
 14 20  1  0  0  0  0
 14 32  1  0  0  0  0
 15 19  1  0  0  0  0
 15 16  1  0  0  0  0
 15 33  1  0  0  0  0
 16 17  1  0  0  0  0
 16 34  1  0  0  0  0
 16 35  1  0  0  0  0
 17 18  1  0  0  0  0
 17 36  1  0  0  0  0
 17 37  1  0  0  0  0
 18 19  1  0  0  0  0
 18 38  1  0  0  0  0
 18 39  1  0  0  0  0
 19 40  1  0  0  0  0
 19 41  1  0  0  0  0
 20 21  1  0  0  0  0
 20 22  1  0  0  0  0
 20 23  1  0  0  0  0
M  CHG  1   5  -1
M  END
> <s_m_source_file>
AV-unprocessed.smi

> <i_m_source_file_index>
2695

> <i_lp_mmshare_version>
43012

> <i_f3d_flags>
0

> <s_epik_input>
W0NIM11jMVtjSF1jKFtPSF0pW2NIXWMoPU8pbjFbQ0gyXUMoPU8pW05IXVtDQEBIXShDKEYpKEYpRilbQ0hdMltDSDJdW0NIMl1bQ0gyXVtDSDJdMg==

> <s_epik_cmdline>
J2VwaWtfcHl0aG9uJywgJy1waCcsICc3LjAnLCAnLXRuJywgJzgnLCAnLW1hJywgJzIwMCcsICctbWV0YWxfYmluZGluZycsICctaW1hZScsICc8aW5maWxlLm1hZT4nLCAnLW9tYWUnLCAnPG91dGZpbGUubWFlPic=

> <r_lp_tautomer_probability>
1

> <r_epik_Ionization_Penalty>
0.176977

> <r_epik_Ionization_Penalty_Charging>
0.176977

> <r_epik_Ionization_Penalty_Neutral>
1.44272e-07

> <r_epik_State_Penalty>
0.160849

> <r_epik_Charging_Adjusted_Penalty>
0.337826

> <i_epik_Tot_Q>
-1

> <i_epik_Tot_abs_Q>
1

> <r_epik_Metal_State_Penalty>
0.16085

> <b_epik_Metal_Only>
0

> <s_lp_Force_Field>
OPLS_2005

> <r_lp_Energy>
43.1089

> <b_lp_Chiralities_Consistent>
1

> <s_lp_Variant>
AV-unprocessed.smi:2695-1

> <Gold.Version>
5.8.1

> <Gold.Id.Protein>
6NUR|6NUR_protein|mol2

> <Gold.PLP.Fitness>
36.2774

> <Gold.PLP.PLP>
-30.7004

> <Gold.PLP.part.hbond>
-2.0000

> <Gold.PLP.part.metal>
0.0000

> <Gold.PLP.part.buried>
-3.3453

> <Gold.PLP.part.nonpolar>
-24.9818

> <Gold.PLP.part.repulsive>
0.3126

> <Gold.PLP.ligand.clash>
0.0000

> <Gold.PLP.ligand.torsion>
0.3749

> <Gold.PLP.Chemscore.Hbond>
2.0000

> <Gold.PLP.Chemscore.CHOScore>
0.0000

> <Gold.PLP.Chemscore.Metal>
0.0000

> <Gold.Chemscore.Hbonds>
donor molecule, donor type, donor heavy atom, donor atom, acceptor molecule, acceptor atom, score
      L1  H    13    31       P1 10175  1.00
      P1  H  7989  7998       L1     5  1.00

> <Gold.PLP.Chemscore.Internal.Correction>
0.3268

> <Gold.Rescore>
     Score         DG    S(hbond)    S(metal)    S(lipo)     H(rot)  DE(clash)    DE(int)     intcor
     10.80     -13.75       1.93        0.00      53.94       1.75       0.08       2.87       ----

> <Gold.Chemscore.Fitness>
10.7975

> <Gold.Chemscore.DG>
-13.7532

> <Gold.Chemscore.ZeroCoef>
-5.4800

> <Gold.Chemscore.Hbond>
1.9319

> <Gold.Chemscore.Metal>
0.0000

> <Gold.Chemscore.Lipo>
53.9360

> <Gold.Chemscore.Internal_Hbond>
0.0000

> <Gold.Chemscore.DEClash>
0.0825

> <Gold.Chemscore.DEInternal>
2.8731

> <Gold.Chemscore.Rot>
1.7539

> <Gold.Chemscore.Internal.Correction>
   9.000000E+99

> <Gold.Chemscore.Hbonds>
donor molecule, donor type, donor heavy atom, donor atom, acceptor molecule, acceptor atom, score
      L1  H    13    31       P1 10175  1.00
      P1  H  7989  7998       L1     5  0.96

> <Gold.Chemscore.Hbond.Weighted>
-6.4525

> <Gold.Chemscore.Metal.Weighted>
-0.0000

> <Gold.Chemscore.Lipo.Weighted>
-6.3105

> <Gold.Chemscore.Internal_Hbond.Weighted>
0.0000

> <Gold.Chemscore.DEClash.Weighted>
0.0825

> <Gold.Chemscore.DEInternal.Weighted>
2.8731

> <Gold.Chemscore.Rot.Weighted>
4.4899

> <Gold.Chemscore.Internal.Correction.Weighted>
   9.000000E+99

> <Gold.Protein.RotatedTorsions>
[ 6907 6896 6895 6894 ] final -152.41 input  -60.11 | X-H torsion
[ 7974 7965 7964 7962 ] final  -64.43 input  175.53 | X-H torsion
[ 8008 7997 7996 7995 ] final -113.24 input   59.86 | X-H torsion
[ 10167 10162 10161 10158 ] final   58.04 input  -65.29 | X-H torsion
[ 10718 10713 10712 10709 ] final  156.33 input   66.30 | X-H torsion
[ 10763 10752 10751 10750 ] final -131.83 input  -60.55 | X-H torsion
[ 11005 11000 10999 10996 ] final  -51.79 input  -57.11 | X-H torsion

> <Gold.Protein.ActiveResidues>
 VAL166  LYS551  ARG553  GLY616  TRP617  ASP618  TYR619  PRO620  LYS621  CYS622 
 ASP623  PHE694  ASN695  SER759  ASP760  ASP761  ALA762  ILE779  LEU786  VAL792 
 PHE793  MET794  SER795  GLU796  ALA797  LYS798  CYS799  TRP800  GLU811  SER814 

> <Gold.Protein.RotatedAtoms>
  151.2273  133.4469  159.2602 H   0  0  0  0  0  0  0  0  0  0  0  0  # atno 6907 bound_to 6896
  151.0827  134.9868  159.8374 H   0  0  0  0  0  0  0  0  0  0  0  0  # atno 6908 bound_to 6896
  152.5426  134.2212  159.8841 H   0  0  0  0  0  0  0  0  0  0  0  0  # atno 6909 bound_to 6896
  145.7668  140.8833  143.0401 H   0  0  0  0  0  0  0  0  0  0  0  0  # atno 7974 bound_to 7965
  155.0176  140.0393  157.2424 H   0  0  0  0  0  0  0  0  0  0  0  0  # atno 8008 bound_to 7997
  154.7406  140.2748  155.6353 H   0  0  0  0  0  0  0  0  0  0  0  0  # atno 8009 bound_to 7997
  156.2863  140.2666  156.2132 H   0  0  0  0  0  0  0  0  0  0  0  0  # atno 8010 bound_to 7997
  140.1915  144.4081  150.6569 H   0  0  0  0  0  0  0  0  0  0  0  0  # atno 10167 bound_to 10162
  157.2064  131.0688  151.1995 H   0  0  0  0  0  0  0  0  0  0  0  0  # atno 10718 bound_to 10713
  154.8748  135.3817  154.4310 H   0  0  0  0  0  0  0  0  0  0  0  0  # atno 10763 bound_to 10752
  153.5004  135.7030  153.5840 H   0  0  0  0  0  0  0  0  0  0  0  0  # atno 10764 bound_to 10752
  153.4174  135.3910  155.2056 H   0  0  0  0  0  0  0  0  0  0  0  0  # atno 10765 bound_to 10752
  141.0890  133.6636  156.3928 H   0  0  0  0  0  0  0  0  0  0  0  0  # atno 11005 bound_to 11000
  144.6820  139.9799  143.7483 LP  0  0  0  0  0  0  0  0  0  0  0  0  # atno 17320 bound_to 7965
  146.0210  139.3251  143.0813 LP  0  0  0  0  0  0  0  0  0  0  0  0  # atno 17321 bound_to 7965
  140.6453  143.2212  151.6200 LP  0  0  0  0  0  0  0  0  0  0  0  0  # atno 17342 bound_to 10162
  139.5254  144.3075  152.1021 LP  0  0  0  0  0  0  0  0  0  0  0  0  # atno 17343 bound_to 10162
  157.3716  130.7184  149.6569 LP  0  0  0  0  0  0  0  0  0  0  0  0  # atno 17370 bound_to 10713
  155.9695  130.4197  150.4388 LP  0  0  0  0  0  0  0  0  0  0  0  0  # atno 17371 bound_to 10713
  140.5297  134.6224  157.5346 LP  0  0  0  0  0  0  0  0  0  0  0  0  # atno 17394 bound_to 11000
  139.9712  134.7289  156.0038 LP  0  0  0  0  0  0  0  0  0  0  0  0  # atno 17395 bound_to 11000

$$$$
