AV-unprocessed.smi:2748|AV-procd|sdf|10583|dock9
  -GOLD-   2272015 33D 1   1.00000     0.00000
 Structure written by MMmdl.
 29 31  0  0  0  0  0  0  0  0  2 V2000
  152.1552  137.4011  154.1420 O   0  0  0  0  0  0  0  0  0  0  0  0
  152.2808  137.7459  155.3161 C   0  0  0  0  0  0  0  0  0  0  0  0
  153.0713  137.0708  156.2015 N   0  5  0  0  0  0  0  0  0  0  0  0
  153.2219  137.4378  157.5117 C   0  0  0  0  0  0  0  0  0  0  0  0
  153.9479  136.8184  158.2899 O   0  0  0  0  0  0  0  0  0  0  0  0
  152.5432  138.5308  157.9704 N   0  0  0  0  0  0  0  0  0  0  0  0
  152.6471  138.9964  159.3598 C   0  0  0  0  0  0  0  0  0  0  0  0
  153.4663  140.2965  159.4661 C   0  0  2  0  0  0  0  0  0  0  0  0
  153.5731  140.8144  160.9254 C   0  0  0  0  0  0  0  0  0  0  0  0
  152.9482  142.1611  160.8190 C   0  0  0  0  0  0  0  0  0  0  0  0
  152.7558  143.1170  161.8309 C   0  0  0  0  0  0  0  0  0  0  0  0
  152.1278  144.3321  161.4789 C   0  0  0  0  0  0  0  0  0  0  0  0
  151.7103  144.5635  160.1460 C   0  0  0  0  0  0  0  0  0  0  0  0
  151.9159  143.5835  159.1486 C   0  0  0  0  0  0  0  0  0  0  0  0
  152.5434  142.3795  159.5143 C   0  0  0  0  0  0  0  0  0  0  0  0
  152.8263  141.3284  158.6896 O   0  0  0  0  0  0  0  0  0  0  0  0
  151.7223  139.2656  157.0984 C   0  0  0  0  0  0  0  0  0  0  0  0
  151.5655  138.9228  155.8051 C   0  0  0  0  0  0  0  0  0  0  0  0
  150.5515  139.8473  154.7551 Cl  0  0  0  0  0  0  0  0  0  0  0  0
  151.6537  139.1517  159.7834 H   0  0  0  0  0  0  0  0  0  0  0  0
  153.0999  138.2200  159.9789 H   0  0  0  0  0  0  0  0  0  0  0  0
  154.4697  140.1439  159.0664 H   0  0  0  0  0  0  0  0  0  0  0  0
  153.0240  140.1962  161.6364 H   0  0  0  0  0  0  0  0  0  0  0  0
  154.6096  140.8973  161.2533 H   0  0  0  0  0  0  0  0  0  0  0  0
  153.0770  142.9286  162.8448 H   0  0  0  0  0  0  0  0  0  0  0  0
  151.9645  145.0895  162.2314 H   0  0  0  0  0  0  0  0  0  0  0  0
  151.2309  145.4965  159.8890 H   0  0  0  0  0  0  0  0  0  0  0  0
  151.6000  143.7547  158.1301 H   0  0  0  0  0  0  0  0  0  0  0  0
  151.2369  140.1227  157.5418 H   0  0  0  0  0  0  0  0  0  0  0  0
  1  2  2  0  0  0  0
  2 18  1  0  0  0  0
  2  3  1  0  0  0  0
  3  4  1  0  0  0  0
  4  5  2  0  0  0  0
  4  6  1  0  0  0  0
  6  7  1  0  0  0  0
  6 17  1  0  0  0  0
  7  8  1  0  0  0  0
  7 20  1  0  0  0  0
  7 21  1  0  0  0  0
  8 16  1  0  0  0  0
  8  9  1  0  0  0  0
  8 22  1  0  0  0  0
  9 10  1  0  0  0  0
  9 23  1  0  0  0  0
  9 24  1  0  0  0  0
 10 15  2  0  0  0  0
 10 11  1  0  0  0  0
 11 12  2  0  0  0  0
 11 25  1  0  0  0  0
 12 13  1  0  0  0  0
 12 26  1  0  0  0  0
 13 14  2  0  0  0  0
 13 27  1  0  0  0  0
 14 15  1  0  0  0  0
 14 28  1  0  0  0  0
 15 16  1  0  0  0  0
 17 18  2  0  0  0  0
 17 29  1  0  0  0  0
 18 19  1  0  0  0  0
M  CHG  1   3  -1
M  END
> <s_m_source_file>
AV-unprocessed.smi

> <i_m_source_file_index>
2748

> <i_lp_mmshare_version>
43012

> <i_f3d_flags>
0

> <s_epik_input>
Tz1jMVtuSF1jKD1PKW4oW2NIXWMxQ2wpW0NIMl1bQ0BIXShbQ0gyXTIpT2MoYzIzKVtjSF1bY0hdW2NIXVtjSF0z

> <s_epik_cmdline>
J2VwaWtfcHl0aG9uJywgJy1waCcsICc3LjAnLCAnLXRuJywgJzgnLCAnLW1hJywgJzIwMCcsICctbWV0YWxfYmluZGluZycsICctaW1hZScsICc8aW5maWxlLm1hZT4nLCAnLW9tYWUnLCAnPG91dGZpbGUubWFlPic=

> <r_lp_tautomer_probability>
1

> <r_epik_Ionization_Penalty>
2.00749

> <r_epik_Ionization_Penalty_Charging>
2.26533e-08

> <r_epik_Ionization_Penalty_Neutral>
2.00749

> <r_epik_State_Penalty>
2.13675

> <r_epik_Charging_Adjusted_Penalty>
2.13675

> <i_epik_Tot_Q>
-1

> <i_epik_Tot_abs_Q>
1

> <r_epik_Metal_State_Penalty>
0.0208594

> <b_epik_Metal_Only>
0

> <s_lp_Force_Field>
OPLS_2005

> <r_lp_Energy>
29.9215

> <b_lp_Chiralities_Consistent>
1

> <s_lp_Variant>
AV-unprocessed.smi:2748-3

> <Gold.Version>
5.8.1

> <Gold.Id.Protein>
6NUR|6NUR_protein|mol2

> <Gold.PLP.Fitness>
44.4240

> <Gold.PLP.PLP>
-39.4977

> <Gold.PLP.part.hbond>
-2.0000

> <Gold.PLP.part.metal>
0.0000

> <Gold.PLP.part.buried>
-2.6845

> <Gold.PLP.part.nonpolar>
-35.3342

> <Gold.PLP.part.repulsive>
0.1574

> <Gold.PLP.ligand.clash>
0.0000

> <Gold.PLP.ligand.torsion>
0.1294

> <Gold.PLP.Chemscore.Hbond>
1.7280

> <Gold.PLP.Chemscore.CHOScore>
0.0000

> <Gold.PLP.Chemscore.Metal>
0.0000

> <Gold.Chemscore.Hbonds>
donor molecule, donor type, donor heavy atom, donor atom, acceptor molecule, acceptor atom, score
      P1  H 10752 10764       L1     1  0.72
      P1  H 10752 10765       L1     3  0.99

> <Gold.PLP.Chemscore.Internal.Correction>
0.0011

> <Gold.Rescore>
     Score         DG    S(hbond)    S(metal)    S(lipo)     H(rot)  DE(clash)    DE(int)     intcor
     16.41     -18.01       0.91        0.00     109.30       1.29       0.07       1.54       ----

> <Gold.Chemscore.Fitness>
16.4059

> <Gold.Chemscore.DG>
-18.0110

> <Gold.Chemscore.ZeroCoef>
-5.4800

> <Gold.Chemscore.Hbond>
0.9149

> <Gold.Chemscore.Metal>
0.0000

> <Gold.Chemscore.Lipo>
109.3018

> <Gold.Chemscore.Internal_Hbond>
0.0000

> <Gold.Chemscore.DEClash>
0.0694

> <Gold.Chemscore.DEInternal>
1.5357

> <Gold.Chemscore.Rot>
1.2942

> <Gold.Chemscore.Internal.Correction>
   9.000000E+99

> <Gold.Chemscore.Hbonds>
donor molecule, donor type, donor heavy atom, donor atom, acceptor molecule, acceptor atom, score
      P1  H 10752 10764       L1     1  0.50
      P1  H 10752 10765       L1     3  0.35

> <Gold.Chemscore.Hbond.Weighted>
-3.0558

> <Gold.Chemscore.Metal.Weighted>
-0.0000

> <Gold.Chemscore.Lipo.Weighted>
-12.7883

> <Gold.Chemscore.Internal_Hbond.Weighted>
0.0000

> <Gold.Chemscore.DEClash.Weighted>
0.0694

> <Gold.Chemscore.DEInternal.Weighted>
1.5357

> <Gold.Chemscore.Rot.Weighted>
3.3131

> <Gold.Chemscore.Internal.Correction.Weighted>
   9.000000E+99

> <Gold.Protein.RotatedTorsions>
[ 6907 6896 6895 6894 ] final -144.15 input  -60.11 | X-H torsion
[ 7974 7965 7964 7962 ] final  -54.03 input  175.53 | X-H torsion
[ 8008 7997 7996 7995 ] final  125.48 input   59.86 | X-H torsion
[ 10167 10162 10161 10158 ] final   78.95 input  -65.29 | X-H torsion
[ 10718 10713 10712 10709 ] final  -19.94 input   66.30 | X-H torsion
[ 10763 10752 10751 10750 ] final -107.22 input  -60.55 | X-H torsion
[ 11005 11000 10999 10996 ] final    8.78 input  -57.11 | X-H torsion

> <Gold.Protein.ActiveResidues>
 VAL166  LYS551  ARG553  GLY616  TRP617  ASP618  TYR619  PRO620  LYS621  CYS622 
 ASP623  PHE694  ASN695  SER759  ASP760  ASP761  ALA762  ILE779  LEU786  VAL792 
 PHE793  MET794  SER795  GLU796  ALA797  LYS798  CYS799  TRP800  GLU811  SER814 

> <Gold.Protein.RotatedAtoms>
  151.1101  133.5179  159.2605 H   0  0  0  0  0  0  0  0  0  0  0  0  # atno 6907 bound_to 6896
  151.1976  135.0428  159.8869 H   0  0  0  0  0  0  0  0  0  0  0  0  # atno 6908 bound_to 6896
  152.5449  134.0934  159.8340 H   0  0  0  0  0  0  0  0  0  0  0  0  # atno 6909 bound_to 6896
  145.8901  140.8077  142.9795 H   0  0  0  0  0  0  0  0  0  0  0  0  # atno 7974 bound_to 7965
  156.2835  140.2715  156.1957 H   0  0  0  0  0  0  0  0  0  0  0  0  # atno 8008 bound_to 7997
  155.0413  140.0386  157.2528 H   0  0  0  0  0  0  0  0  0  0  0  0  # atno 8009 bound_to 7997
  154.7272  140.2699  155.6493 H   0  0  0  0  0  0  0  0  0  0  0  0  # atno 8010 bound_to 7997
  139.9655  144.5931  150.8033 H   0  0  0  0  0  0  0  0  0  0  0  0  # atno 10167 bound_to 10162
  156.5387  130.4673  149.6510 H   0  0  0  0  0  0  0  0  0  0  0  0  # atno 10718 bound_to 10713
  154.8062  135.4683  154.0398 H   0  0  0  0  0  0  0  0  0  0  0  0  # atno 10763 bound_to 10752
  153.1865  135.6848  153.8415 H   0  0  0  0  0  0  0  0  0  0  0  0  # atno 10764 bound_to 10752
  153.7948  135.3238  155.3360 H   0  0  0  0  0  0  0  0  0  0  0  0  # atno 10765 bound_to 10752
  140.5331  134.0447  155.7880 H   0  0  0  0  0  0  0  0  0  0  0  0  # atno 11005 bound_to 11000
  144.6730  140.1517  143.7429 LP  0  0  0  0  0  0  0  0  0  0  0  0  # atno 17320 bound_to 7965
  145.8918  139.2380  143.1545 LP  0  0  0  0  0  0  0  0  0  0  0  0  # atno 17321 bound_to 7965
  140.7539  143.3017  151.3063 LP  0  0  0  0  0  0  0  0  0  0  0  0  # atno 17342 bound_to 10162
  139.6521  144.0343  152.2634 LP  0  0  0  0  0  0  0  0  0  0  0  0  # atno 17343 bound_to 10162
  156.2992  130.7167  151.2035 LP  0  0  0  0  0  0  0  0  0  0  0  0  # atno 17370 bound_to 10713
  157.7409  131.0511  150.5133 LP  0  0  0  0  0  0  0  0  0  0  0  0  # atno 17371 bound_to 10713
  141.1270  133.9366  157.2615 LP  0  0  0  0  0  0  0  0  0  0  0  0  # atno 17394 bound_to 11000
  139.9543  135.0169  156.9085 LP  0  0  0  0  0  0  0  0  0  0  0  0  # atno 17395 bound_to 11000

$$$$
