AV-unprocessed.smi:2973|AV-procd|sdf|11341|dock4
  -GOLD-   2272016253D 1   1.00000     0.00000
 Structure written by MMmdl.
 50 52  0  0  0  0  0  0  0  0  2 V2000
  152.5664  141.0316  159.4958 C   0  0  0  0  0  0  0  0  0  0  0  0
  152.4907  142.5002  159.0261 C   0  0  2  0  0  0  0  0  0  0  0  0
  152.2015  143.4395  160.2172 C   0  0  0  0  0  0  0  0  0  0  0  0
  152.2151  144.9161  159.7925 C   0  0  0  0  0  0  0  0  0  0  0  0
  151.2232  145.1822  158.6517 C   0  0  0  0  0  0  0  0  0  0  0  0
  151.4933  144.2569  157.4518 C   0  0  0  0  0  0  0  0  0  0  0  0
  151.5140  142.7554  157.8339 C   0  0  1  0  0  0  0  0  0  0  0  0
  151.8858  141.9620  156.6751 N   0  0  0  0  0  0  0  0  0  0  0  0
  150.9248  141.1174  156.2821 C   0  0  0  0  0  0  0  0  0  0  0  0
  151.0114  140.3339  155.3377 O   0  0  0  0  0  0  0  0  0  0  0  0
  149.8689  141.2694  157.1001 N   0  0  0  0  0  0  0  0  0  0  0  0
  148.6390  140.4724  157.0101 C   0  0  0  0  0  0  0  0  0  0  0  0
  148.8961  138.9638  157.1313 C   0  0  0  0  0  0  0  0  0  0  0  0
  149.6339  138.5160  158.0105 O   0  0  0  0  0  0  0  0  0  0  0  0
  148.2674  138.1858  156.2377 N   0  0  0  0  0  0  0  0  0  0  0  0
  148.3805  136.7337  156.1696 C   0  0  0  0  0  0  0  0  0  0  0  0
  149.5570  136.2955  155.2797 C   0  0  0  0  0  0  0  0  0  0  0  0
  149.5616  134.8004  155.0295 C   0  0  0  0  0  0  0  0  0  0  0  0
  149.9276  133.8745  156.0303 C   0  0  0  0  0  0  0  0  0  0  0  0
  149.9024  132.4955  155.7352 C   0  0  0  0  0  0  0  0  0  0  0  0
  149.5116  132.0721  154.4479 C   0  0  0  0  0  0  0  0  0  0  0  0
  149.1542  133.0399  153.4870 C   0  0  0  0  0  0  0  0  0  0  0  0
  149.1904  134.3520  153.8083 N   0  3  0  0  0  0  0  0  0  0  0  0
  150.1055  142.1939  158.0411 C   0  0  0  0  0  0  0  0  0  0  0  0
  149.3392  142.5397  158.9405 O   0  0  0  0  0  0  0  0  0  0  0  0
  151.6205  140.6914  159.9179 H   0  0  0  0  0  0  0  0  0  0  0  0
  153.3271  140.9103  160.2673 H   0  0  0  0  0  0  0  0  0  0  0  0
  152.8282  140.3590  158.6789 H   0  0  0  0  0  0  0  0  0  0  0  0
  153.4906  142.7508  158.6681 H   0  0  0  0  0  0  0  0  0  0  0  0
  151.2400  143.1954  160.6694 H   0  0  0  0  0  0  0  0  0  0  0  0
  152.9479  143.2863  160.9975 H   0  0  0  0  0  0  0  0  0  0  0  0
  151.9764  145.5502  160.6467 H   0  0  0  0  0  0  0  0  0  0  0  0
  153.2201  145.1945  159.4732 H   0  0  0  0  0  0  0  0  0  0  0  0
  150.2035  145.0469  159.0121 H   0  0  0  0  0  0  0  0  0  0  0  0
  151.2957  146.2233  158.3361 H   0  0  0  0  0  0  0  0  0  0  0  0
  150.7460  144.4439  156.6788 H   0  0  0  0  0  0  0  0  0  0  0  0
  152.4525  144.5276  157.0082 H   0  0  0  0  0  0  0  0  0  0  0  0
  152.7874  142.0417  156.2277 H   0  0  0  0  0  0  0  0  0  0  0  0
  147.9351  140.7676  157.7899 H   0  0  0  0  0  0  0  0  0  0  0  0
  148.1376  140.6809  156.0632 H   0  0  0  0  0  0  0  0  0  0  0  0
  147.6719  138.6326  155.5555 H   0  0  0  0  0  0  0  0  0  0  0  0
  148.4881  136.3229  157.1750 H   0  0  0  0  0  0  0  0  0  0  0  0
  147.4442  136.3411  155.7722 H   0  0  0  0  0  0  0  0  0  0  0  0
  149.5160  136.8156  154.3215 H   0  0  0  0  0  0  0  0  0  0  0  0
  150.5061  136.5754  155.7389 H   0  0  0  0  0  0  0  0  0  0  0  0
  150.2218  134.2146  157.0129 H   0  0  0  0  0  0  0  0  0  0  0  0
  150.1789  131.7713  156.4877 H   0  0  0  0  0  0  0  0  0  0  0  0
  149.4859  131.0205  154.2018 H   0  0  0  0  0  0  0  0  0  0  0  0
  148.8432  132.8063  152.4791 H   0  0  0  0  0  0  0  0  0  0  0  0
  148.9274  135.0348  153.0970 H   0  0  0  0  0  0  0  0  0  0  0  0
  1  2  1  0  0  0  0
  1 26  1  0  0  0  0
  1 27  1  0  0  0  0
  1 28  1  0  0  0  0
  2  7  1  0  0  0  0
  2  3  1  0  0  0  0
  2 29  1  0  0  0  0
  3  4  1  0  0  0  0
  3 30  1  0  0  0  0
  3 31  1  0  0  0  0
  4  5  1  0  0  0  0
  4 32  1  0  0  0  0
  4 33  1  0  0  0  0
  5  6  1  0  0  0  0
  5 34  1  0  0  0  0
  5 35  1  0  0  0  0
  6  7  1  0  0  0  0
  6 36  1  0  0  0  0
  6 37  1  0  0  0  0
  7 24  1  0  0  0  0
  7  8  1  0  0  0  0
  8  9  1  0  0  0  0
  8 38  1  0  0  0  0
  9 10  2  0  0  0  0
  9 11  1  0  0  0  0
 11 12  1  0  0  0  0
 11 24  1  0  0  0  0
 12 13  1  0  0  0  0
 12 39  1  0  0  0  0
 12 40  1  0  0  0  0
 13 14  2  0  0  0  0
 13 15  1  0  0  0  0
 15 16  1  0  0  0  0
 15 41  1  0  0  0  0
 16 17  1  0  0  0  0
 16 42  1  0  0  0  0
 16 43  1  0  0  0  0
 17 18  1  0  0  0  0
 17 44  1  0  0  0  0
 17 45  1  0  0  0  0
 18 23  1  0  0  0  0
 18 19  2  0  0  0  0
 19 20  1  0  0  0  0
 19 46  1  0  0  0  0
 20 21  2  0  0  0  0
 20 47  1  0  0  0  0
 21 22  1  0  0  0  0
 21 48  1  0  0  0  0
 22 23  2  0  0  0  0
 22 49  1  0  0  0  0
 23 50  1  0  0  0  0
 24 25  2  0  0  0  0
M  CHG  1  23   1
M  END
> <s_m_source_file>
AV-unprocessed.smi

> <i_m_source_file_index>
2973

> <i_lp_mmshare_version>
43012

> <i_f3d_flags>
0

> <s_epik_input>
W0NIMl0xW0NIMl1bQ0gyXVtDSDJdW0NAQEhdKFtDSDNdKVtDQF0xMltOSF1DKD1PKU4oQzI9TylbQ0gyXUMoPU8pW05IXVtDSDJdW0NIMl1jM1tjSF1bY0hdW2NIXVtjSF1uMw==

> <s_epik_cmdline>
J2VwaWtfcHl0aG9uJywgJy1waCcsICc3LjAnLCAnLXRuJywgJzgnLCAnLW1hJywgJzIwMCcsICctbWV0YWxfYmluZGluZycsICctaW1hZScsICc8aW5maWxlLm1hZT4nLCAnLW9tYWUnLCAnPG91dGZpbGUubWFlPic=

> <r_lp_tautomer_probability>
1

> <r_epik_Ionization_Penalty>
1.90043

> <r_epik_Ionization_Penalty_Charging>
1.90039

> <r_epik_Ionization_Penalty_Neutral>
4.65525e-05

> <r_epik_State_Penalty>
2.02162

> <r_epik_Charging_Adjusted_Penalty>
3.922

> <i_epik_Tot_Q>
1

> <i_epik_Tot_abs_Q>
1

> <r_epik_Metal_State_Penalty>
2.06631

> <b_epik_Metal_Only>
0

> <s_lp_Force_Field>
OPLS_2005

> <r_lp_Energy>
22.6609

> <b_lp_Chiralities_Consistent>
1

> <s_lp_Variant>
AV-unprocessed.smi:2973-5

> <Gold.Version>
5.8.1

> <Gold.Id.Protein>
6NUR|6NUR_protein|mol2

> <Gold.PLP.Fitness>
48.6265

> <Gold.PLP.PLP>
-40.6793

> <Gold.PLP.part.hbond>
-3.0000

> <Gold.PLP.part.metal>
0.0000

> <Gold.PLP.part.buried>
-0.1923

> <Gold.PLP.part.nonpolar>
-37.4530

> <Gold.PLP.part.repulsive>
0.2777

> <Gold.PLP.ligand.clash>
0.0000

> <Gold.PLP.ligand.torsion>
0.5385

> <Gold.PLP.Chemscore.Hbond>
3.0000

> <Gold.PLP.Chemscore.CHOScore>
0.0000

> <Gold.PLP.Chemscore.Metal>
0.0000

> <Gold.Chemscore.Hbonds>
donor molecule, donor type, donor heavy atom, donor atom, acceptor molecule, acceptor atom, score
      L1  H    23    50       P1  7948  2.00
      P1  H  7989  7998       L1    10  1.00

> <Gold.PLP.Chemscore.Internal.Correction>
0.0243

> <Gold.Rescore>
     Score         DG    S(hbond)    S(metal)    S(lipo)     H(rot)  DE(clash)    DE(int)     intcor
     16.15     -18.94       1.69        0.00     109.93       1.96       1.57       1.23       ----

> <Gold.Chemscore.Fitness>
16.1469

> <Gold.Chemscore.DG>
-18.9437

> <Gold.Chemscore.ZeroCoef>
-5.4800

> <Gold.Chemscore.Hbond>
1.6854

> <Gold.Chemscore.Metal>
0.0000

> <Gold.Chemscore.Lipo>
109.9296

> <Gold.Chemscore.Internal_Hbond>
0.0000

> <Gold.Chemscore.DEClash>
1.5712

> <Gold.Chemscore.DEInternal>
1.2256

> <Gold.Chemscore.Rot>
1.9638

> <Gold.Chemscore.Internal.Correction>
   9.000000E+99

> <Gold.Chemscore.Hbonds>
donor molecule, donor type, donor heavy atom, donor atom, acceptor molecule, acceptor atom, score
      L1  H    23    50       P1  7948  0.26
      P1  H  7989  7998       L1    10  0.91

> <Gold.Chemscore.Hbond.Weighted>
-5.6293

> <Gold.Chemscore.Metal.Weighted>
-0.0000

> <Gold.Chemscore.Lipo.Weighted>
-12.8618

> <Gold.Chemscore.Internal_Hbond.Weighted>
0.0000

> <Gold.Chemscore.DEClash.Weighted>
1.5712

> <Gold.Chemscore.DEInternal.Weighted>
1.2256

> <Gold.Chemscore.Rot.Weighted>
5.0274

> <Gold.Chemscore.Internal.Correction.Weighted>
   9.000000E+99

> <Gold.Protein.RotatedTorsions>
[ 6907 6896 6895 6894 ] final   59.24 input  -60.11 | X-H torsion
[ 7974 7965 7964 7962 ] final   41.16 input  175.53 | X-H torsion
[ 8008 7997 7996 7995 ] final  -15.08 input   59.86 | X-H torsion
[ 10167 10162 10161 10158 ] final   23.14 input  -65.29 | X-H torsion
[ 10718 10713 10712 10709 ] final  170.37 input   66.30 | X-H torsion
[ 10763 10752 10751 10750 ] final  -45.04 input  -60.55 | X-H torsion
[ 11005 11000 10999 10996 ] final   36.52 input  -57.11 | X-H torsion

> <Gold.Protein.ActiveResidues>
 VAL166  LYS551  ARG553  GLY616  TRP617  ASP618  TYR619  PRO620  LYS621  CYS622 
 ASP623  PHE694  ASN695  SER759  ASP760  ASP761  ALA762  ILE779  LEU786  VAL792 
 PHE793  MET794  SER795  GLU796  ALA797  LYS798  CYS799  TRP800  GLU811  SER814 

> <Gold.Protein.RotatedAtoms>
  152.3897  134.6461  160.0111 H   0  0  0  0  0  0  0  0  0  0  0  0  # atno 6907 bound_to 6896
  151.6699  133.3308  159.3202 H   0  0  0  0  0  0  0  0  0  0  0  0  # atno 6908 bound_to 6896
  150.7815  134.6808  159.6488 H   0  0  0  0  0  0  0  0  0  0  0  0  # atno 6909 bound_to 6896
  146.0846  139.5448  142.9515 H   0  0  0  0  0  0  0  0  0  0  0  0  # atno 7974 bound_to 7965
  154.5159  140.2206  155.9067 H   0  0  0  0  0  0  0  0  0  0  0  0  # atno 8008 bound_to 7997
  156.1607  140.3143  155.8767 H   0  0  0  0  0  0  0  0  0  0  0  0  # atno 8009 bound_to 7997
  155.3758  140.0469  157.3035 H   0  0  0  0  0  0  0  0  0  0  0  0  # atno 8010 bound_to 7997
  140.5293  143.9870  150.6457 H   0  0  0  0  0  0  0  0  0  0  0  0  # atno 10167 bound_to 10162
  157.0092  131.0199  151.2808 H   0  0  0  0  0  0  0  0  0  0  0  0  # atno 10718 bound_to 10713
  154.0220  135.6668  153.4773 H   0  0  0  0  0  0  0  0  0  0  0  0  # atno 10763 bound_to 10752
  153.0576  135.5047  154.8014 H   0  0  0  0  0  0  0  0  0  0  0  0  # atno 10764 bound_to 10752
  154.6931  135.3065  154.9415 H   0  0  0  0  0  0  0  0  0  0  0  0  # atno 10765 bound_to 10752
  140.2317  134.3519  155.7961 H   0  0  0  0  0  0  0  0  0  0  0  0  # atno 11005 bound_to 11000
  145.6154  141.0332  143.1943 LP  0  0  0  0  0  0  0  0  0  0  0  0  # atno 17320 bound_to 7965
  144.7316  139.7707  143.7345 LP  0  0  0  0  0  0  0  0  0  0  0  0  # atno 17321 bound_to 7965
  140.3240  143.3119  152.0755 LP  0  0  0  0  0  0  0  0  0  0  0  0  # atno 17342 bound_to 10162
  139.4948  144.6554  151.6583 LP  0  0  0  0  0  0  0  0  0  0  0  0  # atno 17343 bound_to 10162
  157.5333  130.8073  149.7943 LP  0  0  0  0  0  0  0  0  0  0  0  0  # atno 17370 bound_to 10713
  156.0142  130.3820  150.2163 LP  0  0  0  0  0  0  0  0  0  0  0  0  # atno 17371 bound_to 10713
  141.2217  133.7249  156.8742 LP  0  0  0  0  0  0  0  0  0  0  0  0  # atno 17394 bound_to 11000
  140.1743  134.9078  157.2872 LP  0  0  0  0  0  0  0  0  0  0  0  0  # atno 17395 bound_to 11000

$$$$
