AV-unprocessed.smi:3335|AV-procd|sdf|12837|dock5
  -GOLD-   2272019223D 1   1.00000     0.00000
 Structure written by MMmdl.
 47 48  0  0  0  0  0  0  0  0  2 V2000
  145.6396  143.1018  155.2273 C   0  0  0  0  0  0  0  0  0  0  0  0
  146.4574  141.9871  154.6418 C   0  0  0  0  0  0  0  0  0  0  0  0
  147.8705  141.9299  154.4817 C   0  0  0  0  0  0  0  0  0  0  0  0
  148.2770  140.8057  153.9158 N   0  0  0  0  0  0  0  0  0  0  0  0
  147.1441  140.0958  153.7102 N   0  0  0  0  0  0  0  0  0  0  0  0
  147.1868  138.7980  153.0443 C   0  0  2  0  0  0  0  0  0  0  0  0
  146.8048  138.8997  151.5520 C   0  0  0  0  0  0  0  0  0  0  0  0
  146.3751  137.7451  153.8399 C   0  0  2  0  0  0  0  0  0  0  0  0
  146.5376  137.8984  155.3628 C   0  0  0  0  0  0  0  0  0  0  0  0
  146.7155  136.3674  153.4045 N   0  3  0  0  0  0  0  0  0  0  0  0
  145.8116  135.7607  152.3989 C   0  0  2  0  0  0  0  0  0  0  0  0
  144.3841  135.7001  152.9638 C   0  0  0  0  0  0  0  0  0  0  0  0
  146.2787  134.3438  152.0073 C   0  0  0  0  0  0  0  0  0  0  0  0
  147.1682  133.8078  152.6697 O   0  0  0  0  0  0  0  0  0  0  0  0
  145.6971  133.7197  150.9608 N   0  0  0  0  0  0  0  0  0  0  0  0
  144.6294  134.2548  150.1161 C   0  0  0  0  0  0  0  0  0  0  0  0
  144.1706  133.0909  149.2378 C   0  0  0  0  0  0  0  0  0  0  0  0
  145.3837  132.1745  149.1707 C   0  0  0  0  0  0  0  0  0  0  0  0
  146.0802  132.3809  150.5154 C   0  0  0  0  0  0  0  0  0  0  0  0
  146.0312  140.7950  154.1291 C   0  0  0  0  0  0  0  0  0  0  0  0
  146.2575  143.8130  155.7759 H   0  0  0  0  0  0  0  0  0  0  0  0
  144.8876  142.7278  155.9222 H   0  0  0  0  0  0  0  0  0  0  0  0
  145.1140  143.6623  154.4541 H   0  0  0  0  0  0  0  0  0  0  0  0
  148.6078  142.6720  154.7503 H   0  0  0  0  0  0  0  0  0  0  0  0
  148.2317  138.4850  153.0722 H   0  0  0  0  0  0  0  0  0  0  0  0
  146.9833  137.9602  151.0296 H   0  0  0  0  0  0  0  0  0  0  0  0
  147.4032  139.6613  151.0508 H   0  0  0  0  0  0  0  0  0  0  0  0
  145.7555  139.1615  151.4132 H   0  0  0  0  0  0  0  0  0  0  0  0
  145.3243  137.9281  153.6097 H   0  0  0  0  0  0  0  0  0  0  0  0
  146.3325  138.9222  155.6769 H   0  0  0  0  0  0  0  0  0  0  0  0
  147.5463  137.6459  155.6894 H   0  0  0  0  0  0  0  0  0  0  0  0
  145.8477  137.2527  155.9057 H   0  0  0  0  0  0  0  0  0  0  0  0
  147.6403  136.3893  152.9965 H   0  0  0  0  0  0  0  0  0  0  0  0
  145.8010  136.4173  151.5304 H   0  0  0  0  0  0  0  0  0  0  0  0
  143.6859  135.2770  152.2406 H   0  0  0  0  0  0  0  0  0  0  0  0
  144.0226  136.6965  153.2192 H   0  0  0  0  0  0  0  0  0  0  0  0
  144.3354  135.0897  153.8667 H   0  0  0  0  0  0  0  0  0  0  0  0
  143.7983  134.6548  150.6981 H   0  0  0  0  0  0  0  0  0  0  0  0
  145.0336  135.0577  149.4976 H   0  0  0  0  0  0  0  0  0  0  0  0
  143.3457  132.5679  149.7235 H   0  0  0  0  0  0  0  0  0  0  0  0
  143.8283  133.4129  148.2538 H   0  0  0  0  0  0  0  0  0  0  0  0
  145.1187  131.1328  148.9874 H   0  0  0  0  0  0  0  0  0  0  0  0
  146.0424  132.4992  148.3640 H   0  0  0  0  0  0  0  0  0  0  0  0
  147.1618  132.2708  150.4217 H   0  0  0  0  0  0  0  0  0  0  0  0
  145.7270  131.6504  151.2449 H   0  0  0  0  0  0  0  0  0  0  0  0
  145.0345  140.3918  154.0252 H   0  0  0  0  0  0  0  0  0  0  0  0
  146.7437  135.7784  154.2241 H   0  0  0  0  0  0  0  0  0  0  0  0
  1  2  1  0  0  0  0
  1 21  1  0  0  0  0
  1 22  1  0  0  0  0
  1 23  1  0  0  0  0
  2 20  2  0  0  0  0
  2  3  1  0  0  0  0
  3  4  2  0  0  0  0
  3 24  1  0  0  0  0
  4  5  1  0  0  0  0
  5  6  1  0  0  0  0
  5 20  1  0  0  0  0
  6  7  1  0  0  0  0
  6  8  1  0  0  0  0
  6 25  1  0  0  0  0
  7 26  1  0  0  0  0
  7 27  1  0  0  0  0
  7 28  1  0  0  0  0
  8  9  1  0  0  0  0
  8 10  1  0  0  0  0
  8 29  1  0  0  0  0
  9 30  1  0  0  0  0
  9 31  1  0  0  0  0
  9 32  1  0  0  0  0
 10 11  1  0  0  0  0
 10 33  1  0  0  0  0
 10 47  1  0  0  0  0
 11 12  1  0  0  0  0
 11 13  1  0  0  0  0
 11 34  1  0  0  0  0
 12 35  1  0  0  0  0
 12 36  1  0  0  0  0
 12 37  1  0  0  0  0
 13 14  2  0  0  0  0
 13 15  1  0  0  0  0
 15 19  1  0  0  0  0
 15 16  1  0  0  0  0
 16 17  1  0  0  0  0
 16 38  1  0  0  0  0
 16 39  1  0  0  0  0
 17 18  1  0  0  0  0
 17 40  1  0  0  0  0
 17 41  1  0  0  0  0
 18 19  1  0  0  0  0
 18 42  1  0  0  0  0
 18 43  1  0  0  0  0
 19 44  1  0  0  0  0
 19 45  1  0  0  0  0
 20 46  1  0  0  0  0
M  CHG  1  10   1
M  END
> <s_m_source_file>
AV-unprocessed.smi

> <i_m_source_file_index>
3335

> <i_lp_mmshare_version>
43012

> <i_f3d_flags>
0

> <s_epik_input>
W0NIM11jMVtjSF1ubihbY0hdMSlbQ0BIXShbQ0gzXSlbQ0BIXShbQ0gzXSlbTkhdW0NASF0oW0NIM10pQyg9TylOMltDSDJdW0NIMl1bQ0gyXVtDSDJdMg==

> <s_epik_cmdline>
J2VwaWtfcHl0aG9uJywgJy1waCcsICc3LjAnLCAnLXRuJywgJzgnLCAnLW1hJywgJzIwMCcsICctbWV0YWxfYmluZGluZycsICctaW1hZScsICc8aW5maWxlLm1hZT4nLCAnLW9tYWUnLCAnPG91dGZpbGUubWFlPic=

> <r_lp_tautomer_probability>
1

> <r_epik_Ionization_Penalty>
0.14175

> <r_epik_Ionization_Penalty_Charging>
0.141731

> <r_epik_Ionization_Penalty_Neutral>
1.91261e-05

> <r_epik_State_Penalty>
0.131043

> <r_epik_Charging_Adjusted_Penalty>
0.272773

> <i_epik_Tot_Q>
1

> <i_epik_Tot_abs_Q>
1

> <r_epik_Metal_State_Penalty>
0.131408

> <b_epik_Metal_Only>
0

> <s_lp_Force_Field>
OPLS_2005

> <r_lp_Energy>
36.483

> <b_lp_Chiralities_Consistent>
1

> <s_lp_Variant>
AV-unprocessed.smi:3335-1

> <Gold.Version>
5.8.1

> <Gold.Id.Protein>
6NUR|6NUR_protein|mol2

> <Gold.PLP.Fitness>
43.7649

> <Gold.PLP.PLP>
-34.1587

> <Gold.PLP.part.hbond>
-1.0000

> <Gold.PLP.part.metal>
0.0000

> <Gold.PLP.part.buried>
0.5382

> <Gold.PLP.part.nonpolar>
-34.7153

> <Gold.PLP.part.repulsive>
0.9112

> <Gold.PLP.ligand.clash>
0.0000

> <Gold.PLP.ligand.torsion>
1.3013

> <Gold.PLP.Chemscore.Hbond>
2.0000

> <Gold.PLP.Chemscore.CHOScore>
2.0000

> <Gold.PLP.Chemscore.Metal>
0.0000

> <Gold.Chemscore.Hbonds>
donor molecule, donor type, donor heavy atom, donor atom, acceptor molecule, acceptor atom, score
      L1  H    10    33       P1  7948  2.00
      L1  C     3    24       P1  8028  1.00
      L1  C    20    46       P1 10175  1.00

> <Gold.PLP.Chemscore.Internal.Correction>
0.2089

> <Gold.Rescore>
     Score         DG    S(hbond)    S(metal)    S(lipo)     H(rot)  DE(clash)    DE(int)     intcor
     12.69     -15.06       1.00        0.00      90.09       1.68       1.44       0.92       ----

> <Gold.Chemscore.Fitness>
12.6934

> <Gold.Chemscore.DG>
-15.0552

> <Gold.Chemscore.ZeroCoef>
-5.4800

> <Gold.Chemscore.Hbond>
0.9968

> <Gold.Chemscore.Metal>
0.0000

> <Gold.Chemscore.Lipo>
90.0941

> <Gold.Chemscore.Internal_Hbond>
0.0000

> <Gold.Chemscore.DEClash>
1.4435

> <Gold.Chemscore.DEInternal>
0.9183

> <Gold.Chemscore.Rot>
1.6778

> <Gold.Chemscore.Internal.Correction>
   9.000000E+99

> <Gold.Chemscore.Hbonds>
donor molecule, donor type, donor heavy atom, donor atom, acceptor molecule, acceptor atom, score
      L1  H    10    33       P1  7948  1.00

> <Gold.Chemscore.Hbond.Weighted>
-3.3293

> <Gold.Chemscore.Metal.Weighted>
-0.0000

> <Gold.Chemscore.Lipo.Weighted>
-10.5410

> <Gold.Chemscore.Internal_Hbond.Weighted>
0.0000

> <Gold.Chemscore.DEClash.Weighted>
1.4435

> <Gold.Chemscore.DEInternal.Weighted>
0.9183

> <Gold.Chemscore.Rot.Weighted>
4.2952

> <Gold.Chemscore.Internal.Correction.Weighted>
   9.000000E+99

> <Gold.Protein.RotatedTorsions>
[ 6907 6896 6895 6894 ] final   88.47 input  -60.11 | X-H torsion
[ 7974 7965 7964 7962 ] final  -94.04 input  175.53 | X-H torsion
[ 8008 7997 7996 7995 ] final    5.92 input   59.86 | X-H torsion
[ 10167 10162 10161 10158 ] final  -55.61 input  -65.29 | X-H torsion
[ 10718 10713 10712 10709 ] final   -6.99 input   66.30 | X-H torsion
[ 10763 10752 10751 10750 ] final   99.04 input  -60.55 | X-H torsion
[ 11005 11000 10999 10996 ] final  -46.69 input  -57.11 | X-H torsion

> <Gold.Protein.ActiveResidues>
 VAL166  LYS551  ARG553  GLY616  TRP617  ASP618  TYR619  PRO620  LYS621  CYS622 
 ASP623  PHE694  ASN695  SER759  ASP760  ASP761  ALA762  ILE779  LEU786  VAL792 
 PHE793  MET794  SER795  GLU796  ALA797  LYS798  CYS799  TRP800  GLU811  SER814 

> <Gold.Protein.RotatedAtoms>
  152.5425  134.2116  159.8751 H   0  0  0  0  0  0  0  0  0  0  0  0  # atno 6907 bound_to 6896
  151.2098  133.4555  159.2605 H   0  0  0  0  0  0  0  0  0  0  0  0  # atno 6908 bound_to 6896
  151.0907  134.9927  159.8457 H   0  0  0  0  0  0  0  0  0  0  0  0  # atno 6909 bound_to 6896
  145.3785  140.9514  143.2407 H   0  0  0  0  0  0  0  0  0  0  0  0  # atno 7974 bound_to 7965
  154.7344  140.2737  155.6427 H   0  0  0  0  0  0  0  0  0  0  0  0  # atno 8008 bound_to 7997
  156.2858  140.2709  156.1979 H   0  0  0  0  0  0  0  0  0  0  0  0  # atno 8009 bound_to 7997
  155.0339  140.0371  157.2474 H   0  0  0  0  0  0  0  0  0  0  0  0  # atno 8010 bound_to 7997
  140.6364  143.2485  151.5105 H   0  0  0  0  0  0  0  0  0  0  0  0  # atno 10167 bound_to 10162
  156.7237  130.5159  149.5862 H   0  0  0  0  0  0  0  0  0  0  0  0  # atno 10718 bound_to 10713
  153.2965  135.4127  155.1214 H   0  0  0  0  0  0  0  0  0  0  0  0  # atno 10763 bound_to 10752
  154.8536  135.3531  154.5910 H   0  0  0  0  0  0  0  0  0  0  0  0  # atno 10764 bound_to 10752
  153.6334  135.7060  153.5325 H   0  0  0  0  0  0  0  0  0  0  0  0  # atno 10765 bound_to 10752
  141.0594  133.6714  156.3190 H   0  0  0  0  0  0  0  0  0  0  0  0  # atno 11005 bound_to 11000
  144.8524  139.5301  143.6850 LP  0  0  0  0  0  0  0  0  0  0  0  0  # atno 17320 bound_to 7965
  146.2853  139.6987  142.9200 LP  0  0  0  0  0  0  0  0  0  0  0  0  # atno 17321 bound_to 7965
  139.5575  144.2240  152.1636 LP  0  0  0  0  0  0  0  0  0  0  0  0  # atno 17342 bound_to 10162
  140.1497  144.5126  150.6694 LP  0  0  0  0  0  0  0  0  0  0  0  0  # atno 17343 bound_to 10162
  156.1577  130.6352  151.0678 LP  0  0  0  0  0  0  0  0  0  0  0  0  # atno 17370 bound_to 10713
  157.6887  131.0817  150.7169 LP  0  0  0  0  0  0  0  0  0  0  0  0  # atno 17371 bound_to 10713
  140.5898  134.5662  157.5497 LP  0  0  0  0  0  0  0  0  0  0  0  0  # atno 17394 bound_to 11000
  139.9419  134.7771  156.0657 LP  0  0  0  0  0  0  0  0  0  0  0  0  # atno 17395 bound_to 11000

$$$$
