AV-unprocessed.smi:1915|AV-procd|sdf|7761|dock10
  -GOLD-   22720 9503D 1   1.00000     0.00000
 Structure written by MMmdl.
 44 45  0  0  0  0  0  0  0  0  1 V2000
  150.8243  140.6913  158.6068 C   0  0  0  0  0  0  0  0  0  0  0  0
  151.5803  141.6632  157.6845 C   0  0  0  0  0  0  0  0  0  0  0  0
  151.7484  143.0276  158.3696 C   0  0  0  0  0  0  0  0  0  0  0  0
  150.9190  141.8323  156.2982 C   0  0  0  0  0  0  0  0  0  0  0  0
  150.7051  140.5619  155.6045 N   0  0  0  0  0  0  0  0  0  0  0  0
  149.3896  140.2183  155.0882 C   0  0  0  0  0  0  0  0  0  0  0  0
  149.4796  138.7369  154.6621 C   0  0  2  0  0  0  0  0  0  0  0  0
  148.6539  137.8100  155.5674 C   0  0  0  0  0  0  0  0  0  0  0  0
  147.7152  137.1622  155.1031 O   0  0  0  0  0  0  0  0  0  0  0  0
  149.0038  137.7723  156.8616 N   0  0  0  0  0  0  0  0  0  0  0  0
  148.3004  137.0242  157.8991 C   0  0  0  0  0  0  0  0  0  0  0  0
  148.9509  137.1764  159.2894 C   0  0  0  0  0  0  0  0  0  0  0  0
  148.2292  136.4084  160.3842 C   0  0  0  0  0  0  0  0  0  0  0  0
  148.0624  135.0095  160.2938 C   0  0  0  0  0  0  0  0  0  0  0  0
  147.3687  134.3477  161.3248 C   0  0  0  0  0  0  0  0  0  0  0  0
  146.8723  135.1059  162.4024 C   0  0  0  0  0  0  0  0  0  0  0  0
  147.0938  136.4976  162.4011 C   0  0  0  0  0  0  0  0  0  0  0  0
  147.7562  137.1423  161.4163 N   0  0  0  0  0  0  0  0  0  0  0  0
  150.9796  138.3897  154.7290 C   0  0  0  0  0  0  0  0  0  0  0  0
  151.6026  139.5851  155.4291 C   0  0  0  0  0  0  0  0  0  0  0  0
  152.7805  139.6084  155.7827 O   0  0  0  0  0  0  0  0  0  0  0  0
  149.7897  141.0050  158.7487 H   0  0  0  0  0  0  0  0  0  0  0  0
  151.2932  140.6380  159.5896 H   0  0  0  0  0  0  0  0  0  0  0  0
  150.8155  139.6788  158.2043 H   0  0  0  0  0  0  0  0  0  0  0  0
  152.5805  141.2566  157.5297 H   0  0  0  0  0  0  0  0  0  0  0  0
  150.7827  143.4970  158.5595 H   0  0  0  0  0  0  0  0  0  0  0  0
  152.3345  143.7095  157.7525 H   0  0  0  0  0  0  0  0  0  0  0  0
  152.2636  142.9278  159.3254 H   0  0  0  0  0  0  0  0  0  0  0  0
  149.9707  142.3632  156.3987 H   0  0  0  0  0  0  0  0  0  0  0  0
  151.5457  142.4655  155.6689 H   0  0  0  0  0  0  0  0  0  0  0  0
  148.6196  140.3992  155.8403 H   0  0  0  0  0  0  0  0  0  0  0  0
  149.1641  140.8532  154.2305 H   0  0  0  0  0  0  0  0  0  0  0  0
  149.1264  138.6352  153.6344 H   0  0  0  0  0  0  0  0  0  0  0  0
  149.7883  138.3346  157.1584 H   0  0  0  0  0  0  0  0  0  0  0  0
  147.2512  137.3210  157.9347 H   0  0  0  0  0  0  0  0  0  0  0  0
  148.3135  135.9738  157.6072 H   0  0  0  0  0  0  0  0  0  0  0  0
  149.9877  136.8405  159.2488 H   0  0  0  0  0  0  0  0  0  0  0  0
  148.9910  138.2317  159.5620 H   0  0  0  0  0  0  0  0  0  0  0  0
  148.4498  134.4564  159.4509 H   0  0  0  0  0  0  0  0  0  0  0  0
  147.2181  133.2789  161.2884 H   0  0  0  0  0  0  0  0  0  0  0  0
  146.3350  134.6325  163.2108 H   0  0  0  0  0  0  0  0  0  0  0  0
  146.7273  137.1099  163.2116 H   0  0  0  0  0  0  0  0  0  0  0  0
  151.1951  137.4709  155.2772 H   0  0  0  0  0  0  0  0  0  0  0  0
  151.4052  138.2924  153.7300 H   0  0  0  0  0  0  0  0  0  0  0  0
  1  2  1  0  0  0  0
  1 22  1  0  0  0  0
  1 23  1  0  0  0  0
  1 24  1  0  0  0  0
  2  3  1  0  0  0  0
  2  4  1  0  0  0  0
  2 25  1  0  0  0  0
  3 26  1  0  0  0  0
  3 27  1  0  0  0  0
  3 28  1  0  0  0  0
  4  5  1  0  0  0  0
  4 29  1  0  0  0  0
  4 30  1  0  0  0  0
  5 20  1  0  0  0  0
  5  6  1  0  0  0  0
  6  7  1  0  0  0  0
  6 31  1  0  0  0  0
  6 32  1  0  0  0  0
  7  8  1  0  0  0  0
  7 19  1  0  0  0  0
  7 33  1  0  0  0  0
  8  9  2  0  0  0  0
  8 10  1  0  0  0  0
 10 11  1  0  0  0  0
 10 34  1  0  0  0  0
 11 12  1  0  0  0  0
 11 35  1  0  0  0  0
 11 36  1  0  0  0  0
 12 13  1  0  0  0  0
 12 37  1  0  0  0  0
 12 38  1  0  0  0  0
 13 18  1  0  0  0  0
 13 14  2  0  0  0  0
 14 15  1  0  0  0  0
 14 39  1  0  0  0  0
 15 16  2  0  0  0  0
 15 40  1  0  0  0  0
 16 17  1  0  0  0  0
 16 41  1  0  0  0  0
 17 18  2  0  0  0  0
 17 42  1  0  0  0  0
 19 20  1  0  0  0  0
 19 43  1  0  0  0  0
 19 44  1  0  0  0  0
 20 21  2  0  0  0  0
M  END
> <s_m_source_file>
AV-unprocessed.smi

> <i_m_source_file_index>
1915

> <i_lp_mmshare_version>
43012

> <i_f3d_flags>
0

> <s_epik_input>
W0NIM11bQ0hdKFtDSDNdKVtDSDJdTjFbQ0gyXVtDQEhdKFtDSDJdQzE9TylDKD1PKVtOSF1bQ0gyXVtDSDJdYzJbY0hdW2NIXVtjSF1bY0hdbjI=

> <s_epik_cmdline>
J2VwaWtfcHl0aG9uJywgJy1waCcsICc3LjAnLCAnLXRuJywgJzgnLCAnLW1hJywgJzIwMCcsICctbWV0YWxfYmluZGluZycsICctaW1hZScsICc8aW5maWxlLm1hZT4nLCAnLW9tYWUnLCAnPG91dGZpbGUubWFlPic=

> <r_epik_Ionization_Penalty>
0.0252359

> <r_epik_Ionization_Penalty_Charging>
0

> <r_epik_Ionization_Penalty_Neutral>
0.0252359

> <r_epik_State_Penalty>
0.020532

> <r_epik_Charging_Adjusted_Penalty>
0.020532

> <i_epik_Tot_Q>
0

> <i_epik_Tot_abs_Q>
0

> <r_epik_Metal_State_Penalty>
0.0196901

> <b_epik_Metal_Only>
0

> <s_lp_Force_Field>
OPLS_2005

> <r_lp_Energy>
14.5856

> <b_lp_Chiralities_Consistent>
1

> <s_lp_Variant>
AV-unprocessed.smi:1915-2

> <Gold.Version>
5.8.1

> <Gold.Id.Protein>
6NUR|6NUR_protein|mol2

> <Gold.PLP.Fitness>
49.0878

> <Gold.PLP.PLP>
-40.9441

> <Gold.PLP.part.hbond>
-3.0000

> <Gold.PLP.part.metal>
0.0000

> <Gold.PLP.part.buried>
-4.3271

> <Gold.PLP.part.nonpolar>
-32.9753

> <Gold.PLP.part.repulsive>
0.0737

> <Gold.PLP.ligand.clash>
0.0000

> <Gold.PLP.ligand.torsion>
0.1153

> <Gold.PLP.Chemscore.Hbond>
2.7680

> <Gold.PLP.Chemscore.CHOScore>
0.0000

> <Gold.PLP.Chemscore.Metal>
0.0000

> <Gold.Chemscore.Hbonds>
donor molecule, donor type, donor heavy atom, donor atom, acceptor molecule, acceptor atom, score
      P1  H  6931  6943       L1    18  1.00
      P1  H  6934  6947       L1    18  0.78
      P1  H  7997  8010       L1    21  1.00

> <Gold.PLP.Chemscore.Internal.Correction>
0.0704

> <Gold.Rescore>
     Score         DG    S(hbond)    S(metal)    S(lipo)     H(rot)  DE(clash)    DE(int)     intcor
     19.39     -19.54       2.34        0.00      91.44       1.75       0.10       0.05       ----

> <Gold.Chemscore.Fitness>
19.3926

> <Gold.Chemscore.DG>
-19.5389

> <Gold.Chemscore.ZeroCoef>
-5.4800

> <Gold.Chemscore.Hbond>
2.3439

> <Gold.Chemscore.Metal>
0.0000

> <Gold.Chemscore.Lipo>
91.4445

> <Gold.Chemscore.Internal_Hbond>
0.0000

> <Gold.Chemscore.DEClash>
0.0997

> <Gold.Chemscore.DEInternal>
0.0466

> <Gold.Chemscore.Rot>
1.7456

> <Gold.Chemscore.Internal.Correction>
   9.000000E+99

> <Gold.Chemscore.Hbonds>
donor molecule, donor type, donor heavy atom, donor atom, acceptor molecule, acceptor atom, score
      P1  H  6931  6943       L1    18  0.59
      P1  H  6934  6947       L1    18  0.64
      P1  H  7997  8010       L1    21  1.00

> <Gold.Chemscore.Hbond.Weighted>
-7.8287

> <Gold.Chemscore.Metal.Weighted>
-0.0000

> <Gold.Chemscore.Lipo.Weighted>
-10.6990

> <Gold.Chemscore.Internal_Hbond.Weighted>
0.0000

> <Gold.Chemscore.DEClash.Weighted>
0.0997

> <Gold.Chemscore.DEInternal.Weighted>
0.0466

> <Gold.Chemscore.Rot.Weighted>
4.4688

> <Gold.Chemscore.Internal.Correction.Weighted>
   9.000000E+99

> <Gold.Protein.RotatedTorsions>
[ 6907 6896 6895 6894 ] final  -70.88 input  -60.11 | X-H torsion
[ 7974 7965 7964 7962 ] final -127.46 input  175.53 | X-H torsion
[ 8008 7997 7996 7995 ] final   86.81 input   59.86 | X-H torsion
[ 10167 10162 10161 10158 ] final   51.93 input  -65.29 | X-H torsion
[ 10718 10713 10712 10709 ] final   13.38 input   66.30 | X-H torsion
[ 10763 10752 10751 10750 ] final -151.25 input  -60.55 | X-H torsion
[ 11005 11000 10999 10996 ] final  134.58 input  -57.11 | X-H torsion

> <Gold.Protein.ActiveResidues>
 VAL166  LYS551  ARG553  GLY616  TRP617  ASP618  TYR619  PRO620  LYS621  CYS622 
 ASP623  PHE694  ASN695  SER759  ASP760  ASP761  ALA762  ILE779  LEU786  VAL792 
 PHE793  MET794  SER795  GLU796  ALA797  LYS798  CYS799  TRP800  GLU811  SER814 

> <Gold.Protein.RotatedAtoms>
  150.7237  134.5389  159.5737 H   0  0  0  0  0  0  0  0  0  0  0  0  # atno 6907 bound_to 6896
  152.2904  134.7724  160.0388 H   0  0  0  0  0  0  0  0  0  0  0  0  # atno 6908 bound_to 6896
  151.8340  133.3377  159.3659 H   0  0  0  0  0  0  0  0  0  0  0  0  # atno 6909 bound_to 6896
  144.9768  140.7601  143.4636 H   0  0  0  0  0  0  0  0  0  0  0  0  # atno 7974 bound_to 7965
  155.9674  140.3388  155.6545 H   0  0  0  0  0  0  0  0  0  0  0  0  # atno 8008 bound_to 7997
  155.6719  140.0728  157.2535 H   0  0  0  0  0  0  0  0  0  0  0  0  # atno 8009 bound_to 7997
  154.4158  140.1690  156.1875 H   0  0  0  0  0  0  0  0  0  0  0  0  # atno 8010 bound_to 7997
  140.2567  144.3418  150.6331 H   0  0  0  0  0  0  0  0  0  0  0  0  # atno 10167 bound_to 10162
  157.0238  130.6165  149.5725 H   0  0  0  0  0  0  0  0  0  0  0  0  # atno 10718 bound_to 10713
  154.8069  135.3264  154.7408 H   0  0  0  0  0  0  0  0  0  0  0  0  # atno 10763 bound_to 10752
  153.8064  135.6899  153.4852 H   0  0  0  0  0  0  0  0  0  0  0  0  # atno 10764 bound_to 10752
  153.1820  135.4583  154.9986 H   0  0  0  0  0  0  0  0  0  0  0  0  # atno 10765 bound_to 10752
  139.9924  134.9510  156.9887 H   0  0  0  0  0  0  0  0  0  0  0  0  # atno 11005 bound_to 11000
  145.2478  139.2044  143.4958 LP  0  0  0  0  0  0  0  0  0  0  0  0  # atno 17320 bound_to 7965
  146.3397  140.2386  142.8595 LP  0  0  0  0  0  0  0  0  0  0  0  0  # atno 17321 bound_to 7965
  140.5998  143.2167  151.7094 LP  0  0  0  0  0  0  0  0  0  0  0  0  # atno 17342 bound_to 10162
  139.5029  144.3811  152.0375 LP  0  0  0  0  0  0  0  0  0  0  0  0  # atno 17343 bound_to 10162
  156.0093  130.5183  150.7936 LP  0  0  0  0  0  0  0  0  0  0  0  0  # atno 17370 bound_to 10713
  157.5230  131.0932  151.0054 LP  0  0  0  0  0  0  0  0  0  0  0  0  # atno 17371 bound_to 10713
  140.4882  134.1220  155.7228 LP  0  0  0  0  0  0  0  0  0  0  0  0  # atno 17394 bound_to 11000
  141.1577  133.8852  157.1933 LP  0  0  0  0  0  0  0  0  0  0  0  0  # atno 17395 bound_to 11000

$$$$
