AV-unprocessed.smi:2450|AV-procd|sdf|9665|dock3
  -GOLD-   2272013303D 1   1.00000     0.00000
 Structure written by MMmdl.
 41 42  0  0  0  0  0  0  0  0  1 V2000
  153.7238  143.0627  159.0865 C   0  0  0  0  0  0  0  0  0  0  0  0
  153.2471  144.3270  158.3566 C   0  0  0  0  0  0  0  0  0  0  0  0
  151.7301  144.5693  158.4665 C   0  0  2  0  0  0  0  0  0  0  0  0
  151.1494  143.9588  159.7510 C   0  0  0  0  0  0  0  0  0  0  0  0
  151.0449  144.0139  157.3015 N   0  0  0  0  0  0  0  0  0  0  0  0
  151.1779  142.7621  156.8409 C   0  0  0  0  0  0  0  0  0  0  0  0
  151.9088  141.9177  157.3589 O   0  0  0  0  0  0  0  0  0  0  0  0
  150.4016  142.5620  155.7628 N   0  0  0  0  0  0  0  0  0  0  0  0
  150.2011  141.3599  155.0265 C   0  0  0  0  0  0  0  0  0  0  0  0
  151.2491  140.4295  154.8198 C   0  0  0  0  0  0  0  0  0  0  0  0
  151.0158  139.2920  154.0279 C   0  0  0  0  0  0  0  0  0  0  0  0
  149.7441  139.1313  153.4539 C   0  0  0  0  0  0  0  0  0  0  0  0
  148.7406  140.0140  153.6287 N   0  0  0  0  0  0  0  0  0  0  0  0
  148.9455  141.1089  154.4020 C   0  0  0  0  0  0  0  0  0  0  0  0
  147.8526  141.9922  154.5590 N   0  0  0  0  0  0  0  0  0  0  0  0
  146.8761  142.1593  153.4881 C   0  0  0  0  0  0  0  0  0  0  0  0
  145.6899  142.8608  154.1425 C   0  0  0  0  0  0  0  0  0  0  0  0
  145.6789  142.2462  155.5387 C   0  0  0  0  0  0  0  0  0  0  0  0
  147.1619  142.0109  155.8454 C   0  0  0  0  0  0  0  0  0  0  0  0
  154.7938  142.9138  158.9420 H   0  0  0  0  0  0  0  0  0  0  0  0
  153.2121  142.1760  158.7114 H   0  0  0  0  0  0  0  0  0  0  0  0
  153.5425  143.1252  160.1598 H   0  0  0  0  0  0  0  0  0  0  0  0
  153.7889  145.1916  158.7423 H   0  0  0  0  0  0  0  0  0  0  0  0
  153.5205  144.2436  157.3041 H   0  0  0  0  0  0  0  0  0  0  0  0
  151.5695  145.6486  158.5024 H   0  0  0  0  0  0  0  0  0  0  0  0
  151.6334  144.3730  160.6357 H   0  0  0  0  0  0  0  0  0  0  0  0
  151.2850  142.8768  159.7731 H   0  0  0  0  0  0  0  0  0  0  0  0
  150.0816  144.1628  159.8362 H   0  0  0  0  0  0  0  0  0  0  0  0
  150.4171  144.6333  156.8103 H   0  0  0  0  0  0  0  0  0  0  0  0
  149.7970  143.3284  155.5049 H   0  0  0  0  0  0  0  0  0  0  0  0
  152.2341  140.5792  155.2341 H   0  0  0  0  0  0  0  0  0  0  0  0
  151.7976  138.5675  153.8548 H   0  0  0  0  0  0  0  0  0  0  0  0
  149.5279  138.2750  152.8327 H   0  0  0  0  0  0  0  0  0  0  0  0
  147.2863  142.7411  152.6621 H   0  0  0  0  0  0  0  0  0  0  0  0
  146.5559  141.1911  153.1010 H   0  0  0  0  0  0  0  0  0  0  0  0
  145.8789  143.9331  154.2083 H   0  0  0  0  0  0  0  0  0  0  0  0
  144.7556  142.7115  153.6010 H   0  0  0  0  0  0  0  0  0  0  0  0
  145.1886  142.8790  156.2788 H   0  0  0  0  0  0  0  0  0  0  0  0
  145.1539  141.2906  155.5126 H   0  0  0  0  0  0  0  0  0  0  0  0
  147.3108  141.0864  156.4053 H   0  0  0  0  0  0  0  0  0  0  0  0
  147.5512  142.8353  156.4433 H   0  0  0  0  0  0  0  0  0  0  0  0
  1  2  1  0  0  0  0
  1 20  1  0  0  0  0
  1 21  1  0  0  0  0
  1 22  1  0  0  0  0
  2  3  1  0  0  0  0
  2 23  1  0  0  0  0
  2 24  1  0  0  0  0
  3  4  1  0  0  0  0
  3  5  1  0  0  0  0
  3 25  1  0  0  0  0
  4 26  1  0  0  0  0
  4 27  1  0  0  0  0
  4 28  1  0  0  0  0
  5  6  1  0  0  0  0
  5 29  1  0  0  0  0
  6  7  2  0  0  0  0
  6  8  1  0  0  0  0
  8  9  1  0  0  0  0
  8 30  1  0  0  0  0
  9 14  1  0  0  0  0
  9 10  2  0  0  0  0
 10 11  1  0  0  0  0
 10 31  1  0  0  0  0
 11 12  2  0  0  0  0
 11 32  1  0  0  0  0
 12 13  1  0  0  0  0
 12 33  1  0  0  0  0
 13 14  2  0  0  0  0
 14 15  1  0  0  0  0
 15 19  1  0  0  0  0
 15 16  1  0  0  0  0
 16 17  1  0  0  0  0
 16 34  1  0  0  0  0
 16 35  1  0  0  0  0
 17 18  1  0  0  0  0
 17 36  1  0  0  0  0
 17 37  1  0  0  0  0
 18 19  1  0  0  0  0
 18 38  1  0  0  0  0
 18 39  1  0  0  0  0
 19 40  1  0  0  0  0
 19 41  1  0  0  0  0
M  END
> <s_m_source_file>
AV-unprocessed.smi

> <i_m_source_file_index>
2450

> <i_lp_mmshare_version>
43012

> <i_f3d_flags>
0

> <s_epik_input>
W0NIM11bQ0gyXVtDQEhdKFtDSDNdKVtOSF1DKD1PKVtOSF1jMVtjSF1bY0hdW2NIXW5jMU4yW0NIMl1bQ0gyXVtDSDJdW0NIMl0y

> <s_epik_cmdline>
J2VwaWtfcHl0aG9uJywgJy1waCcsICc3LjAnLCAnLXRuJywgJzgnLCAnLW1hJywgJzIwMCcsICctbWV0YWxfYmluZGluZycsICctaW1hZScsICc8aW5maWxlLm1hZT4nLCAnLW9tYWUnLCAnPG91dGZpbGUubWFlPic=

> <r_lp_tautomer_probability>
1

> <r_epik_Ionization_Penalty>
0.103391

> <r_epik_Ionization_Penalty_Charging>
0

> <r_epik_Ionization_Penalty_Neutral>
0.103391

> <r_epik_State_Penalty>
0.0927616

> <r_epik_Charging_Adjusted_Penalty>
0.0927616

> <i_epik_Tot_Q>
0

> <i_epik_Tot_abs_Q>
0

> <r_epik_Metal_State_Penalty>
0.0789158

> <b_epik_Metal_Only>
0

> <s_lp_Force_Field>
OPLS_2005

> <r_lp_Energy>
32.2235

> <b_lp_Chiralities_Consistent>
1

> <s_lp_Variant>
AV-unprocessed.smi:2450-1

> <Gold.Version>
5.8.1

> <Gold.Id.Protein>
6NUR|6NUR_protein|mol2

> <Gold.PLP.Fitness>
48.9847

> <Gold.PLP.PLP>
-42.3006

> <Gold.PLP.part.hbond>
-2.0000

> <Gold.PLP.part.metal>
0.0000

> <Gold.PLP.part.buried>
-6.0534

> <Gold.PLP.part.nonpolar>
-34.9503

> <Gold.PLP.part.repulsive>
0.4415

> <Gold.PLP.ligand.clash>
0.0000

> <Gold.PLP.ligand.torsion>
1.2931

> <Gold.PLP.Chemscore.Hbond>
1.9760

> <Gold.PLP.Chemscore.CHOScore>
1.0000

> <Gold.PLP.Chemscore.Metal>
0.0000

> <Gold.Chemscore.Hbonds>
donor molecule, donor type, donor heavy atom, donor atom, acceptor molecule, acceptor atom, score
      L1  H     5    29       P1  8028  0.93
      L1  H     8    30       P1  8028  1.00
      L1  C    12    33       P1  7948  1.00
      L1  C    12    33       P1  7957  0.01

> <Gold.PLP.Chemscore.Internal.Correction>
0.3425

> <Gold.Rescore>
     Score         DG    S(hbond)    S(metal)    S(lipo)     H(rot)  DE(clash)    DE(int)     intcor
     15.66     -19.87       1.86        0.00      98.75       1.32       0.07       4.13       ----

> <Gold.Chemscore.Fitness>
15.6621

> <Gold.Chemscore.DG>
-19.8705

> <Gold.Chemscore.ZeroCoef>
-5.4800

> <Gold.Chemscore.Hbond>
1.8581

> <Gold.Chemscore.Metal>
0.0000

> <Gold.Chemscore.Lipo>
98.7520

> <Gold.Chemscore.Internal_Hbond>
0.0000

> <Gold.Chemscore.DEClash>
0.0737

> <Gold.Chemscore.DEInternal>
4.1346

> <Gold.Chemscore.Rot>
1.3163

> <Gold.Chemscore.Internal.Correction>
   9.000000E+99

> <Gold.Chemscore.Hbonds>
donor molecule, donor type, donor heavy atom, donor atom, acceptor molecule, acceptor atom, score
      L1  H     5    29       P1  8028  0.75
      L1  H     8    30       P1  8028  0.99

> <Gold.Chemscore.Hbond.Weighted>
-6.2061

> <Gold.Chemscore.Metal.Weighted>
-0.0000

> <Gold.Chemscore.Lipo.Weighted>
-11.5540

> <Gold.Chemscore.Internal_Hbond.Weighted>
0.0000

> <Gold.Chemscore.DEClash.Weighted>
0.0737

> <Gold.Chemscore.DEInternal.Weighted>
4.1346

> <Gold.Chemscore.Rot.Weighted>
3.3696

> <Gold.Chemscore.Internal.Correction.Weighted>
   9.000000E+99

> <Gold.Protein.RotatedTorsions>
[ 6907 6896 6895 6894 ] final  -48.54 input  -60.11 | X-H torsion
[ 7974 7965 7964 7962 ] final    0.02 input  175.53 | X-H torsion
[ 8008 7997 7996 7995 ] final   48.57 input   59.86 | X-H torsion
[ 10167 10162 10161 10158 ] final  -54.62 input  -65.29 | X-H torsion
[ 10718 10713 10712 10709 ] final  123.80 input   66.30 | X-H torsion
[ 10763 10752 10751 10750 ] final  142.69 input  -60.55 | X-H torsion
[ 11005 11000 10999 10996 ] final   67.81 input  -57.11 | X-H torsion

> <Gold.Protein.ActiveResidues>
 VAL166  LYS551  ARG553  GLY616  TRP617  ASP618  TYR619  PRO620  LYS621  CYS622 
 ASP623  PHE694  ASN695  SER759  ASP760  ASP761  ALA762  ILE779  LEU786  VAL792 
 PHE793  MET794  SER795  GLU796  ALA797  LYS798  CYS799  TRP800  GLU811  SER814 

> <Gold.Protein.RotatedAtoms>
  150.8895  134.8297  159.7282 H   0  0  0  0  0  0  0  0  0  0  0  0  # atno 6907 bound_to 6896
  152.4828  134.4670  159.9633 H   0  0  0  0  0  0  0  0  0  0  0  0  # atno 6908 bound_to 6896
  151.4734  133.3524  159.2862 H   0  0  0  0  0  0  0  0  0  0  0  0  # atno 6909 bound_to 6896
  146.2431  140.1200  142.8341 H   0  0  0  0  0  0  0  0  0  0  0  0  # atno 7974 bound_to 7965
  155.3878  140.3432  155.4250 H   0  0  0  0  0  0  0  0  0  0  0  0  # atno 8008 bound_to 7997
  156.1575  140.1590  156.8702 H   0  0  0  0  0  0  0  0  0  0  0  0  # atno 8009 bound_to 7997
  154.5108  140.0790  156.7967 H   0  0  0  0  0  0  0  0  0  0  0  0  # atno 8010 bound_to 7997
  140.6420  143.2513  151.4962 H   0  0  0  0  0  0  0  0  0  0  0  0  # atno 10167 bound_to 10162
  157.5636  131.1088  150.8494 H   0  0  0  0  0  0  0  0  0  0  0  0  # atno 10718 bound_to 10713
  153.9599  135.2961  155.3434 H   0  0  0  0  0  0  0  0  0  0  0  0  # atno 10763 bound_to 10752
  154.7380  135.5037  153.9078 H   0  0  0  0  0  0  0  0  0  0  0  0  # atno 10764 bound_to 10752
  153.0951  135.6719  153.9888 H   0  0  0  0  0  0  0  0  0  0  0  0  # atno 10765 bound_to 10752
  139.9748  134.6840  156.0374 H   0  0  0  0  0  0  0  0  0  0  0  0  # atno 11005 bound_to 11000
  145.0414  140.8948  143.5050 LP  0  0  0  0  0  0  0  0  0  0  0  0  # atno 17320 bound_to 7965
  145.1281  139.2649  143.5553 LP  0  0  0  0  0  0  0  0  0  0  0  0  # atno 17321 bound_to 7965
  139.5630  144.2111  152.1720 LP  0  0  0  0  0  0  0  0  0  0  0  0  # atno 17342 bound_to 10162
  140.1384  144.5224  150.6759 LP  0  0  0  0  0  0  0  0  0  0  0  0  # atno 17343 bound_to 10162
  156.8985  130.5238  149.5283 LP  0  0  0  0  0  0  0  0  0  0  0  0  # atno 17370 bound_to 10713
  156.0686  130.5724  150.9339 LP  0  0  0  0  0  0  0  0  0  0  0  0  # atno 17371 bound_to 10713
  141.1426  133.6562  156.3774 LP  0  0  0  0  0  0  0  0  0  0  0  0  # atno 17394 bound_to 11000
  140.5217  134.6298  157.5320 LP  0  0  0  0  0  0  0  0  0  0  0  0  # atno 17395 bound_to 11000

$$$$
