AV-unprocessed.smi:235|AV-procd|sdf|1805|dock8
  -GOLD-   2262020383D 1   1.00000     0.00000
 Structure written by MMmdl.
 54 58  0  0  0  0  0  0  0  0  1 V2000
  147.9104  136.0545  156.2636 O   0  0  0  0  0  0  0  0  0  0  0  0
  147.8646  136.2881  155.0550 C   0  0  0  0  0  0  0  0  0  0  0  0
  148.6598  135.6883  154.1572 N   0  0  0  0  0  0  0  0  0  0  0  0
  149.6548  134.7134  154.4596 C   0  0  0  0  0  0  0  0  0  0  0  0
  149.6227  133.4200  153.6754 C   0  0  0  0  0  0  0  0  0  0  0  0
  149.2121  133.4290  155.1234 C   0  0  0  0  0  0  0  0  0  0  0  0
  146.8466  137.2908  154.4936 C   0  0  2  0  0  0  0  0  0  0  0  0
  145.7266  136.6100  153.6798 C   0  0  0  0  0  0  0  0  0  0  0  0
  145.4296  137.5948  152.5564 C   0  0  0  0  0  0  0  0  0  0  0  0
  146.8101  138.1707  152.2679 C   0  0  0  0  0  0  0  0  0  0  0  0
  147.4899  138.2243  153.5601 N   0  0  0  0  0  0  0  0  0  0  0  0
  147.7530  139.4393  154.1051 C   0  0  0  0  0  0  0  0  0  0  0  0
  146.7517  140.3430  154.2778 N   0  0  0  0  0  0  0  0  0  0  0  0
  146.9976  141.5135  154.8742 C   0  0  0  0  0  0  0  0  0  0  0  0
  148.1466  141.9687  155.3778 N   0  0  0  0  0  0  0  0  0  0  0  0
  149.1525  141.0635  155.2088 C   0  0  0  0  0  0  0  0  0  0  0  0
  149.0454  139.7911  154.5816 C   0  0  0  0  0  0  0  0  0  0  0  0
  150.2810  139.1553  154.5871 N   0  0  0  0  0  0  0  0  0  0  0  0
  151.0690  139.9930  155.2029 C   0  0  0  0  0  0  0  0  0  0  0  0
  150.4691  141.1586  155.6226 N   0  0  0  0  0  0  0  0  0  0  0  0
  151.0946  142.2455  156.3520 C   0  0  0  0  0  0  0  0  0  0  0  0
  150.6295  142.3286  157.8219 C   0  0  2  0  0  0  0  0  0  0  0  0
  149.3584  142.9466  157.8239 O   0  0  0  0  0  0  0  0  0  0  0  0
  151.5758  143.1218  158.7519 C   0  0  1  0  0  0  0  0  0  0  0  0
  151.9079  144.5335  158.2565 C   0  0  0  0  0  0  0  0  0  0  0  0
  152.2089  145.3166  159.5263 C   0  0  0  0  0  0  0  0  0  0  0  0
  151.7600  144.3847  160.6516 C   0  0  0  0  0  0  0  0  0  0  0  0
  150.9670  143.4024  160.0048 O   0  0  0  0  0  0  0  0  0  0  0  0
  148.5431  135.9334  153.1846 H   0  0  0  0  0  0  0  0  0  0  0  0
  150.6455  135.0813  154.7237 H   0  0  0  0  0  0  0  0  0  0  0  0
  148.8374  133.2910  152.9331 H   0  0  0  0  0  0  0  0  0  0  0  0
  150.5769  132.9594  153.4277 H   0  0  0  0  0  0  0  0  0  0  0  0
  149.8924  132.9773  155.8424 H   0  0  0  0  0  0  0  0  0  0  0  0
  148.1541  133.3202  155.3536 H   0  0  0  0  0  0  0  0  0  0  0  0
  146.3838  137.8435  155.3156 H   0  0  0  0  0  0  0  0  0  0  0  0
  146.0597  135.6656  153.2458 H   0  0  0  0  0  0  0  0  0  0  0  0
  144.8446  136.3988  154.2849 H   0  0  0  0  0  0  0  0  0  0  0  0
  144.9716  137.1261  151.6851 H   0  0  0  0  0  0  0  0  0  0  0  0
  144.7625  138.3807  152.9136 H   0  0  0  0  0  0  0  0  0  0  0  0
  147.3721  137.4911  151.6260 H   0  0  0  0  0  0  0  0  0  0  0  0
  146.7553  139.1249  151.7423 H   0  0  0  0  0  0  0  0  0  0  0  0
  146.1497  142.1754  154.9702 H   0  0  0  0  0  0  0  0  0  0  0  0
  152.1115  139.7739  155.3829 H   0  0  0  0  0  0  0  0  0  0  0  0
  152.1768  142.1157  156.3047 H   0  0  0  0  0  0  0  0  0  0  0  0
  150.8679  143.1759  155.8294 H   0  0  0  0  0  0  0  0  0  0  0  0
  150.5016  141.3211  158.2196 H   0  0  0  0  0  0  0  0  0  0  0  0
  149.2500  143.4113  157.0080 H   0  0  0  0  0  0  0  0  0  0  0  0
  152.4975  142.5624  158.9238 H   0  0  0  0  0  0  0  0  0  0  0  0
  152.7381  144.5414  157.5495 H   0  0  0  0  0  0  0  0  0  0  0  0
  151.0422  144.9723  157.7584 H   0  0  0  0  0  0  0  0  0  0  0  0
  153.2692  145.5548  159.6171 H   0  0  0  0  0  0  0  0  0  0  0  0
  151.6505  146.2535  159.5397 H   0  0  0  0  0  0  0  0  0  0  0  0
  152.6225  143.9036  161.1144 H   0  0  0  0  0  0  0  0  0  0  0  0
  151.1971  144.9003  161.4298 H   0  0  0  0  0  0  0  0  0  0  0  0
  1  2  2  0  0  0  0
  2  3  1  0  0  0  0
  2  7  1  0  0  0  0
  3  4  1  0  0  0  0
  3 29  1  0  0  0  0
  4  6  1  0  0  0  0
  4  5  1  0  0  0  0
  4 30  1  0  0  0  0
  5  6  1  0  0  0  0
  5 31  1  0  0  0  0
  5 32  1  0  0  0  0
  6 33  1  0  0  0  0
  6 34  1  0  0  0  0
  7 11  1  0  0  0  0
  7  8  1  0  0  0  0
  7 35  1  0  0  0  0
  8  9  1  0  0  0  0
  8 36  1  0  0  0  0
  8 37  1  0  0  0  0
  9 10  1  0  0  0  0
  9 38  1  0  0  0  0
  9 39  1  0  0  0  0
 10 11  1  0  0  0  0
 10 40  1  0  0  0  0
 10 41  1  0  0  0  0
 11 12  1  0  0  0  0
 12 17  1  0  0  0  0
 12 13  2  0  0  0  0
 13 14  1  0  0  0  0
 14 15  2  0  0  0  0
 14 42  1  0  0  0  0
 15 16  1  0  0  0  0
 16 20  1  0  0  0  0
 16 17  2  0  0  0  0
 17 18  1  0  0  0  0
 18 19  2  0  0  0  0
 19 20  1  0  0  0  0
 19 43  1  0  0  0  0
 20 21  1  0  0  0  0
 21 22  1  0  0  0  0
 21 44  1  0  0  0  0
 21 45  1  0  0  0  0
 22 23  1  0  0  0  0
 22 24  1  0  0  0  0
 22 46  1  0  0  0  0
 23 47  1  0  0  0  0
 24 28  1  0  0  0  0
 24 25  1  0  0  0  0
 24 48  1  0  0  0  0
 25 26  1  0  0  0  0
 25 49  1  0  0  0  0
 25 50  1  0  0  0  0
 26 27  1  0  0  0  0
 26 51  1  0  0  0  0
 26 52  1  0  0  0  0
 27 28  1  0  0  0  0
 27 53  1  0  0  0  0
 27 54  1  0  0  0  0
M  END
> <s_m_source_file>
AV-unprocessed.smi

> <i_m_source_file_index>
235

> <i_lp_mmshare_version>
43012

> <i_f3d_flags>
0

> <s_epik_input>
W0NIMl0xW0NIMl1bQ0hdMVtOSF1DKD1PKVtDQEBIXTJbQ0gyXVtDSDJdW0NIMl1OMmMobltjSF1uMyljKGMzNCluW2NIXW40W0NIMl1bQ0BIXShbT0hdKVtDQEBIXTVbQ0gyXVtDSDJdW0NIMl1PNQ==

> <s_epik_cmdline>
J2VwaWtfcHl0aG9uJywgJy1waCcsICc3LjAnLCAnLXRuJywgJzgnLCAnLW1hJywgJzIwMCcsICctbWV0YWxfYmluZGluZycsICctaW1hZScsICc8aW5maWxlLm1hZT4nLCAnLW9tYWUnLCAnPG91dGZpbGUubWFlPic=

> <r_lp_tautomer_probability>
1

> <r_epik_Ionization_Penalty>
0.000526714

> <r_epik_Ionization_Penalty_Charging>
0

> <r_epik_Ionization_Penalty_Neutral>
0.000526714

> <r_epik_State_Penalty>
0.000272704

> <r_epik_Charging_Adjusted_Penalty>
0.000272704

> <i_epik_Tot_Q>
0

> <i_epik_Tot_abs_Q>
0

> <r_epik_Metal_State_Penalty>
-0

> <b_epik_Metal_Only>
0

> <s_lp_Force_Field>
OPLS_2005

> <r_lp_Energy>
59.397

> <b_lp_Chiralities_Consistent>
1

> <s_lp_Variant>
AV-unprocessed.smi:235-5

> <Gold.Version>
5.8.1

> <Gold.Id.Protein>
6NUR|6NUR_protein|mol2

> <Gold.PLP.Fitness>
48.5173

> <Gold.PLP.PLP>
-44.1440

> <Gold.PLP.part.hbond>
-2.8444

> <Gold.PLP.part.metal>
0.0000

> <Gold.PLP.part.buried>
-3.9854

> <Gold.PLP.part.nonpolar>
-39.4619

> <Gold.PLP.part.repulsive>
2.4728

> <Gold.PLP.ligand.clash>
0.0000

> <Gold.PLP.ligand.torsion>
0.9654

> <Gold.PLP.Chemscore.Hbond>
2.0000

> <Gold.PLP.Chemscore.CHOScore>
0.0000

> <Gold.PLP.Chemscore.Metal>
0.0000

> <Gold.Chemscore.Hbonds>
donor molecule, donor type, donor heavy atom, donor atom, acceptor molecule, acceptor atom, score
      L1  H     3    29       P1  7948  0.68
      L1  H    23    47       P1  8028  1.00

> <Gold.PLP.Chemscore.Internal.Correction>
0.3041

> <Gold.Rescore>
     Score         DG    S(hbond)    S(metal)    S(lipo)     H(rot)  DE(clash)    DE(int)     intcor
     13.47     -15.84       1.89        0.00     100.23       3.00       1.45       0.92       ----

> <Gold.Chemscore.Fitness>
13.4663

> <Gold.Chemscore.DG>
-15.8410

> <Gold.Chemscore.ZeroCoef>
-5.4800

> <Gold.Chemscore.Hbond>
1.8895

> <Gold.Chemscore.Metal>
0.0000

> <Gold.Chemscore.Lipo>
100.2338

> <Gold.Chemscore.Internal_Hbond>
0.0000

> <Gold.Chemscore.DEClash>
1.4497

> <Gold.Chemscore.DEInternal>
0.9250

> <Gold.Chemscore.Rot>
2.9989

> <Gold.Chemscore.Internal.Correction>
   9.000000E+99

> <Gold.Chemscore.Hbonds>
donor molecule, donor type, donor heavy atom, donor atom, acceptor molecule, acceptor atom, score
      L1  H     3    29       P1  7948  0.67
      L1  H    23    47       P1  8028  0.88

> <Gold.Chemscore.Hbond.Weighted>
-6.3109

> <Gold.Chemscore.Metal.Weighted>
-0.0000

> <Gold.Chemscore.Lipo.Weighted>
-11.7274

> <Gold.Chemscore.Internal_Hbond.Weighted>
0.0000

> <Gold.Chemscore.DEClash.Weighted>
1.4497

> <Gold.Chemscore.DEInternal.Weighted>
0.9250

> <Gold.Chemscore.Rot.Weighted>
7.6772

> <Gold.Chemscore.Internal.Correction.Weighted>
   9.000000E+99

> <Gold.Protein.RotatedTorsions>
[ 6907 6896 6895 6894 ] final   21.72 input  -60.11 | X-H torsion
[ 7974 7965 7964 7962 ] final  -11.42 input  175.53 | X-H torsion
[ 8008 7997 7996 7995 ] final -149.34 input   59.86 | X-H torsion
[ 10167 10162 10161 10158 ] final  -87.36 input  -65.29 | X-H torsion
[ 10718 10713 10712 10709 ] final  127.01 input   66.30 | X-H torsion
[ 10763 10752 10751 10750 ] final  162.93 input  -60.55 | X-H torsion
[ 11005 11000 10999 10996 ] final -176.35 input  -57.11 | X-H torsion

> <Gold.Protein.ActiveResidues>
 VAL166  LYS551  ARG553  GLY616  TRP617  ASP618  TYR619  PRO620  LYS621  CYS622 
 ASP623  PHE694  ASN695  SER759  ASP760  ASP761  ALA762  ILE779  LEU786  VAL792 
 PHE793  MET794  SER795  GLU796  ALA797  LYS798  CYS799  TRP800  GLU811  SER814 

> <Gold.Protein.RotatedAtoms>
  151.9161  135.0318  160.0518 H   0  0  0  0  0  0  0  0  0  0  0  0  # atno 6907 bound_to 6896
  152.2239  133.5000  159.5186 H   0  0  0  0  0  0  0  0  0  0  0  0  # atno 6908 bound_to 6896
  150.7007  134.1223  159.4082 H   0  0  0  0  0  0  0  0  0  0  0  0  # atno 6909 bound_to 6896
  146.2188  140.2908  142.8368 H   0  0  0  0  0  0  0  0  0  0  0  0  # atno 7974 bound_to 7965
  155.6061  140.0667  157.2719 H   0  0  0  0  0  0  0  0  0  0  0  0  # atno 8008 bound_to 7997
  154.4266  140.1809  156.1271 H   0  0  0  0  0  0  0  0  0  0  0  0  # atno 8009 bound_to 7997
  156.0121  140.3325  155.6955 H   0  0  0  0  0  0  0  0  0  0  0  0  # atno 8010 bound_to 7997
  140.3852  143.2730  151.9334 H   0  0  0  0  0  0  0  0  0  0  0  0  # atno 10167 bound_to 10162
  157.5369  131.1097  150.8920 H   0  0  0  0  0  0  0  0  0  0  0  0  # atno 10718 bound_to 10713
  154.2859  135.2762  155.2676 H   0  0  0  0  0  0  0  0  0  0  0  0  # atno 10763 bound_to 10752
  154.5177  135.5765  153.6659 H   0  0  0  0  0  0  0  0  0  0  0  0  # atno 10764 bound_to 10752
  152.9922  135.6196  154.3021 H   0  0  0  0  0  0  0  0  0  0  0  0  # atno 10765 bound_to 10752
  140.4530  134.6325  157.4809 H   0  0  0  0  0  0  0  0  0  0  0  0  # atno 11005 bound_to 11000
  144.9128  140.7778  143.5796 LP  0  0  0  0  0  0  0  0  0  0  0  0  # atno 17320 bound_to 7965
  145.2839  139.1908  143.4776 LP  0  0  0  0  0  0  0  0  0  0  0  0  # atno 17321 bound_to 7965
  139.4792  144.5780  151.7979 LP  0  0  0  0  0  0  0  0  0  0  0  0  # atno 17342 bound_to 10162
  140.4896  144.1329  150.5948 LP  0  0  0  0  0  0  0  0  0  0  0  0  # atno 17343 bound_to 10162
  156.9484  130.5411  149.5282 LP  0  0  0  0  0  0  0  0  0  0  0  0  # atno 17370 bound_to 10713
  156.0466  130.5541  150.8895 LP  0  0  0  0  0  0  0  0  0  0  0  0  # atno 17371 bound_to 10713
  139.9994  134.6860  155.9555 LP  0  0  0  0  0  0  0  0  0  0  0  0  # atno 17394 bound_to 11000
  141.1655  133.6537  156.4466 LP  0  0  0  0  0  0  0  0  0  0  0  0  # atno 17395 bound_to 11000

$$$$
