AV-unprocessed.smi:2751|AV-procd|sdf|10597|dock3
  -GOLD-   2272015 53D 1   1.00000     0.00000
 Structure written by MMmdl.
 35 36  0  0  0  0  0  0  0  0  2 V2000
  146.7002  132.9835  154.1359 O   0  0  0  0  0  0  0  0  0  0  0  0
  147.2777  133.7946  153.4113 C   0  0  0  0  0  0  0  0  0  0  0  0
  148.3761  134.4708  153.7793 N   0  0  0  0  0  0  0  0  0  0  0  0
  149.0448  134.3385  155.0688 C   0  0  0  0  0  0  0  0  0  0  0  0
  150.5169  134.7789  154.9934 C   0  0  0  0  0  0  0  0  0  0  0  0
  150.7033  136.2810  155.2602 C   0  0  2  0  0  0  0  0  0  0  0  0
  149.4162  137.0806  154.9793 C   0  0  0  0  0  0  0  0  0  0  0  0
  149.6593  138.5802  155.1830 C   0  0  0  0  0  0  0  0  0  0  0  0
  150.8670  139.0255  154.3519 C   0  0  0  0  0  0  0  0  0  0  0  0
  152.0796  138.1299  154.6509 C   0  0  0  0  0  0  0  0  0  0  0  0
  151.7451  136.7656  154.4144 O   0  0  0  0  0  0  0  0  0  0  0  0
  146.8941  134.1121  152.1653 N   0  0  0  0  0  0  0  0  0  0  0  0
  145.7902  133.5587  151.4768 C   0  0  0  0  0  0  0  0  0  0  0  0
  145.5347  133.7693  150.1866 N   0  3  0  0  0  0  0  0  0  0  0  0
  144.3983  133.0794  149.8440 C   0  0  0  0  0  0  0  0  0  0  0  0
  143.9850  132.4470  150.9921 C   0  0  0  0  0  0  0  0  0  0  0  0
  144.8502  132.7388  152.0275 O   0  0  0  0  0  0  0  0  0  0  0  0
  148.7865  135.1178  153.1216 H   0  0  0  0  0  0  0  0  0  0  0  0
  148.5113  134.9116  155.8292 H   0  0  0  0  0  0  0  0  0  0  0  0
  148.9835  133.2927  155.3712 H   0  0  0  0  0  0  0  0  0  0  0  0
  151.1112  134.2048  155.7055 H   0  0  0  0  0  0  0  0  0  0  0  0
  150.9115  134.5436  154.0041 H   0  0  0  0  0  0  0  0  0  0  0  0
  150.9930  136.4188  156.3037 H   0  0  0  0  0  0  0  0  0  0  0  0
  149.0868  136.9009  153.9550 H   0  0  0  0  0  0  0  0  0  0  0  0
  148.6096  136.7430  155.6308 H   0  0  0  0  0  0  0  0  0  0  0  0
  148.7736  139.1517  154.9045 H   0  0  0  0  0  0  0  0  0  0  0  0
  149.8449  138.7822  156.2387 H   0  0  0  0  0  0  0  0  0  0  0  0
  150.6236  138.9665  153.2903 H   0  0  0  0  0  0  0  0  0  0  0  0
  151.1059  140.0684  154.5618 H   0  0  0  0  0  0  0  0  0  0  0  0
  152.9150  138.4041  154.0064 H   0  0  0  0  0  0  0  0  0  0  0  0
  152.4159  138.2602  155.6807 H   0  0  0  0  0  0  0  0  0  0  0  0
  146.0637  134.3336  149.5335 H   0  0  0  0  0  0  0  0  0  0  0  0
  144.0050  133.1053  148.8378 H   0  0  0  0  0  0  0  0  0  0  0  0
  143.1557  131.7966  151.2290 H   0  0  0  0  0  0  0  0  0  0  0  0
  147.4431  134.7954  151.6646 H   0  0  0  0  0  0  0  0  0  0  0  0
  1  2  2  0  0  0  0
  2 12  1  0  0  0  0
  2  3  1  0  0  0  0
  3  4  1  0  0  0  0
  3 18  1  0  0  0  0
  4  5  1  0  0  0  0
  4 19  1  0  0  0  0
  4 20  1  0  0  0  0
  5  6  1  0  0  0  0
  5 21  1  0  0  0  0
  5 22  1  0  0  0  0
  6 11  1  0  0  0  0
  6  7  1  0  0  0  0
  6 23  1  0  0  0  0
  7  8  1  0  0  0  0
  7 24  1  0  0  0  0
  7 25  1  0  0  0  0
  8  9  1  0  0  0  0
  8 26  1  0  0  0  0
  8 27  1  0  0  0  0
  9 10  1  0  0  0  0
  9 28  1  0  0  0  0
  9 29  1  0  0  0  0
 10 11  1  0  0  0  0
 10 30  1  0  0  0  0
 10 31  1  0  0  0  0
 12 13  1  0  0  0  0
 12 35  1  0  0  0  0
 13 17  1  0  0  0  0
 13 14  2  0  0  0  0
 14 32  1  0  0  0  0
 14 15  1  0  0  0  0
 15 33  1  0  0  0  0
 15 16  2  0  0  0  0
 16 34  1  0  0  0  0
 16 17  1  0  0  0  0
M  CHG  1  14   1
M  END
> <s_m_source_file>
AV-unprocessed.smi

> <i_m_source_file_index>
2751

> <i_lp_mmshare_version>
43012

> <i_f3d_flags>
0

> <s_epik_input>
bzFbY0hdW2NIXW5jMVtOSF1DKD1PKVtOSF1bQ0gyXVtDSDJdW0NAQEhdMltDSDJdW0NIMl1bQ0gyXVtDSDJdTzI=

> <s_epik_cmdline>
J2VwaWtfcHl0aG9uJywgJy1waCcsICc3LjAnLCAnLXRuJywgJzgnLCAnLW1hJywgJzIwMCcsICctbWV0YWxfYmluZGluZycsICctaW1hZScsICc8aW5maWxlLm1hZT4nLCAnLW9tYWUnLCAnPG91dGZpbGUubWFlPic=

> <r_epik_Ionization_Penalty>
6.63408

> <r_epik_Ionization_Penalty_Charging>
6.57733

> <r_epik_Ionization_Penalty_Neutral>
0.0567487

> <r_epik_State_Penalty>
1.8175

> <r_epik_Charging_Adjusted_Penalty>
8.39483

> <i_epik_Tot_Q>
1

> <i_epik_Tot_abs_Q>
1

> <r_epik_Metal_State_Penalty>
1.83396

> <b_epik_Metal_Only>
0

> <s_lp_Force_Field>
OPLS_2005

> <r_lp_Energy>
16.4857

> <b_lp_Chiralities_Consistent>
1

> <s_lp_Variant>
AV-unprocessed.smi:2751-3

> <Gold.Version>
5.8.1

> <Gold.Id.Protein>
6NUR|6NUR_protein|mol2

> <Gold.PLP.Fitness>
37.1157

> <Gold.PLP.PLP>
-27.6033

> <Gold.PLP.part.hbond>
-4.0000

> <Gold.PLP.part.metal>
0.0000

> <Gold.PLP.part.buried>
-4.2720

> <Gold.PLP.part.nonpolar>
-19.2401

> <Gold.PLP.part.repulsive>
0.4560

> <Gold.PLP.ligand.clash>
0.0000

> <Gold.PLP.ligand.torsion>
0.8538

> <Gold.PLP.Chemscore.Hbond>
3.7360

> <Gold.PLP.Chemscore.CHOScore>
0.0000

> <Gold.PLP.Chemscore.Metal>
0.0000

> <Gold.Chemscore.Hbonds>
donor molecule, donor type, donor heavy atom, donor atom, acceptor molecule, acceptor atom, score
      L1  H     3    18       P1  7948  1.00
      L1  H    12    35       P1  7948  0.89
      L1  H    14    32       P1  7921  0.83
      P1  H 10752 10765       L1    11  1.00

> <Gold.PLP.Chemscore.Internal.Correction>
0.0120

> <Gold.Rescore>
     Score         DG    S(hbond)    S(metal)    S(lipo)     H(rot)  DE(clash)    DE(int)     intcor
     15.84     -18.04       3.19        0.00      52.45       1.66       0.00       2.21       ----

> <Gold.Chemscore.Fitness>
15.8374

> <Gold.Chemscore.DG>
-18.0450

> <Gold.Chemscore.ZeroCoef>
-5.4800

> <Gold.Chemscore.Hbond>
3.1949

> <Gold.Chemscore.Metal>
0.0000

> <Gold.Chemscore.Lipo>
52.4530

> <Gold.Chemscore.Internal_Hbond>
0.0000

> <Gold.Chemscore.DEClash>
0.0004

> <Gold.Chemscore.DEInternal>
2.2071

> <Gold.Chemscore.Rot>
1.6575

> <Gold.Chemscore.Internal.Correction>
   9.000000E+99

> <Gold.Chemscore.Hbonds>
donor molecule, donor type, donor heavy atom, donor atom, acceptor molecule, acceptor atom, score
      L1  H     3    18       P1  7948  0.50
      L1  H    12    35       P1  7948  0.48
      L1  H    14    32       P1  7921  0.25
      P1  H 10752 10765       L1    11  0.67

> <Gold.Chemscore.Hbond.Weighted>
-10.6711

> <Gold.Chemscore.Metal.Weighted>
-0.0000

> <Gold.Chemscore.Lipo.Weighted>
-6.1370

> <Gold.Chemscore.Internal_Hbond.Weighted>
0.0000

> <Gold.Chemscore.DEClash.Weighted>
0.0004

> <Gold.Chemscore.DEInternal.Weighted>
2.2071

> <Gold.Chemscore.Rot.Weighted>
4.2431

> <Gold.Chemscore.Internal.Correction.Weighted>
   9.000000E+99

> <Gold.Protein.RotatedTorsions>
[ 6907 6896 6895 6894 ] final  -92.63 input  -60.11 | X-H torsion
[ 7974 7965 7964 7962 ] final    7.23 input  175.53 | X-H torsion
[ 8008 7997 7996 7995 ] final  -15.46 input   59.86 | X-H torsion
[ 10167 10162 10161 10158 ] final  -36.88 input  -65.29 | X-H torsion
[ 10718 10713 10712 10709 ] final  -41.77 input   66.30 | X-H torsion
[ 10763 10752 10751 10750 ] final  166.57 input  -60.55 | X-H torsion
[ 11005 11000 10999 10996 ] final  -88.26 input  -57.11 | X-H torsion

> <Gold.Protein.ActiveResidues>
 VAL166  LYS551  ARG553  GLY616  TRP617  ASP618  TYR619  PRO620  LYS621  CYS622 
 ASP623  PHE694  ASN695  SER759  ASP760  ASP761  ALA762  ILE779  LEU786  VAL792 
 PHE793  MET794  SER795  GLU796  ALA797  LYS798  CYS799  TRP800  GLU811  SER814 

> <Gold.Protein.RotatedAtoms>
  150.6909  134.2092  159.4352 H   0  0  0  0  0  0  0  0  0  0  0  0  # atno 6907 bound_to 6896
  152.0055  134.9902  160.0576 H   0  0  0  0  0  0  0  0  0  0  0  0  # atno 6908 bound_to 6896
  152.1538  133.4504  159.4864 H   0  0  0  0  0  0  0  0  0  0  0  0  # atno 6909 bound_to 6896
  146.2428  140.0115  142.8406 H   0  0  0  0  0  0  0  0  0  0  0  0  # atno 7974 bound_to 7965
  154.5129  140.2196  155.9122 H   0  0  0  0  0  0  0  0  0  0  0  0  # atno 8008 bound_to 7997
  156.1573  140.3149  155.8714 H   0  0  0  0  0  0  0  0  0  0  0  0  # atno 8009 bound_to 7997
  155.3821  140.0473  157.3034 H   0  0  0  0  0  0  0  0  0  0  0  0  # atno 8010 bound_to 7997
  140.7132  143.3379  151.2423 H   0  0  0  0  0  0  0  0  0  0  0  0  # atno 10167 bound_to 10162
  156.2668  130.4202  149.8481 H   0  0  0  0  0  0  0  0  0  0  0  0  # atno 10718 bound_to 10713
  154.3410  135.2754  155.2422 H   0  0  0  0  0  0  0  0  0  0  0  0  # atno 10763 bound_to 10752
  154.4693  135.5887  153.6314 H   0  0  0  0  0  0  0  0  0  0  0  0  # atno 10764 bound_to 10752
  152.9857  135.6084  154.3611 H   0  0  0  0  0  0  0  0  0  0  0  0  # atno 10765 bound_to 10752
  141.1604  133.7559  156.9426 H   0  0  0  0  0  0  0  0  0  0  0  0  # atno 11005 bound_to 11000
  145.1324  140.9525  143.4537 LP  0  0  0  0  0  0  0  0  0  0  0  0  # atno 17320 bound_to 7965
  145.0375  139.3288  143.5993 LP  0  0  0  0  0  0  0  0  0  0  0  0  # atno 17321 bound_to 7965
  139.6878  143.9743  152.2843 LP  0  0  0  0  0  0  0  0  0  0  0  0  # atno 17342 bound_to 10162
  139.9395  144.6691  150.8281 LP  0  0  0  0  0  0  0  0  0  0  0  0  # atno 17343 bound_to 10162
  156.5977  130.8533  151.3424 LP  0  0  0  0  0  0  0  0  0  0  0  0  # atno 17370 bound_to 10713
  157.7270  130.9637  150.1681 LP  0  0  0  0  0  0  0  0  0  0  0  0  # atno 17371 bound_to 10713
  140.1311  134.9355  157.2338 LP  0  0  0  0  0  0  0  0  0  0  0  0  # atno 17394 bound_to 11000
  140.2952  134.3195  155.7304 LP  0  0  0  0  0  0  0  0  0  0  0  0  # atno 17395 bound_to 11000

$$$$
