AV-unprocessed.smi:169|AV-procd|sdf|1403|dock7
  -GOLD-   2262019153D 1   1.00000     0.00000
 Structure written by MMmdl.
 56 60  0  0  0  0  0  0  0  0  2 V2000
  144.1657  134.2911  152.0967 C   0  0  0  0  0  0  0  0  0  0  0  0
  145.5444  134.7385  151.5880 C   0  0  0  0  0  0  0  0  0  0  0  0
  146.2246  135.7027  152.4979 N   0  3  1  0  0  0  0  0  0  0  0  0
  145.5456  137.0480  152.5965 C   0  0  0  0  0  0  0  0  0  0  0  0
  144.1294  137.0925  153.2921 C   0  0  0  0  0  0  0  0  0  0  0  0
  144.1046  136.9550  154.8585 C   0  0  1  0  0  0  0  0  0  0  0  0
  143.3426  135.6987  155.4103 C   0  0  0  0  0  0  0  0  0  0  0  0
  144.4343  134.5860  155.5747 C   0  0  0  0  0  0  0  0  0  0  0  0
  145.6290  135.3155  154.9557 C   0  0  3  0  0  0  0  0  0  0  0  0
  146.6367  135.0676  153.8096 C   0  0  0  0  0  0  0  0  0  0  0  0
  145.4643  136.7140  155.3087 N   0  0  0  0  0  0  0  0  0  0  0  0
  145.8716  137.0934  156.5524 C   0  0  0  0  0  0  0  0  0  0  0  0
  145.5289  138.3229  157.0207 N   0  0  0  0  0  0  0  0  0  0  0  0
  145.9089  138.7192  158.2382 C   0  0  0  0  0  0  0  0  0  0  0  0
  146.6312  138.0569  159.1420 N   0  0  0  0  0  0  0  0  0  0  0  0
  146.9926  136.8265  158.6792 C   0  0  0  0  0  0  0  0  0  0  0  0
  146.6644  136.2723  157.4086 C   0  0  0  0  0  0  0  0  0  0  0  0
  147.2264  135.0056  157.2946 N   0  0  0  0  0  0  0  0  0  0  0  0
  147.8419  134.8205  158.4298 C   0  0  0  0  0  0  0  0  0  0  0  0
  147.7394  135.8578  159.3282 N   0  0  0  0  0  0  0  0  0  0  0  0
  148.3205  135.9242  160.6619 C   0  0  0  0  0  0  0  0  0  0  0  0
  147.2922  135.9533  161.8187 C   0  0  0  0  0  0  0  0  0  0  0  0
  146.7373  134.5339  161.9979 C   0  0  0  0  0  0  0  0  0  0  0  0
  145.9420  134.4383  163.1622 O   0  0  0  0  0  0  0  0  0  0  0  0
  147.7187  136.6625  163.1170 C   0  0  0  0  0  0  0  0  0  0  0  0
  146.9734  137.8498  162.7739 O   0  0  0  0  0  0  0  0  0  0  0  0
  146.2508  137.0838  161.7870 C   0  0  0  0  0  0  0  0  0  0  0  0
  143.6460  133.7156  151.3303 H   0  0  0  0  0  0  0  0  0  0  0  0
  143.5378  135.1470  152.3469 H   0  0  0  0  0  0  0  0  0  0  0  0
  144.2398  133.6526  152.9767 H   0  0  0  0  0  0  0  0  0  0  0  0
  146.1779  133.8724  151.3966 H   0  0  0  0  0  0  0  0  0  0  0  0
  145.3889  135.2194  150.6215 H   0  0  0  0  0  0  0  0  0  0  0  0
  146.2271  137.7457  153.0851 H   0  0  0  0  0  0  0  0  0  0  0  0
  145.4429  137.4547  151.5918 H   0  0  0  0  0  0  0  0  0  0  0  0
  143.6829  138.0581  153.0526 H   0  0  0  0  0  0  0  0  0  0  0  0
  143.4614  136.3653  152.8311 H   0  0  0  0  0  0  0  0  0  0  0  0
  143.6749  137.8671  155.2730 H   0  0  0  0  0  0  0  0  0  0  0  0
  142.8989  135.9204  156.3817 H   0  0  0  0  0  0  0  0  0  0  0  0
  142.5329  135.3900  154.7485 H   0  0  0  0  0  0  0  0  0  0  0  0
  144.6202  134.3908  156.6317 H   0  0  0  0  0  0  0  0  0  0  0  0
  144.1677  133.6339  155.1058 H   0  0  0  0  0  0  0  0  0  0  0  0
  144.9874  135.0673  154.1198 H   0  0  0  0  0  0  0  0  0  0  0  0
  146.8405  134.0018  153.6963 H   0  0  0  0  0  0  0  0  0  0  0  0
  147.5900  135.5169  154.0881 H   0  0  0  0  0  0  0  0  0  0  0  0
  145.5865  139.7078  158.5302 H   0  0  0  0  0  0  0  0  0  0  0  0
  148.3903  133.9147  158.6421 H   0  0  0  0  0  0  0  0  0  0  0  0
  148.9889  135.0689  160.7685 H   0  0  0  0  0  0  0  0  0  0  0  0
  148.9619  136.8056  160.6992 H   0  0  0  0  0  0  0  0  0  0  0  0
  146.1418  134.2320  161.1358 H   0  0  0  0  0  0  0  0  0  0  0  0
  147.5459  133.8073  162.0844 H   0  0  0  0  0  0  0  0  0  0  0  0
  145.3139  133.7425  163.0409 H   0  0  0  0  0  0  0  0  0  0  0  0
  147.3297  136.1957  164.0235 H   0  0  0  0  0  0  0  0  0  0  0  0
  148.7875  136.8449  163.2170 H   0  0  0  0  0  0  0  0  0  0  0  0
  146.1648  137.5936  160.8283 H   0  0  0  0  0  0  0  0  0  0  0  0
  145.2659  136.7858  162.1515 H   0  0  0  0  0  0  0  0  0  0  0  0
  147.1023  135.8890  152.0341 H   0  0  0  0  0  0  0  0  0  0  0  0
  1  2  1  0  0  0  0
  1 28  1  0  0  0  0
  1 29  1  0  0  0  0
  1 30  1  0  0  0  0
  2  3  1  0  0  0  0
  2 31  1  0  0  0  0
  2 32  1  0  0  0  0
  3 10  1  0  0  0  0
  3  4  1  0  0  0  0
  3 56  1  0  0  0  0
  4  5  1  0  0  0  0
  4 33  1  0  0  0  0
  4 34  1  0  0  0  0
  5  6  1  0  0  0  0
  5 35  1  0  0  0  0
  5 36  1  0  0  0  0
  6 11  1  0  0  0  0
  6  7  1  0  0  0  0
  6 37  1  0  0  0  0
  7  8  1  0  0  0  0
  7 38  1  0  0  0  0
  7 39  1  0  0  0  0
  8  9  1  0  0  0  0
  8 40  1  0  0  0  0
  8 41  1  0  0  0  0
  9 10  1  0  0  0  0
  9 11  1  0  0  0  0
  9 42  1  0  0  0  0
 10 43  1  0  0  0  0
 10 44  1  0  0  0  0
 11 12  1  0  0  0  0
 12 17  1  0  0  0  0
 12 13  2  0  0  0  0
 13 14  1  0  0  0  0
 14 15  2  0  0  0  0
 14 45  1  0  0  0  0
 15 16  1  0  0  0  0
 16 20  1  0  0  0  0
 16 17  2  0  0  0  0
 17 18  1  0  0  0  0
 18 19  2  0  0  0  0
 19 20  1  0  0  0  0
 19 46  1  0  0  0  0
 20 21  1  0  0  0  0
 21 22  1  0  0  0  0
 21 47  1  0  0  0  0
 21 48  1  0  0  0  0
 22 27  1  0  0  0  0
 22 23  1  0  0  0  0
 22 25  1  0  0  0  0
 23 24  1  0  0  0  0
 23 49  1  0  0  0  0
 23 50  1  0  0  0  0
 24 51  1  0  0  0  0
 25 26  1  0  0  0  0
 25 52  1  0  0  0  0
 25 53  1  0  0  0  0
 26 27  1  0  0  0  0
 27 54  1  0  0  0  0
 27 55  1  0  0  0  0
M  CHG  1   3   1
M  END
> <s_m_source_file>
AV-unprocessed.smi

> <i_m_source_file_index>
169

> <i_lp_mmshare_version>
43012

> <i_f3d_flags>
0

> <s_epik_input>
W0NASF0xMltDSDJdW0NIMl1OKFtDSDJdW0NIM10pW0NIMl1bQ0BIXShbQ0gyXVtDSDJdMSlOMmMobltjSF1uMyljKGMzNCluW2NIXW40W0NIMl1DNShbQ0gyXVtPSF0pW0NIMl1PW0NIMl01

> <s_epik_cmdline>
J2VwaWtfcHl0aG9uJywgJy1waCcsICc3LjAnLCAnLXRuJywgJzgnLCAnLW1hJywgJzIwMCcsICctbWV0YWxfYmluZGluZycsICctaW1hZScsICc8aW5maWxlLm1hZT4nLCAnLW9tYWUnLCAnPG91dGZpbGUubWFlPic=

> <r_lp_tautomer_probability>
1

> <r_epik_Ionization_Penalty>
0.00274162

> <r_epik_Ionization_Penalty_Charging>
0.00243722

> <r_epik_Ionization_Penalty_Neutral>
0.000304399

> <r_epik_State_Penalty>
-0

> <r_epik_Charging_Adjusted_Penalty>
0.00243722

> <i_epik_Tot_Q>
1

> <i_epik_Tot_abs_Q>
1

> <r_epik_Metal_State_Penalty>
-0

> <b_epik_Metal_Only>
0

> <s_lp_Force_Field>
OPLS_2005

> <r_lp_Energy>
131.702

> <b_lp_Chiralities_Consistent>
1

> <s_lp_Variant>
AV-unprocessed.smi:169-6

> <Gold.Version>
5.8.1

> <Gold.Id.Protein>
6NUR|6NUR_protein|mol2

> <Gold.PLP.Fitness>
38.9506

> <Gold.PLP.PLP>
-32.2763

> <Gold.PLP.part.hbond>
-5.0000

> <Gold.PLP.part.metal>
0.0000

> <Gold.PLP.part.buried>
-3.9327

> <Gold.PLP.part.nonpolar>
-22.6695

> <Gold.PLP.part.repulsive>
0.0126

> <Gold.PLP.ligand.clash>
0.0000

> <Gold.PLP.ligand.torsion>
0.7728

> <Gold.PLP.Chemscore.Hbond>
2.5928

> <Gold.PLP.Chemscore.CHOScore>
0.0000

> <Gold.PLP.Chemscore.Metal>
0.0000

> <Gold.Chemscore.Hbonds>
donor molecule, donor type, donor heavy atom, donor atom, acceptor molecule, acceptor atom, score
      L1  H     3    56       P1  7948  2.00
      P1  H  6934  6947       L1    15  0.54

> <Gold.PLP.Chemscore.Internal.Correction>
0.4415

> <Gold.Rescore>
     Score         DG    S(hbond)    S(metal)    S(lipo)     H(rot)  DE(clash)    DE(int)     intcor
      8.23     -11.81       1.60        0.00      65.74       2.62       0.05       3.54       ----

> <Gold.Chemscore.Fitness>
8.2280

> <Gold.Chemscore.DG>
-11.8119

> <Gold.Chemscore.ZeroCoef>
-5.4800

> <Gold.Chemscore.Hbond>
1.6018

> <Gold.Chemscore.Metal>
0.0000

> <Gold.Chemscore.Lipo>
65.7431

> <Gold.Chemscore.Internal_Hbond>
0.0000

> <Gold.Chemscore.DEClash>
0.0469

> <Gold.Chemscore.DEInternal>
3.5371

> <Gold.Chemscore.Rot>
2.6212

> <Gold.Chemscore.Internal.Correction>
   9.000000E+99

> <Gold.Chemscore.Hbonds>
donor molecule, donor type, donor heavy atom, donor atom, acceptor molecule, acceptor atom, score
      L1  H     3    56       P1  7948  0.99
      P1  H  6934  6947       L1    15  0.50

> <Gold.Chemscore.Hbond.Weighted>
-5.3502

> <Gold.Chemscore.Metal.Weighted>
-0.0000

> <Gold.Chemscore.Lipo.Weighted>
-7.6919

> <Gold.Chemscore.Internal_Hbond.Weighted>
0.0000

> <Gold.Chemscore.DEClash.Weighted>
0.0469

> <Gold.Chemscore.DEInternal.Weighted>
3.5371

> <Gold.Chemscore.Rot.Weighted>
6.7102

> <Gold.Chemscore.Internal.Correction.Weighted>
   9.000000E+99

> <Gold.Protein.RotatedTorsions>
[ 6907 6896 6895 6894 ] final -143.37 input  -60.11 | X-H torsion
[ 7974 7965 7964 7962 ] final   64.66 input  175.53 | X-H torsion
[ 8008 7997 7996 7995 ] final   69.80 input   59.86 | X-H torsion
[ 10167 10162 10161 10158 ] final   12.04 input  -65.29 | X-H torsion
[ 10718 10713 10712 10709 ] final  -95.72 input   66.30 | X-H torsion
[ 10763 10752 10751 10750 ] final   -4.14 input  -60.55 | X-H torsion
[ 11005 11000 10999 10996 ] final   -7.65 input  -57.11 | X-H torsion

> <Gold.Protein.ActiveResidues>
 VAL166  LYS551  ARG553  GLY616  TRP617  ASP618  TYR619  PRO620  LYS621  CYS622 
 ASP623  PHE694  ASN695  SER759  ASP760  ASP761  ALA762  ILE779  LEU786  VAL792 
 PHE793  MET794  SER795  GLU796  ALA797  LYS798  CYS799  TRP800  GLU811  SER814 

> <Gold.Protein.RotatedAtoms>
  151.0995  133.5254  159.2610 H   0  0  0  0  0  0  0  0  0  0  0  0  # atno 6907 bound_to 6896
  151.2090  135.0473  159.8913 H   0  0  0  0  0  0  0  0  0  0  0  0  # atno 6908 bound_to 6896
  152.5442  134.0814  159.8290 H   0  0  0  0  0  0  0  0  0  0  0  0  # atno 6909 bound_to 6896
  145.8476  139.3234  143.0894 H   0  0  0  0  0  0  0  0  0  0  0  0  # atno 7974 bound_to 7965
  155.7291  140.3492  155.5051 H   0  0  0  0  0  0  0  0  0  0  0  0  # atno 8008 bound_to 7997
  155.9199  140.1065  157.1236 H   0  0  0  0  0  0  0  0  0  0  0  0  # atno 8009 bound_to 7997
  154.4068  140.1251  156.4653 H   0  0  0  0  0  0  0  0  0  0  0  0  # atno 8010 bound_to 7997
  140.6093  143.8441  150.7048 H   0  0  0  0  0  0  0  0  0  0  0  0  # atno 10167 bound_to 10162
  156.0048  130.5121  150.6119 H   0  0  0  0  0  0  0  0  0  0  0  0  # atno 10718 bound_to 10713
  153.3809  135.6998  153.6566 H   0  0  0  0  0  0  0  0  0  0  0  0  # atno 10763 bound_to 10752
  153.5178  135.3618  155.2618 H   0  0  0  0  0  0  0  0  0  0  0  0  # atno 10764 bound_to 10752
  154.8692  135.4150  154.3106 H   0  0  0  0  0  0  0  0  0  0  0  0  # atno 10765 bound_to 10752
  140.7150  133.8876  155.8778 H   0  0  0  0  0  0  0  0  0  0  0  0  # atno 11005 bound_to 11000
  145.9394  140.8990  143.0315 LP  0  0  0  0  0  0  0  0  0  0  0  0  # atno 17320 bound_to 7965
  144.6730  140.1528  143.7428 LP  0  0  0  0  0  0  0  0  0  0  0  0  # atno 17321 bound_to 7965
  140.2006  143.3963  152.1795 LP  0  0  0  0  0  0  0  0  0  0  0  0  # atno 17342 bound_to 10162
  139.5349  144.7199  151.4928 LP  0  0  0  0  0  0  0  0  0  0  0  0  # atno 17343 bound_to 10162
  157.3950  131.0801  151.1360 LP  0  0  0  0  0  0  0  0  0  0  0  0  # atno 17370 bound_to 10713
  157.2039  130.6407  149.5749 LP  0  0  0  0  0  0  0  0  0  0  0  0  # atno 17371 bound_to 10713
  141.0052  134.1096  157.4277 LP  0  0  0  0  0  0  0  0  0  0  0  0  # atno 17394 bound_to 11000
  139.8862  135.0079  156.6484 LP  0  0  0  0  0  0  0  0  0  0  0  0  # atno 17395 bound_to 11000

$$$$
