AV-unprocessed.smi:1872|AV-procd|sdf|7606|dock5
  -GOLD-   22720 9323D 1   1.00000     0.00000
 Structure written by MMmdl.
 40 42  0  0  0  0  0  0  0  0  2 V2000
  149.8371  141.0321  155.0442 C   0  0  0  0  0  0  0  0  0  0  0  0
  150.5156  141.6666  156.2116 C   0  0  0  0  0  0  0  0  0  0  0  0
  150.4060  142.9703  156.5931 N   0  3  0  0  0  0  0  0  0  0  0  0
  151.1845  143.1969  157.7290 C   0  0  0  0  0  0  0  0  0  0  0  0
  151.3919  144.3532  158.4749 C   0  0  0  0  0  0  0  0  0  0  0  0
  152.2559  144.2441  159.5843 C   0  0  0  0  0  0  0  0  0  0  0  0
  152.8759  143.0216  159.9142 C   0  0  0  0  0  0  0  0  0  0  0  0
  152.6574  141.8559  159.1509 C   0  0  0  0  0  0  0  0  0  0  0  0
  151.7997  141.9709  158.0569 C   0  0  0  0  0  0  0  0  0  0  0  0
  151.3554  141.0555  157.0947 N   0  0  0  0  0  0  0  0  0  0  0  0
  151.8103  139.6571  157.1491 C   0  0  0  0  0  0  0  0  0  0  0  0
  151.9992  139.0298  155.7537 C   0  0  1  0  0  0  0  0  0  0  0  0
  153.3594  139.0911  155.3698 O   0  0  0  0  0  0  0  0  0  0  0  0
  151.4468  137.6136  155.7135 C   0  0  0  0  0  0  0  0  0  0  0  0
  152.0246  136.6124  156.5214 C   0  0  0  0  0  0  0  0  0  0  0  0
  151.5322  135.2941  156.4797 C   0  0  0  0  0  0  0  0  0  0  0  0
  150.4638  134.9528  155.6263 C   0  0  0  0  0  0  0  0  0  0  0  0
  150.0214  133.6492  155.6405 O   0  0  0  0  0  0  0  0  0  0  0  0
  150.2127  132.8673  154.5445 C   0  0  0  0  0  0  0  0  0  0  0  0
  149.9509  131.5743  154.8532 F   0  0  0  0  0  0  0  0  0  0  0  0
  149.3655  133.2301  153.5501 F   0  0  0  0  0  0  0  0  0  0  0  0
  149.8785  135.9605  154.8228 C   0  0  0  0  0  0  0  0  0  0  0  0
  150.3712  137.2792  154.8628 C   0  0  0  0  0  0  0  0  0  0  0  0
  149.2564  141.7696  154.4898 H   0  0  0  0  0  0  0  0  0  0  0  0
  149.1645  140.2440  155.3833 H   0  0  0  0  0  0  0  0  0  0  0  0
  150.5749  140.5955  154.3710 H   0  0  0  0  0  0  0  0  0  0  0  0
  150.9192  145.2914  158.2229 H   0  0  0  0  0  0  0  0  0  0  0  0
  152.4483  145.1157  160.1931 H   0  0  0  0  0  0  0  0  0  0  0  0
  153.5342  142.9766  160.7697 H   0  0  0  0  0  0  0  0  0  0  0  0
  153.1433  140.9271  159.4100 H   0  0  0  0  0  0  0  0  0  0  0  0
  152.7254  139.5967  157.7382 H   0  0  0  0  0  0  0  0  0  0  0  0
  151.0574  139.0978  157.7061 H   0  0  0  0  0  0  0  0  0  0  0  0
  151.4487  139.6254  155.0243 H   0  0  0  0  0  0  0  0  0  0  0  0
  153.7652  138.2624  155.5751 H   0  0  0  0  0  0  0  0  0  0  0  0
  152.8506  136.8508  157.1756 H   0  0  0  0  0  0  0  0  0  0  0  0
  151.9821  134.5364  157.1046 H   0  0  0  0  0  0  0  0  0  0  0  0
  151.2402  132.9214  154.1841 H   0  0  0  0  0  0  0  0  0  0  0  0
  149.0467  135.7369  154.1715 H   0  0  0  0  0  0  0  0  0  0  0  0
  149.9179  138.0328  154.2356 H   0  0  0  0  0  0  0  0  0  0  0  0
  149.8384  143.6544  156.1094 H   0  0  0  0  0  0  0  0  0  0  0  0
  1  2  1  0  0  0  0
  1 24  1  0  0  0  0
  1 25  1  0  0  0  0
  1 26  1  0  0  0  0
  2 10  1  0  0  0  0
  2  3  2  0  0  0  0
  3  4  1  0  0  0  0
  3 40  1  0  0  0  0
  4  9  2  0  0  0  0
  4  5  1  0  0  0  0
  5  6  2  0  0  0  0
  5 27  1  0  0  0  0
  6  7  1  0  0  0  0
  6 28  1  0  0  0  0
  7  8  2  0  0  0  0
  7 29  1  0  0  0  0
  8  9  1  0  0  0  0
  8 30  1  0  0  0  0
  9 10  1  0  0  0  0
 10 11  1  0  0  0  0
 11 12  1  0  0  0  0
 11 31  1  0  0  0  0
 11 32  1  0  0  0  0
 12 13  1  0  0  0  0
 12 14  1  0  0  0  0
 12 33  1  0  0  0  0
 13 34  1  0  0  0  0
 14 23  1  0  0  0  0
 14 15  2  0  0  0  0
 15 16  1  0  0  0  0
 15 35  1  0  0  0  0
 16 17  2  0  0  0  0
 16 36  1  0  0  0  0
 17 18  1  0  0  0  0
 17 22  1  0  0  0  0
 18 19  1  0  0  0  0
 19 20  1  0  0  0  0
 19 21  1  0  0  0  0
 19 37  1  0  0  0  0
 22 23  2  0  0  0  0
 22 38  1  0  0  0  0
 23 39  1  0  0  0  0
M  CHG  1   3   1
M  END
> <s_m_source_file>
AV-unprocessed.smi

> <i_m_source_file_index>
1872

> <i_lp_mmshare_version>
43012

> <i_f3d_flags>
0

> <s_epik_input>
W2NIXTFbY0hdW2NIXVtjSF1jKGMxMiluKGMobjIpW0NIM10pW0NIMl1bQ0BIXShbT0hdKWMzW2NIXVtjSF1jKE9bQ0hdKEYpRilbY0hdW2NIXTM=

> <s_epik_cmdline>
J2VwaWtfcHl0aG9uJywgJy1waCcsICc3LjAnLCAnLXRuJywgJzgnLCAnLW1hJywgJzIwMCcsICctbWV0YWxfYmluZGluZycsICctaW1hZScsICc8aW5maWxlLm1hZT4nLCAnLW9tYWUnLCAnPG91dGZpbGUubWFlPic=

> <r_lp_tautomer_probability>
1

> <r_epik_Ionization_Penalty>
0.963868

> <r_epik_Ionization_Penalty_Charging>
0.963868

> <r_epik_Ionization_Penalty_Neutral>
2.50501e-07

> <r_epik_State_Penalty>
1.00924

> <r_epik_Charging_Adjusted_Penalty>
1.9731

> <i_epik_Tot_Q>
1

> <i_epik_Tot_abs_Q>
1

> <r_epik_Metal_State_Penalty>
4.98304

> <b_epik_Metal_Only>
0

> <s_lp_Force_Field>
OPLS_2005

> <r_lp_Energy>
14.447

> <b_lp_Chiralities_Consistent>
1

> <s_lp_Variant>
AV-unprocessed.smi:1872-4

> <Gold.Version>
5.8.1

> <Gold.Id.Protein>
6NUR|6NUR_protein|mol2

> <Gold.PLP.Fitness>
55.4124

> <Gold.PLP.PLP>
-48.5106

> <Gold.PLP.part.hbond>
-1.9941

> <Gold.PLP.part.metal>
0.0000

> <Gold.PLP.part.buried>
-4.7464

> <Gold.PLP.part.nonpolar>
-41.8007

> <Gold.PLP.part.repulsive>
0.0774

> <Gold.PLP.ligand.clash>
0.0000

> <Gold.PLP.ligand.torsion>
1.0737

> <Gold.PLP.Chemscore.Hbond>
3.0000

> <Gold.PLP.Chemscore.CHOScore>
0.0000

> <Gold.PLP.Chemscore.Metal>
0.0000

> <Gold.Chemscore.Hbonds>
donor molecule, donor type, donor heavy atom, donor atom, acceptor molecule, acceptor atom, score
      L1  H     3    40       P1  8028  1.82
      P1  H  7997  8010       L1    13  1.00

> <Gold.PLP.Chemscore.Internal.Correction>
0.0492

> <Gold.Rescore>
     Score         DG    S(hbond)    S(metal)    S(lipo)     H(rot)  DE(clash)    DE(int)     intcor
     18.99     -19.96       1.95        0.00     118.80       2.32       0.01       0.97       ----

> <Gold.Chemscore.Fitness>
18.9850

> <Gold.Chemscore.DG>
-19.9642

> <Gold.Chemscore.ZeroCoef>
-5.4800

> <Gold.Chemscore.Hbond>
1.9528

> <Gold.Chemscore.Metal>
0.0000

> <Gold.Chemscore.Lipo>
118.8018

> <Gold.Chemscore.Internal_Hbond>
0.0000

> <Gold.Chemscore.DEClash>
0.0106

> <Gold.Chemscore.DEInternal>
0.9685

> <Gold.Chemscore.Rot>
2.3195

> <Gold.Chemscore.Internal.Correction>
   9.000000E+99

> <Gold.Chemscore.Hbonds>
donor molecule, donor type, donor heavy atom, donor atom, acceptor molecule, acceptor atom, score
      L1  H     3    40       P1  8028  0.87
      P1  H  7997  8010       L1    13  0.28

> <Gold.Chemscore.Hbond.Weighted>
-6.5223

> <Gold.Chemscore.Metal.Weighted>
-0.0000

> <Gold.Chemscore.Lipo.Weighted>
-13.8998

> <Gold.Chemscore.Internal_Hbond.Weighted>
0.0000

> <Gold.Chemscore.DEClash.Weighted>
0.0106

> <Gold.Chemscore.DEInternal.Weighted>
0.9685

> <Gold.Chemscore.Rot.Weighted>
5.9379

> <Gold.Chemscore.Internal.Correction.Weighted>
   9.000000E+99

> <Gold.Protein.RotatedTorsions>
[ 6907 6896 6895 6894 ] final  161.84 input  -60.11 | X-H torsion
[ 7974 7965 7964 7962 ] final -137.66 input  175.53 | X-H torsion
[ 8008 7997 7996 7995 ] final   89.10 input   59.86 | X-H torsion
[ 10167 10162 10161 10158 ] final  147.44 input  -65.29 | X-H torsion
[ 10718 10713 10712 10709 ] final -159.84 input   66.30 | X-H torsion
[ 10763 10752 10751 10750 ] final -118.39 input  -60.55 | X-H torsion
[ 11005 11000 10999 10996 ] final -118.78 input  -57.11 | X-H torsion

> <Gold.Protein.ActiveResidues>
 VAL166  LYS551  ARG553  GLY616  TRP617  ASP618  TYR619  PRO620  LYS621  CYS622 
 ASP623  PHE694  ASN695  SER759  ASP760  ASP761  ALA762  ILE779  LEU786  VAL792 
 PHE793  MET794  SER795  GLU796  ALA797  LYS798  CYS799  TRP800  GLU811  SER814 

> <Gold.Protein.RotatedAtoms>
  151.9495  133.3661  159.3994 H   0  0  0  0  0  0  0  0  0  0  0  0  # atno 6907 bound_to 6896
  150.6983  134.4355  159.5277 H   0  0  0  0  0  0  0  0  0  0  0  0  # atno 6908 bound_to 6896
  152.2026  134.8574  160.0557 H   0  0  0  0  0  0  0  0  0  0  0  0  # atno 6909 bound_to 6896
  144.8823  140.6525  143.5198 H   0  0  0  0  0  0  0  0  0  0  0  0  # atno 7974 bound_to 7965
  155.9958  140.3364  155.6797 H   0  0  0  0  0  0  0  0  0  0  0  0  # atno 8008 bound_to 7997
  155.6358  140.0690  157.2652 H   0  0  0  0  0  0  0  0  0  0  0  0  # atno 8009 bound_to 7997
  154.4233  140.1751  156.1508 H   0  0  0  0  0  0  0  0  0  0  0  0  # atno 8010 bound_to 7997
  139.4890  144.5755  151.6973 H   0  0  0  0  0  0  0  0  0  0  0  0  # atno 10167 bound_to 10162
  156.5737  130.8699  151.2845 H   0  0  0  0  0  0  0  0  0  0  0  0  # atno 10718 bound_to 10713
  154.8586  135.4275  154.2131 H   0  0  0  0  0  0  0  0  0  0  0  0  # atno 10763 bound_to 10752
  153.3152  135.6978  153.7085 H   0  0  0  0  0  0  0  0  0  0  0  0  # atno 10764 bound_to 10752
  153.6162  135.3510  155.2969 H   0  0  0  0  0  0  0  0  0  0  0  0  # atno 10765 bound_to 10752
  141.0261  134.0051  157.3212 H   0  0  0  0  0  0  0  0  0  0  0  0  # atno 11005 bound_to 11000
  145.3931  139.1612  143.4218 LP  0  0  0  0  0  0  0  0  0  0  0  0  # atno 17320 bound_to 7965
  146.3002  140.4022  142.8707 LP  0  0  0  0  0  0  0  0  0  0  0  0  # atno 17321 bound_to 7965
  140.5351  144.0669  150.6067 LP  0  0  0  0  0  0  0  0  0  0  0  0  # atno 17342 bound_to 10162
  140.3672  143.2875  152.0318 LP  0  0  0  0  0  0  0  0  0  0  0  0  # atno 17343 bound_to 10162
  157.7342  130.9743  150.2019 LP  0  0  0  0  0  0  0  0  0  0  0  0  # atno 17370 bound_to 10713
  156.2692  130.3720  149.8049 LP  0  0  0  0  0  0  0  0  0  0  0  0  # atno 17371 bound_to 10713
  139.9177  135.0198  156.7945 LP  0  0  0  0  0  0  0  0  0  0  0  0  # atno 17394 bound_to 11000
  140.6488  133.9750  155.7744 LP  0  0  0  0  0  0  0  0  0  0  0  0  # atno 17395 bound_to 11000

$$$$
