AV-unprocessed.smi:2654|AV-procd|sdf|10297|dock5
  -GOLD-   2272014313D 1   1.00000     0.00000
 Structure written by MMmdl.
 35 37  0  0  0  0  0  0  0  0  1 V2000
  145.6588  138.6069  153.6593 O   0  0  0  0  0  0  0  0  0  0  0  0
  146.6184  137.9871  153.2007 C   0  0  0  0  0  0  0  0  0  0  0  0
  147.9086  138.3396  153.3351 N   0  0  0  0  0  0  0  0  0  0  0  0
  148.4590  139.4599  154.0150 C   0  0  0  0  0  0  0  0  0  0  0  0
  147.7388  140.6303  154.3479 C   0  0  0  0  0  0  0  0  0  0  0  0
  148.4022  141.6650  155.0355 C   0  0  0  0  0  0  0  0  0  0  0  0
  149.7618  141.5118  155.3845 C   0  0  0  0  0  0  0  0  0  0  0  0
  150.3362  142.6165  156.0682 N   0  0  0  0  0  0  0  0  0  0  0  0
  151.2132  142.6029  157.0894 C   0  0  0  0  0  0  0  0  0  0  0  0
  151.6519  141.5789  157.6160 O   0  0  0  0  0  0  0  0  0  0  0  0
  151.6139  143.9699  157.5414 C   0  0  0  0  0  0  0  0  0  0  0  0
  152.7087  144.0723  158.5844 C   0  0  0  0  0  0  0  0  0  0  0  0
  151.2797  144.3675  158.9649 C   0  0  0  0  0  0  0  0  0  0  0  0
  150.4423  140.3813  155.0751 N   0  0  0  0  0  0  0  0  0  0  0  0
  149.8072  139.3901  154.4164 C   0  0  0  0  0  0  0  0  0  0  0  0
  146.4993  136.8653  152.4778 N   0  0  0  0  0  0  0  0  0  0  0  0
  145.2695  136.2275  152.1339 C   0  0  0  0  0  0  0  0  0  0  0  0
  145.2961  134.7342  151.8883 C   0  0  0  0  0  0  0  0  0  0  0  0
  145.1321  135.6793  150.7300 C   0  0  0  0  0  0  0  0  0  0  0  0
  148.5768  137.7663  152.8412 H   0  0  0  0  0  0  0  0  0  0  0  0
  146.6955  140.7542  154.1043 H   0  0  0  0  0  0  0  0  0  0  0  0
  147.8645  142.5660  155.2931 H   0  0  0  0  0  0  0  0  0  0  0  0
  150.0492  143.5270  155.7400 H   0  0  0  0  0  0  0  0  0  0  0  0
  151.5777  144.7605  156.7932 H   0  0  0  0  0  0  0  0  0  0  0  0
  153.1492  143.1542  158.9696 H   0  0  0  0  0  0  0  0  0  0  0  0
  153.3974  144.9100  158.4965 H   0  0  0  0  0  0  0  0  0  0  0  0
  151.0008  145.4053  159.1350 H   0  0  0  0  0  0  0  0  0  0  0  0
  150.7726  143.6453  159.6026 H   0  0  0  0  0  0  0  0  0  0  0  0
  150.4000  138.5135  154.1985 H   0  0  0  0  0  0  0  0  0  0  0  0
  147.3442  136.4289  152.1389 H   0  0  0  0  0  0  0  0  0  0  0  0
  144.3588  136.6218  152.5829 H   0  0  0  0  0  0  0  0  0  0  0  0
  146.2496  134.2184  151.9842 H   0  0  0  0  0  0  0  0  0  0  0  0
  144.4241  134.1606  152.1960 H   0  0  0  0  0  0  0  0  0  0  0  0
  144.1506  135.7360  150.2635 H   0  0  0  0  0  0  0  0  0  0  0  0
  145.9763  135.7941  150.0526 H   0  0  0  0  0  0  0  0  0  0  0  0
  1  2  2  0  0  0  0
  2  3  1  0  0  0  0
  2 16  1  0  0  0  0
  3  4  1  0  0  0  0
  3 20  1  0  0  0  0
  4 15  1  0  0  0  0
  4  5  2  0  0  0  0
  5  6  1  0  0  0  0
  5 21  1  0  0  0  0
  6  7  2  0  0  0  0
  6 22  1  0  0  0  0
  7  8  1  0  0  0  0
  7 14  1  0  0  0  0
  8  9  1  0  0  0  0
  8 23  1  0  0  0  0
  9 10  2  0  0  0  0
  9 11  1  0  0  0  0
 11 13  1  0  0  0  0
 11 12  1  0  0  0  0
 11 24  1  0  0  0  0
 12 13  1  0  0  0  0
 12 25  1  0  0  0  0
 12 26  1  0  0  0  0
 13 27  1  0  0  0  0
 13 28  1  0  0  0  0
 14 15  2  0  0  0  0
 15 29  1  0  0  0  0
 16 17  1  0  0  0  0
 16 30  1  0  0  0  0
 17 19  1  0  0  0  0
 17 18  1  0  0  0  0
 17 31  1  0  0  0  0
 18 19  1  0  0  0  0
 18 32  1  0  0  0  0
 18 33  1  0  0  0  0
 19 34  1  0  0  0  0
 19 35  1  0  0  0  0
M  END
> <s_m_source_file>
AV-unprocessed.smi

> <i_m_source_file_index>
2654

> <i_lp_mmshare_version>
43012

> <i_f3d_flags>
0

> <s_epik_input>
W0NIMl0xW0NIMl1bQ0hdMVtOSF1DKD1PKVtOSF1jMltjSF1bY0hdYyhuW2NIXTIpW05IXUMoPU8pW0NIXTNbQ0gyXVtDSDJdMw==

> <s_epik_cmdline>
J2VwaWtfcHl0aG9uJywgJy1waCcsICc3LjAnLCAnLXRuJywgJzgnLCAnLW1hJywgJzIwMCcsICctbWV0YWxfYmluZGluZycsICctaW1hZScsICc8aW5maWxlLm1hZT4nLCAnLW9tYWUnLCAnPG91dGZpbGUubWFlPic=

> <r_lp_tautomer_probability>
1

> <r_epik_Ionization_Penalty>
0.00116413

> <r_epik_Ionization_Penalty_Charging>
0

> <r_epik_Ionization_Penalty_Neutral>
0.00116413

> <r_epik_State_Penalty>
-0

> <r_epik_Charging_Adjusted_Penalty>
0

> <i_epik_Tot_Q>
0

> <i_epik_Tot_abs_Q>
0

> <r_epik_Metal_State_Penalty>
-0

> <b_epik_Metal_Only>
0

> <s_lp_Force_Field>
OPLS_2005

> <r_lp_Energy>
24.5982

> <b_lp_Chiralities_Consistent>
1

> <s_lp_Variant>
AV-unprocessed.smi:2654-1

> <Gold.Version>
5.8.1

> <Gold.Id.Protein>
6NUR|6NUR_protein|mol2

> <Gold.PLP.Fitness>
46.7001

> <Gold.PLP.PLP>
-36.8205

> <Gold.PLP.part.hbond>
-4.3649

> <Gold.PLP.part.metal>
0.0000

> <Gold.PLP.part.buried>
-3.7920

> <Gold.PLP.part.nonpolar>
-31.2657

> <Gold.PLP.part.repulsive>
1.3967

> <Gold.PLP.ligand.clash>
0.0000

> <Gold.PLP.ligand.torsion>
0.7467

> <Gold.PLP.Chemscore.Hbond>
3.7500

> <Gold.PLP.Chemscore.CHOScore>
0.0000

> <Gold.PLP.Chemscore.Metal>
0.0000

> <Gold.Chemscore.Hbonds>
donor molecule, donor type, donor heavy atom, donor atom, acceptor molecule, acceptor atom, score
      L1  H     3    20       P1  7948  1.00
      L1  H     8    23       P1  8028  1.00
      L1  H    16    30       P1  7948  1.00
      P1  H  7989  7998       L1    14  0.69

> <Gold.PLP.Chemscore.Internal.Correction>
0.1231

> <Gold.Rescore>
     Score         DG    S(hbond)    S(metal)    S(lipo)     H(rot)  DE(clash)    DE(int)     intcor
     18.43     -21.31       2.92        0.00      78.59       1.22       0.22       2.66       ----

> <Gold.Chemscore.Fitness>
18.4338

> <Gold.Chemscore.DG>
-21.3072

> <Gold.Chemscore.ZeroCoef>
-5.4800

> <Gold.Chemscore.Hbond>
2.9224

> <Gold.Chemscore.Metal>
0.0000

> <Gold.Chemscore.Lipo>
78.5917

> <Gold.Chemscore.Internal_Hbond>
0.0000

> <Gold.Chemscore.DEClash>
0.2183

> <Gold.Chemscore.DEInternal>
2.6550

> <Gold.Chemscore.Rot>
1.2222

> <Gold.Chemscore.Internal.Correction>
   9.000000E+99

> <Gold.Chemscore.Hbonds>
donor molecule, donor type, donor heavy atom, donor atom, acceptor molecule, acceptor atom, score
      L1  H     3    20       P1  7948  0.95
      L1  H     8    23       P1  8028  0.94
      L1  H    16    30       P1  7948  0.99
      P1  H  7989  7998       L1    14  0.03

> <Gold.Chemscore.Hbond.Weighted>
-9.7608

> <Gold.Chemscore.Metal.Weighted>
-0.0000

> <Gold.Chemscore.Lipo.Weighted>
-9.1952

> <Gold.Chemscore.Internal_Hbond.Weighted>
0.0000

> <Gold.Chemscore.DEClash.Weighted>
0.2183

> <Gold.Chemscore.DEInternal.Weighted>
2.6550

> <Gold.Chemscore.Rot.Weighted>
3.1289

> <Gold.Chemscore.Internal.Correction.Weighted>
   9.000000E+99

> <Gold.Protein.RotatedTorsions>
[ 6907 6896 6895 6894 ] final  105.47 input  -60.11 | X-H torsion
[ 7974 7965 7964 7962 ] final   56.04 input  175.53 | X-H torsion
[ 8008 7997 7996 7995 ] final  -78.93 input   59.86 | X-H torsion
[ 10167 10162 10161 10158 ] final   62.02 input  -65.29 | X-H torsion
[ 10718 10713 10712 10709 ] final   51.98 input   66.30 | X-H torsion
[ 10763 10752 10751 10750 ] final  145.98 input  -60.55 | X-H torsion
[ 11005 11000 10999 10996 ] final  112.97 input  -57.11 | X-H torsion

> <Gold.Protein.ActiveResidues>
 VAL166  LYS551  ARG553  GLY616  TRP617  ASP618  TYR619  PRO620  LYS621  CYS622 
 ASP623  PHE694  ASN695  SER759  ASP760  ASP761  ALA762  ILE779  LEU786  VAL792 
 PHE793  MET794  SER795  GLU796  ALA797  LYS798  CYS799  TRP800  GLU811  SER814 

> <Gold.Protein.RotatedAtoms>
  152.5229  133.9524  159.7678 H   0  0  0  0  0  0  0  0  0  0  0  0  # atno 6907 bound_to 6896
  150.9832  133.6216  159.2726 H   0  0  0  0  0  0  0  0  0  0  0  0  # atno 6908 bound_to 6896
  151.3386  135.0864  159.9416 H   0  0  0  0  0  0  0  0  0  0  0  0  # atno 6909 bound_to 6896
  145.9440  139.3913  143.0346 H   0  0  0  0  0  0  0  0  0  0  0  0  # atno 7974 bound_to 7965
  154.5736  140.0686  156.9001 H   0  0  0  0  0  0  0  0  0  0  0  0  # atno 8008 bound_to 7997
  155.2590  140.3357  155.4257 H   0  0  0  0  0  0  0  0  0  0  0  0  # atno 8009 bound_to 7997
  156.2137  140.1769  156.7623 H   0  0  0  0  0  0  0  0  0  0  0  0  # atno 8010 bound_to 7997
  140.1485  144.4485  150.6772 H   0  0  0  0  0  0  0  0  0  0  0  0  # atno 10167 bound_to 10162
  157.5032  130.8451  149.8342 H   0  0  0  0  0  0  0  0  0  0  0  0  # atno 10718 bound_to 10713
  154.0144  135.2911  155.3388 H   0  0  0  0  0  0  0  0  0  0  0  0  # atno 10763 bound_to 10752
  154.7084  135.5159  153.8632 H   0  0  0  0  0  0  0  0  0  0  0  0  # atno 10764 bound_to 10752
  153.0709  135.6647  154.0372 H   0  0  0  0  0  0  0  0  0  0  0  0  # atno 10765 bound_to 10752
  139.8941  134.9540  156.6666 H   0  0  0  0  0  0  0  0  0  0  0  0  # atno 11005 bound_to 11000
  145.8261  140.9654  143.0873 LP  0  0  0  0  0  0  0  0  0  0  0  0  # atno 17320 bound_to 7965
  144.6784  140.0103  143.7484 LP  0  0  0  0  0  0  0  0  0  0  0  0  # atno 17321 bound_to 7965
  140.6717  143.2288  151.5609 LP  0  0  0  0  0  0  0  0  0  0  0  0  # atno 17342 bound_to 10162
  139.5437  144.2578  152.1401 LP  0  0  0  0  0  0  0  0  0  0  0  0  # atno 17343 bound_to 10162
  156.0242  130.3785  150.1872 LP  0  0  0  0  0  0  0  0  0  0  0  0  # atno 17370 bound_to 10713
  157.0062  130.9937  151.3378 LP  0  0  0  0  0  0  0  0  0  0  0  0  # atno 17371 bound_to 10713
  140.7405  133.8981  155.8275 LP  0  0  0  0  0  0  0  0  0  0  0  0  # atno 17394 bound_to 11000
  141.0081  134.1058  157.4249 LP  0  0  0  0  0  0  0  0  0  0  0  0  # atno 17395 bound_to 11000

$$$$
