AV-unprocessed.smi:12|AV-procd|sdf|65|dock10
  -GOLD-   2262015183D 1   1.00000     0.00000
 Structure written by MMmdl.
 41 44  0  0  0  0  0  0  0  0  1 V2000
  145.4410  141.4271  156.5679 C   0  0  0  0  0  0  0  0  0  0  0  0
  146.7596  141.0445  155.9196 C   0  0  0  0  0  0  0  0  0  0  0  0
  147.4738  139.9733  156.3384 C   0  0  0  0  0  0  0  0  0  0  0  0
  148.6582  139.6751  155.7249 N   0  0  0  0  0  0  0  0  0  0  0  0
  149.1104  140.4722  154.6488 C   0  0  0  0  0  0  0  0  0  0  0  0
  148.4839  141.5107  154.1899 N   0  0  0  0  0  0  0  0  0  0  0  0
  147.2680  141.8757  154.7995 C   0  0  0  0  0  0  0  0  0  0  0  0
  146.6436  142.8600  154.4061 O   0  0  0  0  0  0  0  0  0  0  0  0
  150.2841  139.9623  154.1808 O   0  0  0  0  0  0  0  0  0  0  0  0
  150.6548  138.8191  154.9648 C   0  0  1  0  0  0  0  0  0  0  0  0
  151.9159  139.0385  155.8054 C   0  0  1  0  0  0  0  0  0  0  0  0
  152.2519  140.4106  155.9197 O   0  0  0  0  0  0  0  0  0  0  0  0
  151.5159  138.4627  157.1722 C   0  0  1  0  0  0  0  0  0  0  0  0
  152.2782  138.9870  158.3993 C   0  0  0  0  0  0  0  0  0  0  0  0
  152.2167  140.4040  158.4282 O   0  0  0  0  0  0  0  0  0  0  0  0
  152.9011  141.0873  159.3669 C   0  0  0  0  0  0  0  0  0  0  0  0
  153.7299  140.5698  160.1185 O   0  0  0  0  0  0  0  0  0  0  0  0
  152.5535  142.5374  159.4009 C   0  0  0  0  0  0  0  0  0  0  0  0
  152.1320  143.1757  158.2110 C   0  0  0  0  0  0  0  0  0  0  0  0
  151.7927  144.5425  158.2110 C   0  0  0  0  0  0  0  0  0  0  0  0
  151.8716  145.2885  159.4014 C   0  0  0  0  0  0  0  0  0  0  0  0
  152.2905  144.6657  160.5915 C   0  0  0  0  0  0  0  0  0  0  0  0
  152.6304  143.2985  160.5935 C   0  0  0  0  0  0  0  0  0  0  0  0
  150.1302  138.7577  157.2692 O   0  0  0  0  0  0  0  0  0  0  0  0
  149.5597  138.5606  156.0155 C   0  0  1  0  0  0  0  0  0  0  0  0
  145.1801  140.7382  157.3718 H   0  0  0  0  0  0  0  0  0  0  0  0
  144.6345  141.4091  155.8341 H   0  0  0  0  0  0  0  0  0  0  0  0
  145.5005  142.4305  156.9906 H   0  0  0  0  0  0  0  0  0  0  0  0
  147.1249  139.3543  157.1521 H   0  0  0  0  0  0  0  0  0  0  0  0
  150.7466  137.9336  154.3348 H   0  0  0  0  0  0  0  0  0  0  0  0
  152.7746  138.5126  155.3867 H   0  0  0  0  0  0  0  0  0  0  0  0
  152.9727  140.5941  155.3368 H   0  0  0  0  0  0  0  0  0  0  0  0
  151.6088  137.3754  157.1362 H   0  0  0  0  0  0  0  0  0  0  0  0
  151.8720  138.5668  159.3202 H   0  0  0  0  0  0  0  0  0  0  0  0
  153.3225  138.6776  158.3396 H   0  0  0  0  0  0  0  0  0  0  0  0
  152.0631  142.6233  157.2848 H   0  0  0  0  0  0  0  0  0  0  0  0
  151.4707  145.0186  157.2966 H   0  0  0  0  0  0  0  0  0  0  0  0
  151.6106  146.3365  159.4016 H   0  0  0  0  0  0  0  0  0  0  0  0
  152.3506  145.2375  161.5057 H   0  0  0  0  0  0  0  0  0  0  0  0
  152.9479  142.8515  161.5243 H   0  0  0  0  0  0  0  0  0  0  0  0
  148.9828  137.6435  155.8919 H   0  0  0  0  0  0  0  0  0  0  0  0
  1  2  1  0  0  0  0
  1 26  1  0  0  0  0
  1 27  1  0  0  0  0
  1 28  1  0  0  0  0
  2  7  1  0  0  0  0
  2  3  2  0  0  0  0
  3  4  1  0  0  0  0
  3 29  1  0  0  0  0
  4 25  1  0  0  0  0
  4  5  1  0  0  0  0
  5  6  2  0  0  0  0
  5  9  1  0  0  0  0
  6  7  1  0  0  0  0
  7  8  2  0  0  0  0
  9 10  1  0  0  0  0
 10 25  1  0  0  0  0
 10 11  1  0  0  0  0
 10 30  1  0  0  0  0
 11 12  1  0  0  0  0
 11 13  1  0  0  0  0
 11 31  1  0  0  0  0
 12 32  1  0  0  0  0
 13 14  1  0  0  0  0
 13 24  1  0  0  0  0
 13 33  1  0  0  0  0
 14 15  1  0  0  0  0
 14 34  1  0  0  0  0
 14 35  1  0  0  0  0
 15 16  1  0  0  0  0
 16 17  2  0  0  0  0
 16 18  1  0  0  0  0
 18 23  1  0  0  0  0
 18 19  2  0  0  0  0
 19 20  1  0  0  0  0
 19 36  1  0  0  0  0
 20 21  2  0  0  0  0
 20 37  1  0  0  0  0
 21 22  1  0  0  0  0
 21 38  1  0  0  0  0
 22 23  2  0  0  0  0
 22 39  1  0  0  0  0
 23 40  1  0  0  0  0
 24 25  1  0  0  0  0
 25 41  1  0  0  0  0
M  END
> <s_m_source_file>
AV-unprocessed.smi

> <i_m_source_file_index>
12

> <i_lp_mmshare_version>
43012

> <i_f3d_flags>
0

> <s_epik_input>
W0NIM11jKFtjSF0xKWMoPU8pbmMobjEyKU9bQ0BIXTNbQ0BASF0yT1tDQEBIXShbQ0BASF0zW09IXSlbQ0gyXU9DKD1PKWM0W2NIXVtjSF1bY0hdW2NIXVtjSF00

> <s_epik_cmdline>
J2VwaWtfcHl0aG9uJywgJy1waCcsICc3LjAnLCAnLXRuJywgJzgnLCAnLW1hJywgJzIwMCcsICctbWV0YWxfYmluZGluZycsICctaW1hZScsICc8aW5maWxlLm1hZT4nLCAnLW9tYWUnLCAnPG91dGZpbGUubWFlPic=

> <r_lp_tautomer_probability>
0.933681

> <r_epik_Ionization_Penalty>
0.00399549

> <r_epik_Ionization_Penalty_Charging>
3.09373e-09

> <r_epik_Ionization_Penalty_Neutral>
0.00399549

> <r_epik_State_Penalty>
0.00284953

> <r_epik_Charging_Adjusted_Penalty>
0.00284953

> <i_epik_Tot_Q>
0

> <i_epik_Tot_abs_Q>
0

> <r_epik_Metal_State_Penalty>
-0

> <b_epik_Metal_Only>
0

> <s_epik_Chemistry_Notes>
This compound has an ester and may undergo hydrolysis at high or low pH. This compound contains an acetal/aminal-like group ( X-CH(R)-Y where X, Y are N, S, or O) that may be acid/base labile, releasing an aldehyde.

> <s_lp_Force_Field>
OPLS_2005

> <r_lp_Energy>
52.4365

> <b_lp_Chiralities_Consistent>
1

> <s_lp_Variant>
AV-unprocessed.smi:12-5

> <Gold.Version>
5.8.1

> <Gold.Id.Protein>
6NUR|6NUR_protein|mol2

> <Gold.PLP.Fitness>
47.7739

> <Gold.PLP.PLP>
-43.3511

> <Gold.PLP.part.hbond>
-3.9054

> <Gold.PLP.part.metal>
0.0000

> <Gold.PLP.part.buried>
-4.3370

> <Gold.PLP.part.nonpolar>
-36.6170

> <Gold.PLP.part.repulsive>
2.1831

> <Gold.PLP.ligand.clash>
0.0000

> <Gold.PLP.ligand.torsion>
0.4742

> <Gold.PLP.Chemscore.Hbond>
1.7890

> <Gold.PLP.Chemscore.CHOScore>
0.0000

> <Gold.PLP.Chemscore.Metal>
0.0000

> <Gold.Chemscore.Hbonds>
donor molecule, donor type, donor heavy atom, donor atom, acceptor molecule, acceptor atom, score
      P1  H  7989  7998       L1     9  1.00

> <Gold.PLP.Chemscore.Internal.Correction>
0.0042

> <Gold.Rescore>
     Score         DG    S(hbond)    S(metal)    S(lipo)     H(rot)  DE(clash)    DE(int)     intcor
     13.25     -15.57       1.27        0.00      97.76       2.18       0.33       1.98       ----

> <Gold.Chemscore.Fitness>
13.2538

> <Gold.Chemscore.DG>
-15.5661

> <Gold.Chemscore.ZeroCoef>
-5.4800

> <Gold.Chemscore.Hbond>
1.2660

> <Gold.Chemscore.Metal>
0.0000

> <Gold.Chemscore.Lipo>
97.7638

> <Gold.Chemscore.Internal_Hbond>
0.0000

> <Gold.Chemscore.DEClash>
0.3287

> <Gold.Chemscore.DEInternal>
1.9835

> <Gold.Chemscore.Rot>
2.1800

> <Gold.Chemscore.Internal.Correction>
   9.000000E+99

> <Gold.Chemscore.Hbonds>
donor molecule, donor type, donor heavy atom, donor atom, acceptor molecule, acceptor atom, score
      P1  H  7989  7998       L1     9  0.91
      P1  H  8011  8017       L1     6  0.02

> <Gold.Chemscore.Hbond.Weighted>
-4.2284

> <Gold.Chemscore.Metal.Weighted>
-0.0000

> <Gold.Chemscore.Lipo.Weighted>
-11.4384

> <Gold.Chemscore.Internal_Hbond.Weighted>
0.0000

> <Gold.Chemscore.DEClash.Weighted>
0.3287

> <Gold.Chemscore.DEInternal.Weighted>
1.9835

> <Gold.Chemscore.Rot.Weighted>
5.5807

> <Gold.Chemscore.Internal.Correction.Weighted>
   9.000000E+99

> <Gold.Protein.RotatedTorsions>
[ 6907 6896 6895 6894 ] final -176.88 input  -60.11 | X-H torsion
[ 7974 7965 7964 7962 ] final  -38.28 input  175.53 | X-H torsion
[ 8008 7997 7996 7995 ] final  -91.66 input   59.86 | X-H torsion
[ 10167 10162 10161 10158 ] final   58.68 input  -65.29 | X-H torsion
[ 10718 10713 10712 10709 ] final  -63.18 input   66.30 | X-H torsion
[ 10763 10752 10751 10750 ] final -131.62 input  -60.55 | X-H torsion
[ 11005 11000 10999 10996 ] final  -41.11 input  -57.11 | X-H torsion

> <Gold.Protein.ActiveResidues>
 VAL166  LYS551  ARG553  GLY616  TRP617  ASP618  TYR619  PRO620  LYS621  CYS622 
 ASP623  PHE694  ASN695  SER759  ASP760  ASP761  ALA762  ILE779  LEU786  VAL792 
 PHE793  MET794  SER795  GLU796  ALA797  LYS798  CYS799  TRP800  GLU811  SER814 

> <Gold.Protein.RotatedAtoms>
  151.6120  133.3346  159.3069 H   0  0  0  0  0  0  0  0  0  0  0  0  # atno 6907 bound_to 6896
  150.8151  134.7332  159.6734 H   0  0  0  0  0  0  0  0  0  0  0  0  # atno 6908 bound_to 6896
  152.4247  134.5895  160.0021 H   0  0  0  0  0  0  0  0  0  0  0  0  # atno 6909 bound_to 6896
  146.0500  140.6494  142.9046 H   0  0  0  0  0  0  0  0  0  0  0  0  # atno 7974 bound_to 7965
  154.7135  140.0517  157.0572 H   0  0  0  0  0  0  0  0  0  0  0  0  # atno 8008 bound_to 7997
  155.0523  140.3180  155.4669 H   0  0  0  0  0  0  0  0  0  0  0  0  # atno 8009 bound_to 7997
  156.2796  140.2113  156.5649 H   0  0  0  0  0  0  0  0  0  0  0  0  # atno 8010 bound_to 7997
  140.1846  144.4147  150.6599 H   0  0  0  0  0  0  0  0  0  0  0  0  # atno 10167 bound_to 10162
  156.0807  130.4217  150.1240 H   0  0  0  0  0  0  0  0  0  0  0  0  # atno 10718 bound_to 10713
  154.8749  135.3824  154.4276 H   0  0  0  0  0  0  0  0  0  0  0  0  # atno 10763 bound_to 10752
  153.4973  135.7030  153.5856 H   0  0  0  0  0  0  0  0  0  0  0  0  # atno 10764 bound_to 10752
  153.4203  135.3903  155.2074 H   0  0  0  0  0  0  0  0  0  0  0  0  # atno 10765 bound_to 10752
  141.0223  133.6857  156.2413 H   0  0  0  0  0  0  0  0  0  0  0  0  # atno 11005 bound_to 11000
  144.7118  140.4065  143.7075 LP  0  0  0  0  0  0  0  0  0  0  0  0  # atno 17320 bound_to 7965
  145.6740  139.1605  143.2738 LP  0  0  0  0  0  0  0  0  0  0  0  0  # atno 17321 bound_to 7965
  140.6497  143.2222  151.6106 LP  0  0  0  0  0  0  0  0  0  0  0  0  # atno 17342 bound_to 10162
  139.5281  144.2996  152.1084 LP  0  0  0  0  0  0  0  0  0  0  0  0  # atno 17343 bound_to 10162
  156.9272  130.9702  151.3539 LP  0  0  0  0  0  0  0  0  0  0  0  0  # atno 17370 bound_to 10713
  157.5923  130.8452  149.8677 LP  0  0  0  0  0  0  0  0  0  0  0  0  # atno 17371 bound_to 10713
  140.6552  134.5025  157.5580 LP  0  0  0  0  0  0  0  0  0  0  0  0  # atno 17394 bound_to 11000
  139.9153  134.8258  156.1386 LP  0  0  0  0  0  0  0  0  0  0  0  0  # atno 17395 bound_to 11000

$$$$
