AV-unprocessed.smi:1304|AV-procd|sdf|5430|dock8
  -GOLD-   22720 4593D 1   1.00000     0.00000
 Structure written by MMmdl.
 47 48  0  0  0  0  0  0  0  0  1 V2000
  147.0647  139.7951  153.1517 C   0  0  0  0  0  0  0  0  0  0  0  0
  147.2863  139.8804  154.6717 C   0  0  0  0  0  0  0  0  0  0  0  0
  147.8043  141.2600  155.1980 C   0  0  2  0  0  0  0  0  0  0  0  0
  148.8925  141.7348  154.1985 C   0  0  0  0  0  0  0  0  0  0  0  0
  148.4977  141.0358  156.5808 C   0  0  0  0  0  0  0  0  0  0  0  0
  149.4108  142.1115  156.9453 N   0  0  0  0  0  0  0  0  0  0  0  0
  150.7032  141.9636  157.2730 C   0  0  0  0  0  0  0  0  0  0  0  0
  151.2517  140.8649  157.3441 O   0  0  0  0  0  0  0  0  0  0  0  0
  151.5209  143.2360  157.5571 C   0  0  0  0  0  0  0  0  0  0  0  0
  151.9412  143.3930  158.9623 N   0  0  0  0  0  0  0  0  0  0  0  0
  152.5431  142.2777  159.5785 C   0  0  0  0  0  0  0  0  0  0  0  0
  152.9386  142.3023  160.8609 C   0  0  0  0  0  0  0  0  0  0  0  0
  152.7355  143.5169  161.6145 C   0  0  0  0  0  0  0  0  0  0  0  0
  152.1585  144.5888  161.0360 C   0  0  0  0  0  0  0  0  0  0  0  0
  151.7188  144.5642  159.6364 C   0  0  0  0  0  0  0  0  0  0  0  0
  151.1729  145.5317  159.1061 O   0  0  0  0  0  0  0  0  0  0  0  0
  146.6888  142.2445  155.3290 N   0  0  0  0  0  0  0  0  0  0  0  0
  146.0551  142.6396  154.0635 C   0  0  0  0  0  0  0  0  0  0  0  0
  144.9983  143.7408  154.2558 C   0  0  0  0  0  0  0  0  0  0  0  0
  144.0187  143.3097  155.1914 O   0  0  0  0  0  0  0  0  0  0  0  0
  144.5865  142.9872  156.4541 C   0  0  0  0  0  0  0  0  0  0  0  0
  145.6332  141.8739  156.2817 C   0  0  0  0  0  0  0  0  0  0  0  0
  146.7506  138.7907  152.8683 H   0  0  0  0  0  0  0  0  0  0  0  0
  147.9755  140.0216  152.5975 H   0  0  0  0  0  0  0  0  0  0  0  0
  146.2870  140.4818  152.8180 H   0  0  0  0  0  0  0  0  0  0  0  0
  146.3502  139.6113  155.1615 H   0  0  0  0  0  0  0  0  0  0  0  0
  147.9584  139.0787  154.9745 H   0  0  0  0  0  0  0  0  0  0  0  0
  149.6854  140.9944  154.0874 H   0  0  0  0  0  0  0  0  0  0  0  0
  149.3727  142.6580  154.5222 H   0  0  0  0  0  0  0  0  0  0  0  0
  148.4904  141.9034  153.2003 H   0  0  0  0  0  0  0  0  0  0  0  0
  147.7618  140.9764  157.3828 H   0  0  0  0  0  0  0  0  0  0  0  0
  149.0391  140.0883  156.5837 H   0  0  0  0  0  0  0  0  0  0  0  0
  149.0369  143.0489  156.9146 H   0  0  0  0  0  0  0  0  0  0  0  0
  152.3938  143.2281  156.9030 H   0  0  0  0  0  0  0  0  0  0  0  0
  150.9383  144.1017  157.2376 H   0  0  0  0  0  0  0  0  0  0  0  0
  152.6513  141.4068  158.9480 H   0  0  0  0  0  0  0  0  0  0  0  0
  153.3934  141.4356  161.3180 H   0  0  0  0  0  0  0  0  0  0  0  0
  153.0473  143.5665  162.6475 H   0  0  0  0  0  0  0  0  0  0  0  0
  152.0139  145.4887  161.6155 H   0  0  0  0  0  0  0  0  0  0  0  0
  146.7909  143.0207  153.3585 H   0  0  0  0  0  0  0  0  0  0  0  0
  145.5808  141.7776  153.5942 H   0  0  0  0  0  0  0  0  0  0  0  0
  145.4619  144.6657  154.6025 H   0  0  0  0  0  0  0  0  0  0  0  0
  144.5091  143.9640  153.3076 H   0  0  0  0  0  0  0  0  0  0  0  0
  145.0371  143.8765  156.8979 H   0  0  0  0  0  0  0  0  0  0  0  0
  143.7941  142.6602  157.1274 H   0  0  0  0  0  0  0  0  0  0  0  0
  145.1270  140.9665  155.9525 H   0  0  0  0  0  0  0  0  0  0  0  0
  146.0473  141.6682  157.2663 H   0  0  0  0  0  0  0  0  0  0  0  0
  1  2  1  0  0  0  0
  1 23  1  0  0  0  0
  1 24  1  0  0  0  0
  1 25  1  0  0  0  0
  2  3  1  0  0  0  0
  2 26  1  0  0  0  0
  2 27  1  0  0  0  0
  3  4  1  0  0  0  0
  3  5  1  0  0  0  0
  3 17  1  0  0  0  0
  4 28  1  0  0  0  0
  4 29  1  0  0  0  0
  4 30  1  0  0  0  0
  5  6  1  0  0  0  0
  5 31  1  0  0  0  0
  5 32  1  0  0  0  0
  6  7  1  0  0  0  0
  6 33  1  0  0  0  0
  7  8  2  0  0  0  0
  7  9  1  0  0  0  0
  9 10  1  0  0  0  0
  9 34  1  0  0  0  0
  9 35  1  0  0  0  0
 10 15  1  0  0  0  0
 10 11  1  0  0  0  0
 11 12  2  0  0  0  0
 11 36  1  0  0  0  0
 12 13  1  0  0  0  0
 12 37  1  0  0  0  0
 13 14  2  0  0  0  0
 13 38  1  0  0  0  0
 14 15  1  0  0  0  0
 14 39  1  0  0  0  0
 15 16  2  0  0  0  0
 17 22  1  0  0  0  0
 17 18  1  0  0  0  0
 18 19  1  0  0  0  0
 18 40  1  0  0  0  0
 18 41  1  0  0  0  0
 19 20  1  0  0  0  0
 19 42  1  0  0  0  0
 19 43  1  0  0  0  0
 20 21  1  0  0  0  0
 21 22  1  0  0  0  0
 21 44  1  0  0  0  0
 21 45  1  0  0  0  0
 22 46  1  0  0  0  0
 22 47  1  0  0  0  0
M  END
> <s_m_source_file>
AV-unprocessed.smi

> <i_m_source_file_index>
1304

> <i_lp_mmshare_version>
43012

> <i_f3d_flags>
0

> <s_epik_input>
W0NIMl0xW0NIMl1PW0NIMl1bQ0gyXU4xW0NAQF0oW0NIM10pKFtDSDJdW0NIM10pW0NIMl1bTkhdQyg9TylbQ0gyXW4yW2NIXVtjSF1bY0hdW2NIXWMyPU8=

> <s_epik_cmdline>
J2VwaWtfcHl0aG9uJywgJy1waCcsICc3LjAnLCAnLXRuJywgJzgnLCAnLW1hJywgJzIwMCcsICctbWV0YWxfYmluZGluZycsICctaW1hZScsICc8aW5maWxlLm1hZT4nLCAnLW9tYWUnLCAnPG91dGZpbGUubWFlPic=

> <r_lp_tautomer_probability>
1

> <r_epik_Ionization_Penalty>
0.318667

> <r_epik_Ionization_Penalty_Charging>
3.55364e-07

> <r_epik_Ionization_Penalty_Neutral>
0.318667

> <r_epik_State_Penalty>
0.313095

> <r_epik_Charging_Adjusted_Penalty>
0.313095

> <i_epik_Tot_Q>
0

> <i_epik_Tot_abs_Q>
0

> <r_epik_Metal_State_Penalty>
0.313065

> <b_epik_Metal_Only>
0

> <s_lp_Force_Field>
OPLS_2005

> <r_lp_Energy>
51.8872

> <b_lp_Chiralities_Consistent>
1

> <s_lp_Variant>
AV-unprocessed.smi:1304-2

> <Gold.Version>
5.8.1

> <Gold.Id.Protein>
6NUR|6NUR_protein|mol2

> <Gold.PLP.Fitness>
48.3590

> <Gold.PLP.PLP>
-46.7120

> <Gold.PLP.part.hbond>
-2.0000

> <Gold.PLP.part.metal>
0.0000

> <Gold.PLP.part.buried>
-5.3263

> <Gold.PLP.part.nonpolar>
-39.6934

> <Gold.PLP.part.repulsive>
0.4865

> <Gold.PLP.ligand.clash>
0.0000

> <Gold.PLP.ligand.torsion>
0.7319

> <Gold.PLP.Chemscore.Hbond>
1.0000

> <Gold.PLP.Chemscore.CHOScore>
0.0000

> <Gold.PLP.Chemscore.Metal>
0.0000

> <Gold.Chemscore.Hbonds>
donor molecule, donor type, donor heavy atom, donor atom, acceptor molecule, acceptor atom, score
      L1  H     6    33       P1  8028  0.73

> <Gold.PLP.Chemscore.Internal.Correction>
0.1108

> <Gold.Rescore>
     Score         DG    S(hbond)    S(metal)    S(lipo)     H(rot)  DE(clash)    DE(int)     intcor
     14.79     -15.69       0.93        0.00     103.35       1.95       0.31       0.59       ----

> <Gold.Chemscore.Fitness>
14.7864

> <Gold.Chemscore.DG>
-15.6885

> <Gold.Chemscore.ZeroCoef>
-5.4800

> <Gold.Chemscore.Hbond>
0.9319

> <Gold.Chemscore.Metal>
0.0000

> <Gold.Chemscore.Lipo>
103.3497

> <Gold.Chemscore.Internal_Hbond>
0.0000

> <Gold.Chemscore.DEClash>
0.3103

> <Gold.Chemscore.DEInternal>
0.5918

> <Gold.Chemscore.Rot>
1.9515

> <Gold.Chemscore.Internal.Correction>
   9.000000E+99

> <Gold.Chemscore.Hbonds>
donor molecule, donor type, donor heavy atom, donor atom, acceptor molecule, acceptor atom, score
      L1  H     6    33       P1  8028  0.66

> <Gold.Chemscore.Hbond.Weighted>
-3.1124

> <Gold.Chemscore.Metal.Weighted>
-0.0000

> <Gold.Chemscore.Lipo.Weighted>
-12.0919

> <Gold.Chemscore.Internal_Hbond.Weighted>
0.0000

> <Gold.Chemscore.DEClash.Weighted>
0.3103

> <Gold.Chemscore.DEInternal.Weighted>
0.5918

> <Gold.Chemscore.Rot.Weighted>
4.9958

> <Gold.Chemscore.Internal.Correction.Weighted>
   9.000000E+99

> <Gold.Protein.RotatedTorsions>
[ 6907 6896 6895 6894 ] final   21.66 input  -60.11 | X-H torsion
[ 7974 7965 7964 7962 ] final  140.85 input  175.53 | X-H torsion
[ 8008 7997 7996 7995 ] final -175.55 input   59.86 | X-H torsion
[ 10167 10162 10161 10158 ] final -173.26 input  -65.29 | X-H torsion
[ 10718 10713 10712 10709 ] final  118.87 input   66.30 | X-H torsion
[ 10763 10752 10751 10750 ] final    4.39 input  -60.55 | X-H torsion
[ 11005 11000 10999 10996 ] final   64.29 input  -57.11 | X-H torsion

> <Gold.Protein.ActiveResidues>
 VAL166  LYS551  ARG553  GLY616  TRP617  ASP618  TYR619  PRO620  LYS621  CYS622 
 ASP623  PHE694  ASN695  SER759  ASP760  ASP761  ALA762  ILE779  LEU786  VAL792 
 PHE793  MET794  SER795  GLU796  ALA797  LYS798  CYS799  TRP800  GLU811  SER814 

> <Gold.Protein.RotatedAtoms>
  151.9151  135.0322  160.0517 H   0  0  0  0  0  0  0  0  0  0  0  0  # atno 6907 bound_to 6896
  152.2246  133.5006  159.5190 H   0  0  0  0  0  0  0  0  0  0  0  0  # atno 6908 bound_to 6896
  150.7009  134.1213  159.4078 H   0  0  0  0  0  0  0  0  0  0  0  0  # atno 6909 bound_to 6896
  144.9150  139.5243  143.5691 H   0  0  0  0  0  0  0  0  0  0  0  0  # atno 7974 bound_to 7965
  155.9840  140.1187  157.0701 H   0  0  0  0  0  0  0  0  0  0  0  0  # atno 8008 bound_to 7997
  154.4191  140.1139  156.5542 H   0  0  0  0  0  0  0  0  0  0  0  0  # atno 8009 bound_to 7997
  155.6433  140.3473  155.4725 H   0  0  0  0  0  0  0  0  0  0  0  0  # atno 8010 bound_to 7997
  139.5698  144.1668  152.1367 H   0  0  0  0  0  0  0  0  0  0  0  0  # atno 10167 bound_to 10162
  157.6000  131.1052  150.7817 H   0  0  0  0  0  0  0  0  0  0  0  0  # atno 10718 bound_to 10713
  153.2719  135.6933  153.7472 H   0  0  0  0  0  0  0  0  0  0  0  0  # atno 10763 bound_to 10752
  153.6493  135.3379  155.3096 H   0  0  0  0  0  0  0  0  0  0  0  0  # atno 10764 bound_to 10752
  154.8466  135.4450  154.1744 H   0  0  0  0  0  0  0  0  0  0  0  0  # atno 10765 bound_to 10752
  139.9968  134.6504  155.9996 H   0  0  0  0  0  0  0  0  0  0  0  0  # atno 11005 bound_to 11000
  146.3177  139.7985  142.8970 LP  0  0  0  0  0  0  0  0  0  0  0  0  # atno 17320 bound_to 7965
  145.3391  141.0284  143.3402 LP  0  0  0  0  0  0  0  0  0  0  0  0  # atno 17321 bound_to 7965
  140.1199  144.5383  150.6870 LP  0  0  0  0  0  0  0  0  0  0  0  0  # atno 17342 bound_to 10162
  140.6982  143.2417  151.4939 LP  0  0  0  0  0  0  0  0  0  0  0  0  # atno 17343 bound_to 10162
  156.8218  130.4986  149.5342 LP  0  0  0  0  0  0  0  0  0  0  0  0  # atno 17370 bound_to 10713
  156.1071  130.6013  150.9989 LP  0  0  0  0  0  0  0  0  0  0  0  0  # atno 17371 bound_to 10713
  141.1611  133.6539  156.4322 LP  0  0  0  0  0  0  0  0  0  0  0  0  # atno 17394 bound_to 11000
  140.4802  134.6672  157.5167 LP  0  0  0  0  0  0  0  0  0  0  0  0  # atno 17395 bound_to 11000

$$$$
