AV-unprocessed.smi:678|AV-procd|sdf|3314|dock2
  -GOLD-   22720 0273D 1   1.00000     0.00000
 Structure written by MMmdl.
 51 52  0  0  0  0  0  0  0  0  2 V2000
  153.3167  141.9408  161.2156 C   0  0  0  0  0  0  0  0  0  0  0  0
  152.5754  142.4057  159.9742 C   0  0  0  0  0  0  0  0  0  0  0  0
  152.2862  143.7098  159.7736 C   0  0  0  0  0  0  0  0  0  0  0  0
  151.5672  144.1425  158.6000 C   0  0  0  0  0  0  0  0  0  0  0  0
  151.1865  143.2137  157.7115 C   0  0  0  0  0  0  0  0  0  0  0  0
  151.4748  141.8487  157.8958 N   0  0  0  0  0  0  0  0  0  0  0  0
  151.0020  140.9167  156.8579 C   0  0  0  0  0  0  0  0  0  0  0  0
  149.4970  141.0537  156.5946 C   0  0  0  0  0  0  0  0  0  0  0  0
  148.6905  140.9516  157.5194 O   0  0  0  0  0  0  0  0  0  0  0  0
  149.1359  141.2729  155.3216 N   0  0  0  0  0  0  0  0  0  0  0  0
  147.7641  141.3290  154.8272 C   0  0  0  0  0  0  0  0  0  0  0  0
  147.1561  139.9216  154.6733 C   0  0  1  0  0  0  0  0  0  0  0  0
  147.7449  139.1188  153.4865 C   0  0  0  0  0  0  0  0  0  0  0  0
  147.2191  137.7307  153.4405 N   0  3  2  0  0  0  0  0  0  0  0  0
  145.8504  137.6080  152.8694 C   0  0  0  0  0  0  0  0  0  0  0  0
  145.3922  136.1396  152.7357 C   0  0  0  0  0  0  0  0  0  0  0  0
  145.5842  135.6401  151.2963 C   0  0  0  0  0  0  0  0  0  0  0  0
  143.9336  135.9513  153.1829 C   0  0  0  0  0  0  0  0  0  0  0  0
  147.3835  137.0680  154.7566 C   0  0  0  0  0  0  0  0  0  0  0  0
  146.7904  137.9243  155.8885 C   0  0  0  0  0  0  0  0  0  0  0  0
  147.4044  139.2073  155.8793 O   0  0  0  0  0  0  0  0  0  0  0  0
  152.1619  141.3892  158.9887 C   0  0  0  0  0  0  0  0  0  0  0  0
  152.4131  140.1906  159.1325 O   0  0  0  0  0  0  0  0  0  0  0  0
  153.6483  142.7856  161.8200 H   0  0  0  0  0  0  0  0  0  0  0  0
  154.1968  141.3565  160.9443 H   0  0  0  0  0  0  0  0  0  0  0  0
  152.6673  141.3205  161.8336 H   0  0  0  0  0  0  0  0  0  0  0  0
  152.5884  144.4470  160.5032 H   0  0  0  0  0  0  0  0  0  0  0  0
  151.3368  145.1863  158.4444 H   0  0  0  0  0  0  0  0  0  0  0  0
  150.6380  143.4541  156.8123 H   0  0  0  0  0  0  0  0  0  0  0  0
  151.5266  141.0773  155.9152 H   0  0  0  0  0  0  0  0  0  0  0  0
  151.2411  139.8916  157.1486 H   0  0  0  0  0  0  0  0  0  0  0  0
  149.8695  141.3601  154.6329 H   0  0  0  0  0  0  0  0  0  0  0  0
  147.1369  141.9560  155.4633 H   0  0  0  0  0  0  0  0  0  0  0  0
  147.7939  141.8180  153.8532 H   0  0  0  0  0  0  0  0  0  0  0  0
  146.0774  140.0336  154.5550 H   0  0  0  0  0  0  0  0  0  0  0  0
  147.5551  139.6224  152.5407 H   0  0  0  0  0  0  0  0  0  0  0  0
  148.8295  139.0665  153.5893 H   0  0  0  0  0  0  0  0  0  0  0  0
  145.1366  138.1302  153.5080 H   0  0  0  0  0  0  0  0  0  0  0  0
  145.8053  138.1098  151.9030 H   0  0  0  0  0  0  0  0  0  0  0  0
  146.0135  135.5107  153.3710 H   0  0  0  0  0  0  0  0  0  0  0  0
  144.9967  136.2274  150.5897 H   0  0  0  0  0  0  0  0  0  0  0  0
  145.2795  134.5980  151.1963 H   0  0  0  0  0  0  0  0  0  0  0  0
  146.6304  135.7036  150.9952 H   0  0  0  0  0  0  0  0  0  0  0  0
  143.2514  136.5492  152.5777 H   0  0  0  0  0  0  0  0  0  0  0  0
  143.7953  136.2401  154.2248 H   0  0  0  0  0  0  0  0  0  0  0  0
  143.6288  134.9082  153.0930 H   0  0  0  0  0  0  0  0  0  0  0  0
  146.9404  136.0716  154.7471 H   0  0  0  0  0  0  0  0  0  0  0  0
  148.4497  136.9255  154.9367 H   0  0  0  0  0  0  0  0  0  0  0  0
  145.7078  138.0191  155.7897 H   0  0  0  0  0  0  0  0  0  0  0  0
  146.9798  137.4518  156.8524 H   0  0  0  0  0  0  0  0  0  0  0  0
  147.8117  137.2186  152.8026 H   0  0  0  0  0  0  0  0  0  0  0  0
  1  2  1  0  0  0  0
  1 24  1  0  0  0  0
  1 25  1  0  0  0  0
  1 26  1  0  0  0  0
  2 22  1  0  0  0  0
  2  3  2  0  0  0  0
  3  4  1  0  0  0  0
  3 27  1  0  0  0  0
  4  5  2  0  0  0  0
  4 28  1  0  0  0  0
  5  6  1  0  0  0  0
  5 29  1  0  0  0  0
  6  7  1  0  0  0  0
  6 22  1  0  0  0  0
  7  8  1  0  0  0  0
  7 30  1  0  0  0  0
  7 31  1  0  0  0  0
  8  9  2  0  0  0  0
  8 10  1  0  0  0  0
 10 11  1  0  0  0  0
 10 32  1  0  0  0  0
 11 12  1  0  0  0  0
 11 33  1  0  0  0  0
 11 34  1  0  0  0  0
 12 21  1  0  0  0  0
 12 13  1  0  0  0  0
 12 35  1  0  0  0  0
 13 14  1  0  0  0  0
 13 36  1  0  0  0  0
 13 37  1  0  0  0  0
 14 15  1  0  0  0  0
 14 19  1  0  0  0  0
 14 51  1  0  0  0  0
 15 16  1  0  0  0  0
 15 38  1  0  0  0  0
 15 39  1  0  0  0  0
 16 17  1  0  0  0  0
 16 18  1  0  0  0  0
 16 40  1  0  0  0  0
 17 41  1  0  0  0  0
 17 42  1  0  0  0  0
 17 43  1  0  0  0  0
 18 44  1  0  0  0  0
 18 45  1  0  0  0  0
 18 46  1  0  0  0  0
 19 20  1  0  0  0  0
 19 47  1  0  0  0  0
 19 48  1  0  0  0  0
 20 21  1  0  0  0  0
 20 49  1  0  0  0  0
 20 50  1  0  0  0  0
 22 23  2  0  0  0  0
M  CHG  1  14   1
M  END
> <s_m_source_file>
AV-unprocessed.smi

> <i_m_source_file_index>
678

> <i_lp_mmshare_version>
43012

> <i_f3d_flags>
0

> <s_epik_input>
W0NIM11jMVtjSF1bY0hdW2NIXW4oYzE9TylbQ0gyXUMoPU8pW05IXVtDSDJdW0NAQEhdMltDSDJdTihbQ0gyXVtDSDJdTzIpW0NIMl1bQ0hdKFtDSDNdKVtDSDNd

> <s_epik_cmdline>
J2VwaWtfcHl0aG9uJywgJy1waCcsICc3LjAnLCAnLXRuJywgJzgnLCAnLW1hJywgJzIwMCcsICctbWV0YWxfYmluZGluZycsICctaW1hZScsICc8aW5maWxlLm1hZT4nLCAnLW9tYWUnLCAnPG91dGZpbGUubWFlPic=

> <r_lp_tautomer_probability>
1

> <r_epik_Ionization_Penalty>
0.0975937

> <r_epik_Ionization_Penalty_Charging>
0.0975937

> <r_epik_Ionization_Penalty_Neutral>
6.27044e-08

> <r_epik_State_Penalty>
0.0877056

> <r_epik_Charging_Adjusted_Penalty>
0.185299

> <i_epik_Tot_Q>
1

> <i_epik_Tot_abs_Q>
1

> <r_epik_Metal_State_Penalty>
0.0877109

> <b_epik_Metal_Only>
0

> <s_lp_Force_Field>
OPLS_2005

> <r_lp_Energy>
27.4135

> <b_lp_Chiralities_Consistent>
1

> <s_lp_Variant>
AV-unprocessed.smi:678-2

> <Gold.Version>
5.8.1

> <Gold.Id.Protein>
6NUR|6NUR_protein|mol2

> <Gold.PLP.Fitness>
51.0277

> <Gold.PLP.PLP>
-43.5632

> <Gold.PLP.part.hbond>
-1.0090

> <Gold.PLP.part.metal>
0.0000

> <Gold.PLP.part.buried>
-2.6464

> <Gold.PLP.part.nonpolar>
-41.3011

> <Gold.PLP.part.repulsive>
0.3615

> <Gold.PLP.ligand.clash>
0.0000

> <Gold.PLP.ligand.torsion>
0.8349

> <Gold.PLP.Chemscore.Hbond>
2.0000

> <Gold.PLP.Chemscore.CHOScore>
1.0000

> <Gold.PLP.Chemscore.Metal>
0.0000

> <Gold.Chemscore.Hbonds>
donor molecule, donor type, donor heavy atom, donor atom, acceptor molecule, acceptor atom, score
      L1  H    14    51       P1  7948  2.00
      L1  C     5    29       P1  8028  1.00

> <Gold.PLP.Chemscore.Internal.Correction>
0.1342

> <Gold.Rescore>
     Score         DG    S(hbond)    S(metal)    S(lipo)     H(rot)  DE(clash)    DE(int)     intcor
     14.95     -16.79       1.00        0.00     109.45       1.89       0.85       0.99       ----

> <Gold.Chemscore.Fitness>
14.9485

> <Gold.Chemscore.DG>
-16.7945

> <Gold.Chemscore.ZeroCoef>
-5.4800

> <Gold.Chemscore.Hbond>
0.9999

> <Gold.Chemscore.Metal>
0.0000

> <Gold.Chemscore.Lipo>
109.4526

> <Gold.Chemscore.Internal_Hbond>
0.0000

> <Gold.Chemscore.DEClash>
0.8522

> <Gold.Chemscore.DEInternal>
0.9939

> <Gold.Chemscore.Rot>
1.8871

> <Gold.Chemscore.Internal.Correction>
   9.000000E+99

> <Gold.Chemscore.Hbonds>
donor molecule, donor type, donor heavy atom, donor atom, acceptor molecule, acceptor atom, score
      L1  H    14    51       P1  7948  1.00

> <Gold.Chemscore.Hbond.Weighted>
-3.3395

> <Gold.Chemscore.Metal.Weighted>
-0.0000

> <Gold.Chemscore.Lipo.Weighted>
-12.8060

> <Gold.Chemscore.Internal_Hbond.Weighted>
0.0000

> <Gold.Chemscore.DEClash.Weighted>
0.8522

> <Gold.Chemscore.DEInternal.Weighted>
0.9939

> <Gold.Chemscore.Rot.Weighted>
4.8309

> <Gold.Chemscore.Internal.Correction.Weighted>
   9.000000E+99

> <Gold.Protein.RotatedTorsions>
[ 6907 6896 6895 6894 ] final   34.06 input  -60.11 | X-H torsion
[ 7974 7965 7964 7962 ] final  123.96 input  175.53 | X-H torsion
[ 8008 7997 7996 7995 ] final  166.67 input   59.86 | X-H torsion
[ 10167 10162 10161 10158 ] final  -88.86 input  -65.29 | X-H torsion
[ 10718 10713 10712 10709 ] final  112.96 input   66.30 | X-H torsion
[ 10763 10752 10751 10750 ] final  109.68 input  -60.55 | X-H torsion
[ 11005 11000 10999 10996 ] final  -16.88 input  -57.11 | X-H torsion

> <Gold.Protein.ActiveResidues>
 VAL166  LYS551  ARG553  GLY616  TRP617  ASP618  TYR619  PRO620  LYS621  CYS622 
 ASP623  PHE694  ASN695  SER759  ASP760  ASP761  ALA762  ILE779  LEU786  VAL792 
 PHE793  MET794  SER795  GLU796  ALA797  LYS798  CYS799  TRP800  GLU811  SER814 

> <Gold.Protein.RotatedAtoms>
  152.0972  134.9366  160.0570 H   0  0  0  0  0  0  0  0  0  0  0  0  # atno 6907 bound_to 6896
  152.0595  133.4051  159.4420 H   0  0  0  0  0  0  0  0  0  0  0  0  # atno 6908 bound_to 6896
  150.6838  134.3137  159.4800 H   0  0  0  0  0  0  0  0  0  0  0  0  # atno 6909 bound_to 6896
  145.0899  139.3595  143.4866 H   0  0  0  0  0  0  0  0  0  0  0  0  # atno 7974 bound_to 7965
  156.1699  140.1637  156.8466 H   0  0  0  0  0  0  0  0  0  0  0  0  # atno 8008 bound_to 7997
  154.5246  140.0770  156.8268 H   0  0  0  0  0  0  0  0  0  0  0  0  # atno 8009 bound_to 7997
  155.3535  140.3391  155.4242 H   0  0  0  0  0  0  0  0  0  0  0  0  # atno 8010 bound_to 7997
  140.3705  143.2797  151.9506 H   0  0  0  0  0  0  0  0  0  0  0  0  # atno 10167 bound_to 10162
  157.6364  131.0976  150.6971 H   0  0  0  0  0  0  0  0  0  0  0  0  # atno 10718 bound_to 10713
  153.4382  135.3772  155.2212 H   0  0  0  0  0  0  0  0  0  0  0  0  # atno 10763 bound_to 10752
  154.8753  135.3856  154.4184 H   0  0  0  0  0  0  0  0  0  0  0  0  # atno 10764 bound_to 10752
  153.4726  135.7087  153.6047 H   0  0  0  0  0  0  0  0  0  0  0  0  # atno 10765 bound_to 10752
  140.8113  133.8139  155.9566 H   0  0  0  0  0  0  0  0  0  0  0  0  # atno 11005 bound_to 11000
  146.3531  140.0728  142.8622 LP  0  0  0  0  0  0  0  0  0  0  0  0  # atno 17320 bound_to 7965
  145.1079  140.9386  143.4674 LP  0  0  0  0  0  0  0  0  0  0  0  0  # atno 17321 bound_to 7965
  139.4804  144.5911  151.7770 LP  0  0  0  0  0  0  0  0  0  0  0  0  # atno 17342 bound_to 10162
  140.5038  144.1129  150.5977 LP  0  0  0  0  0  0  0  0  0  0  0  0  # atno 17343 bound_to 10162
  156.7302  130.4707  149.5501 LP  0  0  0  0  0  0  0  0  0  0  0  0  # atno 17370 bound_to 10713
  156.1607  130.6372  151.0715 LP  0  0  0  0  0  0  0  0  0  0  0  0  # atno 17371 bound_to 10713
  140.9195  134.2160  157.4935 LP  0  0  0  0  0  0  0  0  0  0  0  0  # atno 17394 bound_to 11000
  139.8714  134.9786  156.5003 LP  0  0  0  0  0  0  0  0  0  0  0  0  # atno 17395 bound_to 11000

$$$$
