AV-unprocessed.smi:244|AV-procd|sdf|1864|dock9
  -GOLD-   2262020503D 1   1.00000     0.00000
 Structure written by MMmdl.
 57 61  0  0  0  0  0  0  0  0  2 V2000
  151.7782  143.4480  159.3413 C   0  0  0  0  0  0  0  0  0  0  0  0
  152.7618  142.3972  159.6805 N   0  3  1  0  0  0  0  0  0  0  0  0
  153.1431  142.4245  161.1147 C   0  0  0  0  0  0  0  0  0  0  0  0
  154.2448  141.3949  161.4124 C   0  0  0  0  0  0  0  0  0  0  0  0
  153.7959  139.9920  160.9868 C   0  0  2  0  0  0  0  0  0  0  0  0
  154.8480  139.0623  161.2201 O   0  0  0  0  0  0  0  0  0  0  0  0
  154.4545  137.7314  160.9021 C   0  0  0  0  0  0  0  0  0  0  0  0
  154.0844  137.6515  159.4126 C   0  0  0  0  0  0  0  0  0  0  0  0
  153.0482  138.6309  159.0909 N   0  0  0  0  0  0  0  0  0  0  0  0
  152.5731  138.5130  157.8294 C   0  0  0  0  0  0  0  0  0  0  0  0
  153.3909  138.7320  156.7660 N   0  0  0  0  0  0  0  0  0  0  0  0
  152.9090  138.6318  155.5228 C   0  0  0  0  0  0  0  0  0  0  0  0
  151.6666  138.3405  155.1300 N   0  0  0  0  0  0  0  0  0  0  0  0
  150.8444  138.1274  156.1972 C   0  0  0  0  0  0  0  0  0  0  0  0
  151.2142  138.1960  157.5687 C   0  0  0  0  0  0  0  0  0  0  0  0
  150.1143  137.9373  158.3759 N   0  0  0  0  0  0  0  0  0  0  0  0
  149.1458  137.7235  157.5273 C   0  0  0  0  0  0  0  0  0  0  0  0
  149.4977  137.8080  156.1983 N   0  0  0  0  0  0  0  0  0  0  0  0
  148.6234  137.6134  155.0515 C   0  0  0  0  0  0  0  0  0  0  0  0
  148.4444  138.8771  154.1732 C   0  0  0  0  0  0  0  0  0  0  0  0
  149.4848  138.8861  153.2112 O   0  0  0  0  0  0  0  0  0  0  0  0
  147.0919  138.8986  153.4276 C   0  0  0  0  0  0  0  0  0  0  0  0
  146.8314  140.2478  152.7344 C   0  0  0  0  0  0  0  0  0  0  0  0
  146.9294  141.3107  153.6744 O   0  0  0  0  0  0  0  0  0  0  0  0
  148.2285  141.4239  154.2419 C   0  0  0  0  0  0  0  0  0  0  0  0
  148.5678  140.1496  155.0350 C   0  0  0  0  0  0  0  0  0  0  0  0
  153.4238  139.9909  159.4880 C   0  0  1  0  0  0  0  0  0  0  0  0
  152.3217  141.0497  159.2375 C   0  0  0  0  0  0  0  0  0  0  0  0
  150.8351  143.2849  159.8648 H   0  0  0  0  0  0  0  0  0  0  0  0
  151.5776  143.4567  158.2695 H   0  0  0  0  0  0  0  0  0  0  0  0
  152.1563  144.4332  159.6158 H   0  0  0  0  0  0  0  0  0  0  0  0
  153.4955  143.4219  161.3804 H   0  0  0  0  0  0  0  0  0  0  0  0
  152.2648  142.2232  161.7303 H   0  0  0  0  0  0  0  0  0  0  0  0
  155.1587  141.6685  160.8830 H   0  0  0  0  0  0  0  0  0  0  0  0
  154.4859  141.4046  162.4759 H   0  0  0  0  0  0  0  0  0  0  0  0
  152.9295  139.7049  161.5864 H   0  0  0  0  0  0  0  0  0  0  0  0
  155.2800  137.0542  161.1217 H   0  0  0  0  0  0  0  0  0  0  0  0
  153.6155  137.4256  161.5291 H   0  0  0  0  0  0  0  0  0  0  0  0
  154.9741  137.8377  158.8092 H   0  0  0  0  0  0  0  0  0  0  0  0
  153.7344  136.6469  159.1704 H   0  0  0  0  0  0  0  0  0  0  0  0
  153.6198  138.8111  154.7296 H   0  0  0  0  0  0  0  0  0  0  0  0
  148.1414  137.4886  157.8489 H   0  0  0  0  0  0  0  0  0  0  0  0
  149.0348  136.7995  154.4532 H   0  0  0  0  0  0  0  0  0  0  0  0
  147.6556  137.2620  155.4126 H   0  0  0  0  0  0  0  0  0  0  0  0
  149.5805  138.0128  152.8630 H   0  0  0  0  0  0  0  0  0  0  0  0
  147.0404  138.0967  152.6906 H   0  0  0  0  0  0  0  0  0  0  0  0
  146.2868  138.7136  154.1398 H   0  0  0  0  0  0  0  0  0  0  0  0
  147.5303  140.4087  151.9122 H   0  0  0  0  0  0  0  0  0  0  0  0
  145.8310  140.2553  152.3015 H   0  0  0  0  0  0  0  0  0  0  0  0
  148.9657  141.6106  153.4596 H   0  0  0  0  0  0  0  0  0  0  0  0
  148.2467  142.2895  154.9040 H   0  0  0  0  0  0  0  0  0  0  0  0
  147.8828  140.0799  155.8811 H   0  0  0  0  0  0  0  0  0  0  0  0
  149.5691  140.2288  155.4602 H   0  0  0  0  0  0  0  0  0  0  0  0
  154.3064  140.2711  158.9100 H   0  0  0  0  0  0  0  0  0  0  0  0
  151.4031  140.7746  159.7585 H   0  0  0  0  0  0  0  0  0  0  0  0
  152.0828  141.1057  158.1748 H   0  0  0  0  0  0  0  0  0  0  0  0
  153.5993  142.6107  159.1575 H   0  0  0  0  0  0  0  0  0  0  0  0
  1  2  1  0  0  0  0
  1 29  1  0  0  0  0
  1 30  1  0  0  0  0
  1 31  1  0  0  0  0
  2 28  1  0  0  0  0
  2  3  1  0  0  0  0
  2 57  1  0  0  0  0
  3  4  1  0  0  0  0
  3 32  1  0  0  0  0
  3 33  1  0  0  0  0
  4  5  1  0  0  0  0
  4 34  1  0  0  0  0
  4 35  1  0  0  0  0
  5 27  1  0  0  0  0
  5  6  1  0  0  0  0
  5 36  1  0  0  0  0
  6  7  1  0  0  0  0
  7  8  1  0  0  0  0
  7 37  1  0  0  0  0
  7 38  1  0  0  0  0
  8  9  1  0  0  0  0
  8 39  1  0  0  0  0
  8 40  1  0  0  0  0
  9 10  1  0  0  0  0
  9 27  1  0  0  0  0
 10 15  1  0  0  0  0
 10 11  2  0  0  0  0
 11 12  1  0  0  0  0
 12 13  2  0  0  0  0
 12 41  1  0  0  0  0
 13 14  1  0  0  0  0
 14 18  1  0  0  0  0
 14 15  2  0  0  0  0
 15 16  1  0  0  0  0
 16 17  2  0  0  0  0
 17 18  1  0  0  0  0
 17 42  1  0  0  0  0
 18 19  1  0  0  0  0
 19 20  1  0  0  0  0
 19 43  1  0  0  0  0
 19 44  1  0  0  0  0
 20 26  1  0  0  0  0
 20 21  1  0  0  0  0
 20 22  1  0  0  0  0
 21 45  1  0  0  0  0
 22 23  1  0  0  0  0
 22 46  1  0  0  0  0
 22 47  1  0  0  0  0
 23 24  1  0  0  0  0
 23 48  1  0  0  0  0
 23 49  1  0  0  0  0
 24 25  1  0  0  0  0
 25 26  1  0  0  0  0
 25 50  1  0  0  0  0
 25 51  1  0  0  0  0
 26 52  1  0  0  0  0
 26 53  1  0  0  0  0
 27 28  1  0  0  0  0
 27 54  1  0  0  0  0
 28 55  1  0  0  0  0
 28 56  1  0  0  0  0
M  CHG  1   2   1
M  END
> <s_m_source_file>
AV-unprocessed.smi

> <i_m_source_file_index>
244

> <i_lp_mmshare_version>
43012

> <i_f3d_flags>
0

> <s_epik_input>
W0NIMl0xW0NIMl1OKFtDSDNdKVtDSDJdW0NAQEhdKFtDQEhdMTIpTihbQ0gyXVtDSDJdTzIpYyhuW2NIXW4zKWMoYzM0KW5bY0hdbjRbQ0gyXUM1KFtPSF0pW0NIMl1bQ0gyXU9bQ0gyXVtDSDJdNQ==

> <s_epik_cmdline>
J2VwaWtfcHl0aG9uJywgJy1waCcsICc3LjAnLCAnLXRuJywgJzgnLCAnLW1hJywgJzIwMCcsICctbWV0YWxfYmluZGluZycsICctaW1hZScsICc8aW5maWxlLm1hZT4nLCAnLW9tYWUnLCAnPG91dGZpbGUubWFlPic=

> <r_lp_tautomer_probability>
1

> <r_epik_Ionization_Penalty>
0.0136215

> <r_epik_Ionization_Penalty_Charging>
0.0131385

> <r_epik_Ionization_Penalty_Neutral>
0.000483022

> <r_epik_State_Penalty>
0.0104001

> <r_epik_Charging_Adjusted_Penalty>
0.0235387

> <i_epik_Tot_Q>
1

> <i_epik_Tot_abs_Q>
1

> <r_epik_Metal_State_Penalty>
0.0104469

> <b_epik_Metal_Only>
0

> <s_lp_Force_Field>
OPLS_2005

> <r_lp_Energy>
41.0301

> <b_lp_Chiralities_Consistent>
1

> <s_lp_Variant>
AV-unprocessed.smi:244-1

> <Gold.Version>
5.8.1

> <Gold.Id.Protein>
6NUR|6NUR_protein|mol2

> <Gold.PLP.Fitness>
42.2390

> <Gold.PLP.PLP>
-37.3788

> <Gold.PLP.part.hbond>
-2.5796

> <Gold.PLP.part.metal>
0.0000

> <Gold.PLP.part.buried>
-2.3935

> <Gold.PLP.part.nonpolar>
-31.1412

> <Gold.PLP.part.repulsive>
0.2961

> <Gold.PLP.ligand.clash>
0.0000

> <Gold.PLP.ligand.torsion>
0.5996

> <Gold.PLP.Chemscore.Hbond>
1.9760

> <Gold.PLP.Chemscore.CHOScore>
0.0000

> <Gold.PLP.Chemscore.Metal>
0.0000

> <Gold.Chemscore.Hbonds>
donor molecule, donor type, donor heavy atom, donor atom, acceptor molecule, acceptor atom, score
      L1  H    21    45       P1  7948  0.84
      P1  H  7997  8008       L1    11  1.00

> <Gold.PLP.Chemscore.Internal.Correction>
0.1315

> <Gold.Rescore>
     Score         DG    S(hbond)    S(metal)    S(lipo)     H(rot)  DE(clash)    DE(int)     intcor
     15.71     -16.72       1.43        0.00     101.09       2.09       0.11       0.89       ----

> <Gold.Chemscore.Fitness>
15.7149

> <Gold.Chemscore.DG>
-16.7172

> <Gold.Chemscore.ZeroCoef>
-5.4800

> <Gold.Chemscore.Hbond>
1.4259

> <Gold.Chemscore.Metal>
0.0000

> <Gold.Chemscore.Lipo>
101.0919

> <Gold.Chemscore.Internal_Hbond>
0.0000

> <Gold.Chemscore.DEClash>
0.1081

> <Gold.Chemscore.DEInternal>
0.8941

> <Gold.Chemscore.Rot>
2.0911

> <Gold.Chemscore.Internal.Correction>
   9.000000E+99

> <Gold.Chemscore.Hbonds>
donor molecule, donor type, donor heavy atom, donor atom, acceptor molecule, acceptor atom, score
      L1  H    21    45       P1  7948  0.60
      P1  H  7997  8008       L1    11  0.33

> <Gold.Chemscore.Hbond.Weighted>
-4.7625

> <Gold.Chemscore.Metal.Weighted>
-0.0000

> <Gold.Chemscore.Lipo.Weighted>
-11.8277

> <Gold.Chemscore.Internal_Hbond.Weighted>
0.0000

> <Gold.Chemscore.DEClash.Weighted>
0.1081

> <Gold.Chemscore.DEInternal.Weighted>
0.8941

> <Gold.Chemscore.Rot.Weighted>
5.3531

> <Gold.Chemscore.Internal.Correction.Weighted>
   9.000000E+99

> <Gold.Protein.RotatedTorsions>
[ 6907 6896 6895 6894 ] final  -90.51 input  -60.11 | X-H torsion
[ 7974 7965 7964 7962 ] final -152.06 input  175.53 | X-H torsion
[ 8008 7997 7996 7995 ] final  -61.69 input   59.86 | X-H torsion
[ 10167 10162 10161 10158 ] final  126.38 input  -65.29 | X-H torsion
[ 10718 10713 10712 10709 ] final    0.39 input   66.30 | X-H torsion
[ 10763 10752 10751 10750 ] final -147.24 input  -60.55 | X-H torsion
[ 11005 11000 10999 10996 ] final  133.59 input  -57.11 | X-H torsion

> <Gold.Protein.ActiveResidues>
 VAL166  LYS551  ARG553  GLY616  TRP617  ASP618  TYR619  PRO620  LYS621  CYS622 
 ASP623  PHE694  ASN695  SER759  ASP760  ASP761  ALA762  ILE779  LEU786  VAL792 
 PHE793  MET794  SER795  GLU796  ALA797  LYS798  CYS799  TRP800  GLU811  SER814 

> <Gold.Protein.RotatedAtoms>
  150.6882  134.2421  159.4476 H   0  0  0  0  0  0  0  0  0  0  0  0  # atno 6907 bound_to 6896
  152.0364  134.9735  160.0582 H   0  0  0  0  0  0  0  0  0  0  0  0  # atno 6908 bound_to 6896
  152.1253  133.4342  159.4732 H   0  0  0  0  0  0  0  0  0  0  0  0  # atno 6909 bound_to 6896
  144.7815  140.4713  143.5836 H   0  0  0  0  0  0  0  0  0  0  0  0  # atno 7974 bound_to 7965
  154.4460  140.1012  156.6469 H   0  0  0  0  0  0  0  0  0  0  0  0  # atno 8008 bound_to 7997
  155.5440  140.3484  155.4434 H   0  0  0  0  0  0  0  0  0  0  0  0  # atno 8009 bound_to 7997
  156.0577  140.1319  156.9967 H   0  0  0  0  0  0  0  0  0  0  0  0  # atno 8010 bound_to 7997
  139.5634  144.6896  151.3977 H   0  0  0  0  0  0  0  0  0  0  0  0  # atno 10167 bound_to 10162
  156.8327  130.5494  149.5685 H   0  0  0  0  0  0  0  0  0  0  0  0  # atno 10718 bound_to 10713
  154.8296  135.3365  154.6786 H   0  0  0  0  0  0  0  0  0  0  0  0  # atno 10763 bound_to 10752
  153.7408  135.6946  153.4972 H   0  0  0  0  0  0  0  0  0  0  0  0  # atno 10764 bound_to 10752
  153.2245  135.4437  155.0478 H   0  0  0  0  0  0  0  0  0  0  0  0  # atno 10765 bound_to 10752
  139.9861  134.9531  156.9746 H   0  0  0  0  0  0  0  0  0  0  0  0  # atno 11005 bound_to 11000
  145.6038  139.1506  143.3114 LP  0  0  0  0  0  0  0  0  0  0  0  0  # atno 17320 bound_to 7965
  146.2025  140.6158  142.9096 LP  0  0  0  0  0  0  0  0  0  0  0  0  # atno 17321 bound_to 7965
  140.6916  143.7847  150.7264 LP  0  0  0  0  0  0  0  0  0  0  0  0  # atno 17342 bound_to 10162
  140.1331  143.4508  152.2241 LP  0  0  0  0  0  0  0  0  0  0  0  0  # atno 17343 bound_to 10162
  156.0925  130.5907  150.9757 LP  0  0  0  0  0  0  0  0  0  0  0  0  # atno 17370 bound_to 10713
  157.6398  131.0911  150.8274 LP  0  0  0  0  0  0  0  0  0  0  0  0  # atno 17371 bound_to 10713
  140.5000  134.1107  155.7248 LP  0  0  0  0  0  0  0  0  0  0  0  0  # atno 17394 bound_to 11000
  141.1526  133.8942  157.2060 LP  0  0  0  0  0  0  0  0  0  0  0  0  # atno 17395 bound_to 11000

$$$$
