AV-unprocessed.smi:3167|AV-procd|sdf|12097|dock3
  -GOLD-   2272017533D 1   1.00000     0.00000
 Structure written by MMmdl.
 37 38  0  0  0  0  0  0  0  0  2 V2000
  148.3905  140.1492  154.1275 C   0  0  0  0  0  0  0  0  0  0  0  0
  146.9335  139.9096  153.6719 C   0  0  2  0  0  0  0  0  0  0  0  0
  146.8859  139.5014  152.1759 C   0  0  0  0  0  0  0  0  0  0  0  0
  146.9438  138.0565  151.9762 N   0  0  0  0  0  0  0  0  0  0  0  0
  145.8826  137.2377  152.0070 C   0  0  0  0  0  0  0  0  0  0  0  0
  144.7328  137.6272  152.2120 O   0  0  0  0  0  0  0  0  0  0  0  0
  146.2410  135.9625  151.7887 N   0  0  0  0  0  0  0  0  0  0  0  0
  145.3958  134.8249  151.7770 C   0  0  0  0  0  0  0  0  0  0  0  0
  145.1732  133.8761  150.7362 C   0  0  0  0  0  0  0  0  0  0  0  0
  144.3004  132.9508  151.1093 N   0  0  0  0  0  0  0  0  0  0  0  0
  143.9649  133.2980  152.3721 N   0  0  0  0  0  0  0  0  0  0  0  0
  144.6076  134.4321  152.8171 C   0  0  0  0  0  0  0  0  0  0  0  0
  146.0819  141.1094  153.9172 N   0  3  0  0  0  0  0  0  0  0  0  0
  145.6996  141.3311  155.3355 C   0  0  0  0  0  0  0  0  0  0  0  0
  145.7229  142.8455  155.5849 C   0  0  0  0  0  0  0  0  0  0  0  0
  145.8728  143.4675  154.2017 C   0  0  0  0  0  0  0  0  0  0  0  0
  146.6231  142.3941  153.4219 C   0  0  0  0  0  0  0  0  0  0  0  0
  143.3035  132.7565  152.9104 H   0  0  0  0  0  0  0  0  0  0  0  0
  149.0176  139.2766  153.9447 H   0  0  0  0  0  0  0  0  0  0  0  0
  148.4577  140.3505  155.1965 H   0  0  0  0  0  0  0  0  0  0  0  0
  148.8369  140.9921  153.5991 H   0  0  0  0  0  0  0  0  0  0  0  0
  146.5267  139.0949  154.2734 H   0  0  0  0  0  0  0  0  0  0  0  0
  145.9868  139.8768  151.6857 H   0  0  0  0  0  0  0  0  0  0  0  0
  147.7278  139.9464  151.6447 H   0  0  0  0  0  0  0  0  0  0  0  0
  147.8531  137.6540  151.7997 H   0  0  0  0  0  0  0  0  0  0  0  0
  147.2198  135.7849  151.6180 H   0  0  0  0  0  0  0  0  0  0  0  0
  145.5981  133.8212  149.7451 H   0  0  0  0  0  0  0  0  0  0  0  0
  144.4516  134.8447  153.8029 H   0  0  0  0  0  0  0  0  0  0  0  0
  144.7063  140.9158  155.5090 H   0  0  0  0  0  0  0  0  0  0  0  0
  146.3901  140.8374  156.0215 H   0  0  0  0  0  0  0  0  0  0  0  0
  144.8316  143.1989  156.1043 H   0  0  0  0  0  0  0  0  0  0  0  0
  146.5874  143.1026  156.1989 H   0  0  0  0  0  0  0  0  0  0  0  0
  144.8892  143.6288  153.7583 H   0  0  0  0  0  0  0  0  0  0  0  0
  146.3963  144.4238  154.2201 H   0  0  0  0  0  0  0  0  0  0  0  0
  147.6898  142.4563  153.6449 H   0  0  0  0  0  0  0  0  0  0  0  0
  146.4904  142.5061  152.3453 H   0  0  0  0  0  0  0  0  0  0  0  0
  145.2170  140.9668  153.4157 H   0  0  0  0  0  0  0  0  0  0  0  0
  1  2  1  0  0  0  0
  1 19  1  0  0  0  0
  1 20  1  0  0  0  0
  1 21  1  0  0  0  0
  2  3  1  0  0  0  0
  2 13  1  0  0  0  0
  2 22  1  0  0  0  0
  3  4  1  0  0  0  0
  3 23  1  0  0  0  0
  3 24  1  0  0  0  0
  4  5  1  0  0  0  0
  4 25  1  0  0  0  0
  5  6  2  0  0  0  0
  5  7  1  0  0  0  0
  7  8  1  0  0  0  0
  7 26  1  0  0  0  0
  8 12  2  0  0  0  0
  8  9  1  0  0  0  0
  9 10  2  0  0  0  0
  9 27  1  0  0  0  0
 10 11  1  0  0  0  0
 11 18  1  0  0  0  0
 11 12  1  0  0  0  0
 12 28  1  0  0  0  0
 13 17  1  0  0  0  0
 13 14  1  0  0  0  0
 13 37  1  0  0  0  0
 14 15  1  0  0  0  0
 14 29  1  0  0  0  0
 14 30  1  0  0  0  0
 15 16  1  0  0  0  0
 15 31  1  0  0  0  0
 15 32  1  0  0  0  0
 16 17  1  0  0  0  0
 16 33  1  0  0  0  0
 16 34  1  0  0  0  0
 17 35  1  0  0  0  0
 17 36  1  0  0  0  0
M  CHG  1  13   1
M  END
> <s_m_source_file>
AV-unprocessed.smi

> <i_m_source_file_index>
3167

> <i_lp_mmshare_version>
43012

> <i_f3d_flags>
0

> <s_epik_input>
W0NIMl0xW0NIMl1bQ0gyXVtDSDJdTjFbQ0BIXShbQ0gzXSlbQ0gyXVtOSF1DKD1PKVtOSF1jMltjSF1uW25IXVtjSF0y

> <s_epik_cmdline>
J2VwaWtfcHl0aG9uJywgJy1waCcsICc3LjAnLCAnLXRuJywgJzgnLCAnLW1hJywgJzIwMCcsICctbWV0YWxfYmluZGluZycsICctaW1hZScsICc8aW5maWxlLm1hZT4nLCAnLW9tYWUnLCAnPG91dGZpbGUubWFlPic=

> <r_lp_tautomer_probability>
0.5

> <r_epik_Ionization_Penalty>
0.000801258

> <r_epik_Ionization_Penalty_Charging>
0.000761583

> <r_epik_Ionization_Penalty_Neutral>
3.96747e-05

> <r_epik_State_Penalty>
0.000487427

> <r_epik_Charging_Adjusted_Penalty>
0.00124901

> <i_epik_Tot_Q>
1

> <i_epik_Tot_abs_Q>
1

> <r_epik_Metal_State_Penalty>
-0

> <b_epik_Metal_Only>
0

> <s_lp_Force_Field>
OPLS_2005

> <r_lp_Energy>
32.1126

> <b_lp_Chiralities_Consistent>
1

> <s_lp_Variant>
AV-unprocessed.smi:3167-1

> <Gold.Version>
5.8.1

> <Gold.Id.Protein>
6NUR|6NUR_protein|mol2

> <Gold.PLP.Fitness>
40.3474

> <Gold.PLP.PLP>
-25.3641

> <Gold.PLP.part.hbond>
-4.0000

> <Gold.PLP.part.metal>
0.0000

> <Gold.PLP.part.buried>
-4.0260

> <Gold.PLP.part.nonpolar>
-18.9650

> <Gold.PLP.part.repulsive>
1.8469

> <Gold.PLP.ligand.clash>
0.0000

> <Gold.PLP.ligand.torsion>
1.3624

> <Gold.PLP.Chemscore.Hbond>
4.8920

> <Gold.PLP.Chemscore.CHOScore>
1.0000

> <Gold.PLP.Chemscore.Metal>
0.0000

> <Gold.Chemscore.Hbonds>
donor molecule, donor type, donor heavy atom, donor atom, acceptor molecule, acceptor atom, score
      L1  H     4    25       P1  7948  1.00
      L1  H     7    26       P1  7948  1.00
      L1  H    11    18       P1 10957  0.56
      L1  H    13    37       P1 10175  2.00
      L1  C     9    27       P1  7921  1.00

> <Gold.PLP.Chemscore.Internal.Correction>
0.0322

> <Gold.Rescore>
     Score         DG    S(hbond)    S(metal)    S(lipo)     H(rot)  DE(clash)    DE(int)     intcor
     17.95     -19.45       3.67        0.00      50.33       1.63       0.15       1.35       ----

> <Gold.Chemscore.Fitness>
17.9502

> <Gold.Chemscore.DG>
-19.4487

> <Gold.Chemscore.ZeroCoef>
-5.4800

> <Gold.Chemscore.Hbond>
3.6694

> <Gold.Chemscore.Metal>
0.0000

> <Gold.Chemscore.Lipo>
50.3305

> <Gold.Chemscore.Internal_Hbond>
0.0000

> <Gold.Chemscore.DEClash>
0.1489

> <Gold.Chemscore.DEInternal>
1.3496

> <Gold.Chemscore.Rot>
1.6311

> <Gold.Chemscore.Internal.Correction>
   9.000000E+99

> <Gold.Chemscore.Hbonds>
donor molecule, donor type, donor heavy atom, donor atom, acceptor molecule, acceptor atom, score
      L1  H     4    25       P1  7948  0.95
      L1  H     7    26       P1  7948  0.95
      L1  H    11    18       P1 10957  0.12
      L1  H    13    37       P1 10175  0.65

> <Gold.Chemscore.Hbond.Weighted>
-12.2557

> <Gold.Chemscore.Metal.Weighted>
-0.0000

> <Gold.Chemscore.Lipo.Weighted>
-5.8887

> <Gold.Chemscore.Internal_Hbond.Weighted>
0.0000

> <Gold.Chemscore.DEClash.Weighted>
0.1489

> <Gold.Chemscore.DEInternal.Weighted>
1.3496

> <Gold.Chemscore.Rot.Weighted>
4.1757

> <Gold.Chemscore.Internal.Correction.Weighted>
   9.000000E+99

> <Gold.Protein.RotatedTorsions>
[ 6907 6896 6895 6894 ] final  -43.28 input  -60.11 | X-H torsion
[ 7974 7965 7964 7962 ] final   46.82 input  175.53 | X-H torsion
[ 8008 7997 7996 7995 ] final  -86.36 input   59.86 | X-H torsion
[ 10167 10162 10161 10158 ] final  -23.13 input  -65.29 | X-H torsion
[ 10718 10713 10712 10709 ] final -167.66 input   66.30 | X-H torsion
[ 10763 10752 10751 10750 ] final -172.71 input  -60.55 | X-H torsion
[ 11005 11000 10999 10996 ] final -123.54 input  -57.11 | X-H torsion

> <Gold.Protein.ActiveResidues>
 VAL166  LYS551  ARG553  GLY616  TRP617  ASP618  TYR619  PRO620  LYS621  CYS622 
 ASP623  PHE694  ASN695  SER759  ASP760  ASP761  ALA762  ILE779  LEU786  VAL792 
 PHE793  MET794  SER795  GLU796  ALA797  LYS798  CYS799  TRP800  GLU811  SER814 

> <Gold.Protein.RotatedAtoms>
  150.9457  134.8862  159.7640 H   0  0  0  0  0  0  0  0  0  0  0  0  # atno 6907 bound_to 6896
  152.5099  134.3878  159.9383 H   0  0  0  0  0  0  0  0  0  0  0  0  # atno 6908 bound_to 6896
  151.3896  133.3753  159.2754 H   0  0  0  0  0  0  0  0  0  0  0  0  # atno 6909 bound_to 6896
  146.0355  139.4815  142.9811 H   0  0  0  0  0  0  0  0  0  0  0  0  # atno 7974 bound_to 7965
  154.6510  140.0579  156.9956 H   0  0  0  0  0  0  0  0  0  0  0  0  # atno 8008 bound_to 7997
  155.1371  140.3262  155.4442 H   0  0  0  0  0  0  0  0  0  0  0  0  # atno 8009 bound_to 7997
  156.2576  140.1970  156.6488 H   0  0  0  0  0  0  0  0  0  0  0  0  # atno 8010 bound_to 7997
  140.7287  143.4471  151.0571 H   0  0  0  0  0  0  0  0  0  0  0  0  # atno 10167 bound_to 10162
  156.6855  130.9139  151.3062 H   0  0  0  0  0  0  0  0  0  0  0  0  # atno 10718 bound_to 10713
  154.6162  135.2870  155.0377 H   0  0  0  0  0  0  0  0  0  0  0  0  # atno 10763 bound_to 10752
  154.1589  135.6491  153.4985 H   0  0  0  0  0  0  0  0  0  0  0  0  # atno 10764 bound_to 10752
  153.0216  135.5373  154.6934 H   0  0  0  0  0  0  0  0  0  0  0  0  # atno 10765 bound_to 10752
  140.9910  134.0538  157.3654 H   0  0  0  0  0  0  0  0  0  0  0  0  # atno 11005 bound_to 11000
  145.6971  141.0147  143.1524 LP  0  0  0  0  0  0  0  0  0  0  0  0  # atno 17320 bound_to 7965
  144.7050  139.8601  143.7433 LP  0  0  0  0  0  0  0  0  0  0  0  0  # atno 17321 bound_to 7965
  139.8143  143.7907  152.3173 LP  0  0  0  0  0  0  0  0  0  0  0  0  # atno 17342 bound_to 10162
  139.7968  144.7389  150.9880 LP  0  0  0  0  0  0  0  0  0  0  0  0  # atno 17343 bound_to 10162
  157.7028  130.9351  150.0837 LP  0  0  0  0  0  0  0  0  0  0  0  0  # atno 17370 bound_to 10713
  156.1836  130.3651  149.9003 LP  0  0  0  0  0  0  0  0  0  0  0  0  # atno 17371 bound_to 10713
  139.8992  135.0158  156.7187 LP  0  0  0  0  0  0  0  0  0  0  0  0  # atno 17394 bound_to 11000
  140.7039  133.9282  155.8041 LP  0  0  0  0  0  0  0  0  0  0  0  0  # atno 17395 bound_to 11000

$$$$
