AV-unprocessed.smi:148|AV-procd|sdf|1222|dock2
  -GOLD-   2262018413D 1   1.00000     0.00000
 Structure written by MMmdl.
 63 67  0  0  0  0  0  0  0  0  1 V2000
  148.4169  142.3526  154.1091 O   0  0  0  0  0  0  0  0  0  0  0  0
  148.2516  141.0470  154.6222 C   0  0  0  0  0  0  0  0  0  0  0  0
  149.5592  140.2271  154.4976 C   0  0  2  0  0  0  0  0  0  0  0  0
  149.2931  138.7079  154.3120 C   0  0  0  0  0  0  0  0  0  0  0  0
  147.8934  138.4028  154.0781 N   0  0  0  0  0  0  0  0  0  0  0  0
  147.1352  138.7866  152.9942 C   0  0  0  0  0  0  0  0  0  0  0  0
  145.9005  138.3633  153.0006 N   0  0  0  0  0  0  0  0  0  0  0  0
  145.8012  137.6443  154.1842 C   0  0  0  0  0  0  0  0  0  0  0  0
  144.7637  136.8971  154.7987 C   0  0  0  0  0  0  0  0  0  0  0  0
  143.5514  136.7575  154.2213 N   0  0  0  0  0  0  0  0  0  0  0  0
  142.5330  137.4523  155.0115 C   0  0  0  0  0  0  0  0  0  0  0  0
  141.2224  137.5926  154.2316 C   0  0  0  0  0  0  0  0  0  0  0  0
  140.7426  136.2152  153.7718 C   0  0  0  0  0  0  0  0  0  0  0  0
  141.8433  135.5238  152.9569 C   0  0  0  0  0  0  0  0  0  0  0  0
  143.1854  135.4112  153.7322 C   0  0  1  0  0  0  0  0  0  0  0  0
  144.2812  134.7327  152.8355 C   0  0  1  0  0  0  0  0  0  0  0  0
  143.8182  133.5908  151.9020 C   0  0  0  0  0  0  0  0  0  0  0  0
  144.8387  133.5013  150.7581 C   0  0  0  0  0  0  0  0  0  0  0  0
  145.7593  134.7150  150.9117 C   0  0  0  0  0  0  0  0  0  0  0  0
  145.0167  135.6667  151.8504 C   0  0  1  0  0  0  0  0  0  0  0  0
  144.1042  136.4314  151.0818 O   0  0  0  0  0  0  0  0  0  0  0  0
  145.0218  136.3048  155.9948 N   0  0  0  0  0  0  0  0  0  0  0  0
  146.2325  136.4274  156.5483 C   0  0  0  0  0  0  0  0  0  0  0  0
  147.3028  137.0759  156.0818 N   0  0  0  0  0  0  0  0  0  0  0  0
  147.0385  137.6725  154.8836 C   0  0  0  0  0  0  0  0  0  0  0  0
  150.5559  140.5359  155.6503 C   0  0  1  0  0  0  0  0  0  0  0  0
  150.7592  142.0231  155.9572 C   0  0  0  0  0  0  0  0  0  0  0  0
  150.5850  142.1188  157.4710 C   0  0  0  0  0  0  0  0  0  0  0  0
  149.7095  141.0451  157.7698 O   0  0  0  0  0  0  0  0  0  0  0  0
  150.1581  139.9360  157.0077 C   0  0  0  0  0  0  0  0  0  0  0  0
  148.4347  142.9611  154.8322 H   0  0  0  0  0  0  0  0  0  0  0  0
  147.9211  141.1053  155.6594 H   0  0  0  0  0  0  0  0  0  0  0  0
  147.4410  140.5872  154.0572 H   0  0  0  0  0  0  0  0  0  0  0  0
  150.0437  140.5655  153.5803 H   0  0  0  0  0  0  0  0  0  0  0  0
  149.8585  138.3123  153.4685 H   0  0  0  0  0  0  0  0  0  0  0  0
  149.6158  138.1433  155.1858 H   0  0  0  0  0  0  0  0  0  0  0  0
  147.5337  139.3816  152.1852 H   0  0  0  0  0  0  0  0  0  0  0  0
  142.3509  136.9021  155.9360 H   0  0  0  0  0  0  0  0  0  0  0  0
  142.8915  138.4430  155.2963 H   0  0  0  0  0  0  0  0  0  0  0  0
  140.4638  138.0689  154.8532 H   0  0  0  0  0  0  0  0  0  0  0  0
  141.3737  138.2409  153.3675 H   0  0  0  0  0  0  0  0  0  0  0  0
  140.4839  135.6038  154.6371 H   0  0  0  0  0  0  0  0  0  0  0  0
  139.8362  136.3131  153.1737 H   0  0  0  0  0  0  0  0  0  0  0  0
  141.4703  134.5431  152.6665 H   0  0  0  0  0  0  0  0  0  0  0  0
  142.0042  136.0774  152.0305 H   0  0  0  0  0  0  0  0  0  0  0  0
  143.0146  134.7796  154.6052 H   0  0  0  0  0  0  0  0  0  0  0  0
  145.0440  134.3231  153.5004 H   0  0  0  0  0  0  0  0  0  0  0  0
  143.7468  132.6299  152.4071 H   0  0  0  0  0  0  0  0  0  0  0  0
  142.8334  133.8190  151.4923 H   0  0  0  0  0  0  0  0  0  0  0  0
  145.4112  132.5741  150.8044 H   0  0  0  0  0  0  0  0  0  0  0  0
  144.3267  133.5215  149.7955 H   0  0  0  0  0  0  0  0  0  0  0  0
  146.6898  134.3991  151.3852 H   0  0  0  0  0  0  0  0  0  0  0  0
  146.0218  135.1711  149.9561 H   0  0  0  0  0  0  0  0  0  0  0  0
  145.7115  136.3386  152.3553 H   0  0  0  0  0  0  0  0  0  0  0  0
  144.5952  136.9628  150.4740 H   0  0  0  0  0  0  0  0  0  0  0  0
  146.3648  135.9281  157.4966 H   0  0  0  0  0  0  0  0  0  0  0  0
  151.5213  140.1018  155.3878 H   0  0  0  0  0  0  0  0  0  0  0  0
  151.7391  142.3811  155.6400 H   0  0  0  0  0  0  0  0  0  0  0  0
  150.0163  142.6464  155.4621 H   0  0  0  0  0  0  0  0  0  0  0  0
  151.5364  141.9680  157.9835 H   0  0  0  0  0  0  0  0  0  0  0  0
  150.1716  143.0766  157.7876 H   0  0  0  0  0  0  0  0  0  0  0  0
  149.3987  139.1567  156.9397 H   0  0  0  0  0  0  0  0  0  0  0  0
  151.0289  139.5010  157.5010 H   0  0  0  0  0  0  0  0  0  0  0  0
  1  2  1  0  0  0  0
  1 31  1  0  0  0  0
  2  3  1  0  0  0  0
  2 32  1  0  0  0  0
  2 33  1  0  0  0  0
  3  4  1  0  0  0  0
  3 26  1  0  0  0  0
  3 34  1  0  0  0  0
  4  5  1  0  0  0  0
  4 35  1  0  0  0  0
  4 36  1  0  0  0  0
  5 25  1  0  0  0  0
  5  6  1  0  0  0  0
  6  7  2  0  0  0  0
  6 37  1  0  0  0  0
  7  8  1  0  0  0  0
  8 25  2  0  0  0  0
  8  9  1  0  0  0  0
  9 10  1  0  0  0  0
  9 22  2  0  0  0  0
 10 15  1  0  0  0  0
 10 11  1  0  0  0  0
 11 12  1  0  0  0  0
 11 38  1  0  0  0  0
 11 39  1  0  0  0  0
 12 13  1  0  0  0  0
 12 40  1  0  0  0  0
 12 41  1  0  0  0  0
 13 14  1  0  0  0  0
 13 42  1  0  0  0  0
 13 43  1  0  0  0  0
 14 15  1  0  0  0  0
 14 44  1  0  0  0  0
 14 45  1  0  0  0  0
 15 16  1  0  0  0  0
 15 46  1  0  0  0  0
 16 20  1  0  0  0  0
 16 17  1  0  0  0  0
 16 47  1  0  0  0  0
 17 18  1  0  0  0  0
 17 48  1  0  0  0  0
 17 49  1  0  0  0  0
 18 19  1  0  0  0  0
 18 50  1  0  0  0  0
 18 51  1  0  0  0  0
 19 20  1  0  0  0  0
 19 52  1  0  0  0  0
 19 53  1  0  0  0  0
 20 21  1  0  0  0  0
 20 54  1  0  0  0  0
 21 55  1  0  0  0  0
 22 23  1  0  0  0  0
 23 24  2  0  0  0  0
 23 56  1  0  0  0  0
 24 25  1  0  0  0  0
 26 30  1  0  0  0  0
 26 27  1  0  0  0  0
 26 57  1  0  0  0  0
 27 28  1  0  0  0  0
 27 58  1  0  0  0  0
 27 59  1  0  0  0  0
 28 29  1  0  0  0  0
 28 60  1  0  0  0  0
 28 61  1  0  0  0  0
 29 30  1  0  0  0  0
 30 62  1  0  0  0  0
 30 63  1  0  0  0  0
M  END
> <s_m_source_file>
AV-unprocessed.smi

> <i_m_source_file_index>
148

> <i_lp_mmshare_version>
43012

> <i_f3d_flags>
0

> <s_epik_input>
W0NIMl0xT1tDSDJdW0NIMl1bQ0BIXTFbQ0BIXShbQ0gyXVtPSF0pW0NIMl1uKFtjSF1uMiljKGMyMyluW2NIXW5jM040W0NIMl1bQ0gyXVtDSDJdW0NIMl1bQ0BIXTRbQ0BASF01W0NIMl1bQ0gyXVtDSDJdW0NASF01W09IXQ==

> <s_epik_cmdline>
J2VwaWtfcHl0aG9uJywgJy1waCcsICc3LjAnLCAnLXRuJywgJzgnLCAnLW1hJywgJzIwMCcsICctbWV0YWxfYmluZGluZycsICctaW1hZScsICc8aW5maWxlLm1hZT4nLCAnLW9tYWUnLCAnPG91dGZpbGUubWFlPic=

> <r_lp_tautomer_probability>
1

> <r_epik_Ionization_Penalty>
0.00556303

> <r_epik_Ionization_Penalty_Charging>
0

> <r_epik_Ionization_Penalty_Neutral>
0.00556303

> <r_epik_State_Penalty>
0.00401767

> <r_epik_Charging_Adjusted_Penalty>
0.00401767

> <i_epik_Tot_Q>
0

> <i_epik_Tot_abs_Q>
0

> <r_epik_Metal_State_Penalty>
-0

> <b_epik_Metal_Only>
0

> <s_lp_Force_Field>
OPLS_2005

> <r_lp_Energy>
71.6968

> <b_lp_Chiralities_Consistent>
1

> <s_lp_Variant>
AV-unprocessed.smi:148-21

> <Gold.Version>
5.8.1

> <Gold.Id.Protein>
6NUR|6NUR_protein|mol2

> <Gold.PLP.Fitness>
44.0767

> <Gold.PLP.PLP>
-38.9925

> <Gold.PLP.part.hbond>
-2.9292

> <Gold.PLP.part.metal>
0.0000

> <Gold.PLP.part.buried>
-7.2595

> <Gold.PLP.part.nonpolar>
-29.2942

> <Gold.PLP.part.repulsive>
0.5251

> <Gold.PLP.ligand.clash>
0.0000

> <Gold.PLP.ligand.torsion>
1.6348

> <Gold.PLP.Chemscore.Hbond>
1.5572

> <Gold.PLP.Chemscore.CHOScore>
1.0000

> <Gold.PLP.Chemscore.Metal>
0.0000

> <Gold.Chemscore.Hbonds>
donor molecule, donor type, donor heavy atom, donor atom, acceptor molecule, acceptor atom, score
      L1  H     1    31       P1  8028  1.00
      L1  H    21    55       P1 10171  0.42
      P1  H  8011  8017       L1     1  0.11
      L1  C     6    37       P1  7957  1.00

> <Gold.PLP.Chemscore.Internal.Correction>
0.6821

> <Gold.Rescore>
     Score         DG    S(hbond)    S(metal)    S(lipo)     H(rot)  DE(clash)    DE(int)     intcor
      9.67     -12.63       1.57        0.00      88.82       3.32       0.01       2.95       ----

> <Gold.Chemscore.Fitness>
9.6680

> <Gold.Chemscore.DG>
-12.6285

> <Gold.Chemscore.ZeroCoef>
-5.4800

> <Gold.Chemscore.Hbond>
1.5738

> <Gold.Chemscore.Metal>
0.0000

> <Gold.Chemscore.Lipo>
88.8202

> <Gold.Chemscore.Internal_Hbond>
0.0000

> <Gold.Chemscore.DEClash>
0.0132

> <Gold.Chemscore.DEInternal>
2.9473

> <Gold.Chemscore.Rot>
3.3203

> <Gold.Chemscore.Internal.Correction>
   9.000000E+99

> <Gold.Chemscore.Hbonds>
donor molecule, donor type, donor heavy atom, donor atom, acceptor molecule, acceptor atom, score
      L1  H     1    31       P1  8028  0.95
      L1  H    21    55       P1 10171  0.42
      P1  H  8011  8017       L1     1  0.10

> <Gold.Chemscore.Hbond.Weighted>
-5.2565

> <Gold.Chemscore.Metal.Weighted>
-0.0000

> <Gold.Chemscore.Lipo.Weighted>
-10.3920

> <Gold.Chemscore.Internal_Hbond.Weighted>
0.0000

> <Gold.Chemscore.DEClash.Weighted>
0.0132

> <Gold.Chemscore.DEInternal.Weighted>
2.9473

> <Gold.Chemscore.Rot.Weighted>
8.5000

> <Gold.Chemscore.Internal.Correction.Weighted>
   9.000000E+99

> <Gold.Protein.RotatedTorsions>
[ 6907 6896 6895 6894 ] final  -18.70 input  -60.11 | X-H torsion
[ 7974 7965 7964 7962 ] final  -34.40 input  175.53 | X-H torsion
[ 8008 7997 7996 7995 ] final -148.74 input   59.86 | X-H torsion
[ 10167 10162 10161 10158 ] final  137.59 input  -65.29 | X-H torsion
[ 10718 10713 10712 10709 ] final  169.77 input   66.30 | X-H torsion
[ 10763 10752 10751 10750 ] final  -68.20 input  -60.55 | X-H torsion
[ 11005 11000 10999 10996 ] final  -33.69 input  -57.11 | X-H torsion

> <Gold.Protein.ActiveResidues>
 VAL166  LYS551  ARG553  GLY616  TRP617  ASP618  TYR619  PRO620  LYS621  CYS622 
 ASP623  PHE694  ASN695  SER759  ASP760  ASP761  ALA762  ILE779  LEU786  VAL792 
 PHE793  MET794  SER795  GLU796  ALA797  LYS798  CYS799  TRP800  GLU811  SER814 

> <Gold.Protein.RotatedAtoms>
  151.2743  135.0694  159.9145 H   0  0  0  0  0  0  0  0  0  0  0  0  # atno 6907 bound_to 6896
  152.5345  134.0098  159.7943 H   0  0  0  0  0  0  0  0  0  0  0  0  # atno 6908 bound_to 6896
  151.0341  133.5714  159.2688 H   0  0  0  0  0  0  0  0  0  0  0  0  # atno 6909 bound_to 6896
  146.0832  140.6034  142.8898 H   0  0  0  0  0  0  0  0  0  0  0  0  # atno 7974 bound_to 7965
  155.5965  140.0658  157.2745 H   0  0  0  0  0  0  0  0  0  0  0  0  # atno 8008 bound_to 7997
  154.4291  140.1826  156.1175 H   0  0  0  0  0  0  0  0  0  0  0  0  # atno 8009 bound_to 7997
  156.0193  140.3318  155.7025 H   0  0  0  0  0  0  0  0  0  0  0  0  # atno 8010 bound_to 7997
  139.5139  144.6401  151.5592 H   0  0  0  0  0  0  0  0  0  0  0  0  # atno 10167 bound_to 10162
  157.0178  131.0223  151.2783 H   0  0  0  0  0  0  0  0  0  0  0  0  # atno 10718 bound_to 10713
  154.3856  135.6064  153.5814 H   0  0  0  0  0  0  0  0  0  0  0  0  # atno 10763 bound_to 10752
  152.9788  135.5871  154.4359 H   0  0  0  0  0  0  0  0  0  0  0  0  # atno 10764 bound_to 10752
  154.4135  135.2844  155.2000 H   0  0  0  0  0  0  0  0  0  0  0  0  # atno 10765 bound_to 10752
  140.9655  133.7139  156.1439 H   0  0  0  0  0  0  0  0  0  0  0  0  # atno 11005 bound_to 11000
  144.7307  140.4664  143.6939 LP  0  0  0  0  0  0  0  0  0  0  0  0  # atno 17320 bound_to 7965
  145.6179  139.1520  143.3039 LP  0  0  0  0  0  0  0  0  0  0  0  0  # atno 17321 bound_to 7965
  140.6164  143.9340  150.6492 LP  0  0  0  0  0  0  0  0  0  0  0  0  # atno 17342 bound_to 10162
  140.2599  143.3531  152.1332 LP  0  0  0  0  0  0  0  0  0  0  0  0  # atno 17343 bound_to 10162
  157.5272  130.8035  149.7875 LP  0  0  0  0  0  0  0  0  0  0  0  0  # atno 17370 bound_to 10713
  156.0113  130.3832  150.2256 LP  0  0  0  0  0  0  0  0  0  0  0  0  # atno 17371 bound_to 10713
  140.7405  134.4155  157.5555 LP  0  0  0  0  0  0  0  0  0  0  0  0  # atno 17394 bound_to 11000
  139.8893  134.8833  156.2428 LP  0  0  0  0  0  0  0  0  0  0  0  0  # atno 17395 bound_to 11000

$$$$
