AV-unprocessed.smi:1260|AV-procd|sdf|5300|dock1
  -GOLD-   22720 4423D 1   1.00000     0.00000
 Structure written by MMmdl.
 37 39  0  0  0  0  0  0  0  0  2 V2000
  147.4779  131.8155  153.5579 O   0  0  0  0  0  0  0  0  0  0  0  0
  148.0825  132.8868  153.5318 C   0  0  0  0  0  0  0  0  0  0  0  0
  149.4744  132.9938  154.1557 C   0  0  0  0  0  0  0  0  0  0  0  0
  149.3897  133.3153  155.5678 N   0  0  0  0  0  0  0  0  0  0  0  0
  150.3419  133.4965  156.4852 C   0  0  0  0  0  0  0  0  0  0  0  0
  149.8278  133.7613  157.6766 N   0  0  0  0  0  0  0  0  0  0  0  0
  148.4628  133.7359  157.4438 N   0  0  0  0  0  0  0  0  0  0  0  0
  148.1967  133.4713  156.1943 N   0  0  0  0  0  0  0  0  0  0  0  0
  147.5887  134.0024  152.9716 N   0  0  0  0  0  0  0  0  0  0  0  0
  146.2724  134.1254  152.3521 C   0  0  1  0  0  0  0  0  0  0  0  0
  145.8024  135.5821  152.2336 C   0  0  0  0  0  0  0  0  0  0  0  0
  145.0646  135.6655  150.8825 C   0  0  0  0  0  0  0  0  0  0  0  0
  145.0603  134.2978  150.3137 N   0  3  2  0  0  0  0  0  0  0  0  0
  143.7760  133.5894  150.5728 C   0  0  0  0  0  0  0  0  0  0  0  0
  143.8484  132.1023  150.2026 C   0  0  0  0  0  0  0  0  0  0  0  0
  144.9807  131.4190  150.9733 C   0  0  0  0  0  0  0  0  0  0  0  0
  146.3056  132.1183  150.6539 C   0  0  0  0  0  0  0  0  0  0  0  0
  146.2580  133.6443  150.8955 C   0  0  2  0  0  0  0  0  0  0  0  0
  150.0096  132.0499  154.0439 H   0  0  0  0  0  0  0  0  0  0  0  0
  150.0572  133.7593  153.6409 H   0  0  0  0  0  0  0  0  0  0  0  0
  151.4007  133.4288  156.2833 H   0  0  0  0  0  0  0  0  0  0  0  0
  148.1599  134.8351  152.9992 H   0  0  0  0  0  0  0  0  0  0  0  0
  145.5282  133.5756  152.9312 H   0  0  0  0  0  0  0  0  0  0  0  0
  145.1534  135.8530  153.0670 H   0  0  0  0  0  0  0  0  0  0  0  0
  146.6446  136.2757  152.2366 H   0  0  0  0  0  0  0  0  0  0  0  0
  144.0603  136.0803  150.9822 H   0  0  0  0  0  0  0  0  0  0  0  0
  145.6155  136.3176  150.2038 H   0  0  0  0  0  0  0  0  0  0  0  0
  143.5033  133.6853  151.6251 H   0  0  0  0  0  0  0  0  0  0  0  0
  142.9831  134.0736  150.0017 H   0  0  0  0  0  0  0  0  0  0  0  0
  142.8988  131.6161  150.4287 H   0  0  0  0  0  0  0  0  0  0  0  0
  144.0066  131.9920  149.1289 H   0  0  0  0  0  0  0  0  0  0  0  0
  144.7832  131.4545  152.0452 H   0  0  0  0  0  0  0  0  0  0  0  0
  145.0390  130.3645  150.7018 H   0  0  0  0  0  0  0  0  0  0  0  0
  147.1174  131.6656  151.2226 H   0  0  0  0  0  0  0  0  0  0  0  0
  146.5446  131.9400  149.6045 H   0  0  0  0  0  0  0  0  0  0  0  0
  147.1246  134.0802  150.3939 H   0  0  0  0  0  0  0  0  0  0  0  0
  145.1756  134.3510  149.3116 H   0  0  0  0  0  0  0  0  0  0  0  0
  1  2  2  0  0  0  0
  2  3  1  0  0  0  0
  2  9  1  0  0  0  0
  3  4  1  0  0  0  0
  3 19  1  0  0  0  0
  3 20  1  0  0  0  0
  4  8  1  0  0  0  0
  4  5  1  0  0  0  0
  5  6  2  0  0  0  0
  5 21  1  0  0  0  0
  6  7  1  0  0  0  0
  7  8  2  0  0  0  0
  9 10  1  0  0  0  0
  9 22  1  0  0  0  0
 10 18  1  0  0  0  0
 10 11  1  0  0  0  0
 10 23  1  0  0  0  0
 11 12  1  0  0  0  0
 11 24  1  0  0  0  0
 11 25  1  0  0  0  0
 12 13  1  0  0  0  0
 12 26  1  0  0  0  0
 12 27  1  0  0  0  0
 13 18  1  0  0  0  0
 13 14  1  0  0  0  0
 13 37  1  0  0  0  0
 14 15  1  0  0  0  0
 14 28  1  0  0  0  0
 14 29  1  0  0  0  0
 15 16  1  0  0  0  0
 15 30  1  0  0  0  0
 15 31  1  0  0  0  0
 16 17  1  0  0  0  0
 16 32  1  0  0  0  0
 16 33  1  0  0  0  0
 17 18  1  0  0  0  0
 17 34  1  0  0  0  0
 17 35  1  0  0  0  0
 18 36  1  0  0  0  0
M  CHG  1  13   1
M  END
> <s_m_source_file>
AV-unprocessed.smi

> <i_m_source_file_index>
1260

> <i_lp_mmshare_version>
43012

> <i_f3d_flags>
0

> <s_epik_input>
bjFubltjSF1uMVtDSDJdQyg9TylbTkhdW0NASF0oW0NIMl1bQ0gyXTIpW0NAQEhdKE4yMylbQ0gyXVtDSDJdW0NIMl1bQ0gyXTM=

> <s_epik_cmdline>
J2VwaWtfcHl0aG9uJywgJy1waCcsICc3LjAnLCAnLXRuJywgJzgnLCAnLW1hJywgJzIwMCcsICctbWV0YWxfYmluZGluZycsICctaW1hZScsICc8aW5maWxlLm1hZT4nLCAnLW9tYWUnLCAnPG91dGZpbGUubWFlPic=

> <r_lp_tautomer_probability>
1

> <r_epik_Ionization_Penalty>
0.00234324

> <r_epik_Ionization_Penalty_Charging>
0.00233897

> <r_epik_Ionization_Penalty_Neutral>
4.26861e-06

> <r_epik_State_Penalty>
0.00161477

> <r_epik_Charging_Adjusted_Penalty>
0.00395374

> <i_epik_Tot_Q>
1

> <i_epik_Tot_abs_Q>
1

> <r_epik_Metal_State_Penalty>
-0

> <b_epik_Metal_Only>
0

> <s_lp_Force_Field>
OPLS_2005

> <r_lp_Energy>
39.0739

> <b_lp_Chiralities_Consistent>
1

> <s_lp_Variant>
AV-unprocessed.smi:1260-8

> <Gold.Version>
5.8.1

> <Gold.Id.Protein>
6NUR|6NUR_protein|mol2

> <Gold.PLP.Fitness>
38.5116

> <Gold.PLP.PLP>
-31.0544

> <Gold.PLP.part.hbond>
-3.0000

> <Gold.PLP.part.metal>
0.0000

> <Gold.PLP.part.buried>
-1.3462

> <Gold.PLP.part.nonpolar>
-26.9128

> <Gold.PLP.part.repulsive>
0.1274

> <Gold.PLP.ligand.clash>
0.0000

> <Gold.PLP.ligand.torsion>
0.6708

> <Gold.PLP.Chemscore.Hbond>
2.9280

> <Gold.PLP.Chemscore.CHOScore>
0.0000

> <Gold.PLP.Chemscore.Metal>
0.0000

> <Gold.Chemscore.Hbonds>
donor molecule, donor type, donor heavy atom, donor atom, acceptor molecule, acceptor atom, score
      L1  H     9    22       P1  7948  0.83
      L1  H    13    37       P1  7921  1.00
      P1  H  6896  6909       L1     6  1.00

> <Gold.PLP.Chemscore.Internal.Correction>
0.0147

> <Gold.Rescore>
     Score         DG    S(hbond)    S(metal)    S(lipo)     H(rot)  DE(clash)    DE(int)     intcor
     16.00     -17.00       2.68        0.00      65.21       1.98       0.34       0.66       ----

> <Gold.Chemscore.Fitness>
16.0031

> <Gold.Chemscore.DG>
-16.9952

> <Gold.Chemscore.ZeroCoef>
-5.4800

> <Gold.Chemscore.Hbond>
2.6776

> <Gold.Chemscore.Metal>
0.0000

> <Gold.Chemscore.Lipo>
65.2118

> <Gold.Chemscore.Internal_Hbond>
0.0000

> <Gold.Chemscore.DEClash>
0.3364

> <Gold.Chemscore.DEInternal>
0.6557

> <Gold.Chemscore.Rot>
1.9757

> <Gold.Chemscore.Internal.Correction>
   9.000000E+99

> <Gold.Chemscore.Hbonds>
donor molecule, donor type, donor heavy atom, donor atom, acceptor molecule, acceptor atom, score
      L1  H     9    22       P1  7948  0.68
      L1  H    13    37       P1  7921  0.95
      P1  H  6896  6909       L1     6  0.98

> <Gold.Chemscore.Hbond.Weighted>
-8.9432

> <Gold.Chemscore.Metal.Weighted>
-0.0000

> <Gold.Chemscore.Lipo.Weighted>
-7.6298

> <Gold.Chemscore.Internal_Hbond.Weighted>
0.0000

> <Gold.Chemscore.DEClash.Weighted>
0.3364

> <Gold.Chemscore.DEInternal.Weighted>
0.6557

> <Gold.Chemscore.Rot.Weighted>
5.0578

> <Gold.Chemscore.Internal.Correction.Weighted>
   9.000000E+99

> <Gold.Protein.RotatedTorsions>
[ 6907 6896 6895 6894 ] final   -4.64 input  -60.11 | X-H torsion
[ 7974 7965 7964 7962 ] final   96.86 input  175.53 | X-H torsion
[ 8008 7997 7996 7995 ] final   96.93 input   59.86 | X-H torsion
[ 10167 10162 10161 10158 ] final   -9.03 input  -65.29 | X-H torsion
[ 10718 10713 10712 10709 ] final  132.55 input   66.30 | X-H torsion
[ 10763 10752 10751 10750 ] final -174.60 input  -60.55 | X-H torsion
[ 11005 11000 10999 10996 ] final  129.69 input  -57.11 | X-H torsion

> <Gold.Protein.ActiveResidues>
 VAL166  LYS551  ARG553  GLY616  TRP617  ASP618  TYR619  PRO620  LYS621  CYS622 
 ASP623  PHE694  ASN695  SER759  ASP760  ASP761  ALA762  ILE779  LEU786  VAL792 
 PHE793  MET794  SER795  GLU796  ALA797  LYS798  CYS799  TRP800  GLU811  SER814 

> <Gold.Protein.RotatedAtoms>
  151.4944  135.1059  159.9811 H   0  0  0  0  0  0  0  0  0  0  0  0  # atno 6907 bound_to 6896
  152.4728  133.8064  159.6991 H   0  0  0  0  0  0  0  0  0  0  0  0  # atno 6908 bound_to 6896
  150.8747  133.7393  159.2976 H   0  0  0  0  0  0  0  0  0  0  0  0  # atno 6909 bound_to 6896
  145.4332  139.2308  143.3132 H   0  0  0  0  0  0  0  0  0  0  0  0  # atno 7974 bound_to 7965
  156.0848  140.3265  155.7739 H   0  0  0  0  0  0  0  0  0  0  0  0  # atno 8008 bound_to 7997
  155.5094  140.0576  157.2943 H   0  0  0  0  0  0  0  0  0  0  0  0  # atno 8009 bound_to 7997
  154.4603  140.1963  156.0281 H   0  0  0  0  0  0  0  0  0  0  0  0  # atno 8010 bound_to 7997
  140.7076  143.5903  150.8900 H   0  0  0  0  0  0  0  0  0  0  0  0  # atno 10167 bound_to 10162
  157.4860  131.1088  150.9619 H   0  0  0  0  0  0  0  0  0  0  0  0  # atno 10718 bound_to 10713
  154.5943  135.2848  155.0602 H   0  0  0  0  0  0  0  0  0  0  0  0  # atno 10763 bound_to 10752
  154.1891  135.6444  153.5059 H   0  0  0  0  0  0  0  0  0  0  0  0  # atno 10764 bound_to 10752
  153.0133  135.5442  154.6640 H   0  0  0  0  0  0  0  0  0  0  0  0  # atno 10765 bound_to 10752
  139.9629  134.9598  156.9185 H   0  0  0  0  0  0  0  0  0  0  0  0  # atno 11005 bound_to 11000
  146.2596  140.5072  142.8859 LP  0  0  0  0  0  0  0  0  0  0  0  0  # atno 17320 bound_to 7965
  144.8169  140.6483  143.6378 LP  0  0  0  0  0  0  0  0  0  0  0  0  # atno 17321 bound_to 7965
  139.9629  143.6144  152.2997 LP  0  0  0  0  0  0  0  0  0  0  0  0  # atno 17342 bound_to 10162
  139.6703  144.7661  151.1796 LP  0  0  0  0  0  0  0  0  0  0  0  0  # atno 17343 bound_to 10162
  157.0337  130.5721  149.5346 LP  0  0  0  0  0  0  0  0  0  0  0  0  # atno 17370 bound_to 10713
  156.0147  130.5240  150.8098 LP  0  0  0  0  0  0  0  0  0  0  0  0  # atno 17371 bound_to 10713
  140.5459  134.0674  155.7355 LP  0  0  0  0  0  0  0  0  0  0  0  0  # atno 17394 bound_to 11000
  141.1308  133.9306  157.2540 LP  0  0  0  0  0  0  0  0  0  0  0  0  # atno 17395 bound_to 11000

$$$$
