AV-unprocessed.smi:2790|AV-procd|sdf|10768|dock6
  -GOLD-   2272015203D 1   1.00000     0.00000
 Structure written by MMmdl.
 45 46  0  0  0  0  0  0  0  0  1 V2000
  147.7117  137.8632  154.3658 C   0  0  0  0  0  0  0  0  0  0  0  0
  147.8170  139.0096  153.4639 N   0  0  0  0  0  0  0  0  0  0  0  0
  146.8650  138.8593  152.3691 C   0  0  0  0  0  0  0  0  0  0  0  0
  147.5870  140.3025  154.1495 C   0  0  0  0  0  0  0  0  0  0  0  0
  148.8443  140.9426  154.7498 C   0  0  0  0  0  0  0  0  0  0  0  0
  149.7695  141.2948  154.0186 O   0  0  0  0  0  0  0  0  0  0  0  0
  148.8638  141.0793  156.0827 N   0  0  0  0  0  0  0  0  0  0  0  0
  149.9477  141.6875  156.8469 C   0  0  0  0  0  0  0  0  0  0  0  0
  150.8660  140.6267  157.5057 C   0  0  0  0  0  0  0  0  0  0  0  0
  151.7509  141.3252  158.5662 C   0  0  0  0  0  0  0  0  0  0  0  0
  151.6460  142.7084  158.8579 C   0  0  0  0  0  0  0  0  0  0  0  0
  152.4666  143.2669  159.8576 C   0  0  0  0  0  0  0  0  0  0  0  0
  153.3536  142.5507  160.5772 N   0  0  0  0  0  0  0  0  0  0  0  0
  153.4431  141.2306  160.3203 C   0  0  0  0  0  0  0  0  0  0  0  0
  152.6692  140.5766  159.3417 C   0  0  0  0  0  0  0  0  0  0  0  0
  149.9632  139.5316  158.1445 C   0  0  0  0  0  0  0  0  0  0  0  0
  150.7652  138.3455  158.7089 C   0  0  0  0  0  0  0  0  0  0  0  0
  151.5991  137.6784  157.6065 C   0  0  0  0  0  0  0  0  0  0  0  0
  152.5009  138.7007  156.9018 C   0  0  0  0  0  0  0  0  0  0  0  0
  151.6885  139.9087  156.3905 C   0  0  0  0  0  0  0  0  0  0  0  0
  148.4756  137.8887  155.1432 H   0  0  0  0  0  0  0  0  0  0  0  0
  147.8529  136.9301  153.8195 H   0  0  0  0  0  0  0  0  0  0  0  0
  146.7345  137.8268  154.8498 H   0  0  0  0  0  0  0  0  0  0  0  0
  146.9595  139.6819  151.6593 H   0  0  0  0  0  0  0  0  0  0  0  0
  145.8358  138.8387  152.7314 H   0  0  0  0  0  0  0  0  0  0  0  0
  147.0502  137.9356  151.8194 H   0  0  0  0  0  0  0  0  0  0  0  0
  147.1639  141.0171  153.4419 H   0  0  0  0  0  0  0  0  0  0  0  0
  146.8456  140.1722  154.9402 H   0  0  0  0  0  0  0  0  0  0  0  0
  148.0606  140.7568  156.6035 H   0  0  0  0  0  0  0  0  0  0  0  0
  150.5262  142.3194  156.1713 H   0  0  0  0  0  0  0  0  0  0  0  0
  149.5303  142.3498  157.6076 H   0  0  0  0  0  0  0  0  0  0  0  0
  150.9542  143.3554  158.3428 H   0  0  0  0  0  0  0  0  0  0  0  0
  152.4030  144.3197  160.0890 H   0  0  0  0  0  0  0  0  0  0  0  0
  154.1488  140.6740  160.9191 H   0  0  0  0  0  0  0  0  0  0  0  0
  152.7844  139.5119  159.2117 H   0  0  0  0  0  0  0  0  0  0  0  0
  149.3154  139.9410  158.9181 H   0  0  0  0  0  0  0  0  0  0  0  0
  149.2793  139.1450  157.3872 H   0  0  0  0  0  0  0  0  0  0  0  0
  151.4163  138.6808  159.5171 H   0  0  0  0  0  0  0  0  0  0  0  0
  150.0846  137.6144  159.1463 H   0  0  0  0  0  0  0  0  0  0  0  0
  152.2029  136.8737  158.0269 H   0  0  0  0  0  0  0  0  0  0  0  0
  150.9336  137.2166  156.8759 H   0  0  0  0  0  0  0  0  0  0  0  0
  153.2827  139.0250  157.5877 H   0  0  0  0  0  0  0  0  0  0  0  0
  153.0129  138.2225  156.0665 H   0  0  0  0  0  0  0  0  0  0  0  0
  151.0010  139.5428  155.6263 H   0  0  0  0  0  0  0  0  0  0  0  0
  152.3411  140.6029  155.8616 H   0  0  0  0  0  0  0  0  0  0  0  0
  1  2  1  0  0  0  0
  1 21  1  0  0  0  0
  1 22  1  0  0  0  0
  1 23  1  0  0  0  0
  2  3  1  0  0  0  0
  2  4  1  0  0  0  0
  3 24  1  0  0  0  0
  3 25  1  0  0  0  0
  3 26  1  0  0  0  0
  4  5  1  0  0  0  0
  4 27  1  0  0  0  0
  4 28  1  0  0  0  0
  5  6  2  0  0  0  0
  5  7  1  0  0  0  0
  7  8  1  0  0  0  0
  7 29  1  0  0  0  0
  8  9  1  0  0  0  0
  8 30  1  0  0  0  0
  8 31  1  0  0  0  0
  9 20  1  0  0  0  0
  9 10  1  0  0  0  0
  9 16  1  0  0  0  0
 10 15  1  0  0  0  0
 10 11  2  0  0  0  0
 11 12  1  0  0  0  0
 11 32  1  0  0  0  0
 12 13  2  0  0  0  0
 12 33  1  0  0  0  0
 13 14  1  0  0  0  0
 14 15  2  0  0  0  0
 14 34  1  0  0  0  0
 15 35  1  0  0  0  0
 16 17  1  0  0  0  0
 16 36  1  0  0  0  0
 16 37  1  0  0  0  0
 17 18  1  0  0  0  0
 17 38  1  0  0  0  0
 17 39  1  0  0  0  0
 18 19  1  0  0  0  0
 18 40  1  0  0  0  0
 18 41  1  0  0  0  0
 19 20  1  0  0  0  0
 19 42  1  0  0  0  0
 19 43  1  0  0  0  0
 20 44  1  0  0  0  0
 20 45  1  0  0  0  0
M  END
> <s_m_source_file>
AV-unprocessed.smi

> <i_m_source_file_index>
2790

> <i_lp_mmshare_version>
43012

> <i_f3d_flags>
0

> <s_epik_input>
W0NIM11OKFtDSDNdKVtDSDJdQyg9TylbTkhdW0NIMl1DMShbQ0gyXVtDSDJdW0NIMl1bQ0gyXVtDSDJdMSljMltjSF1bY0hdbltjSF1bY0hdMg==

> <s_epik_cmdline>
J2VwaWtfcHl0aG9uJywgJy1waCcsICc3LjAnLCAnLXRuJywgJzgnLCAnLW1hJywgJzIwMCcsICctbWV0YWxfYmluZGluZycsICctaW1hZScsICc8aW5maWxlLm1hZT4nLCAnLW9tYWUnLCAnPG91dGZpbGUubWFlPic=

> <r_epik_Ionization_Penalty>
1.73486

> <r_epik_Ionization_Penalty_Charging>
0

> <r_epik_Ionization_Penalty_Neutral>
1.73486

> <r_epik_State_Penalty>
1.84779

> <r_epik_Charging_Adjusted_Penalty>
1.84779

> <i_epik_Tot_Q>
0

> <i_epik_Tot_abs_Q>
0

> <r_epik_Metal_State_Penalty>
1.83713

> <b_epik_Metal_Only>
0

> <s_lp_Force_Field>
OPLS_2005

> <r_lp_Energy>
21.958

> <b_lp_Chiralities_Consistent>
1

> <s_lp_Variant>
AV-unprocessed.smi:2790-3

> <Gold.Version>
5.8.1

> <Gold.Id.Protein>
6NUR|6NUR_protein|mol2

> <Gold.PLP.Fitness>
34.7956

> <Gold.PLP.PLP>
-32.9264

> <Gold.PLP.part.hbond>
-2.0000

> <Gold.PLP.part.metal>
0.0000

> <Gold.PLP.part.buried>
-4.2223

> <Gold.PLP.part.nonpolar>
-27.4466

> <Gold.PLP.part.repulsive>
0.4740

> <Gold.PLP.ligand.clash>
0.0000

> <Gold.PLP.ligand.torsion>
0.6664

> <Gold.PLP.Chemscore.Hbond>
1.0560

> <Gold.PLP.Chemscore.CHOScore>
0.0000

> <Gold.PLP.Chemscore.Metal>
0.0000

> <Gold.Chemscore.Hbonds>
donor molecule, donor type, donor heavy atom, donor atom, acceptor molecule, acceptor atom, score
      P1  H  7989  7998       L1     6  0.32
      P1  H  8011  8017       L1     6  0.74

> <Gold.PLP.Chemscore.Internal.Correction>
0.0341

> <Gold.Rescore>
     Score         DG    S(hbond)    S(metal)    S(lipo)     H(rot)  DE(clash)    DE(int)     intcor
     14.32     -16.29       1.11        0.00      94.57       1.55       0.47       1.49       ----

> <Gold.Chemscore.Fitness>
14.3202

> <Gold.Chemscore.DG>
-16.2879

> <Gold.Chemscore.ZeroCoef>
-5.4800

> <Gold.Chemscore.Hbond>
1.1114

> <Gold.Chemscore.Metal>
0.0000

> <Gold.Chemscore.Lipo>
94.5724

> <Gold.Chemscore.Internal_Hbond>
0.0000

> <Gold.Chemscore.DEClash>
0.4730

> <Gold.Chemscore.DEInternal>
1.4947

> <Gold.Chemscore.Rot>
1.5505

> <Gold.Chemscore.Internal.Correction>
   9.000000E+99

> <Gold.Chemscore.Hbonds>
donor molecule, donor type, donor heavy atom, donor atom, acceptor molecule, acceptor atom, score
      P1  H  7989  7998       L1     6  0.32
      P1  H  8011  8017       L1     6  0.68

> <Gold.Chemscore.Hbond.Weighted>
-3.7122

> <Gold.Chemscore.Metal.Weighted>
-0.0000

> <Gold.Chemscore.Lipo.Weighted>
-11.0650

> <Gold.Chemscore.Internal_Hbond.Weighted>
0.0000

> <Gold.Chemscore.DEClash.Weighted>
0.4730

> <Gold.Chemscore.DEInternal.Weighted>
1.4947

> <Gold.Chemscore.Rot.Weighted>
3.9693

> <Gold.Chemscore.Internal.Correction.Weighted>
   9.000000E+99

> <Gold.Protein.RotatedTorsions>
[ 6907 6896 6895 6894 ] final  171.77 input  -60.11 | X-H torsion
[ 7974 7965 7964 7962 ] final   82.75 input  175.53 | X-H torsion
[ 8008 7997 7996 7995 ] final   13.00 input   59.86 | X-H torsion
[ 10167 10162 10161 10158 ] final  -90.80 input  -65.29 | X-H torsion
[ 10718 10713 10712 10709 ] final   96.59 input   66.30 | X-H torsion
[ 10763 10752 10751 10750 ] final   31.45 input  -60.55 | X-H torsion
[ 11005 11000 10999 10996 ] final  -26.99 input  -57.11 | X-H torsion

> <Gold.Protein.ActiveResidues>
 VAL166  LYS551  ARG553  GLY616  TRP617  ASP618  TYR619  PRO620  LYS621  CYS622 
 ASP623  PHE694  ASN695  SER759  ASP760  ASP761  ALA762  ILE779  LEU786  VAL792 
 PHE793  MET794  SER795  GLU796  ALA797  LYS798  CYS799  TRP800  GLU811  SER814 

> <Gold.Protein.RotatedAtoms>
  151.7949  133.3363  159.3509 H   0  0  0  0  0  0  0  0  0  0  0  0  # atno 6907 bound_to 6896
  150.7379  134.5808  159.5947 H   0  0  0  0  0  0  0  0  0  0  0  0  # atno 6908 bound_to 6896
  152.3184  134.7412  160.0371 H   0  0  0  0  0  0  0  0  0  0  0  0  # atno 6909 bound_to 6896
  145.6209  139.2386  143.2139 H   0  0  0  0  0  0  0  0  0  0  0  0  # atno 7974 bound_to 7965
  154.8284  140.2895  155.5739 H   0  0  0  0  0  0  0  0  0  0  0  0  # atno 8008 bound_to 7997
  156.3003  140.2537  156.3135 H   0  0  0  0  0  0  0  0  0  0  0  0  # atno 8009 bound_to 7997
  154.9259  140.0384  157.2012 H   0  0  0  0  0  0  0  0  0  0  0  0  # atno 8010 bound_to 7997
  140.3513  143.2890  151.9723 H   0  0  0  0  0  0  0  0  0  0  0  0  # atno 10167 bound_to 10162
  157.6925  131.0583  150.4515 H   0  0  0  0  0  0  0  0  0  0  0  0  # atno 10718 bound_to 10713
  153.0315  135.6438  154.1201 H   0  0  0  0  0  0  0  0  0  0  0  0  # atno 10763 bound_to 10752
  154.0922  135.2865  155.3270 H   0  0  0  0  0  0  0  0  0  0  0  0  # atno 10764 bound_to 10752
  154.6457  135.5444  153.7905 H   0  0  0  0  0  0  0  0  0  0  0  0  # atno 10765 bound_to 10752
  140.9079  133.7480  156.0630 H   0  0  0  0  0  0  0  0  0  0  0  0  # atno 11005 bound_to 11000
  146.1432  140.7029  142.9357 LP  0  0  0  0  0  0  0  0  0  0  0  0  # atno 17320 bound_to 7965
  144.7231  140.4439  143.6993 LP  0  0  0  0  0  0  0  0  0  0  0  0  # atno 17321 bound_to 7965
  139.4826  144.6073  151.7497 LP  0  0  0  0  0  0  0  0  0  0  0  0  # atno 17342 bound_to 10162
  140.5216  144.0870  150.6024 LP  0  0  0  0  0  0  0  0  0  0  0  0  # atno 17343 bound_to 10162
  156.4866  130.4086  149.6431 LP  0  0  0  0  0  0  0  0  0  0  0  0  # atno 17370 bound_to 10713
  156.3456  130.7405  151.2357 LP  0  0  0  0  0  0  0  0  0  0  0  0  # atno 17371 bound_to 10713
  140.8148  134.3358  157.5400 LP  0  0  0  0  0  0  0  0  0  0  0  0  # atno 17394 bound_to 11000
  139.8752  134.9275  156.3426 LP  0  0  0  0  0  0  0  0  0  0  0  0  # atno 17395 bound_to 11000

$$$$
