AV-unprocessed.smi:3285|AV-procd|sdf|12580|dock8
  -GOLD-   2272018503D 1   1.00000     0.00000
 Structure written by MMmdl.
 45 46  0  0  0  0  0  0  0  0  2 V2000
  154.2281  136.0467  158.3730 C   0  0  0  0  0  0  0  0  0  0  0  0
  153.9229  136.9660  157.2251 C   0  0  0  0  0  0  0  0  0  0  0  0
  154.8196  137.1382  156.2689 N   0  0  0  0  0  0  0  0  0  0  0  0
  154.2468  138.0356  155.3627 O   0  0  0  0  0  0  0  0  0  0  0  0
  153.0130  138.3739  155.8154 C   0  0  0  0  0  0  0  0  0  0  0  0
  152.2329  139.3316  154.9798 C   0  0  0  0  0  0  0  0  0  0  0  0
  152.7445  137.7317  156.9931 C   0  0  0  0  0  0  0  0  0  0  0  0
  151.5068  137.8096  157.8454 C   0  0  0  0  0  0  0  0  0  0  0  0
  151.1658  139.2600  158.2113 C   0  0  0  0  0  0  0  0  0  0  0  0
  152.3187  139.9296  158.8486 N   0  3  0  0  0  0  0  0  0  0  0  0
  152.0197  141.2316  159.4853 C   0  0  2  0  0  0  0  0  0  0  0  0
  151.2929  142.1448  158.4817 C   0  0  0  0  0  0  0  0  0  0  0  0
  150.9997  143.5304  159.0786 C   0  0  0  0  0  0  0  0  0  0  0  0
  152.2870  144.2063  159.5887 C   0  0  1  0  0  0  0  0  0  0  0  0
  152.0209  145.6293  160.1061 C   0  0  0  0  0  0  0  0  0  0  0  0
  153.0341  143.3104  160.6090 C   0  0  1  0  0  0  0  0  0  0  0  0
  152.3426  143.2033  161.9833 C   0  0  0  0  0  0  0  0  0  0  0  0
  153.3055  141.9187  159.9984 C   0  0  0  0  0  0  0  0  0  0  0  0
  154.2735  136.5988  159.3116 H   0  0  0  0  0  0  0  0  0  0  0  0
  155.1840  135.5379  158.2415 H   0  0  0  0  0  0  0  0  0  0  0  0
  153.4592  135.2809  158.4744 H   0  0  0  0  0  0  0  0  0  0  0  0
  151.6970  140.0458  155.6046 H   0  0  0  0  0  0  0  0  0  0  0  0
  151.5026  138.8021  154.3681 H   0  0  0  0  0  0  0  0  0  0  0  0
  152.8875  139.8943  154.3140 H   0  0  0  0  0  0  0  0  0  0  0  0
  150.6595  137.3611  157.3253 H   0  0  0  0  0  0  0  0  0  0  0  0
  151.6333  137.2274  158.7589 H   0  0  0  0  0  0  0  0  0  0  0  0
  150.8797  139.8124  157.3152 H   0  0  0  0  0  0  0  0  0  0  0  0
  150.3102  139.2744  158.8859 H   0  0  0  0  0  0  0  0  0  0  0  0
  152.7212  139.3142  159.5410 H   0  0  0  0  0  0  0  0  0  0  0  0
  151.3448  141.0475  160.3223 H   0  0  0  0  0  0  0  0  0  0  0  0
  151.9000  142.2631  157.5829 H   0  0  0  0  0  0  0  0  0  0  0  0
  150.3584  141.6813  158.1628 H   0  0  0  0  0  0  0  0  0  0  0  0
  150.5295  144.1568  158.3198 H   0  0  0  0  0  0  0  0  0  0  0  0
  150.2747  143.4388  159.8879 H   0  0  0  0  0  0  0  0  0  0  0  0
  152.9482  144.3171  158.7275 H   0  0  0  0  0  0  0  0  0  0  0  0
  151.2940  145.6357  160.9186 H   0  0  0  0  0  0  0  0  0  0  0  0
  151.6260  146.2640  159.3122 H   0  0  0  0  0  0  0  0  0  0  0  0
  152.9375  146.0938  160.4712 H   0  0  0  0  0  0  0  0  0  0  0  0
  154.0064  143.7698  160.7932 H   0  0  0  0  0  0  0  0  0  0  0  0
  151.3316  142.8045  161.9076 H   0  0  0  0  0  0  0  0  0  0  0  0
  152.2794  144.1736  162.4756 H   0  0  0  0  0  0  0  0  0  0  0  0
  152.9041  142.5480  162.6500 H   0  0  0  0  0  0  0  0  0  0  0  0
  153.8105  141.2957  160.7363 H   0  0  0  0  0  0  0  0  0  0  0  0
  154.0072  142.0276  159.1697 H   0  0  0  0  0  0  0  0  0  0  0  0
  153.0069  140.0919  158.1272 H   0  0  0  0  0  0  0  0  0  0  0  0
  1  2  1  0  0  0  0
  1 19  1  0  0  0  0
  1 20  1  0  0  0  0
  1 21  1  0  0  0  0
  2  7  1  0  0  0  0
  2  3  2  0  0  0  0
  3  4  1  0  0  0  0
  4  5  1  0  0  0  0
  5  6  1  0  0  0  0
  5  7  2  0  0  0  0
  6 22  1  0  0  0  0
  6 23  1  0  0  0  0
  6 24  1  0  0  0  0
  7  8  1  0  0  0  0
  8  9  1  0  0  0  0
  8 25  1  0  0  0  0
  8 26  1  0  0  0  0
  9 10  1  0  0  0  0
  9 27  1  0  0  0  0
  9 28  1  0  0  0  0
 10 11  1  0  0  0  0
 10 29  1  0  0  0  0
 10 45  1  0  0  0  0
 11 18  1  0  0  0  0
 11 12  1  0  0  0  0
 11 30  1  0  0  0  0
 12 13  1  0  0  0  0
 12 31  1  0  0  0  0
 12 32  1  0  0  0  0
 13 14  1  0  0  0  0
 13 33  1  0  0  0  0
 13 34  1  0  0  0  0
 14 15  1  0  0  0  0
 14 16  1  0  0  0  0
 14 35  1  0  0  0  0
 15 36  1  0  0  0  0
 15 37  1  0  0  0  0
 15 38  1  0  0  0  0
 16 17  1  0  0  0  0
 16 18  1  0  0  0  0
 16 39  1  0  0  0  0
 17 40  1  0  0  0  0
 17 41  1  0  0  0  0
 17 42  1  0  0  0  0
 18 43  1  0  0  0  0
 18 44  1  0  0  0  0
M  CHG  1  10   1
M  END
> <s_m_source_file>
AV-unprocessed.smi

> <i_m_source_file_index>
3285

> <i_lp_mmshare_version>
43012

> <i_f3d_flags>
0

> <s_epik_input>
W0NIM11jMW5vYyhbQ0gzXSljMVtDSDJdW0NIMl1bTkhdW0NAQEhdMltDSDJdW0NIMl1bQ0BASF0oW0NIM10pW0NAQEhdKFtDSDNdKVtDSDJdMg==

> <s_epik_cmdline>
J2VwaWtfcHl0aG9uJywgJy1waCcsICc3LjAnLCAnLXRuJywgJzgnLCAnLW1hJywgJzIwMCcsICctbWV0YWxfYmluZGluZycsICctaW1hZScsICc8aW5maWxlLm1hZT4nLCAnLW9tYWUnLCAnPG91dGZpbGUubWFlPic=

> <r_lp_tautomer_probability>
1

> <r_epik_Ionization_Penalty>
0.000204615

> <r_epik_Ionization_Penalty_Charging>
0.000204615

> <r_epik_Ionization_Penalty_Neutral>
9.28663e-11

> <r_epik_State_Penalty>
-0

> <r_epik_Charging_Adjusted_Penalty>
0.000204615

> <i_epik_Tot_Q>
1

> <i_epik_Tot_abs_Q>
1

> <r_epik_Metal_State_Penalty>
-0

> <b_epik_Metal_Only>
0

> <s_lp_Force_Field>
OPLS_2005

> <r_lp_Energy>
12.1865

> <b_lp_Chiralities_Consistent>
1

> <s_lp_Variant>
AV-unprocessed.smi:3285-1

> <Gold.Version>
5.8.1

> <Gold.Id.Protein>
6NUR|6NUR_protein|mol2

> <Gold.PLP.Fitness>
40.3641

> <Gold.PLP.PLP>
-39.2766

> <Gold.PLP.part.hbond>
-3.0000

> <Gold.PLP.part.metal>
0.0000

> <Gold.PLP.part.buried>
-5.1944

> <Gold.PLP.part.nonpolar>
-31.0558

> <Gold.PLP.part.repulsive>
0.1168

> <Gold.PLP.ligand.clash>
0.0000

> <Gold.PLP.ligand.torsion>
0.0996

> <Gold.PLP.Chemscore.Hbond>
0.4239

> <Gold.PLP.Chemscore.CHOScore>
0.0000

> <Gold.PLP.Chemscore.Metal>
0.0000

> <Gold.Chemscore.Hbonds>
donor molecule, donor type, donor heavy atom, donor atom, acceptor molecule, acceptor atom, score
      P1  H  7997  8010       L1     4  0.04
      P1  H 10752 10765       L1     3  0.34

> <Gold.PLP.Chemscore.Internal.Correction>
0.0152

> <Gold.Rescore>
     Score         DG    S(hbond)    S(metal)    S(lipo)     H(rot)  DE(clash)    DE(int)     intcor
     16.67     -16.98       0.12        0.00     124.43       1.35       0.24       0.07       ----

> <Gold.Chemscore.Fitness>
16.6700

> <Gold.Chemscore.DG>
-16.9777

> <Gold.Chemscore.ZeroCoef>
-5.4800

> <Gold.Chemscore.Hbond>
0.1158

> <Gold.Chemscore.Metal>
0.0000

> <Gold.Chemscore.Lipo>
124.4271

> <Gold.Chemscore.Internal_Hbond>
0.0000

> <Gold.Chemscore.DEClash>
0.2377

> <Gold.Chemscore.DEInternal>
0.0699

> <Gold.Chemscore.Rot>
1.3465

> <Gold.Chemscore.Internal.Correction>
   9.000000E+99

> <Gold.Chemscore.Hbonds>
donor molecule, donor type, donor heavy atom, donor atom, acceptor molecule, acceptor atom, score
      P1  H 10752 10765       L1     3  0.02

> <Gold.Chemscore.Hbond.Weighted>
-0.3868

> <Gold.Chemscore.Metal.Weighted>
-0.0000

> <Gold.Chemscore.Lipo.Weighted>
-14.5580

> <Gold.Chemscore.Internal_Hbond.Weighted>
0.0000

> <Gold.Chemscore.DEClash.Weighted>
0.2377

> <Gold.Chemscore.DEInternal.Weighted>
0.0699

> <Gold.Chemscore.Rot.Weighted>
3.4470

> <Gold.Chemscore.Internal.Correction.Weighted>
   9.000000E+99

> <Gold.Protein.RotatedTorsions>
[ 6907 6896 6895 6894 ] final  116.60 input  -60.11 | X-H torsion
[ 7974 7965 7964 7962 ] final    2.01 input  175.53 | X-H torsion
[ 8008 7997 7996 7995 ] final  126.88 input   59.86 | X-H torsion
[ 10167 10162 10161 10158 ] final  -72.45 input  -65.29 | X-H torsion
[ 10718 10713 10712 10709 ] final -138.44 input   66.30 | X-H torsion
[ 10763 10752 10751 10750 ] final  -59.07 input  -60.55 | X-H torsion
[ 11005 11000 10999 10996 ] final  151.01 input  -57.11 | X-H torsion

> <Gold.Protein.ActiveResidues>
 VAL166  LYS551  ARG553  GLY616  TRP617  ASP618  TYR619  PRO620  LYS621  CYS622 
 ASP623  PHE694  ASN695  SER759  ASP760  ASP761  ALA762  ILE779  LEU786  VAL792 
 PHE793  MET794  SER795  GLU796  ALA797  LYS798  CYS799  TRP800  GLU811  SER814 

> <Gold.Protein.RotatedAtoms>
  152.4667  133.7939  159.6916 H   0  0  0  0  0  0  0  0  0  0  0  0  # atno 6907 bound_to 6896
  150.8636  133.7598  159.2990 H   0  0  0  0  0  0  0  0  0  0  0  0  # atno 6908 bound_to 6896
  151.5156  135.1069  159.9917 H   0  0  0  0  0  0  0  0  0  0  0  0  # atno 6909 bound_to 6896
  146.2442  140.0901  142.8352 H   0  0  0  0  0  0  0  0  0  0  0  0  # atno 7974 bound_to 7965
  156.2876  140.2682  156.2183 H   0  0  0  0  0  0  0  0  0  0  0  0  # atno 8008 bound_to 7997
  155.0194  140.0386  157.2449 H   0  0  0  0  0  0  0  0  0  0  0  0  # atno 8009 bound_to 7997
  154.7448  140.2732  155.6347 H   0  0  0  0  0  0  0  0  0  0  0  0  # atno 8010 bound_to 7997
  140.5191  143.2334  151.7461 H   0  0  0  0  0  0  0  0  0  0  0  0  # atno 10167 bound_to 10162
  156.2994  130.7420  151.1467 H   0  0  0  0  0  0  0  0  0  0  0  0  # atno 10718 bound_to 10713
  154.2479  135.6331  153.5230 H   0  0  0  0  0  0  0  0  0  0  0  0  # atno 10763 bound_to 10752
  152.9917  135.5558  154.5839 H   0  0  0  0  0  0  0  0  0  0  0  0  # atno 10764 bound_to 10752
  154.5360  135.2891  155.1113 H   0  0  0  0  0  0  0  0  0  0  0  0  # atno 10765 bound_to 10752
  140.1181  134.8881  157.2033 H   0  0  0  0  0  0  0  0  0  0  0  0  # atno 11005 bound_to 11000
  145.0658  140.9120  143.4911 LP  0  0  0  0  0  0  0  0  0  0  0  0  # atno 17320 bound_to 7965
  145.1025  139.2813  143.5679 LP  0  0  0  0  0  0  0  0  0  0  0  0  # atno 17321 bound_to 7965
  139.4918  144.4281  151.9903 LP  0  0  0  0  0  0  0  0  0  0  0  0  # atno 17342 bound_to 10162
  140.3376  144.3241  150.5974 LP  0  0  0  0  0  0  0  0  0  0  0  0  # atno 17343 bound_to 10162
  157.7364  131.0563  150.5417 LP  0  0  0  0  0  0  0  0  0  0  0  0  # atno 17370 bound_to 10713
  156.5543  130.4239  149.6093 LP  0  0  0  0  0  0  0  0  0  0  0  0  # atno 17371 bound_to 10713
  140.3001  134.3141  155.7292 LP  0  0  0  0  0  0  0  0  0  0  0  0  # atno 17394 bound_to 11000
  141.2146  133.7587  156.9628 LP  0  0  0  0  0  0  0  0  0  0  0  0  # atno 17395 bound_to 11000

$$$$
