AV-unprocessed.smi:2923|AV-procd|sdf|11211|dock4
  -GOLD-   2272016103D 1   1.00000     0.00000
 Structure written by MMmdl.
 46 48  0  0  0  0  0  0  0  0  1 V2000
  151.3866  140.8267  158.4165 C   0  0  0  0  0  0  0  0  0  0  0  0
  151.3258  141.0327  156.9776 N   0  0  0  0  0  0  0  0  0  0  0  0
  151.0153  142.3827  156.5323 C   0  0  0  0  0  0  0  0  0  0  0  0
  150.5698  140.0551  156.3177 C   0  0  0  0  0  0  0  0  0  0  0  0
  149.5862  139.3031  156.9993 C   0  0  0  0  0  0  0  0  0  0  0  0
  148.8583  138.3333  156.2843 C   0  0  0  0  0  0  0  0  0  0  0  0
  149.1420  138.1399  154.9113 C   0  0  0  0  0  0  0  0  0  0  0  0
  148.4644  137.2087  154.0793 N   0  0  0  0  0  0  0  0  0  0  0  0
  147.4662  136.3705  154.4056 C   0  0  0  0  0  0  0  0  0  0  0  0
  146.9832  136.2403  155.5303 O   0  0  0  0  0  0  0  0  0  0  0  0
  147.0662  135.6578  153.3447 N   0  0  0  0  0  0  0  0  0  0  0  0
  146.0301  134.6331  153.3892 C   0  0  1  0  0  0  0  0  0  0  0  0
  145.5431  134.2280  151.9982 C   0  0  2  0  0  0  0  0  0  0  0  0
  144.2582  134.3624  151.2615 C   0  0  0  0  0  0  0  0  0  0  0  0
  144.1673  132.9080  150.7268 C   0  0  0  0  0  0  0  0  0  0  0  0
  145.1960  132.1630  151.4240 O   0  0  0  0  0  0  0  0  0  0  0  0
  145.3547  132.8662  152.6391 C   0  0  1  0  0  0  0  0  0  0  0  0
  146.6016  133.1695  153.4942 C   0  0  0  0  0  0  0  0  0  0  0  0
  147.9836  132.8435  152.8913 C   0  0  0  0  0  0  0  0  0  0  0  0
  146.5949  132.5678  154.8997 C   0  0  0  0  0  0  0  0  0  0  0  0
  150.1328  138.9542  154.3249 C   0  0  0  0  0  0  0  0  0  0  0  0
  150.8348  139.8855  155.0044 N   0  0  0  0  0  0  0  0  0  0  0  0
  151.6437  139.7924  158.6491 H   0  0  0  0  0  0  0  0  0  0  0  0
  150.4310  141.0598  158.8874 H   0  0  0  0  0  0  0  0  0  0  0  0
  152.1493  141.4694  158.8571 H   0  0  0  0  0  0  0  0  0  0  0  0
  151.0005  142.4386  155.4432 H   0  0  0  0  0  0  0  0  0  0  0  0
  151.7701  143.0811  156.8940 H   0  0  0  0  0  0  0  0  0  0  0  0
  150.0435  142.7052  156.9080 H   0  0  0  0  0  0  0  0  0  0  0  0
  149.3868  139.4665  158.0482 H   0  0  0  0  0  0  0  0  0  0  0  0
  148.0931  137.7723  156.7974 H   0  0  0  0  0  0  0  0  0  0  0  0
  148.8164  137.1349  153.1360 H   0  0  0  0  0  0  0  0  0  0  0  0
  147.5166  135.8194  152.4560 H   0  0  0  0  0  0  0  0  0  0  0  0
  145.2124  134.8485  154.0834 H   0  0  0  0  0  0  0  0  0  0  0  0
  146.3690  134.2550  151.2836 H   0  0  0  0  0  0  0  0  0  0  0  0
  143.4294  134.6069  151.9277 H   0  0  0  0  0  0  0  0  0  0  0  0
  144.3027  135.1012  150.4610 H   0  0  0  0  0  0  0  0  0  0  0  0
  143.1839  132.4818  150.9285 H   0  0  0  0  0  0  0  0  0  0  0  0
  144.3447  132.8569  149.6524 H   0  0  0  0  0  0  0  0  0  0  0  0
  144.4490  132.7868  153.2516 H   0  0  0  0  0  0  0  0  0  0  0  0
  148.1369  131.7663  152.8221 H   0  0  0  0  0  0  0  0  0  0  0  0
  148.7889  133.2448  153.5075 H   0  0  0  0  0  0  0  0  0  0  0  0
  148.1312  133.2426  151.8897 H   0  0  0  0  0  0  0  0  0  0  0  0
  146.7305  131.4861  154.8729 H   0  0  0  0  0  0  0  0  0  0  0  0
  145.6539  132.7623  155.4150 H   0  0  0  0  0  0  0  0  0  0  0  0
  147.3897  132.9866  155.5180 H   0  0  0  0  0  0  0  0  0  0  0  0
  150.3755  138.8538  153.2769 H   0  0  0  0  0  0  0  0  0  0  0  0
  1  2  1  0  0  0  0
  1 23  1  0  0  0  0
  1 24  1  0  0  0  0
  1 25  1  0  0  0  0
  2  3  1  0  0  0  0
  2  4  1  0  0  0  0
  3 26  1  0  0  0  0
  3 27  1  0  0  0  0
  3 28  1  0  0  0  0
  4 22  1  0  0  0  0
  4  5  2  0  0  0  0
  5  6  1  0  0  0  0
  5 29  1  0  0  0  0
  6  7  2  0  0  0  0
  6 30  1  0  0  0  0
  7  8  1  0  0  0  0
  7 21  1  0  0  0  0
  8  9  1  0  0  0  0
  8 31  1  0  0  0  0
  9 10  2  0  0  0  0
  9 11  1  0  0  0  0
 11 12  1  0  0  0  0
 11 32  1  0  0  0  0
 12 18  1  0  0  0  0
 12 13  1  0  0  0  0
 12 33  1  0  0  0  0
 13 17  1  0  0  0  0
 13 14  1  0  0  0  0
 13 34  1  0  0  0  0
 14 15  1  0  0  0  0
 14 35  1  0  0  0  0
 14 36  1  0  0  0  0
 15 16  1  0  0  0  0
 15 37  1  0  0  0  0
 15 38  1  0  0  0  0
 16 17  1  0  0  0  0
 17 18  1  0  0  0  0
 17 39  1  0  0  0  0
 18 19  1  0  0  0  0
 18 20  1  0  0  0  0
 19 40  1  0  0  0  0
 19 41  1  0  0  0  0
 19 42  1  0  0  0  0
 20 43  1  0  0  0  0
 20 44  1  0  0  0  0
 20 45  1  0  0  0  0
 21 22  2  0  0  0  0
 21 46  1  0  0  0  0
M  END
> <s_m_source_file>
AV-unprocessed.smi

> <i_m_source_file_index>
2923

> <i_lp_mmshare_version>
43012

> <i_f3d_flags>
0

> <s_epik_input>
W0NIM11OKFtDSDNdKWMxW2NIXVtjSF1jKFtjSF1uMSlbTkhdQyg9TylbTkhdW0NASF0yQyhbQ0gzXSkoW0NIM10pW0NAQEhdKFtDQEhdMjMpT1tDSDJdW0NIMl0z

> <s_epik_cmdline>
J2VwaWtfcHl0aG9uJywgJy1waCcsICc3LjAnLCAnLXRuJywgJzgnLCAnLW1hJywgJzIwMCcsICctbWV0YWxfYmluZGluZycsICctaW1hZScsICc8aW5maWxlLm1hZT4nLCAnLW9tYWUnLCAnPG91dGZpbGUubWFlPic=

> <r_lp_tautomer_probability>
1

> <r_epik_Ionization_Penalty>
0.628785

> <r_epik_Ionization_Penalty_Charging>
0

> <r_epik_Ionization_Penalty_Neutral>
0.628785

> <r_epik_State_Penalty>
0.644286

> <r_epik_Charging_Adjusted_Penalty>
0.644286

> <i_epik_Tot_Q>
0

> <i_epik_Tot_abs_Q>
0

> <r_epik_Metal_State_Penalty>
0.308404

> <b_epik_Metal_Only>
0

> <s_lp_Force_Field>
OPLS_2005

> <r_lp_Energy>
66.101

> <b_lp_Chiralities_Consistent>
1

> <s_lp_Variant>
AV-unprocessed.smi:2923-10

> <Gold.Version>
5.8.1

> <Gold.Id.Protein>
6NUR|6NUR_protein|mol2

> <Gold.PLP.Fitness>
37.2752

> <Gold.PLP.PLP>
-26.6791

> <Gold.PLP.part.hbond>
-2.5511

> <Gold.PLP.part.metal>
0.0000

> <Gold.PLP.part.buried>
-4.4041

> <Gold.PLP.part.nonpolar>
-19.9924

> <Gold.PLP.part.repulsive>
0.2249

> <Gold.PLP.ligand.clash>
0.0000

> <Gold.PLP.ligand.torsion>
0.6255

> <Gold.PLP.Chemscore.Hbond>
2.7920

> <Gold.PLP.Chemscore.CHOScore>
1.0000

> <Gold.PLP.Chemscore.Metal>
0.0000

> <Gold.Chemscore.Hbonds>
donor molecule, donor type, donor heavy atom, donor atom, acceptor molecule, acceptor atom, score
      L1  H     8    31       P1  7948  0.94
      L1  H    11    32       P1  7948  0.82
      P1  H  7989  7998       L1    22  1.00
      L1  C    21    46       P1  7957  1.00

> <Gold.PLP.Chemscore.Internal.Correction>
0.4710

> <Gold.Rescore>
     Score         DG    S(hbond)    S(metal)    S(lipo)     H(rot)  DE(clash)    DE(int)     intcor
     15.94     -17.98       2.54        0.00      60.37       1.19       0.19       1.86       ----

> <Gold.Chemscore.Fitness>
15.9401

> <Gold.Chemscore.DG>
-17.9824

> <Gold.Chemscore.ZeroCoef>
-5.4800

> <Gold.Chemscore.Hbond>
2.5434

> <Gold.Chemscore.Metal>
0.0000

> <Gold.Chemscore.Lipo>
60.3696

> <Gold.Chemscore.Internal_Hbond>
0.0000

> <Gold.Chemscore.DEClash>
0.1873

> <Gold.Chemscore.DEInternal>
1.8550

> <Gold.Chemscore.Rot>
1.1937

> <Gold.Chemscore.Internal.Correction>
   9.000000E+99

> <Gold.Chemscore.Hbonds>
donor molecule, donor type, donor heavy atom, donor atom, acceptor molecule, acceptor atom, score
      L1  H     8    31       P1  7948  0.87
      L1  H    11    32       P1  7948  0.80
      P1  H  7989  7998       L1    22  0.25

> <Gold.Chemscore.Hbond.Weighted>
-8.4950

> <Gold.Chemscore.Metal.Weighted>
-0.0000

> <Gold.Chemscore.Lipo.Weighted>
-7.0632

> <Gold.Chemscore.Internal_Hbond.Weighted>
0.0000

> <Gold.Chemscore.DEClash.Weighted>
0.1873

> <Gold.Chemscore.DEInternal.Weighted>
1.8550

> <Gold.Chemscore.Rot.Weighted>
3.0559

> <Gold.Chemscore.Internal.Correction.Weighted>
   9.000000E+99

> <Gold.Protein.RotatedTorsions>
[ 6907 6896 6895 6894 ] final -179.48 input  -60.11 | X-H torsion
[ 7974 7965 7964 7962 ] final  -19.36 input  175.53 | X-H torsion
[ 8008 7997 7996 7995 ] final   73.96 input   59.86 | X-H torsion
[ 10167 10162 10161 10158 ] final  142.34 input  -65.29 | X-H torsion
[ 10718 10713 10712 10709 ] final   92.65 input   66.30 | X-H torsion
[ 10763 10752 10751 10750 ] final   18.63 input  -60.55 | X-H torsion
[ 11005 11000 10999 10996 ] final -154.48 input  -57.11 | X-H torsion

> <Gold.Protein.ActiveResidues>
 VAL166  LYS551  ARG553  GLY616  TRP617  ASP618  TYR619  PRO620  LYS621  CYS622 
 ASP623  PHE694  ASN695  SER759  ASP760  ASP761  ALA762  ILE779  LEU786  VAL792 
 PHE793  MET794  SER795  GLU796  ALA797  LYS798  CYS799  TRP800  GLU811  SER814 

> <Gold.Protein.RotatedAtoms>
  151.6541  133.3319  159.3158 H   0  0  0  0  0  0  0  0  0  0  0  0  # atno 6907 bound_to 6896
  150.7945  134.6999  159.6553 H   0  0  0  0  0  0  0  0  0  0  0  0  # atno 6908 bound_to 6896
  152.4030  134.6258  160.0114 H   0  0  0  0  0  0  0  0  0  0  0  0  # atno 6909 bound_to 6896
  146.1845  140.4051  142.8481 H   0  0  0  0  0  0  0  0  0  0  0  0  # atno 7974 bound_to 7965
  155.7913  140.3479  155.5351 H   0  0  0  0  0  0  0  0  0  0  0  0  # atno 8008 bound_to 7997
  155.8631  140.0974  157.1621 H   0  0  0  0  0  0  0  0  0  0  0  0  # atno 8009 bound_to 7997
  154.4013  140.1355  156.3972 H   0  0  0  0  0  0  0  0  0  0  0  0  # atno 8010 bound_to 7997
  139.4996  144.6113  151.6265 H   0  0  0  0  0  0  0  0  0  0  0  0  # atno 10167 bound_to 10162
  157.6958  131.0450  150.3913 H   0  0  0  0  0  0  0  0  0  0  0  0  # atno 10718 bound_to 10713
  153.1232  135.6724  153.9300 H   0  0  0  0  0  0  0  0  0  0  0  0  # atno 10763 bound_to 10752
  153.8809  135.3058  155.3446 H   0  0  0  0  0  0  0  0  0  0  0  0  # atno 10764 bound_to 10752
  154.7641  135.4973  153.9600 H   0  0  0  0  0  0  0  0  0  0  0  0  # atno 10765 bound_to 10752
  140.6969  134.3980  157.5214 H   0  0  0  0  0  0  0  0  0  0  0  0  # atno 11005 bound_to 11000
  144.8373  140.6802  143.6252 LP  0  0  0  0  0  0  0  0  0  0  0  0  # atno 17320 bound_to 7965
  145.3978  139.1603  143.4194 LP  0  0  0  0  0  0  0  0  0  0  0  0  # atno 17321 bound_to 7965
  140.5788  143.9981  150.6257 LP  0  0  0  0  0  0  0  0  0  0  0  0  # atno 17342 bound_to 10162
  140.3124  143.3190  152.0866 LP  0  0  0  0  0  0  0  0  0  0  0  0  # atno 17343 bound_to 10162
  156.4316  130.3973  149.6756 LP  0  0  0  0  0  0  0  0  0  0  0  0  # atno 17370 bound_to 10713
  156.3971  130.7656  151.2661 LP  0  0  0  0  0  0  0  0  0  0  0  0  # atno 17371 bound_to 10713
  139.8907  134.8797  156.2354 LP  0  0  0  0  0  0  0  0  0  0  0  0  # atno 17394 bound_to 11000
  141.0196  133.7049  156.1245 LP  0  0  0  0  0  0  0  0  0  0  0  0  # atno 17395 bound_to 11000

$$$$
