AV-unprocessed.smi:14|AV-procd|sdf|77|dock9
  -GOLD-   2262015203D 1   1.00000     0.00000
 Structure written by MMmdl.
 57 60  0  0  0  0  0  0  0  0  1 V2000
  140.9371  135.2100  154.1192 N   0  0  0  0  0  0  0  0  0  0  0  0
  141.9544  135.1875  153.5687 C   0  0  0  0  0  0  0  0  0  0  0  0
  143.2477  135.1594  152.8686 C   0  0  0  0  0  0  0  0  0  0  0  0
  144.4338  135.6408  153.7226 C   0  0  0  0  0  0  0  0  0  0  0  0
  145.6595  134.8707  153.5146 N   0  0  0  0  0  0  0  0  0  0  0  0
  145.5481  133.4131  153.4217 C   0  0  0  0  0  0  0  0  0  0  0  0
  146.0853  132.8412  152.0901 C   0  0  2  0  0  0  0  0  0  0  0  0
  145.3228  133.3333  150.8715 C   0  0  0  0  0  0  0  0  0  0  0  0
  144.1236  132.3891  150.8059 C   0  0  0  0  0  0  0  0  0  0  0  0
  144.5193  131.1964  151.4776 O   0  0  0  0  0  0  0  0  0  0  0  0
  145.8440  131.3366  151.9784 C   0  0  0  0  0  0  0  0  0  0  0  0
  146.7574  135.3984  154.1138 C   0  0  0  0  0  0  0  0  0  0  0  0
  147.8191  134.6008  154.4068 N   0  0  0  0  0  0  0  0  0  0  0  0
  148.8980  135.1096  155.0085 C   0  0  0  0  0  0  0  0  0  0  0  0
  149.1194  136.3654  155.4020 N   0  0  0  0  0  0  0  0  0  0  0  0
  148.0568  137.1698  155.1126 C   0  0  0  0  0  0  0  0  0  0  0  0
  146.8493  136.7714  154.4731 C   0  0  0  0  0  0  0  0  0  0  0  0
  146.0067  137.8663  154.3277 N   0  0  0  0  0  0  0  0  0  0  0  0
  146.6753  138.8541  154.8562 C   0  0  0  0  0  0  0  0  0  0  0  0
  147.9095  138.5227  155.3695 N   0  0  0  0  0  0  0  0  0  0  0  0
  148.8595  139.4246  156.0060 C   0  0  0  0  0  0  0  0  0  0  0  0
  149.8444  140.1465  155.0325 C   0  0  0  0  0  0  0  0  0  0  0  0
  149.0120  140.9819  154.0202 C   0  0  0  0  0  0  0  0  0  0  0  0
  148.2262  141.9866  154.6307 O   0  0  0  0  0  0  0  0  0  0  0  0
  150.7766  141.0741  155.8546 C   0  0  0  0  0  0  0  0  0  0  0  0
  151.8089  140.2917  156.6896 C   0  0  0  0  0  0  0  0  0  0  0  0
  152.5625  139.4232  155.8522 O   0  0  0  0  0  0  0  0  0  0  0  0
  151.7620  138.4483  155.1951 C   0  0  0  0  0  0  0  0  0  0  0  0
  150.7485  139.1442  154.2691 C   0  0  0  0  0  0  0  0  0  0  0  0
  143.4172  134.1268  152.5628 H   0  0  0  0  0  0  0  0  0  0  0  0
  143.1569  135.7459  151.9541 H   0  0  0  0  0  0  0  0  0  0  0  0
  144.6355  136.6907  153.5079 H   0  0  0  0  0  0  0  0  0  0  0  0
  144.1553  135.6080  154.7753 H   0  0  0  0  0  0  0  0  0  0  0  0
  146.0797  132.9557  154.2569 H   0  0  0  0  0  0  0  0  0  0  0  0
  144.5023  133.1300  153.5456 H   0  0  0  0  0  0  0  0  0  0  0  0
  147.1499  133.0555  151.9953 H   0  0  0  0  0  0  0  0  0  0  0  0
  145.0352  134.3839  150.9229 H   0  0  0  0  0  0  0  0  0  0  0  0
  145.9392  133.2038  149.9809 H   0  0  0  0  0  0  0  0  0  0  0  0
  143.2686  132.8159  151.3311 H   0  0  0  0  0  0  0  0  0  0  0  0
  143.8204  132.1834  149.7791 H   0  0  0  0  0  0  0  0  0  0  0  0
  146.5334  130.8986  151.2555 H   0  0  0  0  0  0  0  0  0  0  0  0
  145.9732  130.8095  152.9242 H   0  0  0  0  0  0  0  0  0  0  0  0
  149.6975  134.4100  155.2033 H   0  0  0  0  0  0  0  0  0  0  0  0
  146.2802  139.8588  154.8896 H   0  0  0  0  0  0  0  0  0  0  0  0
  148.2903  140.1653  156.5693 H   0  0  0  0  0  0  0  0  0  0  0  0
  149.3947  138.8451  156.7564 H   0  0  0  0  0  0  0  0  0  0  0  0
  149.6622  141.4778  153.2998 H   0  0  0  0  0  0  0  0  0  0  0  0
  148.3453  140.3331  153.4511 H   0  0  0  0  0  0  0  0  0  0  0  0
  148.7640  142.7533  154.7572 H   0  0  0  0  0  0  0  0  0  0  0  0
  151.3334  141.7345  155.1893 H   0  0  0  0  0  0  0  0  0  0  0  0
  150.1910  141.7276  156.5021 H   0  0  0  0  0  0  0  0  0  0  0  0
  152.4959  140.9877  157.1712 H   0  0  0  0  0  0  0  0  0  0  0  0
  151.3361  139.7241  157.4910 H   0  0  0  0  0  0  0  0  0  0  0  0
  152.4151  137.8022  154.6085 H   0  0  0  0  0  0  0  0  0  0  0  0
  151.2682  137.8089  155.9271 H   0  0  0  0  0  0  0  0  0  0  0  0
  150.1553  138.4057  153.7313 H   0  0  0  0  0  0  0  0  0  0  0  0
  151.3179  139.6708  153.5027 H   0  0  0  0  0  0  0  0  0  0  0  0
  1  2  3  0  0  0  0
  2  3  1  0  0  0  0
  3  4  1  0  0  0  0
  3 30  1  0  0  0  0
  3 31  1  0  0  0  0
  4  5  1  0  0  0  0
  4 32  1  0  0  0  0
  4 33  1  0  0  0  0
  5  6  1  0  0  0  0
  5 12  1  0  0  0  0
  6  7  1  0  0  0  0
  6 34  1  0  0  0  0
  6 35  1  0  0  0  0
  7 11  1  0  0  0  0
  7  8  1  0  0  0  0
  7 36  1  0  0  0  0
  8  9  1  0  0  0  0
  8 37  1  0  0  0  0
  8 38  1  0  0  0  0
  9 10  1  0  0  0  0
  9 39  1  0  0  0  0
  9 40  1  0  0  0  0
 10 11  1  0  0  0  0
 11 41  1  0  0  0  0
 11 42  1  0  0  0  0
 12 17  1  0  0  0  0
 12 13  2  0  0  0  0
 13 14  1  0  0  0  0
 14 15  2  0  0  0  0
 14 43  1  0  0  0  0
 15 16  1  0  0  0  0
 16 20  1  0  0  0  0
 16 17  2  0  0  0  0
 17 18  1  0  0  0  0
 18 19  2  0  0  0  0
 19 20  1  0  0  0  0
 19 44  1  0  0  0  0
 20 21  1  0  0  0  0
 21 22  1  0  0  0  0
 21 45  1  0  0  0  0
 21 46  1  0  0  0  0
 22 29  1  0  0  0  0
 22 23  1  0  0  0  0
 22 25  1  0  0  0  0
 23 24  1  0  0  0  0
 23 47  1  0  0  0  0
 23 48  1  0  0  0  0
 24 49  1  0  0  0  0
 25 26  1  0  0  0  0
 25 50  1  0  0  0  0
 25 51  1  0  0  0  0
 26 27  1  0  0  0  0
 26 52  1  0  0  0  0
 26 53  1  0  0  0  0
 27 28  1  0  0  0  0
 28 29  1  0  0  0  0
 28 54  1  0  0  0  0
 28 55  1  0  0  0  0
 29 56  1  0  0  0  0
 29 57  1  0  0  0  0
M  END
> <s_m_source_file>
AV-unprocessed.smi

> <i_m_source_file_index>
14

> <i_lp_mmshare_version>
43012

> <i_f3d_flags>
0

> <s_epik_input>
W0NIMl0xT1tDSDJdW0NIMl1bQ0BIXTFbQ0gyXU4oW0NIMl1bQ0gyXUMjTiljKG5bY0hdbjIpYyhjMjMpbltjSF1uM1tDSDJdQzQoW0NIMl1bT0hdKVtDSDJdW0NIMl1PW0NIMl1bQ0gyXTQ=

> <s_epik_cmdline>
J2VwaWtfcHl0aG9uJywgJy1waCcsICc3LjAnLCAnLXRuJywgJzgnLCAnLW1hJywgJzIwMCcsICctbWV0YWxfYmluZGluZycsICctaW1hZScsICc8aW5maWxlLm1hZT4nLCAnLW9tYWUnLCAnPG91dGZpbGUubWFlPic=

> <r_lp_tautomer_probability>
1

> <r_epik_Ionization_Penalty>
0.000542547

> <r_epik_Ionization_Penalty_Charging>
0

> <r_epik_Ionization_Penalty_Neutral>
0.000542547

> <r_epik_State_Penalty>
0.000265709

> <r_epik_Charging_Adjusted_Penalty>
0.000265709

> <i_epik_Tot_Q>
0

> <i_epik_Tot_abs_Q>
0

> <r_epik_Metal_State_Penalty>
-0

> <b_epik_Metal_Only>
0

> <s_lp_Force_Field>
OPLS_2005

> <r_lp_Energy>
44.4286

> <b_lp_Chiralities_Consistent>
1

> <s_lp_Variant>
AV-unprocessed.smi:14-1

> <Gold.Version>
5.8.1

> <Gold.Id.Protein>
6NUR|6NUR_protein|mol2

> <Gold.PLP.Fitness>
47.2469

> <Gold.PLP.PLP>
-39.4424

> <Gold.PLP.part.hbond>
-3.0672

> <Gold.PLP.part.metal>
0.0000

> <Gold.PLP.part.buried>
-5.9619

> <Gold.PLP.part.nonpolar>
-29.8245

> <Gold.PLP.part.repulsive>
0.6606

> <Gold.PLP.ligand.clash>
0.0000

> <Gold.PLP.ligand.torsion>
1.1316

> <Gold.PLP.Chemscore.Hbond>
3.0000

> <Gold.PLP.Chemscore.CHOScore>
0.0000

> <Gold.PLP.Chemscore.Metal>
0.0000

> <Gold.Chemscore.Hbonds>
donor molecule, donor type, donor heavy atom, donor atom, acceptor molecule, acceptor atom, score
      L1  H    24    49       P1  8028  0.64
      P1  H  7997  8009       L1    27  0.85
      P1  H 11000 11005       L1     1  0.98

> <Gold.PLP.Chemscore.Internal.Correction>
1.0679

> <Gold.Rescore>
     Score         DG    S(hbond)    S(metal)    S(lipo)     H(rot)  DE(clash)    DE(int)     intcor
     13.63     -16.41       2.96        0.00      80.23       3.26       0.25       2.53       ----

> <Gold.Chemscore.Fitness>
13.6265

> <Gold.Chemscore.DG>
-16.4094

> <Gold.Chemscore.ZeroCoef>
-5.4800

> <Gold.Chemscore.Hbond>
2.9569

> <Gold.Chemscore.Metal>
0.0000

> <Gold.Chemscore.Lipo>
80.2303

> <Gold.Chemscore.Internal_Hbond>
0.0000

> <Gold.Chemscore.DEClash>
0.2490

> <Gold.Chemscore.DEInternal>
2.5339

> <Gold.Chemscore.Rot>
3.2553

> <Gold.Chemscore.Internal.Correction>
   9.000000E+99

> <Gold.Chemscore.Hbonds>
donor molecule, donor type, donor heavy atom, donor atom, acceptor molecule, acceptor atom, score
      L1  H    24    49       P1  8028  0.62
      P1  H  7997  8009       L1    27  0.14
      P1  H 11000 11005       L1     1  0.92

> <Gold.Chemscore.Hbond.Weighted>
-9.8760

> <Gold.Chemscore.Metal.Weighted>
-0.0000

> <Gold.Chemscore.Lipo.Weighted>
-9.3869

> <Gold.Chemscore.Internal_Hbond.Weighted>
0.0000

> <Gold.Chemscore.DEClash.Weighted>
0.2490

> <Gold.Chemscore.DEInternal.Weighted>
2.5339

> <Gold.Chemscore.Rot.Weighted>
8.3336

> <Gold.Chemscore.Internal.Correction.Weighted>
   9.000000E+99

> <Gold.Protein.RotatedTorsions>
[ 6907 6896 6895 6894 ] final -173.83 input  -60.11 | X-H torsion
[ 7974 7965 7964 7962 ] final -132.86 input  175.53 | X-H torsion
[ 8008 7997 7996 7995 ] final -160.99 input   59.86 | X-H torsion
[ 10167 10162 10161 10158 ] final -154.63 input  -65.29 | X-H torsion
[ 10718 10713 10712 10709 ] final  -13.30 input   66.30 | X-H torsion
[ 10763 10752 10751 10750 ] final   69.06 input  -60.55 | X-H torsion
[ 11005 11000 10999 10996 ] final   17.29 input  -57.11 | X-H torsion

> <Gold.Protein.ActiveResidues>
 VAL166  LYS551  ARG553  GLY616  TRP617  ASP618  TYR619  PRO620  LYS621  CYS622 
 ASP623  PHE694  ASN695  SER759  ASP760  ASP761  ALA762  ILE779  LEU786  VAL792 
 PHE793  MET794  SER795  GLU796  ALA797  LYS798  CYS799  TRP800  GLU811  SER814 

> <Gold.Protein.RotatedAtoms>
  151.5626  133.3401  159.2973 H   0  0  0  0  0  0  0  0  0  0  0  0  # atno 6907 bound_to 6896
  150.8414  134.7710  159.6946 H   0  0  0  0  0  0  0  0  0  0  0  0  # atno 6908 bound_to 6896
  152.4481  134.5460  159.9904 H   0  0  0  0  0  0  0  0  0  0  0  0  # atno 6909 bound_to 6896
  144.9247  140.7056  143.4943 H   0  0  0  0  0  0  0  0  0  0  0  0  # atno 7974 bound_to 7965
  155.7856  140.0871  157.2036 H   0  0  0  0  0  0  0  0  0  0  0  0  # atno 8008 bound_to 7997
  154.3988  140.1499  156.3161 H   0  0  0  0  0  0  0  0  0  0  0  0  # atno 8009 bound_to 7997
  155.8610  140.3430  155.5759 H   0  0  0  0  0  0  0  0  0  0  0  0  # atno 8010 bound_to 7997
  139.6997  143.9283  152.2423 H   0  0  0  0  0  0  0  0  0  0  0  0  # atno 10167 bound_to 10162
  156.6323  130.4905  149.6125 H   0  0  0  0  0  0  0  0  0  0  0  0  # atno 10718 bound_to 10713
  153.0267  135.5224  154.7229 H   0  0  0  0  0  0  0  0  0  0  0  0  # atno 10763 bound_to 10752
  154.6279  135.2897  155.0252 H   0  0  0  0  0  0  0  0  0  0  0  0  # atno 10764 bound_to 10752
  154.1215  135.6607  153.4956 H   0  0  0  0  0  0  0  0  0  0  0  0  # atno 10765 bound_to 10752
  140.4376  134.1355  155.7687 H   0  0  0  0  0  0  0  0  0  0  0  0  # atno 11005 bound_to 11000
  145.3239  139.1780  143.4573 LP  0  0  0  0  0  0  0  0  0  0  0  0  # atno 17320 bound_to 7965
  146.3220  140.3260  142.8637 LP  0  0  0  0  0  0  0  0  0  0  0  0  # atno 17321 bound_to 7965
  139.9122  144.6850  150.8550 LP  0  0  0  0  0  0  0  0  0  0  0  0  # atno 17342 bound_to 10162
  140.7706  143.3435  151.2159 LP  0  0  0  0  0  0  0  0  0  0  0  0  # atno 17343 bound_to 10162
  156.2225  130.6746  151.1383 LP  0  0  0  0  0  0  0  0  0  0  0  0  # atno 17370 bound_to 10713
  157.7196  131.0689  150.6189 LP  0  0  0  0  0  0  0  0  0  0  0  0  # atno 17371 bound_to 10713
  141.1719  133.8591  157.1544 LP  0  0  0  0  0  0  0  0  0  0  0  0  # atno 17394 bound_to 11000
  140.0091  134.9995  157.0357 LP  0  0  0  0  0  0  0  0  0  0  0  0  # atno 17395 bound_to 11000

$$$$
