AV-unprocessed.smi:2675|AV-procd|sdf|10362|dock5
  -GOLD-   2272014393D 1   1.00000     0.00000
 Structure written by MMmdl.
 36 37  0  0  0  0  0  0  0  0  1 V2000
  152.4415  143.7486  162.2220 C   0  0  0  0  0  0  0  0  0  0  0  0
  151.9056  143.9970  160.8463 C   0  0  0  0  0  0  0  0  0  0  0  0
  150.7632  144.7675  160.6429 N   0  0  0  0  0  0  0  0  0  0  0  0
  150.6042  144.7559  159.3272 C   0  0  0  0  0  0  0  0  0  0  0  0
  151.5273  144.0488  158.6602 N   0  0  0  0  0  0  0  0  0  0  0  0
  151.5866  143.8422  157.2213 C   0  0  0  0  0  0  0  0  0  0  0  0
  150.9884  142.4884  156.8362 C   0  0  0  0  0  0  0  0  0  0  0  0
  151.4155  141.4612  157.3607 O   0  0  0  0  0  0  0  0  0  0  0  0
  149.9854  142.5172  155.9407 N   0  0  0  0  0  0  0  0  0  0  0  0
  149.1435  141.4115  155.4690 C   0  0  1  0  0  0  0  0  0  0  0  0
  150.1059  140.2633  155.1229 C   0  0  0  0  0  0  0  0  0  0  0  0
  148.2259  140.9281  156.5197 C   0  0  0  0  0  0  0  0  0  0  0  0
  147.5093  140.5487  157.3457 N   0  0  0  0  0  0  0  0  0  0  0  0
  148.3039  141.7313  154.2297 C   0  0  0  0  0  0  0  0  0  0  0  0
  146.9095  142.3122  154.3260 C   0  0  0  0  0  0  0  0  0  0  0  0
  147.1107  140.9158  153.7809 C   0  0  0  0  0  0  0  0  0  0  0  0
  152.3890  143.5487  159.6353 C   0  0  0  0  0  0  0  0  0  0  0  0
  153.5765  142.6942  159.3273 C   0  0  0  0  0  0  0  0  0  0  0  0
  153.5044  143.9836  162.2785 H   0  0  0  0  0  0  0  0  0  0  0  0
  152.3174  142.7038  162.5070 H   0  0  0  0  0  0  0  0  0  0  0  0
  151.9309  144.3577  162.9685 H   0  0  0  0  0  0  0  0  0  0  0  0
  149.7885  145.2665  158.8365 H   0  0  0  0  0  0  0  0  0  0  0  0
  151.0410  144.6420  156.7191 H   0  0  0  0  0  0  0  0  0  0  0  0
  152.6250  143.9068  156.8940 H   0  0  0  0  0  0  0  0  0  0  0  0
  149.7367  143.4271  155.5808 H   0  0  0  0  0  0  0  0  0  0  0  0
  149.5633  139.3787  154.7873 H   0  0  0  0  0  0  0  0  0  0  0  0
  150.7018  139.9700  155.9882 H   0  0  0  0  0  0  0  0  0  0  0  0
  150.7953  140.5476  154.3266 H   0  0  0  0  0  0  0  0  0  0  0  0
  148.9091  142.1173  153.4109 H   0  0  0  0  0  0  0  0  0  0  0  0
  146.4495  142.4014  155.3081 H   0  0  0  0  0  0  0  0  0  0  0  0
  146.6432  143.0943  153.6180 H   0  0  0  0  0  0  0  0  0  0  0  0
  146.9779  140.7737  152.7104 H   0  0  0  0  0  0  0  0  0  0  0  0
  146.7709  140.0888  154.3977 H   0  0  0  0  0  0  0  0  0  0  0  0
  154.1267  142.4431  160.2342 H   0  0  0  0  0  0  0  0  0  0  0  0
  154.2616  143.2090  158.6536 H   0  0  0  0  0  0  0  0  0  0  0  0
  153.2726  141.7609  158.8537 H   0  0  0  0  0  0  0  0  0  0  0  0
  1  2  1  0  0  0  0
  1 19  1  0  0  0  0
  1 20  1  0  0  0  0
  1 21  1  0  0  0  0
  2 17  2  0  0  0  0
  2  3  1  0  0  0  0
  3  4  2  0  0  0  0
  4  5  1  0  0  0  0
  4 22  1  0  0  0  0
  5  6  1  0  0  0  0
  5 17  1  0  0  0  0
  6  7  1  0  0  0  0
  6 23  1  0  0  0  0
  6 24  1  0  0  0  0
  7  8  2  0  0  0  0
  7  9  1  0  0  0  0
  9 10  1  0  0  0  0
  9 25  1  0  0  0  0
 10 11  1  0  0  0  0
 10 12  1  0  0  0  0
 10 14  1  0  0  0  0
 11 26  1  0  0  0  0
 11 27  1  0  0  0  0
 11 28  1  0  0  0  0
 12 13  3  0  0  0  0
 14 16  1  0  0  0  0
 14 15  1  0  0  0  0
 14 29  1  0  0  0  0
 15 16  1  0  0  0  0
 15 30  1  0  0  0  0
 15 31  1  0  0  0  0
 16 32  1  0  0  0  0
 16 33  1  0  0  0  0
 17 18  1  0  0  0  0
 18 34  1  0  0  0  0
 18 35  1  0  0  0  0
 18 36  1  0  0  0  0
M  END
> <s_m_source_file>
AV-unprocessed.smi

> <i_m_source_file_index>
2675

> <i_lp_mmshare_version>
43012

> <i_f3d_flags>
0

> <s_epik_input>
W0NIM11jMW5bY0hdbihjMVtDSDNdKVtDSDJdQyg9TylbTkhdW0NAQF0oW0NIM10pKEMjTilbQ0hdMltDSDJdW0NIMl0y

> <s_epik_cmdline>
J2VwaWtfcHl0aG9uJywgJy1waCcsICc3LjAnLCAnLXRuJywgJzgnLCAnLW1hJywgJzIwMCcsICctbWV0YWxfYmluZGluZycsICctaW1hZScsICc8aW5maWxlLm1hZT4nLCAnLW9tYWUnLCAnPG91dGZpbGUubWFlPic=

> <r_lp_tautomer_probability>
1

> <r_epik_Ionization_Penalty>
0.876174

> <r_epik_Ionization_Penalty_Charging>
0.876172

> <r_epik_Ionization_Penalty_Neutral>
2.64295e-06

> <r_epik_State_Penalty>
0.913958

> <r_epik_Charging_Adjusted_Penalty>
1.79013

> <i_epik_Tot_Q>
0

> <i_epik_Tot_abs_Q>
0

> <r_epik_Metal_State_Penalty>
0.359336

> <b_epik_Metal_Only>
0

> <s_lp_Force_Field>
OPLS_2005

> <r_lp_Energy>
14.5701

> <b_lp_Chiralities_Consistent>
1

> <s_lp_Variant>
AV-unprocessed.smi:2675-3

> <Gold.Version>
5.8.1

> <Gold.Id.Protein>
6NUR|6NUR_protein|mol2

> <Gold.PLP.Fitness>
46.5804

> <Gold.PLP.PLP>
-41.6125

> <Gold.PLP.part.hbond>
-0.9277

> <Gold.PLP.part.metal>
0.0000

> <Gold.PLP.part.buried>
-4.3867

> <Gold.PLP.part.nonpolar>
-37.7547

> <Gold.PLP.part.repulsive>
0.3782

> <Gold.PLP.ligand.clash>
0.0000

> <Gold.PLP.ligand.torsion>
1.2562

> <Gold.PLP.Chemscore.Hbond>
0.9920

> <Gold.PLP.Chemscore.CHOScore>
0.9969

> <Gold.PLP.Chemscore.Metal>
0.0000

> <Gold.Chemscore.Hbonds>
donor molecule, donor type, donor heavy atom, donor atom, acceptor molecule, acceptor atom, score
      L1  H     9    25       P1  8028  1.00
      L1  C     4    22       P1  8029  0.99

> <Gold.PLP.Chemscore.Internal.Correction>
1.5135

> <Gold.Rescore>
     Score         DG    S(hbond)    S(metal)    S(lipo)     H(rot)  DE(clash)    DE(int)     intcor
     13.00     -15.36       0.95        0.00      95.41       1.74       0.08       2.28       ----

> <Gold.Chemscore.Fitness>
12.9965

> <Gold.Chemscore.DG>
-15.3561

> <Gold.Chemscore.ZeroCoef>
-5.4800

> <Gold.Chemscore.Hbond>
0.9505

> <Gold.Chemscore.Metal>
0.0000

> <Gold.Chemscore.Lipo>
95.4128

> <Gold.Chemscore.Internal_Hbond>
0.0000

> <Gold.Chemscore.DEClash>
0.0818

> <Gold.Chemscore.DEInternal>
2.2778

> <Gold.Chemscore.Rot>
1.7429

> <Gold.Chemscore.Internal.Correction>
   9.000000E+99

> <Gold.Chemscore.Hbonds>
donor molecule, donor type, donor heavy atom, donor atom, acceptor molecule, acceptor atom, score
      L1  H     9    25       P1  8028  0.90

> <Gold.Chemscore.Hbond.Weighted>
-3.1745

> <Gold.Chemscore.Metal.Weighted>
-0.0000

> <Gold.Chemscore.Lipo.Weighted>
-11.1633

> <Gold.Chemscore.Internal_Hbond.Weighted>
0.0000

> <Gold.Chemscore.DEClash.Weighted>
0.0818

> <Gold.Chemscore.DEInternal.Weighted>
2.2778

> <Gold.Chemscore.Rot.Weighted>
4.4617

> <Gold.Chemscore.Internal.Correction.Weighted>
   9.000000E+99

> <Gold.Protein.RotatedTorsions>
[ 6907 6896 6895 6894 ] final  164.78 input  -60.11 | X-H torsion
[ 7974 7965 7964 7962 ] final    3.03 input  175.53 | X-H torsion
[ 8008 7997 7996 7995 ] final -173.68 input   59.86 | X-H torsion
[ 10167 10162 10161 10158 ] final   29.35 input  -65.29 | X-H torsion
[ 10718 10713 10712 10709 ] final  -12.17 input   66.30 | X-H torsion
[ 10763 10752 10751 10750 ] final   -9.24 input  -60.55 | X-H torsion
[ 11005 11000 10999 10996 ] final   10.02 input  -57.11 | X-H torsion

> <Gold.Protein.ActiveResidues>
 VAL166  LYS551  ARG553  GLY616  TRP617  ASP618  TYR619  PRO620  LYS621  CYS622 
 ASP623  PHE694  ASN695  SER759  ASP760  ASP761  ALA762  ILE779  LEU786  VAL792 
 PHE793  MET794  SER795  GLU796  ALA797  LYS798  CYS799  TRP800  GLU811  SER814 

> <Gold.Protein.RotatedAtoms>
  151.9046  133.3546  159.3842 H   0  0  0  0  0  0  0  0  0  0  0  0  # atno 6907 bound_to 6896
  150.7072  134.4794  159.5472 H   0  0  0  0  0  0  0  0  0  0  0  0  # atno 6908 bound_to 6896
  152.2389  134.8249  160.0514 H   0  0  0  0  0  0  0  0  0  0  0  0  # atno 6909 bound_to 6896
  146.2445  140.0747  142.8360 H   0  0  0  0  0  0  0  0  0  0  0  0  # atno 7974 bound_to 7965
  155.9605  140.1143  157.0899 H   0  0  0  0  0  0  0  0  0  0  0  0  # atno 8008 bound_to 7997
  154.4131  140.1183  156.5240 H   0  0  0  0  0  0  0  0  0  0  0  0  # atno 8009 bound_to 7997
  155.6726  140.3473  155.4826 H   0  0  0  0  0  0  0  0  0  0  0  0  # atno 8010 bound_to 7997
  140.4773  144.0670  150.6255 H   0  0  0  0  0  0  0  0  0  0  0  0  # atno 10167 bound_to 10162
  156.6484  130.4948  149.6070 H   0  0  0  0  0  0  0  0  0  0  0  0  # atno 10718 bound_to 10713
  153.4520  135.7015  153.6103 H   0  0  0  0  0  0  0  0  0  0  0  0  # atno 10763 bound_to 10752
  153.4434  135.3775  155.2241 H   0  0  0  0  0  0  0  0  0  0  0  0  # atno 10764 bound_to 10752
  154.8728  135.3979  154.3933 H   0  0  0  0  0  0  0  0  0  0  0  0  # atno 10765 bound_to 10752
  140.5192  134.0575  155.7840 H   0  0  0  0  0  0  0  0  0  0  0  0  # atno 11005 bound_to 11000
  145.0785  140.9205  143.4839 LP  0  0  0  0  0  0  0  0  0  0  0  0  # atno 17320 bound_to 7965
  145.0895  139.2900  143.5742 LP  0  0  0  0  0  0  0  0  0  0  0  0  # atno 17321 bound_to 7965
  140.3902  143.2756  152.0069 LP  0  0  0  0  0  0  0  0  0  0  0  0  # atno 17342 bound_to 10162
  139.4828  144.6084  151.7479 LP  0  0  0  0  0  0  0  0  0  0  0  0  # atno 17343 bound_to 10162
  156.2103  130.6675  151.1263 LP  0  0  0  0  0  0  0  0  0  0  0  0  # atno 17370 bound_to 10713
  157.7149  131.0715  150.6366 LP  0  0  0  0  0  0  0  0  0  0  0  0  # atno 17371 bound_to 10713
  141.1343  133.9248  157.2467 LP  0  0  0  0  0  0  0  0  0  0  0  0  # atno 17394 bound_to 11000
  139.9615  135.0153  156.9274 LP  0  0  0  0  0  0  0  0  0  0  0  0  # atno 17395 bound_to 11000

$$$$
