AV-unprocessed.smi:1563|AV-procd|sdf|6290|dock2
  -GOLD-   22720 6493D 1   1.00000     0.00000
 Structure written by MMmdl.
 43 44  0  0  0  0  0  0  0  0  1 V2000
  152.1049  145.1220  158.4698 C   0  0  0  0  0  0  0  0  0  0  0  0
  151.7814  143.6393  158.3202 C   0  0  0  0  0  0  0  0  0  0  0  0
  152.4185  142.8026  158.9592 O   0  0  0  0  0  0  0  0  0  0  0  0
  150.7843  143.3289  157.4778 N   0  0  0  0  0  0  0  0  0  0  0  0
  150.3108  141.9771  157.1989 C   0  0  1  0  0  0  0  0  0  0  0  0
  148.8609  141.7898  157.7032 C   0  0  0  0  0  0  0  0  0  0  0  0
  148.2556  140.4502  157.2408 C   0  0  0  0  0  0  0  0  0  0  0  0
  148.4530  140.2467  155.7279 C   0  0  0  0  0  0  0  0  0  0  0  0
  149.8916  140.3415  155.4282 N   0  0  0  0  0  0  0  0  0  0  0  0
  150.7316  139.3012  155.1957 C   0  0  0  0  0  0  0  0  0  0  0  0
  151.8370  139.4322  154.6677 O   0  0  0  0  0  0  0  0  0  0  0  0
  150.2595  138.1009  155.5729 N   0  0  0  0  0  0  0  0  0  0  0  0
  150.9840  136.8403  155.4606 C   0  0  0  0  0  0  0  0  0  0  0  0
  150.3346  135.7405  156.3174 C   0  0  0  0  0  0  0  0  0  0  0  0
  150.0028  134.5016  155.5080 C   0  0  0  0  0  0  0  0  0  0  0  0
  150.5951  133.2592  155.8200 C   0  0  0  0  0  0  0  0  0  0  0  0
  150.2584  132.1397  155.0350 C   0  0  0  0  0  0  0  0  0  0  0  0
  149.3483  132.3047  153.9732 C   0  0  0  0  0  0  0  0  0  0  0  0
  148.8137  133.5880  153.7422 C   0  0  0  0  0  0  0  0  0  0  0  0
  149.1297  134.6683  154.4889 N   0  0  0  0  0  0  0  0  0  0  0  0
  150.3947  141.6967  155.6846 C   0  0  0  0  0  0  0  0  0  0  0  0
  152.0344  145.6352  157.5101 H   0  0  0  0  0  0  0  0  0  0  0  0
  153.1163  145.2581  158.8541 H   0  0  0  0  0  0  0  0  0  0  0  0
  151.4081  145.5905  159.1653 H   0  0  0  0  0  0  0  0  0  0  0  0
  150.3184  144.0840  156.9960 H   0  0  0  0  0  0  0  0  0  0  0  0
  150.9580  141.2613  157.7101 H   0  0  0  0  0  0  0  0  0  0  0  0
  148.8239  141.8578  158.7910 H   0  0  0  0  0  0  0  0  0  0  0  0
  148.2404  142.6026  157.3235 H   0  0  0  0  0  0  0  0  0  0  0  0
  148.7294  139.6302  157.7823 H   0  0  0  0  0  0  0  0  0  0  0  0
  147.1949  140.4146  157.4901 H   0  0  0  0  0  0  0  0  0  0  0  0
  147.9966  139.3078  155.4152 H   0  0  0  0  0  0  0  0  0  0  0  0
  147.9185  141.0216  155.1766 H   0  0  0  0  0  0  0  0  0  0  0  0
  149.3400  138.0634  155.9884 H   0  0  0  0  0  0  0  0  0  0  0  0
  150.9863  136.5438  154.4114 H   0  0  0  0  0  0  0  0  0  0  0  0
  152.0278  136.9817  155.7463 H   0  0  0  0  0  0  0  0  0  0  0  0
  150.9975  135.4598  157.1368 H   0  0  0  0  0  0  0  0  0  0  0  0
  149.4208  136.1167  156.7800 H   0  0  0  0  0  0  0  0  0  0  0  0
  151.2923  133.1650  156.6397 H   0  0  0  0  0  0  0  0  0  0  0  0
  150.6910  131.1723  155.2432 H   0  0  0  0  0  0  0  0  0  0  0  0
  149.0671  131.4683  153.3505 H   0  0  0  0  0  0  0  0  0  0  0  0
  148.1140  133.7508  152.9360 H   0  0  0  0  0  0  0  0  0  0  0  0
  149.7909  142.4170  155.1301 H   0  0  0  0  0  0  0  0  0  0  0  0
  151.4169  141.8355  155.3287 H   0  0  0  0  0  0  0  0  0  0  0  0
  1  2  1  0  0  0  0
  1 22  1  0  0  0  0
  1 23  1  0  0  0  0
  1 24  1  0  0  0  0
  2  3  2  0  0  0  0
  2  4  1  0  0  0  0
  4  5  1  0  0  0  0
  4 25  1  0  0  0  0
  5 21  1  0  0  0  0
  5  6  1  0  0  0  0
  5 26  1  0  0  0  0
  6  7  1  0  0  0  0
  6 27  1  0  0  0  0
  6 28  1  0  0  0  0
  7  8  1  0  0  0  0
  7 29  1  0  0  0  0
  7 30  1  0  0  0  0
  8  9  1  0  0  0  0
  8 31  1  0  0  0  0
  8 32  1  0  0  0  0
  9 10  1  0  0  0  0
  9 21  1  0  0  0  0
 10 11  2  0  0  0  0
 10 12  1  0  0  0  0
 12 13  1  0  0  0  0
 12 33  1  0  0  0  0
 13 14  1  0  0  0  0
 13 34  1  0  0  0  0
 13 35  1  0  0  0  0
 14 15  1  0  0  0  0
 14 36  1  0  0  0  0
 14 37  1  0  0  0  0
 15 20  1  0  0  0  0
 15 16  2  0  0  0  0
 16 17  1  0  0  0  0
 16 38  1  0  0  0  0
 17 18  2  0  0  0  0
 17 39  1  0  0  0  0
 18 19  1  0  0  0  0
 18 40  1  0  0  0  0
 19 20  2  0  0  0  0
 19 41  1  0  0  0  0
 21 42  1  0  0  0  0
 21 43  1  0  0  0  0
M  END
> <s_m_source_file>
AV-unprocessed.smi

> <i_m_source_file_index>
1563

> <i_lp_mmshare_version>
43012

> <i_f3d_flags>
0

> <s_epik_input>
W0NIM11DKD1PKVtOSF1bQ0BASF0xW0NIMl1bQ0gyXVtDSDJdTihbQ0gyXTEpQyg9TylbTkhdW0NIMl1bQ0gyXWMyW2NIXVtjSF1bY0hdW2NIXW4y

> <s_epik_cmdline>
J2VwaWtfcHl0aG9uJywgJy1waCcsICc3LjAnLCAnLXRuJywgJzgnLCAnLW1hJywgJzIwMCcsICctbWV0YWxfYmluZGluZycsICctaW1hZScsICc8aW5maWxlLm1hZT4nLCAnLW9tYWUnLCAnPG91dGZpbGUubWFlPic=

> <r_epik_Ionization_Penalty>
0.0442074

> <r_epik_Ionization_Penalty_Charging>
0

> <r_epik_Ionization_Penalty_Neutral>
0.0442074

> <r_epik_State_Penalty>
0.0374027

> <r_epik_Charging_Adjusted_Penalty>
0.0374027

> <i_epik_Tot_Q>
0

> <i_epik_Tot_abs_Q>
0

> <r_epik_Metal_State_Penalty>
0.0347963

> <b_epik_Metal_Only>
0

> <s_lp_Force_Field>
OPLS_2005

> <r_lp_Energy>
22.675

> <b_lp_Chiralities_Consistent>
1

> <s_lp_Variant>
AV-unprocessed.smi:1563-2

> <Gold.Version>
5.8.1

> <Gold.Id.Protein>
6NUR|6NUR_protein|mol2

> <Gold.PLP.Fitness>
41.6019

> <Gold.PLP.PLP>
-36.4615

> <Gold.PLP.part.hbond>
-2.0000

> <Gold.PLP.part.metal>
0.0000

> <Gold.PLP.part.buried>
-6.1771

> <Gold.PLP.part.nonpolar>
-28.4181

> <Gold.PLP.part.repulsive>
1.1436

> <Gold.PLP.ligand.clash>
0.0000

> <Gold.PLP.ligand.torsion>
0.7285

> <Gold.PLP.Chemscore.Hbond>
1.9833

> <Gold.PLP.Chemscore.CHOScore>
0.1983

> <Gold.PLP.Chemscore.Metal>
0.0000

> <Gold.Chemscore.Hbonds>
donor molecule, donor type, donor heavy atom, donor atom, acceptor molecule, acceptor atom, score
      L1  H     4    25       P1  8028  0.98
      P1  H  7989  7998       L1    11  1.00
      L1  C    19    41       P1  7948  0.15

> <Gold.PLP.Chemscore.Internal.Correction>
0.0529

> <Gold.Rescore>
     Score         DG    S(hbond)    S(metal)    S(lipo)     H(rot)  DE(clash)    DE(int)     intcor
     14.79     -15.56       1.87        0.00      69.54       1.68       0.03       0.74       ----

> <Gold.Chemscore.Fitness>
14.7922

> <Gold.Chemscore.DG>
-15.5587

> <Gold.Chemscore.ZeroCoef>
-5.4800

> <Gold.Chemscore.Hbond>
1.8704

> <Gold.Chemscore.Metal>
0.0000

> <Gold.Chemscore.Lipo>
69.5363

> <Gold.Chemscore.Internal_Hbond>
0.0000

> <Gold.Chemscore.DEClash>
0.0260

> <Gold.Chemscore.DEInternal>
0.7404

> <Gold.Chemscore.Rot>
1.6813

> <Gold.Chemscore.Internal.Correction>
   9.000000E+99

> <Gold.Chemscore.Hbonds>
donor molecule, donor type, donor heavy atom, donor atom, acceptor molecule, acceptor atom, score
      L1  H     4    25       P1  8028  0.85
      P1  H  7989  7998       L1    11  0.52

> <Gold.Chemscore.Hbond.Weighted>
-6.2472

> <Gold.Chemscore.Metal.Weighted>
-0.0000

> <Gold.Chemscore.Lipo.Weighted>
-8.1357

> <Gold.Chemscore.Internal_Hbond.Weighted>
0.0000

> <Gold.Chemscore.DEClash.Weighted>
0.0260

> <Gold.Chemscore.DEInternal.Weighted>
0.7404

> <Gold.Chemscore.Rot.Weighted>
4.3042

> <Gold.Chemscore.Internal.Correction.Weighted>
   9.000000E+99

> <Gold.Protein.RotatedTorsions>
[ 6907 6896 6895 6894 ] final  -81.23 input  -60.11 | X-H torsion
[ 7974 7965 7964 7962 ] final  -88.55 input  175.53 | X-H torsion
[ 8008 7997 7996 7995 ] final  -33.20 input   59.86 | X-H torsion
[ 10167 10162 10161 10158 ] final  -85.48 input  -65.29 | X-H torsion
[ 10718 10713 10712 10709 ] final -102.93 input   66.30 | X-H torsion
[ 10763 10752 10751 10750 ] final  162.30 input  -60.55 | X-H torsion
[ 11005 11000 10999 10996 ] final   15.10 input  -57.11 | X-H torsion

> <Gold.Protein.ActiveResidues>
 VAL166  LYS551  ARG553  GLY616  TRP617  ASP618  TYR619  PRO620  LYS621  CYS622 
 ASP623  PHE694  ASN695  SER759  ASP760  ASP761  ALA762  ILE779  LEU786  VAL792 
 PHE793  MET794  SER795  GLU796  ALA797  LYS798  CYS799  TRP800  GLU811  SER814 

> <Gold.Protein.RotatedAtoms>
  150.6915  134.3849  159.5050 H   0  0  0  0  0  0  0  0  0  0  0  0  # atno 6907 bound_to 6896
  152.1646  134.8881  160.0548 H   0  0  0  0  0  0  0  0  0  0  0  0  # atno 6908 bound_to 6896
  151.9930  133.3763  159.4189 H   0  0  0  0  0  0  0  0  0  0  0  0  # atno 6909 bound_to 6896
  145.4516  140.9560  143.2019 H   0  0  0  0  0  0  0  0  0  0  0  0  # atno 7974 bound_to 7965
  154.4156  140.1717  156.1849 H   0  0  0  0  0  0  0  0  0  0  0  0  # atno 8008 bound_to 7997
  155.9651  140.3390  155.6501 H   0  0  0  0  0  0  0  0  0  0  0  0  # atno 8009 bound_to 7997
  155.6698  140.0710  157.2515 H   0  0  0  0  0  0  0  0  0  0  0  0  # atno 8010 bound_to 7997
  140.4033  143.2653  151.9113 H   0  0  0  0  0  0  0  0  0  0  0  0  # atno 10167 bound_to 10162
  156.0246  130.5443  150.7180 H   0  0  0  0  0  0  0  0  0  0  0  0  # atno 10718 bound_to 10713
  154.2763  135.2764  155.2717 H   0  0  0  0  0  0  0  0  0  0  0  0  # atno 10763 bound_to 10752
  154.5258  135.5743  153.6721 H   0  0  0  0  0  0  0  0  0  0  0  0  # atno 10764 bound_to 10752
  152.9936  135.6215  154.2920 H   0  0  0  0  0  0  0  0  0  0  0  0  # atno 10765 bound_to 10752
  140.4621  134.1116  155.7718 H   0  0  0  0  0  0  0  0  0  0  0  0  # atno 11005 bound_to 11000
  144.8058  139.6054  143.7051 LP  0  0  0  0  0  0  0  0  0  0  0  0  # atno 17320 bound_to 7965
  146.2501  139.6181  142.9433 LP  0  0  0  0  0  0  0  0  0  0  0  0  # atno 17321 bound_to 7965
  139.4784  144.5611  151.8238 LP  0  0  0  0  0  0  0  0  0  0  0  0  # atno 17342 bound_to 10162
  140.4716  144.1579  150.5919 LP  0  0  0  0  0  0  0  0  0  0  0  0  # atno 17343 bound_to 10162
  157.4802  131.0901  151.0544 LP  0  0  0  0  0  0  0  0  0  0  0  0  # atno 17370 bound_to 10713
  157.0980  130.5970  149.5454 LP  0  0  0  0  0  0  0  0  0  0  0  0  # atno 17371 bound_to 10713
  141.1616  133.8782  157.1831 LP  0  0  0  0  0  0  0  0  0  0  0  0  # atno 17394 bound_to 11000
  139.9938  135.0054  157.0037 LP  0  0  0  0  0  0  0  0  0  0  0  0  # atno 17395 bound_to 11000

$$$$
