AV-unprocessed.smi:287|AV-procd|sdf|2177|dock9
  -GOLD-   2262021543D 1   1.00000     0.00000
 Structure written by MMmdl.
 55 58  0  0  0  0  0  0  0  0  1 V2000
  154.8963  140.5178  161.8716 C   0  0  0  0  0  0  0  0  0  0  0  0
  153.9737  140.8049  160.7372 C   0  0  0  0  0  0  0  0  0  0  0  0
  153.3026  140.0213  159.8444 C   0  0  0  0  0  0  0  0  0  0  0  0
  152.5773  140.8901  158.9749 C   0  0  0  0  0  0  0  0  0  0  0  0
  151.6815  140.4646  157.8193 C   0  0  1  0  0  0  0  0  0  0  0  0
  150.8930  141.6777  157.2998 C   0  0  0  0  0  0  0  0  0  0  0  0
  152.4146  139.9862  156.7079 O   0  0  0  0  0  0  0  0  0  0  0  0
  150.7095  139.3262  158.2064 C   0  0  0  0  0  0  0  0  0  0  0  0
  149.6844  139.0863  157.1957 N   0  0  0  0  0  0  0  0  0  0  0  0
  148.7407  138.1432  157.3954 C   0  0  0  0  0  0  0  0  0  0  0  0
  147.8188  138.2728  158.3853 N   0  0  0  0  0  0  0  0  0  0  0  0
  146.8923  137.3258  158.5638 C   0  0  0  0  0  0  0  0  0  0  0  0
  146.7116  136.1943  157.8782 N   0  0  0  0  0  0  0  0  0  0  0  0
  147.6361  136.0636  156.8829 C   0  0  0  0  0  0  0  0  0  0  0  0
  148.6750  136.9853  156.5787 C   0  0  0  0  0  0  0  0  0  0  0  0
  149.4171  136.5181  155.5016 N   0  0  0  0  0  0  0  0  0  0  0  0
  148.8421  135.3876  155.1877 C   0  0  0  0  0  0  0  0  0  0  0  0
  147.7576  135.0424  155.9670 N   0  0  0  0  0  0  0  0  0  0  0  0
  146.8726  133.8411  155.8833 C   0  0  2  0  0  0  0  0  0  0  0  0
  147.3024  133.0661  154.8008 O   0  0  0  0  0  0  0  0  0  0  0  0
  146.2808  132.9561  153.8095 C   0  0  2  0  0  0  0  0  0  0  0  0
  146.9057  132.9436  152.4058 C   0  0  0  0  0  0  0  0  0  0  0  0
  147.7764  131.8411  152.2732 O   0  0  0  0  0  0  0  0  0  0  0  0
  145.3937  134.1733  154.0710 C   0  0  1  0  0  0  0  0  0  0  0  0
  144.0787  134.0316  153.5695 O   0  0  0  0  0  0  0  0  0  0  0  0
  145.4360  134.2892  155.5867 C   0  0  1  0  0  0  0  0  0  0  0  0
  144.5003  133.4506  156.2400 O   0  0  0  0  0  0  0  0  0  0  0  0
  152.8551  142.1553  159.4337 C   0  0  0  0  0  0  0  0  0  0  0  0
  152.4253  143.5249  159.0226 C   0  0  0  0  0  0  0  0  0  0  0  0
  153.7064  142.1129  160.4964 O   0  0  0  0  0  0  0  0  0  0  0  0
  147.0083  133.3327  156.8389 H   0  0  0  0  0  0  0  0  0  0  0  0
  145.7094  132.0444  153.9958 H   0  0  0  0  0  0  0  0  0  0  0  0
  145.8489  135.0621  153.6305 H   0  0  0  0  0  0  0  0  0  0  0  0
  145.2617  135.3128  155.9216 H   0  0  0  0  0  0  0  0  0  0  0  0
  155.1480  139.4579  161.9097 H   0  0  0  0  0  0  0  0  0  0  0  0
  154.4368  140.7907  162.8216 H   0  0  0  0  0  0  0  0  0  0  0  0
  155.8240  141.0809  161.7681 H   0  0  0  0  0  0  0  0  0  0  0  0
  153.3341  138.9423  159.8122 H   0  0  0  0  0  0  0  0  0  0  0  0
  150.2646  142.1043  158.0825 H   0  0  0  0  0  0  0  0  0  0  0  0
  150.2404  141.4049  156.4693 H   0  0  0  0  0  0  0  0  0  0  0  0
  151.5616  142.4657  156.9501 H   0  0  0  0  0  0  0  0  0  0  0  0
  151.8083  139.6083  156.0895 H   0  0  0  0  0  0  0  0  0  0  0  0
  151.2797  138.4022  158.3141 H   0  0  0  0  0  0  0  0  0  0  0  0
  150.2481  139.5218  159.1756 H   0  0  0  0  0  0  0  0  0  0  0  0
  149.7398  139.6552  156.3627 H   0  0  0  0  0  0  0  0  0  0  0  0
  146.1950  137.5012  159.3698 H   0  0  0  0  0  0  0  0  0  0  0  0
  149.1976  134.7770  154.3711 H   0  0  0  0  0  0  0  0  0  0  0  0
  146.1269  132.8366  151.6502 H   0  0  0  0  0  0  0  0  0  0  0  0
  147.4344  133.8734  152.1951 H   0  0  0  0  0  0  0  0  0  0  0  0
  148.2498  131.9284  151.4600 H   0  0  0  0  0  0  0  0  0  0  0  0
  143.6933  133.2628  153.9623 H   0  0  0  0  0  0  0  0  0  0  0  0
  143.9912  133.0014  155.5823 H   0  0  0  0  0  0  0  0  0  0  0  0
  151.3428  143.5722  158.9058 H   0  0  0  0  0  0  0  0  0  0  0  0
  152.8820  143.8042  158.0733 H   0  0  0  0  0  0  0  0  0  0  0  0
  152.7126  144.2685  159.7662 H   0  0  0  0  0  0  0  0  0  0  0  0
  1  2  1  0  0  0  0
  1 35  1  0  0  0  0
  1 36  1  0  0  0  0
  1 37  1  0  0  0  0
  2 30  1  0  0  0  0
  2  3  2  0  0  0  0
  3  4  1  0  0  0  0
  3 38  1  0  0  0  0
  4  5  1  0  0  0  0
  4 28  2  0  0  0  0
  5  6  1  0  0  0  0
  5  7  1  0  0  0  0
  5  8  1  0  0  0  0
  6 39  1  0  0  0  0
  6 40  1  0  0  0  0
  6 41  1  0  0  0  0
  7 42  1  0  0  0  0
  8  9  1  0  0  0  0
  8 43  1  0  0  0  0
  8 44  1  0  0  0  0
  9 10  1  0  0  0  0
  9 45  1  0  0  0  0
 10 15  1  0  0  0  0
 10 11  2  0  0  0  0
 11 12  1  0  0  0  0
 12 13  2  0  0  0  0
 12 46  1  0  0  0  0
 13 14  1  0  0  0  0
 14 18  1  0  0  0  0
 14 15  2  0  0  0  0
 15 16  1  0  0  0  0
 16 17  2  0  0  0  0
 17 18  1  0  0  0  0
 17 47  1  0  0  0  0
 18 19  1  0  0  0  0
 19 31  1  0  0  0  0
 19 26  1  0  0  0  0
 19 20  1  0  0  0  0
 20 21  1  0  0  0  0
 21 32  1  0  0  0  0
 21 22  1  0  0  0  0
 21 24  1  0  0  0  0
 22 23  1  0  0  0  0
 22 48  1  0  0  0  0
 22 49  1  0  0  0  0
 23 50  1  0  0  0  0
 24 33  1  0  0  0  0
 24 25  1  0  0  0  0
 24 26  1  0  0  0  0
 25 51  1  0  0  0  0
 26 34  1  0  0  0  0
 26 27  1  0  0  0  0
 27 52  1  0  0  0  0
 28 29  1  0  0  0  0
 28 30  1  0  0  0  0
 29 53  1  0  0  0  0
 29 54  1  0  0  0  0
 29 55  1  0  0  0  0
M  END
> <s_m_source_file>
AV-unprocessed.smi

> <i_m_source_file_index>
287

> <i_lp_mmshare_version>
43012

> <i_f3d_flags>
0

> <s_epik_input>
W0NIM11jMVtjSF1jKGMobzEpW0NIM10pW0NAQF0oW0NIM10pKFtPSF0pW0NIMl1bTkhdYyhuW2NIXW4yKWMoYzIzKW5bY0hdbjNbQ0BASF00T1tDQEhdKFtDSDJdW09IXSlbQ0BASF0oW09IXSlbQ0BIXTRbT0hd

> <s_epik_cmdline>
J2VwaWtfcHl0aG9uJywgJy1waCcsICc3LjAnLCAnLXRuJywgJzgnLCAnLW1hJywgJzIwMCcsICctbWV0YWxfYmluZGluZycsICctaW1hZScsICc8aW5maWxlLm1hZT4nLCAnLW9tYWUnLCAnPG91dGZpbGUubWFlPic=

> <r_lp_tautomer_probability>
1

> <r_epik_Ionization_Penalty>
0.000992612

> <r_epik_Ionization_Penalty_Charging>
0

> <r_epik_Ionization_Penalty_Neutral>
0.000992612

> <r_epik_State_Penalty>
-0

> <r_epik_Charging_Adjusted_Penalty>
0

> <i_epik_Tot_Q>
0

> <i_epik_Tot_abs_Q>
0

> <r_epik_Metal_State_Penalty>
-0

> <b_epik_Metal_Only>
0

> <s_epik_Chemistry_Notes>
This compound contains an acetal/aminal-like group ( X-CH(R)-Y where X, Y are N, S, or O) that may be acid/base labile, releasing an aldehyde.

> <s_lp_Force_Field>
OPLS_2005

> <r_lp_Energy>
40.3349

> <b_lp_Chiralities_Consistent>
1

> <s_lp_Variant>
AV-unprocessed.smi:287-1

> <Gold.Version>
5.8.1

> <Gold.Id.Protein>
6NUR|6NUR_protein|mol2

> <Gold.PLP.Fitness>
43.7673

> <Gold.PLP.PLP>
-35.2565

> <Gold.PLP.part.hbond>
-4.4270

> <Gold.PLP.part.metal>
0.0000

> <Gold.PLP.part.buried>
-5.4337

> <Gold.PLP.part.nonpolar>
-25.7455

> <Gold.PLP.part.repulsive>
0.1294

> <Gold.PLP.ligand.clash>
1.5067

> <Gold.PLP.ligand.torsion>
1.0802

> <Gold.PLP.Chemscore.Hbond>
4.0000

> <Gold.PLP.Chemscore.CHOScore>
0.0000

> <Gold.PLP.Chemscore.Metal>
0.0000

> <Gold.Chemscore.Hbonds>
donor molecule, donor type, donor heavy atom, donor atom, acceptor molecule, acceptor atom, score
      L1  H    23    50       P1 10747  0.75
      L1  H    25    51       P1 10957  1.00
      L1  H    27    52       P1 10957  1.00
      P1  H  7997  8010       L1     7  1.00
      L1  C    17    47       P1  7948  0.08

> <Gold.PLP.Chemscore.Internal.Correction>
0.1780

> <Gold.Rescore>
     Score         DG    S(hbond)    S(metal)    S(lipo)     H(rot)  DE(clash)    DE(int)     intcor
     12.93     -14.90       3.97        0.00      82.56       5.27       0.02       1.95       ----

> <Gold.Chemscore.Fitness>
12.9322

> <Gold.Chemscore.DG>
-14.9022

> <Gold.Chemscore.ZeroCoef>
-5.4800

> <Gold.Chemscore.Hbond>
3.9659

> <Gold.Chemscore.Metal>
0.0000

> <Gold.Chemscore.Lipo>
82.5636

> <Gold.Chemscore.Internal_Hbond>
0.0000

> <Gold.Chemscore.DEClash>
0.0174

> <Gold.Chemscore.DEInternal>
1.9526

> <Gold.Chemscore.Rot>
5.2672

> <Gold.Chemscore.Internal.Correction>
   9.000000E+99

> <Gold.Chemscore.Hbonds>
donor molecule, donor type, donor heavy atom, donor atom, acceptor molecule, acceptor atom, score
      L1  H    23    50       P1 10747  0.76
      L1  H    25    51       P1 10957  0.97
      L1  H    27    52       P1 10957  0.98
      P1  H  7997  8010       L1     7  0.98

> <Gold.Chemscore.Hbond.Weighted>
-13.2461

> <Gold.Chemscore.Metal.Weighted>
-0.0000

> <Gold.Chemscore.Lipo.Weighted>
-9.6599

> <Gold.Chemscore.Internal_Hbond.Weighted>
0.0000

> <Gold.Chemscore.DEClash.Weighted>
0.0174

> <Gold.Chemscore.DEInternal.Weighted>
1.9526

> <Gold.Chemscore.Rot.Weighted>
13.4839

> <Gold.Chemscore.Internal.Correction.Weighted>
   9.000000E+99

> <Gold.Protein.RotatedTorsions>
[ 6907 6896 6895 6894 ] final  151.11 input  -60.11 | X-H torsion
[ 7974 7965 7964 7962 ] final  174.67 input  175.53 | X-H torsion
[ 8008 7997 7996 7995 ] final   74.62 input   59.86 | X-H torsion
[ 10167 10162 10161 10158 ] final  152.06 input  -65.29 | X-H torsion
[ 10718 10713 10712 10709 ] final   76.27 input   66.30 | X-H torsion
[ 10763 10752 10751 10750 ] final  -85.63 input  -60.55 | X-H torsion
[ 11005 11000 10999 10996 ] final -157.93 input  -57.11 | X-H torsion

> <Gold.Protein.ActiveResidues>
 VAL166  LYS551  ARG553  GLY616  TRP617  ASP618  TYR619  PRO620  LYS621  CYS622 
 ASP623  PHE694  ASN695  SER759  ASP760  ASP761  ALA762  ILE779  LEU786  VAL792 
 PHE793  MET794  SER795  GLU796  ALA797  LYS798  CYS799  TRP800  GLU811  SER814 

> <Gold.Protein.RotatedAtoms>
  152.1051  133.4270  159.4604 H   0  0  0  0  0  0  0  0  0  0  0  0  # atno 6907 bound_to 6896
  150.6865  134.2714  159.4599 H   0  0  0  0  0  0  0  0  0  0  0  0  # atno 6908 bound_to 6896
  152.0578  134.9613  160.0625 H   0  0  0  0  0  0  0  0  0  0  0  0  # atno 6909 bound_to 6896
  144.7217  139.9831  143.6439 H   0  0  0  0  0  0  0  0  0  0  0  0  # atno 7974 bound_to 7965
  155.8010  140.3476  155.5402 H   0  0  0  0  0  0  0  0  0  0  0  0  # atno 8008 bound_to 7997
  155.8538  140.0960  157.1678 H   0  0  0  0  0  0  0  0  0  0  0  0  # atno 8009 bound_to 7997
  154.4009  140.1371  156.3864 H   0  0  0  0  0  0  0  0  0  0  0  0  # atno 8010 bound_to 7997
  139.4835  144.5389  151.7597 H   0  0  0  0  0  0  0  0  0  0  0  0  # atno 10167 bound_to 10162
  157.6667  130.9766  150.1473 H   0  0  0  0  0  0  0  0  0  0  0  0  # atno 10718 bound_to 10713
  154.6133  135.5478  153.7496 H   0  0  0  0  0  0  0  0  0  0  0  0  # atno 10763 bound_to 10752
  153.0205  135.6395  154.1546 H   0  0  0  0  0  0  0  0  0  0  0  0  # atno 10764 bound_to 10752
  154.1483  135.2904  155.3122 H   0  0  0  0  0  0  0  0  0  0  0  0  # atno 10765 bound_to 10752
  140.6592  134.4367  157.5234 H   0  0  0  0  0  0  0  0  0  0  0  0  # atno 11005 bound_to 11000
  146.0471  139.3476  143.0662 LP  0  0  0  0  0  0  0  0  0  0  0  0  # atno 17320 bound_to 7965
  145.8261  140.9654  143.0873 LP  0  0  0  0  0  0  0  0  0  0  0  0  # atno 17321 bound_to 7965
  140.4926  144.1288  150.5953 LP  0  0  0  0  0  0  0  0  0  0  0  0  # atno 17342 bound_to 10162
  140.4154  143.2637  151.9782 LP  0  0  0  0  0  0  0  0  0  0  0  0  # atno 17343 bound_to 10162
  156.2281  130.3679  149.8477 LP  0  0  0  0  0  0  0  0  0  0  0  0  # atno 17370 bound_to 10713
  156.6311  130.8666  151.3495 LP  0  0  0  0  0  0  0  0  0  0  0  0  # atno 17371 bound_to 10713
  139.9019  134.8537  156.1862 LP  0  0  0  0  0  0  0  0  0  0  0  0  # atno 17394 bound_to 11000
  141.0478  133.6904  156.1715 LP  0  0  0  0  0  0  0  0  0  0  0  0  # atno 17395 bound_to 11000

$$$$
