AV-unprocessed.smi:498|AV-procd|sdf|2731|dock4
  -GOLD-   2262023183D 1   1.00000     0.00000
 Structure written by MMmdl.
 42 44  0  0  0  0  0  0  0  0  3 V2000
  153.0103  138.7178  154.6930 C   0  0  0  0  0  0  0  0  0  0  0  0
  152.2265  138.8278  156.0030 C   0  0  0  0  0  0  0  0  0  0  0  0
  153.0018  139.5515  156.9437 O   0  0  0  0  0  0  0  0  0  0  0  0
  152.5825  139.3367  158.2803 C   0  0  0  0  0  0  0  0  0  0  0  0
  151.1274  139.8007  158.4211 C   0  0  0  0  0  0  0  0  0  0  0  0
  150.9420  141.1842  157.9398 N   0  0  0  0  0  0  0  0  0  0  0  0
  150.2229  141.7002  156.8896 C   0  0  0  0  0  0  0  0  0  0  0  0
  149.3696  140.9698  155.8866 C   0  0  0  0  0  0  0  0  0  0  0  0
  148.1046  141.6555  155.6275 N   0  5  0  0  0  0  0  0  0  0  0  0
  147.6701  141.9977  154.3825 C   0  0  0  0  0  0  0  0  0  0  0  0
  148.1102  141.6718  153.2747 O   0  0  0  0  0  0  0  0  0  0  0  0
  146.4665  142.8596  154.4321 C   0  0  0  0  0  0  0  0  0  0  0  0
  145.8045  143.5692  153.4619 C   0  0  0  0  0  0  0  0  0  0  0  0
  144.6941  144.1936  154.0940 C   0  0  0  0  0  0  0  0  0  0  0  0
  144.7471  143.8140  155.4038 C   0  0  0  0  0  0  0  0  0  0  0  0
  145.8140  142.9989  155.6239 O   0  0  0  0  0  0  0  0  0  0  0  0
  150.3997  143.0531  156.9187 N   0  3  0  0  0  0  0  0  0  0  0  0
  151.2253  143.4105  157.9821 C   0  0  0  0  0  0  0  0  0  0  0  0
  151.6782  144.6565  158.4036 C   0  0  0  0  0  0  0  0  0  0  0  0
  152.5087  144.6749  159.5431 C   0  0  0  0  0  0  0  0  0  0  0  0
  152.8569  143.4856  160.2155 C   0  0  0  0  0  0  0  0  0  0  0  0
  152.3922  142.2284  159.7763 C   0  0  0  0  0  0  0  0  0  0  0  0
  151.5734  142.2177  158.6464 C   0  0  0  0  0  0  0  0  0  0  0  0
  152.4406  138.1697  153.9424 H   0  0  0  0  0  0  0  0  0  0  0  0
  153.9542  138.1939  154.8446 H   0  0  0  0  0  0  0  0  0  0  0  0
  153.2351  139.7047  154.2876 H   0  0  0  0  0  0  0  0  0  0  0  0
  151.2775  139.3363  155.8268 H   0  0  0  0  0  0  0  0  0  0  0  0
  152.0021  137.8313  156.3860 H   0  0  0  0  0  0  0  0  0  0  0  0
  152.6636  138.2787  158.5346 H   0  0  0  0  0  0  0  0  0  0  0  0
  153.2254  139.8920  158.9649 H   0  0  0  0  0  0  0  0  0  0  0  0
  150.4522  139.1413  157.8756 H   0  0  0  0  0  0  0  0  0  0  0  0
  150.8133  139.7473  159.4635 H   0  0  0  0  0  0  0  0  0  0  0  0
  149.9484  140.8520  154.9706 H   0  0  0  0  0  0  0  0  0  0  0  0
  149.2129  139.9606  156.2686 H   0  0  0  0  0  0  0  0  0  0  0  0
  146.0858  143.6312  152.4209 H   0  0  0  0  0  0  0  0  0  0  0  0
  143.9496  144.8350  153.6460 H   0  0  0  0  0  0  0  0  0  0  0  0
  144.1362  144.0180  156.2706 H   0  0  0  0  0  0  0  0  0  0  0  0
  151.4086  145.5673  157.8894 H   0  0  0  0  0  0  0  0  0  0  0  0
  152.8842  145.6195  159.9091 H   0  0  0  0  0  0  0  0  0  0  0  0
  153.4935  143.5385  161.0868 H   0  0  0  0  0  0  0  0  0  0  0  0
  152.6639  141.3250  160.3020 H   0  0  0  0  0  0  0  0  0  0  0  0
  149.9774  143.6753  156.2411 H   0  0  0  0  0  0  0  0  0  0  0  0
  1  2  1  0  0  0  0
  1 24  1  0  0  0  0
  1 25  1  0  0  0  0
  1 26  1  0  0  0  0
  2  3  1  0  0  0  0
  2 27  1  0  0  0  0
  2 28  1  0  0  0  0
  3  4  1  0  0  0  0
  4  5  1  0  0  0  0
  4 29  1  0  0  0  0
  4 30  1  0  0  0  0
  5  6  1  0  0  0  0
  5 31  1  0  0  0  0
  5 32  1  0  0  0  0
  6 23  1  0  0  0  0
  6  7  1  0  0  0  0
  7  8  1  0  0  0  0
  7 17  2  0  0  0  0
  8  9  1  0  0  0  0
  8 33  1  0  0  0  0
  8 34  1  0  0  0  0
  9 10  1  0  0  0  0
 10 11  2  0  0  0  0
 10 12  1  0  0  0  0
 12 16  1  0  0  0  0
 12 13  2  0  0  0  0
 13 14  1  0  0  0  0
 13 35  1  0  0  0  0
 14 15  2  0  0  0  0
 14 36  1  0  0  0  0
 15 16  1  0  0  0  0
 15 37  1  0  0  0  0
 17 18  1  0  0  0  0
 17 42  1  0  0  0  0
 18 23  2  0  0  0  0
 18 19  1  0  0  0  0
 19 20  2  0  0  0  0
 19 38  1  0  0  0  0
 20 21  1  0  0  0  0
 20 39  1  0  0  0  0
 21 22  2  0  0  0  0
 21 40  1  0  0  0  0
 22 23  1  0  0  0  0
 22 41  1  0  0  0  0
M  CHG  1   9  -1
M  CHG  1  17   1
M  END
> <s_m_source_file>
AV-unprocessed.smi

> <i_m_source_file_index>
498

> <i_lp_mmshare_version>
43012

> <i_f3d_flags>
0

> <s_epik_input>
W0NIM11bQ0gyXU9bQ0gyXVtDSDJdbihjKGMxMilbY0hdW2NIXVtjSF1bY0hdMiljKG4xKVtDSDJdW05IXUMoPU8pYzNbY0hdW2NIXVtjSF1vMw==

> <s_epik_cmdline>
J2VwaWtfcHl0aG9uJywgJy1waCcsICc3LjAnLCAnLXRuJywgJzgnLCAnLW1hJywgJzIwMCcsICctbWV0YWxfYmluZGluZycsICctaW1hZScsICc8aW5maWxlLm1hZT4nLCAnLW9tYWUnLCAnPG91dGZpbGUubWFlPic=

> <r_epik_Ionization_Penalty>
6.05973

> <r_epik_Ionization_Penalty_Charging>
6.05973

> <r_epik_Ionization_Penalty_Neutral>
2.61143e-12

> <r_epik_State_Penalty>
7.27867

> <r_epik_Charging_Adjusted_Penalty>
13.3384

> <i_epik_Tot_Q>
0

> <i_epik_Tot_abs_Q>
2

> <r_epik_Metal_State_Penalty>
3.28829

> <b_epik_Metal_Only>
1

> <s_lp_Force_Field>
OPLS_2005

> <r_lp_Energy>
13.3144

> <b_lp_Chiralities_Consistent>
1

> <s_lp_Variant>
AV-unprocessed.smi:498-4

> <Gold.Version>
5.8.1

> <Gold.Id.Protein>
6NUR|6NUR_protein|mol2

> <Gold.PLP.Fitness>
59.2386

> <Gold.PLP.PLP>
-49.3518

> <Gold.PLP.part.hbond>
-2.9777

> <Gold.PLP.part.metal>
0.0000

> <Gold.PLP.part.buried>
-3.7870

> <Gold.PLP.part.nonpolar>
-41.9230

> <Gold.PLP.part.repulsive>
1.0013

> <Gold.PLP.ligand.clash>
0.0000

> <Gold.PLP.ligand.torsion>
0.4695

> <Gold.PLP.Chemscore.Hbond>
3.5580

> <Gold.PLP.Chemscore.CHOScore>
0.0000

> <Gold.PLP.Chemscore.Metal>
0.0000

> <Gold.Chemscore.Hbonds>
donor molecule, donor type, donor heavy atom, donor atom, acceptor molecule, acceptor atom, score
      L1  H    17    42       P1  8028  2.00
      P1  H  7997  8009       L1     3  1.00
      P1  H  8011  8017       L1    11  0.56

> <Gold.PLP.Chemscore.Internal.Correction>
0.1519

> <Gold.Rescore>
     Score         DG    S(hbond)    S(metal)    S(lipo)     H(rot)  DE(clash)    DE(int)     intcor
     21.17     -22.90       2.51        0.00     120.29       1.96       1.36       0.37       ----

> <Gold.Chemscore.Fitness>
21.1734

> <Gold.Chemscore.DG>
-22.9013

> <Gold.Chemscore.ZeroCoef>
-5.4800

> <Gold.Chemscore.Hbond>
2.5072

> <Gold.Chemscore.Metal>
0.0000

> <Gold.Chemscore.Lipo>
120.2912

> <Gold.Chemscore.Internal_Hbond>
0.0000

> <Gold.Chemscore.DEClash>
1.3600

> <Gold.Chemscore.DEInternal>
0.3679

> <Gold.Chemscore.Rot>
1.9637

> <Gold.Chemscore.Internal.Correction>
   9.000000E+99

> <Gold.Chemscore.Hbonds>
donor molecule, donor type, donor heavy atom, donor atom, acceptor molecule, acceptor atom, score
      L1  H    17    42       P1  8028  0.98
      P1  H  7997  8009       L1     3  0.73
      P1  H  8011  8017       L1    11  0.52

> <Gold.Chemscore.Hbond.Weighted>
-8.3742

> <Gold.Chemscore.Metal.Weighted>
-0.0000

> <Gold.Chemscore.Lipo.Weighted>
-14.0741

> <Gold.Chemscore.Internal_Hbond.Weighted>
0.0000

> <Gold.Chemscore.DEClash.Weighted>
1.3600

> <Gold.Chemscore.DEInternal.Weighted>
0.3679

> <Gold.Chemscore.Rot.Weighted>
5.0270

> <Gold.Chemscore.Internal.Correction.Weighted>
   9.000000E+99

> <Gold.Protein.RotatedTorsions>
[ 6907 6896 6895 6894 ] final  -55.65 input  -60.11 | X-H torsion
[ 7974 7965 7964 7962 ] final  -30.25 input  175.53 | X-H torsion
[ 8008 7997 7996 7995 ] final  162.33 input   59.86 | X-H torsion
[ 10167 10162 10161 10158 ] final -133.71 input  -65.29 | X-H torsion
[ 10718 10713 10712 10709 ] final   24.12 input   66.30 | X-H torsion
[ 10763 10752 10751 10750 ] final -139.05 input  -60.55 | X-H torsion
[ 11005 11000 10999 10996 ] final   46.28 input  -57.11 | X-H torsion

> <Gold.Protein.ActiveResidues>
 VAL166  LYS551  ARG553  GLY616  TRP617  ASP618  TYR619  PRO620  LYS621  CYS622 
 ASP623  PHE694  ASN695  SER759  ASP760  ASP761  ALA762  ILE779  LEU786  VAL792 
 PHE793  MET794  SER795  GLU796  ALA797  LYS798  CYS799  TRP800  GLU811  SER814 

> <Gold.Protein.RotatedAtoms>
  150.8233  134.7452  159.6791 H   0  0  0  0  0  0  0  0  0  0  0  0  # atno 6907 bound_to 6896
  152.4347  134.5707  159.9930 H   0  0  0  0  0  0  0  0  0  0  0  0  # atno 6908 bound_to 6896
  151.5885  133.3332  159.3059 H   0  0  0  0  0  0  0  0  0  0  0  0  # atno 6909 bound_to 6896
  146.1157  140.5516  142.8758 H   0  0  0  0  0  0  0  0  0  0  0  0  # atno 7974 bound_to 7965
  156.2039  140.1753  156.7841 H   0  0  0  0  0  0  0  0  0  0  0  0  # atno 8008 bound_to 7997
  154.5629  140.0696  156.8877 H   0  0  0  0  0  0  0  0  0  0  0  0  # atno 8009 bound_to 7997
  155.2815  140.3349  155.4260 H   0  0  0  0  0  0  0  0  0  0  0  0  # atno 8010 bound_to 7997
  139.8955  143.6670  152.2604 H   0  0  0  0  0  0  0  0  0  0  0  0  # atno 10167 bound_to 10162
  157.1754  130.6778  149.6093 H   0  0  0  0  0  0  0  0  0  0  0  0  # atno 10718 bound_to 10713
  154.8620  135.3594  154.5483 H   0  0  0  0  0  0  0  0  0  0  0  0  # atno 10763 bound_to 10752
  153.6102  135.7009  153.5354 H   0  0  0  0  0  0  0  0  0  0  0  0  # atno 10764 bound_to 10752
  153.3216  135.4150  155.1382 H   0  0  0  0  0  0  0  0  0  0  0  0  # atno 10765 bound_to 10752
  140.1383  134.4616  155.8469 H   0  0  0  0  0  0  0  0  0  0  0  0  # atno 11005 bound_to 11000
  144.7551  140.5287  143.6775 LP  0  0  0  0  0  0  0  0  0  0  0  0  # atno 17320 bound_to 7965
  145.5571  139.1478  143.3362 LP  0  0  0  0  0  0  0  0  0  0  0  0  # atno 17321 bound_to 7965
  139.7071  144.7626  151.1174 LP  0  0  0  0  0  0  0  0  0  0  0  0  # atno 17342 bound_to 10162
  140.7718  143.5380  150.9346 LP  0  0  0  0  0  0  0  0  0  0  0  0  # atno 17343 bound_to 10162
  155.9732  130.4665  150.6290 LP  0  0  0  0  0  0  0  0  0  0  0  0  # atno 17370 bound_to 10713
  157.4003  131.0809  151.1314 LP  0  0  0  0  0  0  0  0  0  0  0  0  # atno 17371 bound_to 10713
  141.2182  133.6823  156.7199 LP  0  0  0  0  0  0  0  0  0  0  0  0  # atno 17394 bound_to 11000
  140.2754  134.8359  157.3885 LP  0  0  0  0  0  0  0  0  0  0  0  0  # atno 17395 bound_to 11000

$$$$
