AV-unprocessed.smi:573|AV-procd|sdf|2974|dock6
  -GOLD-   2262023483D 1   1.00000     0.00000
 Structure written by MMmdl.
 44 46  0  0  0  0  0  0  0  0  1 V2000
  146.2166  140.4935  154.7732 C   0  0  0  0  0  0  0  0  0  0  0  0
  147.3091  140.3709  153.7031 C   0  0  1  0  0  0  0  0  0  0  0  0
  146.6825  140.5152  152.4458 O   0  0  0  0  0  0  0  0  0  0  0  0
  148.3847  141.4607  153.8565 C   0  0  0  0  0  0  0  0  0  0  0  0
  149.0770  141.3786  155.1305 N   0  0  0  0  0  0  0  0  0  0  0  0
  150.1103  140.5693  155.5882 C   0  0  0  0  0  0  0  0  0  0  0  0
  150.7043  139.6315  154.8528 N   0  0  0  0  0  0  0  0  0  0  0  0
  151.6456  139.1242  155.7288 C   0  0  0  0  0  0  0  0  0  0  0  0
  152.6021  138.0986  155.5541 C   0  0  0  0  0  0  0  0  0  0  0  0
  153.4747  137.7496  156.6057 C   0  0  0  0  0  0  0  0  0  0  0  0
  153.4048  138.4201  157.8440 C   0  0  0  0  0  0  0  0  0  0  0  0
  152.4578  139.4437  158.0408 C   0  0  0  0  0  0  0  0  0  0  0  0
  151.5868  139.7869  156.9895 C   0  0  0  0  0  0  0  0  0  0  0  0
  150.5638  140.7210  156.8548 N   0  0  0  0  0  0  0  0  0  0  0  0
  150.1015  141.6566  157.8706 C   0  0  0  0  0  0  0  0  0  0  0  0
  151.2371  142.5561  158.3852 C   0  0  1  0  0  0  0  0  0  0  0  0
  151.5640  143.6913  157.3966 C   0  0  0  0  0  0  0  0  0  0  0  0
  152.6456  144.6125  157.9719 C   0  0  0  0  0  0  0  0  0  0  0  0
  152.2270  145.0918  159.3658 C   0  0  0  0  0  0  0  0  0  0  0  0
  151.8667  143.8927  160.2570 C   0  0  0  0  0  0  0  0  0  0  0  0
  150.8459  143.1170  159.6374 O   0  0  0  0  0  0  0  0  0  0  0  0
  146.6337  140.3768  155.7738 H   0  0  0  0  0  0  0  0  0  0  0  0
  145.4520  139.7266  154.6449 H   0  0  0  0  0  0  0  0  0  0  0  0
  145.7245  141.4659  154.7304 H   0  0  0  0  0  0  0  0  0  0  0  0
  147.7592  139.3793  153.7696 H   0  0  0  0  0  0  0  0  0  0  0  0
  145.7558  140.6393  152.5879 H   0  0  0  0  0  0  0  0  0  0  0  0
  149.1008  141.4286  153.0343 H   0  0  0  0  0  0  0  0  0  0  0  0
  147.9148  142.4439  153.8216 H   0  0  0  0  0  0  0  0  0  0  0  0
  148.7285  142.0322  155.8166 H   0  0  0  0  0  0  0  0  0  0  0  0
  152.6653  137.5804  154.6088 H   0  0  0  0  0  0  0  0  0  0  0  0
  154.2023  136.9645  156.4608 H   0  0  0  0  0  0  0  0  0  0  0  0
  154.0790  138.1487  158.6431 H   0  0  0  0  0  0  0  0  0  0  0  0
  152.4038  139.9612  158.9872 H   0  0  0  0  0  0  0  0  0  0  0  0
  149.2916  142.2585  157.4574 H   0  0  0  0  0  0  0  0  0  0  0  0
  149.6684  141.0885  158.6946 H   0  0  0  0  0  0  0  0  0  0  0  0
  152.1277  141.9432  158.5365 H   0  0  0  0  0  0  0  0  0  0  0  0
  151.8953  143.2796  156.4429 H   0  0  0  0  0  0  0  0  0  0  0  0
  150.6635  144.2716  157.1915 H   0  0  0  0  0  0  0  0  0  0  0  0
  153.5915  144.0731  158.0371 H   0  0  0  0  0  0  0  0  0  0  0  0
  152.8134  145.4626  157.3102 H   0  0  0  0  0  0  0  0  0  0  0  0
  153.0275  145.6752  159.8215 H   0  0  0  0  0  0  0  0  0  0  0  0
  151.3647  145.7544  159.2819 H   0  0  0  0  0  0  0  0  0  0  0  0
  152.7436  143.2724  160.4490 H   0  0  0  0  0  0  0  0  0  0  0  0
  151.5053  144.2407  161.2246 H   0  0  0  0  0  0  0  0  0  0  0  0
  1  2  1  0  0  0  0
  1 22  1  0  0  0  0
  1 23  1  0  0  0  0
  1 24  1  0  0  0  0
  2  3  1  0  0  0  0
  2  4  1  0  0  0  0
  2 25  1  0  0  0  0
  3 26  1  0  0  0  0
  4  5  1  0  0  0  0
  4 27  1  0  0  0  0
  4 28  1  0  0  0  0
  5  6  1  0  0  0  0
  5 29  1  0  0  0  0
  6 14  1  0  0  0  0
  6  7  2  0  0  0  0
  7  8  1  0  0  0  0
  8 13  2  0  0  0  0
  8  9  1  0  0  0  0
  9 10  2  0  0  0  0
  9 30  1  0  0  0  0
 10 11  1  0  0  0  0
 10 31  1  0  0  0  0
 11 12  2  0  0  0  0
 11 32  1  0  0  0  0
 12 13  1  0  0  0  0
 12 33  1  0  0  0  0
 13 14  1  0  0  0  0
 14 15  1  0  0  0  0
 15 16  1  0  0  0  0
 15 34  1  0  0  0  0
 15 35  1  0  0  0  0
 16 21  1  0  0  0  0
 16 17  1  0  0  0  0
 16 36  1  0  0  0  0
 17 18  1  0  0  0  0
 17 37  1  0  0  0  0
 17 38  1  0  0  0  0
 18 19  1  0  0  0  0
 18 39  1  0  0  0  0
 18 40  1  0  0  0  0
 19 20  1  0  0  0  0
 19 41  1  0  0  0  0
 19 42  1  0  0  0  0
 20 21  1  0  0  0  0
 20 43  1  0  0  0  0
 20 44  1  0  0  0  0
M  END
> <s_m_source_file>
AV-unprocessed.smi

> <i_m_source_file_index>
573

> <i_lp_mmshare_version>
43012

> <i_f3d_flags>
0

> <s_epik_input>
W0NIM11bQ0BIXShbT0hdKVtDSDJdW05IXWMobjEpbihjKGMxMilbY0hdW2NIXVtjSF1bY0hdMilbQ0gyXVtDQEBIXTNbQ0gyXVtDSDJdW0NIMl1bQ0gyXU8z

> <s_epik_cmdline>
J2VwaWtfcHl0aG9uJywgJy1waCcsICc3LjAnLCAnLXRuJywgJzgnLCAnLW1hJywgJzIwMCcsICctbWV0YWxfYmluZGluZycsICctaW1hZScsICc8aW5maWxlLm1hZT4nLCAnLW9tYWUnLCAnPG91dGZpbGUubWFlPic=

> <r_epik_Ionization_Penalty>
1.30635

> <r_epik_Ionization_Penalty_Charging>
0

> <r_epik_Ionization_Penalty_Neutral>
1.30635

> <r_epik_State_Penalty>
1.38073

> <r_epik_Charging_Adjusted_Penalty>
1.38073

> <i_epik_Tot_Q>
0

> <i_epik_Tot_abs_Q>
0

> <r_epik_Metal_State_Penalty>
0.00547412

> <b_epik_Metal_Only>
0

> <s_lp_Force_Field>
OPLS_2005

> <r_lp_Energy>
9.01344

> <b_lp_Chiralities_Consistent>
1

> <s_lp_Variant>
AV-unprocessed.smi:573-8

> <Gold.Version>
5.8.1

> <Gold.Id.Protein>
6NUR|6NUR_protein|mol2

> <Gold.PLP.Fitness>
46.5211

> <Gold.PLP.PLP>
-41.1578

> <Gold.PLP.part.hbond>
-3.0482

> <Gold.PLP.part.metal>
0.0000

> <Gold.PLP.part.buried>
-2.7749

> <Gold.PLP.part.nonpolar>
-35.7481

> <Gold.PLP.part.repulsive>
0.2415

> <Gold.PLP.ligand.clash>
0.0000

> <Gold.PLP.ligand.torsion>
0.3103

> <Gold.PLP.Chemscore.Hbond>
1.9913

> <Gold.PLP.Chemscore.CHOScore>
0.0000

> <Gold.PLP.Chemscore.Metal>
0.0000

> <Gold.Chemscore.Hbonds>
donor molecule, donor type, donor heavy atom, donor atom, acceptor molecule, acceptor atom, score
      L1  H     3    26       P1 10175  0.89
      P1  H  7989  7998       L1     7  0.85

> <Gold.PLP.Chemscore.Internal.Correction>
0.0101

> <Gold.Rescore>
     Score         DG    S(hbond)    S(metal)    S(lipo)     H(rot)  DE(clash)    DE(int)     intcor
     16.25     -16.66       0.93        0.00     113.29       2.02       0.14       0.26       ----

> <Gold.Chemscore.Fitness>
16.2524

> <Gold.Chemscore.DG>
-16.6576

> <Gold.Chemscore.ZeroCoef>
-5.4800

> <Gold.Chemscore.Hbond>
0.9282

> <Gold.Chemscore.Metal>
0.0000

> <Gold.Chemscore.Lipo>
113.2877

> <Gold.Chemscore.Internal_Hbond>
0.0000

> <Gold.Chemscore.DEClash>
0.1413

> <Gold.Chemscore.DEInternal>
0.2639

> <Gold.Chemscore.Rot>
2.0224

> <Gold.Chemscore.Internal.Correction>
   9.000000E+99

> <Gold.Chemscore.Hbonds>
donor molecule, donor type, donor heavy atom, donor atom, acceptor molecule, acceptor atom, score
      L1  H     3    26       P1 10175  0.35
      P1  H  7989  7998       L1     7  0.11

> <Gold.Chemscore.Hbond.Weighted>
-3.1003

> <Gold.Chemscore.Metal.Weighted>
-0.0000

> <Gold.Chemscore.Lipo.Weighted>
-13.2547

> <Gold.Chemscore.Internal_Hbond.Weighted>
0.0000

> <Gold.Chemscore.DEClash.Weighted>
0.1413

> <Gold.Chemscore.DEInternal.Weighted>
0.2639

> <Gold.Chemscore.Rot.Weighted>
5.1773

> <Gold.Chemscore.Internal.Correction.Weighted>
   9.000000E+99

> <Gold.Protein.RotatedTorsions>
[ 6907 6896 6895 6894 ] final -164.13 input  -60.11 | X-H torsion
[ 7974 7965 7964 7962 ] final  138.37 input  175.53 | X-H torsion
[ 8008 7997 7996 7995 ] final -102.36 input   59.86 | X-H torsion
[ 10167 10162 10161 10158 ] final -115.79 input  -65.29 | X-H torsion
[ 10718 10713 10712 10709 ] final    8.88 input   66.30 | X-H torsion
[ 10763 10752 10751 10750 ] final  -26.67 input  -60.55 | X-H torsion
[ 11005 11000 10999 10996 ] final -161.52 input  -57.11 | X-H torsion

> <Gold.Protein.ActiveResidues>
 VAL166  LYS551  ARG553  GLY616  TRP617  ASP618  TYR619  PRO620  LYS621  CYS622 
 ASP623  PHE694  ASN695  SER759  ASP760  ASP761  ALA762  ILE779  LEU786  VAL792 
 PHE793  MET794  SER795  GLU796  ALA797  LYS798  CYS799  TRP800  GLU811  SER814 

> <Gold.Protein.RotatedAtoms>
  151.4070  133.3739  159.2738 H   0  0  0  0  0  0  0  0  0  0  0  0  # atno 6907 bound_to 6896
  150.9391  134.8803  159.7611 H   0  0  0  0  0  0  0  0  0  0  0  0  # atno 6908 bound_to 6896
  152.5063  134.4019  159.9471 H   0  0  0  0  0  0  0  0  0  0  0  0  # atno 6909 bound_to 6896
  144.9379  139.4966  143.5586 H   0  0  0  0  0  0  0  0  0  0  0  0  # atno 7974 bound_to 7965
  154.8555  140.0429  157.1632 H   0  0  0  0  0  0  0  0  0  0  0  0  # atno 8008 bound_to 7997
  154.8896  140.2984  155.5358 H   0  0  0  0  0  0  0  0  0  0  0  0  # atno 8009 bound_to 7997
  156.2997  140.2396  156.3910 H   0  0  0  0  0  0  0  0  0  0  0  0  # atno 8010 bound_to 7997
  140.0863  143.4741  152.1896 H   0  0  0  0  0  0  0  0  0  0  0  0  # atno 10167 bound_to 10162
  156.9581  130.5922  149.5660 H   0  0  0  0  0  0  0  0  0  0  0  0  # atno 10718 bound_to 10713
  153.7196  135.6945  153.5016 H   0  0  0  0  0  0  0  0  0  0  0  0  # atno 10763 bound_to 10752
  153.2213  135.4369  155.0491 H   0  0  0  0  0  0  0  0  0  0  0  0  # atno 10764 bound_to 10752
  154.8288  135.3461  154.6730 H   0  0  0  0  0  0  0  0  0  0  0  0  # atno 10765 bound_to 10752
  140.6194  134.4766  157.5222 H   0  0  0  0  0  0  0  0  0  0  0  0  # atno 11005 bound_to 11000
  146.3274  139.8377  142.8896 LP  0  0  0  0  0  0  0  0  0  0  0  0  # atno 17320 bound_to 7965
  145.3037  141.0201  143.3594 LP  0  0  0  0  0  0  0  0  0  0  0  0  # atno 17321 bound_to 7965
  139.5750  144.7483  151.3788 LP  0  0  0  0  0  0  0  0  0  0  0  0  # atno 17342 bound_to 10162
  140.7052  143.7532  150.7469 LP  0  0  0  0  0  0  0  0  0  0  0  0  # atno 17343 bound_to 10162
  156.0334  130.5423  150.8592 LP  0  0  0  0  0  0  0  0  0  0  0  0  # atno 17370 bound_to 10713
  157.5676  131.0946  150.9466 LP  0  0  0  0  0  0  0  0  0  0  0  0  # atno 17371 bound_to 10713
  139.9159  134.8247  156.1367 LP  0  0  0  0  0  0  0  0  0  0  0  0  # atno 17394 bound_to 11000
  141.0753  133.6778  156.2223 LP  0  0  0  0  0  0  0  0  0  0  0  0  # atno 17395 bound_to 11000

$$$$
