AV-unprocessed.smi:2083|AV-procd|sdf|8511|dock9
  -GOLD-   2272011223D 1   1.00000     0.00000
 Structure written by MMmdl.
 44 45  0  0  0  0  0  0  0  0  3 V2000
  147.5806  135.6766  162.8233 C   0  0  0  0  0  0  0  0  0  0  0  0
  147.8133  135.8605  161.3629 C   0  0  0  0  0  0  0  0  0  0  0  0
  148.0327  134.9830  160.3388 C   0  0  0  0  0  0  0  0  0  0  0  0
  148.1714  135.8345  159.2102 C   0  0  0  0  0  0  0  0  0  0  0  0
  148.4143  135.2916  157.9209 N   0  0  0  0  0  0  0  0  0  0  0  0
  148.8261  134.0540  157.5899 C   0  0  0  0  0  0  0  0  0  0  0  0
  149.0413  133.2104  158.4686 O   0  0  0  0  0  0  0  0  0  0  0  0
  148.9559  133.9006  156.2438 N   0  5  0  0  0  0  0  0  0  0  0  0
  147.8365  133.7971  155.3093 C   0  0  0  0  0  0  0  0  0  0  0  0
  148.3532  133.8368  153.8348 C   0  0  1  0  0  0  0  0  0  0  0  0
  149.2969  132.6622  153.4823 C   0  0  0  0  0  0  0  0  0  0  0  0
  147.2925  133.9741  152.7784 N   0  3  1  0  0  0  0  0  0  0  0  0
  146.9122  132.7435  152.0223 C   0  0  0  0  0  0  0  0  0  0  0  0
  146.1126  133.1082  150.7623 C   0  0  0  0  0  0  0  0  0  0  0  0
  144.8779  133.9493  151.1184 C   0  0  0  0  0  0  0  0  0  0  0  0
  145.2605  135.1880  151.9511 C   0  0  2  0  0  0  0  0  0  0  0  0
  145.9496  136.2792  151.1128 C   0  0  0  0  0  0  0  0  0  0  0  0
  146.1008  134.7778  153.1780 C   0  0  0  0  0  0  0  0  0  0  0  0
  148.0487  137.1170  159.5194 N   0  0  0  0  0  0  0  0  0  0  0  0
  147.8195  137.1401  160.9003 O   0  0  0  0  0  0  0  0  0  0  0  0
  147.3709  134.6325  163.0559 H   0  0  0  0  0  0  0  0  0  0  0  0
  146.7326  136.2740  163.1587 H   0  0  0  0  0  0  0  0  0  0  0  0
  148.4574  135.9808  163.3947 H   0  0  0  0  0  0  0  0  0  0  0  0
  148.0844  133.9056  160.3898 H   0  0  0  0  0  0  0  0  0  0  0  0
  148.2616  135.9220  157.1479 H   0  0  0  0  0  0  0  0  0  0  0  0
  147.2586  132.8839  155.4563 H   0  0  0  0  0  0  0  0  0  0  0  0
  147.1332  134.6169  155.4584 H   0  0  0  0  0  0  0  0  0  0  0  0
  148.9662  134.7348  153.7399 H   0  0  0  0  0  0  0  0  0  0  0  0
  150.1978  132.6600  154.0988 H   0  0  0  0  0  0  0  0  0  0  0  0
  149.6316  132.7375  152.4473 H   0  0  0  0  0  0  0  0  0  0  0  0
  148.8223  131.6871  153.5995 H   0  0  0  0  0  0  0  0  0  0  0  0
  147.7992  132.1842  151.7272 H   0  0  0  0  0  0  0  0  0  0  0  0
  146.3143  132.0814  152.6504 H   0  0  0  0  0  0  0  0  0  0  0  0
  146.7496  133.6542  150.0657 H   0  0  0  0  0  0  0  0  0  0  0  0
  145.8038  132.1995  150.2445 H   0  0  0  0  0  0  0  0  0  0  0  0
  144.3463  134.2452  150.2133 H   0  0  0  0  0  0  0  0  0  0  0  0
  144.1836  133.3335  151.6919 H   0  0  0  0  0  0  0  0  0  0  0  0
  144.3339  135.6275  152.3226 H   0  0  0  0  0  0  0  0  0  0  0  0
  146.9129  135.9481  150.7243 H   0  0  0  0  0  0  0  0  0  0  0  0
  146.1260  137.1752  151.7086 H   0  0  0  0  0  0  0  0  0  0  0  0
  145.3312  136.5694  150.2629 H   0  0  0  0  0  0  0  0  0  0  0  0
  145.4804  134.1976  153.8623 H   0  0  0  0  0  0  0  0  0  0  0  0
  146.4115  135.6715  153.7207 H   0  0  0  0  0  0  0  0  0  0  0  0
  147.7451  134.5544  152.0874 H   0  0  0  0  0  0  0  0  0  0  0  0
  1  2  1  0  0  0  0
  1 21  1  0  0  0  0
  1 22  1  0  0  0  0
  1 23  1  0  0  0  0
  2 20  1  0  0  0  0
  2  3  2  0  0  0  0
  3  4  1  0  0  0  0
  3 24  1  0  0  0  0
  4  5  1  0  0  0  0
  4 19  2  0  0  0  0
  5  6  1  0  0  0  0
  5 25  1  0  0  0  0
  6  7  2  0  0  0  0
  6  8  1  0  0  0  0
  8  9  1  0  0  0  0
  9 10  1  0  0  0  0
  9 26  1  0  0  0  0
  9 27  1  0  0  0  0
 10 11  1  0  0  0  0
 10 12  1  0  0  0  0
 10 28  1  0  0  0  0
 11 29  1  0  0  0  0
 11 30  1  0  0  0  0
 11 31  1  0  0  0  0
 12 18  1  0  0  0  0
 12 13  1  0  0  0  0
 12 44  1  0  0  0  0
 13 14  1  0  0  0  0
 13 32  1  0  0  0  0
 13 33  1  0  0  0  0
 14 15  1  0  0  0  0
 14 34  1  0  0  0  0
 14 35  1  0  0  0  0
 15 16  1  0  0  0  0
 15 36  1  0  0  0  0
 15 37  1  0  0  0  0
 16 17  1  0  0  0  0
 16 18  1  0  0  0  0
 16 38  1  0  0  0  0
 17 39  1  0  0  0  0
 17 40  1  0  0  0  0
 17 41  1  0  0  0  0
 18 42  1  0  0  0  0
 18 43  1  0  0  0  0
 19 20  1  0  0  0  0
M  CHG  1   8  -1
M  CHG  1  12   1
M  END
> <s_m_source_file>
AV-unprocessed.smi

> <i_m_source_file_index>
2083

> <i_lp_mmshare_version>
43012

> <i_f3d_flags>
0

> <s_epik_input>
W0NIM11jMVtjSF1jKG5vMSlbTkhdQyg9TylbTkhdW0NIMl1bQ0BIXShbQ0gzXSlOMltDSDJdW0NIMl1bQ0gyXVtDQEBIXShbQ0gzXSlbQ0gyXTI=

> <s_epik_cmdline>
J2VwaWtfcHl0aG9uJywgJy1waCcsICc3LjAnLCAnLXRuJywgJzgnLCAnLW1hJywgJzIwMCcsICctbWV0YWxfYmluZGluZycsICctaW1hZScsICc8aW5maWxlLm1hZT4nLCAnLW9tYWUnLCAnPG91dGZpbGUubWFlPic=

> <r_epik_Ionization_Penalty>
6.76934

> <r_epik_Ionization_Penalty_Charging>
6.76934

> <r_epik_Ionization_Penalty_Neutral>
5.77849e-06

> <r_epik_State_Penalty>
6.79457

> <r_epik_Charging_Adjusted_Penalty>
13.5639

> <i_epik_Tot_Q>
0

> <i_epik_Tot_abs_Q>
2

> <r_epik_Metal_State_Penalty>
2.72837

> <b_epik_Metal_Only>
1

> <s_lp_Force_Field>
OPLS_2005

> <r_lp_Energy>
23.3528

> <b_lp_Chiralities_Consistent>
1

> <s_lp_Variant>
AV-unprocessed.smi:2083-22

> <Gold.Version>
5.8.1

> <Gold.Id.Protein>
6NUR|6NUR_protein|mol2

> <Gold.PLP.Fitness>
42.1564

> <Gold.PLP.PLP>
-32.0577

> <Gold.PLP.part.hbond>
-4.4473

> <Gold.PLP.part.metal>
0.0000

> <Gold.PLP.part.buried>
-2.2570

> <Gold.PLP.part.nonpolar>
-25.1768

> <Gold.PLP.part.repulsive>
0.0564

> <Gold.PLP.ligand.clash>
0.0000

> <Gold.PLP.ligand.torsion>
1.5443

> <Gold.PLP.Chemscore.Hbond>
4.3264

> <Gold.PLP.Chemscore.CHOScore>
0.0000

> <Gold.PLP.Chemscore.Metal>
0.0000

> <Gold.Chemscore.Hbonds>
donor molecule, donor type, donor heavy atom, donor atom, acceptor molecule, acceptor atom, score
      L1  H    12    44       P1  7948  1.79
      P1  H  6896  6909       L1     7  1.00
      P1  H  6931  6943       L1    20  0.91
      P1  H  6934  6947       L1    20  0.64

> <Gold.PLP.Chemscore.Internal.Correction>
0.2082

> <Gold.Rescore>
     Score         DG    S(hbond)    S(metal)    S(lipo)     H(rot)  DE(clash)    DE(int)     intcor
     14.51     -17.97       2.49        0.00      68.98       1.52       0.28       3.18       ----

> <Gold.Chemscore.Fitness>
14.5133

> <Gold.Chemscore.DG>
-17.9715

> <Gold.Chemscore.ZeroCoef>
-5.4800

> <Gold.Chemscore.Hbond>
2.4879

> <Gold.Chemscore.Metal>
0.0000

> <Gold.Chemscore.Lipo>
68.9787

> <Gold.Chemscore.Internal_Hbond>
0.0000

> <Gold.Chemscore.DEClash>
0.2775

> <Gold.Chemscore.DEInternal>
3.1807

> <Gold.Chemscore.Rot>
1.5190

> <Gold.Chemscore.Internal.Correction>
   9.000000E+99

> <Gold.Chemscore.Hbonds>
donor molecule, donor type, donor heavy atom, donor atom, acceptor molecule, acceptor atom, score
      L1  H    12    44       P1  7948  0.36
      P1  H  6896  6909       L1     7  0.47
      P1  H  6931  6943       L1    20  0.65
      P1  H  6934  6947       L1    20  0.08

> <Gold.Chemscore.Hbond.Weighted>
-8.3096

> <Gold.Chemscore.Metal.Weighted>
-0.0000

> <Gold.Chemscore.Lipo.Weighted>
-8.0705

> <Gold.Chemscore.Internal_Hbond.Weighted>
0.0000

> <Gold.Chemscore.DEClash.Weighted>
0.2775

> <Gold.Chemscore.DEInternal.Weighted>
3.1807

> <Gold.Chemscore.Rot.Weighted>
3.8886

> <Gold.Chemscore.Internal.Correction.Weighted>
   9.000000E+99

> <Gold.Protein.RotatedTorsions>
[ 6907 6896 6895 6894 ] final   -5.42 input  -60.11 | X-H torsion
[ 7974 7965 7964 7962 ] final  128.01 input  175.53 | X-H torsion
[ 8008 7997 7996 7995 ] final   45.10 input   59.86 | X-H torsion
[ 10167 10162 10161 10158 ] final  -12.93 input  -65.29 | X-H torsion
[ 10718 10713 10712 10709 ] final  -91.47 input   66.30 | X-H torsion
[ 10763 10752 10751 10750 ] final   -6.46 input  -60.55 | X-H torsion
[ 11005 11000 10999 10996 ] final -152.48 input  -57.11 | X-H torsion

> <Gold.Protein.ActiveResidues>
 VAL166  LYS551  ARG553  GLY616  TRP617  ASP618  TYR619  PRO620  LYS621  CYS622 
 ASP623  PHE694  ASN695  SER759  ASP760  ASP761  ALA762  ILE779  LEU786  VAL792 
 PHE793  MET794  SER795  GLU796  ALA797  LYS798  CYS799  TRP800  GLU811  SER814 

> <Gold.Protein.RotatedAtoms>
  151.4819  135.1052  159.9779 H   0  0  0  0  0  0  0  0  0  0  0  0  # atno 6907 bound_to 6896
  152.4776  133.8171  159.7044 H   0  0  0  0  0  0  0  0  0  0  0  0  # atno 6908 bound_to 6896
  150.8824  133.7292  159.2954 H   0  0  0  0  0  0  0  0  0  0  0  0  # atno 6909 bound_to 6896
  145.0443  139.3937  143.5086 H   0  0  0  0  0  0  0  0  0  0  0  0  # atno 7974 bound_to 7965
  155.3302  140.3402  155.4239 H   0  0  0  0  0  0  0  0  0  0  0  0  # atno 8008 bound_to 7997
  156.1865  140.1682  156.8211 H   0  0  0  0  0  0  0  0  0  0  0  0  # atno 8009 bound_to 7997
  154.5392  140.0728  156.8464 H   0  0  0  0  0  0  0  0  0  0  0  0  # atno 8010 bound_to 7997
  140.7172  143.5479  150.9334 H   0  0  0  0  0  0  0  0  0  0  0  0  # atno 10167 bound_to 10162
  155.9994  130.4949  150.5480 H   0  0  0  0  0  0  0  0  0  0  0  0  # atno 10718 bound_to 10713
  153.4127  135.7008  153.6348 H   0  0  0  0  0  0  0  0  0  0  0  0  # atno 10763 bound_to 10752
  153.4835  135.3688  155.2455 H   0  0  0  0  0  0  0  0  0  0  0  0  # atno 10764 bound_to 10752
  154.8718  135.4071  154.3482 H   0  0  0  0  0  0  0  0  0  0  0  0  # atno 10765 bound_to 10752
  140.7184  134.3755  157.5187 H   0  0  0  0  0  0  0  0  0  0  0  0  # atno 11005 bound_to 11000
  146.3512  140.0059  142.8671 LP  0  0  0  0  0  0  0  0  0  0  0  0  # atno 17320 bound_to 7965
  145.1608  140.9672  143.4378 LP  0  0  0  0  0  0  0  0  0  0  0  0  # atno 17321 bound_to 7965
  139.9203  143.6614  152.3098 LP  0  0  0  0  0  0  0  0  0  0  0  0  # atno 17342 bound_to 10162
  139.7028  144.7632  151.1244 LP  0  0  0  0  0  0  0  0  0  0  0  0  # atno 17343 bound_to 10162
  157.3407  131.0716  151.1790 LP  0  0  0  0  0  0  0  0  0  0  0  0  # atno 17370 bound_to 10713
  157.2640  130.6672  149.5988 LP  0  0  0  0  0  0  0  0  0  0  0  0  # atno 17371 bound_to 10713
  139.8854  134.8938  156.2645 LP  0  0  0  0  0  0  0  0  0  0  0  0  # atno 17394 bound_to 11000
  141.0025  133.7143  156.0982 LP  0  0  0  0  0  0  0  0  0  0  0  0  # atno 17395 bound_to 11000

$$$$
