AV-unprocessed.smi:1929|AV-procd|sdf|7802|dock4
  -GOLD-   22720 9543D 1   1.00000     0.00000
 Structure written by MMmdl.
 43 44  0  0  0  0  0  0  0  0  2 V2000
  152.6718  142.3028  159.8231 C   0  0  0  0  0  0  0  0  0  0  0  0
  152.2675  142.2568  158.4266 N   0  0  0  0  0  0  0  0  0  0  0  0
  151.1670  141.6346  157.9802 C   0  0  0  0  0  0  0  0  0  0  0  0
  150.3833  141.0354  158.7163 O   0  0  0  0  0  0  0  0  0  0  0  0
  150.9022  141.7037  156.4712 C   0  0  0  0  0  0  0  0  0  0  0  0
  149.6215  141.0954  156.0435 N   0  0  0  0  0  0  0  0  0  0  0  0
  149.4666  141.2694  154.5954 C   0  0  0  0  0  0  0  0  0  0  0  0
  148.2116  140.5362  154.0918 C   0  0  0  0  0  0  0  0  0  0  0  0
  146.9514  141.0458  154.8042 C   0  0  0  0  0  0  0  0  0  0  0  0
  145.7929  140.2612  154.3872 N   0  0  0  0  0  0  0  0  0  0  0  0
  145.5570  138.9878  154.7340 C   0  0  0  0  0  0  0  0  0  0  0  0
  146.3139  138.3271  155.4448 O   0  0  0  0  0  0  0  0  0  0  0  0
  144.4113  138.5400  154.1910 N   0  0  0  0  0  0  0  0  0  0  0  0
  143.8019  137.2624  154.3260 C   0  0  0  0  0  0  0  0  0  0  0  0
  144.2948  136.4097  155.3387 C   0  0  0  0  0  0  0  0  0  0  0  0
  143.7343  135.1268  155.5034 C   0  0  0  0  0  0  0  0  0  0  0  0
  142.7385  134.7186  154.6884 N   0  3  0  0  0  0  0  0  0  0  0  0
  142.2432  135.4914  153.6982 C   0  0  0  0  0  0  0  0  0  0  0  0
  142.7643  136.7841  153.4852 C   0  0  0  0  0  0  0  0  0  0  0  0
  147.1662  140.9487  156.3235 C   0  0  0  0  0  0  0  0  0  0  0  0
  148.4625  141.6599  156.7511 C   0  0  0  0  0  0  0  0  0  0  0  0
  153.5858  142.8875  159.9262 H   0  0  0  0  0  0  0  0  0  0  0  0
  152.8632  141.2993  160.2052 H   0  0  0  0  0  0  0  0  0  0  0  0
  151.8987  142.7680  160.4358 H   0  0  0  0  0  0  0  0  0  0  0  0
  152.8576  142.7297  157.7575 H   0  0  0  0  0  0  0  0  0  0  0  0
  150.9458  142.7420  156.1359 H   0  0  0  0  0  0  0  0  0  0  0  0
  151.7289  141.1873  155.9809 H   0  0  0  0  0  0  0  0  0  0  0  0
  149.4118  142.3300  154.3433 H   0  0  0  0  0  0  0  0  0  0  0  0
  150.3387  140.8657  154.0793 H   0  0  0  0  0  0  0  0  0  0  0  0
  148.1134  140.6735  153.0142 H   0  0  0  0  0  0  0  0  0  0  0  0
  148.3284  139.4638  154.2579 H   0  0  0  0  0  0  0  0  0  0  0  0
  146.7992  142.0914  154.5291 H   0  0  0  0  0  0  0  0  0  0  0  0
  145.1232  140.7263  153.7916 H   0  0  0  0  0  0  0  0  0  0  0  0
  143.9421  139.1786  153.5653 H   0  0  0  0  0  0  0  0  0  0  0  0
  145.0936  136.7349  155.9899 H   0  0  0  0  0  0  0  0  0  0  0  0
  144.0516  134.4198  156.2564 H   0  0  0  0  0  0  0  0  0  0  0  0
  141.4532  135.0540  153.1053 H   0  0  0  0  0  0  0  0  0  0  0  0
  142.3647  137.3745  152.6755 H   0  0  0  0  0  0  0  0  0  0  0  0
  146.3187  141.3867  156.8521 H   0  0  0  0  0  0  0  0  0  0  0  0
  147.2114  139.9017  156.6276 H   0  0  0  0  0  0  0  0  0  0  0  0
  148.5689  141.5431  157.8295 H   0  0  0  0  0  0  0  0  0  0  0  0
  148.3881  142.7313  156.5559 H   0  0  0  0  0  0  0  0  0  0  0  0
  142.3468  133.7859  154.8233 H   0  0  0  0  0  0  0  0  0  0  0  0
  1  2  1  0  0  0  0
  1 22  1  0  0  0  0
  1 23  1  0  0  0  0
  1 24  1  0  0  0  0
  2  3  1  0  0  0  0
  2 25  1  0  0  0  0
  3  4  2  0  0  0  0
  3  5  1  0  0  0  0
  5  6  1  0  0  0  0
  5 26  1  0  0  0  0
  5 27  1  0  0  0  0
  6 21  1  0  0  0  0
  6  7  1  0  0  0  0
  7  8  1  0  0  0  0
  7 28  1  0  0  0  0
  7 29  1  0  0  0  0
  8  9  1  0  0  0  0
  8 30  1  0  0  0  0
  8 31  1  0  0  0  0
  9 10  1  0  0  0  0
  9 20  1  0  0  0  0
  9 32  1  0  0  0  0
 10 11  1  0  0  0  0
 10 33  1  0  0  0  0
 11 12  2  0  0  0  0
 11 13  1  0  0  0  0
 13 14  1  0  0  0  0
 13 34  1  0  0  0  0
 14 19  1  0  0  0  0
 14 15  2  0  0  0  0
 15 16  1  0  0  0  0
 15 35  1  0  0  0  0
 16 17  2  0  0  0  0
 16 36  1  0  0  0  0
 17 18  1  0  0  0  0
 17 43  1  0  0  0  0
 18 19  2  0  0  0  0
 18 37  1  0  0  0  0
 19 38  1  0  0  0  0
 20 21  1  0  0  0  0
 20 39  1  0  0  0  0
 20 40  1  0  0  0  0
 21 41  1  0  0  0  0
 21 42  1  0  0  0  0
M  CHG  1  17   1
M  END
> <s_m_source_file>
AV-unprocessed.smi

> <i_m_source_file_index>
1929

> <i_lp_mmshare_version>
43012

> <i_f3d_flags>
0

> <s_epik_input>
W0NIM11bTkhdQyg9TylbQ0gyXU4xW0NIMl1bQ0gyXVtDSF0oW0NIMl1bQ0gyXTEpW05IXUMoPU8pW05IXWMyW2NIXVtjSF1uW2NIXVtjSF0y

> <s_epik_cmdline>
J2VwaWtfcHl0aG9uJywgJy1waCcsICc3LjAnLCAnLXRuJywgJzgnLCAnLW1hJywgJzIwMCcsICctbWV0YWxfYmluZGluZycsICctaW1hZScsICc8aW5maWxlLm1hZT4nLCAnLW9tYWUnLCAnPG91dGZpbGUubWFlPic=

> <r_epik_Ionization_Penalty>
1.15133

> <r_epik_Ionization_Penalty_Charging>
0.995513

> <r_epik_Ionization_Penalty_Neutral>
0.155816

> <r_epik_State_Penalty>
1.22166

> <r_epik_Charging_Adjusted_Penalty>
2.21717

> <i_epik_Tot_Q>
1

> <i_epik_Tot_abs_Q>
1

> <r_epik_Metal_State_Penalty>
1.32497

> <b_epik_Metal_Only>
0

> <s_lp_Force_Field>
OPLS_2005

> <r_lp_Energy>
25.1405

> <b_lp_Chiralities_Consistent>
1

> <s_lp_Variant>
AV-unprocessed.smi:1929-4

> <Gold.Version>
5.8.1

> <Gold.Id.Protein>
6NUR|6NUR_protein|mol2

> <Gold.PLP.Fitness>
39.1038

> <Gold.PLP.PLP>
-27.4872

> <Gold.PLP.part.hbond>
-3.8428

> <Gold.PLP.part.metal>
0.0000

> <Gold.PLP.part.buried>
-3.4198

> <Gold.PLP.part.nonpolar>
-19.7918

> <Gold.PLP.part.repulsive>
0.1762

> <Gold.PLP.ligand.clash>
0.0000

> <Gold.PLP.ligand.torsion>
0.1827

> <Gold.PLP.Chemscore.Hbond>
3.9920

> <Gold.PLP.Chemscore.CHOScore>
0.0000

> <Gold.PLP.Chemscore.Metal>
0.0000

> <Gold.Chemscore.Hbonds>
donor molecule, donor type, donor heavy atom, donor atom, acceptor molecule, acceptor atom, score
      L1  H    10    33       P1 10175  0.93
      L1  H    13    34       P1 10175  1.00
      L1  H    17    43       P1 10957  1.90

> <Gold.PLP.Chemscore.Internal.Correction>
0.0060

> <Gold.Rescore>
     Score         DG    S(hbond)    S(metal)    S(lipo)     H(rot)  DE(clash)    DE(int)     intcor
     14.55     -17.64       2.96        0.00      56.36       1.69       0.10       2.99       ----

> <Gold.Chemscore.Fitness>
14.5503

> <Gold.Chemscore.DG>
-17.6447

> <Gold.Chemscore.ZeroCoef>
-5.4800

> <Gold.Chemscore.Hbond>
2.9618

> <Gold.Chemscore.Metal>
0.0000

> <Gold.Chemscore.Lipo>
56.3624

> <Gold.Chemscore.Internal_Hbond>
0.0000

> <Gold.Chemscore.DEClash>
0.1025

> <Gold.Chemscore.DEInternal>
2.9918

> <Gold.Chemscore.Rot>
1.6883

> <Gold.Chemscore.Internal.Correction>
   9.000000E+99

> <Gold.Chemscore.Hbonds>
donor molecule, donor type, donor heavy atom, donor atom, acceptor molecule, acceptor atom, score
      L1  H    10    33       P1 10175  0.85
      L1  H    13    34       P1 10175  1.00
      L1  H    17    43       P1 10957  0.85

> <Gold.Chemscore.Hbond.Weighted>
-9.8924

> <Gold.Chemscore.Metal.Weighted>
-0.0000

> <Gold.Chemscore.Lipo.Weighted>
-6.5944

> <Gold.Chemscore.Internal_Hbond.Weighted>
0.0000

> <Gold.Chemscore.DEClash.Weighted>
0.1025

> <Gold.Chemscore.DEInternal.Weighted>
2.9918

> <Gold.Chemscore.Rot.Weighted>
4.3221

> <Gold.Chemscore.Internal.Correction.Weighted>
   9.000000E+99

> <Gold.Protein.RotatedTorsions>
[ 6907 6896 6895 6894 ] final  -69.19 input  -60.11 | X-H torsion
[ 7974 7965 7964 7962 ] final -114.45 input  175.53 | X-H torsion
[ 8008 7997 7996 7995 ] final   -2.93 input   59.86 | X-H torsion
[ 10167 10162 10161 10158 ] final   69.47 input  -65.29 | X-H torsion
[ 10718 10713 10712 10709 ] final  115.95 input   66.30 | X-H torsion
[ 10763 10752 10751 10750 ] final  -37.50 input  -60.55 | X-H torsion
[ 11005 11000 10999 10996 ] final -145.59 input  -57.11 | X-H torsion

> <Gold.Protein.ActiveResidues>
 VAL166  LYS551  ARG553  GLY616  TRP617  ASP618  TYR619  PRO620  LYS621  CYS622 
 ASP623  PHE694  ASN695  SER759  ASP760  ASP761  ALA762  ILE779  LEU786  VAL792 
 PHE793  MET794  SER795  GLU796  ALA797  LYS798  CYS799  TRP800  GLU811  SER814 

> <Gold.Protein.RotatedAtoms>
  150.7318  134.5631  159.5852 H   0  0  0  0  0  0  0  0  0  0  0  0  # atno 6907 bound_to 6896
  152.3090  134.7518  160.0350 H   0  0  0  0  0  0  0  0  0  0  0  0  # atno 6908 bound_to 6896
  151.8072  133.3341  159.3581 H   0  0  0  0  0  0  0  0  0  0  0  0  # atno 6909 bound_to 6896
  145.1200  140.8663  143.3819 H   0  0  0  0  0  0  0  0  0  0  0  0  # atno 7974 bound_to 7965
  154.6304  140.2522  155.7440 H   0  0  0  0  0  0  0  0  0  0  0  0  # atno 8008 bound_to 7997
  156.2476  140.2908  156.0573 H   0  0  0  0  0  0  0  0  0  0  0  0  # atno 8009 bound_to 7997
  155.1754  140.0387  157.2862 H   0  0  0  0  0  0  0  0  0  0  0  0  # atno 8010 bound_to 7997
  140.0674  144.5181  150.7251 H   0  0  0  0  0  0  0  0  0  0  0  0  # atno 10167 bound_to 10162
  157.6191  131.1019  150.7403 H   0  0  0  0  0  0  0  0  0  0  0  0  # atno 10718 bound_to 10713
  153.8974  135.6806  153.4757 H   0  0  0  0  0  0  0  0  0  0  0  0  # atno 10763 bound_to 10752
  153.1148  135.4766  154.9094 H   0  0  0  0  0  0  0  0  0  0  0  0  # atno 10764 bound_to 10752
  154.7592  135.3206  154.8364 H   0  0  0  0  0  0  0  0  0  0  0  0  # atno 10765 bound_to 10752
  140.7907  134.2972  157.5014 H   0  0  0  0  0  0  0  0  0  0  0  0  # atno 11005 bound_to 11000
  145.0751  139.3002  143.5812 LP  0  0  0  0  0  0  0  0  0  0  0  0  # atno 17320 bound_to 7965
  146.3521  140.0238  142.8656 LP  0  0  0  0  0  0  0  0  0  0  0  0  # atno 17321 bound_to 7965
  140.7142  143.2530  151.4486 LP  0  0  0  0  0  0  0  0  0  0  0  0  # atno 17342 bound_to 10162
  139.5856  144.1611  152.2025 LP  0  0  0  0  0  0  0  0  0  0  0  0  # atno 17343 bound_to 10162
  156.7764  130.4845  149.5409 LP  0  0  0  0  0  0  0  0  0  0  0  0  # atno 17370 bound_to 10713
  156.1327  130.6189  151.0356 LP  0  0  0  0  0  0  0  0  0  0  0  0  # atno 17371 bound_to 10713
  139.8731  134.9373  156.3683 LP  0  0  0  0  0  0  0  0  0  0  0  0  # atno 17394 bound_to 11000
  140.9392  133.7526  156.0124 LP  0  0  0  0  0  0  0  0  0  0  0  0  # atno 17395 bound_to 11000

$$$$
