AV-unprocessed.smi:2575|AV-procd|sdf|10116|dock9
  -GOLD-   2272014133D 1   1.00000     0.00000
 Structure written by MMmdl.
 31 32  0  0  0  0  0  0  0  0  1 V2000
  154.3707  137.7365  164.7246 C   0  0  0  0  0  0  0  0  0  0  0  0
  153.7007  136.9684  163.5831 C   0  0  0  0  0  0  0  0  0  0  0  0
  154.6899  136.5888  162.6413 O   0  0  0  0  0  0  0  0  0  0  0  0
  154.1355  136.1196  161.4232 C   0  0  0  0  0  0  0  0  0  0  0  0
  153.4101  137.2747  160.7172 C   0  0  2  0  0  0  0  0  0  0  0  0
  152.8514  136.7814  159.5148 O   0  0  0  0  0  0  0  0  0  0  0  0
  154.3454  138.4622  160.4137 C   0  0  0  0  0  0  0  0  0  0  0  0
  153.7284  139.4486  159.5442 N   0  0  0  0  0  0  0  0  0  0  0  0
  153.5218  139.1462  158.2313 N   0  0  0  0  0  0  0  0  0  0  0  0
  152.9710  140.1698  157.6500 N   0  0  0  0  0  0  0  0  0  0  0  0
  152.8143  141.1675  158.5976 C   0  0  0  0  0  0  0  0  0  0  0  0
  152.2815  142.4731  158.5115 C   0  0  0  0  0  0  0  0  0  0  0  0
  152.2397  143.3039  159.6528 C   0  0  0  0  0  0  0  0  0  0  0  0
  151.5800  144.8943  159.5078 Cl  0  0  0  0  0  0  0  0  0  0  0  0
  152.7324  142.8365  160.8953 C   0  0  0  0  0  0  0  0  0  0  0  0
  152.6915  143.8407  162.3007 Cl  0  0  0  0  0  0  0  0  0  0  0  0
  153.2664  141.5364  160.9955 C   0  0  0  0  0  0  0  0  0  0  0  0
  153.2981  140.7258  159.8482 C   0  0  0  0  0  0  0  0  0  0  0  0
  153.6375  138.0427  165.4709 H   0  0  0  0  0  0  0  0  0  0  0  0
  154.8664  138.6341  164.3546 H   0  0  0  0  0  0  0  0  0  0  0  0
  155.1194  137.1209  165.2237 H   0  0  0  0  0  0  0  0  0  0  0  0
  153.1967  136.0840  163.9756 H   0  0  0  0  0  0  0  0  0  0  0  0
  152.9454  137.5949  163.1061 H   0  0  0  0  0  0  0  0  0  0  0  0
  154.9158  135.7081  160.7806 H   0  0  0  0  0  0  0  0  0  0  0  0
  153.4310  135.3144  161.6389 H   0  0  0  0  0  0  0  0  0  0  0  0
  152.5853  137.6115  161.3466 H   0  0  0  0  0  0  0  0  0  0  0  0
  153.0841  137.3684  158.8117 H   0  0  0  0  0  0  0  0  0  0  0  0
  154.6417  138.9575  161.3399 H   0  0  0  0  0  0  0  0  0  0  0  0
  155.2653  138.1126  159.9431 H   0  0  0  0  0  0  0  0  0  0  0  0
  151.9054  142.8358  157.5664 H   0  0  0  0  0  0  0  0  0  0  0  0
  153.6472  141.1686  161.9369 H   0  0  0  0  0  0  0  0  0  0  0  0
  1  2  1  0  0  0  0
  1 19  1  0  0  0  0
  1 20  1  0  0  0  0
  1 21  1  0  0  0  0
  2  3  1  0  0  0  0
  2 22  1  0  0  0  0
  2 23  1  0  0  0  0
  3  4  1  0  0  0  0
  4  5  1  0  0  0  0
  4 24  1  0  0  0  0
  4 25  1  0  0  0  0
  5  6  1  0  0  0  0
  5  7  1  0  0  0  0
  5 26  1  0  0  0  0
  6 27  1  0  0  0  0
  7  8  1  0  0  0  0
  7 28  1  0  0  0  0
  7 29  1  0  0  0  0
  8 18  1  0  0  0  0
  8  9  1  0  0  0  0
  9 10  2  0  0  0  0
 10 11  1  0  0  0  0
 11 18  2  0  0  0  0
 11 12  1  0  0  0  0
 12 13  2  0  0  0  0
 12 30  1  0  0  0  0
 13 14  1  0  0  0  0
 13 15  1  0  0  0  0
 15 16  1  0  0  0  0
 15 17  2  0  0  0  0
 17 18  1  0  0  0  0
 17 31  1  0  0  0  0
M  END
> <s_m_source_file>
AV-unprocessed.smi

> <i_m_source_file_index>
2575

> <i_lp_mmshare_version>
43012

> <i_f3d_flags>
0

> <s_epik_input>
W0NIM11bQ0gyXU9bQ0gyXVtDQEhdKFtPSF0pW0NIMl1uKG5uMSljKGMxMilbY0hdYyhDbCljKENsKVtjSF0y

> <s_epik_cmdline>
J2VwaWtfcHl0aG9uJywgJy1waCcsICc3LjAnLCAnLXRuJywgJzgnLCAnLW1hJywgJzIwMCcsICctbWV0YWxfYmluZGluZycsICctaW1hZScsICc8aW5maWxlLm1hZT4nLCAnLW9tYWUnLCAnPG91dGZpbGUubWFlPic=

> <r_lp_tautomer_probability>
1

> <r_epik_Ionization_Penalty>
2.39516e-06

> <r_epik_Ionization_Penalty_Charging>
0

> <r_epik_Ionization_Penalty_Neutral>
2.39516e-06

> <r_epik_State_Penalty>
-0

> <r_epik_Charging_Adjusted_Penalty>
0

> <i_epik_Tot_Q>
0

> <i_epik_Tot_abs_Q>
0

> <r_epik_Metal_State_Penalty>
-0

> <b_epik_Metal_Only>
0

> <s_lp_Force_Field>
OPLS_2005

> <r_lp_Energy>
6.35742

> <b_lp_Chiralities_Consistent>
1

> <s_lp_Variant>
AV-unprocessed.smi:2575-1

> <Gold.Version>
5.8.1

> <Gold.Id.Protein>
6NUR|6NUR_protein|mol2

> <Gold.PLP.Fitness>
45.3877

> <Gold.PLP.PLP>
-42.7882

> <Gold.PLP.part.hbond>
-3.0000

> <Gold.PLP.part.metal>
0.0000

> <Gold.PLP.part.buried>
-4.4887

> <Gold.PLP.part.nonpolar>
-35.2398

> <Gold.PLP.part.repulsive>
0.0000

> <Gold.PLP.ligand.clash>
0.0000

> <Gold.PLP.ligand.torsion>
0.2135

> <Gold.PLP.Chemscore.Hbond>
1.0000

> <Gold.PLP.Chemscore.CHOScore>
0.0000

> <Gold.PLP.Chemscore.Metal>
0.0000

> <Gold.Chemscore.Hbonds>
donor molecule, donor type, donor heavy atom, donor atom, acceptor molecule, acceptor atom, score
      P1  H  6896  6908       L1     6  1.00

> <Gold.PLP.Chemscore.Internal.Correction>
0.0267

> <Gold.Rescore>
     Score         DG    S(hbond)    S(metal)    S(lipo)     H(rot)  DE(clash)    DE(int)     intcor
     15.47     -17.63       0.95        0.00     124.50       2.19       0.51       1.65       ----

> <Gold.Chemscore.Fitness>
15.4706

> <Gold.Chemscore.DG>
-17.6285

> <Gold.Chemscore.ZeroCoef>
-5.4800

> <Gold.Chemscore.Hbond>
0.9546

> <Gold.Chemscore.Metal>
0.0000

> <Gold.Chemscore.Lipo>
124.5031

> <Gold.Chemscore.Internal_Hbond>
0.0000

> <Gold.Chemscore.DEClash>
0.5103

> <Gold.Chemscore.DEInternal>
1.6476

> <Gold.Chemscore.Rot>
2.1901

> <Gold.Chemscore.Internal.Correction>
   9.000000E+99

> <Gold.Chemscore.Hbonds>
donor molecule, donor type, donor heavy atom, donor atom, acceptor molecule, acceptor atom, score
      P1  H  6896  6908       L1     6  0.47

> <Gold.Chemscore.Hbond.Weighted>
-3.1882

> <Gold.Chemscore.Metal.Weighted>
-0.0000

> <Gold.Chemscore.Lipo.Weighted>
-14.5669

> <Gold.Chemscore.Internal_Hbond.Weighted>
0.0000

> <Gold.Chemscore.DEClash.Weighted>
0.5103

> <Gold.Chemscore.DEInternal.Weighted>
1.6476

> <Gold.Chemscore.Rot.Weighted>
5.6066

> <Gold.Chemscore.Internal.Correction.Weighted>
   9.000000E+99

> <Gold.Protein.RotatedTorsions>
[ 6907 6896 6895 6894 ] final -103.96 input  -60.11 | X-H torsion
[ 7974 7965 7964 7962 ] final  -24.70 input  175.53 | X-H torsion
[ 8008 7997 7996 7995 ] final   43.07 input   59.86 | X-H torsion
[ 10167 10162 10161 10158 ] final   94.97 input  -65.29 | X-H torsion
[ 10718 10713 10712 10709 ] final   -9.42 input   66.30 | X-H torsion
[ 10763 10752 10751 10750 ] final  -64.81 input  -60.55 | X-H torsion
[ 11005 11000 10999 10996 ] final   12.67 input  -57.11 | X-H torsion

> <Gold.Protein.ActiveResidues>
 VAL166  LYS551  ARG553  GLY616  TRP617  ASP618  TYR619  PRO620  LYS621  CYS622 
 ASP623  PHE694  ASN695  SER759  ASP760  ASP761  ALA762  ILE779  LEU786  VAL792 
 PHE793  MET794  SER795  GLU796  ALA797  LYS798  CYS799  TRP800  GLU811  SER814 

> <Gold.Protein.RotatedAtoms>
  150.7265  134.0349  159.3745 H   0  0  0  0  0  0  0  0  0  0  0  0  # atno 6907 bound_to 6896
  151.8320  135.0616  160.0447 H   0  0  0  0  0  0  0  0  0  0  0  0  # atno 6908 bound_to 6896
  152.2926  133.5540  159.5604 H   0  0  0  0  0  0  0  0  0  0  0  0  # atno 6909 bound_to 6896
  146.1538  140.4786  142.8600 H   0  0  0  0  0  0  0  0  0  0  0  0  # atno 7974 bound_to 7965
  155.2967  140.3382  155.4249 H   0  0  0  0  0  0  0  0  0  0  0  0  # atno 8008 bound_to 7997
  156.2021  140.1737  156.7918 H   0  0  0  0  0  0  0  0  0  0  0  0  # atno 8009 bound_to 7997
  154.5572  140.0694  156.8746 H   0  0  0  0  0  0  0  0  0  0  0  0  # atno 8010 bound_to 7997
  139.8033  144.6804  150.9736 H   0  0  0  0  0  0  0  0  0  0  0  0  # atno 10167 bound_to 10162
  156.6883  130.5057  149.5951 H   0  0  0  0  0  0  0  0  0  0  0  0  # atno 10718 bound_to 10713
  154.3357  135.6167  153.5572 H   0  0  0  0  0  0  0  0  0  0  0  0  # atno 10763 bound_to 10752
  152.9808  135.5757  154.4911 H   0  0  0  0  0  0  0  0  0  0  0  0  # atno 10764 bound_to 10752
  154.4606  135.2856  155.1693 H   0  0  0  0  0  0  0  0  0  0  0  0  # atno 10765 bound_to 10752
  140.4894  134.0855  155.7768 H   0  0  0  0  0  0  0  0  0  0  0  0  # atno 11005 bound_to 11000
  144.7938  140.6082  143.6524 LP  0  0  0  0  0  0  0  0  0  0  0  0  # atno 17320 bound_to 7965
  145.4758  139.1499  143.3789 LP  0  0  0  0  0  0  0  0  0  0  0  0  # atno 17321 bound_to 7965
  140.7820  143.4259  151.0769 LP  0  0  0  0  0  0  0  0  0  0  0  0  # atno 17342 bound_to 10162
  139.7930  143.8192  152.3154 LP  0  0  0  0  0  0  0  0  0  0  0  0  # atno 17343 bound_to 10162
  156.1816  130.6503  151.0958 LP  0  0  0  0  0  0  0  0  0  0  0  0  # atno 17370 bound_to 10713
  157.7018  131.0773  150.6795 LP  0  0  0  0  0  0  0  0  0  0  0  0  # atno 17371 bound_to 10713
  141.1492  133.9000  157.2141 LP  0  0  0  0  0  0  0  0  0  0  0  0  # atno 17394 bound_to 11000
  139.9778  135.0108  156.9675 LP  0  0  0  0  0  0  0  0  0  0  0  0  # atno 17395 bound_to 11000

$$$$
