AV-unprocessed.smi:2422|AV-procd|sdf|9557|dock6
  -GOLD-   2272013193D 1   1.00000     0.00000
 Structure written by MMmdl.
 46 47  0  0  0  0  0  0  0  0  1 V2000
  143.2676  134.7784  161.7367 C   0  0  0  0  0  0  0  0  0  0  0  0
  144.5897  134.3277  161.9729 O   0  0  0  0  0  0  0  0  0  0  0  0
  145.5308  134.9094  161.0828 C   0  0  0  0  0  0  0  0  0  0  0  0
  146.9596  134.8079  161.6685 C   0  0  0  0  0  0  0  0  0  0  0  0
  147.0583  135.6737  162.9385 C   0  0  0  0  0  0  0  0  0  0  0  0
  147.2764  133.3451  162.0470 C   0  0  0  0  0  0  0  0  0  0  0  0
  147.9573  135.3163  160.7178 N   0  0  0  0  0  0  0  0  0  0  0  0
  148.0954  136.5652  160.2408 C   0  0  0  0  0  0  0  0  0  0  0  0
  147.3551  137.5024  160.5390 O   0  0  0  0  0  0  0  0  0  0  0  0
  149.1446  136.6453  159.4043 N   0  0  0  0  0  0  0  0  0  0  0  0
  149.6259  137.7830  158.7057 C   0  0  0  0  0  0  0  0  0  0  0  0
  149.1870  138.1718  157.4691 N   0  0  0  0  0  0  0  0  0  0  0  0
  149.9420  139.2501  157.3069 C   0  0  0  0  0  0  0  0  0  0  0  0
  150.7566  139.5040  158.3352 N   0  0  0  0  0  0  0  0  0  0  0  0
  151.7284  140.5712  158.5190 C   0  0  0  0  0  0  0  0  0  0  0  0
  152.5144  140.3957  159.8344 C   0  0  0  0  0  0  0  0  0  0  0  0
  153.5516  141.5162  160.0168 C   0  0  0  0  0  0  0  0  0  0  0  0
  152.8926  142.9033  159.9474 C   0  0  0  0  0  0  0  0  0  0  0  0
  152.1068  143.0826  158.6385 C   0  0  0  0  0  0  0  0  0  0  0  0
  151.0673  141.9647  158.4568 C   0  0  0  0  0  0  0  0  0  0  0  0
  150.5683  138.5371  159.2676 N   0  0  0  0  0  0  0  0  0  0  0  0
  142.5873  134.3050  162.4445 H   0  0  0  0  0  0  0  0  0  0  0  0
  142.9376  134.5226  160.7291 H   0  0  0  0  0  0  0  0  0  0  0  0
  143.1902  135.8587  161.8672 H   0  0  0  0  0  0  0  0  0  0  0  0
  145.4875  134.3966  160.1205 H   0  0  0  0  0  0  0  0  0  0  0  0
  145.2621  135.9491  160.8914 H   0  0  0  0  0  0  0  0  0  0  0  0
  146.3308  135.3622  163.6887 H   0  0  0  0  0  0  0  0  0  0  0  0
  146.8750  136.7270  162.7225 H   0  0  0  0  0  0  0  0  0  0  0  0
  148.0474  135.6016  163.3927 H   0  0  0  0  0  0  0  0  0  0  0  0
  146.5953  132.9833  162.8179 H   0  0  0  0  0  0  0  0  0  0  0  0
  148.2913  133.2450  162.4333 H   0  0  0  0  0  0  0  0  0  0  0  0
  147.1803  132.6707  161.1961 H   0  0  0  0  0  0  0  0  0  0  0  0
  148.6315  134.6361  160.3993 H   0  0  0  0  0  0  0  0  0  0  0  0
  149.6664  135.7946  159.2552 H   0  0  0  0  0  0  0  0  0  0  0  0
  149.9004  139.8664  156.4208 H   0  0  0  0  0  0  0  0  0  0  0  0
  152.4372  140.4997  157.6922 H   0  0  0  0  0  0  0  0  0  0  0  0
  151.8289  140.3976  160.6830 H   0  0  0  0  0  0  0  0  0  0  0  0
  153.0154  139.4271  159.8438 H   0  0  0  0  0  0  0  0  0  0  0  0
  154.0656  141.3960  160.9708 H   0  0  0  0  0  0  0  0  0  0  0  0
  154.3154  141.4362  159.2423 H   0  0  0  0  0  0  0  0  0  0  0  0
  152.2203  143.0312  160.7970 H   0  0  0  0  0  0  0  0  0  0  0  0
  153.6521  143.6808  160.0345 H   0  0  0  0  0  0  0  0  0  0  0  0
  151.6125  144.0546  158.6317 H   0  0  0  0  0  0  0  0  0  0  0  0
  152.7969  143.0812  157.7937 H   0  0  0  0  0  0  0  0  0  0  0  0
  150.5518  142.0924  157.5042 H   0  0  0  0  0  0  0  0  0  0  0  0
  150.3068  142.0557  159.2339 H   0  0  0  0  0  0  0  0  0  0  0  0
  1  2  1  0  0  0  0
  1 22  1  0  0  0  0
  1 23  1  0  0  0  0
  1 24  1  0  0  0  0
  2  3  1  0  0  0  0
  3  4  1  0  0  0  0
  3 25  1  0  0  0  0
  3 26  1  0  0  0  0
  4  5  1  0  0  0  0
  4  6  1  0  0  0  0
  4  7  1  0  0  0  0
  5 27  1  0  0  0  0
  5 28  1  0  0  0  0
  5 29  1  0  0  0  0
  6 30  1  0  0  0  0
  6 31  1  0  0  0  0
  6 32  1  0  0  0  0
  7  8  1  0  0  0  0
  7 33  1  0  0  0  0
  8  9  2  0  0  0  0
  8 10  1  0  0  0  0
 10 11  1  0  0  0  0
 10 34  1  0  0  0  0
 11 21  2  0  0  0  0
 11 12  1  0  0  0  0
 12 13  2  0  0  0  0
 13 14  1  0  0  0  0
 13 35  1  0  0  0  0
 14 15  1  0  0  0  0
 14 21  1  0  0  0  0
 15 20  1  0  0  0  0
 15 16  1  0  0  0  0
 15 36  1  0  0  0  0
 16 17  1  0  0  0  0
 16 37  1  0  0  0  0
 16 38  1  0  0  0  0
 17 18  1  0  0  0  0
 17 39  1  0  0  0  0
 17 40  1  0  0  0  0
 18 19  1  0  0  0  0
 18 41  1  0  0  0  0
 18 42  1  0  0  0  0
 19 20  1  0  0  0  0
 19 43  1  0  0  0  0
 19 44  1  0  0  0  0
 20 45  1  0  0  0  0
 20 46  1  0  0  0  0
M  END
> <s_m_source_file>
AV-unprocessed.smi

> <i_m_source_file_index>
2422

> <i_lp_mmshare_version>
43012

> <i_f3d_flags>
0

> <s_epik_input>
W0NIM11PW0NIMl1DKFtDSDNdKShbQ0gzXSlbTkhdQyg9TylbTkhdYzFuW2NIXW4objEpW0NIXTJbQ0gyXVtDSDJdW0NIMl1bQ0gyXVtDSDJdMg==

> <s_epik_cmdline>
J2VwaWtfcHl0aG9uJywgJy1waCcsICc3LjAnLCAnLXRuJywgJzgnLCAnLW1hJywgJzIwMCcsICctbWV0YWxfYmluZGluZycsICctaW1hZScsICc8aW5maWxlLm1hZT4nLCAnLW9tYWUnLCAnPG91dGZpbGUubWFlPic=

> <r_lp_tautomer_probability>
1

> <r_epik_Ionization_Penalty>
0.000103736

> <r_epik_Ionization_Penalty_Charging>
0

> <r_epik_Ionization_Penalty_Neutral>
0.000103736

> <r_epik_State_Penalty>
-0

> <r_epik_Charging_Adjusted_Penalty>
0

> <i_epik_Tot_Q>
0

> <i_epik_Tot_abs_Q>
0

> <r_epik_Metal_State_Penalty>
-0

> <b_epik_Metal_Only>
0

> <s_lp_Force_Field>
OPLS_2005

> <r_lp_Energy>
18.085

> <b_lp_Chiralities_Consistent>
1

> <s_lp_Variant>
AV-unprocessed.smi:2422-1

> <Gold.Version>
5.8.1

> <Gold.Id.Protein>
6NUR|6NUR_protein|mol2

> <Gold.PLP.Fitness>
40.9808

> <Gold.PLP.PLP>
-38.0177

> <Gold.PLP.part.hbond>
-2.7515

> <Gold.PLP.part.metal>
0.0000

> <Gold.PLP.part.buried>
-4.8601

> <Gold.PLP.part.nonpolar>
-31.0123

> <Gold.PLP.part.repulsive>
0.3526

> <Gold.PLP.ligand.clash>
0.0000

> <Gold.PLP.ligand.torsion>
0.9181

> <Gold.PLP.Chemscore.Hbond>
1.5776

> <Gold.PLP.Chemscore.CHOScore>
0.0000

> <Gold.PLP.Chemscore.Metal>
0.0000

> <Gold.Chemscore.Hbonds>
donor molecule, donor type, donor heavy atom, donor atom, acceptor molecule, acceptor atom, score
      P1  H  6931  6943       L1     9  0.09
      P1  H  6934  6947       L1     9  1.00

> <Gold.PLP.Chemscore.Internal.Correction>
0.0665

> <Gold.Rescore>
     Score         DG    S(hbond)    S(metal)    S(lipo)     H(rot)  DE(clash)    DE(int)     intcor
     14.23     -15.26       0.96        0.00      93.42       1.70       0.13       0.90       ----

> <Gold.Chemscore.Fitness>
14.2328

> <Gold.Chemscore.DG>
-15.2631

> <Gold.Chemscore.ZeroCoef>
-5.4800

> <Gold.Chemscore.Hbond>
0.9562

> <Gold.Chemscore.Metal>
0.0000

> <Gold.Chemscore.Lipo>
93.4151

> <Gold.Chemscore.Internal_Hbond>
0.0000

> <Gold.Chemscore.DEClash>
0.1260

> <Gold.Chemscore.DEInternal>
0.9043

> <Gold.Chemscore.Rot>
1.6954

> <Gold.Chemscore.Internal.Correction>
   9.000000E+99

> <Gold.Chemscore.Hbonds>
donor molecule, donor type, donor heavy atom, donor atom, acceptor molecule, acceptor atom, score
      P1  H  6934  6947       L1     9  0.95

> <Gold.Chemscore.Hbond.Weighted>
-3.1937

> <Gold.Chemscore.Metal.Weighted>
-0.0000

> <Gold.Chemscore.Lipo.Weighted>
-10.9296

> <Gold.Chemscore.Internal_Hbond.Weighted>
0.0000

> <Gold.Chemscore.DEClash.Weighted>
0.1260

> <Gold.Chemscore.DEInternal.Weighted>
0.9043

> <Gold.Chemscore.Rot.Weighted>
4.3402

> <Gold.Chemscore.Internal.Correction.Weighted>
   9.000000E+99

> <Gold.Protein.RotatedTorsions>
[ 6907 6896 6895 6894 ] final   99.71 input  -60.11 | X-H torsion
[ 7974 7965 7964 7962 ] final    4.56 input  175.53 | X-H torsion
[ 8008 7997 7996 7995 ] final  119.91 input   59.86 | X-H torsion
[ 10167 10162 10161 10158 ] final   37.40 input  -65.29 | X-H torsion
[ 10718 10713 10712 10709 ] final  -13.91 input   66.30 | X-H torsion
[ 10763 10752 10751 10750 ] final  -25.02 input  -60.55 | X-H torsion
[ 11005 11000 10999 10996 ] final  -83.51 input  -57.11 | X-H torsion

> <Gold.Protein.ActiveResidues>
 VAL166  LYS551  ARG553  GLY616  TRP617  ASP618  TYR619  PRO620  LYS621  CYS622 
 ASP623  PHE694  ASN695  SER759  ASP760  ASP761  ALA762  ILE779  LEU786  VAL792 
 PHE793  MET794  SER795  GLU796  ALA797  LYS798  CYS799  TRP800  GLU811  SER814 

> <Gold.Protein.RotatedAtoms>
  152.5387  134.0387  159.8057 H   0  0  0  0  0  0  0  0  0  0  0  0  # atno 6907 bound_to 6896
  151.0546  133.5587  159.2646 H   0  0  0  0  0  0  0  0  0  0  0  0  # atno 6908 bound_to 6896
  151.2508  135.0629  159.9115 H   0  0  0  0  0  0  0  0  0  0  0  0  # atno 6909 bound_to 6896
  146.2443  140.0516  142.8374 H   0  0  0  0  0  0  0  0  0  0  0  0  # atno 7974 bound_to 7965
  156.2618  140.2842  156.1067 H   0  0  0  0  0  0  0  0  0  0  0  0  # atno 8008 bound_to 7997
  155.1302  140.0393  157.2790 H   0  0  0  0  0  0  0  0  0  0  0  0  # atno 8009 bound_to 7997
  154.6606  140.2565  155.7120 H   0  0  0  0  0  0  0  0  0  0  0  0  # atno 8010 bound_to 7997
  140.4036  144.1690  150.6135 H   0  0  0  0  0  0  0  0  0  0  0  0  # atno 10167 bound_to 10162
  156.6235  130.4882  149.6155 H   0  0  0  0  0  0  0  0  0  0  0  0  # atno 10718 bound_to 10713
  153.6931  135.6960  153.5084 H   0  0  0  0  0  0  0  0  0  0  0  0  # atno 10763 bound_to 10752
  153.2398  135.4309  155.0685 H   0  0  0  0  0  0  0  0  0  0  0  0  # atno 10764 bound_to 10752
  154.8367  135.3505  154.6472 H   0  0  0  0  0  0  0  0  0  0  0  0  # atno 10765 bound_to 10752
  141.1657  133.7298  156.8731 H   0  0  0  0  0  0  0  0  0  0  0  0  # atno 11005 bound_to 11000
  145.0979  140.9327  143.4730 LP  0  0  0  0  0  0  0  0  0  0  0  0  # atno 17320 bound_to 7965
  145.0703  139.3037  143.5835 LP  0  0  0  0  0  0  0  0  0  0  0  0  # atno 17321 bound_to 7965
  140.4714  143.2412  151.9084 LP  0  0  0  0  0  0  0  0  0  0  0  0  # atno 17342 bound_to 10162
  139.4784  144.5366  151.8589 LP  0  0  0  0  0  0  0  0  0  0  0  0  # atno 17343 bound_to 10162
  156.2292  130.6784  151.1447 LP  0  0  0  0  0  0  0  0  0  0  0  0  # atno 17370 bound_to 10713
  157.7221  131.0675  150.6092 LP  0  0  0  0  0  0  0  0  0  0  0  0  # atno 17371 bound_to 10713
  140.1768  134.9061  157.2900 LP  0  0  0  0  0  0  0  0  0  0  0  0  # atno 17394 bound_to 11000
  140.2440  134.3762  155.7469 LP  0  0  0  0  0  0  0  0  0  0  0  0  # atno 17395 bound_to 11000

$$$$
