AV-unprocessed.smi:2021|AV-procd|sdf|8175|dock5
  -GOLD-   2272010423D 1   1.00000     0.00000
 Structure written by MMmdl.
 42 43  0  0  0  0  0  0  0  0  2 V2000
  151.3293  144.0802  157.6523 C   0  0  0  0  0  0  0  0  0  0  0  0
  150.8598  142.6625  158.0112 C   0  0  0  0  0  0  0  0  0  0  0  0
  151.8224  142.0188  159.0232 C   0  0  0  0  0  0  0  0  0  0  0  0
  150.7067  141.8023  156.7379 C   0  0  0  0  0  0  0  0  0  0  0  0
  149.3456  141.8756  156.1469 N   0  3  1  0  0  0  0  0  0  0  0  0
  149.3258  141.6759  154.6767 C   0  0  0  0  0  0  0  0  0  0  0  0
  147.8923  141.8025  154.1374 C   0  0  0  0  0  0  0  0  0  0  0  0
  147.0513  140.8681  154.8011 O   0  0  0  0  0  0  0  0  0  0  0  0
  146.9781  141.1057  156.2024 C   0  0  1  0  0  0  0  0  0  0  0  0
  145.9564  140.1105  156.7863 C   0  0  0  0  0  0  0  0  0  0  0  0
  144.9266  139.7222  155.8271 N   0  0  0  0  0  0  0  0  0  0  0  0
  144.3304  138.5222  155.7839 C   0  0  0  0  0  0  0  0  0  0  0  0
  144.6165  137.5978  156.5449 O   0  0  0  0  0  0  0  0  0  0  0  0
  143.3995  138.4743  154.8149 N   0  0  0  0  0  0  0  0  0  0  0  0
  142.5578  137.3881  154.4560 C   0  0  0  0  0  0  0  0  0  0  0  0
  142.3772  136.3015  155.2229 N   0  0  0  0  0  0  0  0  0  0  0  0
  141.5069  135.3913  154.6369 N   0  0  0  0  0  0  0  0  0  0  0  0
  141.0666  135.8264  153.4528 C   0  0  0  0  0  0  0  0  0  0  0  0
  141.6730  137.3905  152.9370 S   0  0  0  0  0  0  0  0  0  0  0  0
  148.3905  140.9535  156.8072 C   0  0  0  0  0  0  0  0  0  0  0  0
  152.3062  144.0653  157.1679 H   0  0  0  0  0  0  0  0  0  0  0  0
  151.4087  144.7061  158.5418 H   0  0  0  0  0  0  0  0  0  0  0  0
  150.6285  144.5666  156.9728 H   0  0  0  0  0  0  0  0  0  0  0  0
  149.8879  142.7683  158.4925 H   0  0  0  0  0  0  0  0  0  0  0  0
  152.8208  141.8999  158.6002 H   0  0  0  0  0  0  0  0  0  0  0  0
  151.4747  141.0344  159.3368 H   0  0  0  0  0  0  0  0  0  0  0  0
  151.9141  142.6313  159.9208 H   0  0  0  0  0  0  0  0  0  0  0  0
  151.4397  142.0947  155.9843 H   0  0  0  0  0  0  0  0  0  0  0  0
  150.9365  140.7672  156.9960 H   0  0  0  0  0  0  0  0  0  0  0  0
  149.9608  142.4085  154.1800 H   0  0  0  0  0  0  0  0  0  0  0  0
  149.7260  140.6899  154.4352 H   0  0  0  0  0  0  0  0  0  0  0  0
  147.5115  142.8162  154.2717 H   0  0  0  0  0  0  0  0  0  0  0  0
  147.8733  141.5948  153.0673 H   0  0  0  0  0  0  0  0  0  0  0  0
  146.6187  142.1234  156.3652 H   0  0  0  0  0  0  0  0  0  0  0  0
  146.4680  139.2177  157.1495 H   0  0  0  0  0  0  0  0  0  0  0  0
  145.4620  140.5526  157.6516 H   0  0  0  0  0  0  0  0  0  0  0  0
  144.6308  140.4264  155.1668 H   0  0  0  0  0  0  0  0  0  0  0  0
  143.2703  139.3168  154.2745 H   0  0  0  0  0  0  0  0  0  0  0  0
  140.3802  135.2218  152.8786 H   0  0  0  0  0  0  0  0  0  0  0  0
  148.7405  139.9257  156.6978 H   0  0  0  0  0  0  0  0  0  0  0  0
  148.3611  141.1717  157.8755 H   0  0  0  0  0  0  0  0  0  0  0  0
  149.0035  142.8092  156.3255 H   0  0  0  0  0  0  0  0  0  0  0  0
  1  2  1  0  0  0  0
  1 21  1  0  0  0  0
  1 22  1  0  0  0  0
  1 23  1  0  0  0  0
  2  3  1  0  0  0  0
  2  4  1  0  0  0  0
  2 24  1  0  0  0  0
  3 25  1  0  0  0  0
  3 26  1  0  0  0  0
  3 27  1  0  0  0  0
  4  5  1  0  0  0  0
  4 28  1  0  0  0  0
  4 29  1  0  0  0  0
  5 20  1  0  0  0  0
  5  6  1  0  0  0  0
  5 42  1  0  0  0  0
  6  7  1  0  0  0  0
  6 30  1  0  0  0  0
  6 31  1  0  0  0  0
  7  8  1  0  0  0  0
  7 32  1  0  0  0  0
  7 33  1  0  0  0  0
  8  9  1  0  0  0  0
  9 10  1  0  0  0  0
  9 20  1  0  0  0  0
  9 34  1  0  0  0  0
 10 11  1  0  0  0  0
 10 35  1  0  0  0  0
 10 36  1  0  0  0  0
 11 12  1  0  0  0  0
 11 37  1  0  0  0  0
 12 13  2  0  0  0  0
 12 14  1  0  0  0  0
 14 15  1  0  0  0  0
 14 38  1  0  0  0  0
 15 19  1  0  0  0  0
 15 16  2  0  0  0  0
 16 17  1  0  0  0  0
 17 18  2  0  0  0  0
 18 19  1  0  0  0  0
 18 39  1  0  0  0  0
 20 40  1  0  0  0  0
 20 41  1  0  0  0  0
M  CHG  1   5   1
M  END
> <s_m_source_file>
AV-unprocessed.smi

> <i_m_source_file_index>
2021

> <i_lp_mmshare_version>
43012

> <i_f3d_flags>
0

> <s_epik_input>
W0NIM11bQ0hdKFtDSDNdKVtDSDJdTjFbQ0gyXVtDSDJdT1tDQEhdKFtDSDJdMSlbQ0gyXVtOSF1DKD1PKVtOSF1jMm5uW2NIXXMy

> <s_epik_cmdline>
J2VwaWtfcHl0aG9uJywgJy1waCcsICc3LjAnLCAnLXRuJywgJzgnLCAnLW1hJywgJzIwMCcsICctbWV0YWxfYmluZGluZycsICctaW1hZScsICc8aW5maWxlLm1hZT4nLCAnLW9tYWUnLCAnPG91dGZpbGUubWFlPic=

> <r_lp_tautomer_probability>
1

> <r_epik_Ionization_Penalty>
0.102019

> <r_epik_Ionization_Penalty_Charging>
0.098413

> <r_epik_Ionization_Penalty_Neutral>
0.00360555

> <r_epik_State_Penalty>
0.0884988

> <r_epik_Charging_Adjusted_Penalty>
0.186912

> <i_epik_Tot_Q>
1

> <i_epik_Tot_abs_Q>
1

> <r_epik_Metal_State_Penalty>
0.454709

> <b_epik_Metal_Only>
0

> <s_lp_Force_Field>
OPLS_2005

> <r_lp_Energy>
17.0767

> <b_lp_Chiralities_Consistent>
1

> <s_lp_Variant>
AV-unprocessed.smi:2021-1

> <Gold.Version>
5.8.1

> <Gold.Id.Protein>
6NUR|6NUR_protein|mol2

> <Gold.PLP.Fitness>
39.2955

> <Gold.PLP.PLP>
-28.2131

> <Gold.PLP.part.hbond>
-3.0000

> <Gold.PLP.part.metal>
0.0000

> <Gold.PLP.part.buried>
-4.2058

> <Gold.PLP.part.nonpolar>
-21.6388

> <Gold.PLP.part.repulsive>
0.2196

> <Gold.PLP.ligand.clash>
0.0000

> <Gold.PLP.ligand.torsion>
1.3424

> <Gold.PLP.Chemscore.Hbond>
3.5764

> <Gold.PLP.Chemscore.CHOScore>
0.9993

> <Gold.PLP.Chemscore.Metal>
0.0000

> <Gold.Chemscore.Hbonds>
donor molecule, donor type, donor heavy atom, donor atom, acceptor molecule, acceptor atom, score
      L1  H     5    42       P1  8028  1.86
      L1  H    14    38       P1 10175  0.73
      P1  H 11000 11005       L1    17  0.22
      L1  C    18    39       P1 10187  0.56

> <Gold.PLP.Chemscore.Internal.Correction>
0.0398

> <Gold.Rescore>
     Score         DG    S(hbond)    S(metal)    S(lipo)     H(rot)  DE(clash)    DE(int)     intcor
     15.23     -17.78       2.59        0.00      72.37       1.88       0.06       2.49       ----

> <Gold.Chemscore.Fitness>
15.2310

> <Gold.Chemscore.DG>
-17.7791

> <Gold.Chemscore.ZeroCoef>
-5.4800

> <Gold.Chemscore.Hbond>
2.5892

> <Gold.Chemscore.Metal>
0.0000

> <Gold.Chemscore.Lipo>
72.3677

> <Gold.Chemscore.Internal_Hbond>
0.0000

> <Gold.Chemscore.DEClash>
0.0588

> <Gold.Chemscore.DEInternal>
2.4893

> <Gold.Chemscore.Rot>
1.8812

> <Gold.Chemscore.Internal.Correction>
   9.000000E+99

> <Gold.Chemscore.Hbonds>
donor molecule, donor type, donor heavy atom, donor atom, acceptor molecule, acceptor atom, score
      L1  H     5    42       P1  8028  0.85
      L1  H    14    38       P1 10175  0.69
      P1  H 11000 11005       L1    17  0.17

> <Gold.Chemscore.Hbond.Weighted>
-8.6480

> <Gold.Chemscore.Metal.Weighted>
-0.0000

> <Gold.Chemscore.Lipo.Weighted>
-8.4670

> <Gold.Chemscore.Internal_Hbond.Weighted>
0.0000

> <Gold.Chemscore.DEClash.Weighted>
0.0588

> <Gold.Chemscore.DEInternal.Weighted>
2.4893

> <Gold.Chemscore.Rot.Weighted>
4.8159

> <Gold.Chemscore.Internal.Correction.Weighted>
   9.000000E+99

> <Gold.Protein.RotatedTorsions>
[ 6907 6896 6895 6894 ] final  -37.70 input  -60.11 | X-H torsion
[ 7974 7965 7964 7962 ] final  -35.18 input  175.53 | X-H torsion
[ 8008 7997 7996 7995 ] final -167.74 input   59.86 | X-H torsion
[ 10167 10162 10161 10158 ] final   72.22 input  -65.29 | X-H torsion
[ 10718 10713 10712 10709 ] final -101.15 input   66.30 | X-H torsion
[ 10763 10752 10751 10750 ] final   66.82 input  -60.55 | X-H torsion
[ 11005 11000 10999 10996 ] final   67.04 input  -57.11 | X-H torsion

> <Gold.Protein.ActiveResidues>
 VAL166  LYS551  ARG553  GLY616  TRP617  ASP618  TYR619  PRO620  LYS621  CYS622 
 ASP623  PHE694  ASN695  SER759  ASP760  ASP761  ALA762  ILE779  LEU786  VAL792 
 PHE793  MET794  SER795  GLU796  ALA797  LYS798  CYS799  TRP800  GLU811  SER814 

> <Gold.Protein.RotatedAtoms>
  151.0115  134.9400  159.8009 H   0  0  0  0  0  0  0  0  0  0  0  0  # atno 6907 bound_to 6896
  152.5303  134.3022  159.9092 H   0  0  0  0  0  0  0  0  0  0  0  0  # atno 6908 bound_to 6896
  151.3028  133.4073  159.2675 H   0  0  0  0  0  0  0  0  0  0  0  0  # atno 6909 bound_to 6896
  146.0767  140.6129  142.8927 H   0  0  0  0  0  0  0  0  0  0  0  0  # atno 7974 bound_to 7965
  155.8818  140.1010  157.1480 H   0  0  0  0  0  0  0  0  0  0  0  0  # atno 8008 bound_to 7997
  154.4006  140.1327  156.4269 H   0  0  0  0  0  0  0  0  0  0  0  0  # atno 8009 bound_to 7997
  155.7634  140.3462  155.5212 H   0  0  0  0  0  0  0  0  0  0  0  0  # atno 8010 bound_to 7997
  140.0376  144.5415  150.7459 H   0  0  0  0  0  0  0  0  0  0  0  0  # atno 10167 bound_to 10162
  156.0185  130.5360  150.6921 H   0  0  0  0  0  0  0  0  0  0  0  0  # atno 10718 bound_to 10713
  153.0157  135.5306  154.6883 H   0  0  0  0  0  0  0  0  0  0  0  0  # atno 10763 bound_to 10752
  154.6025  135.2869  155.0522 H   0  0  0  0  0  0  0  0  0  0  0  0  # atno 10764 bound_to 10752
  154.1574  135.6553  153.5030 H   0  0  0  0  0  0  0  0  0  0  0  0  # atno 10765 bound_to 10752
  139.9795  134.6767  156.0289 H   0  0  0  0  0  0  0  0  0  0  0  0  # atno 11005 bound_to 11000
  144.7266  140.4545  143.6968 LP  0  0  0  0  0  0  0  0  0  0  0  0  # atno 17320 bound_to 7965
  145.6292  139.1534  143.2978 LP  0  0  0  0  0  0  0  0  0  0  0  0  # atno 17321 bound_to 7965
  140.7274  143.2651  151.4071 LP  0  0  0  0  0  0  0  0  0  0  0  0  # atno 17342 bound_to 10162
  139.6035  144.1246  152.2223 LP  0  0  0  0  0  0  0  0  0  0  0  0  # atno 17343 bound_to 10162
  157.4600  131.0882  151.0755 LP  0  0  0  0  0  0  0  0  0  0  0  0  # atno 17370 bound_to 10713
  157.1246  130.6076  149.5513 LP  0  0  0  0  0  0  0  0  0  0  0  0  # atno 17371 bound_to 10713
  141.1469  133.6554  156.3894 LP  0  0  0  0  0  0  0  0  0  0  0  0  # atno 17394 bound_to 11000
  140.5126  134.6381  157.5289 LP  0  0  0  0  0  0  0  0  0  0  0  0  # atno 17395 bound_to 11000

$$$$
