AV-unprocessed.smi:1899|AV-procd|sdf|7708|dock1
  -GOLD-   22720 9443D 1   1.00000     0.00000
 Structure written by MMmdl.
 33 34  0  0  0  0  0  0  0  0  1 V2000
  152.6986  140.1383  157.9038 O   0  0  0  0  0  0  0  0  0  0  0  0
  151.6942  140.8473  157.8360 C   0  0  0  0  0  0  0  0  0  0  0  0
  150.6462  140.5625  157.0482 N   0  0  0  0  0  0  0  0  0  0  0  0
  150.5229  139.3758  156.2072 C   0  0  0  0  0  0  0  0  0  0  0  0
  150.4116  139.7238  154.7101 C   0  0  0  0  0  0  0  0  0  0  0  0
  149.1067  140.2549  154.3637 N   0  0  0  0  0  0  0  0  0  0  0  0
  148.1080  139.6184  153.6392 C   0  0  0  0  0  0  0  0  0  0  0  0
  147.0584  140.5053  153.5550 C   0  0  0  0  0  0  0  0  0  0  0  0
  147.3875  141.6864  154.2163 N   0  0  0  0  0  0  0  0  0  0  0  0
  148.6135  141.4627  154.6712 C   0  0  0  0  0  0  0  0  0  0  0  0
  151.5874  142.1214  158.6837 C   0  0  1  0  0  0  0  0  0  0  0  0
  152.7107  142.1753  159.7447 C   0  0  0  0  0  0  0  0  0  0  0  0
  152.8012  143.5332  160.4181 C   0  0  0  0  0  0  0  0  0  0  0  0
  152.2176  144.6413  159.9302 C   0  0  0  0  0  0  0  0  0  0  0  0
  151.4041  144.6619  158.6482 C   0  0  0  0  0  0  0  0  0  0  0  0
  151.6110  143.3890  157.8058 C   0  0  0  0  0  0  0  0  0  0  0  0
  149.8639  141.2013  157.0516 H   0  0  0  0  0  0  0  0  0  0  0  0
  151.3938  138.7426  156.3785 H   0  0  0  0  0  0  0  0  0  0  0  0
  149.6543  138.7948  156.5213 H   0  0  0  0  0  0  0  0  0  0  0  0
  151.1632  140.4685  154.4462 H   0  0  0  0  0  0  0  0  0  0  0  0
  150.6123  138.8493  154.0896 H   0  0  0  0  0  0  0  0  0  0  0  0
  148.2241  138.6163  153.2532 H   0  0  0  0  0  0  0  0  0  0  0  0
  146.0996  140.3853  153.0725 H   0  0  0  0  0  0  0  0  0  0  0  0
  149.1692  142.1972  155.2358 H   0  0  0  0  0  0  0  0  0  0  0  0
  150.6294  142.1030  159.2072 H   0  0  0  0  0  0  0  0  0  0  0  0
  152.5302  141.4197  160.5102 H   0  0  0  0  0  0  0  0  0  0  0  0
  153.6842  141.9538  159.3048 H   0  0  0  0  0  0  0  0  0  0  0  0
  153.3803  143.5882  161.3282 H   0  0  0  0  0  0  0  0  0  0  0  0
  152.3093  145.5760  160.4637 H   0  0  0  0  0  0  0  0  0  0  0  0
  150.3532  144.7691  158.9177 H   0  0  0  0  0  0  0  0  0  0  0  0
  151.6740  145.5418  158.0636 H   0  0  0  0  0  0  0  0  0  0  0  0
  152.5701  143.4568  157.2895 H   0  0  0  0  0  0  0  0  0  0  0  0
  150.8474  143.3363  157.0283 H   0  0  0  0  0  0  0  0  0  0  0  0
  1  2  2  0  0  0  0
  2  3  1  0  0  0  0
  2 11  1  0  0  0  0
  3  4  1  0  0  0  0
  3 17  1  0  0  0  0
  4  5  1  0  0  0  0
  4 18  1  0  0  0  0
  4 19  1  0  0  0  0
  5  6  1  0  0  0  0
  5 20  1  0  0  0  0
  5 21  1  0  0  0  0
  6 10  1  0  0  0  0
  6  7  1  0  0  0  0
  7  8  2  0  0  0  0
  7 22  1  0  0  0  0
  8  9  1  0  0  0  0
  8 23  1  0  0  0  0
  9 10  2  0  0  0  0
 10 24  1  0  0  0  0
 11 16  1  0  0  0  0
 11 12  1  0  0  0  0
 11 25  1  0  0  0  0
 12 13  1  0  0  0  0
 12 26  1  0  0  0  0
 12 27  1  0  0  0  0
 13 14  2  0  0  0  0
 13 28  1  0  0  0  0
 14 15  1  0  0  0  0
 14 29  1  0  0  0  0
 15 16  1  0  0  0  0
 15 30  1  0  0  0  0
 15 31  1  0  0  0  0
 16 32  1  0  0  0  0
 16 33  1  0  0  0  0
M  END
> <s_m_source_file>
AV-unprocessed.smi

> <i_m_source_file_index>
1899

> <i_lp_mmshare_version>
43012

> <i_f3d_flags>
0

> <s_epik_input>
W0NIMl0xW0NIMl1bQ0hdPVtDSF1bQ0gyXVtDQEhdMUMoPU8pW05IXVtDSDJdW0NIMl1uMltjSF1bY0hdbltjSF0y

> <s_epik_cmdline>
J2VwaWtfcHl0aG9uJywgJy1waCcsICc3LjAnLCAnLXRuJywgJzgnLCAnLW1hJywgJzIwMCcsICctbWV0YWxfYmluZGluZycsICctaW1hZScsICc8aW5maWxlLm1hZT4nLCAnLW9tYWUnLCAnPG91dGZpbGUubWFlPic=

> <r_lp_tautomer_probability>
1

> <r_epik_Ionization_Penalty>
0.598506

> <r_epik_Ionization_Penalty_Charging>
0.598506

> <r_epik_Ionization_Penalty_Neutral>
1.57027e-08

> <r_epik_State_Penalty>
0.612686

> <r_epik_Charging_Adjusted_Penalty>
1.21119

> <i_epik_Tot_Q>
0

> <i_epik_Tot_abs_Q>
0

> <r_epik_Metal_State_Penalty>
0.300712

> <b_epik_Metal_Only>
0

> <s_lp_Force_Field>
OPLS_2005

> <r_lp_Energy>
10.0214

> <b_lp_Chiralities_Consistent>
1

> <s_lp_Variant>
AV-unprocessed.smi:1899-4

> <Gold.Version>
5.8.1

> <Gold.Id.Protein>
6NUR|6NUR_protein|mol2

> <Gold.PLP.Fitness>
44.5079

> <Gold.PLP.PLP>
-35.5267

> <Gold.PLP.part.hbond>
-1.0000

> <Gold.PLP.part.metal>
0.0000

> <Gold.PLP.part.buried>
-0.8996

> <Gold.PLP.part.nonpolar>
-33.1975

> <Gold.PLP.part.repulsive>
0.1973

> <Gold.PLP.ligand.clash>
0.0000

> <Gold.PLP.ligand.torsion>
0.3667

> <Gold.PLP.Chemscore.Hbond>
0.9920

> <Gold.PLP.Chemscore.CHOScore>
2.2356

> <Gold.PLP.Chemscore.Metal>
0.0000

> <Gold.Chemscore.Hbonds>
donor molecule, donor type, donor heavy atom, donor atom, acceptor molecule, acceptor atom, score
      P1  H  7997  8008       L1     1  0.94
      L1  C     7    22       P1  7948  0.24
      L1  C     7    22       P1  7957  0.01
      L1  C     8    23       P1 10175  1.00
      L1  C    10    24       P1  8028  0.91

> <Gold.PLP.Chemscore.Internal.Correction>
0.0318

> <Gold.Rescore>
     Score         DG    S(hbond)    S(metal)    S(lipo)     H(rot)  DE(clash)    DE(int)     intcor
     14.19     -14.86       0.89        0.00      94.19       1.80       0.07       0.61       ----

> <Gold.Chemscore.Fitness>
14.1879

> <Gold.Chemscore.DG>
-14.8633

> <Gold.Chemscore.ZeroCoef>
-5.4800

> <Gold.Chemscore.Hbond>
0.8933

> <Gold.Chemscore.Metal>
0.0000

> <Gold.Chemscore.Lipo>
94.1886

> <Gold.Chemscore.Internal_Hbond>
0.0000

> <Gold.Chemscore.DEClash>
0.0700

> <Gold.Chemscore.DEInternal>
0.6055

> <Gold.Chemscore.Rot>
1.8048

> <Gold.Chemscore.Internal.Correction>
   9.000000E+99

> <Gold.Chemscore.Hbonds>
donor molecule, donor type, donor heavy atom, donor atom, acceptor molecule, acceptor atom, score
      P1  H  7997  8008       L1     1  0.87

> <Gold.Chemscore.Hbond.Weighted>
-2.9835

> <Gold.Chemscore.Metal.Weighted>
-0.0000

> <Gold.Chemscore.Lipo.Weighted>
-11.0201

> <Gold.Chemscore.Internal_Hbond.Weighted>
0.0000

> <Gold.Chemscore.DEClash.Weighted>
0.0700

> <Gold.Chemscore.DEInternal.Weighted>
0.6055

> <Gold.Chemscore.Rot.Weighted>
4.6203

> <Gold.Chemscore.Internal.Correction.Weighted>
   9.000000E+99

> <Gold.Protein.RotatedTorsions>
[ 6907 6896 6895 6894 ] final  -74.68 input  -60.11 | X-H torsion
[ 7974 7965 7964 7962 ] final   52.14 input  175.53 | X-H torsion
[ 8008 7997 7996 7995 ] final  -73.77 input   59.86 | X-H torsion
[ 10167 10162 10161 10158 ] final -110.39 input  -65.29 | X-H torsion
[ 10718 10713 10712 10709 ] final  155.41 input   66.30 | X-H torsion
[ 10763 10752 10751 10750 ] final  -93.90 input  -60.55 | X-H torsion
[ 11005 11000 10999 10996 ] final  -33.72 input  -57.11 | X-H torsion

> <Gold.Protein.ActiveResidues>
 VAL166  LYS551  ARG553  GLY616  TRP617  ASP618  TYR619  PRO620  LYS621  CYS622 
 ASP623  PHE694  ASN695  SER759  ASP760  ASP761  ALA762  ILE779  LEU786  VAL792 
 PHE793  MET794  SER795  GLU796  ALA797  LYS798  CYS799  TRP800  GLU811  SER814 

> <Gold.Protein.RotatedAtoms>
  150.7084  134.4833  159.5480 H   0  0  0  0  0  0  0  0  0  0  0  0  # atno 6907 bound_to 6896
  152.2466  134.8172  160.0461 H   0  0  0  0  0  0  0  0  0  0  0  0  # atno 6908 bound_to 6896
  151.8935  133.3486  159.3843 H   0  0  0  0  0  0  0  0  0  0  0  0  # atno 6909 bound_to 6896
  145.9844  139.4274  143.0112 H   0  0  0  0  0  0  0  0  0  0  0  0  # atno 7974 bound_to 7965
  154.5275  140.0773  156.8285 H   0  0  0  0  0  0  0  0  0  0  0  0  # atno 8008 bound_to 7997
  155.3445  140.3409  155.4221 H   0  0  0  0  0  0  0  0  0  0  0  0  # atno 8009 bound_to 7997
  156.1747  140.1631  156.8371 H   0  0  0  0  0  0  0  0  0  0  0  0  # atno 8010 bound_to 7997
  140.1450  143.4247  152.1535 H   0  0  0  0  0  0  0  0  0  0  0  0  # atno 10167 bound_to 10162
  157.2187  131.0714  151.1925 H   0  0  0  0  0  0  0  0  0  0  0  0  # atno 10718 bound_to 10713
  154.7004  135.5177  153.8518 H   0  0  0  0  0  0  0  0  0  0  0  0  # atno 10763 bound_to 10752
  153.0699  135.6597  154.0279 H   0  0  0  0  0  0  0  0  0  0  0  0  # atno 10764 bound_to 10752
  154.0139  135.2999  155.3368 H   0  0  0  0  0  0  0  0  0  0  0  0  # atno 10765 bound_to 10752
  140.9658  133.7138  156.1443 H   0  0  0  0  0  0  0  0  0  0  0  0  # atno 11005 bound_to 11000
  145.7723  140.9891  143.1143 LP  0  0  0  0  0  0  0  0  0  0  0  0  # atno 17320 bound_to 7965
  144.6870  139.9462  143.7476 LP  0  0  0  0  0  0  0  0  0  0  0  0  # atno 17321 bound_to 7965
  139.5453  144.7293  151.4602 LP  0  0  0  0  0  0  0  0  0  0  0  0  # atno 17342 bound_to 10162
  140.6737  143.8237  150.7031 LP  0  0  0  0  0  0  0  0  0  0  0  0  # atno 17343 bound_to 10162
  157.3598  130.7125  149.6494 LP  0  0  0  0  0  0  0  0  0  0  0  0  # atno 17370 bound_to 10713
  155.9684  130.4229  150.4537 LP  0  0  0  0  0  0  0  0  0  0  0  0  # atno 17371 bound_to 10713
  140.7401  134.4159  157.5556 LP  0  0  0  0  0  0  0  0  0  0  0  0  # atno 17394 bound_to 11000
  139.8894  134.8831  156.2423 LP  0  0  0  0  0  0  0  0  0  0  0  0  # atno 17395 bound_to 11000

$$$$
