AV-unprocessed.smi:2695|AV-procd|sdf|10409|dock9
  -GOLD-   2272014443D 1   1.00000     0.00000
 Structure written by MMmdl.
 42 43  0  0  0  0  0  0  0  0  1 V2000
  143.1642  135.2963  153.2340 C   0  0  0  0  0  0  0  0  0  0  0  0
  143.7916  134.3692  152.1996 C   0  0  0  0  0  0  0  0  0  0  0  0
  143.0272  133.6309  151.3742 C   0  0  0  0  0  0  0  0  0  0  0  0
  143.6493  132.7341  150.4316 C   0  0  0  0  0  0  0  0  0  0  0  0
  142.8933  132.0046  149.6019 O   0  0  0  0  0  0  0  0  0  0  0  0
  144.9905  132.6281  150.3992 C   0  0  0  0  0  0  0  0  0  0  0  0
  145.8506  133.4100  151.2907 C   0  0  0  0  0  0  0  0  0  0  0  0
  147.0765  133.2921  151.2626 O   0  0  0  0  0  0  0  0  0  0  0  0
  145.2134  134.2751  152.1444 N   0  0  0  0  0  0  0  0  0  0  0  0
  146.0426  135.1273  153.0281 C   0  0  0  0  0  0  0  0  0  0  0  0
  146.9502  134.3300  153.9772 C   0  0  0  0  0  0  0  0  0  0  0  0
  146.4788  133.6978  154.9234 O   0  0  0  0  0  0  0  0  0  0  0  0
  148.2642  134.3922  153.7129 N   0  0  0  0  0  0  0  0  0  0  0  0
  149.3284  133.7317  154.4717 C   0  0  2  0  0  0  0  0  0  0  0  0
  148.9355  132.2553  154.7419 C   0  0  0  0  0  0  0  0  0  0  0  0
  150.0808  131.3569  155.2282 C   0  0  0  0  0  0  0  0  0  0  0  0
  149.6626  129.9181  154.8967 C   0  0  0  0  0  0  0  0  0  0  0  0
  148.5124  130.0215  153.8867 C   0  0  0  0  0  0  0  0  0  0  0  0
  148.4185  131.5008  153.5098 C   0  0  0  0  0  0  0  0  0  0  0  0
  149.6041  134.5514  155.7530 C   0  0  0  0  0  0  0  0  0  0  0  0
  149.8354  135.8253  155.4329 F   0  0  0  0  0  0  0  0  0  0  0  0
  148.5567  134.5021  156.5771 F   0  0  0  0  0  0  0  0  0  0  0  0
  150.6794  134.0932  156.3926 F   0  0  0  0  0  0  0  0  0  0  0  0
  142.1006  135.0833  153.3445 H   0  0  0  0  0  0  0  0  0  0  0  0
  143.2610  136.3374  152.9254 H   0  0  0  0  0  0  0  0  0  0  0  0
  143.6125  135.1735  154.2198 H   0  0  0  0  0  0  0  0  0  0  0  0
  141.9497  133.6947  151.4238 H   0  0  0  0  0  0  0  0  0  0  0  0
  142.1684  132.5451  149.3273 H   0  0  0  0  0  0  0  0  0  0  0  0
  145.4540  131.9514  149.6956 H   0  0  0  0  0  0  0  0  0  0  0  0
  146.6724  135.7952  152.4371 H   0  0  0  0  0  0  0  0  0  0  0  0
  145.4341  135.8149  153.6138 H   0  0  0  0  0  0  0  0  0  0  0  0
  148.5564  134.9366  152.9142 H   0  0  0  0  0  0  0  0  0  0  0  0
  150.2483  133.7348  153.8842 H   0  0  0  0  0  0  0  0  0  0  0  0
  148.1478  132.2324  155.4966 H   0  0  0  0  0  0  0  0  0  0  0  0
  150.9970  131.5981  154.6875 H   0  0  0  0  0  0  0  0  0  0  0  0
  150.2837  131.4824  156.2921 H   0  0  0  0  0  0  0  0  0  0  0  0
  150.5034  129.3568  154.4883 H   0  0  0  0  0  0  0  0  0  0  0  0
  149.3282  129.3955  155.7937 H   0  0  0  0  0  0  0  0  0  0  0  0
  148.6690  129.3878  153.0132 H   0  0  0  0  0  0  0  0  0  0  0  0
  147.5824  129.7032  154.3597 H   0  0  0  0  0  0  0  0  0  0  0  0
  147.4040  131.7889  153.2319 H   0  0  0  0  0  0  0  0  0  0  0  0
  149.0650  131.7006  152.6537 H   0  0  0  0  0  0  0  0  0  0  0  0
  1  2  1  0  0  0  0
  1 24  1  0  0  0  0
  1 25  1  0  0  0  0
  1 26  1  0  0  0  0
  2  9  1  0  0  0  0
  2  3  2  0  0  0  0
  3  4  1  0  0  0  0
  3 27  1  0  0  0  0
  4  5  1  0  0  0  0
  4  6  2  0  0  0  0
  5 28  1  0  0  0  0
  6  7  1  0  0  0  0
  6 29  1  0  0  0  0
  7  8  2  0  0  0  0
  7  9  1  0  0  0  0
  9 10  1  0  0  0  0
 10 11  1  0  0  0  0
 10 30  1  0  0  0  0
 10 31  1  0  0  0  0
 11 12  2  0  0  0  0
 11 13  1  0  0  0  0
 13 14  1  0  0  0  0
 13 32  1  0  0  0  0
 14 15  1  0  0  0  0
 14 20  1  0  0  0  0
 14 33  1  0  0  0  0
 15 19  1  0  0  0  0
 15 16  1  0  0  0  0
 15 34  1  0  0  0  0
 16 17  1  0  0  0  0
 16 35  1  0  0  0  0
 16 36  1  0  0  0  0
 17 18  1  0  0  0  0
 17 37  1  0  0  0  0
 17 38  1  0  0  0  0
 18 19  1  0  0  0  0
 18 39  1  0  0  0  0
 18 40  1  0  0  0  0
 19 41  1  0  0  0  0
 19 42  1  0  0  0  0
 20 21  1  0  0  0  0
 20 22  1  0  0  0  0
 20 23  1  0  0  0  0
M  END
> <s_m_source_file>
AV-unprocessed.smi

> <i_m_source_file_index>
2695

> <i_lp_mmshare_version>
43012

> <i_f3d_flags>
0

> <s_epik_input>
W0NIM11jMVtjSF1jKFtPSF0pW2NIXWMoPU8pbjFbQ0gyXUMoPU8pW05IXVtDQEBIXShDKEYpKEYpRilbQ0hdMltDSDJdW0NIMl1bQ0gyXVtDSDJdMg==

> <s_epik_cmdline>
J2VwaWtfcHl0aG9uJywgJy1waCcsICc3LjAnLCAnLXRuJywgJzgnLCAnLW1hJywgJzIwMCcsICctbWV0YWxfYmluZGluZycsICctaW1hZScsICc8aW5maWxlLm1hZT4nLCAnLW9tYWUnLCAnPG91dGZpbGUubWFlPic=

> <r_lp_tautomer_probability>
0.999984

> <r_epik_Ionization_Penalty>
0.843628

> <r_epik_Ionization_Penalty_Charging>
1.18449e-07

> <r_epik_Ionization_Penalty_Neutral>
0.843628

> <r_epik_State_Penalty>
0.886913

> <r_epik_Charging_Adjusted_Penalty>
0.886913

> <i_epik_Tot_Q>
0

> <i_epik_Tot_abs_Q>
0

> <r_epik_Metal_State_Penalty>
0.886913

> <b_epik_Metal_Only>
0

> <s_lp_Force_Field>
OPLS_2005

> <r_lp_Energy>
35.2102

> <b_lp_Chiralities_Consistent>
1

> <s_lp_Variant>
AV-unprocessed.smi:2695-3

> <Gold.Version>
5.8.1

> <Gold.Id.Protein>
6NUR|6NUR_protein|mol2

> <Gold.PLP.Fitness>
44.9395

> <Gold.PLP.PLP>
-38.0137

> <Gold.PLP.part.hbond>
-3.8027

> <Gold.PLP.part.metal>
0.0000

> <Gold.PLP.part.buried>
-2.0094

> <Gold.PLP.part.nonpolar>
-31.7584

> <Gold.PLP.part.repulsive>
0.2890

> <Gold.PLP.ligand.clash>
0.0000

> <Gold.PLP.ligand.torsion>
0.5122

> <Gold.PLP.Chemscore.Hbond>
2.5275

> <Gold.PLP.Chemscore.CHOScore>
0.0000

> <Gold.PLP.Chemscore.Metal>
0.0000

> <Gold.Chemscore.Hbonds>
donor molecule, donor type, donor heavy atom, donor atom, acceptor molecule, acceptor atom, score
      L1  H     5    28       P1 10186  0.56
      L1  H    13    32       P1  7948  1.00
      P1  H 10785 10796       L1     5  0.89

> <Gold.PLP.Chemscore.Internal.Correction>
0.3678

> <Gold.Rescore>
     Score         DG    S(hbond)    S(metal)    S(lipo)     H(rot)  DE(clash)    DE(int)     intcor
     10.70     -15.75       2.36        0.00      72.09       2.36       0.54       4.51       ----

> <Gold.Chemscore.Fitness>
10.6986

> <Gold.Chemscore.DG>
-15.7535

> <Gold.Chemscore.ZeroCoef>
-5.4800

> <Gold.Chemscore.Hbond>
2.3592

> <Gold.Chemscore.Metal>
0.0000

> <Gold.Chemscore.Lipo>
72.0937

> <Gold.Chemscore.Internal_Hbond>
0.0000

> <Gold.Chemscore.DEClash>
0.5418

> <Gold.Chemscore.DEInternal>
4.5130

> <Gold.Chemscore.Rot>
2.3599

> <Gold.Chemscore.Internal.Correction>
   9.000000E+99

> <Gold.Chemscore.Hbonds>
donor molecule, donor type, donor heavy atom, donor atom, acceptor molecule, acceptor atom, score
      L1  H     5    28       P1 10186  0.53
      L1  H    13    32       P1  7948  0.50
      P1  H 10785 10796       L1     5  0.85

> <Gold.Chemscore.Hbond.Weighted>
-7.8798

> <Gold.Chemscore.Metal.Weighted>
-0.0000

> <Gold.Chemscore.Lipo.Weighted>
-8.4350

> <Gold.Chemscore.Internal_Hbond.Weighted>
0.0000

> <Gold.Chemscore.DEClash.Weighted>
0.5418

> <Gold.Chemscore.DEInternal.Weighted>
4.5130

> <Gold.Chemscore.Rot.Weighted>
6.0413

> <Gold.Chemscore.Internal.Correction.Weighted>
   9.000000E+99

> <Gold.Protein.RotatedTorsions>
[ 6907 6896 6895 6894 ] final  -96.82 input  -60.11 | X-H torsion
[ 7974 7965 7964 7962 ] final    2.15 input  175.53 | X-H torsion
[ 8008 7997 7996 7995 ] final  -92.56 input   59.86 | X-H torsion
[ 10167 10162 10161 10158 ] final  101.47 input  -65.29 | X-H torsion
[ 10718 10713 10712 10709 ] final  -69.97 input   66.30 | X-H torsion
[ 10763 10752 10751 10750 ] final    6.99 input  -60.55 | X-H torsion
[ 11005 11000 10999 10996 ] final   27.96 input  -57.11 | X-H torsion

> <Gold.Protein.ActiveResidues>
 VAL166  LYS551  ARG553  GLY616  TRP617  ASP618  TYR619  PRO620  LYS621  CYS622 
 ASP623  PHE694  ASN695  SER759  ASP760  ASP761  ALA762  ILE779  LEU786  VAL792 
 PHE793  MET794  SER795  GLU796  ALA797  LYS798  CYS799  TRP800  GLU811  SER814 

> <Gold.Protein.RotatedAtoms>
  150.6999  134.1443  159.4116 H   0  0  0  0  0  0  0  0  0  0  0  0  # atno 6907 bound_to 6896
  151.9427  135.0203  160.0546 H   0  0  0  0  0  0  0  0  0  0  0  0  # atno 6908 bound_to 6896
  152.2079  133.4854  159.5131 H   0  0  0  0  0  0  0  0  0  0  0  0  # atno 6909 bound_to 6896
  146.2443  140.0879  142.8353 H   0  0  0  0  0  0  0  0  0  0  0  0  # atno 7974 bound_to 7965
  154.7246  140.0508  157.0671 H   0  0  0  0  0  0  0  0  0  0  0  0  # atno 8008 bound_to 7997
  155.0382  140.3165  155.4715 H   0  0  0  0  0  0  0  0  0  0  0  0  # atno 8009 bound_to 7997
  156.2825  140.2137  156.5505 H   0  0  0  0  0  0  0  0  0  0  0  0  # atno 8010 bound_to 7997
  139.7435  144.7004  151.0539 H   0  0  0  0  0  0  0  0  0  0  0  0  # atno 10167 bound_to 10162
  156.0430  130.4322  150.2226 H   0  0  0  0  0  0  0  0  0  0  0  0  # atno 10718 bound_to 10713
  153.2414  135.6904  153.7779 H   0  0  0  0  0  0  0  0  0  0  0  0  # atno 10763 bound_to 10752
  153.6907  135.3313  155.3202 H   0  0  0  0  0  0  0  0  0  0  0  0  # atno 10764 bound_to 10752
  154.8357  135.4544  154.1337 H   0  0  0  0  0  0  0  0  0  0  0  0  # atno 10765 bound_to 10752
  140.3207  134.2547  155.7718 H   0  0  0  0  0  0  0  0  0  0  0  0  # atno 11005 bound_to 11000
  145.0676  140.9132  143.4901 LP  0  0  0  0  0  0  0  0  0  0  0  0  # atno 17320 bound_to 7965
  145.1006  139.2825  143.5688 LP  0  0  0  0  0  0  0  0  0  0  0  0  # atno 17321 bound_to 7965
  140.7789  143.4895  150.9912 LP  0  0  0  0  0  0  0  0  0  0  0  0  # atno 17342 bound_to 10162
  139.8583  143.7348  152.3175 LP  0  0  0  0  0  0  0  0  0  0  0  0  # atno 17343 bound_to 10162
  157.0319  131.0010  151.3309 LP  0  0  0  0  0  0  0  0  0  0  0  0  # atno 17370 bound_to 10713
  157.5271  130.8035  149.7875 LP  0  0  0  0  0  0  0  0  0  0  0  0  # atno 17371 bound_to 10713
  141.2087  133.7769  157.0041 LP  0  0  0  0  0  0  0  0  0  0  0  0  # atno 17394 bound_to 11000
  140.0945  134.9573  157.1827 LP  0  0  0  0  0  0  0  0  0  0  0  0  # atno 17395 bound_to 11000

$$$$
