AV-unprocessed.smi:528|AV-procd|sdf|2832|dock1
  -GOLD-   2262023323D 1   1.00000     0.00000
 Structure written by MMmdl.
 45 47  0  0  0  0  0  0  0  0  1 V2000
  146.1178  142.1861  154.5003 C   0  0  0  0  0  0  0  0  0  0  0  0
  146.7752  141.9258  155.8666 C   0  0  1  0  0  0  0  0  0  0  0  0
  148.2188  142.1299  155.7655 N   0  0  0  0  0  0  0  0  0  0  0  0
  149.1608  141.2379  156.1085 C   0  0  0  0  0  0  0  0  0  0  0  0
  148.9022  140.1104  156.5318 O   0  0  0  0  0  0  0  0  0  0  0  0
  150.6143  141.6955  155.9208 C   0  0  0  0  0  0  0  0  0  0  0  0
  151.3517  141.8356  157.1878 N   0  0  0  0  0  0  0  0  0  0  0  0
  151.1160  143.0019  157.9424 C   0  0  0  0  0  0  0  0  0  0  0  0
  151.7350  143.2562  159.1113 C   0  0  0  0  0  0  0  0  0  0  0  0
  151.4216  144.4994  159.9293 C   0  0  0  0  0  0  0  0  0  0  0  0
  151.7940  145.6048  159.2837 F   0  0  0  0  0  0  0  0  0  0  0  0
  150.1114  144.5734  160.1572 F   0  0  0  0  0  0  0  0  0  0  0  0
  152.0469  144.4718  161.1069 F   0  0  0  0  0  0  0  0  0  0  0  0
  152.6522  142.2406  159.5898 C   0  0  0  0  0  0  0  0  0  0  0  0
  152.8862  141.1179  158.8825 C   0  0  0  0  0  0  0  0  0  0  0  0
  152.2231  140.8669  157.6009 C   0  0  0  0  0  0  0  0  0  0  0  0
  152.4355  139.8492  156.9411 O   0  0  0  0  0  0  0  0  0  0  0  0
  146.2085  142.8411  156.9777 C   0  0  2  0  0  0  0  0  0  0  0  0
  146.7693  142.5674  158.3926 C   0  0  0  0  0  0  0  0  0  0  0  0
  145.4992  142.4820  159.2589 C   0  0  2  0  0  0  0  0  0  0  0  0
  144.7881  141.1460  158.9771 C   0  0  0  0  0  0  0  0  0  0  0  0
  144.1951  141.3693  157.5740 C   0  0  0  0  0  0  0  0  0  0  0  0
  144.6789  142.7908  157.2190 C   0  0  1  0  0  0  0  0  0  0  0  0
  144.5739  143.4820  158.5751 C   0  0  0  0  0  0  0  0  0  0  0  0
  145.0466  141.9870  154.5317 H   0  0  0  0  0  0  0  0  0  0  0  0
  146.5412  141.5425  153.7286 H   0  0  0  0  0  0  0  0  0  0  0  0
  146.2555  143.2204  154.1836 H   0  0  0  0  0  0  0  0  0  0  0  0
  146.6003  140.8858  156.1438 H   0  0  0  0  0  0  0  0  0  0  0  0
  148.5245  143.0280  155.4197 H   0  0  0  0  0  0  0  0  0  0  0  0
  151.1120  140.9811  155.2637 H   0  0  0  0  0  0  0  0  0  0  0  0
  150.6273  142.6409  155.3749 H   0  0  0  0  0  0  0  0  0  0  0  0
  150.3993  143.6826  157.5059 H   0  0  0  0  0  0  0  0  0  0  0  0
  153.1657  142.3846  160.5290 H   0  0  0  0  0  0  0  0  0  0  0  0
  153.5794  140.3846  159.2678 H   0  0  0  0  0  0  0  0  0  0  0  0
  146.4586  143.8707  156.7137 H   0  0  0  0  0  0  0  0  0  0  0  0
  147.3569  141.6501  158.4506 H   0  0  0  0  0  0  0  0  0  0  0  0
  147.4095  143.3895  158.7150 H   0  0  0  0  0  0  0  0  0  0  0  0
  145.6787  142.6661  160.3184 H   0  0  0  0  0  0  0  0  0  0  0  0
  145.4723  140.2973  159.0103 H   0  0  0  0  0  0  0  0  0  0  0  0
  143.9953  140.9652  159.7040 H   0  0  0  0  0  0  0  0  0  0  0  0
  144.5044  140.6109  156.8562 H   0  0  0  0  0  0  0  0  0  0  0  0
  143.1056  141.3416  157.6192 H   0  0  0  0  0  0  0  0  0  0  0  0
  144.0962  143.2645  156.4286 H   0  0  0  0  0  0  0  0  0  0  0  0
  143.5619  143.4851  158.9843 H   0  0  0  0  0  0  0  0  0  0  0  0
  144.9621  144.5021  158.5760 H   0  0  0  0  0  0  0  0  0  0  0  0
  1  2  1  0  0  0  0
  1 25  1  0  0  0  0
  1 26  1  0  0  0  0
  1 27  1  0  0  0  0
  2  3  1  0  0  0  0
  2 18  1  0  0  0  0
  2 28  1  0  0  0  0
  3  4  1  0  0  0  0
  3 29  1  0  0  0  0
  4  5  2  0  0  0  0
  4  6  1  0  0  0  0
  6  7  1  0  0  0  0
  6 30  1  0  0  0  0
  6 31  1  0  0  0  0
  7 16  1  0  0  0  0
  7  8  1  0  0  0  0
  8  9  2  0  0  0  0
  8 32  1  0  0  0  0
  9 10  1  0  0  0  0
  9 14  1  0  0  0  0
 10 11  1  0  0  0  0
 10 12  1  0  0  0  0
 10 13  1  0  0  0  0
 14 15  2  0  0  0  0
 14 33  1  0  0  0  0
 15 16  1  0  0  0  0
 15 34  1  0  0  0  0
 16 17  2  0  0  0  0
 18 23  1  0  0  0  0
 18 19  1  0  0  0  0
 18 35  1  0  0  0  0
 19 20  1  0  0  0  0
 19 36  1  0  0  0  0
 19 37  1  0  0  0  0
 20 24  1  0  0  0  0
 20 21  1  0  0  0  0
 20 38  1  0  0  0  0
 21 22  1  0  0  0  0
 21 39  1  0  0  0  0
 21 40  1  0  0  0  0
 22 23  1  0  0  0  0
 22 41  1  0  0  0  0
 22 42  1  0  0  0  0
 23 24  1  0  0  0  0
 23 43  1  0  0  0  0
 24 44  1  0  0  0  0
 24 45  1  0  0  0  0
M  END
> <s_m_source_file>
AV-unprocessed.smi

> <i_m_source_file_index>
528

> <i_lp_mmshare_version>
43012

> <i_f3d_flags>
0

> <s_epik_input>
W0NIMl0xW0NIMl1bQ0BASF0oW0NIMl0yKVtDQEBIXShbQ0gyXVtDQEhdMTIpW0NASF0oW0NIM10pW05IXUMoPU8pW0NIMl1uM1tjSF1jKEMoRikoRilGKVtjSF1bY0hdYzM9Tw==

> <s_epik_cmdline>
J2VwaWtfcHl0aG9uJywgJy1waCcsICc3LjAnLCAnLXRuJywgJzgnLCAnLW1hJywgJzIwMCcsICctbWV0YWxfYmluZGluZycsICctaW1hZScsICc8aW5maWxlLm1hZT4nLCAnLW9tYWUnLCAnPG91dGZpbGUubWFlPic=

> <r_lp_tautomer_probability>
1

> <r_epik_Ionization_Penalty>
4.09479e-08

> <r_epik_Ionization_Penalty_Charging>
1.9321e-08

> <r_epik_Ionization_Penalty_Neutral>
2.16269e-08

> <r_epik_State_Penalty>
-0

> <r_epik_Charging_Adjusted_Penalty>
1.9321e-08

> <i_epik_Tot_Q>
0

> <i_epik_Tot_abs_Q>
0

> <r_epik_Metal_State_Penalty>
-0

> <b_epik_Metal_Only>
0

> <s_lp_Force_Field>
OPLS_2005

> <r_lp_Energy>
63.1325

> <b_lp_Chiralities_Consistent>
1

> <s_lp_Variant>
AV-unprocessed.smi:528-2

> <Gold.Version>
5.8.1

> <Gold.Id.Protein>
6NUR|6NUR_protein|mol2

> <Gold.PLP.Fitness>
50.0943

> <Gold.PLP.PLP>
-42.0876

> <Gold.PLP.part.hbond>
-2.0000

> <Gold.PLP.part.metal>
0.0000

> <Gold.PLP.part.buried>
-6.1702

> <Gold.PLP.part.nonpolar>
-33.4110

> <Gold.PLP.part.repulsive>
0.0945

> <Gold.PLP.ligand.clash>
0.0000

> <Gold.PLP.ligand.torsion>
0.4301

> <Gold.PLP.Chemscore.Hbond>
1.9760

> <Gold.PLP.Chemscore.CHOScore>
0.9345

> <Gold.PLP.Chemscore.Metal>
0.0000

> <Gold.Chemscore.Hbonds>
donor molecule, donor type, donor heavy atom, donor atom, acceptor molecule, acceptor atom, score
      L1  H     3    29       P1  8028  1.00
      P1  H  7997  8009       L1    17  1.00
      L1  C     8    32       P1  8028  0.86

> <Gold.PLP.Chemscore.Internal.Correction>
0.1356

> <Gold.Rescore>
     Score         DG    S(hbond)    S(metal)    S(lipo)     H(rot)  DE(clash)    DE(int)     intcor
     15.47     -15.88       1.76        0.00      75.96       1.71       0.09       0.32       ----

> <Gold.Chemscore.Fitness>
15.4708

> <Gold.Chemscore.DG>
-15.8783

> <Gold.Chemscore.ZeroCoef>
-5.4800

> <Gold.Chemscore.Hbond>
1.7649

> <Gold.Chemscore.Metal>
0.0000

> <Gold.Chemscore.Lipo>
75.9612

> <Gold.Chemscore.Internal_Hbond>
0.0000

> <Gold.Chemscore.DEClash>
0.0901

> <Gold.Chemscore.DEInternal>
0.3174

> <Gold.Chemscore.Rot>
1.7125

> <Gold.Chemscore.Internal.Correction>
   9.000000E+99

> <Gold.Chemscore.Hbonds>
donor molecule, donor type, donor heavy atom, donor atom, acceptor molecule, acceptor atom, score
      L1  H     3    29       P1  8028  0.96
      P1  H  7997  8009       L1    17  0.25

> <Gold.Chemscore.Hbond.Weighted>
-5.8948

> <Gold.Chemscore.Metal.Weighted>
-0.0000

> <Gold.Chemscore.Lipo.Weighted>
-8.8875

> <Gold.Chemscore.Internal_Hbond.Weighted>
0.0000

> <Gold.Chemscore.DEClash.Weighted>
0.0901

> <Gold.Chemscore.DEInternal.Weighted>
0.3174

> <Gold.Chemscore.Rot.Weighted>
4.3840

> <Gold.Chemscore.Internal.Correction.Weighted>
   9.000000E+99

> <Gold.Protein.RotatedTorsions>
[ 6907 6896 6895 6894 ] final  151.16 input  -60.11 | X-H torsion
[ 7974 7965 7964 7962 ] final   96.38 input  175.53 | X-H torsion
[ 8008 7997 7996 7995 ] final -169.62 input   59.86 | X-H torsion
[ 10167 10162 10161 10158 ] final   30.50 input  -65.29 | X-H torsion
[ 10718 10713 10712 10709 ] final   59.43 input   66.30 | X-H torsion
[ 10763 10752 10751 10750 ] final  130.94 input  -60.55 | X-H torsion
[ 11005 11000 10999 10996 ] final   31.33 input  -57.11 | X-H torsion

> <Gold.Protein.ActiveResidues>
 VAL166  LYS551  ARG553  GLY616  TRP617  ASP618  TYR619  PRO620  LYS621  CYS622 
 ASP623  PHE694  ASN695  SER759  ASP760  ASP761  ALA762  ILE779  LEU786  VAL792 
 PHE793  MET794  SER795  GLU796  ALA797  LYS798  CYS799  TRP800  GLU811  SER814 

> <Gold.Protein.RotatedAtoms>
  152.1045  133.4267  159.4602 H   0  0  0  0  0  0  0  0  0  0  0  0  # atno 6907 bound_to 6896
  150.6865  134.2721  159.4601 H   0  0  0  0  0  0  0  0  0  0  0  0  # atno 6908 bound_to 6896
  152.0584  134.9609  160.0625 H   0  0  0  0  0  0  0  0  0  0  0  0  # atno 6909 bound_to 6896
  145.4396  139.2302  143.3099 H   0  0  0  0  0  0  0  0  0  0  0  0  # atno 7974 bound_to 7965
  155.9074  140.1051  157.1305 H   0  0  0  0  0  0  0  0  0  0  0  0  # atno 8008 bound_to 7997
  154.4034  140.1281  156.4577 H   0  0  0  0  0  0  0  0  0  0  0  0  # atno 8009 bound_to 7997
  155.7351  140.3468  155.5080 H   0  0  0  0  0  0  0  0  0  0  0  0  # atno 8010 bound_to 7997
  140.4672  144.0817  150.6227 H   0  0  0  0  0  0  0  0  0  0  0  0  # atno 10167 bound_to 10162
  157.5675  130.8882  149.9211 H   0  0  0  0  0  0  0  0  0  0  0  0  # atno 10718 bound_to 10713
  153.7662  135.3188  155.3345 H   0  0  0  0  0  0  0  0  0  0  0  0  # atno 10763 bound_to 10752
  154.8212  135.4601  154.0789 H   0  0  0  0  0  0  0  0  0  0  0  0  # atno 10764 bound_to 10752
  153.2035  135.6926  153.8286 H   0  0  0  0  0  0  0  0  0  0  0  0  # atno 10765 bound_to 10752
  140.2850  134.2929  155.7790 H   0  0  0  0  0  0  0  0  0  0  0  0  # atno 11005 bound_to 11000
  146.2563  140.5142  142.8872 LP  0  0  0  0  0  0  0  0  0  0  0  0  # atno 17320 bound_to 7965
  144.8130  140.6419  143.6403 LP  0  0  0  0  0  0  0  0  0  0  0  0  # atno 17321 bound_to 7965
  140.4021  143.2698  151.9935 LP  0  0  0  0  0  0  0  0  0  0  0  0  # atno 17342 bound_to 10162
  139.4813  144.5988  151.7642 LP  0  0  0  0  0  0  0  0  0  0  0  0  # atno 17343 bound_to 10162
  156.0722  130.3683  150.0752 LP  0  0  0  0  0  0  0  0  0  0  0  0  # atno 17370 bound_to 10713
  156.8908  130.9588  151.3588 LP  0  0  0  0  0  0  0  0  0  0  0  0  # atno 17371 bound_to 10713
  141.2156  133.7549  156.9539 LP  0  0  0  0  0  0  0  0  0  0  0  0  # atno 17394 bound_to 11000
  140.1248  134.9394  157.2254 LP  0  0  0  0  0  0  0  0  0  0  0  0  # atno 17395 bound_to 11000

$$$$
