AV-unprocessed.smi:322|AV-procd|sdf|2338|dock1
  -GOLD-   2262022243D 1   1.00000     0.00000
 Structure written by MMmdl.
 44 46  0  0  0  0  0  0  0  0  2 V2000
  147.3147  138.1064  151.6921 O   0  0  0  0  0  0  0  0  0  0  0  0
  146.0237  137.7432  152.1345 C   0  0  0  0  0  0  0  0  0  0  0  0
  145.6674  136.3261  151.8151 C   0  0  0  0  0  0  0  0  0  0  0  0
  146.5144  135.3642  151.3485 N   0  3  0  0  0  0  0  0  0  0  0  0
  145.8225  134.1650  151.1776 C   0  0  0  0  0  0  0  0  0  0  0  0
  146.2540  132.9203  150.7298 C   0  0  0  0  0  0  0  0  0  0  0  0
  145.2843  131.8979  150.6714 C   0  0  0  0  0  0  0  0  0  0  0  0
  143.9462  132.1329  151.0490 C   0  0  0  0  0  0  0  0  0  0  0  0
  143.5210  133.3991  151.5023 C   0  0  0  0  0  0  0  0  0  0  0  0
  144.4863  134.4048  151.5584 C   0  0  0  0  0  0  0  0  0  0  0  0
  144.4378  135.7502  151.9442 N   0  0  0  0  0  0  0  0  0  0  0  0
  143.1674  136.3280  152.4112 C   0  0  0  0  0  0  0  0  0  0  0  0
  142.5239  135.5179  153.5556 C   0  0  1  0  0  0  0  0  0  0  0  0
  143.2220  135.6765  154.7740 O   0  0  0  0  0  0  0  0  0  0  0  0
  141.0391  135.8472  153.7756 C   0  0  0  0  0  0  0  0  0  0  0  0
  140.8702  137.2505  153.9279 O   0  0  0  0  0  0  0  0  0  0  0  0
  139.6618  137.7477  153.3712 C   0  0  0  0  0  0  0  0  0  0  0  0
  139.4256  139.2160  153.6800 C   0  0  0  0  0  0  0  0  0  0  0  0
  138.1805  139.8098  153.3831 C   0  0  0  0  0  0  0  0  0  0  0  0
  137.9611  141.1724  153.6635 C   0  0  0  0  0  0  0  0  0  0  0  0
  138.9884  141.9481  154.2355 C   0  0  0  0  0  0  0  0  0  0  0  0
  138.7201  143.6169  154.5815 Cl  0  0  0  0  0  0  0  0  0  0  0  0
  140.2358  141.3608  154.5238 C   0  0  0  0  0  0  0  0  0  0  0  0
  140.4552  139.9979  154.2440 C   0  0  0  0  0  0  0  0  0  0  0  0
  147.9528  137.6381  152.2090 H   0  0  0  0  0  0  0  0  0  0  0  0
  145.9635  137.8902  153.2129 H   0  0  0  0  0  0  0  0  0  0  0  0
  145.2951  138.4109  151.6746 H   0  0  0  0  0  0  0  0  0  0  0  0
  147.2785  132.7386  150.4392 H   0  0  0  0  0  0  0  0  0  0  0  0
  145.5723  130.9143  150.3293 H   0  0  0  0  0  0  0  0  0  0  0  0
  143.2303  131.3258  150.9895 H   0  0  0  0  0  0  0  0  0  0  0  0
  142.4920  133.5680  151.7842 H   0  0  0  0  0  0  0  0  0  0  0  0
  143.3350  137.3658  152.6994 H   0  0  0  0  0  0  0  0  0  0  0  0
  142.4907  136.3605  151.5563 H   0  0  0  0  0  0  0  0  0  0  0  0
  142.5930  134.4578  153.3094 H   0  0  0  0  0  0  0  0  0  0  0  0
  142.8061  136.3648  155.2697 H   0  0  0  0  0  0  0  0  0  0  0  0
  140.4745  135.5027  152.9083 H   0  0  0  0  0  0  0  0  0  0  0  0
  140.6462  135.3148  154.6433 H   0  0  0  0  0  0  0  0  0  0  0  0
  139.6361  137.5661  152.2954 H   0  0  0  0  0  0  0  0  0  0  0  0
  138.8363  137.1803  153.8010 H   0  0  0  0  0  0  0  0  0  0  0  0
  137.3893  139.2202  152.9432 H   0  0  0  0  0  0  0  0  0  0  0  0
  137.0045  141.6210  153.4389 H   0  0  0  0  0  0  0  0  0  0  0  0
  141.0258  141.9545  154.9593 H   0  0  0  0  0  0  0  0  0  0  0  0
  141.4150  139.5556  154.4672 H   0  0  0  0  0  0  0  0  0  0  0  0
  147.4958  135.5251  151.1617 H   0  0  0  0  0  0  0  0  0  0  0  0
  1  2  1  0  0  0  0
  1 25  1  0  0  0  0
  2  3  1  0  0  0  0
  2 26  1  0  0  0  0
  2 27  1  0  0  0  0
  3 11  1  0  0  0  0
  3  4  2  0  0  0  0
  4  5  1  0  0  0  0
  4 44  1  0  0  0  0
  5 10  2  0  0  0  0
  5  6  1  0  0  0  0
  6  7  2  0  0  0  0
  6 28  1  0  0  0  0
  7  8  1  0  0  0  0
  7 29  1  0  0  0  0
  8  9  2  0  0  0  0
  8 30  1  0  0  0  0
  9 10  1  0  0  0  0
  9 31  1  0  0  0  0
 10 11  1  0  0  0  0
 11 12  1  0  0  0  0
 12 13  1  0  0  0  0
 12 32  1  0  0  0  0
 12 33  1  0  0  0  0
 13 14  1  0  0  0  0
 13 15  1  0  0  0  0
 13 34  1  0  0  0  0
 14 35  1  0  0  0  0
 15 16  1  0  0  0  0
 15 36  1  0  0  0  0
 15 37  1  0  0  0  0
 16 17  1  0  0  0  0
 17 18  1  0  0  0  0
 17 38  1  0  0  0  0
 17 39  1  0  0  0  0
 18 24  1  0  0  0  0
 18 19  2  0  0  0  0
 19 20  1  0  0  0  0
 19 40  1  0  0  0  0
 20 21  2  0  0  0  0
 20 41  1  0  0  0  0
 21 22  1  0  0  0  0
 21 23  1  0  0  0  0
 23 24  2  0  0  0  0
 23 42  1  0  0  0  0
 24 43  1  0  0  0  0
M  CHG  1   4   1
M  END
> <s_m_source_file>
AV-unprocessed.smi

> <i_m_source_file_index>
322

> <i_lp_mmshare_version>
43012

> <i_f3d_flags>
0

> <s_epik_input>
W2NIXTFbY0hdW2NIXVtjSF1jKGMxMiluKGMobjIpW0NIMl1bT0hdKVtDSDJdW0NASF0oW09IXSlbQ0gyXU9bQ0gyXWMzW2NIXVtjSF1jKENsKVtjSF1bY0hdMw==

> <s_epik_cmdline>
J2VwaWtfcHl0aG9uJywgJy1waCcsICc3LjAnLCAnLXRuJywgJzgnLCAnLW1hJywgJzIwMCcsICctbWV0YWxfYmluZGluZycsICctaW1hZScsICc8aW5maWxlLm1hZT4nLCAnLW9tYWUnLCAnPG91dGZpbGUubWFlPic=

> <r_epik_Ionization_Penalty>
1.34314

> <r_epik_Ionization_Penalty_Charging>
1.34228

> <r_epik_Ionization_Penalty_Neutral>
0.000856898

> <r_epik_State_Penalty>
1.41963

> <r_epik_Charging_Adjusted_Penalty>
2.76191

> <i_epik_Tot_Q>
1

> <i_epik_Tot_abs_Q>
1

> <r_epik_Metal_State_Penalty>
5.45585

> <b_epik_Metal_Only>
0

> <s_lp_Force_Field>
OPLS_2005

> <r_lp_Energy>
18.1593

> <b_lp_Chiralities_Consistent>
1

> <s_lp_Variant>
AV-unprocessed.smi:322-4

> <Gold.Version>
5.8.1

> <Gold.Id.Protein>
6NUR|6NUR_protein|mol2

> <Gold.PLP.Fitness>
57.1545

> <Gold.PLP.PLP>
-47.5338

> <Gold.PLP.part.hbond>
-3.7354

> <Gold.PLP.part.metal>
0.0000

> <Gold.PLP.part.buried>
-6.0007

> <Gold.PLP.part.nonpolar>
-38.4917

> <Gold.PLP.part.repulsive>
0.2052

> <Gold.PLP.ligand.clash>
0.0000

> <Gold.PLP.ligand.torsion>
0.6514

> <Gold.PLP.Chemscore.Hbond>
3.4480

> <Gold.PLP.Chemscore.CHOScore>
0.0000

> <Gold.PLP.Chemscore.Metal>
0.0000

> <Gold.Chemscore.Hbonds>
donor molecule, donor type, donor heavy atom, donor atom, acceptor molecule, acceptor atom, score
      L1  H     1    25       P1  7948  0.62
      L1  H     4    44       P1  7948  1.79
      P1  H  7954  7966       L1     1  0.90

> <Gold.PLP.Chemscore.Internal.Correction>
0.5796

> <Gold.Rescore>
     Score         DG    S(hbond)    S(metal)    S(lipo)     H(rot)  DE(clash)    DE(int)     intcor
     16.73     -17.57       1.89        0.00     120.35       3.24       0.11       0.74       ----

> <Gold.Chemscore.Fitness>
16.7274

> <Gold.Chemscore.DG>
-17.5724

> <Gold.Chemscore.ZeroCoef>
-5.4800

> <Gold.Chemscore.Hbond>
1.8865

> <Gold.Chemscore.Metal>
0.0000

> <Gold.Chemscore.Lipo>
120.3539

> <Gold.Chemscore.Internal_Hbond>
0.0000

> <Gold.Chemscore.DEClash>
0.1070

> <Gold.Chemscore.DEInternal>
0.7379

> <Gold.Chemscore.Rot>
3.2383

> <Gold.Chemscore.Internal.Correction>
   9.000000E+99

> <Gold.Chemscore.Hbonds>
donor molecule, donor type, donor heavy atom, donor atom, acceptor molecule, acceptor atom, score
      L1  H     1    25       P1  7948  0.62
      L1  H     4    44       P1  7948  0.62
      P1  H  7954  7966       L1     1  0.17

> <Gold.Chemscore.Hbond.Weighted>
-6.3010

> <Gold.Chemscore.Metal.Weighted>
-0.0000

> <Gold.Chemscore.Lipo.Weighted>
-14.0814

> <Gold.Chemscore.Internal_Hbond.Weighted>
0.0000

> <Gold.Chemscore.DEClash.Weighted>
0.1070

> <Gold.Chemscore.DEInternal.Weighted>
0.7379

> <Gold.Chemscore.Rot.Weighted>
8.2901

> <Gold.Chemscore.Internal.Correction.Weighted>
   9.000000E+99

> <Gold.Protein.RotatedTorsions>
[ 6907 6896 6895 6894 ] final  106.58 input  -60.11 | X-H torsion
[ 7974 7965 7964 7962 ] final   72.36 input  175.53 | X-H torsion
[ 8008 7997 7996 7995 ] final -163.67 input   59.86 | X-H torsion
[ 10167 10162 10161 10158 ] final   78.20 input  -65.29 | X-H torsion
[ 10718 10713 10712 10709 ] final    3.22 input   66.30 | X-H torsion
[ 10763 10752 10751 10750 ] final  -54.85 input  -60.55 | X-H torsion
[ 11005 11000 10999 10996 ] final   77.18 input  -57.11 | X-H torsion

> <Gold.Protein.ActiveResidues>
 VAL166  LYS551  ARG553  GLY616  TRP617  ASP618  TYR619  PRO620  LYS621  CYS622 
 ASP623  PHE694  ASN695  SER759  ASP760  ASP761  ALA762  ILE779  LEU786  VAL792 
 PHE793  MET794  SER795  GLU796  ALA797  LYS798  CYS799  TRP800  GLU811  SER814 

> <Gold.Protein.RotatedAtoms>
  152.5188  133.9360  159.7603 H   0  0  0  0  0  0  0  0  0  0  0  0  # atno 6907 bound_to 6896
  150.9700  133.6346  159.2746 H   0  0  0  0  0  0  0  0  0  0  0  0  # atno 6908 bound_to 6896
  151.3560  135.0900  159.9472 H   0  0  0  0  0  0  0  0  0  0  0  0  # atno 6909 bound_to 6896
  145.7543  139.2773  143.1413 H   0  0  0  0  0  0  0  0  0  0  0  0  # atno 7974 bound_to 7965
  155.8247  140.0925  157.1828 H   0  0  0  0  0  0  0  0  0  0  0  0  # atno 8008 bound_to 7997
  154.3979  140.1430  156.3602 H   0  0  0  0  0  0  0  0  0  0  0  0  # atno 8009 bound_to 7997
  155.8229  140.3445  155.5528 H   0  0  0  0  0  0  0  0  0  0  0  0  # atno 8010 bound_to 7997
  139.9734  144.5878  150.7965 H   0  0  0  0  0  0  0  0  0  0  0  0  # atno 10167 bound_to 10162
  156.8745  130.5632  149.5656 H   0  0  0  0  0  0  0  0  0  0  0  0  # atno 10718 bound_to 10713
  154.1815  135.6442  153.5035 H   0  0  0  0  0  0  0  0  0  0  0  0  # atno 10763 bound_to 10752
  153.0058  135.5407  154.6509 H   0  0  0  0  0  0  0  0  0  0  0  0  # atno 10764 bound_to 10752
  154.5875  135.2931  155.0643 H   0  0  0  0  0  0  0  0  0  0  0  0  # atno 10765 bound_to 10752
  139.9266  134.7662  156.1489 H   0  0  0  0  0  0  0  0  0  0  0  0  # atno 11005 bound_to 11000
  146.0326  140.8243  142.9868 LP  0  0  0  0  0  0  0  0  0  0  0  0  # atno 17320 bound_to 7965
  144.6843  140.2791  143.7295 LP  0  0  0  0  0  0  0  0  0  0  0  0  # atno 17321 bound_to 7965
  140.7514  143.2972  151.3174 LP  0  0  0  0  0  0  0  0  0  0  0  0  # atno 17342 bound_to 10162
  139.6464  144.0444  152.2594 LP  0  0  0  0  0  0  0  0  0  0  0  0  # atno 17343 bound_to 10162
  156.0709  130.5742  150.9381 LP  0  0  0  0  0  0  0  0  0  0  0  0  # atno 17370 bound_to 10713
  157.6176  131.0932  150.8681 LP  0  0  0  0  0  0  0  0  0  0  0  0  # atno 17371 bound_to 10713
  141.0827  133.6747  156.2370 LP  0  0  0  0  0  0  0  0  0  0  0  0  # atno 17394 bound_to 11000
  140.6320  134.5254  157.5560 LP  0  0  0  0  0  0  0  0  0  0  0  0  # atno 17395 bound_to 11000

$$$$
