AV-unprocessed.smi:171|AV-procd|sdf|1416|dock2
  -GOLD-   2262019183D 1   1.00000     0.00000
 Structure written by MMmdl.
 56 59  0  0  0  0  0  0  0  0  1 V2000
  152.2752  143.7217  159.9129 C   0  0  0  0  0  0  0  0  0  0  0  0
  151.9332  142.2498  159.6339 C   0  0  0  0  0  0  0  0  0  0  0  0
  153.1386  141.3537  159.9609 C   0  0  0  0  0  0  0  0  0  0  0  0
  151.4181  142.0792  158.1866 C   0  0  0  0  0  0  0  0  0  0  0  0
  150.9018  140.6567  157.8294 C   0  0  2  0  0  0  0  0  0  0  0  0
  151.9298  139.8926  156.9572 C   0  0  0  0  0  0  0  0  0  0  0  0
  152.9524  139.4425  157.4681 O   0  0  0  0  0  0  0  0  0  0  0  0
  151.6799  139.7259  155.6457 N   0  0  0  0  0  0  0  0  0  0  0  0
  150.4891  140.1861  154.9316 C   0  0  0  0  0  0  0  0  0  0  0  0
  149.6456  141.1806  155.7486 C   0  0  0  0  0  0  0  0  0  0  0  0
  149.5998  140.7730  157.1511 N   0  0  0  0  0  0  0  0  0  0  0  0
  148.6258  139.8695  157.4387 C   0  0  0  0  0  0  0  0  0  0  0  0
  147.3477  140.0847  157.0267 N   0  0  0  0  0  0  0  0  0  0  0  0
  146.3845  139.2085  157.3262 C   0  0  0  0  0  0  0  0  0  0  0  0
  146.4773  138.0712  158.0173 N   0  0  0  0  0  0  0  0  0  0  0  0
  147.7564  137.8493  158.4346 C   0  0  0  0  0  0  0  0  0  0  0  0
  148.8803  138.6878  158.1893 C   0  0  0  0  0  0  0  0  0  0  0  0
  150.0197  138.1311  158.7581 N   0  0  0  0  0  0  0  0  0  0  0  0
  149.5923  137.0306  159.3142 C   0  0  0  0  0  0  0  0  0  0  0  0
  148.2442  136.7878  159.1766 N   0  0  0  0  0  0  0  0  0  0  0  0
  147.5055  135.6490  159.6992 C   0  0  0  0  0  0  0  0  0  0  0  0
  146.6968  135.9759  160.9769 C   0  0  2  0  0  0  0  0  0  0  0  0
  145.4386  136.5090  160.5953 O   0  0  0  0  0  0  0  0  0  0  0  0
  147.3801  136.9677  161.9068 C   0  0  0  0  0  0  0  0  0  0  0  0
  146.7395  136.6543  163.2534 C   0  0  0  0  0  0  0  0  0  0  0  0
  146.5362  135.2471  163.2445 O   0  0  0  0  0  0  0  0  0  0  0  0
  146.5135  134.7553  161.9050 C   0  0  1  0  0  0  0  0  0  0  0  0
  145.2715  133.8834  161.6585 C   0  0  0  0  0  0  0  0  0  0  0  0
  153.0812  144.0698  159.2660 H   0  0  0  0  0  0  0  0  0  0  0  0
  152.5929  143.8638  160.9460 H   0  0  0  0  0  0  0  0  0  0  0  0
  151.4119  144.3665  159.7461 H   0  0  0  0  0  0  0  0  0  0  0  0
  151.1238  141.9762  160.3119 H   0  0  0  0  0  0  0  0  0  0  0  0
  153.9557  141.5133  159.2569 H   0  0  0  0  0  0  0  0  0  0  0  0
  152.8700  140.2984  159.9343 H   0  0  0  0  0  0  0  0  0  0  0  0
  153.5186  141.5573  160.9623 H   0  0  0  0  0  0  0  0  0  0  0  0
  150.6062  142.7964  158.0533 H   0  0  0  0  0  0  0  0  0  0  0  0
  152.1877  142.4024  157.4830 H   0  0  0  0  0  0  0  0  0  0  0  0
  150.7743  140.1015  158.7603 H   0  0  0  0  0  0  0  0  0  0  0  0
  152.3664  139.2231  155.1020 H   0  0  0  0  0  0  0  0  0  0  0  0
  150.7804  140.6254  153.9776 H   0  0  0  0  0  0  0  0  0  0  0  0
  149.8891  139.3051  154.7013 H   0  0  0  0  0  0  0  0  0  0  0  0
  150.0967  142.1718  155.6937 H   0  0  0  0  0  0  0  0  0  0  0  0
  148.6532  141.2815  155.3089 H   0  0  0  0  0  0  0  0  0  0  0  0
  145.3982  139.4551  156.9618 H   0  0  0  0  0  0  0  0  0  0  0  0
  150.2530  136.3630  159.8480 H   0  0  0  0  0  0  0  0  0  0  0  0
  146.8429  135.2765  158.9169 H   0  0  0  0  0  0  0  0  0  0  0  0
  148.2200  134.8496  159.8991 H   0  0  0  0  0  0  0  0  0  0  0  0
  145.4895  137.4518  160.6340 H   0  0  0  0  0  0  0  0  0  0  0  0
  148.4490  136.7568  161.9607 H   0  0  0  0  0  0  0  0  0  0  0  0
  147.2588  138.0095  161.6065 H   0  0  0  0  0  0  0  0  0  0  0  0
  147.3579  136.9648  164.0959 H   0  0  0  0  0  0  0  0  0  0  0  0
  145.7719  137.1499  163.3418 H   0  0  0  0  0  0  0  0  0  0  0  0
  147.3954  134.1190  161.8181 H   0  0  0  0  0  0  0  0  0  0  0  0
  145.2503  133.5136  160.6331 H   0  0  0  0  0  0  0  0  0  0  0  0
  144.3481  134.4342  161.8385 H   0  0  0  0  0  0  0  0  0  0  0  0
  145.2699  133.0190  162.3225 H   0  0  0  0  0  0  0  0  0  0  0  0
  1  2  1  0  0  0  0
  1 29  1  0  0  0  0
  1 30  1  0  0  0  0
  1 31  1  0  0  0  0
  2  3  1  0  0  0  0
  2  4  1  0  0  0  0
  2 32  1  0  0  0  0
  3 33  1  0  0  0  0
  3 34  1  0  0  0  0
  3 35  1  0  0  0  0
  4  5  1  0  0  0  0
  4 36  1  0  0  0  0
  4 37  1  0  0  0  0
  5 11  1  0  0  0  0
  5  6  1  0  0  0  0
  5 38  1  0  0  0  0
  6  7  2  0  0  0  0
  6  8  1  0  0  0  0
  8  9  1  0  0  0  0
  8 39  1  0  0  0  0
  9 10  1  0  0  0  0
  9 40  1  0  0  0  0
  9 41  1  0  0  0  0
 10 11  1  0  0  0  0
 10 42  1  0  0  0  0
 10 43  1  0  0  0  0
 11 12  1  0  0  0  0
 12 17  1  0  0  0  0
 12 13  2  0  0  0  0
 13 14  1  0  0  0  0
 14 15  2  0  0  0  0
 14 44  1  0  0  0  0
 15 16  1  0  0  0  0
 16 20  1  0  0  0  0
 16 17  2  0  0  0  0
 17 18  1  0  0  0  0
 18 19  2  0  0  0  0
 19 20  1  0  0  0  0
 19 45  1  0  0  0  0
 20 21  1  0  0  0  0
 21 22  1  0  0  0  0
 21 46  1  0  0  0  0
 21 47  1  0  0  0  0
 22 27  1  0  0  0  0
 22 23  1  0  0  0  0
 22 24  1  0  0  0  0
 23 48  1  0  0  0  0
 24 25  1  0  0  0  0
 24 49  1  0  0  0  0
 24 50  1  0  0  0  0
 25 26  1  0  0  0  0
 25 51  1  0  0  0  0
 25 52  1  0  0  0  0
 26 27  1  0  0  0  0
 27 28  1  0  0  0  0
 27 53  1  0  0  0  0
 28 54  1  0  0  0  0
 28 55  1  0  0  0  0
 28 56  1  0  0  0  0
M  END
> <s_m_source_file>
AV-unprocessed.smi

> <i_m_source_file_index>
171

> <i_lp_mmshare_version>
43012

> <i_f3d_flags>
0

> <s_epik_input>
W0NIM11bQ0hdKFtDSDNdKVtDSDJdW0NAQEhdMUMoPU8pW05IXVtDSDJdW0NIMl1OMWMobltjSF1uMiljKGMyMyluW2NIXW4zW0NIMl1bQ0BAXTQoW09IXSlbQ0gyXVtDSDJdT1tDQEhdNFtDSDNd

> <s_epik_cmdline>
J2VwaWtfcHl0aG9uJywgJy1waCcsICc3LjAnLCAnLXRuJywgJzgnLCAnLW1hJywgJzIwMCcsICctbWV0YWxfYmluZGluZycsICctaW1hZScsICc8aW5maWxlLm1hZT4nLCAnLW9tYWUnLCAnPG91dGZpbGUubWFlPic=

> <r_lp_tautomer_probability>
1

> <r_epik_Ionization_Penalty>
0.000670584

> <r_epik_Ionization_Penalty_Charging>
0

> <r_epik_Ionization_Penalty_Neutral>
0.000670584

> <r_epik_State_Penalty>
0.000304767

> <r_epik_Charging_Adjusted_Penalty>
0.000304767

> <i_epik_Tot_Q>
0

> <i_epik_Tot_abs_Q>
0

> <r_epik_Metal_State_Penalty>
-0

> <b_epik_Metal_Only>
0

> <s_lp_Force_Field>
OPLS_2005

> <r_lp_Energy>
45.8078

> <b_lp_Chiralities_Consistent>
1

> <s_lp_Variant>
AV-unprocessed.smi:171-3

> <Gold.Version>
5.8.1

> <Gold.Id.Protein>
6NUR|6NUR_protein|mol2

> <Gold.PLP.Fitness>
43.8840

> <Gold.PLP.PLP>
-43.4643

> <Gold.PLP.part.hbond>
-2.4002

> <Gold.PLP.part.metal>
0.0000

> <Gold.PLP.part.buried>
-4.0965

> <Gold.PLP.part.nonpolar>
-37.8137

> <Gold.PLP.part.repulsive>
0.2056

> <Gold.PLP.ligand.clash>
0.0000

> <Gold.PLP.ligand.torsion>
1.5950

> <Gold.PLP.Chemscore.Hbond>
1.0000

> <Gold.PLP.Chemscore.CHOScore>
0.0000

> <Gold.PLP.Chemscore.Metal>
0.0000

> <Gold.Chemscore.Hbonds>
donor molecule, donor type, donor heavy atom, donor atom, acceptor molecule, acceptor atom, score
      P1  H  7997  8009       L1     7  1.00

> <Gold.PLP.Chemscore.Internal.Correction>
0.6097

> <Gold.Rescore>
     Score         DG    S(hbond)    S(metal)    S(lipo)     H(rot)  DE(clash)    DE(int)     intcor
     11.30     -14.37       1.00        0.00     104.63       2.61       0.16       2.91       ----

> <Gold.Chemscore.Fitness>
11.3002

> <Gold.Chemscore.DG>
-14.3706

> <Gold.Chemscore.ZeroCoef>
-5.4800

> <Gold.Chemscore.Hbond>
0.9952

> <Gold.Chemscore.Metal>
0.0000

> <Gold.Chemscore.Lipo>
104.6272

> <Gold.Chemscore.Internal_Hbond>
0.0000

> <Gold.Chemscore.DEClash>
0.1580

> <Gold.Chemscore.DEInternal>
2.9124

> <Gold.Chemscore.Rot>
2.6074

> <Gold.Chemscore.Internal.Correction>
   9.000000E+99

> <Gold.Chemscore.Hbonds>
donor molecule, donor type, donor heavy atom, donor atom, acceptor molecule, acceptor atom, score
      P1  H  7997  8009       L1     7  0.91

> <Gold.Chemscore.Hbond.Weighted>
-3.3240

> <Gold.Chemscore.Metal.Weighted>
-0.0000

> <Gold.Chemscore.Lipo.Weighted>
-12.2414

> <Gold.Chemscore.Internal_Hbond.Weighted>
0.0000

> <Gold.Chemscore.DEClash.Weighted>
0.1580

> <Gold.Chemscore.DEInternal.Weighted>
2.9124

> <Gold.Chemscore.Rot.Weighted>
6.6748

> <Gold.Chemscore.Internal.Correction.Weighted>
   9.000000E+99

> <Gold.Protein.RotatedTorsions>
[ 6907 6896 6895 6894 ] final  -51.65 input  -60.11 | X-H torsion
[ 7974 7965 7964 7962 ] final   32.36 input  175.53 | X-H torsion
[ 8008 7997 7996 7995 ] final  170.11 input   59.86 | X-H torsion
[ 10167 10162 10161 10158 ] final -115.25 input  -65.29 | X-H torsion
[ 10718 10713 10712 10709 ] final  -39.07 input   66.30 | X-H torsion
[ 10763 10752 10751 10750 ] final  158.71 input  -60.55 | X-H torsion
[ 11005 11000 10999 10996 ] final -177.41 input  -57.11 | X-H torsion

> <Gold.Protein.ActiveResidues>
 VAL166  LYS551  ARG553  GLY616  TRP617  ASP618  TYR619  PRO620  LYS621  CYS622 
 ASP623  PHE694  ASN695  SER759  ASP760  ASP761  ALA762  ILE779  LEU786  VAL792 
 PHE793  MET794  SER795  GLU796  ALA797  LYS798  CYS799  TRP800  GLU811  SER814 

> <Gold.Protein.RotatedAtoms>
  150.8591  134.7938  159.7068 H   0  0  0  0  0  0  0  0  0  0  0  0  # atno 6907 bound_to 6896
  152.4633  134.5130  159.9769 H   0  0  0  0  0  0  0  0  0  0  0  0  # atno 6908 bound_to 6896
  151.5237  133.3423  159.2941 H   0  0  0  0  0  0  0  0  0  0  0  0  # atno 6909 bound_to 6896
  146.1491  139.6536  142.9111 H   0  0  0  0  0  0  0  0  0  0  0  0  # atno 7974 bound_to 7965
  156.1396  140.1546  156.8941 H   0  0  0  0  0  0  0  0  0  0  0  0  # atno 8008 bound_to 7997
  154.4976  140.0834  156.7768 H   0  0  0  0  0  0  0  0  0  0  0  0  # atno 8009 bound_to 7997
  155.4104  140.3418  155.4265 H   0  0  0  0  0  0  0  0  0  0  0  0  # atno 8010 bound_to 7997
  140.0921  143.4690  152.1863 H   0  0  0  0  0  0  0  0  0  0  0  0  # atno 10167 bound_to 10162
  156.2966  130.4235  149.8185 H   0  0  0  0  0  0  0  0  0  0  0  0  # atno 10718 bound_to 10713
  154.2203  135.2782  155.2927 H   0  0  0  0  0  0  0  0  0  0  0  0  # atno 10763 bound_to 10752
  154.5707  135.5619  153.7095 H   0  0  0  0  0  0  0  0  0  0  0  0  # atno 10764 bound_to 10752
  153.0043  135.6320  154.2343 H   0  0  0  0  0  0  0  0  0  0  0  0  # atno 10765 bound_to 10752
  140.4412  134.6430  157.4758 H   0  0  0  0  0  0  0  0  0  0  0  0  # atno 11005 bound_to 11000
  145.4866  141.0438  143.2616 LP  0  0  0  0  0  0  0  0  0  0  0  0  # atno 17320 bound_to 7965
  144.7882  139.6382  143.7125 LP  0  0  0  0  0  0  0  0  0  0  0  0  # atno 17321 bound_to 7965
  139.5718  144.7467  151.3869 LP  0  0  0  0  0  0  0  0  0  0  0  0  # atno 17342 bound_to 10162
  140.7023  143.7602  150.7423 LP  0  0  0  0  0  0  0  0  0  0  0  0  # atno 17343 bound_to 10162
  156.5579  130.8370  151.3320 LP  0  0  0  0  0  0  0  0  0  0  0  0  # atno 17370 bound_to 10713
  157.7357  130.9766  150.2095 LP  0  0  0  0  0  0  0  0  0  0  0  0  # atno 17371 bound_to 10713
  140.0069  134.6751  155.9442 LP  0  0  0  0  0  0  0  0  0  0  0  0  # atno 17394 bound_to 11000
  141.1705  133.6537  156.4633 LP  0  0  0  0  0  0  0  0  0  0  0  0  # atno 17395 bound_to 11000

$$$$
