AV-unprocessed.smi:2422|AV-procd|sdf|9557|dock4
  -GOLD-   2272013193D 1   1.00000     0.00000
 Structure written by MMmdl.
 46 47  0  0  0  0  0  0  0  0  1 V2000
  148.4977  131.5347  153.6562 C   0  0  0  0  0  0  0  0  0  0  0  0
  148.6298  132.4834  154.7000 O   0  0  0  0  0  0  0  0  0  0  0  0
  148.9221  133.7867  154.2179 C   0  0  0  0  0  0  0  0  0  0  0  0
  149.2322  134.7397  155.3971 C   0  0  0  0  0  0  0  0  0  0  0  0
  148.0451  134.7481  156.3785 C   0  0  0  0  0  0  0  0  0  0  0  0
  150.4893  134.2587  156.1530 C   0  0  0  0  0  0  0  0  0  0  0  0
  149.4164  136.1191  154.9268 N   0  0  0  0  0  0  0  0  0  0  0  0
  149.6727  137.2211  155.6521 C   0  0  0  0  0  0  0  0  0  0  0  0
  149.7788  137.2296  156.8785 O   0  0  0  0  0  0  0  0  0  0  0  0
  149.7975  138.2988  154.8584 N   0  0  0  0  0  0  0  0  0  0  0  0
  150.0757  139.6388  155.2341 C   0  0  0  0  0  0  0  0  0  0  0  0
  149.7149  140.7365  154.5007 N   0  0  0  0  0  0  0  0  0  0  0  0
  150.2036  141.6857  155.2876 C   0  0  0  0  0  0  0  0  0  0  0  0
  150.7981  141.2247  156.3920 N   0  0  0  0  0  0  0  0  0  0  0  0
  151.4547  141.9447  157.4725 C   0  0  0  0  0  0  0  0  0  0  0  0
  150.9295  141.4925  158.8504 C   0  0  0  0  0  0  0  0  0  0  0  0
  151.6376  142.2439  159.9899 C   0  0  0  0  0  0  0  0  0  0  0  0
  151.5064  143.7662  159.8207 C   0  0  0  0  0  0  0  0  0  0  0  0
  152.0275  144.2217  158.4481 C   0  0  0  0  0  0  0  0  0  0  0  0
  151.3178  143.4735  157.3080 C   0  0  0  0  0  0  0  0  0  0  0  0
  150.7317  139.8701  156.3692 N   0  0  0  0  0  0  0  0  0  0  0  0
  148.2731  130.5551  154.0779 H   0  0  0  0  0  0  0  0  0  0  0  0
  149.4201  131.4506  153.0804 H   0  0  0  0  0  0  0  0  0  0  0  0
  147.6854  131.8038  152.9796 H   0  0  0  0  0  0  0  0  0  0  0  0
  149.7780  133.7421  153.5426 H   0  0  0  0  0  0  0  0  0  0  0  0
  148.0824  134.1578  153.6287 H   0  0  0  0  0  0  0  0  0  0  0  0
  147.8380  133.7476  156.7595 H   0  0  0  0  0  0  0  0  0  0  0  0
  147.1332  135.1125  155.9036 H   0  0  0  0  0  0  0  0  0  0  0  0
  148.2442  135.3902  157.2375 H   0  0  0  0  0  0  0  0  0  0  0  0
  150.3335  133.2687  156.5829 H   0  0  0  0  0  0  0  0  0  0  0  0
  150.7449  134.9342  156.9702 H   0  0  0  0  0  0  0  0  0  0  0  0
  151.3593  134.1882  155.5001 H   0  0  0  0  0  0  0  0  0  0  0  0
  149.3564  136.2426  153.9269 H   0  0  0  0  0  0  0  0  0  0  0  0
  149.6891  138.1421  153.8675 H   0  0  0  0  0  0  0  0  0  0  0  0
  150.1269  142.7374  155.0540 H   0  0  0  0  0  0  0  0  0  0  0  0
  152.5160  141.6961  157.4195 H   0  0  0  0  0  0  0  0  0  0  0  0
  149.8547  141.6671  158.9169 H   0  0  0  0  0  0  0  0  0  0  0  0
  151.0764  140.4188  158.9721 H   0  0  0  0  0  0  0  0  0  0  0  0
  151.2224  141.9394  160.9510 H   0  0  0  0  0  0  0  0  0  0  0  0
  152.6929  141.9686  160.0083 H   0  0  0  0  0  0  0  0  0  0  0  0
  150.4605  144.0568  159.9288 H   0  0  0  0  0  0  0  0  0  0  0  0
  152.0528  144.2771  160.6140 H   0  0  0  0  0  0  0  0  0  0  0  0
  151.8834  145.2966  158.3337 H   0  0  0  0  0  0  0  0  0  0  0  0
  153.1024  144.0460  158.3876 H   0  0  0  0  0  0  0  0  0  0  0  0
  151.7323  143.7855  156.3487 H   0  0  0  0  0  0  0  0  0  0  0  0
  150.2645  143.7581  157.2966 H   0  0  0  0  0  0  0  0  0  0  0  0
  1  2  1  0  0  0  0
  1 22  1  0  0  0  0
  1 23  1  0  0  0  0
  1 24  1  0  0  0  0
  2  3  1  0  0  0  0
  3  4  1  0  0  0  0
  3 25  1  0  0  0  0
  3 26  1  0  0  0  0
  4  5  1  0  0  0  0
  4  6  1  0  0  0  0
  4  7  1  0  0  0  0
  5 27  1  0  0  0  0
  5 28  1  0  0  0  0
  5 29  1  0  0  0  0
  6 30  1  0  0  0  0
  6 31  1  0  0  0  0
  6 32  1  0  0  0  0
  7  8  1  0  0  0  0
  7 33  1  0  0  0  0
  8  9  2  0  0  0  0
  8 10  1  0  0  0  0
 10 11  1  0  0  0  0
 10 34  1  0  0  0  0
 11 21  2  0  0  0  0
 11 12  1  0  0  0  0
 12 13  2  0  0  0  0
 13 14  1  0  0  0  0
 13 35  1  0  0  0  0
 14 15  1  0  0  0  0
 14 21  1  0  0  0  0
 15 20  1  0  0  0  0
 15 16  1  0  0  0  0
 15 36  1  0  0  0  0
 16 17  1  0  0  0  0
 16 37  1  0  0  0  0
 16 38  1  0  0  0  0
 17 18  1  0  0  0  0
 17 39  1  0  0  0  0
 17 40  1  0  0  0  0
 18 19  1  0  0  0  0
 18 41  1  0  0  0  0
 18 42  1  0  0  0  0
 19 20  1  0  0  0  0
 19 43  1  0  0  0  0
 19 44  1  0  0  0  0
 20 45  1  0  0  0  0
 20 46  1  0  0  0  0
M  END
> <s_m_source_file>
AV-unprocessed.smi

> <i_m_source_file_index>
2422

> <i_lp_mmshare_version>
43012

> <i_f3d_flags>
0

> <s_epik_input>
W0NIM11PW0NIMl1DKFtDSDNdKShbQ0gzXSlbTkhdQyg9TylbTkhdYzFuW2NIXW4objEpW0NIXTJbQ0gyXVtDSDJdW0NIMl1bQ0gyXVtDSDJdMg==

> <s_epik_cmdline>
J2VwaWtfcHl0aG9uJywgJy1waCcsICc3LjAnLCAnLXRuJywgJzgnLCAnLW1hJywgJzIwMCcsICctbWV0YWxfYmluZGluZycsICctaW1hZScsICc8aW5maWxlLm1hZT4nLCAnLW9tYWUnLCAnPG91dGZpbGUubWFlPic=

> <r_lp_tautomer_probability>
1

> <r_epik_Ionization_Penalty>
0.000103736

> <r_epik_Ionization_Penalty_Charging>
0

> <r_epik_Ionization_Penalty_Neutral>
0.000103736

> <r_epik_State_Penalty>
-0

> <r_epik_Charging_Adjusted_Penalty>
0

> <i_epik_Tot_Q>
0

> <i_epik_Tot_abs_Q>
0

> <r_epik_Metal_State_Penalty>
-0

> <b_epik_Metal_Only>
0

> <s_lp_Force_Field>
OPLS_2005

> <r_lp_Energy>
18.085

> <b_lp_Chiralities_Consistent>
1

> <s_lp_Variant>
AV-unprocessed.smi:2422-1

> <Gold.Version>
5.8.1

> <Gold.Id.Protein>
6NUR|6NUR_protein|mol2

> <Gold.PLP.Fitness>
40.2327

> <Gold.PLP.PLP>
-34.6265

> <Gold.PLP.part.hbond>
-1.6266

> <Gold.PLP.part.metal>
0.0000

> <Gold.PLP.part.buried>
-4.0797

> <Gold.PLP.part.nonpolar>
-28.1456

> <Gold.PLP.part.repulsive>
0.2249

> <Gold.PLP.ligand.clash>
0.0000

> <Gold.PLP.ligand.torsion>
0.2547

> <Gold.PLP.Chemscore.Hbond>
1.0045

> <Gold.PLP.Chemscore.CHOScore>
1.0000

> <Gold.PLP.Chemscore.Metal>
0.0000

> <Gold.Chemscore.Hbonds>
donor molecule, donor type, donor heavy atom, donor atom, acceptor molecule, acceptor atom, score
      L1  H     7    33       P1  7948  0.88
      P1  H  7989  7998       L1    12  0.09
      L1  C    13    35       P1  8028  1.00

> <Gold.PLP.Chemscore.Internal.Correction>
0.1022

> <Gold.Rescore>
     Score         DG    S(hbond)    S(metal)    S(lipo)     H(rot)  DE(clash)    DE(int)     intcor
     11.72     -14.05       0.97        0.00      82.67       1.70       0.10       2.23       ----

> <Gold.Chemscore.Fitness>
11.7192

> <Gold.Chemscore.DG>
-14.0518

> <Gold.Chemscore.ZeroCoef>
-5.4800

> <Gold.Chemscore.Hbond>
0.9699

> <Gold.Chemscore.Metal>
0.0000

> <Gold.Chemscore.Lipo>
82.6708

> <Gold.Chemscore.Internal_Hbond>
0.0000

> <Gold.Chemscore.DEClash>
0.0980

> <Gold.Chemscore.DEInternal>
2.2345

> <Gold.Chemscore.Rot>
1.6954

> <Gold.Chemscore.Internal.Correction>
   9.000000E+99

> <Gold.Chemscore.Hbonds>
donor molecule, donor type, donor heavy atom, donor atom, acceptor molecule, acceptor atom, score
      L1  H     7    33       P1  7948  0.73

> <Gold.Chemscore.Hbond.Weighted>
-3.2395

> <Gold.Chemscore.Metal.Weighted>
-0.0000

> <Gold.Chemscore.Lipo.Weighted>
-9.6725

> <Gold.Chemscore.Internal_Hbond.Weighted>
0.0000

> <Gold.Chemscore.DEClash.Weighted>
0.0980

> <Gold.Chemscore.DEInternal.Weighted>
2.2345

> <Gold.Chemscore.Rot.Weighted>
4.3402

> <Gold.Chemscore.Internal.Correction.Weighted>
   9.000000E+99

> <Gold.Protein.RotatedTorsions>
[ 6907 6896 6895 6894 ] final   -1.96 input  -60.11 | X-H torsion
[ 7974 7965 7964 7962 ] final  -18.93 input  175.53 | X-H torsion
[ 8008 7997 7996 7995 ] final   63.59 input   59.86 | X-H torsion
[ 10167 10162 10161 10158 ] final  173.57 input  -65.29 | X-H torsion
[ 10718 10713 10712 10709 ] final  129.33 input   66.30 | X-H torsion
[ 10763 10752 10751 10750 ] final  158.39 input  -60.55 | X-H torsion
[ 11005 11000 10999 10996 ] final   80.17 input  -57.11 | X-H torsion

> <Gold.Protein.ActiveResidues>
 VAL166  LYS551  ARG553  GLY616  TRP617  ASP618  TYR619  PRO620  LYS621  CYS622 
 ASP623  PHE694  ASN695  SER759  ASP760  ASP761  ALA762  ILE779  LEU786  VAL792 
 PHE793  MET794  SER795  GLU796  ALA797  LYS798  CYS799  TRP800  GLU811  SER814 

> <Gold.Protein.RotatedAtoms>
  151.5376  135.1068  159.9918 H   0  0  0  0  0  0  0  0  0  0  0  0  # atno 6907 bound_to 6896
  152.4550  133.7701  159.6804 H   0  0  0  0  0  0  0  0  0  0  0  0  # atno 6908 bound_to 6896
  150.8490  133.7750  159.3057 H   0  0  0  0  0  0  0  0  0  0  0  0  # atno 6909 bound_to 6896
  146.1867  140.3991  142.8473 H   0  0  0  0  0  0  0  0  0  0  0  0  # atno 7974 bound_to 7965
  155.6326  140.3496  155.4688 H   0  0  0  0  0  0  0  0  0  0  0  0  # atno 8008 bound_to 7997
  155.9991  140.1209  157.0589 H   0  0  0  0  0  0  0  0  0  0  0  0  # atno 8009 bound_to 7997
  154.4243  140.1104  156.5657 H   0  0  0  0  0  0  0  0  0  0  0  0  # atno 8010 bound_to 7997
  139.5113  144.3246  152.0170 H   0  0  0  0  0  0  0  0  0  0  0  0  # atno 10167 bound_to 10162
  157.5164  131.1097  150.9218 H   0  0  0  0  0  0  0  0  0  0  0  0  # atno 10718 bound_to 10713
  154.2152  135.2784  155.2944 H   0  0  0  0  0  0  0  0  0  0  0  0  # atno 10763 bound_to 10752
  154.5746  135.5608  153.7131 H   0  0  0  0  0  0  0  0  0  0  0  0  # atno 10764 bound_to 10752
  153.0054  135.6330  154.2292 H   0  0  0  0  0  0  0  0  0  0  0  0  # atno 10765 bound_to 10752
  139.9144  134.7900  156.1875 H   0  0  0  0  0  0  0  0  0  0  0  0  # atno 11005 bound_to 11000
  144.8410  140.6857  143.6229 LP  0  0  0  0  0  0  0  0  0  0  0  0  # atno 17320 bound_to 7965
  145.3917  139.1615  143.4225 LP  0  0  0  0  0  0  0  0  0  0  0  0  # atno 17321 bound_to 7965
  140.2687  144.3988  150.6159 LP  0  0  0  0  0  0  0  0  0  0  0  0  # atno 17342 bound_to 10162
  140.6104  143.2169  151.6896 LP  0  0  0  0  0  0  0  0  0  0  0  0  # atno 17343 bound_to 10162
  156.9843  130.5539  149.5298 LP  0  0  0  0  0  0  0  0  0  0  0  0  # atno 17370 bound_to 10713
  156.0323  130.5413  150.8566 LP  0  0  0  0  0  0  0  0  0  0  0  0  # atno 17371 bound_to 10713
  141.0604  133.6844  156.1942 LP  0  0  0  0  0  0  0  0  0  0  0  0  # atno 17394 bound_to 11000
  140.6669  134.4908  157.5586 LP  0  0  0  0  0  0  0  0  0  0  0  0  # atno 17395 bound_to 11000

$$$$
