AV-unprocessed.smi:1196|AV-procd|sdf|5003|dock3
  -GOLD-   22720 4 13D 1   1.00000     0.00000
 Structure written by MMmdl.
 36 37  0  0  0  0  0  0  0  0  2 V2000
  148.0988  131.9279  153.3892 C   0  0  0  0  0  0  0  0  0  0  0  0
  147.5924  133.3352  153.0348 C   0  0  1  0  0  0  0  0  0  0  0  0
  146.0591  133.4297  153.1548 C   0  0  0  0  0  0  0  0  0  0  0  0
  145.3820  132.9646  151.9569 N   0  0  0  0  0  0  0  0  0  0  0  0
  145.8365  132.0706  151.0107 C   0  0  0  0  0  0  0  0  0  0  0  0
  144.8588  131.9476  150.0655 C   0  0  0  0  0  0  0  0  0  0  0  0
  143.8323  132.8194  150.5254 C   0  0  0  0  0  0  0  0  0  0  0  0
  144.1470  133.4244  151.6592 N   0  0  0  0  0  0  0  0  0  0  0  0
  148.2263  134.3269  153.9008 N   0  0  0  0  0  0  0  0  0  0  0  0
  148.0372  134.4434  155.2237 C   0  0  0  0  0  0  0  0  0  0  0  0
  147.2703  133.7209  155.8615 O   0  0  0  0  0  0  0  0  0  0  0  0
  148.8397  135.5487  155.9166 C   0  0  0  0  0  0  0  0  0  0  0  0
  150.0292  136.0623  155.0818 C   0  0  0  0  0  0  0  0  0  0  0  0
  151.0560  136.8496  155.9227 C   0  0  1  0  0  0  0  0  0  0  0  0
  152.1107  137.4071  155.0933 N   0  5  0  0  0  0  0  0  0  0  0  0
  152.1197  138.7510  155.2564 C   0  0  0  0  0  0  0  0  0  0  0  0
  152.8741  139.5671  154.7318 O   0  0  0  0  0  0  0  0  0  0  0  0
  151.1570  139.1317  156.1026 N   0  0  0  0  0  0  0  0  0  0  0  0
  150.4561  138.0943  156.5483 C   0  0  0  0  0  0  0  0  0  0  0  0
  149.5009  138.1145  157.3236 O   0  0  0  0  0  0  0  0  0  0  0  0
  147.6445  131.1746  152.7452 H   0  0  0  0  0  0  0  0  0  0  0  0
  147.8620  131.6689  154.4216 H   0  0  0  0  0  0  0  0  0  0  0  0
  149.1800  131.8540  153.2663 H   0  0  0  0  0  0  0  0  0  0  0  0
  147.8612  133.5400  151.9966 H   0  0  0  0  0  0  0  0  0  0  0  0
  145.7119  132.8192  153.9893 H   0  0  0  0  0  0  0  0  0  0  0  0
  145.7495  134.4539  153.3701 H   0  0  0  0  0  0  0  0  0  0  0  0
  146.8075  131.6040  151.0876 H   0  0  0  0  0  0  0  0  0  0  0  0
  144.8752  131.3307  149.1794 H   0  0  0  0  0  0  0  0  0  0  0  0
  142.8740  133.0276  150.0728 H   0  0  0  0  0  0  0  0  0  0  0  0
  148.8795  134.9607  153.4628 H   0  0  0  0  0  0  0  0  0  0  0  0
  148.1693  136.3799  156.1399 H   0  0  0  0  0  0  0  0  0  0  0  0
  149.1929  135.1655  156.8745 H   0  0  0  0  0  0  0  0  0  0  0  0
  150.5213  135.2266  154.5801 H   0  0  0  0  0  0  0  0  0  0  0  0
  149.6476  136.7086  154.2893 H   0  0  0  0  0  0  0  0  0  0  0  0
  151.4454  136.2192  156.7232 H   0  0  0  0  0  0  0  0  0  0  0  0
  150.9798  140.0904  156.3625 H   0  0  0  0  0  0  0  0  0  0  0  0
  1  2  1  0  0  0  0
  1 21  1  0  0  0  0
  1 22  1  0  0  0  0
  1 23  1  0  0  0  0
  2  3  1  0  0  0  0
  2  9  1  0  0  0  0
  2 24  1  0  0  0  0
  3  4  1  0  0  0  0
  3 25  1  0  0  0  0
  3 26  1  0  0  0  0
  4  8  1  0  0  0  0
  4  5  1  0  0  0  0
  5  6  2  0  0  0  0
  5 27  1  0  0  0  0
  6  7  1  0  0  0  0
  6 28  1  0  0  0  0
  7  8  2  0  0  0  0
  7 29  1  0  0  0  0
  9 10  1  0  0  0  0
  9 30  1  0  0  0  0
 10 11  2  0  0  0  0
 10 12  1  0  0  0  0
 12 13  1  0  0  0  0
 12 31  1  0  0  0  0
 12 32  1  0  0  0  0
 13 14  1  0  0  0  0
 13 33  1  0  0  0  0
 13 34  1  0  0  0  0
 14 19  1  0  0  0  0
 14 15  1  0  0  0  0
 14 35  1  0  0  0  0
 15 16  1  0  0  0  0
 16 17  2  0  0  0  0
 16 18  1  0  0  0  0
 18 19  1  0  0  0  0
 18 36  1  0  0  0  0
 19 20  2  0  0  0  0
M  CHG  1  15  -1
M  END
> <s_m_source_file>
AV-unprocessed.smi

> <i_m_source_file_index>
1196

> <i_lp_mmshare_version>
43012

> <i_f3d_flags>
0

> <s_epik_input>
bjFbY0hdW2NIXVtjSF1uMVtDSDJdW0NAQEhdKFtDSDNdKVtOSF1DKD1PKVtDSDJdW0NIMl1bQ0BASF0yW05IXUMoPU8pW05IXUMyPU8=

> <s_epik_cmdline>
J2VwaWtfcHl0aG9uJywgJy1waCcsICc3LjAnLCAnLXRuJywgJzgnLCAnLW1hJywgJzIwMCcsICctbWV0YWxfYmluZGluZycsICctaW1hZScsICc8aW5maWxlLm1hZT4nLCAnLW9tYWUnLCAnPG91dGZpbGUubWFlPic=

> <r_lp_tautomer_probability>
1

> <r_epik_Ionization_Penalty>
5.79547

> <r_epik_Ionization_Penalty_Charging>
5.79516

> <r_epik_Ionization_Penalty_Neutral>
0.000313087

> <r_epik_State_Penalty>
5.80096

> <r_epik_Charging_Adjusted_Penalty>
11.5961

> <i_epik_Tot_Q>
-1

> <i_epik_Tot_abs_Q>
1

> <r_epik_Metal_State_Penalty>
2.14443

> <b_epik_Metal_Only>
1

> <s_lp_Force_Field>
OPLS_2005

> <r_lp_Energy>
12.8227

> <b_lp_Chiralities_Consistent>
1

> <s_lp_Variant>
AV-unprocessed.smi:1196-8

> <Gold.Version>
5.8.1

> <Gold.Id.Protein>
6NUR|6NUR_protein|mol2

> <Gold.PLP.Fitness>
42.4456

> <Gold.PLP.PLP>
-28.1173

> <Gold.PLP.part.hbond>
-3.9843

> <Gold.PLP.part.metal>
0.0000

> <Gold.PLP.part.buried>
-6.2973

> <Gold.PLP.part.nonpolar>
-20.3632

> <Gold.PLP.part.repulsive>
0.3058

> <Gold.PLP.ligand.clash>
0.0000

> <Gold.PLP.ligand.torsion>
0.9719

> <Gold.PLP.Chemscore.Hbond>
3.4127

> <Gold.PLP.Chemscore.CHOScore>
2.0000

> <Gold.PLP.Chemscore.Metal>
0.0000

> <Gold.Chemscore.Hbonds>
donor molecule, donor type, donor heavy atom, donor atom, acceptor molecule, acceptor atom, score
      L1  H     9    30       P1  7948  0.78
      P1  H  7989  7998       L1    17  0.32
      P1  H  7997  8010       L1    17  0.94
      P1  H 10752 10765       L1    15  1.42
      L1  C     5    27       P1 10747  1.00
      L1  C     7    29       P1 10186  1.00

> <Gold.PLP.Chemscore.Internal.Correction>
0.0340

> <Gold.Rescore>
     Score         DG    S(hbond)    S(metal)    S(lipo)     H(rot)  DE(clash)    DE(int)     intcor
     10.73     -12.64       2.34        0.00      57.70       2.89       0.04       1.87       ----

> <Gold.Chemscore.Fitness>
10.7349

> <Gold.Chemscore.DG>
-12.6409

> <Gold.Chemscore.ZeroCoef>
-5.4800

> <Gold.Chemscore.Hbond>
2.3414

> <Gold.Chemscore.Metal>
0.0000

> <Gold.Chemscore.Lipo>
57.6985

> <Gold.Chemscore.Internal_Hbond>
0.0000

> <Gold.Chemscore.DEClash>
0.0351

> <Gold.Chemscore.DEInternal>
1.8709

> <Gold.Chemscore.Rot>
2.8946

> <Gold.Chemscore.Internal.Correction>
   9.000000E+99

> <Gold.Chemscore.Hbonds>
donor molecule, donor type, donor heavy atom, donor atom, acceptor molecule, acceptor atom, score
      L1  H     9    30       P1  7948  0.33
      P1  H  7989  7998       L1    17  0.21
      P1  H  7997  8010       L1    17  0.86
      P1  H 10752 10765       L1    15  0.17

> <Gold.Chemscore.Hbond.Weighted>
-7.8203

> <Gold.Chemscore.Metal.Weighted>
-0.0000

> <Gold.Chemscore.Lipo.Weighted>
-6.7507

> <Gold.Chemscore.Internal_Hbond.Weighted>
0.0000

> <Gold.Chemscore.DEClash.Weighted>
0.0351

> <Gold.Chemscore.DEInternal.Weighted>
1.8709

> <Gold.Chemscore.Rot.Weighted>
7.4101

> <Gold.Chemscore.Internal.Correction.Weighted>
   9.000000E+99

> <Gold.Protein.RotatedTorsions>
[ 6907 6896 6895 6894 ] final  -13.38 input  -60.11 | X-H torsion
[ 7974 7965 7964 7962 ] final  -75.36 input  175.53 | X-H torsion
[ 8008 7997 7996 7995 ] final  108.97 input   59.86 | X-H torsion
[ 10167 10162 10161 10158 ] final  149.60 input  -65.29 | X-H torsion
[ 10718 10713 10712 10709 ] final -173.41 input   66.30 | X-H torsion
[ 10763 10752 10751 10750 ] final  167.01 input  -60.55 | X-H torsion
[ 11005 11000 10999 10996 ] final  148.17 input  -57.11 | X-H torsion

> <Gold.Protein.ActiveResidues>
 VAL166  LYS551  ARG553  GLY616  TRP617  ASP618  TYR619  PRO620  LYS621  CYS622 
 ASP623  PHE694  ASN695  SER759  ASP760  ASP761  ALA762  ILE779  LEU786  VAL792 
 PHE793  MET794  SER795  GLU796  ALA797  LYS798  CYS799  TRP800  GLU811  SER814 

> <Gold.Protein.RotatedAtoms>
  151.3558  135.0894  159.9417 H   0  0  0  0  0  0  0  0  0  0  0  0  # atno 6907 bound_to 6896
  152.5175  133.9307  159.7589 H   0  0  0  0  0  0  0  0  0  0  0  0  # atno 6908 bound_to 6896
  150.9692  133.6308  159.2770 H   0  0  0  0  0  0  0  0  0  0  0  0  # atno 6909 bound_to 6896
  145.6270  140.9348  143.1107 H   0  0  0  0  0  0  0  0  0  0  0  0  # atno 7974 bound_to 7965
  156.1943  140.3066  155.9396 H   0  0  0  0  0  0  0  0  0  0  0  0  # atno 8008 bound_to 7997
  155.3101  140.0450  157.3051 H   0  0  0  0  0  0  0  0  0  0  0  0  # atno 8009 bound_to 7997
  154.5491  140.2285  155.8524 H   0  0  0  0  0  0  0  0  0  0  0  0  # atno 8010 bound_to 7997
  139.4860  144.5589  151.7267 H   0  0  0  0  0  0  0  0  0  0  0  0  # atno 10167 bound_to 10162
  156.7699  130.9445  151.3119 H   0  0  0  0  0  0  0  0  0  0  0  0  # atno 10718 bound_to 10713
  154.3476  135.2753  155.2389 H   0  0  0  0  0  0  0  0  0  0  0  0  # atno 10763 bound_to 10752
  154.4633  135.5901  153.6274 H   0  0  0  0  0  0  0  0  0  0  0  0  # atno 10764 bound_to 10752
  152.9852  135.6070  154.3683 H   0  0  0  0  0  0  0  0  0  0  0  0  # atno 10765 bound_to 10752
  140.0937  134.9025  157.1690 H   0  0  0  0  0  0  0  0  0  0  0  0  # atno 11005 bound_to 11000
  144.7208  139.8036  143.7382 LP  0  0  0  0  0  0  0  0  0  0  0  0  # atno 17320 bound_to 7965
  146.1386  139.4438  143.0123 LP  0  0  0  0  0  0  0  0  0  0  0  0  # atno 17321 bound_to 7965
  140.5155  144.0959  150.6007 LP  0  0  0  0  0  0  0  0  0  0  0  0  # atno 17342 bound_to 10162
  140.3899  143.2758  152.0072 LP  0  0  0  0  0  0  0  0  0  0  0  0  # atno 17343 bound_to 10162
  157.6696  130.9038  150.0009 LP  0  0  0  0  0  0  0  0  0  0  0  0  # atno 17370 bound_to 10713
  156.1284  130.3644  149.9771 LP  0  0  0  0  0  0  0  0  0  0  0  0  # atno 17371 bound_to 10713
  140.3316  134.2803  155.7227 LP  0  0  0  0  0  0  0  0  0  0  0  0  # atno 17394 bound_to 11000
  141.2085  133.7774  157.0051 LP  0  0  0  0  0  0  0  0  0  0  0  0  # atno 17395 bound_to 11000

$$$$
