AV-unprocessed.smi:1866|AV-procd|sdf|7557|dock4
  -GOLD-   22720 9273D 1   1.00000     0.00000
 Structure written by MMmdl.
 30 31  0  0  0  0  0  0  0  0  1 V2000
  143.9608  143.8006  162.1074 C   0  0  0  0  0  0  0  0  0  0  0  0
  144.9077  143.3170  161.0627 C   0  0  0  0  0  0  0  0  0  0  0  0
  145.0201  142.0263  160.7257 N   0  0  0  0  0  0  0  0  0  0  0  0
  145.9669  141.8227  159.7314 N   0  0  0  0  0  0  0  0  0  0  0  0
  146.5418  142.9705  159.3462 C   0  0  0  0  0  0  0  0  0  0  0  0
  147.5446  143.0540  158.3443 N   0  0  0  0  0  0  0  0  0  0  0  0
  148.1728  142.0501  157.7075 C   0  0  0  0  0  0  0  0  0  0  0  0
  147.9766  140.8500  157.9009 O   0  0  0  0  0  0  0  0  0  0  0  0
  149.0583  142.5210  156.8177 N   0  0  0  0  0  0  0  0  0  0  0  0
  149.9384  141.7060  155.9825 C   0  0  1  0  0  0  0  0  0  0  0  0
  150.4590  140.4811  156.7587 C   0  0  0  0  0  0  0  0  0  0  0  0
  151.2034  139.5300  155.8172 C   0  0  0  0  0  0  0  0  0  0  0  0
  150.2847  139.0831  154.6687 C   0  0  0  0  0  0  0  0  0  0  0  0
  149.5415  140.1881  154.0616 N   0  0  0  0  0  0  0  0  0  0  0  0
  149.2814  141.3791  154.6293 C   0  0  0  0  0  0  0  0  0  0  0  0
  148.5681  142.2111  154.0707 O   0  0  0  0  0  0  0  0  0  0  0  0
  145.9644  144.4069  160.1735 S   0  0  0  0  0  0  0  0  0  0  0  0
  143.5122  142.9611  162.6395 H   0  0  0  0  0  0  0  0  0  0  0  0
  143.1666  144.3877  161.6463 H   0  0  0  0  0  0  0  0  0  0  0  0
  144.4879  144.4273  162.8270 H   0  0  0  0  0  0  0  0  0  0  0  0
  147.8179  143.9897  158.0833 H   0  0  0  0  0  0  0  0  0  0  0  0
  149.1569  143.5217  156.7292 H   0  0  0  0  0  0  0  0  0  0  0  0
  150.8054  142.3146  155.7181 H   0  0  0  0  0  0  0  0  0  0  0  0
  151.1207  140.7967  157.5661 H   0  0  0  0  0  0  0  0  0  0  0  0
  149.6271  139.9521  157.2259 H   0  0  0  0  0  0  0  0  0  0  0  0
  152.0802  140.0355  155.4101 H   0  0  0  0  0  0  0  0  0  0  0  0
  151.5712  138.6616  156.3643 H   0  0  0  0  0  0  0  0  0  0  0  0
  150.8646  138.5751  153.8982 H   0  0  0  0  0  0  0  0  0  0  0  0
  149.5583  138.3600  155.0414 H   0  0  0  0  0  0  0  0  0  0  0  0
  149.1333  140.0092  153.1553 H   0  0  0  0  0  0  0  0  0  0  0  0
  1  2  1  0  0  0  0
  1 18  1  0  0  0  0
  1 19  1  0  0  0  0
  1 20  1  0  0  0  0
  2 17  1  0  0  0  0
  2  3  2  0  0  0  0
  3  4  1  0  0  0  0
  4  5  2  0  0  0  0
  5  6  1  0  0  0  0
  5 17  1  0  0  0  0
  6  7  1  0  0  0  0
  6 21  1  0  0  0  0
  7  8  2  0  0  0  0
  7  9  1  0  0  0  0
  9 10  1  0  0  0  0
  9 22  1  0  0  0  0
 10 15  1  0  0  0  0
 10 11  1  0  0  0  0
 10 23  1  0  0  0  0
 11 12  1  0  0  0  0
 11 24  1  0  0  0  0
 11 25  1  0  0  0  0
 12 13  1  0  0  0  0
 12 26  1  0  0  0  0
 12 27  1  0  0  0  0
 13 14  1  0  0  0  0
 13 28  1  0  0  0  0
 13 29  1  0  0  0  0
 14 15  1  0  0  0  0
 14 30  1  0  0  0  0
 15 16  2  0  0  0  0
M  END
> <s_m_source_file>
AV-unprocessed.smi

> <i_m_source_file_index>
1866

> <i_lp_mmshare_version>
43012

> <i_f3d_flags>
0

> <s_epik_input>
W0NIM11jMW5uYyhzMSlbTkhdQyg9TylbTkhdW0NAQEhdMltDSDJdW0NIMl1bQ0gyXVtOSF1DMj1P

> <s_epik_cmdline>
J2VwaWtfcHl0aG9uJywgJy1waCcsICc3LjAnLCAnLXRuJywgJzgnLCAnLW1hJywgJzIwMCcsICctbWV0YWxfYmluZGluZycsICctaW1hZScsICc8aW5maWxlLm1hZT4nLCAnLW9tYWUnLCAnPG91dGZpbGUubWFlPic=

> <r_lp_tautomer_probability>
1

> <r_epik_Ionization_Penalty>
0.00093002

> <r_epik_Ionization_Penalty_Charging>
0

> <r_epik_Ionization_Penalty_Neutral>
0.00093002

> <r_epik_State_Penalty>
-0

> <r_epik_Charging_Adjusted_Penalty>
0

> <i_epik_Tot_Q>
0

> <i_epik_Tot_abs_Q>
0

> <r_epik_Metal_State_Penalty>
0.280775

> <b_epik_Metal_Only>
0

> <s_lp_Force_Field>
OPLS_2005

> <r_lp_Energy>
8.18439

> <b_lp_Chiralities_Consistent>
1

> <s_lp_Variant>
AV-unprocessed.smi:1866-2

> <Gold.Version>
5.8.1

> <Gold.Id.Protein>
6NUR|6NUR_protein|mol2

> <Gold.PLP.Fitness>
37.2865

> <Gold.PLP.PLP>
-28.7225

> <Gold.PLP.part.hbond>
-5.9674

> <Gold.PLP.part.metal>
0.0000

> <Gold.PLP.part.buried>
-5.6121

> <Gold.PLP.part.nonpolar>
-19.6610

> <Gold.PLP.part.repulsive>
1.5872

> <Gold.PLP.ligand.clash>
0.0000

> <Gold.PLP.ligand.torsion>
0.3526

> <Gold.PLP.Chemscore.Hbond>
3.0757

> <Gold.PLP.Chemscore.CHOScore>
0.0000

> <Gold.PLP.Chemscore.Metal>
0.0000

> <Gold.Chemscore.Hbonds>
donor molecule, donor type, donor heavy atom, donor atom, acceptor molecule, acceptor atom, score
      L1  H     6    21       P1  8029  0.73
      L1  H     9    22       P1  8028  0.83
      L1  H    14    30       P1  7957  0.77
      P1  H  6934  6946       L1     4  0.65
      P1  H  8011  8017       L1    16  0.19

> <Gold.PLP.Chemscore.Internal.Correction>
0.0422

> <Gold.Rescore>
     Score         DG    S(hbond)    S(metal)    S(lipo)     H(rot)  DE(clash)    DE(int)     intcor
     12.83     -16.00       2.74        0.00      33.71       1.00       0.01       3.16       ----

> <Gold.Chemscore.Fitness>
12.8276

> <Gold.Chemscore.DG>
-16.0022

> <Gold.Chemscore.ZeroCoef>
-5.4800

> <Gold.Chemscore.Hbond>
2.7360

> <Gold.Chemscore.Metal>
0.0000

> <Gold.Chemscore.Lipo>
33.7089

> <Gold.Chemscore.Internal_Hbond>
0.0000

> <Gold.Chemscore.DEClash>
0.0108

> <Gold.Chemscore.DEInternal>
3.1639

> <Gold.Chemscore.Rot>
1.0000

> <Gold.Chemscore.Internal.Correction>
   9.000000E+99

> <Gold.Chemscore.Hbonds>
donor molecule, donor type, donor heavy atom, donor atom, acceptor molecule, acceptor atom, score
      L1  H     6    21       P1  8029  0.14
      L1  H     9    22       P1  8028  0.75
      L1  H    14    30       P1  7957  0.73
      P1  H  6934  6946       L1     4  0.05
      P1  H  8011  8017       L1    16  0.03

> <Gold.Chemscore.Hbond.Weighted>
-9.1383

> <Gold.Chemscore.Metal.Weighted>
-0.0000

> <Gold.Chemscore.Lipo.Weighted>
-3.9439

> <Gold.Chemscore.Internal_Hbond.Weighted>
0.0000

> <Gold.Chemscore.DEClash.Weighted>
0.0108

> <Gold.Chemscore.DEInternal.Weighted>
3.1639

> <Gold.Chemscore.Rot.Weighted>
2.5600

> <Gold.Chemscore.Internal.Correction.Weighted>
   9.000000E+99

> <Gold.Protein.RotatedTorsions>
[ 6907 6896 6895 6894 ] final  171.70 input  -60.11 | X-H torsion
[ 7974 7965 7964 7962 ] final   92.78 input  175.53 | X-H torsion
[ 8008 7997 7996 7995 ] final   50.59 input   59.86 | X-H torsion
[ 10167 10162 10161 10158 ] final  131.09 input  -65.29 | X-H torsion
[ 10718 10713 10712 10709 ] final   13.58 input   66.30 | X-H torsion
[ 10763 10752 10751 10750 ] final  -14.82 input  -60.55 | X-H torsion
[ 11005 11000 10999 10996 ] final -118.70 input  -57.11 | X-H torsion

> <Gold.Protein.ActiveResidues>
 VAL166  LYS551  ARG553  GLY616  TRP617  ASP618  TYR619  PRO620  LYS621  CYS622 
 ASP623  PHE694  ASN695  SER759  ASP760  ASP761  ALA762  ILE779  LEU786  VAL792 
 PHE793  MET794  SER795  GLU796  ALA797  LYS798  CYS799  TRP800  GLU811  SER814 

> <Gold.Protein.RotatedAtoms>
  151.7960  133.3364  159.3512 H   0  0  0  0  0  0  0  0  0  0  0  0  # atno 6907 bound_to 6896
  150.7375  134.5798  159.5942 H   0  0  0  0  0  0  0  0  0  0  0  0  # atno 6908 bound_to 6896
  152.3176  134.7421  160.0373 H   0  0  0  0  0  0  0  0  0  0  0  0  # atno 6909 bound_to 6896
  145.4877  139.2277  143.2847 H   0  0  0  0  0  0  0  0  0  0  0  0  # atno 7974 bound_to 7965
  155.4213  140.3446  155.4271 H   0  0  0  0  0  0  0  0  0  0  0  0  # atno 8008 bound_to 7997
  156.1391  140.1537  156.8979 H   0  0  0  0  0  0  0  0  0  0  0  0  # atno 8009 bound_to 7997
  154.4956  140.0829  156.7670 H   0  0  0  0  0  0  0  0  0  0  0  0  # atno 8010 bound_to 7997
  139.5400  144.6721  151.4657 H   0  0  0  0  0  0  0  0  0  0  0  0  # atno 10167 bound_to 10162
  157.0268  130.6177  149.5729 H   0  0  0  0  0  0  0  0  0  0  0  0  # atno 10718 bound_to 10713
  153.5340  135.7014  153.5669 H   0  0  0  0  0  0  0  0  0  0  0  0  # atno 10763 bound_to 10752
  153.3664  135.3956  155.1756 H   0  0  0  0  0  0  0  0  0  0  0  0  # atno 10764 bound_to 10752
  154.8681  135.3801  154.4839 H   0  0  0  0  0  0  0  0  0  0  0  0  # atno 10765 bound_to 10752
  141.0267  134.0042  157.3203 H   0  0  0  0  0  0  0  0  0  0  0  0  # atno 11005 bound_to 11000
  146.2303  140.5668  142.8978 LP  0  0  0  0  0  0  0  0  0  0  0  0  # atno 17320 bound_to 7965
  144.7852  140.5922  143.6578 LP  0  0  0  0  0  0  0  0  0  0  0  0  # atno 17321 bound_to 7965
  140.6625  143.8468  150.6904 LP  0  0  0  0  0  0  0  0  0  0  0  0  # atno 17342 bound_to 10162
  140.1867  143.4070  152.1893 LP  0  0  0  0  0  0  0  0  0  0  0  0  # atno 17343 bound_to 10162
  156.0083  130.5172  150.7905 LP  0  0  0  0  0  0  0  0  0  0  0  0  # atno 17370 bound_to 10713
  157.5208  131.0931  151.0081 LP  0  0  0  0  0  0  0  0  0  0  0  0  # atno 17371 bound_to 10713
  139.9181  135.0198  156.7959 LP  0  0  0  0  0  0  0  0  0  0  0  0  # atno 17394 bound_to 11000
  140.6478  133.9759  155.7739 LP  0  0  0  0  0  0  0  0  0  0  0  0  # atno 17395 bound_to 11000

$$$$
