AV-unprocessed.smi:2084|AV-procd|sdf|8515|dock8
  -GOLD-   2272011233D 1   1.00000     0.00000
 Structure written by MMmdl.
 38 39  0  0  0  0  0  0  0  0  3 V2000
  150.0263  135.5474  155.0672 C   0  0  0  0  0  0  0  0  0  0  0  0
  150.0214  136.9569  154.5853 N   0  3  0  0  0  0  0  0  0  0  0  0
  151.3886  137.5325  154.6757 C   0  0  0  0  0  0  0  0  0  0  0  0
  148.9196  137.8388  155.1192 C   0  0  0  0  0  0  0  0  0  0  0  0
  149.1778  138.1473  156.6291 C   0  0  0  0  0  0  0  0  0  0  0  0
  149.0181  136.9850  157.5042 N   0  0  0  0  0  0  0  0  0  0  0  0
  149.2359  136.9387  158.8258 C   0  0  0  0  0  0  0  0  0  0  0  0
  149.6321  137.9421  159.4231 O   0  0  0  0  0  0  0  0  0  0  0  0
  148.9646  135.7335  159.3738 N   0  5  0  0  0  0  0  0  0  0  0  0
  148.3096  135.6603  160.5439 C   0  0  0  0  0  0  0  0  0  0  0  0
  148.1802  136.7004  161.3752 N   0  0  0  0  0  0  0  0  0  0  0  0
  147.4664  136.3972  162.5362 C   0  0  0  0  0  0  0  0  0  0  0  0
  147.0509  135.0933  162.5942 C   0  0  0  0  0  0  0  0  0  0  0  0
  147.5454  134.2025  161.1831 S   0  0  0  0  0  0  0  0  0  0  0  0
  148.8487  139.1742  154.3153 C   0  0  0  0  0  0  0  0  0  0  0  0
  147.5533  139.1314  153.5018 C   0  0  0  0  0  0  0  0  0  0  0  0
  146.6112  138.2832  154.3475 C   0  0  0  0  0  0  0  0  0  0  0  0
  147.5136  137.1959  154.9337 C   0  0  0  0  0  0  0  0  0  0  0  0
  150.3186  135.4706  156.1136 H   0  0  0  0  0  0  0  0  0  0  0  0
  150.7465  134.9644  154.4924 H   0  0  0  0  0  0  0  0  0  0  0  0
  149.0697  135.0437  154.9474 H   0  0  0  0  0  0  0  0  0  0  0  0
  151.6356  137.8173  155.6988 H   0  0  0  0  0  0  0  0  0  0  0  0
  151.5081  138.4021  154.0311 H   0  0  0  0  0  0  0  0  0  0  0  0
  152.1360  136.8109  154.3438 H   0  0  0  0  0  0  0  0  0  0  0  0
  150.2070  138.4638  156.7908 H   0  0  0  0  0  0  0  0  0  0  0  0
  148.5514  138.9801  156.9524 H   0  0  0  0  0  0  0  0  0  0  0  0
  148.6971  136.1330  157.0678 H   0  0  0  0  0  0  0  0  0  0  0  0
  147.3024  137.1717  163.2704 H   0  0  0  0  0  0  0  0  0  0  0  0
  146.4887  134.6044  163.3751 H   0  0  0  0  0  0  0  0  0  0  0  0
  148.7932  140.0384  154.9741 H   0  0  0  0  0  0  0  0  0  0  0  0
  149.7241  139.3693  153.6965 H   0  0  0  0  0  0  0  0  0  0  0  0
  147.1532  140.1257  153.3008 H   0  0  0  0  0  0  0  0  0  0  0  0
  147.7273  138.6431  152.5425 H   0  0  0  0  0  0  0  0  0  0  0  0
  146.1897  138.8909  155.1495 H   0  0  0  0  0  0  0  0  0  0  0  0
  145.7816  137.8745  153.7703 H   0  0  0  0  0  0  0  0  0  0  0  0
  147.5329  136.3579  154.2395 H   0  0  0  0  0  0  0  0  0  0  0  0
  147.1048  136.7982  155.8632 H   0  0  0  0  0  0  0  0  0  0  0  0
  149.8320  136.8870  153.5956 H   0  0  0  0  0  0  0  0  0  0  0  0
  1  2  1  0  0  0  0
  1 19  1  0  0  0  0
  1 20  1  0  0  0  0
  1 21  1  0  0  0  0
  2  3  1  0  0  0  0
  2  4  1  0  0  0  0
  2 38  1  0  0  0  0
  3 22  1  0  0  0  0
  3 23  1  0  0  0  0
  3 24  1  0  0  0  0
  4 18  1  0  0  0  0
  4  5  1  0  0  0  0
  4 15  1  0  0  0  0
  5  6  1  0  0  0  0
  5 25  1  0  0  0  0
  5 26  1  0  0  0  0
  6  7  1  0  0  0  0
  6 27  1  0  0  0  0
  7  8  2  0  0  0  0
  7  9  1  0  0  0  0
  9 10  1  0  0  0  0
 10 14  1  0  0  0  0
 10 11  2  0  0  0  0
 11 12  1  0  0  0  0
 12 13  2  0  0  0  0
 12 28  1  0  0  0  0
 13 14  1  0  0  0  0
 13 29  1  0  0  0  0
 15 16  1  0  0  0  0
 15 30  1  0  0  0  0
 15 31  1  0  0  0  0
 16 17  1  0  0  0  0
 16 32  1  0  0  0  0
 16 33  1  0  0  0  0
 17 18  1  0  0  0  0
 17 34  1  0  0  0  0
 17 35  1  0  0  0  0
 18 36  1  0  0  0  0
 18 37  1  0  0  0  0
M  CHG  1   2   1
M  CHG  1   9  -1
M  END
> <s_m_source_file>
AV-unprocessed.smi

> <i_m_source_file_index>
2084

> <i_lp_mmshare_version>
43012

> <i_f3d_flags>
0

> <s_epik_input>
W0NIMl0xW0NIMl1bQ0gyXVtDSDJdQzEoTihbQ0gzXSlbQ0gzXSlbQ0gyXVtOSF1DKD1PKVtOSF1jMm5bY0hdW2NIXXMy

> <s_epik_cmdline>
J2VwaWtfcHl0aG9uJywgJy1waCcsICc3LjAnLCAnLXRuJywgJzgnLCAnLW1hJywgJzIwMCcsICctbWV0YWxfYmluZGluZycsICctaW1hZScsICc8aW5maWxlLm1hZT4nLCAnLW9tYWUnLCAnPG91dGZpbGUubWFlPic=

> <r_lp_tautomer_probability>
1

> <r_epik_Ionization_Penalty>
7.73928

> <r_epik_Ionization_Penalty_Charging>
6.33943

> <r_epik_Ionization_Penalty_Neutral>
1.39985

> <r_epik_State_Penalty>
6.33766

> <r_epik_Charging_Adjusted_Penalty>
12.6771

> <i_epik_Tot_Q>
0

> <i_epik_Tot_abs_Q>
2

> <r_epik_Metal_State_Penalty>
2.27131

> <b_epik_Metal_Only>
1

> <s_lp_Force_Field>
OPLS_2005

> <r_lp_Energy>
28.85

> <b_lp_Chiralities_Consistent>
1

> <s_lp_Variant>
AV-unprocessed.smi:2084-2

> <Gold.Version>
5.8.1

> <Gold.Id.Protein>
6NUR|6NUR_protein|mol2

> <Gold.PLP.Fitness>
42.8229

> <Gold.PLP.PLP>
-28.7917

> <Gold.PLP.part.hbond>
-4.0413

> <Gold.PLP.part.metal>
0.0000

> <Gold.PLP.part.buried>
-5.2401

> <Gold.PLP.part.nonpolar>
-21.0760

> <Gold.PLP.part.repulsive>
0.0645

> <Gold.PLP.ligand.clash>
0.0000

> <Gold.PLP.ligand.torsion>
0.5481

> <Gold.PLP.Chemscore.Hbond>
5.0000

> <Gold.PLP.Chemscore.CHOScore>
0.0000

> <Gold.PLP.Chemscore.Metal>
0.0000

> <Gold.Chemscore.Hbonds>
donor molecule, donor type, donor heavy atom, donor atom, acceptor molecule, acceptor atom, score
      L1  H     2    38       P1  7948  2.00
      P1  H  6896  6907       L1     9  1.89
      P1  H  6931  6943       L1    11  1.00

> <Gold.PLP.Chemscore.Internal.Correction>
0.1274

> <Gold.Rescore>
     Score         DG    S(hbond)    S(metal)    S(lipo)     H(rot)  DE(clash)    DE(int)     intcor
     12.97     -15.20       2.35        0.00      50.11       1.55       0.04       2.19       ----

> <Gold.Chemscore.Fitness>
12.9684

> <Gold.Chemscore.DG>
-15.1956

> <Gold.Chemscore.ZeroCoef>
-5.4800

> <Gold.Chemscore.Hbond>
2.3451

> <Gold.Chemscore.Metal>
0.0000

> <Gold.Chemscore.Lipo>
50.1091

> <Gold.Chemscore.Internal_Hbond>
0.0000

> <Gold.Chemscore.DEClash>
0.0354

> <Gold.Chemscore.DEInternal>
2.1918

> <Gold.Chemscore.Rot>
1.5546

> <Gold.Chemscore.Internal.Correction>
   9.000000E+99

> <Gold.Chemscore.Hbonds>
donor molecule, donor type, donor heavy atom, donor atom, acceptor molecule, acceptor atom, score
      L1  H     2    38       P1  7948  0.47
      P1  H  6896  6907       L1     9  0.40
      P1  H  6931  6943       L1    11  0.26

> <Gold.Chemscore.Hbond.Weighted>
-7.8327

> <Gold.Chemscore.Metal.Weighted>
-0.0000

> <Gold.Chemscore.Lipo.Weighted>
-5.8628

> <Gold.Chemscore.Internal_Hbond.Weighted>
0.0000

> <Gold.Chemscore.DEClash.Weighted>
0.0354

> <Gold.Chemscore.DEInternal.Weighted>
2.1918

> <Gold.Chemscore.Rot.Weighted>
3.9798

> <Gold.Chemscore.Internal.Correction.Weighted>
   9.000000E+99

> <Gold.Protein.RotatedTorsions>
[ 6907 6896 6895 6894 ] final  -65.89 input  -60.11 | X-H torsion
[ 7974 7965 7964 7962 ] final -136.67 input  175.53 | X-H torsion
[ 8008 7997 7996 7995 ] final   76.96 input   59.86 | X-H torsion
[ 10167 10162 10161 10158 ] final  -38.74 input  -65.29 | X-H torsion
[ 10718 10713 10712 10709 ] final   26.86 input   66.30 | X-H torsion
[ 10763 10752 10751 10750 ] final -150.74 input  -60.55 | X-H torsion
[ 11005 11000 10999 10996 ] final  125.18 input  -57.11 | X-H torsion

> <Gold.Protein.ActiveResidues>
 VAL166  LYS551  ARG553  GLY616  TRP617  ASP618  TYR619  PRO620  LYS621  CYS622 
 ASP623  PHE694  ASN695  SER759  ASP760  ASP761  ALA762  ILE779  LEU786  VAL792 
 PHE793  MET794  SER795  GLU796  ALA797  LYS798  CYS799  TRP800  GLU811  SER814 

> <Gold.Protein.RotatedAtoms>
  150.7497  134.6098  159.6079 H   0  0  0  0  0  0  0  0  0  0  0  0  # atno 6907 bound_to 6896
  152.3435  134.7099  160.0266 H   0  0  0  0  0  0  0  0  0  0  0  0  # atno 6908 bound_to 6896
  151.7543  133.3293  159.3437 H   0  0  0  0  0  0  0  0  0  0  0  0  # atno 6909 bound_to 6896
  144.8907  140.6638  143.5147 H   0  0  0  0  0  0  0  0  0  0  0  0  # atno 7974 bound_to 7965
  155.8348  140.3464  155.5595 H   0  0  0  0  0  0  0  0  0  0  0  0  # atno 8008 bound_to 7997
  155.8203  140.0912  157.1872 H   0  0  0  0  0  0  0  0  0  0  0  0  # atno 8009 bound_to 7997
  154.4004  140.1431  156.3479 H   0  0  0  0  0  0  0  0  0  0  0  0  # atno 8010 bound_to 7997
  140.7084  143.3258  151.2684 H   0  0  0  0  0  0  0  0  0  0  0  0  # atno 10167 bound_to 10162
  157.2125  130.6940  149.6234 H   0  0  0  0  0  0  0  0  0  0  0  0  # atno 10718 bound_to 10713
  154.8100  135.3277  154.7329 H   0  0  0  0  0  0  0  0  0  0  0  0  # atno 10763 bound_to 10752
  153.7980  135.6906  153.4865 H   0  0  0  0  0  0  0  0  0  0  0  0  # atno 10764 bound_to 10752
  153.1873  135.4564  155.0050 H   0  0  0  0  0  0  0  0  0  0  0  0  # atno 10765 bound_to 10752
  139.9394  134.9637  156.8520 H   0  0  0  0  0  0  0  0  0  0  0  0  # atno 11005 bound_to 11000
  145.3788  139.1641  143.4292 LP  0  0  0  0  0  0  0  0  0  0  0  0  # atno 17320 bound_to 7965
  146.3052  140.3867  142.8690 LP  0  0  0  0  0  0  0  0  0  0  0  0  # atno 17321 bound_to 7965
  139.6725  143.9995  152.2761 LP  0  0  0  0  0  0  0  0  0  0  0  0  # atno 17342 bound_to 10162
  139.9598  144.6565  150.8091 LP  0  0  0  0  0  0  0  0  0  0  0  0  # atno 17343 bound_to 10162
  155.9689  130.4546  150.5858 LP  0  0  0  0  0  0  0  0  0  0  0  0  # atno 17370 bound_to 10713
  157.3658  131.0757  151.1599 LP  0  0  0  0  0  0  0  0  0  0  0  0  # atno 17371 bound_to 10713
  140.5991  134.0189  155.7530 LP  0  0  0  0  0  0  0  0  0  0  0  0  # atno 17394 bound_to 11000
  141.1022  133.9750  157.3059 LP  0  0  0  0  0  0  0  0  0  0  0  0  # atno 17395 bound_to 11000

$$$$
