AV-unprocessed.smi:3251|AV-procd|sdf|12435|dock5
  -GOLD-   2272018323D 1   1.00000     0.00000
 Structure written by MMmdl.
 41 42  0  0  0  0  0  0  0  0  2 V2000
  146.9061  139.6930  154.0166 C   0  0  0  0  0  0  0  0  0  0  0  0
  148.4019  139.7346  154.1426 C   0  0  0  0  0  0  0  0  0  0  0  0
  149.2289  140.8697  154.3775 C   0  0  0  0  0  0  0  0  0  0  0  0
  150.5158  140.5663  154.4286 N   0  0  0  0  0  0  0  0  0  0  0  0
  150.5555  139.2314  154.2309 N   0  0  0  0  0  0  0  0  0  0  0  0
  151.8335  138.5434  154.1994 C   0  0  0  0  0  0  0  0  0  0  0  0
  152.5553  138.6262  155.5529 C   0  0  0  0  0  0  0  0  0  0  0  0
  151.6386  138.3102  156.6705 N   0  3  0  0  0  0  0  0  0  0  0  0
  151.5544  139.3401  157.7302 C   0  0  2  0  0  0  0  0  0  0  0  0
  151.1484  140.6826  157.1015 C   0  0  0  0  0  0  0  0  0  0  0  0
  152.8989  139.4906  158.4712 C   0  0  0  0  0  0  0  0  0  0  0  0
  153.8427  138.7696  158.1421 O   0  0  0  0  0  0  0  0  0  0  0  0
  153.0149  140.4121  159.4517 N   0  0  0  0  0  0  0  0  0  0  0  0
  151.9678  141.3221  159.9164 C   0  0  0  0  0  0  0  0  0  0  0  0
  152.6671  142.3225  160.8368 C   0  0  0  0  0  0  0  0  0  0  0  0
  153.8839  141.5674  161.3514 C   0  0  0  0  0  0  0  0  0  0  0  0
  154.2502  140.6258  160.2043 C   0  0  0  0  0  0  0  0  0  0  0  0
  149.2940  138.7036  154.0562 C   0  0  0  0  0  0  0  0  0  0  0  0
  146.4383  140.5786  154.4474 H   0  0  0  0  0  0  0  0  0  0  0  0
  146.4822  138.8271  154.5255 H   0  0  0  0  0  0  0  0  0  0  0  0
  146.5932  139.6388  152.9738 H   0  0  0  0  0  0  0  0  0  0  0  0
  148.9330  141.9002  154.5096 H   0  0  0  0  0  0  0  0  0  0  0  0
  151.6769  137.5050  153.9023 H   0  0  0  0  0  0  0  0  0  0  0  0
  152.4469  139.0020  153.4230 H   0  0  0  0  0  0  0  0  0  0  0  0
  153.3899  137.9251  155.5763 H   0  0  0  0  0  0  0  0  0  0  0  0
  152.9772  139.6245  155.6765 H   0  0  0  0  0  0  0  0  0  0  0  0
  150.7095  138.1752  156.2956 H   0  0  0  0  0  0  0  0  0  0  0  0
  150.7693  139.0294  158.4199 H   0  0  0  0  0  0  0  0  0  0  0  0
  151.0570  141.4683  157.8518 H   0  0  0  0  0  0  0  0  0  0  0  0
  150.1846  140.6020  156.5980 H   0  0  0  0  0  0  0  0  0  0  0  0
  151.8791  141.0160  156.3631 H   0  0  0  0  0  0  0  0  0  0  0  0
  151.4628  141.8360  159.0981 H   0  0  0  0  0  0  0  0  0  0  0  0
  151.2230  140.7522  160.4738 H   0  0  0  0  0  0  0  0  0  0  0  0
  152.9940  143.1865  160.2564 H   0  0  0  0  0  0  0  0  0  0  0  0
  152.0220  142.6837  161.6385 H   0  0  0  0  0  0  0  0  0  0  0  0
  154.7040  142.2281  161.6345 H   0  0  0  0  0  0  0  0  0  0  0  0
  153.6067  140.9836  162.2303 H   0  0  0  0  0  0  0  0  0  0  0  0
  154.6701  139.6911  160.5796 H   0  0  0  0  0  0  0  0  0  0  0  0
  154.9892  141.0906  159.5495 H   0  0  0  0  0  0  0  0  0  0  0  0
  149.1365  137.6492  153.8813 H   0  0  0  0  0  0  0  0  0  0  0  0
  151.9449  137.4425  157.0860 H   0  0  0  0  0  0  0  0  0  0  0  0
  1  2  1  0  0  0  0
  1 19  1  0  0  0  0
  1 20  1  0  0  0  0
  1 21  1  0  0  0  0
  2 18  2  0  0  0  0
  2  3  1  0  0  0  0
  3  4  2  0  0  0  0
  3 22  1  0  0  0  0
  4  5  1  0  0  0  0
  5  6  1  0  0  0  0
  5 18  1  0  0  0  0
  6  7  1  0  0  0  0
  6 23  1  0  0  0  0
  6 24  1  0  0  0  0
  7  8  1  0  0  0  0
  7 25  1  0  0  0  0
  7 26  1  0  0  0  0
  8  9  1  0  0  0  0
  8 27  1  0  0  0  0
  8 41  1  0  0  0  0
  9 10  1  0  0  0  0
  9 11  1  0  0  0  0
  9 28  1  0  0  0  0
 10 29  1  0  0  0  0
 10 30  1  0  0  0  0
 10 31  1  0  0  0  0
 11 12  2  0  0  0  0
 11 13  1  0  0  0  0
 13 17  1  0  0  0  0
 13 14  1  0  0  0  0
 14 15  1  0  0  0  0
 14 32  1  0  0  0  0
 14 33  1  0  0  0  0
 15 16  1  0  0  0  0
 15 34  1  0  0  0  0
 15 35  1  0  0  0  0
 16 17  1  0  0  0  0
 16 36  1  0  0  0  0
 16 37  1  0  0  0  0
 17 38  1  0  0  0  0
 17 39  1  0  0  0  0
 18 40  1  0  0  0  0
M  CHG  1   8   1
M  END
> <s_m_source_file>
AV-unprocessed.smi

> <i_m_source_file_index>
3251

> <i_lp_mmshare_version>
43012

> <i_f3d_flags>
0

> <s_epik_input>
W0NIM11jMVtjSF1ubihbY0hdMSlbQ0gyXVtDSDJdW05IXVtDQEhdKFtDSDNdKUMoPU8pTjJbQ0gyXVtDSDJdW0NIMl1bQ0gyXTI=

> <s_epik_cmdline>
J2VwaWtfcHl0aG9uJywgJy1waCcsICc3LjAnLCAnLXRuJywgJzgnLCAnLW1hJywgJzIwMCcsICctbWV0YWxfYmluZGluZycsICctaW1hZScsICc8aW5maWxlLm1hZT4nLCAnLW9tYWUnLCAnPG91dGZpbGUubWFlPic=

> <r_lp_tautomer_probability>
1

> <r_epik_Ionization_Penalty>
0.203173

> <r_epik_Ionization_Penalty_Charging>
0.203168

> <r_epik_Ionization_Penalty_Neutral>
5.06494e-06

> <r_epik_State_Penalty>
0.193072

> <r_epik_Charging_Adjusted_Penalty>
0.39624

> <i_epik_Tot_Q>
1

> <i_epik_Tot_abs_Q>
1

> <r_epik_Metal_State_Penalty>
0.193587

> <b_epik_Metal_Only>
0

> <s_lp_Force_Field>
OPLS_2005

> <r_lp_Energy>
29.5605

> <b_lp_Chiralities_Consistent>
1

> <s_lp_Variant>
AV-unprocessed.smi:3251-1

> <Gold.Version>
5.8.1

> <Gold.Id.Protein>
6NUR|6NUR_protein|mol2

> <Gold.PLP.Fitness>
43.9900

> <Gold.PLP.PLP>
-36.0726

> <Gold.PLP.part.hbond>
-1.8025

> <Gold.PLP.part.metal>
0.0000

> <Gold.PLP.part.buried>
-2.6084

> <Gold.PLP.part.nonpolar>
-31.5805

> <Gold.PLP.part.repulsive>
0.1749

> <Gold.PLP.ligand.clash>
0.0283

> <Gold.PLP.ligand.torsion>
0.4436

> <Gold.PLP.Chemscore.Hbond>
2.0000

> <Gold.PLP.Chemscore.CHOScore>
0.9344

> <Gold.PLP.Chemscore.Metal>
0.0000

> <Gold.Chemscore.Hbonds>
donor molecule, donor type, donor heavy atom, donor atom, acceptor molecule, acceptor atom, score
      P1  H  7989  7998       L1     4  0.67
      P1  H  7997  8008       L1    12  1.00
      L1  C    18    40       P1  7948  1.00

> <Gold.PLP.Chemscore.Internal.Correction>
0.0296

> <Gold.Rescore>
     Score         DG    S(hbond)    S(metal)    S(lipo)     H(rot)  DE(clash)    DE(int)     intcor
     14.09     -17.22       1.87        0.00      85.56       1.76       0.03       3.10       ----

> <Gold.Chemscore.Fitness>
14.0875

> <Gold.Chemscore.DG>
-17.2183

> <Gold.Chemscore.ZeroCoef>
-5.4800

> <Gold.Chemscore.Hbond>
1.8662

> <Gold.Chemscore.Metal>
0.0000

> <Gold.Chemscore.Lipo>
85.5606

> <Gold.Chemscore.Internal_Hbond>
0.0000

> <Gold.Chemscore.DEClash>
0.0287

> <Gold.Chemscore.DEInternal>
3.1021

> <Gold.Chemscore.Rot>
1.7599

> <Gold.Chemscore.Internal.Correction>
   9.000000E+99

> <Gold.Chemscore.Hbonds>
donor molecule, donor type, donor heavy atom, donor atom, acceptor molecule, acceptor atom, score
      P1  H  7989  7998       L1     4  0.09
      P1  H  7997  8008       L1    12  0.29

> <Gold.Chemscore.Hbond.Weighted>
-6.2330

> <Gold.Chemscore.Metal.Weighted>
-0.0000

> <Gold.Chemscore.Lipo.Weighted>
-10.0106

> <Gold.Chemscore.Internal_Hbond.Weighted>
0.0000

> <Gold.Chemscore.DEClash.Weighted>
0.0287

> <Gold.Chemscore.DEInternal.Weighted>
3.1021

> <Gold.Chemscore.Rot.Weighted>
4.5053

> <Gold.Chemscore.Internal.Correction.Weighted>
   9.000000E+99

> <Gold.Protein.RotatedTorsions>
[ 6907 6896 6895 6894 ] final  161.22 input  -60.11 | X-H torsion
[ 7974 7965 7964 7962 ] final  179.14 input  175.53 | X-H torsion
[ 8008 7997 7996 7995 ] final -110.64 input   59.86 | X-H torsion
[ 10167 10162 10161 10158 ] final  149.14 input  -65.29 | X-H torsion
[ 10718 10713 10712 10709 ] final -172.19 input   66.30 | X-H torsion
[ 10763 10752 10751 10750 ] final  -77.29 input  -60.55 | X-H torsion
[ 11005 11000 10999 10996 ] final -118.18 input  -57.11 | X-H torsion

> <Gold.Protein.ActiveResidues>
 VAL166  LYS551  ARG553  GLY616  TRP617  ASP618  TYR619  PRO620  LYS621  CYS622 
 ASP623  PHE694  ASN695  SER759  ASP760  ASP761  ALA762  ILE779  LEU786  VAL792 
 PHE793  MET794  SER795  GLU796  ALA797  LYS798  CYS799  TRP800  GLU811  SER814 

> <Gold.Protein.RotatedAtoms>
  151.9589  133.3689  159.4027 H   0  0  0  0  0  0  0  0  0  0  0  0  # atno 6907 bound_to 6896
  150.6967  134.4261  159.5236 H   0  0  0  0  0  0  0  0  0  0  0  0  # atno 6908 bound_to 6896
  152.1947  134.8641  160.0565 H   0  0  0  0  0  0  0  0  0  0  0  0  # atno 6909 bound_to 6896
  144.7148  140.0504  143.6435 H   0  0  0  0  0  0  0  0  0  0  0  0  # atno 7974 bound_to 7965
  154.9777  140.0396  157.2263 H   0  0  0  0  0  0  0  0  0  0  0  0  # atno 8008 bound_to 7997
  154.7743  140.2807  155.6091 H   0  0  0  0  0  0  0  0  0  0  0  0  # atno 8009 bound_to 7997
  156.2926  140.2604  156.2553 H   0  0  0  0  0  0  0  0  0  0  0  0  # atno 8010 bound_to 7997
  139.4865  144.5625  151.7205 H   0  0  0  0  0  0  0  0  0  0  0  0  # atno 10167 bound_to 10162
  156.7520  130.9381  151.3115 H   0  0  0  0  0  0  0  0  0  0  0  0  # atno 10718 bound_to 10713
  154.5110  135.5769  153.6605 H   0  0  0  0  0  0  0  0  0  0  0  0  # atno 10763 bound_to 10752
  152.9897  135.6159  154.2879 H   0  0  0  0  0  0  0  0  0  0  0  0  # atno 10764 bound_to 10752
  154.2793  135.2851  155.2683 H   0  0  0  0  0  0  0  0  0  0  0  0  # atno 10765 bound_to 10752
  141.0304  133.9990  157.3152 H   0  0  0  0  0  0  0  0  0  0  0  0  # atno 11005 bound_to 11000
  145.9949  139.3044  143.0962 LP  0  0  0  0  0  0  0  0  0  0  0  0  # atno 17320 bound_to 7965
  145.8860  140.9333  143.0576 LP  0  0  0  0  0  0  0  0  0  0  0  0  # atno 17321 bound_to 7965
  140.5198  144.0897  150.6019 LP  0  0  0  0  0  0  0  0  0  0  0  0  # atno 17342 bound_to 10162
  140.3851  143.2782  152.0125 LP  0  0  0  0  0  0  0  0  0  0  0  0  # atno 17343 bound_to 10162
  157.6773  130.9106  150.0181 LP  0  0  0  0  0  0  0  0  0  0  0  0  # atno 17370 bound_to 10713
  156.1395  130.3642  149.9604 LP  0  0  0  0  0  0  0  0  0  0  0  0  # atno 17371 bound_to 10713
  139.9204  135.0200  156.8042 LP  0  0  0  0  0  0  0  0  0  0  0  0  # atno 17394 bound_to 11000
  140.6417  133.9812  155.7711 LP  0  0  0  0  0  0  0  0  0  0  0  0  # atno 17395 bound_to 11000

$$$$
