AV-unprocessed.smi:1699|AV-procd|sdf|6815|dock4
  -GOLD-   22720 7593D 1   1.00000     0.00000
 Structure written by MMmdl.
 37 38  0  0  0  0  0  0  0  0  1 V2000
  147.7090  133.0174  152.4014 C   0  0  0  0  0  0  0  0  0  0  0  0
  146.3714  132.9626  151.6811 C   0  0  0  0  0  0  0  0  0  0  0  0
  145.7879  131.7080  151.4040 C   0  0  0  0  0  0  0  0  0  0  0  0
  144.5507  131.6590  150.7394 C   0  0  0  0  0  0  0  0  0  0  0  0
  143.9463  132.8747  150.3765 C   0  0  0  0  0  0  0  0  0  0  0  0
  144.4971  134.0778  150.6362 N   0  0  0  0  0  0  0  0  0  0  0  0
  145.6908  134.1430  151.2781 C   0  0  0  0  0  0  0  0  0  0  0  0
  146.3296  135.3767  151.5890 N   0  0  0  0  0  0  0  0  0  0  0  0
  145.7685  136.5424  151.9559 C   0  0  0  0  0  0  0  0  0  0  0  0
  144.5597  136.7500  152.0608 O   0  0  0  0  0  0  0  0  0  0  0  0
  146.7059  137.4702  152.1996 N   0  0  0  0  0  0  0  0  0  0  0  0
  146.4601  138.8442  152.6344 C   0  0  2  0  0  0  0  0  0  0  0  0
  146.8285  139.8079  151.4964 C   0  0  0  0  0  0  0  0  0  0  0  0
  147.2557  139.1362  153.9216 C   0  0  2  0  0  0  0  0  0  0  0  0
  147.3467  140.6193  154.2906 C   0  0  0  0  0  0  0  0  0  0  0  0
  148.6115  140.6543  155.1161 C   0  0  0  0  0  0  0  0  0  0  0  0
  149.4962  139.6659  154.3640 C   0  0  0  0  0  0  0  0  0  0  0  0
  148.6109  138.7119  153.7830 O   0  0  0  0  0  0  0  0  0  0  0  0
  148.0671  132.0181  152.6512 H   0  0  0  0  0  0  0  0  0  0  0  0
  147.6210  133.5825  153.3297 H   0  0  0  0  0  0  0  0  0  0  0  0
  148.4605  133.4957  151.7726 H   0  0  0  0  0  0  0  0  0  0  0  0
  146.2798  130.7919  151.6963 H   0  0  0  0  0  0  0  0  0  0  0  0
  144.0775  130.7147  150.5139 H   0  0  0  0  0  0  0  0  0  0  0  0
  142.9954  132.8826  149.8646 H   0  0  0  0  0  0  0  0  0  0  0  0
  147.3371  135.3646  151.5365 H   0  0  0  0  0  0  0  0  0  0  0  0
  147.6725  137.2040  152.0830 H   0  0  0  0  0  0  0  0  0  0  0  0
  145.4012  138.9809  152.8611 H   0  0  0  0  0  0  0  0  0  0  0  0
  146.6381  140.8433  151.7802 H   0  0  0  0  0  0  0  0  0  0  0  0
  146.2407  139.6014  150.6013 H   0  0  0  0  0  0  0  0  0  0  0  0
  147.8829  139.7251  151.2305 H   0  0  0  0  0  0  0  0  0  0  0  0
  146.8247  138.5899  154.7624 H   0  0  0  0  0  0  0  0  0  0  0  0
  147.4690  141.2322  153.3963 H   0  0  0  0  0  0  0  0  0  0  0  0
  146.4723  140.9784  154.8341 H   0  0  0  0  0  0  0  0  0  0  0  0
  149.0505  141.6496  155.1902 H   0  0  0  0  0  0  0  0  0  0  0  0
  148.4108  140.2905  156.1247 H   0  0  0  0  0  0  0  0  0  0  0  0
  150.0340  140.1710  153.5608 H   0  0  0  0  0  0  0  0  0  0  0  0
  150.2292  139.1872  155.0136 H   0  0  0  0  0  0  0  0  0  0  0  0
  1  2  1  0  0  0  0
  1 19  1  0  0  0  0
  1 20  1  0  0  0  0
  1 21  1  0  0  0  0
  2  7  1  0  0  0  0
  2  3  2  0  0  0  0
  3  4  1  0  0  0  0
  3 22  1  0  0  0  0
  4  5  2  0  0  0  0
  4 23  1  0  0  0  0
  5  6  1  0  0  0  0
  5 24  1  0  0  0  0
  6  7  2  0  0  0  0
  7  8  1  0  0  0  0
  8  9  1  0  0  0  0
  8 25  1  0  0  0  0
  9 10  2  0  0  0  0
  9 11  1  0  0  0  0
 11 12  1  0  0  0  0
 11 26  1  0  0  0  0
 12 13  1  0  0  0  0
 12 14  1  0  0  0  0
 12 27  1  0  0  0  0
 13 28  1  0  0  0  0
 13 29  1  0  0  0  0
 13 30  1  0  0  0  0
 14 18  1  0  0  0  0
 14 15  1  0  0  0  0
 14 31  1  0  0  0  0
 15 16  1  0  0  0  0
 15 32  1  0  0  0  0
 15 33  1  0  0  0  0
 16 17  1  0  0  0  0
 16 34  1  0  0  0  0
 16 35  1  0  0  0  0
 17 18  1  0  0  0  0
 17 36  1  0  0  0  0
 17 37  1  0  0  0  0
M  END
> <s_m_source_file>
AV-unprocessed.smi

> <i_m_source_file_index>
1699

> <i_lp_mmshare_version>
43012

> <i_f3d_flags>
0

> <s_epik_input>
W0NIM11jMVtjSF1bY0hdW2NIXW5jMVtOSF1DKD1PKVtOSF1bQ0BIXShbQ0gzXSlbQ0BASF0yW0NIMl1bQ0gyXVtDSDJdTzI=

> <s_epik_cmdline>
J2VwaWtfcHl0aG9uJywgJy1waCcsICc3LjAnLCAnLXRuJywgJzgnLCAnLW1hJywgJzIwMCcsICctbWV0YWxfYmluZGluZycsICctaW1hZScsICc8aW5maWxlLm1hZT4nLCAnLW9tYWUnLCAnPG91dGZpbGUubWFlPic=

> <r_lp_tautomer_probability>
1

> <r_epik_Ionization_Penalty>
5.52788e-05

> <r_epik_Ionization_Penalty_Charging>
0

> <r_epik_Ionization_Penalty_Neutral>
5.52788e-05

> <r_epik_State_Penalty>
-0

> <r_epik_Charging_Adjusted_Penalty>
0

> <i_epik_Tot_Q>
0

> <i_epik_Tot_abs_Q>
0

> <r_epik_Metal_State_Penalty>
-0

> <b_epik_Metal_Only>
0

> <s_lp_Force_Field>
OPLS_2005

> <r_lp_Energy>
20.4349

> <b_lp_Chiralities_Consistent>
1

> <s_lp_Variant>
AV-unprocessed.smi:1699-1

> <Gold.Version>
5.8.1

> <Gold.Id.Protein>
6NUR|6NUR_protein|mol2

> <Gold.PLP.Fitness>
38.2372

> <Gold.PLP.PLP>
-30.2310

> <Gold.PLP.part.hbond>
-2.0000

> <Gold.PLP.part.metal>
0.0000

> <Gold.PLP.part.buried>
-2.4797

> <Gold.PLP.part.nonpolar>
-28.3201

> <Gold.PLP.part.repulsive>
1.7824

> <Gold.PLP.ligand.clash>
0.0000

> <Gold.PLP.ligand.torsion>
0.4984

> <Gold.PLP.Chemscore.Hbond>
2.0000

> <Gold.PLP.Chemscore.CHOScore>
0.9970

> <Gold.PLP.Chemscore.Metal>
0.0000

> <Gold.Chemscore.Hbonds>
donor molecule, donor type, donor heavy atom, donor atom, acceptor molecule, acceptor atom, score
      L1  H     8    25       P1  7948  1.00
      L1  H    11    26       P1  7948  1.00
      L1  C     5    24       P1 10186  1.00

> <Gold.PLP.Chemscore.Internal.Correction>
0.0118

> <Gold.Rescore>
     Score         DG    S(hbond)    S(metal)    S(lipo)     H(rot)  DE(clash)    DE(int)     intcor
     15.83     -18.08       1.91        0.00      79.76       1.22       0.89       1.36       ----

> <Gold.Chemscore.Fitness>
15.8322

> <Gold.Chemscore.DG>
-18.0847

> <Gold.Chemscore.ZeroCoef>
-5.4800

> <Gold.Chemscore.Hbond>
1.9148

> <Gold.Chemscore.Metal>
0.0000

> <Gold.Chemscore.Lipo>
79.7630

> <Gold.Chemscore.Internal_Hbond>
0.0000

> <Gold.Chemscore.DEClash>
0.8895

> <Gold.Chemscore.DEInternal>
1.3629

> <Gold.Chemscore.Rot>
1.2200

> <Gold.Chemscore.Internal.Correction>
   9.000000E+99

> <Gold.Chemscore.Hbonds>
donor molecule, donor type, donor heavy atom, donor atom, acceptor molecule, acceptor atom, score
      L1  H     8    25       P1  7948  0.88
      L1  H    11    26       P1  7948  0.98

> <Gold.Chemscore.Hbond.Weighted>
-6.3956

> <Gold.Chemscore.Metal.Weighted>
-0.0000

> <Gold.Chemscore.Lipo.Weighted>
-9.3323

> <Gold.Chemscore.Internal_Hbond.Weighted>
0.0000

> <Gold.Chemscore.DEClash.Weighted>
0.8895

> <Gold.Chemscore.DEInternal.Weighted>
1.3629

> <Gold.Chemscore.Rot.Weighted>
3.1232

> <Gold.Chemscore.Internal.Correction.Weighted>
   9.000000E+99

> <Gold.Protein.RotatedTorsions>
[ 6907 6896 6895 6894 ] final -105.82 input  -60.11 | X-H torsion
[ 7974 7965 7964 7962 ] final  -91.02 input  175.53 | X-H torsion
[ 8008 7997 7996 7995 ] final   79.83 input   59.86 | X-H torsion
[ 10167 10162 10161 10158 ] final   75.48 input  -65.29 | X-H torsion
[ 10718 10713 10712 10709 ] final -126.23 input   66.30 | X-H torsion
[ 10763 10752 10751 10750 ] final   31.03 input  -60.55 | X-H torsion
[ 11005 11000 10999 10996 ] final  -92.57 input  -57.11 | X-H torsion

> <Gold.Protein.ActiveResidues>
 VAL166  LYS551  ARG553  GLY616  TRP617  ASP618  TYR619  PRO620  LYS621  CYS622 
 ASP623  PHE694  ASN695  SER759  ASP760  ASP761  ALA762  ILE779  LEU786  VAL792 
 PHE793  MET794  SER795  GLU796  ALA797  LYS798  CYS799  TRP800  GLU811  SER814 

> <Gold.Protein.RotatedAtoms>
  150.7357  134.0069  159.3656 H   0  0  0  0  0  0  0  0  0  0  0  0  # atno 6907 bound_to 6896
  151.8026  135.0702  160.0411 H   0  0  0  0  0  0  0  0  0  0  0  0  # atno 6908 bound_to 6896
  152.3130  133.5736  159.5729 H   0  0  0  0  0  0  0  0  0  0  0  0  # atno 6909 bound_to 6896
  145.4187  140.9550  143.2193 H   0  0  0  0  0  0  0  0  0  0  0  0  # atno 7974 bound_to 7965
  155.8751  140.3447  155.5848 H   0  0  0  0  0  0  0  0  0  0  0  0  # atno 8008 bound_to 7997
  155.7783  140.0855  157.2092 H   0  0  0  0  0  0  0  0  0  0  0  0  # atno 8009 bound_to 7997
  154.4020  140.1505  156.3009 H   0  0  0  0  0  0  0  0  0  0  0  0  # atno 8010 bound_to 7997
  140.0026  144.5675  150.7725 H   0  0  0  0  0  0  0  0  0  0  0  0  # atno 10167 bound_to 10162
  156.1746  130.6691  151.0226 H   0  0  0  0  0  0  0  0  0  0  0  0  # atno 10718 bound_to 10713
  153.0338  135.6449  154.1137 H   0  0  0  0  0  0  0  0  0  0  0  0  # atno 10763 bound_to 10752
  154.0855  135.2870  155.3283 H   0  0  0  0  0  0  0  0  0  0  0  0  # atno 10764 bound_to 10752
  154.6501  135.5429  153.7955 H   0  0  0  0  0  0  0  0  0  0  0  0  # atno 10765 bound_to 10752
  141.1519  133.7829  157.0038 H   0  0  0  0  0  0  0  0  0  0  0  0  # atno 11005 bound_to 11000
  144.8260  139.5709  143.6965 LP  0  0  0  0  0  0  0  0  0  0  0  0  # atno 17320 bound_to 7965
  146.2668  139.6538  142.9324 LP  0  0  0  0  0  0  0  0  0  0  0  0  # atno 17321 bound_to 7965
  140.7413  143.2816  151.3582 LP  0  0  0  0  0  0  0  0  0  0  0  0  # atno 17342 bound_to 10162
  139.6261  144.0811  152.2435 LP  0  0  0  0  0  0  0  0  0  0  0  0  # atno 17343 bound_to 10162
  157.6827  131.0833  150.7327 LP  0  0  0  0  0  0  0  0  0  0  0  0  # atno 17370 bound_to 10713
  156.7385  130.4731  149.5483 LP  0  0  0  0  0  0  0  0  0  0  0  0  # atno 17371 bound_to 10713
  140.0922  134.9585  157.1794 LP  0  0  0  0  0  0  0  0  0  0  0  0  # atno 17394 bound_to 11000
  140.3430  134.2683  155.7209 LP  0  0  0  0  0  0  0  0  0  0  0  0  # atno 17395 bound_to 11000

$$$$
