AV-unprocessed.smi:1147|AV-procd|sdf|4888|dock6
  -GOLD-   22720 3463D 1   1.00000     0.00000
 Structure written by MMmdl.
 41 42  0  0  0  0  0  0  0  0  1 V2000
  151.1317  140.8227  156.9032 C   0  0  0  0  0  0  0  0  0  0  0  0
  151.2160  139.9300  155.6632 C   0  0  0  0  0  0  0  0  0  0  0  0
  152.2723  139.9206  155.0308 O   0  0  0  0  0  0  0  0  0  0  0  0
  150.1404  139.1885  155.3041 N   0  0  0  0  0  0  0  0  0  0  0  0
  150.0864  138.2597  154.1632 C   0  0  0  0  0  0  0  0  0  0  0  0
  149.8376  136.8311  154.6871 C   0  0  0  0  0  0  0  0  0  0  0  0
  148.5765  136.8173  155.4524 N   0  0  0  0  0  0  0  0  0  0  0  0
  147.4165  136.2188  155.0814 C   0  0  0  0  0  0  0  0  0  0  0  0
  146.5321  135.9079  155.8806 O   0  0  0  0  0  0  0  0  0  0  0  0
  147.3170  135.9529  153.7674 N   0  0  0  0  0  0  0  0  0  0  0  0
  146.1856  135.3047  153.1097 C   0  0  1  0  0  0  0  0  0  0  0  0
  145.4742  136.3024  152.1772 C   0  0  0  0  0  0  0  0  0  0  0  0
  146.6848  134.0405  152.3818 C   0  0  0  0  0  0  0  0  0  0  0  0
  145.6288  133.3539  151.6592 N   0  0  0  0  0  0  0  0  0  0  0  0
  145.7278  132.2310  150.8650 C   0  0  0  0  0  0  0  0  0  0  0  0
  144.4754  131.9510  150.3988 C   0  0  0  0  0  0  0  0  0  0  0  0
  143.6666  132.9740  150.9683 C   0  0  0  0  0  0  0  0  0  0  0  0
  144.3601  133.8139  151.7197 N   0  0  0  0  0  0  0  0  0  0  0  0
  148.6496  137.7326  156.6010 C   0  0  0  0  0  0  0  0  0  0  0  0
  148.8940  139.1649  156.0857 C   0  0  0  0  0  0  0  0  0  0  0  0
  150.3436  141.5678  156.7907 H   0  0  0  0  0  0  0  0  0  0  0  0
  152.0712  141.3543  157.0584 H   0  0  0  0  0  0  0  0  0  0  0  0
  150.9354  140.2282  157.7958 H   0  0  0  0  0  0  0  0  0  0  0  0
  149.2759  138.5617  153.4980 H   0  0  0  0  0  0  0  0  0  0  0  0
  150.9864  138.2651  153.5507 H   0  0  0  0  0  0  0  0  0  0  0  0
  149.8572  136.1331  153.8505 H   0  0  0  0  0  0  0  0  0  0  0  0
  150.6554  136.5245  155.3415 H   0  0  0  0  0  0  0  0  0  0  0  0
  148.0885  136.2247  153.1757 H   0  0  0  0  0  0  0  0  0  0  0  0
  145.4730  134.9861  153.8730 H   0  0  0  0  0  0  0  0  0  0  0  0
  144.5809  135.8650  151.7310 H   0  0  0  0  0  0  0  0  0  0  0  0
  146.1295  136.6214  151.3661 H   0  0  0  0  0  0  0  0  0  0  0  0
  145.1575  137.1941  152.7190 H   0  0  0  0  0  0  0  0  0  0  0  0
  147.4840  134.2950  151.6832 H   0  0  0  0  0  0  0  0  0  0  0  0
  147.1117  133.3381  153.0991 H   0  0  0  0  0  0  0  0  0  0  0  0
  146.6706  131.7296  150.7020 H   0  0  0  0  0  0  0  0  0  0  0  0
  144.1818  131.1394  149.7498 H   0  0  0  0  0  0  0  0  0  0  0  0
  142.6037  133.1306  150.8579 H   0  0  0  0  0  0  0  0  0  0  0  0
  147.7494  137.7109  157.2168 H   0  0  0  0  0  0  0  0  0  0  0  0
  149.4646  137.4231  157.2571 H   0  0  0  0  0  0  0  0  0  0  0  0
  148.9105  139.8547  156.9302 H   0  0  0  0  0  0  0  0  0  0  0  0
  148.0659  139.4861  155.4521 H   0  0  0  0  0  0  0  0  0  0  0  0
  1  2  1  0  0  0  0
  1 21  1  0  0  0  0
  1 22  1  0  0  0  0
  1 23  1  0  0  0  0
  2  3  2  0  0  0  0
  2  4  1  0  0  0  0
  4 20  1  0  0  0  0
  4  5  1  0  0  0  0
  5  6  1  0  0  0  0
  5 24  1  0  0  0  0
  5 25  1  0  0  0  0
  6  7  1  0  0  0  0
  6 26  1  0  0  0  0
  6 27  1  0  0  0  0
  7  8  1  0  0  0  0
  7 19  1  0  0  0  0
  8  9  2  0  0  0  0
  8 10  1  0  0  0  0
 10 11  1  0  0  0  0
 10 28  1  0  0  0  0
 11 12  1  0  0  0  0
 11 13  1  0  0  0  0
 11 29  1  0  0  0  0
 12 30  1  0  0  0  0
 12 31  1  0  0  0  0
 12 32  1  0  0  0  0
 13 14  1  0  0  0  0
 13 33  1  0  0  0  0
 13 34  1  0  0  0  0
 14 18  1  0  0  0  0
 14 15  1  0  0  0  0
 15 16  2  0  0  0  0
 15 35  1  0  0  0  0
 16 17  1  0  0  0  0
 16 36  1  0  0  0  0
 17 18  2  0  0  0  0
 17 37  1  0  0  0  0
 19 20  1  0  0  0  0
 19 38  1  0  0  0  0
 19 39  1  0  0  0  0
 20 40  1  0  0  0  0
 20 41  1  0  0  0  0
M  END
> <s_m_source_file>
AV-unprocessed.smi

> <i_m_source_file_index>
1147

> <i_lp_mmshare_version>
43012

> <i_f3d_flags>
0

> <s_epik_input>
W0NIM11DKD1PKU4xW0NIMl1bQ0gyXU4oW0NIMl1bQ0gyXTEpQyg9TylbTkhdW0NASF0oW0NIM10pW0NIMl1uMltjSF1bY0hdW2NIXW4y

> <s_epik_cmdline>
J2VwaWtfcHl0aG9uJywgJy1waCcsICc3LjAnLCAnLXRuJywgJzgnLCAnLW1hJywgJzIwMCcsICctbWV0YWxfYmluZGluZycsICctaW1hZScsICc8aW5maWxlLm1hZT4nLCAnLW9tYWUnLCAnPG91dGZpbGUubWFlPic=

> <r_lp_tautomer_probability>
1

> <r_epik_Ionization_Penalty>
5.58143e-05

> <r_epik_Ionization_Penalty_Charging>
0

> <r_epik_Ionization_Penalty_Neutral>
5.58143e-05

> <r_epik_State_Penalty>
-0

> <r_epik_Charging_Adjusted_Penalty>
0

> <i_epik_Tot_Q>
0

> <i_epik_Tot_abs_Q>
0

> <r_epik_Metal_State_Penalty>
-0

> <b_epik_Metal_Only>
0

> <s_lp_Force_Field>
OPLS_2005

> <r_lp_Energy>
47.733

> <b_lp_Chiralities_Consistent>
1

> <s_lp_Variant>
AV-unprocessed.smi:1147-2

> <Gold.Version>
5.8.1

> <Gold.Id.Protein>
6NUR|6NUR_protein|mol2

> <Gold.PLP.Fitness>
37.1572

> <Gold.PLP.PLP>
-26.7165

> <Gold.PLP.part.hbond>
-2.0000

> <Gold.PLP.part.metal>
0.0000

> <Gold.PLP.part.buried>
-2.1637

> <Gold.PLP.part.nonpolar>
-23.1735

> <Gold.PLP.part.repulsive>
0.1578

> <Gold.PLP.ligand.clash>
0.0000

> <Gold.PLP.ligand.torsion>
0.3271

> <Gold.PLP.Chemscore.Hbond>
1.6840

> <Gold.PLP.Chemscore.CHOScore>
1.9996

> <Gold.PLP.Chemscore.Metal>
0.0000

> <Gold.Chemscore.Hbonds>
donor molecule, donor type, donor heavy atom, donor atom, acceptor molecule, acceptor atom, score
      L1  H    10    28       P1  7948  1.00
      P1  H  7989  7998       L1     3  0.65
      L1  C    15    35       P1 10747  1.00
      L1  C    17    37       P1 10186  1.00

> <Gold.PLP.Chemscore.Internal.Correction>
0.0441

> <Gold.Rescore>
     Score         DG    S(hbond)    S(metal)    S(lipo)     H(rot)  DE(clash)    DE(int)     intcor
     12.73     -14.79       1.91        0.00      57.07       1.46       0.23       1.84       ----

> <Gold.Chemscore.Fitness>
12.7269

> <Gold.Chemscore.DG>
-14.7926

> <Gold.Chemscore.ZeroCoef>
-5.4800

> <Gold.Chemscore.Hbond>
1.9111

> <Gold.Chemscore.Metal>
0.0000

> <Gold.Chemscore.Lipo>
57.0713

> <Gold.Chemscore.Internal_Hbond>
0.0000

> <Gold.Chemscore.DEClash>
0.2277

> <Gold.Chemscore.DEInternal>
1.8380

> <Gold.Chemscore.Rot>
1.4640

> <Gold.Chemscore.Internal.Correction>
   9.000000E+99

> <Gold.Chemscore.Hbonds>
donor molecule, donor type, donor heavy atom, donor atom, acceptor molecule, acceptor atom, score
      L1  H    10    28       P1  7948  0.95
      P1  H  7989  7998       L1     3  0.13

> <Gold.Chemscore.Hbond.Weighted>
-6.3830

> <Gold.Chemscore.Metal.Weighted>
-0.0000

> <Gold.Chemscore.Lipo.Weighted>
-6.6773

> <Gold.Chemscore.Internal_Hbond.Weighted>
0.0000

> <Gold.Chemscore.DEClash.Weighted>
0.2277

> <Gold.Chemscore.DEInternal.Weighted>
1.8380

> <Gold.Chemscore.Rot.Weighted>
3.7477

> <Gold.Chemscore.Internal.Correction.Weighted>
   9.000000E+99

> <Gold.Protein.RotatedTorsions>
[ 6907 6896 6895 6894 ] final   -3.34 input  -60.11 | X-H torsion
[ 7974 7965 7964 7962 ] final   40.53 input  175.53 | X-H torsion
[ 8008 7997 7996 7995 ] final  -57.17 input   59.86 | X-H torsion
[ 10167 10162 10161 10158 ] final -106.15 input  -65.29 | X-H torsion
[ 10718 10713 10712 10709 ] final -134.04 input   66.30 | X-H torsion
[ 10763 10752 10751 10750 ] final -126.14 input  -60.55 | X-H torsion
[ 11005 11000 10999 10996 ] final  -47.37 input  -57.11 | X-H torsion

> <Gold.Protein.ActiveResidues>
 VAL166  LYS551  ARG553  GLY616  TRP617  ASP618  TYR619  PRO620  LYS621  CYS622 
 ASP623  PHE694  ASN695  SER759  ASP760  ASP761  ALA762  ILE779  LEU786  VAL792 
 PHE793  MET794  SER795  GLU796  ALA797  LYS798  CYS799  TRP800  GLU811  SER814 

> <Gold.Protein.RotatedAtoms>
  151.5154  135.1066  159.9864 H   0  0  0  0  0  0  0  0  0  0  0  0  # atno 6907 bound_to 6896
  152.4643  133.7886  159.6900 H   0  0  0  0  0  0  0  0  0  0  0  0  # atno 6908 bound_to 6896
  150.8620  133.7566  159.3014 H   0  0  0  0  0  0  0  0  0  0  0  0  # atno 6909 bound_to 6896
  146.0897  139.5522  142.9484 H   0  0  0  0  0  0  0  0  0  0  0  0  # atno 7974 bound_to 7965
  154.4258  140.1113  156.5755 H   0  0  0  0  0  0  0  0  0  0  0  0  # atno 8008 bound_to 7997
  155.6167  140.3495  155.4620 H   0  0  0  0  0  0  0  0  0  0  0  0  # atno 8009 bound_to 7997
  156.0056  140.1208  157.0494 H   0  0  0  0  0  0  0  0  0  0  0  0  # atno 8010 bound_to 7997
  140.1909  143.3893  152.1207 H   0  0  0  0  0  0  0  0  0  0  0  0  # atno 10167 bound_to 10162
  156.2513  130.7154  151.1054 H   0  0  0  0  0  0  0  0  0  0  0  0  # atno 10718 bound_to 10713
  154.8743  135.4006  154.3382 H   0  0  0  0  0  0  0  0  0  0  0  0  # atno 10763 bound_to 10752
  153.4185  135.7022  153.6315 H   0  0  0  0  0  0  0  0  0  0  0  0  # atno 10764 bound_to 10752
  153.4988  135.3732  155.2499 H   0  0  0  0  0  0  0  0  0  0  0  0  # atno 10765 bound_to 10752
  141.0636  133.6701  156.3288 H   0  0  0  0  0  0  0  0  0  0  0  0  # atno 11005 bound_to 11000
  145.6062  141.0347  143.1991 LP  0  0  0  0  0  0  0  0  0  0  0  0  # atno 17320 bound_to 7965
  144.7351  139.7609  143.7332 LP  0  0  0  0  0  0  0  0  0  0  0  0  # atno 17321 bound_to 7965
  139.5256  144.7098  151.5241 LP  0  0  0  0  0  0  0  0  0  0  0  0  # atno 17342 bound_to 10162
  140.6456  143.8800  150.6734 LP  0  0  0  0  0  0  0  0  0  0  0  0  # atno 17343 bound_to 10162
  157.7215  131.0678  150.6114 LP  0  0  0  0  0  0  0  0  0  0  0  0  # atno 17370 bound_to 10713
  156.6195  130.4402  149.5828 LP  0  0  0  0  0  0  0  0  0  0  0  0  # atno 17371 bound_to 10713
  140.5818  134.5738  157.5481 LP  0  0  0  0  0  0  0  0  0  0  0  0  # atno 17394 bound_to 11000
  139.9456  134.7709  156.0571 LP  0  0  0  0  0  0  0  0  0  0  0  0  # atno 17395 bound_to 11000

$$$$
