AV-unprocessed.smi:3326|AV-procd|sdf|12785|dock5
  -GOLD-   2272019133D 1   1.00000     0.00000
 Structure written by MMmdl.
 30 31  0  0  0  0  0  0  0  0  1 V2000
  154.5046  140.5343  162.7145 F   0  0  0  0  0  0  0  0  0  0  0  0
  154.1046  140.4128  161.4480 C   0  0  0  0  0  0  0  0  0  0  0  0
  155.1836  140.2046  160.6928 F   0  0  0  0  0  0  0  0  0  0  0  0
  153.3068  139.3478  161.3671 F   0  0  0  0  0  0  0  0  0  0  0  0
  153.3639  141.6584  160.9670 C   0  0  0  0  0  0  0  0  0  0  0  0
  153.1952  142.7668  161.8281 C   0  0  0  0  0  0  0  0  0  0  0  0
  152.5134  143.9057  161.3626 C   0  0  0  0  0  0  0  0  0  0  0  0
  152.0215  143.8953  160.0456 C   0  0  0  0  0  0  0  0  0  0  0  0
  152.1732  142.8470  159.2111 N   0  0  0  0  0  0  0  0  0  0  0  0
  152.8311  141.7478  159.6541 C   0  0  0  0  0  0  0  0  0  0  0  0
  152.9729  140.6665  158.7682 N   0  0  0  0  0  0  0  0  0  0  0  0
  151.8119  140.0420  158.1453 C   0  0  0  0  0  0  0  0  0  0  0  0
  151.9372  139.9808  156.6146 C   0  0  2  0  0  0  0  0  0  0  0  0
  150.6511  139.5524  155.9145 C   0  0  0  0  0  0  0  0  0  0  0  0
  151.1823  139.0460  154.5925 C   0  0  0  0  0  0  0  0  0  0  0  0
  152.4913  138.3758  155.0060 C   0  0  0  0  0  0  0  0  0  0  0  0
  152.8859  138.9896  156.2313 O   0  0  0  0  0  0  0  0  0  0  0  0
  153.5810  142.7557  162.8365 H   0  0  0  0  0  0  0  0  0  0  0  0
  152.3713  144.7658  162.0001 H   0  0  0  0  0  0  0  0  0  0  0  0
  151.4920  144.7501  159.6517 H   0  0  0  0  0  0  0  0  0  0  0  0
  153.8659  140.5353  158.3151 H   0  0  0  0  0  0  0  0  0  0  0  0
  151.7062  139.0343  158.5479 H   0  0  0  0  0  0  0  0  0  0  0  0
  150.9063  140.5777  158.4313 H   0  0  0  0  0  0  0  0  0  0  0  0
  152.2573  140.9416  156.2079 H   0  0  0  0  0  0  0  0  0  0  0  0
  150.1672  138.7404  156.4596 H   0  0  0  0  0  0  0  0  0  0  0  0
  149.9350  140.3671  155.8047 H   0  0  0  0  0  0  0  0  0  0  0  0
  150.4968  138.3672  154.0847 H   0  0  0  0  0  0  0  0  0  0  0  0
  151.3858  139.8865  153.9275 H   0  0  0  0  0  0  0  0  0  0  0  0
  152.3400  137.3111  155.1857 H   0  0  0  0  0  0  0  0  0  0  0  0
  153.2637  138.4837  154.2437 H   0  0  0  0  0  0  0  0  0  0  0  0
  1  2  1  0  0  0  0
  2  3  1  0  0  0  0
  2  4  1  0  0  0  0
  2  5  1  0  0  0  0
  5 10  1  0  0  0  0
  5  6  2  0  0  0  0
  6  7  1  0  0  0  0
  6 18  1  0  0  0  0
  7  8  2  0  0  0  0
  7 19  1  0  0  0  0
  8  9  1  0  0  0  0
  8 20  1  0  0  0  0
  9 10  2  0  0  0  0
 10 11  1  0  0  0  0
 11 12  1  0  0  0  0
 11 21  1  0  0  0  0
 12 13  1  0  0  0  0
 12 22  1  0  0  0  0
 12 23  1  0  0  0  0
 13 17  1  0  0  0  0
 13 14  1  0  0  0  0
 13 24  1  0  0  0  0
 14 15  1  0  0  0  0
 14 25  1  0  0  0  0
 14 26  1  0  0  0  0
 15 16  1  0  0  0  0
 15 27  1  0  0  0  0
 15 28  1  0  0  0  0
 16 17  1  0  0  0  0
 16 29  1  0  0  0  0
 16 30  1  0  0  0  0
M  END
> <s_m_source_file>
AV-unprocessed.smi

> <i_m_source_file_index>
3326

> <i_lp_mmshare_version>
43012

> <i_f3d_flags>
0

> <s_epik_input>
RkMoRikoRiljMVtjSF1bY0hdW2NIXW5jMVtOSF1bQ0gyXVtDQEBIXTJbQ0gyXVtDSDJdW0NIMl1PMg==

> <s_epik_cmdline>
J2VwaWtfcHl0aG9uJywgJy1waCcsICc3LjAnLCAnLXRuJywgJzgnLCAnLW1hJywgJzIwMCcsICctbWV0YWxfYmluZGluZycsICctaW1hZScsICc8aW5maWxlLm1hZT4nLCAnLW9tYWUnLCAnPG91dGZpbGUubWFlPic=

> <r_lp_tautomer_probability>
1

> <r_epik_Ionization_Penalty>
0.000820218

> <r_epik_Ionization_Penalty_Charging>
0

> <r_epik_Ionization_Penalty_Neutral>
0.000820218

> <r_epik_State_Penalty>
0.000527207

> <r_epik_Charging_Adjusted_Penalty>
0.000527207

> <i_epik_Tot_Q>
0

> <i_epik_Tot_abs_Q>
0

> <r_epik_Metal_State_Penalty>
-0

> <b_epik_Metal_Only>
0

> <s_lp_Force_Field>
OPLS_2005

> <r_lp_Energy>
21.819

> <b_lp_Chiralities_Consistent>
1

> <s_lp_Variant>
AV-unprocessed.smi:3326-1

> <Gold.Version>
5.8.1

> <Gold.Id.Protein>
6NUR|6NUR_protein|mol2

> <Gold.PLP.Fitness>
41.3937

> <Gold.PLP.PLP>
-39.5893

> <Gold.PLP.part.hbond>
-1.0000

> <Gold.PLP.part.metal>
0.0000

> <Gold.PLP.part.buried>
-3.4436

> <Gold.PLP.part.nonpolar>
-34.9389

> <Gold.PLP.part.repulsive>
0.0965

> <Gold.PLP.ligand.clash>
0.5182

> <Gold.PLP.ligand.torsion>
0.6112

> <Gold.PLP.Chemscore.Hbond>
1.0000

> <Gold.PLP.Chemscore.CHOScore>
0.0000

> <Gold.PLP.Chemscore.Metal>
0.0000

> <Gold.Chemscore.Hbonds>
donor molecule, donor type, donor heavy atom, donor atom, acceptor molecule, acceptor atom, score
      P1  H  7997  8008       L1    17  0.79

> <Gold.PLP.Chemscore.Internal.Correction>
0.5451

> <Gold.Rescore>
     Score         DG    S(hbond)    S(metal)    S(lipo)     H(rot)  DE(clash)    DE(int)     intcor
     13.10     -15.40       0.98        0.00      84.17       1.25       0.05       2.26       ----

> <Gold.Chemscore.Fitness>
13.0973

> <Gold.Chemscore.DG>
-15.4016

> <Gold.Chemscore.ZeroCoef>
-5.4800

> <Gold.Chemscore.Hbond>
0.9812

> <Gold.Chemscore.Metal>
0.0000

> <Gold.Chemscore.Lipo>
84.1691

> <Gold.Chemscore.Internal_Hbond>
0.0000

> <Gold.Chemscore.DEClash>
0.0456

> <Gold.Chemscore.DEInternal>
2.2586

> <Gold.Chemscore.Rot>
1.2514

> <Gold.Chemscore.Internal.Correction>
   9.000000E+99

> <Gold.Chemscore.Hbonds>
donor molecule, donor type, donor heavy atom, donor atom, acceptor molecule, acceptor atom, score
      P1  H  7997  8008       L1    17  0.13

> <Gold.Chemscore.Hbond.Weighted>
-3.2774

> <Gold.Chemscore.Metal.Weighted>
-0.0000

> <Gold.Chemscore.Lipo.Weighted>
-9.8478

> <Gold.Chemscore.Internal_Hbond.Weighted>
0.0000

> <Gold.Chemscore.DEClash.Weighted>
0.0456

> <Gold.Chemscore.DEInternal.Weighted>
2.2586

> <Gold.Chemscore.Rot.Weighted>
3.2036

> <Gold.Chemscore.Internal.Correction.Weighted>
   9.000000E+99

> <Gold.Protein.RotatedTorsions>
[ 6907 6896 6895 6894 ] final  -99.77 input  -60.11 | X-H torsion
[ 7974 7965 7964 7962 ] final -158.47 input  175.53 | X-H torsion
[ 8008 7997 7996 7995 ] final  -20.62 input   59.86 | X-H torsion
[ 10167 10162 10161 10158 ] final  -10.77 input  -65.29 | X-H torsion
[ 10718 10713 10712 10709 ] final -120.82 input   66.30 | X-H torsion
[ 10763 10752 10751 10750 ] final -139.85 input  -60.55 | X-H torsion
[ 11005 11000 10999 10996 ] final  -65.16 input  -57.11 | X-H torsion

> <Gold.Protein.ActiveResidues>
 VAL166  LYS551  ARG553  GLY616  TRP617  ASP618  TYR619  PRO620  LYS621  CYS622 
 ASP623  PHE694  ASN695  SER759  ASP760  ASP761  ALA762  ILE779  LEU786  VAL792 
 PHE793  MET794  SER795  GLU796  ALA797  LYS798  CYS799  TRP800  GLU811  SER814 

> <Gold.Protein.RotatedAtoms>
  150.7091  134.0990  159.3958 H   0  0  0  0  0  0  0  0  0  0  0  0  # atno 6907 bound_to 6896
  151.8976  135.0389  160.0513 H   0  0  0  0  0  0  0  0  0  0  0  0  # atno 6908 bound_to 6896
  152.2440  133.5124  159.5323 H   0  0  0  0  0  0  0  0  0  0  0  0  # atno 6909 bound_to 6896
  144.7504  140.3823  143.6052 H   0  0  0  0  0  0  0  0  0  0  0  0  # atno 7974 bound_to 7965
  154.4758  140.2057  155.9882 H   0  0  0  0  0  0  0  0  0  0  0  0  # atno 8008 bound_to 7997
  156.1086  140.3232  155.8011 H   0  0  0  0  0  0  0  0  0  0  0  0  # atno 8009 bound_to 7997
  155.4674  140.0528  157.2974 H   0  0  0  0  0  0  0  0  0  0  0  0  # atno 8010 bound_to 7997
  140.7122  143.5712  150.9091 H   0  0  0  0  0  0  0  0  0  0  0  0  # atno 10167 bound_to 10162
  156.1288  130.6380  150.9587 H   0  0  0  0  0  0  0  0  0  0  0  0  # atno 10718 bound_to 10713
  154.8597  135.3570  154.5612 H   0  0  0  0  0  0  0  0  0  0  0  0  # atno 10763 bound_to 10752
  153.6227  135.7005  153.5309 H   0  0  0  0  0  0  0  0  0  0  0  0  # atno 10764 bound_to 10752
  153.3115  135.4177  155.1300 H   0  0  0  0  0  0  0  0  0  0  0  0  # atno 10765 bound_to 10752
  141.1446  133.6677  156.5944 H   0  0  0  0  0  0  0  0  0  0  0  0  # atno 11005 bound_to 11000
  145.6964  139.1651  143.2618 LP  0  0  0  0  0  0  0  0  0  0  0  0  # atno 17320 bound_to 7965
  146.1447  140.7010  142.9350 LP  0  0  0  0  0  0  0  0  0  0  0  0  # atno 17321 bound_to 7965
  139.9438  143.6351  152.3047 LP  0  0  0  0  0  0  0  0  0  0  0  0  # atno 17342 bound_to 10162
  139.6845  144.7653  151.1548 LP  0  0  0  0  0  0  0  0  0  0  0  0  # atno 17343 bound_to 10162
  157.6468  131.0903  150.8136 LP  0  0  0  0  0  0  0  0  0  0  0  0  # atno 17370 bound_to 10713
  156.8223  130.4988  149.5341 LP  0  0  0  0  0  0  0  0  0  0  0  0  # atno 17371 bound_to 10713
  140.3738  134.7583  157.4616 LP  0  0  0  0  0  0  0  0  0  0  0  0  # atno 17394 bound_to 11000
  140.0690  134.5889  155.8663 LP  0  0  0  0  0  0  0  0  0  0  0  0  # atno 17395 bound_to 11000

$$$$
