AV-unprocessed.smi:1483|AV-procd|sdf|5991|dock6
  -GOLD-   22720 6 83D 1   1.00000     0.00000
 Structure written by MMmdl.
 50 51  0  0  0  0  0  0  0  0  3 V2000
  151.3742  144.6913  159.1142 C   0  0  0  0  0  0  0  0  0  0  0  0
  151.4136  143.3496  158.4137 C   0  0  0  0  0  0  0  0  0  0  0  0
  152.1291  142.2493  158.9327 C   0  0  0  0  0  0  0  0  0  0  0  0
  152.1206  141.0279  158.2281 C   0  0  0  0  0  0  0  0  0  0  0  0
  151.3990  140.9300  157.0178 C   0  0  0  0  0  0  0  0  0  0  0  0
  151.3729  139.6293  156.2350 C   0  0  0  0  0  0  0  0  0  0  0  0
  149.9311  139.1710  156.0149 C   0  0  0  0  0  0  0  0  0  0  0  0
  149.2606  138.7758  156.9680 O   0  0  0  0  0  0  0  0  0  0  0  0
  149.4660  139.2343  154.7571 N   0  0  0  0  0  0  0  0  0  0  0  0
  148.1193  138.8572  154.3382 C   0  0  2  0  0  0  0  0  0  0  0  0
  147.8554  137.3684  154.6236 C   0  0  0  0  0  0  0  0  0  0  0  0
  146.4794  136.9351  154.0909 C   0  0  0  0  0  0  0  0  0  0  0  0
  146.3482  137.2190  152.6381 N   0  3  1  0  0  0  0  0  0  0  0  0
  145.0801  136.6866  152.0751 C   0  0  0  0  0  0  0  0  0  0  0  0
  145.0271  135.1434  152.0484 C   0  0  0  0  0  0  0  0  0  0  0  0
  146.0599  134.5859  151.0579 C   0  0  0  0  0  0  0  0  0  0  0  0
  143.6205  134.6235  151.7067 C   0  0  0  0  0  0  0  0  0  0  0  0
  146.5630  138.6614  152.3444 C   0  0  0  0  0  0  0  0  0  0  0  0
  147.9428  139.1299  152.8364 C   0  0  0  0  0  0  0  0  0  0  0  0
  150.7001  142.0639  156.5485 C   0  0  0  0  0  0  0  0  0  0  0  0
  150.7329  143.2162  157.2533 N   0  3  0  0  0  0  0  0  0  0  0  0
  152.0516  144.7078  159.9686 H   0  0  0  0  0  0  0  0  0  0  0  0
  150.3667  144.9011  159.4740 H   0  0  0  0  0  0  0  0  0  0  0  0
  151.6701  145.4880  158.4313 H   0  0  0  0  0  0  0  0  0  0  0  0
  152.6780  142.3372  159.8590 H   0  0  0  0  0  0  0  0  0  0  0  0
  152.6645  140.1778  158.6136 H   0  0  0  0  0  0  0  0  0  0  0  0
  151.8781  139.7560  155.2764 H   0  0  0  0  0  0  0  0  0  0  0  0
  151.9228  138.8606  156.7801 H   0  0  0  0  0  0  0  0  0  0  0  0
  150.0903  139.5693  154.0377 H   0  0  0  0  0  0  0  0  0  0  0  0
  147.3889  139.4599  154.8821 H   0  0  0  0  0  0  0  0  0  0  0  0
  148.6312  136.7574  154.1591 H   0  0  0  0  0  0  0  0  0  0  0  0
  147.9103  137.1746  155.6956 H   0  0  0  0  0  0  0  0  0  0  0  0
  146.3497  135.8673  154.2713 H   0  0  0  0  0  0  0  0  0  0  0  0
  145.6854  137.4482  154.6363 H   0  0  0  0  0  0  0  0  0  0  0  0
  144.2386  137.0436  152.6709 H   0  0  0  0  0  0  0  0  0  0  0  0
  144.9344  137.0953  151.0739 H   0  0  0  0  0  0  0  0  0  0  0  0
  145.2977  134.7560  153.0300 H   0  0  0  0  0  0  0  0  0  0  0  0
  145.8559  134.9199  150.0400 H   0  0  0  0  0  0  0  0  0  0  0  0
  146.0557  133.4954  151.0568 H   0  0  0  0  0  0  0  0  0  0  0  0
  147.0687  134.9082  151.3180 H   0  0  0  0  0  0  0  0  0  0  0  0
  143.2919  134.9791  150.7295 H   0  0  0  0  0  0  0  0  0  0  0  0
  142.8847  134.9458  152.4437 H   0  0  0  0  0  0  0  0  0  0  0  0
  143.6005  133.5335  151.6856 H   0  0  0  0  0  0  0  0  0  0  0  0
  146.4929  138.8479  151.2738 H   0  0  0  0  0  0  0  0  0  0  0  0
  145.7767  139.2518  152.8176 H   0  0  0  0  0  0  0  0  0  0  0  0
  148.0630  140.1949  152.6331 H   0  0  0  0  0  0  0  0  0  0  0  0
  148.7214  138.6168  152.2696 H   0  0  0  0  0  0  0  0  0  0  0  0
  150.1226  142.0855  155.6355 H   0  0  0  0  0  0  0  0  0  0  0  0
  147.0937  136.7098  152.1851 H   0  0  0  0  0  0  0  0  0  0  0  0
  150.2212  144.0221  156.8930 H   0  0  0  0  0  0  0  0  0  0  0  0
  1  2  1  0  0  0  0
  1 22  1  0  0  0  0
  1 23  1  0  0  0  0
  1 24  1  0  0  0  0
  2 21  1  0  0  0  0
  2  3  2  0  0  0  0
  3  4  1  0  0  0  0
  3 25  1  0  0  0  0
  4  5  2  0  0  0  0
  4 26  1  0  0  0  0
  5  6  1  0  0  0  0
  5 20  1  0  0  0  0
  6  7  1  0  0  0  0
  6 27  1  0  0  0  0
  6 28  1  0  0  0  0
  7  8  2  0  0  0  0
  7  9  1  0  0  0  0
  9 10  1  0  0  0  0
  9 29  1  0  0  0  0
 10 19  1  0  0  0  0
 10 11  1  0  0  0  0
 10 30  1  0  0  0  0
 11 12  1  0  0  0  0
 11 31  1  0  0  0  0
 11 32  1  0  0  0  0
 12 13  1  0  0  0  0
 12 33  1  0  0  0  0
 12 34  1  0  0  0  0
 13 14  1  0  0  0  0
 13 18  1  0  0  0  0
 13 49  1  0  0  0  0
 14 15  1  0  0  0  0
 14 35  1  0  0  0  0
 14 36  1  0  0  0  0
 15 16  1  0  0  0  0
 15 17  1  0  0  0  0
 15 37  1  0  0  0  0
 16 38  1  0  0  0  0
 16 39  1  0  0  0  0
 16 40  1  0  0  0  0
 17 41  1  0  0  0  0
 17 42  1  0  0  0  0
 17 43  1  0  0  0  0
 18 19  1  0  0  0  0
 18 44  1  0  0  0  0
 18 45  1  0  0  0  0
 19 46  1  0  0  0  0
 19 47  1  0  0  0  0
 20 21  2  0  0  0  0
 20 48  1  0  0  0  0
 21 50  1  0  0  0  0
M  CHG  1  13   1
M  CHG  1  21   1
M  END
> <s_m_source_file>
AV-unprocessed.smi

> <i_m_source_file_index>
1483

> <i_lp_mmshare_version>
43012

> <i_f3d_flags>
0

> <s_epik_input>
W0NIM11jMVtjSF1bY0hdYyhbY0hdbjEpW0NIMl1DKD1PKVtOSF1bQ0hdMltDSDJdW0NIMl1OKFtDSDJdW0NIMl0yKVtDSDJdW0NIXShbQ0gzXSlbQ0gzXQ==

> <s_epik_cmdline>
J2VwaWtfcHl0aG9uJywgJy1waCcsICc3LjAnLCAnLXRuJywgJzgnLCAnLW1hJywgJzIwMCcsICctbWV0YWxfYmluZGluZycsICctaW1hZScsICc8aW5maWxlLm1hZT4nLCAnLW9tYWUnLCAnPG91dGZpbGUubWFlPic=

> <r_epik_Ionization_Penalty>
2.20554

> <r_epik_Ionization_Penalty_Charging>
2.20554

> <r_epik_Ionization_Penalty_Neutral>
2.83835e-07

> <r_epik_State_Penalty>
2.34446

> <r_epik_Charging_Adjusted_Penalty>
4.55

> <i_epik_Tot_Q>
2

> <i_epik_Tot_abs_Q>
2

> <r_epik_Metal_State_Penalty>
2.35906

> <b_epik_Metal_Only>
0

> <s_lp_Force_Field>
OPLS_2005

> <r_lp_Energy>
27.324

> <b_lp_Chiralities_Consistent>
1

> <s_lp_Variant>
AV-unprocessed.smi:1483-3

> <Gold.Version>
5.8.1

> <Gold.Id.Protein>
6NUR|6NUR_protein|mol2

> <Gold.PLP.Fitness>
43.1698

> <Gold.PLP.PLP>
-31.6012

> <Gold.PLP.part.hbond>
-2.0000

> <Gold.PLP.part.metal>
0.0000

> <Gold.PLP.part.buried>
-0.8403

> <Gold.PLP.part.nonpolar>
-29.9478

> <Gold.PLP.part.repulsive>
0.0972

> <Gold.PLP.ligand.clash>
0.0000

> <Gold.PLP.ligand.torsion>
0.2158

> <Gold.PLP.Chemscore.Hbond>
3.9840

> <Gold.PLP.Chemscore.CHOScore>
0.0000

> <Gold.PLP.Chemscore.Metal>
0.0000

> <Gold.Chemscore.Hbonds>
donor molecule, donor type, donor heavy atom, donor atom, acceptor molecule, acceptor atom, score
      L1  H    13    49       P1  7948  2.00
      L1  H    21    50       P1  8028  1.98

> <Gold.PLP.Chemscore.Internal.Correction>
0.0483

> <Gold.Rescore>
     Score         DG    S(hbond)    S(metal)    S(lipo)     H(rot)  DE(clash)    DE(int)     intcor
     18.16     -20.16       1.88        0.00     105.81       1.55       1.70       0.30       ----

> <Gold.Chemscore.Fitness>
18.1553

> <Gold.Chemscore.DG>
-20.1635

> <Gold.Chemscore.ZeroCoef>
-5.4800

> <Gold.Chemscore.Hbond>
1.8792

> <Gold.Chemscore.Metal>
0.0000

> <Gold.Chemscore.Lipo>
105.8110

> <Gold.Chemscore.Internal_Hbond>
0.0000

> <Gold.Chemscore.DEClash>
1.7049

> <Gold.Chemscore.DEInternal>
0.3033

> <Gold.Chemscore.Rot>
1.5520

> <Gold.Chemscore.Internal.Correction>
   9.000000E+99

> <Gold.Chemscore.Hbonds>
donor molecule, donor type, donor heavy atom, donor atom, acceptor molecule, acceptor atom, score
      L1  H    13    49       P1  7948  0.98
      L1  H    21    50       P1  8028  0.92

> <Gold.Chemscore.Hbond.Weighted>
-6.2767

> <Gold.Chemscore.Metal.Weighted>
-0.0000

> <Gold.Chemscore.Lipo.Weighted>
-12.3799

> <Gold.Chemscore.Internal_Hbond.Weighted>
0.0000

> <Gold.Chemscore.DEClash.Weighted>
1.7049

> <Gold.Chemscore.DEInternal.Weighted>
0.3033

> <Gold.Chemscore.Rot.Weighted>
3.9730

> <Gold.Chemscore.Internal.Correction.Weighted>
   9.000000E+99

> <Gold.Protein.RotatedTorsions>
[ 6907 6896 6895 6894 ] final  146.22 input  -60.11 | X-H torsion
[ 7974 7965 7964 7962 ] final  -30.76 input  175.53 | X-H torsion
[ 8008 7997 7996 7995 ] final  179.72 input   59.86 | X-H torsion
[ 10167 10162 10161 10158 ] final    0.18 input  -65.29 | X-H torsion
[ 10718 10713 10712 10709 ] final   37.55 input   66.30 | X-H torsion
[ 10763 10752 10751 10750 ] final -136.20 input  -60.55 | X-H torsion
[ 11005 11000 10999 10996 ] final   53.27 input  -57.11 | X-H torsion

> <Gold.Protein.ActiveResidues>
 VAL166  LYS551  ARG553  GLY616  TRP617  ASP618  TYR619  PRO620  LYS621  CYS622 
 ASP623  PHE694  ASN695  SER759  ASP760  ASP761  ALA762  ILE779  LEU786  VAL792 
 PHE793  MET794  SER795  GLU796  ALA797  LYS798  CYS799  TRP800  GLU811  SER814 

> <Gold.Protein.RotatedAtoms>
  152.1708  133.4642  159.4907 H   0  0  0  0  0  0  0  0  0  0  0  0  # atno 6907 bound_to 6896
  150.6919  134.1956  159.4311 H   0  0  0  0  0  0  0  0  0  0  0  0  # atno 6908 bound_to 6896
  151.9863  135.0002  160.0610 H   0  0  0  0  0  0  0  0  0  0  0  0  # atno 6909 bound_to 6896
  146.1119  140.5581  142.8774 H   0  0  0  0  0  0  0  0  0  0  0  0  # atno 7974 bound_to 7965
  156.0401  140.1301  157.0165 H   0  0  0  0  0  0  0  0  0  0  0  0  # atno 8008 bound_to 7997
  154.4387  140.1032  156.6295 H   0  0  0  0  0  0  0  0  0  0  0  0  # atno 8009 bound_to 7997
  155.5679  140.3466  155.4510 H   0  0  0  0  0  0  0  0  0  0  0  0  # atno 8010 bound_to 7997
  140.6740  143.6969  150.7983 H   0  0  0  0  0  0  0  0  0  0  0  0  # atno 10167 bound_to 10162
  157.3483  130.7584  149.6960 H   0  0  0  0  0  0  0  0  0  0  0  0  # atno 10718 bound_to 10713
  154.8688  135.3680  154.5022 H   0  0  0  0  0  0  0  0  0  0  0  0  # atno 10763 bound_to 10752
  153.5662  135.7022  153.5530 H   0  0  0  0  0  0  0  0  0  0  0  0  # atno 10764 bound_to 10752
  153.3583  135.4053  155.1662 H   0  0  0  0  0  0  0  0  0  0  0  0  # atno 10765 bound_to 10752
  140.0781  134.5377  155.8975 H   0  0  0  0  0  0  0  0  0  0  0  0  # atno 11005 bound_to 11000
  144.7519  140.5211  143.6796 LP  0  0  0  0  0  0  0  0  0  0  0  0  # atno 17320 bound_to 7965
  145.5646  139.1481  143.3322 LP  0  0  0  0  0  0  0  0  0  0  0  0  # atno 17321 bound_to 7965
  140.0659  143.5109  152.2604 LP  0  0  0  0  0  0  0  0  0  0  0  0  # atno 17342 bound_to 10162
  139.6022  144.7586  151.3144 LP  0  0  0  0  0  0  0  0  0  0  0  0  # atno 17343 bound_to 10162
  155.9717  130.4148  150.4149 LP  0  0  0  0  0  0  0  0  0  0  0  0  # atno 17370 bound_to 10713
  157.2208  131.0482  151.2547 LP  0  0  0  0  0  0  0  0  0  0  0  0  # atno 17371 bound_to 10713
  141.2037  133.6633  156.6076 LP  0  0  0  0  0  0  0  0  0  0  0  0  # atno 17394 bound_to 11000
  140.3528  134.7754  157.4479 LP  0  0  0  0  0  0  0  0  0  0  0  0  # atno 17395 bound_to 11000

$$$$
