AV-unprocessed.smi:2997|AV-procd|sdf|11415|dock9
  -GOLD-   2272016343D 1   1.00000     0.00000
 Structure written by MMmdl.
 39 41  0  0  0  0  0  0  0  0  2 V2000
  152.0543  143.5723  160.5325 C   0  0  0  0  0  0  0  0  0  0  0  0
  151.8959  142.6176  159.3613 C   0  0  0  0  0  0  0  0  0  0  0  0
  150.9650  142.9416  158.3482 C   0  0  0  0  0  0  0  0  0  0  0  0
  150.8408  142.0472  157.2917 C   0  0  0  0  0  0  0  0  0  0  0  0
  150.0256  142.0760  156.1580 N   0  3  0  0  0  0  0  0  0  0  0  0
  150.2577  140.9663  155.4030 C   0  0  0  0  0  0  0  0  0  0  0  0
  151.2099  140.2307  156.0381 N   0  0  0  0  0  0  0  0  0  0  0  0
  151.8208  138.9478  155.6665 C   0  0  0  0  0  0  0  0  0  0  0  0
  151.0984  138.2658  154.4892 C   0  0  1  0  0  0  0  0  0  0  0  0
  152.0068  137.4264  153.7999 O   0  0  0  0  0  0  0  0  0  0  0  0
  149.8772  137.4504  154.9551 C   0  0  0  0  0  0  0  0  0  0  0  0
  150.2283  136.1010  155.3601 N   0  0  0  0  0  0  0  0  0  0  0  0
  149.7813  134.9046  154.8398 C   0  0  0  0  0  0  0  0  0  0  0  0
  150.3899  133.9040  155.5418 C   0  0  0  0  0  0  0  0  0  0  0  0
  151.2035  134.5969  156.4815 C   0  0  0  0  0  0  0  0  0  0  0  0
  151.1076  135.9118  156.3679 N   0  0  0  0  0  0  0  0  0  0  0  0
  151.6035  140.8657  157.2204 C   0  0  0  0  0  0  0  0  0  0  0  0
  152.5252  140.5309  158.2091 C   0  0  0  0  0  0  0  0  0  0  0  0
  152.6659  141.4274  159.2924 C   0  0  0  0  0  0  0  0  0  0  0  0
  153.6623  141.0881  160.3882 C   0  0  0  0  0  0  0  0  0  0  0  0
  151.4168  144.4499  160.4207 H   0  0  0  0  0  0  0  0  0  0  0  0
  153.0853  143.9183  160.6094 H   0  0  0  0  0  0  0  0  0  0  0  0
  151.7829  143.0789  161.4660 H   0  0  0  0  0  0  0  0  0  0  0  0
  150.3746  143.8449  158.3947 H   0  0  0  0  0  0  0  0  0  0  0  0
  149.7707  140.7133  154.4724 H   0  0  0  0  0  0  0  0  0  0  0  0
  152.8645  139.1401  155.4139 H   0  0  0  0  0  0  0  0  0  0  0  0
  151.8286  138.3036  156.5466 H   0  0  0  0  0  0  0  0  0  0  0  0
  150.7632  139.0309  153.7879 H   0  0  0  0  0  0  0  0  0  0  0  0
  151.6657  137.2600  152.9345 H   0  0  0  0  0  0  0  0  0  0  0  0
  149.3822  137.9472  155.7907 H   0  0  0  0  0  0  0  0  0  0  0  0
  149.1410  137.3838  154.1526 H   0  0  0  0  0  0  0  0  0  0  0  0
  149.0742  134.8649  154.0244 H   0  0  0  0  0  0  0  0  0  0  0  0
  150.2720  132.8393  155.4052 H   0  0  0  0  0  0  0  0  0  0  0  0
  151.8573  134.1862  157.2368 H   0  0  0  0  0  0  0  0  0  0  0  0
  153.1087  139.6236  158.1569 H   0  0  0  0  0  0  0  0  0  0  0  0
  154.1701  140.1443  160.1875 H   0  0  0  0  0  0  0  0  0  0  0  0
  153.1568  140.9959  161.3498 H   0  0  0  0  0  0  0  0  0  0  0  0
  154.4234  141.8645  160.4686 H   0  0  0  0  0  0  0  0  0  0  0  0
  149.3573  142.7964  155.9163 H   0  0  0  0  0  0  0  0  0  0  0  0
  1  2  1  0  0  0  0
  1 21  1  0  0  0  0
  1 22  1  0  0  0  0
  1 23  1  0  0  0  0
  2 19  1  0  0  0  0
  2  3  2  0  0  0  0
  3  4  1  0  0  0  0
  3 24  1  0  0  0  0
  4 17  2  0  0  0  0
  4  5  1  0  0  0  0
  5  6  2  0  0  0  0
  5 39  1  0  0  0  0
  6  7  1  0  0  0  0
  6 25  1  0  0  0  0
  7  8  1  0  0  0  0
  7 17  1  0  0  0  0
  8  9  1  0  0  0  0
  8 26  1  0  0  0  0
  8 27  1  0  0  0  0
  9 10  1  0  0  0  0
  9 11  1  0  0  0  0
  9 28  1  0  0  0  0
 10 29  1  0  0  0  0
 11 12  1  0  0  0  0
 11 30  1  0  0  0  0
 11 31  1  0  0  0  0
 12 16  1  0  0  0  0
 12 13  1  0  0  0  0
 13 14  2  0  0  0  0
 13 32  1  0  0  0  0
 14 15  1  0  0  0  0
 14 33  1  0  0  0  0
 15 16  2  0  0  0  0
 15 34  1  0  0  0  0
 17 18  1  0  0  0  0
 18 19  2  0  0  0  0
 18 35  1  0  0  0  0
 19 20  1  0  0  0  0
 20 36  1  0  0  0  0
 20 37  1  0  0  0  0
 20 38  1  0  0  0  0
M  CHG  1   5   1
M  END
> <s_m_source_file>
AV-unprocessed.smi

> <i_m_source_file_index>
2997

> <i_lp_mmshare_version>
43012

> <i_f3d_flags>
0

> <s_epik_input>
W0NIM11jKFtjSF0xKWMoW0NIM10pW2NIXWMoYzEyKW4oW2NIXW4yKVtDSDJdW0NASF0oW09IXSlbQ0gyXW4zW2NIXVtjSF1bY0hdbjM=

> <s_epik_cmdline>
J2VwaWtfcHl0aG9uJywgJy1waCcsICc3LjAnLCAnLXRuJywgJzgnLCAnLW1hJywgJzIwMCcsICctbWV0YWxfYmluZGluZycsICctaW1hZScsICc8aW5maWxlLm1hZT4nLCAnLW9tYWUnLCAnPG91dGZpbGUubWFlPic=

> <r_lp_tautomer_probability>
1

> <r_epik_Ionization_Penalty>
1.09215

> <r_epik_Ionization_Penalty_Charging>
1.09214

> <r_epik_Ionization_Penalty_Neutral>
1.42327e-05

> <r_epik_State_Penalty>
1.14852

> <r_epik_Charging_Adjusted_Penalty>
2.24066

> <i_epik_Tot_Q>
1

> <i_epik_Tot_abs_Q>
1

> <r_epik_Metal_State_Penalty>
1.23686

> <b_epik_Metal_Only>
0

> <s_lp_Force_Field>
OPLS_2005

> <r_lp_Energy>
12.1799

> <b_lp_Chiralities_Consistent>
1

> <s_lp_Variant>
AV-unprocessed.smi:2997-4

> <Gold.Version>
5.8.1

> <Gold.Id.Protein>
6NUR|6NUR_protein|mol2

> <Gold.PLP.Fitness>
55.6989

> <Gold.PLP.PLP>
-42.0223

> <Gold.PLP.part.hbond>
-3.0000

> <Gold.PLP.part.metal>
0.0000

> <Gold.PLP.part.buried>
-4.4229

> <Gold.PLP.part.nonpolar>
-35.0003

> <Gold.PLP.part.repulsive>
0.0990

> <Gold.PLP.ligand.clash>
0.0000

> <Gold.PLP.ligand.torsion>
0.6653

> <Gold.PLP.Chemscore.Hbond>
4.0000

> <Gold.PLP.Chemscore.CHOScore>
1.0000

> <Gold.PLP.Chemscore.Metal>
0.0000

> <Gold.Chemscore.Hbonds>
donor molecule, donor type, donor heavy atom, donor atom, acceptor molecule, acceptor atom, score
      L1  H     5    39       P1  8028  2.00
      L1  H    10    29       P1  7949  1.00
      P1  H 10752 10765       L1    10  1.00
      L1  C    13    32       P1  7948  1.00

> <Gold.PLP.Chemscore.Internal.Correction>
0.0073

> <Gold.Rescore>
     Score         DG    S(hbond)    S(metal)    S(lipo)     H(rot)  DE(clash)    DE(int)     intcor
     18.97     -19.86       2.34        0.00     104.47       2.21       0.30       0.60       ----

> <Gold.Chemscore.Fitness>
18.9683

> <Gold.Chemscore.DG>
-19.8604

> <Gold.Chemscore.ZeroCoef>
-5.4800

> <Gold.Chemscore.Hbond>
2.3421

> <Gold.Chemscore.Metal>
0.0000

> <Gold.Chemscore.Lipo>
104.4678

> <Gold.Chemscore.Internal_Hbond>
0.0000

> <Gold.Chemscore.DEClash>
0.2967

> <Gold.Chemscore.DEInternal>
0.5954

> <Gold.Chemscore.Rot>
2.2129

> <Gold.Chemscore.Internal.Correction>
   9.000000E+99

> <Gold.Chemscore.Hbonds>
donor molecule, donor type, donor heavy atom, donor atom, acceptor molecule, acceptor atom, score
      L1  H     5    39       P1  8028  0.92
      L1  H    10    29       P1  7949  0.90
      P1  H 10752 10765       L1    10  0.23

> <Gold.Chemscore.Hbond.Weighted>
-7.8226

> <Gold.Chemscore.Metal.Weighted>
-0.0000

> <Gold.Chemscore.Lipo.Weighted>
-12.2227

> <Gold.Chemscore.Internal_Hbond.Weighted>
0.0000

> <Gold.Chemscore.DEClash.Weighted>
0.2967

> <Gold.Chemscore.DEInternal.Weighted>
0.5954

> <Gold.Chemscore.Rot.Weighted>
5.6649

> <Gold.Chemscore.Internal.Correction.Weighted>
   9.000000E+99

> <Gold.Protein.RotatedTorsions>
[ 6907 6896 6895 6894 ] final  -35.06 input  -60.11 | X-H torsion
[ 7974 7965 7964 7962 ] final   45.90 input  175.53 | X-H torsion
[ 8008 7997 7996 7995 ] final  121.42 input   59.86 | X-H torsion
[ 10167 10162 10161 10158 ] final   25.78 input  -65.29 | X-H torsion
[ 10718 10713 10712 10709 ] final -159.51 input   66.30 | X-H torsion
[ 10763 10752 10751 10750 ] final  150.91 input  -60.55 | X-H torsion
[ 11005 11000 10999 10996 ] final  -45.19 input  -57.11 | X-H torsion

> <Gold.Protein.ActiveResidues>
 VAL166  LYS551  ARG553  GLY616  TRP617  ASP618  TYR619  PRO620  LYS621  CYS622 
 ASP623  PHE694  ASN695  SER759  ASP760  ASP761  ALA762  ILE779  LEU786  VAL792 
 PHE793  MET794  SER795  GLU796  ALA797  LYS798  CYS799  TRP800  GLU811  SER814 

> <Gold.Protein.RotatedAtoms>
  151.0446  134.9631  159.8179 H   0  0  0  0  0  0  0  0  0  0  0  0  # atno 6907 bound_to 6896
  152.5370  134.2614  159.8947 H   0  0  0  0  0  0  0  0  0  0  0  0  # atno 6908 bound_to 6896
  151.2628  133.4251  159.2651 H   0  0  0  0  0  0  0  0  0  0  0  0  # atno 6909 bound_to 6896
  146.0438  139.4914  142.9761 H   0  0  0  0  0  0  0  0  0  0  0  0  # atno 7974 bound_to 7965
  156.2685  140.2809  156.1305 H   0  0  0  0  0  0  0  0  0  0  0  0  # atno 8008 bound_to 7997
  155.1059  140.0390  157.2728 H   0  0  0  0  0  0  0  0  0  0  0  0  # atno 8009 bound_to 7997
  154.6779  140.2602  155.6944 H   0  0  0  0  0  0  0  0  0  0  0  0  # atno 8010 bound_to 7997
  140.5078  144.0210  150.6359 H   0  0  0  0  0  0  0  0  0  0  0  0  # atno 10167 bound_to 10162
  156.5691  130.8681  151.2832 H   0  0  0  0  0  0  0  0  0  0  0  0  # atno 10718 bound_to 10713
  154.0951  135.2849  155.3263 H   0  0  0  0  0  0  0  0  0  0  0  0  # atno 10763 bound_to 10752
  154.6593  135.5340  153.8002 H   0  0  0  0  0  0  0  0  0  0  0  0  # atno 10764 bound_to 10752
  153.0399  135.6530  154.1118 H   0  0  0  0  0  0  0  0  0  0  0  0  # atno 10765 bound_to 10752
  141.0499  133.6747  156.2978 H   0  0  0  0  0  0  0  0  0  0  0  0  # atno 11005 bound_to 11000
  145.6839  141.0183  143.1591 LP  0  0  0  0  0  0  0  0  0  0  0  0  # atno 17320 bound_to 7965
  144.7088  139.8454  143.7421 LP  0  0  0  0  0  0  0  0  0  0  0  0  # atno 17321 bound_to 7965
  140.3524  143.2955  152.0472 LP  0  0  0  0  0  0  0  0  0  0  0  0  # atno 17342 bound_to 10162
  139.4888  144.6364  151.6968 LP  0  0  0  0  0  0  0  0  0  0  0  0  # atno 17343 bound_to 10162
  157.7352  130.9758  150.2069 LP  0  0  0  0  0  0  0  0  0  0  0  0  # atno 17370 bound_to 10713
  156.2730  130.3724  149.8012 LP  0  0  0  0  0  0  0  0  0  0  0  0  # atno 17371 bound_to 10713
  140.6074  134.5493  157.5528 LP  0  0  0  0  0  0  0  0  0  0  0  0  # atno 17394 bound_to 11000
  139.9342  134.7906  156.0847 LP  0  0  0  0  0  0  0  0  0  0  0  0  # atno 17395 bound_to 11000

$$$$
