AV-unprocessed.smi:2038|AV-procd|sdf|8280|dock1
  -GOLD-   2272010543D 1   1.00000     0.00000
 Structure written by MMmdl.
 33 34  0  0  0  0  0  0  0  0  1 V2000
  152.4487  140.2868  157.3960 O   0  0  0  0  0  0  0  0  0  0  0  0
  151.7089  141.2704  157.4289 C   0  0  0  0  0  0  0  0  0  0  0  0
  151.6600  142.1545  158.4423 N   0  0  0  0  0  0  0  0  0  0  0  0
  152.4278  142.1691  159.6378 C   0  0  0  0  0  0  0  0  0  0  0  0
  153.2638  141.0662  159.9039 C   0  0  0  0  0  0  0  0  0  0  0  0
  154.0190  141.0477  161.0917 C   0  0  0  0  0  0  0  0  0  0  0  0
  153.9057  142.1311  161.9852 C   0  0  0  0  0  0  0  0  0  0  0  0
  154.6485  142.1082  163.1474 O   0  0  0  0  0  0  0  0  0  0  0  0
  154.5192  143.1967  164.0584 C   0  0  0  0  0  0  0  0  0  0  0  0
  155.5788  143.0642  165.1585 C   0  0  0  0  0  0  0  0  0  0  0  0
  155.3838  141.9257  165.8231 F   0  0  0  0  0  0  0  0  0  0  0  0
  156.7990  143.0431  164.6231 F   0  0  0  0  0  0  0  0  0  0  0  0
  155.4833  144.0806  166.0153 F   0  0  0  0  0  0  0  0  0  0  0  0
  153.0918  143.1890  161.7470 N   0  0  0  0  0  0  0  0  0  0  0  0
  152.3717  143.2022  160.6048 C   0  0  0  0  0  0  0  0  0  0  0  0
  150.7521  141.5419  156.2619 C   0  0  2  0  0  0  0  0  0  0  0  0
  149.2653  141.5481  156.6639 C   0  0  0  0  0  0  0  0  0  0  0  0
  148.7207  140.2756  156.0458 C   0  0  0  0  0  0  0  0  0  0  0  0
  149.6160  140.1159  154.8258 C   0  0  0  0  0  0  0  0  0  0  0  0
  150.8960  140.4835  155.3160 O   0  0  0  0  0  0  0  0  0  0  0  0
  150.9460  142.8652  158.3743 H   0  0  0  0  0  0  0  0  0  0  0  0
  153.3321  140.2446  159.2058 H   0  0  0  0  0  0  0  0  0  0  0  0
  154.6724  140.2171  161.3141 H   0  0  0  0  0  0  0  0  0  0  0  0
  154.6513  144.1456  163.5355 H   0  0  0  0  0  0  0  0  0  0  0  0
  153.5239  143.1977  164.5062 H   0  0  0  0  0  0  0  0  0  0  0  0
  151.7240  144.0572  160.4896 H   0  0  0  0  0  0  0  0  0  0  0  0
  151.0044  142.4871  155.7778 H   0  0  0  0  0  0  0  0  0  0  0  0
  149.0934  141.5854  157.7408 H   0  0  0  0  0  0  0  0  0  0  0  0
  148.7710  142.4162  156.2261 H   0  0  0  0  0  0  0  0  0  0  0  0
  148.8645  139.4358  156.7270 H   0  0  0  0  0  0  0  0  0  0  0  0
  147.6616  140.3389  155.7952 H   0  0  0  0  0  0  0  0  0  0  0  0
  149.6133  139.1006  154.4288 H   0  0  0  0  0  0  0  0  0  0  0  0
  149.3180  140.8011  154.0307 H   0  0  0  0  0  0  0  0  0  0  0  0
  1  2  2  0  0  0  0
  2  3  1  0  0  0  0
  2 16  1  0  0  0  0
  3  4  1  0  0  0  0
  3 21  1  0  0  0  0
  4 15  1  0  0  0  0
  4  5  2  0  0  0  0
  5  6  1  0  0  0  0
  5 22  1  0  0  0  0
  6  7  2  0  0  0  0
  6 23  1  0  0  0  0
  7  8  1  0  0  0  0
  7 14  1  0  0  0  0
  8  9  1  0  0  0  0
  9 10  1  0  0  0  0
  9 24  1  0  0  0  0
  9 25  1  0  0  0  0
 10 11  1  0  0  0  0
 10 12  1  0  0  0  0
 10 13  1  0  0  0  0
 14 15  2  0  0  0  0
 15 26  1  0  0  0  0
 16 20  1  0  0  0  0
 16 17  1  0  0  0  0
 16 27  1  0  0  0  0
 17 18  1  0  0  0  0
 17 28  1  0  0  0  0
 17 29  1  0  0  0  0
 18 19  1  0  0  0  0
 18 30  1  0  0  0  0
 18 31  1  0  0  0  0
 19 20  1  0  0  0  0
 19 32  1  0  0  0  0
 19 33  1  0  0  0  0
M  END
> <s_m_source_file>
AV-unprocessed.smi

> <i_m_source_file_index>
2038

> <i_lp_mmshare_version>
43012

> <i_f3d_flags>
0

> <s_epik_input>
TzFbQ0gyXVtDSDJdW0NIMl1bQ0BIXTFDKD1PKVtOSF1jMltjSF1bY0hdYyhuW2NIXTIpT1tDSDJdQyhGKShGKUY=

> <s_epik_cmdline>
J2VwaWtfcHl0aG9uJywgJy1waCcsICc3LjAnLCAnLXRuJywgJzgnLCAnLW1hJywgJzIwMCcsICctbWV0YWxfYmluZGluZycsICctaW1hZScsICc8aW5maWxlLm1hZT4nLCAnLW9tYWUnLCAnPG91dGZpbGUubWFlPic=

> <r_lp_tautomer_probability>
1

> <r_epik_Ionization_Penalty>
2.73305e-06

> <r_epik_Ionization_Penalty_Charging>
0

> <r_epik_Ionization_Penalty_Neutral>
2.73305e-06

> <r_epik_State_Penalty>
-0

> <r_epik_Charging_Adjusted_Penalty>
0

> <i_epik_Tot_Q>
0

> <i_epik_Tot_abs_Q>
0

> <r_epik_Metal_State_Penalty>
-0

> <b_epik_Metal_Only>
0

> <s_lp_Force_Field>
OPLS_2005

> <r_lp_Energy>
22.8429

> <b_lp_Chiralities_Consistent>
1

> <s_lp_Variant>
AV-unprocessed.smi:2038-1

> <Gold.Version>
5.8.1

> <Gold.Id.Protein>
6NUR|6NUR_protein|mol2

> <Gold.PLP.Fitness>
43.7280

> <Gold.PLP.PLP>
-38.9992

> <Gold.PLP.part.hbond>
-3.0000

> <Gold.PLP.part.metal>
0.0000

> <Gold.PLP.part.buried>
-0.3684

> <Gold.PLP.part.nonpolar>
-34.3343

> <Gold.PLP.part.repulsive>
0.2237

> <Gold.PLP.ligand.clash>
0.0081

> <Gold.PLP.ligand.torsion>
0.0335

> <Gold.PLP.Chemscore.Hbond>
1.5944

> <Gold.PLP.Chemscore.CHOScore>
0.0000

> <Gold.PLP.Chemscore.Metal>
0.0000

> <Gold.Chemscore.Hbonds>
donor molecule, donor type, donor heavy atom, donor atom, acceptor molecule, acceptor atom, score
      P1  H  7989  7998       L1    20  0.68
      P1  H  7997  8010       L1     1  0.87

> <Gold.PLP.Chemscore.Internal.Correction>
0.0208

> <Gold.Rescore>
     Score         DG    S(hbond)    S(metal)    S(lipo)     H(rot)  DE(clash)    DE(int)     intcor
     11.10     -14.04       1.10        0.00      78.69       1.69       1.43       1.52       ----

> <Gold.Chemscore.Fitness>
11.0973

> <Gold.Chemscore.DG>
-14.0444

> <Gold.Chemscore.ZeroCoef>
-5.4800

> <Gold.Chemscore.Hbond>
1.1046

> <Gold.Chemscore.Metal>
0.0000

> <Gold.Chemscore.Lipo>
78.6883

> <Gold.Chemscore.Internal_Hbond>
0.0000

> <Gold.Chemscore.DEClash>
1.4288

> <Gold.Chemscore.DEInternal>
1.5184

> <Gold.Chemscore.Rot>
1.6919

> <Gold.Chemscore.Internal.Correction>
   9.000000E+99

> <Gold.Chemscore.Hbonds>
donor molecule, donor type, donor heavy atom, donor atom, acceptor molecule, acceptor atom, score
      P1  H  7989  7998       L1    20  0.06
      P1  H  7997  8010       L1     1  0.80

> <Gold.Chemscore.Hbond.Weighted>
-3.6892

> <Gold.Chemscore.Metal.Weighted>
-0.0000

> <Gold.Chemscore.Lipo.Weighted>
-9.2065

> <Gold.Chemscore.Internal_Hbond.Weighted>
0.0000

> <Gold.Chemscore.DEClash.Weighted>
1.4288

> <Gold.Chemscore.DEInternal.Weighted>
1.5184

> <Gold.Chemscore.Rot.Weighted>
4.3313

> <Gold.Chemscore.Internal.Correction.Weighted>
   9.000000E+99

> <Gold.Protein.RotatedTorsions>
[ 6907 6896 6895 6894 ] final  -53.38 input  -60.11 | X-H torsion
[ 7974 7965 7964 7962 ] final  -98.22 input  175.53 | X-H torsion
[ 8008 7997 7996 7995 ] final   61.52 input   59.86 | X-H torsion
[ 10167 10162 10161 10158 ] final -138.25 input  -65.29 | X-H torsion
[ 10718 10713 10712 10709 ] final  -51.79 input   66.30 | X-H torsion
[ 10763 10752 10751 10750 ] final  -62.58 input  -60.55 | X-H torsion
[ 11005 11000 10999 10996 ] final   37.56 input  -57.11 | X-H torsion

> <Gold.Protein.ActiveResidues>
 VAL166  LYS551  ARG553  GLY616  TRP617  ASP618  TYR619  PRO620  LYS621  CYS622 
 ASP623  PHE694  ASN695  SER759  ASP760  ASP761  ALA762  ILE779  LEU786  VAL792 
 PHE793  MET794  SER795  GLU796  ALA797  LYS798  CYS799  TRP800  GLU811  SER814 

> <Gold.Protein.RotatedAtoms>
  150.8432  134.7731  159.6948 H   0  0  0  0  0  0  0  0  0  0  0  0  # atno 6907 bound_to 6896
  152.4514  134.5381  159.9841 H   0  0  0  0  0  0  0  0  0  0  0  0  # atno 6908 bound_to 6896
  151.5517  133.3378  159.2990 H   0  0  0  0  0  0  0  0  0  0  0  0  # atno 6909 bound_to 6896
  145.3235  140.9427  143.2702 H   0  0  0  0  0  0  0  0  0  0  0  0  # atno 7974 bound_to 7965
  155.5997  140.3494  155.4590 H   0  0  0  0  0  0  0  0  0  0  0  0  # atno 8008 bound_to 7997
  156.0237  140.1259  157.0355 H   0  0  0  0  0  0  0  0  0  0  0  0  # atno 8009 bound_to 7997
  154.4325  140.1057  156.5987 H   0  0  0  0  0  0  0  0  0  0  0  0  # atno 8010 bound_to 7997
  139.8497  143.7215  152.2658 H   0  0  0  0  0  0  0  0  0  0  0  0  # atno 10167 bound_to 10162
  156.1679  130.4149  149.9692 H   0  0  0  0  0  0  0  0  0  0  0  0  # atno 10718 bound_to 10713
  154.3021  135.6232  153.5429 H   0  0  0  0  0  0  0  0  0  0  0  0  # atno 10763 bound_to 10752
  152.9839  135.5681  154.5272 H   0  0  0  0  0  0  0  0  0  0  0  0  # atno 10764 bound_to 10752
  154.4905  135.2867  155.1477 H   0  0  0  0  0  0  0  0  0  0  0  0  # atno 10765 bound_to 10752
  140.2213  134.3637  155.8003 H   0  0  0  0  0  0  0  0  0  0  0  0  # atno 11005 bound_to 11000
  144.8920  139.4762  143.6673 LP  0  0  0  0  0  0  0  0  0  0  0  0  # atno 17320 bound_to 7965
  146.3073  139.7624  142.9046 LP  0  0  0  0  0  0  0  0  0  0  0  0  # atno 17321 bound_to 7965
  139.7478  144.7542  151.0553 LP  0  0  0  0  0  0  0  0  0  0  0  0  # atno 17342 bound_to 10162
  140.7789  143.4896  150.9911 LP  0  0  0  0  0  0  0  0  0  0  0  0  # atno 17343 bound_to 10162
  156.7502  130.9112  151.3637 LP  0  0  0  0  0  0  0  0  0  0  0  0  # atno 17370 bound_to 10713
  157.6781  130.9114  150.0199 LP  0  0  0  0  0  0  0  0  0  0  0  0  # atno 17371 bound_to 10713
  141.2223  133.7195  156.8581 LP  0  0  0  0  0  0  0  0  0  0  0  0  # atno 17394 bound_to 11000
  140.1846  134.9009  157.2989 LP  0  0  0  0  0  0  0  0  0  0  0  0  # atno 17395 bound_to 11000

$$$$
