AV-unprocessed.smi:3285|AV-procd|sdf|12583|dock5
  -GOLD-   2272018503D 1   1.00000     0.00000
 Structure written by MMmdl.
 45 46  0  0  0  0  0  0  0  0  2 V2000
  146.0205  141.5112  154.8499 C   0  0  0  0  0  0  0  0  0  0  0  0
  147.0024  140.3876  154.6825 C   0  0  0  0  0  0  0  0  0  0  0  0
  146.5476  139.1551  154.5358 N   0  0  0  0  0  0  0  0  0  0  0  0
  147.6771  138.3413  154.4108 O   0  0  0  0  0  0  0  0  0  0  0  0
  148.7820  139.1248  154.4887 C   0  0  0  0  0  0  0  0  0  0  0  0
  150.0962  138.4278  154.3816 C   0  0  0  0  0  0  0  0  0  0  0  0
  148.4269  140.4354  154.6598 C   0  0  0  0  0  0  0  0  0  0  0  0
  149.3211  141.6383  154.7990 C   0  0  0  0  0  0  0  0  0  0  0  0
  150.2917  141.4808  155.9764 C   0  0  0  0  0  0  0  0  0  0  0  0
  150.7134  142.7964  156.4961 N   0  3  0  0  0  0  0  0  0  0  0  0
  150.8859  142.8570  157.9634 C   0  0  1  0  0  0  0  0  0  0  0  0
  151.8957  141.7950  158.4218 C   0  0  0  0  0  0  0  0  0  0  0  0
  152.1107  141.8638  159.9393 C   0  0  0  0  0  0  0  0  0  0  0  0
  152.5807  143.2606  160.3943 C   0  0  2  0  0  0  0  0  0  0  0  0
  152.7904  143.2669  161.9192 C   0  0  0  0  0  0  0  0  0  0  0  0
  151.5920  144.3571  159.9136 C   0  0  1  0  0  0  0  0  0  0  0  0
  152.0552  145.7795  160.2770 C   0  0  0  0  0  0  0  0  0  0  0  0
  151.3589  144.2569  158.3905 C   0  0  0  0  0  0  0  0  0  0  0  0
  146.5238  142.4650  155.0066 H   0  0  0  0  0  0  0  0  0  0  0  0
  145.3705  141.3382  155.7080 H   0  0  0  0  0  0  0  0  0  0  0  0
  145.3876  141.6125  153.9680 H   0  0  0  0  0  0  0  0  0  0  0  0
  150.9244  139.1315  154.4634 H   0  0  0  0  0  0  0  0  0  0  0  0
  150.1836  137.9141  153.4242 H   0  0  0  0  0  0  0  0  0  0  0  0
  150.2048  137.6866  155.1735 H   0  0  0  0  0  0  0  0  0  0  0  0
  149.8897  141.8006  153.8826 H   0  0  0  0  0  0  0  0  0  0  0  0
  148.7289  142.5435  154.9365 H   0  0  0  0  0  0  0  0  0  0  0  0
  149.8195  140.9117  156.7785 H   0  0  0  0  0  0  0  0  0  0  0  0
  151.1750  140.9246  155.6580 H   0  0  0  0  0  0  0  0  0  0  0  0
  151.5953  143.0354  156.0660 H   0  0  0  0  0  0  0  0  0  0  0  0
  149.9307  142.6519  158.4504 H   0  0  0  0  0  0  0  0  0  0  0  0
  151.5440  140.7998  158.1466 H   0  0  0  0  0  0  0  0  0  0  0  0
  152.8493  141.9395  157.9117 H   0  0  0  0  0  0  0  0  0  0  0  0
  151.1817  141.6036  160.4487 H   0  0  0  0  0  0  0  0  0  0  0  0
  152.8423  141.1104  160.2339 H   0  0  0  0  0  0  0  0  0  0  0  0
  153.5497  143.4506  159.9301 H   0  0  0  0  0  0  0  0  0  0  0  0
  151.8462  143.1446  162.4507 H   0  0  0  0  0  0  0  0  0  0  0  0
  153.2520  144.1922  162.2624 H   0  0  0  0  0  0  0  0  0  0  0  0
  153.4496  142.4541  162.2256 H   0  0  0  0  0  0  0  0  0  0  0  0
  150.6331  144.1888  160.4064 H   0  0  0  0  0  0  0  0  0  0  0  0
  153.0468  145.9897  159.8750 H   0  0  0  0  0  0  0  0  0  0  0  0
  152.0918  145.9310  161.3553 H   0  0  0  0  0  0  0  0  0  0  0  0
  151.3711  146.5283  159.8770 H   0  0  0  0  0  0  0  0  0  0  0  0
  152.2818  144.5074  157.8649 H   0  0  0  0  0  0  0  0  0  0  0  0
  150.6199  144.9986  158.0830 H   0  0  0  0  0  0  0  0  0  0  0  0
  150.0280  143.4871  156.2252 H   0  0  0  0  0  0  0  0  0  0  0  0
  1  2  1  0  0  0  0
  1 19  1  0  0  0  0
  1 20  1  0  0  0  0
  1 21  1  0  0  0  0
  2  7  1  0  0  0  0
  2  3  2  0  0  0  0
  3  4  1  0  0  0  0
  4  5  1  0  0  0  0
  5  6  1  0  0  0  0
  5  7  2  0  0  0  0
  6 22  1  0  0  0  0
  6 23  1  0  0  0  0
  6 24  1  0  0  0  0
  7  8  1  0  0  0  0
  8  9  1  0  0  0  0
  8 25  1  0  0  0  0
  8 26  1  0  0  0  0
  9 10  1  0  0  0  0
  9 27  1  0  0  0  0
  9 28  1  0  0  0  0
 10 11  1  0  0  0  0
 10 29  1  0  0  0  0
 10 45  1  0  0  0  0
 11 18  1  0  0  0  0
 11 12  1  0  0  0  0
 11 30  1  0  0  0  0
 12 13  1  0  0  0  0
 12 31  1  0  0  0  0
 12 32  1  0  0  0  0
 13 14  1  0  0  0  0
 13 33  1  0  0  0  0
 13 34  1  0  0  0  0
 14 15  1  0  0  0  0
 14 16  1  0  0  0  0
 14 35  1  0  0  0  0
 15 36  1  0  0  0  0
 15 37  1  0  0  0  0
 15 38  1  0  0  0  0
 16 17  1  0  0  0  0
 16 18  1  0  0  0  0
 16 39  1  0  0  0  0
 17 40  1  0  0  0  0
 17 41  1  0  0  0  0
 17 42  1  0  0  0  0
 18 43  1  0  0  0  0
 18 44  1  0  0  0  0
M  CHG  1  10   1
M  END
> <s_m_source_file>
AV-unprocessed.smi

> <i_m_source_file_index>
3285

> <i_lp_mmshare_version>
43012

> <i_f3d_flags>
0

> <s_epik_input>
W0NIM11jMW5vYyhbQ0gzXSljMVtDSDJdW0NIMl1bTkhdW0NAQEhdMltDSDJdW0NIMl1bQ0BASF0oW0NIM10pW0NAQEhdKFtDSDNdKVtDSDJdMg==

> <s_epik_cmdline>
J2VwaWtfcHl0aG9uJywgJy1waCcsICc3LjAnLCAnLXRuJywgJzgnLCAnLW1hJywgJzIwMCcsICctbWV0YWxfYmluZGluZycsICctaW1hZScsICc8aW5maWxlLm1hZT4nLCAnLW9tYWUnLCAnPG91dGZpbGUubWFlPic=

> <r_lp_tautomer_probability>
1

> <r_epik_Ionization_Penalty>
0.000204615

> <r_epik_Ionization_Penalty_Charging>
0.000204615

> <r_epik_Ionization_Penalty_Neutral>
9.28663e-11

> <r_epik_State_Penalty>
-0

> <r_epik_Charging_Adjusted_Penalty>
0.000204615

> <i_epik_Tot_Q>
1

> <i_epik_Tot_abs_Q>
1

> <r_epik_Metal_State_Penalty>
-0

> <b_epik_Metal_Only>
0

> <s_lp_Force_Field>
OPLS_2005

> <r_lp_Energy>
11.6607

> <b_lp_Chiralities_Consistent>
1

> <s_lp_Variant>
AV-unprocessed.smi:3285-4

> <Gold.Version>
5.8.1

> <Gold.Id.Protein>
6NUR|6NUR_protein|mol2

> <Gold.PLP.Fitness>
47.2953

> <Gold.PLP.PLP>
-42.0778

> <Gold.PLP.part.hbond>
-1.0000

> <Gold.PLP.part.metal>
0.0000

> <Gold.PLP.part.buried>
-3.7104

> <Gold.PLP.part.nonpolar>
-36.9409

> <Gold.PLP.part.repulsive>
0.3744

> <Gold.PLP.ligand.clash>
0.0000

> <Gold.PLP.ligand.torsion>
0.4058

> <Gold.PLP.Chemscore.Hbond>
2.0000

> <Gold.PLP.Chemscore.CHOScore>
0.0000

> <Gold.PLP.Chemscore.Metal>
0.0000

> <Gold.Chemscore.Hbonds>
donor molecule, donor type, donor heavy atom, donor atom, acceptor molecule, acceptor atom, score
      L1  H    10    45       P1  8028  2.00

> <Gold.PLP.Chemscore.Internal.Correction>
0.0292

> <Gold.Rescore>
     Score         DG    S(hbond)    S(metal)    S(lipo)     H(rot)  DE(clash)    DE(int)     intcor
     20.43     -21.19       1.00        0.00     135.21       1.35       0.34       0.42       ----

> <Gold.Chemscore.Fitness>
20.4254

> <Gold.Chemscore.DG>
-21.1913

> <Gold.Chemscore.ZeroCoef>
-5.4800

> <Gold.Chemscore.Hbond>
0.9995

> <Gold.Chemscore.Metal>
0.0000

> <Gold.Chemscore.Lipo>
135.2133

> <Gold.Chemscore.Internal_Hbond>
0.0000

> <Gold.Chemscore.DEClash>
0.3435

> <Gold.Chemscore.DEInternal>
0.4225

> <Gold.Chemscore.Rot>
1.3465

> <Gold.Chemscore.Internal.Correction>
   9.000000E+99

> <Gold.Chemscore.Hbonds>
donor molecule, donor type, donor heavy atom, donor atom, acceptor molecule, acceptor atom, score
      L1  H    10    45       P1  8028  1.00

> <Gold.Chemscore.Hbond.Weighted>
-3.3384

> <Gold.Chemscore.Metal.Weighted>
-0.0000

> <Gold.Chemscore.Lipo.Weighted>
-15.8200

> <Gold.Chemscore.Internal_Hbond.Weighted>
0.0000

> <Gold.Chemscore.DEClash.Weighted>
0.3435

> <Gold.Chemscore.DEInternal.Weighted>
0.4225

> <Gold.Chemscore.Rot.Weighted>
3.4470

> <Gold.Chemscore.Internal.Correction.Weighted>
   9.000000E+99

> <Gold.Protein.RotatedTorsions>
[ 6907 6896 6895 6894 ] final  -98.33 input  -60.11 | X-H torsion
[ 7974 7965 7964 7962 ] final   59.89 input  175.53 | X-H torsion
[ 8008 7997 7996 7995 ] final   90.02 input   59.86 | X-H torsion
[ 10167 10162 10161 10158 ] final -102.05 input  -65.29 | X-H torsion
[ 10718 10713 10712 10709 ] final   57.39 input   66.30 | X-H torsion
[ 10763 10752 10751 10750 ] final   45.33 input  -60.55 | X-H torsion
[ 11005 11000 10999 10996 ] final   52.01 input  -57.11 | X-H torsion

> <Gold.Protein.ActiveResidues>
 VAL166  LYS551  ARG553  GLY616  TRP617  ASP618  TYR619  PRO620  LYS621  CYS622 
 ASP623  PHE694  ASN695  SER759  ASP760  ASP761  ALA762  ILE779  LEU786  VAL792 
 PHE793  MET794  SER795  GLU796  ALA797  LYS798  CYS799  TRP800  GLU811  SER814 

> <Gold.Protein.RotatedAtoms>
  150.7043  134.1211  159.4034 H   0  0  0  0  0  0  0  0  0  0  0  0  # atno 6907 bound_to 6896
  151.9197  135.0301  160.0530 H   0  0  0  0  0  0  0  0  0  0  0  0  # atno 6908 bound_to 6896
  152.2266  133.4990  159.5229 H   0  0  0  0  0  0  0  0  0  0  0  0  # atno 6909 bound_to 6896
  145.9021  139.3589  143.0586 H   0  0  0  0  0  0  0  0  0  0  0  0  # atno 7974 bound_to 7965
  156.0070  140.3354  155.6902 H   0  0  0  0  0  0  0  0  0  0  0  0  # atno 8008 bound_to 7997
  155.6211  140.0675  157.2695 H   0  0  0  0  0  0  0  0  0  0  0  0  # atno 8009 bound_to 7997
  154.4268  140.1776  156.1361 H   0  0  0  0  0  0  0  0  0  0  0  0  # atno 8010 bound_to 7997
  140.2348  143.3581  152.0855 H   0  0  0  0  0  0  0  0  0  0  0  0  # atno 10167 bound_to 10162
  157.5510  130.8766  149.8964 H   0  0  0  0  0  0  0  0  0  0  0  0  # atno 10718 bound_to 10713
  152.9826  135.6043  154.3419 H   0  0  0  0  0  0  0  0  0  0  0  0  # atno 10763 bound_to 10752
  154.3115  135.2771  155.2565 H   0  0  0  0  0  0  0  0  0  0  0  0  # atno 10764 bound_to 10752
  154.4773  135.5926  153.6420 H   0  0  0  0  0  0  0  0  0  0  0  0  # atno 10765 bound_to 10752
  140.0885  134.5242  155.8875 H   0  0  0  0  0  0  0  0  0  0  0  0  # atno 11005 bound_to 11000
  145.8778  140.9381  143.0617 LP  0  0  0  0  0  0  0  0  0  0  0  0  # atno 17320 bound_to 7965
  144.6736  140.0740  143.7472 LP  0  0  0  0  0  0  0  0  0  0  0  0  # atno 17321 bound_to 7965
  139.5097  144.6872  151.5855 LP  0  0  0  0  0  0  0  0  0  0  0  0  # atno 17342 bound_to 10162
  140.6158  143.9351  150.6487 LP  0  0  0  0  0  0  0  0  0  0  0  0  # atno 17343 bound_to 10162
  156.0577  130.3705  150.1053 LP  0  0  0  0  0  0  0  0  0  0  0  0  # atno 17370 bound_to 10713
  156.9226  130.9688  151.3546 LP  0  0  0  0  0  0  0  0  0  0  0  0  # atno 17371 bound_to 10713
  141.2070  133.6660  156.6279 LP  0  0  0  0  0  0  0  0  0  0  0  0  # atno 17394 bound_to 11000
  140.3386  134.7868  157.4381 LP  0  0  0  0  0  0  0  0  0  0  0  0  # atno 17395 bound_to 11000

$$$$
