AV-unprocessed.smi:61|AV-procd|sdf|598|dock5
  -GOLD-   2262016493D 1   1.00000     0.00000
 Structure written by MMmdl.
 28 29  0  0  0  0  0  0  0  0  1 V2000
  152.5931  138.6555  155.1560 N   0  0  0  0  0  0  0  0  0  0  0  0
  151.9102  139.7211  155.6896 C   0  0  0  0  0  0  0  0  0  0  0  0
  150.9352  140.2399  154.9426 N   0  0  0  0  0  0  0  0  0  0  0  0
  150.2655  141.2875  155.4687 C   0  0  0  0  0  0  0  0  0  0  0  0
  150.5786  141.8067  156.7412 C   0  0  0  0  0  0  0  0  0  0  0  0
  151.6329  141.1797  157.4469 C   0  0  0  0  0  0  0  0  0  0  0  0
  152.0083  141.6355  158.7281 N   0  0  0  0  0  0  0  0  0  0  0  0
  152.6544  140.6692  159.6106 C   0  0  0  0  0  0  0  0  0  0  0  0
  153.7432  141.4371  160.3687 C   0  0  0  0  0  0  0  0  0  0  0  0
  153.2775  142.8885  160.3051 C   0  0  0  0  0  0  0  0  0  0  0  0
  152.6013  142.9564  158.9311 C   0  0  2  0  0  0  0  0  0  0  0  0
  151.6121  144.1289  158.7435 C   0  0  0  0  0  0  0  0  0  0  0  0
  152.2341  145.3814  158.9471 O   0  0  0  0  0  0  0  0  0  0  0  0
  152.2930  140.1288  156.9010 N   0  0  0  0  0  0  0  0  0  0  0  0
  153.3426  138.2196  155.6730 H   0  0  0  0  0  0  0  0  0  0  0  0
  152.3172  138.2664  154.2663 H   0  0  0  0  0  0  0  0  0  0  0  0
  149.4755  141.7163  154.8700 H   0  0  0  0  0  0  0  0  0  0  0  0
  150.0373  142.6495  157.1451 H   0  0  0  0  0  0  0  0  0  0  0  0
  151.9073  140.2812  160.3037 H   0  0  0  0  0  0  0  0  0  0  0  0
  153.0823  139.8250  159.0682 H   0  0  0  0  0  0  0  0  0  0  0  0
  153.8829  141.0776  161.3885 H   0  0  0  0  0  0  0  0  0  0  0  0
  154.6948  141.3371  159.8445 H   0  0  0  0  0  0  0  0  0  0  0  0
  152.5636  143.0719  161.1088 H   0  0  0  0  0  0  0  0  0  0  0  0
  154.0945  143.6027  160.4101 H   0  0  0  0  0  0  0  0  0  0  0  0
  153.3927  143.0651  158.1879 H   0  0  0  0  0  0  0  0  0  0  0  0
  151.2177  144.1121  157.7273 H   0  0  0  0  0  0  0  0  0  0  0  0
  150.7542  144.0472  159.4097 H   0  0  0  0  0  0  0  0  0  0  0  0
  152.5730  145.4081  159.8288 H   0  0  0  0  0  0  0  0  0  0  0  0
  1  2  1  0  0  0  0
  1 15  1  0  0  0  0
  1 16  1  0  0  0  0
  2 14  1  0  0  0  0
  2  3  2  0  0  0  0
  3  4  1  0  0  0  0
  4  5  2  0  0  0  0
  4 17  1  0  0  0  0
  5  6  1  0  0  0  0
  5 18  1  0  0  0  0
  6  7  1  0  0  0  0
  6 14  2  0  0  0  0
  7 11  1  0  0  0  0
  7  8  1  0  0  0  0
  8  9  1  0  0  0  0
  8 19  1  0  0  0  0
  8 20  1  0  0  0  0
  9 10  1  0  0  0  0
  9 21  1  0  0  0  0
  9 22  1  0  0  0  0
 10 11  1  0  0  0  0
 10 23  1  0  0  0  0
 10 24  1  0  0  0  0
 11 12  1  0  0  0  0
 11 25  1  0  0  0  0
 12 13  1  0  0  0  0
 12 26  1  0  0  0  0
 12 27  1  0  0  0  0
 13 28  1  0  0  0  0
M  END
> <s_m_source_file>
AV-unprocessed.smi

> <i_m_source_file_index>
61

> <i_lp_mmshare_version>
43012

> <i_f3d_flags>
0

> <s_epik_input>
W05IMl1jMW5bY0hdW2NIXWMobjEpTjJbQ0gyXVtDSDJdW0NIMl1bQ0BIXTJbQ0gyXVtPSF0=

> <s_epik_cmdline>
J2VwaWtfcHl0aG9uJywgJy1waCcsICc3LjAnLCAnLXRuJywgJzgnLCAnLW1hJywgJzIwMCcsICctbWV0YWxfYmluZGluZycsICctaW1hZScsICc8aW5maWxlLm1hZT4nLCAnLW9tYWUnLCAnPG91dGZpbGUubWFlPic=

> <r_lp_tautomer_probability>
1

> <r_epik_Ionization_Penalty>
0.76024

> <r_epik_Ionization_Penalty_Charging>
0

> <r_epik_Ionization_Penalty_Neutral>
0.76024

> <r_epik_State_Penalty>
0.587668

> <r_epik_Charging_Adjusted_Penalty>
0.587668

> <i_epik_Tot_Q>
0

> <i_epik_Tot_abs_Q>
0

> <r_epik_Metal_State_Penalty>
0.307814

> <b_epik_Metal_Only>
0

> <s_lp_Force_Field>
OPLS_2005

> <r_lp_Energy>
26.7573

> <b_lp_Chiralities_Consistent>
1

> <s_lp_Variant>
AV-unprocessed.smi:61-4

> <Gold.Version>
5.8.1

> <Gold.Id.Protein>
6NUR|6NUR_protein|mol2

> <Gold.PLP.Fitness>
36.8493

> <Gold.PLP.PLP>
-31.2807

> <Gold.PLP.part.hbond>
-2.0303

> <Gold.PLP.part.metal>
0.0000

> <Gold.PLP.part.buried>
-4.4618

> <Gold.PLP.part.nonpolar>
-24.7126

> <Gold.PLP.part.repulsive>
0.2830

> <Gold.PLP.ligand.clash>
0.0000

> <Gold.PLP.ligand.torsion>
0.3882

> <Gold.PLP.Chemscore.Hbond>
2.0000

> <Gold.PLP.Chemscore.CHOScore>
0.0000

> <Gold.PLP.Chemscore.Metal>
0.0000

> <Gold.Chemscore.Hbonds>
donor molecule, donor type, donor heavy atom, donor atom, acceptor molecule, acceptor atom, score
      P1  H  7989  7998       L1     3  1.00
      P1  H  7997  8008       L1    14  0.80

> <Gold.PLP.Chemscore.Internal.Correction>
0.3450

> <Gold.Rescore>
     Score         DG    S(hbond)    S(metal)    S(lipo)     H(rot)  DE(clash)    DE(int)     intcor
     10.51     -10.82       0.74        0.00      67.40       1.96       0.01       0.29       ----

> <Gold.Chemscore.Fitness>
10.5122

> <Gold.Chemscore.DG>
-10.8204

> <Gold.Chemscore.ZeroCoef>
-5.4800

> <Gold.Chemscore.Hbond>
0.7373

> <Gold.Chemscore.Metal>
0.0000

> <Gold.Chemscore.Lipo>
67.3975

> <Gold.Chemscore.Internal_Hbond>
0.0000

> <Gold.Chemscore.DEClash>
0.0145

> <Gold.Chemscore.DEInternal>
0.2937

> <Gold.Chemscore.Rot>
1.9561

> <Gold.Chemscore.Internal.Correction>
   9.000000E+99

> <Gold.Chemscore.Hbonds>
donor molecule, donor type, donor heavy atom, donor atom, acceptor molecule, acceptor atom, score
      P1  H  7989  7998       L1     3  0.29
      P1  H  7997  8008       L1    14  0.17

> <Gold.Chemscore.Hbond.Weighted>
-2.4626

> <Gold.Chemscore.Metal.Weighted>
-0.0000

> <Gold.Chemscore.Lipo.Weighted>
-7.8855

> <Gold.Chemscore.Internal_Hbond.Weighted>
0.0000

> <Gold.Chemscore.DEClash.Weighted>
0.0145

> <Gold.Chemscore.DEInternal.Weighted>
0.2937

> <Gold.Chemscore.Rot.Weighted>
5.0077

> <Gold.Chemscore.Internal.Correction.Weighted>
   9.000000E+99

> <Gold.Protein.RotatedTorsions>
[ 6907 6896 6895 6894 ] final  100.53 input  -60.11 | X-H torsion
[ 7974 7965 7964 7962 ] final  -12.00 input  175.53 | X-H torsion
[ 8008 7997 7996 7995 ] final  -58.98 input   59.86 | X-H torsion
[ 10167 10162 10161 10158 ] final  166.61 input  -65.29 | X-H torsion
[ 10718 10713 10712 10709 ] final  102.69 input   66.30 | X-H torsion
[ 10763 10752 10751 10750 ] final  133.87 input  -60.55 | X-H torsion
[ 11005 11000 10999 10996 ] final  -65.94 input  -57.11 | X-H torsion

> <Gold.Protein.ActiveResidues>
 VAL166  LYS551  ARG553  GLY616  TRP617  ASP618  TYR619  PRO620  LYS621  CYS622 
 ASP623  PHE694  ASN695  SER759  ASP760  ASP761  ALA762  ILE779  LEU786  VAL792 
 PHE793  MET794  SER795  GLU796  ALA797  LYS798  CYS799  TRP800  GLU811  SER814 

> <Gold.Protein.RotatedAtoms>
  152.5370  134.0262  159.8003 H   0  0  0  0  0  0  0  0  0  0  0  0  # atno 6907 bound_to 6896
  151.0440  133.5673  159.2655 H   0  0  0  0  0  0  0  0  0  0  0  0  # atno 6908 bound_to 6896
  151.2632  135.0668  159.9160 H   0  0  0  0  0  0  0  0  0  0  0  0  # atno 6909 bound_to 6896
  146.2168  140.2993  142.8374 H   0  0  0  0  0  0  0  0  0  0  0  0  # atno 7974 bound_to 7965
  154.4332  140.1072  156.6043 H   0  0  0  0  0  0  0  0  0  0  0  0  # atno 8008 bound_to 7997
  155.5877  140.3491  155.4539 H   0  0  0  0  0  0  0  0  0  0  0  0  # atno 8009 bound_to 7997
  156.0270  140.1252  157.0287 H   0  0  0  0  0  0  0  0  0  0  0  0  # atno 8010 bound_to 7997
  139.4928  144.4009  151.9411 H   0  0  0  0  0  0  0  0  0  0  0  0  # atno 10167 bound_to 10162
  157.6795  131.0759  150.5442 H   0  0  0  0  0  0  0  0  0  0  0  0  # atno 10718 bound_to 10713
  153.8142  135.3125  155.3404 H   0  0  0  0  0  0  0  0  0  0  0  0  # atno 10763 bound_to 10752
  154.8039  135.4710  154.0346 H   0  0  0  0  0  0  0  0  0  0  0  0  # atno 10764 bound_to 10752
  153.1734  135.6881  153.8665 H   0  0  0  0  0  0  0  0  0  0  0  0  # atno 10765 bound_to 10752
  141.1468  133.6690  156.6063 H   0  0  0  0  0  0  0  0  0  0  0  0  # atno 11005 bound_to 11000
  144.9069  140.7710  143.5832 LP  0  0  0  0  0  0  0  0  0  0  0  0  # atno 17320 bound_to 7965
  145.2922  139.1880  143.4734 LP  0  0  0  0  0  0  0  0  0  0  0  0  # atno 17321 bound_to 7965
  140.3448  144.3160  150.5960 LP  0  0  0  0  0  0  0  0  0  0  0  0  # atno 17342 bound_to 10162
  140.5535  143.2202  151.7886 LP  0  0  0  0  0  0  0  0  0  0  0  0  # atno 17343 bound_to 10162
  156.5749  130.4289  149.6003 LP  0  0  0  0  0  0  0  0  0  0  0  0  # atno 17370 bound_to 10713
  156.2710  130.7017  151.1814 LP  0  0  0  0  0  0  0  0  0  0  0  0  # atno 17371 bound_to 10713
  140.3649  134.7655  157.4559 LP  0  0  0  0  0  0  0  0  0  0  0  0  # atno 17394 bound_to 11000
  140.0755  134.5803  155.8595 LP  0  0  0  0  0  0  0  0  0  0  0  0  # atno 17395 bound_to 11000

$$$$
