AV-unprocessed.smi:36|AV-procd|sdf|284|dock2
  -GOLD-   2262016 63D 1   1.00000     0.00000
 Structure written by MMmdl.
 64 67  0  0  0  0  0  0  0  0  1 V2000
  144.4588  134.1278  163.0986 C   0  0  0  0  0  0  0  0  0  0  0  0
  145.4153  133.7912  161.9427 C   0  0  0  0  0  0  0  0  0  0  0  0
  146.8413  134.2477  162.2942 C   0  0  0  0  0  0  0  0  0  0  0  0
  145.4073  132.2760  161.6809 C   0  0  0  0  0  0  0  0  0  0  0  0
  144.8449  134.6978  160.3609 Si  0  0  0  0  0  0  0  0  0  0  0  0
  143.0736  134.2046  159.8835 C   0  0  0  0  0  0  0  0  0  0  0  0
  144.9539  136.5831  160.5740 C   0  0  0  0  0  0  0  0  0  0  0  0
  145.8780  134.2378  159.1039 O   0  0  0  0  0  0  0  0  0  0  0  0
  147.2798  134.3976  159.1470 C   0  0  0  0  0  0  0  0  0  0  0  0
  147.8628  134.0441  157.7733 C   0  0  1  0  0  0  0  0  0  0  0  0
  147.4987  135.0209  156.7931 O   0  0  0  0  0  0  0  0  0  0  0  0
  148.6149  135.4028  156.0413 C   0  0  1  0  0  0  0  0  0  0  0  0
  149.0874  136.7347  156.5441 N   0  0  0  0  0  0  0  0  0  0  0  0
  149.0086  137.2717  157.8130 C   0  0  0  0  0  0  0  0  0  0  0  0
  149.5091  138.4709  157.9463 N   0  0  0  0  0  0  0  0  0  0  0  0
  149.9369  138.8009  156.6673 C   0  0  0  0  0  0  0  0  0  0  0  0
  150.5575  139.9451  156.1018 C   0  0  0  0  0  0  0  0  0  0  0  0
  150.8673  141.0071  156.8819 N   0  0  0  0  0  0  0  0  0  0  0  0
  151.9504  141.1281  157.8416 C   0  0  0  0  0  0  0  0  0  0  0  0
  152.8081  140.2546  157.9755 O   0  0  0  0  0  0  0  0  0  0  0  0
  152.0188  142.4233  158.5968 C   0  0  0  0  0  0  0  0  0  0  0  0
  151.6999  143.6375  157.9486 C   0  0  0  0  0  0  0  0  0  0  0  0
  151.7811  144.8595  158.6443 C   0  0  0  0  0  0  0  0  0  0  0  0
  152.1893  144.8785  159.9912 C   0  0  0  0  0  0  0  0  0  0  0  0
  152.5192  143.6747  160.6416 C   0  0  0  0  0  0  0  0  0  0  0  0
  152.4380  142.4519  159.9473 C   0  0  0  0  0  0  0  0  0  0  0  0
  150.8314  139.9144  154.7707 N   0  0  0  0  0  0  0  0  0  0  0  0
  150.5122  138.8403  154.0425 C   0  0  0  0  0  0  0  0  0  0  0  0
  149.9320  137.7057  154.4399 N   0  0  0  0  0  0  0  0  0  0  0  0
  149.6632  137.7258  155.7775 C   0  0  0  0  0  0  0  0  0  0  0  0
  149.6777  134.3335  156.2978 C   0  0  0  0  0  0  0  0  0  0  0  0
  149.3933  133.9717  157.7399 C   0  0  2  0  0  0  0  0  0  0  0  0
  149.8801  132.6808  158.0448 O   0  0  0  0  0  0  0  0  0  0  0  0
  144.7575  133.6236  164.0182 H   0  0  0  0  0  0  0  0  0  0  0  0
  143.4378  133.8197  162.8722 H   0  0  0  0  0  0  0  0  0  0  0  0
  144.4422  135.1987  163.3021 H   0  0  0  0  0  0  0  0  0  0  0  0
  146.8774  135.3180  162.4985 H   0  0  0  0  0  0  0  0  0  0  0  0
  147.5351  134.0449  161.4775 H   0  0  0  0  0  0  0  0  0  0  0  0
  147.2153  133.7327  163.1797 H   0  0  0  0  0  0  0  0  0  0  0  0
  145.7490  131.7206  162.5549 H   0  0  0  0  0  0  0  0  0  0  0  0
  146.0621  132.0147  160.8488 H   0  0  0  0  0  0  0  0  0  0  0  0
  144.4066  131.9195  161.4363 H   0  0  0  0  0  0  0  0  0  0  0  0
  142.3598  134.4713  160.6625 H   0  0  0  0  0  0  0  0  0  0  0  0
  142.9870  133.1313  159.7159 H   0  0  0  0  0  0  0  0  0  0  0  0
  142.7542  134.7016  158.9679 H   0  0  0  0  0  0  0  0  0  0  0  0
  144.3512  136.9261  161.4146 H   0  0  0  0  0  0  0  0  0  0  0  0
  144.5986  137.1074  159.6871 H   0  0  0  0  0  0  0  0  0  0  0  0
  145.9787  136.9074  160.7533 H   0  0  0  0  0  0  0  0  0  0  0  0
  147.5115  135.4323  159.4011 H   0  0  0  0  0  0  0  0  0  0  0  0
  147.7021  133.7650  159.9270 H   0  0  0  0  0  0  0  0  0  0  0  0
  147.4412  133.0981  157.4293 H   0  0  0  0  0  0  0  0  0  0  0  0
  148.3783  135.5705  154.9900 H   0  0  0  0  0  0  0  0  0  0  0  0
  148.5664  136.7500  158.6479 H   0  0  0  0  0  0  0  0  0  0  0  0
  150.2580  141.8078  156.7990 H   0  0  0  0  0  0  0  0  0  0  0  0
  151.3865  143.6398  156.9144 H   0  0  0  0  0  0  0  0  0  0  0  0
  151.5315  145.7832  158.1435 H   0  0  0  0  0  0  0  0  0  0  0  0
  152.2533  145.8156  160.5240 H   0  0  0  0  0  0  0  0  0  0  0  0
  152.8380  143.6897  161.6734 H   0  0  0  0  0  0  0  0  0  0  0  0
  152.7057  141.5411  160.4627 H   0  0  0  0  0  0  0  0  0  0  0  0
  150.7593  138.8981  152.9928 H   0  0  0  0  0  0  0  0  0  0  0  0
  149.4816  133.4902  155.6337 H   0  0  0  0  0  0  0  0  0  0  0  0
  150.6919  134.6916  156.1216 H   0  0  0  0  0  0  0  0  0  0  0  0
  149.8374  134.7097  158.4099 H   0  0  0  0  0  0  0  0  0  0  0  0
  149.2192  132.0482  157.8057 H   0  0  0  0  0  0  0  0  0  0  0  0
  1  2  1  0  0  0  0
  1 34  1  0  0  0  0
  1 35  1  0  0  0  0
  1 36  1  0  0  0  0
  2  3  1  0  0  0  0
  2  4  1  0  0  0  0
  2  5  1  0  0  0  0
  3 37  1  0  0  0  0
  3 38  1  0  0  0  0
  3 39  1  0  0  0  0
  4 40  1  0  0  0  0
  4 41  1  0  0  0  0
  4 42  1  0  0  0  0
  5  6  1  0  0  0  0
  5  7  1  0  0  0  0
  5  8  1  0  0  0  0
  6 43  1  0  0  0  0
  6 44  1  0  0  0  0
  6 45  1  0  0  0  0
  7 46  1  0  0  0  0
  7 47  1  0  0  0  0
  7 48  1  0  0  0  0
  8  9  1  0  0  0  0
  9 10  1  0  0  0  0
  9 49  1  0  0  0  0
  9 50  1  0  0  0  0
 10 32  1  0  0  0  0
 10 11  1  0  0  0  0
 10 51  1  0  0  0  0
 11 12  1  0  0  0  0
 12 13  1  0  0  0  0
 12 31  1  0  0  0  0
 12 52  1  0  0  0  0
 13 30  1  0  0  0  0
 13 14  1  0  0  0  0
 14 15  2  0  0  0  0
 14 53  1  0  0  0  0
 15 16  1  0  0  0  0
 16 30  2  0  0  0  0
 16 17  1  0  0  0  0
 17 18  1  0  0  0  0
 17 27  2  0  0  0  0
 18 19  1  0  0  0  0
 18 54  1  0  0  0  0
 19 20  2  0  0  0  0
 19 21  1  0  0  0  0
 21 26  1  0  0  0  0
 21 22  2  0  0  0  0
 22 23  1  0  0  0  0
 22 55  1  0  0  0  0
 23 24  2  0  0  0  0
 23 56  1  0  0  0  0
 24 25  1  0  0  0  0
 24 57  1  0  0  0  0
 25 26  2  0  0  0  0
 25 58  1  0  0  0  0
 26 59  1  0  0  0  0
 27 28  1  0  0  0  0
 28 29  2  0  0  0  0
 28 60  1  0  0  0  0
 29 30  1  0  0  0  0
 31 32  1  0  0  0  0
 31 61  1  0  0  0  0
 31 62  1  0  0  0  0
 32 33  1  0  0  0  0
 32 63  1  0  0  0  0
 33 64  1  0  0  0  0
M  END
> <s_m_source_file>
AV-unprocessed.smi

> <i_m_source_file_index>
36

> <i_lp_mmshare_version>
43012

> <i_f3d_flags>
0

> <s_epik_input>
W0NIM11DKFtDSDNdKShbQ0gzXSlbU2ldKFtDSDNdKShbQ0gzXSlPW0NIMl1bQ0BASF0xT1tDQEhdKFtDSDJdW0NASF0xW09IXSluKFtjSF1uMiljKGMyMyluW2NIXW5jM1tOSF1DKD1PKWM0W2NIXVtjSF1bY0hdW2NIXVtjSF00

> <s_epik_cmdline>
J2VwaWtfcHl0aG9uJywgJy1waCcsICc3LjAnLCAnLXRuJywgJzgnLCAnLW1hJywgJzIwMCcsICctbWV0YWxfYmluZGluZycsICctaW1hZScsICc8aW5maWxlLm1hZT4nLCAnLW9tYWUnLCAnPG91dGZpbGUubWFlPic=

> <r_lp_tautomer_probability>
1

> <r_epik_Ionization_Penalty>
0.00150433

> <r_epik_Ionization_Penalty_Charging>
0

> <r_epik_Ionization_Penalty_Neutral>
0.00150433

> <r_epik_State_Penalty>
0.00724046

> <r_epik_Charging_Adjusted_Penalty>
0.00724046

> <i_epik_Tot_Q>
0

> <i_epik_Tot_abs_Q>
0

> <r_epik_Metal_State_Penalty>
0.323355

> <b_epik_Metal_Only>
0

> <s_epik_Chemistry_Notes>
This compound contains an acetal/aminal-like group ( X-CH(R)-Y where X, Y are N, S, or O) that may be acid/base labile, releasing an aldehyde.

> <s_lp_Force_Field>
OPLS_2005

> <r_lp_Energy>
33.6094

> <b_lp_Chiralities_Consistent>
1

> <s_lp_Variant>
AV-unprocessed.smi:36-6

> <Gold.Version>
5.8.1

> <Gold.Id.Protein>
6NUR|6NUR_protein|mol2

> <Gold.PLP.Fitness>
52.6831

> <Gold.PLP.PLP>
-45.5448

> <Gold.PLP.part.hbond>
-3.0000

> <Gold.PLP.part.metal>
0.0000

> <Gold.PLP.part.buried>
-5.4346

> <Gold.PLP.part.nonpolar>
-37.1273

> <Gold.PLP.part.repulsive>
0.4955

> <Gold.PLP.ligand.clash>
0.0000

> <Gold.PLP.ligand.torsion>
2.0670

> <Gold.PLP.Chemscore.Hbond>
2.5188

> <Gold.PLP.Chemscore.CHOScore>
1.0000

> <Gold.PLP.Chemscore.Metal>
0.0000

> <Gold.Chemscore.Hbonds>
donor molecule, donor type, donor heavy atom, donor atom, acceptor molecule, acceptor atom, score
      P1  H  6896  6908       L1    33  0.57
      P1  H  7989  7998       L1    27  0.90
      P1  H  7997  8008       L1    20  0.96
      L1  C    28    60       P1  7957  1.00

> <Gold.PLP.Chemscore.Internal.Correction>
0.7159

> <Gold.Rescore>
     Score         DG    S(hbond)    S(metal)    S(lipo)     H(rot)  DE(clash)    DE(int)     intcor
     15.62     -18.06       1.65        0.00     119.51       2.70       0.59       1.86       ----

> <Gold.Chemscore.Fitness>
15.6174

> <Gold.Chemscore.DG>
-18.0627

> <Gold.Chemscore.ZeroCoef>
-5.4800

> <Gold.Chemscore.Hbond>
1.6533

> <Gold.Chemscore.Metal>
0.0000

> <Gold.Chemscore.Lipo>
119.5127

> <Gold.Chemscore.Internal_Hbond>
0.0000

> <Gold.Chemscore.DEClash>
0.5866

> <Gold.Chemscore.DEInternal>
1.8586

> <Gold.Chemscore.Rot>
2.7041

> <Gold.Chemscore.Internal.Correction>
   9.000000E+99

> <Gold.Chemscore.Hbonds>
donor molecule, donor type, donor heavy atom, donor atom, acceptor molecule, acceptor atom, score
      P1  H  6896  6908       L1    33  0.04
      P1  H  7989  7998       L1    27  0.18
      P1  H  7997  8008       L1    20  0.88

> <Gold.Chemscore.Hbond.Weighted>
-5.5222

> <Gold.Chemscore.Metal.Weighted>
-0.0000

> <Gold.Chemscore.Lipo.Weighted>
-13.9830

> <Gold.Chemscore.Internal_Hbond.Weighted>
0.0000

> <Gold.Chemscore.DEClash.Weighted>
0.5866

> <Gold.Chemscore.DEInternal.Weighted>
1.8586

> <Gold.Chemscore.Rot.Weighted>
6.9225

> <Gold.Chemscore.Internal.Correction.Weighted>
   9.000000E+99

> <Gold.Protein.RotatedTorsions>
[ 6907 6896 6895 6894 ] final   82.55 input  -60.11 | X-H torsion
[ 7974 7965 7964 7962 ] final   19.98 input  175.53 | X-H torsion
[ 8008 7997 7996 7995 ] final  -75.90 input   59.86 | X-H torsion
[ 10167 10162 10161 10158 ] final -142.29 input  -65.29 | X-H torsion
[ 10718 10713 10712 10709 ] final  143.08 input   66.30 | X-H torsion
[ 10763 10752 10751 10750 ] final -114.58 input  -60.55 | X-H torsion
[ 11005 11000 10999 10996 ] final   22.09 input  -57.11 | X-H torsion

> <Gold.Protein.ActiveResidues>
 VAL166  LYS551  ARG553  GLY616  TRP617  ASP618  TYR619  PRO620  LYS621  CYS622 
 ASP623  PHE694  ASN695  SER759  ASP760  ASP761  ALA762  ILE779  LEU786  VAL792 
 PHE793  MET794  SER795  GLU796  ALA797  LYS798  CYS799  TRP800  GLU811  SER814 

> <Gold.Protein.RotatedAtoms>
  152.5302  134.3033  159.9086 H   0  0  0  0  0  0  0  0  0  0  0  0  # atno 6907 bound_to 6896
  151.2983  133.4127  159.2645 H   0  0  0  0  0  0  0  0  0  0  0  0  # atno 6908 bound_to 6896
  151.0141  134.9435  159.8080 H   0  0  0  0  0  0  0  0  0  0  0  0  # atno 6909 bound_to 6896
  146.2129  139.8235  142.8675 H   0  0  0  0  0  0  0  0  0  0  0  0  # atno 7974 bound_to 7965
  154.5458  140.0736  156.8586 H   0  0  0  0  0  0  0  0  0  0  0  0  # atno 8008 bound_to 7997
  155.3091  140.3389  155.4226 H   0  0  0  0  0  0  0  0  0  0  0  0  # atno 8009 bound_to 7997
  156.1916  140.1688  156.8066 H   0  0  0  0  0  0  0  0  0  0  0  0  # atno 8010 bound_to 7997
  139.8102  143.7713  152.2663 H   0  0  0  0  0  0  0  0  0  0  0  0  # atno 10167 bound_to 10162
  157.3731  131.0982  151.0809 H   0  0  0  0  0  0  0  0  0  0  0  0  # atno 10718 bound_to 10713
  154.8446  135.4413  154.1528 H   0  0  0  0  0  0  0  0  0  0  0  0  # atno 10763 bound_to 10752
  153.2684  135.6943  153.7512 H   0  0  0  0  0  0  0  0  0  0  0  0  # atno 10764 bound_to 10752
  153.6762  135.3410  155.3141 H   0  0  0  0  0  0  0  0  0  0  0  0  # atno 10765 bound_to 10752
  140.3844  134.1886  155.7663 H   0  0  0  0  0  0  0  0  0  0  0  0  # atno 11005 bound_to 11000
  145.3071  141.0210  143.3575 LP  0  0  0  0  0  0  0  0  0  0  0  0  # atno 17320 bound_to 7965
  144.8963  139.4708  143.6654 LP  0  0  0  0  0  0  0  0  0  0  0  0  # atno 17321 bound_to 7965
  139.7859  144.7428  151.0022 LP  0  0  0  0  0  0  0  0  0  0  0  0  # atno 17342 bound_to 10162
  140.7818  143.4492  151.0437 LP  0  0  0  0  0  0  0  0  0  0  0  0  # atno 17343 bound_to 10162
  157.1906  130.6350  149.5703 LP  0  0  0  0  0  0  0  0  0  0  0  0  # atno 17370 bound_to 10713
  155.9760  130.4723  150.6496 LP  0  0  0  0  0  0  0  0  0  0  0  0  # atno 17371 bound_to 10713
  141.1912  133.8199  157.0887 LP  0  0  0  0  0  0  0  0  0  0  0  0  # atno 17394 bound_to 11000
  140.0454  134.9833  157.1039 LP  0  0  0  0  0  0  0  0  0  0  0  0  # atno 17395 bound_to 11000

$$$$
