AV-unprocessed.smi:2781|AV-procd|sdf|10717|dock3
  -GOLD-   2272015153D 1   1.00000     0.00000
 Structure written by MMmdl.
 35 38  0  0  0  0  0  0  0  0  1 V2000
  150.3917  140.4831  156.2460 O   0  0  0  0  0  0  0  0  0  0  0  0
  149.9901  141.5919  155.8910 C   0  0  0  0  0  0  0  0  0  0  0  0
  149.0444  141.8141  154.9608 N   0  0  0  0  0  0  0  0  0  0  0  0
  148.3266  140.8600  154.1916 C   0  0  0  0  0  0  0  0  0  0  0  0
  147.6327  141.3884  153.0791 C   0  0  0  0  0  0  0  0  0  0  0  0
  146.8913  140.5242  152.2499 C   0  0  0  0  0  0  0  0  0  0  0  0
  146.8644  139.1521  152.5562 C   0  0  0  0  0  0  0  0  0  0  0  0
  146.1657  138.2828  151.7883 F   0  0  0  0  0  0  0  0  0  0  0  0
  147.5828  138.7064  153.6810 C   0  0  0  0  0  0  0  0  0  0  0  0
  148.2935  139.5339  154.4766 N   0  0  0  0  0  0  0  0  0  0  0  0
  150.4504  142.7445  156.3967 N   0  0  0  0  0  0  0  0  0  0  0  0
  151.4549  142.8659  157.4033 C   0  0  2  0  0  0  0  0  0  0  0  0
  150.9920  143.2536  158.7994 C   0  0  1  0  0  0  0  0  0  0  0  0
  151.8324  143.1788  160.0708 C   0  0  2  0  0  0  0  0  0  0  0  0
  151.6173  144.4881  160.8575 C   0  0  0  0  0  0  0  0  0  0  0  0
  152.3633  145.5286  159.9860 C   0  0  0  0  0  0  0  0  0  0  0  0
  152.9027  144.6662  158.8258 C   0  0  1  0  0  0  0  0  0  0  0  0
  153.2682  143.3915  159.5883 C   0  0  0  0  0  0  0  0  0  0  0  0
  151.7166  144.2587  157.9564 C   0  0  1  0  0  0  0  0  0  0  0  0
  148.8121  142.7795  154.7805 H   0  0  0  0  0  0  0  0  0  0  0  0
  147.6650  142.4455  152.8589 H   0  0  0  0  0  0  0  0  0  0  0  0
  146.3540  140.9079  151.3954 H   0  0  0  0  0  0  0  0  0  0  0  0
  147.5877  137.6604  153.9497 H   0  0  0  0  0  0  0  0  0  0  0  0
  150.0606  143.6058  156.0433 H   0  0  0  0  0  0  0  0  0  0  0  0
  152.3028  142.1892  157.3252 H   0  0  0  0  0  0  0  0  0  0  0  0
  149.9230  143.3956  158.9489 H   0  0  0  0  0  0  0  0  0  0  0  0
  151.6573  142.2664  160.6410 H   0  0  0  0  0  0  0  0  0  0  0  0
  150.5606  144.7283  160.9802 H   0  0  0  0  0  0  0  0  0  0  0  0
  152.0643  144.4257  161.8505 H   0  0  0  0  0  0  0  0  0  0  0  0
  151.7063  146.3263  159.6369 H   0  0  0  0  0  0  0  0  0  0  0  0
  153.1792  145.9870  160.5464 H   0  0  0  0  0  0  0  0  0  0  0  0
  153.7118  145.1200  158.2531 H   0  0  0  0  0  0  0  0  0  0  0  0
  153.9794  143.5584  160.3999 H   0  0  0  0  0  0  0  0  0  0  0  0
  153.6558  142.5890  158.9616 H   0  0  0  0  0  0  0  0  0  0  0  0
  151.1373  145.0786  157.5353 H   0  0  0  0  0  0  0  0  0  0  0  0
  1  2  2  0  0  0  0
  2  3  1  0  0  0  0
  2 11  1  0  0  0  0
  3  4  1  0  0  0  0
  3 20  1  0  0  0  0
  4 10  1  0  0  0  0
  4  5  2  0  0  0  0
  5  6  1  0  0  0  0
  5 21  1  0  0  0  0
  6  7  2  0  0  0  0
  6 22  1  0  0  0  0
  7  8  1  0  0  0  0
  7  9  1  0  0  0  0
  9 10  2  0  0  0  0
  9 23  1  0  0  0  0
 11 12  1  0  0  0  0
 11 24  1  0  0  0  0
 12 19  1  0  0  0  0
 12 13  1  0  0  0  0
 12 25  1  0  0  0  0
 13 19  1  0  0  0  0
 13 14  1  0  0  0  0
 13 26  1  0  0  0  0
 14 18  1  0  0  0  0
 14 15  1  0  0  0  0
 14 27  1  0  0  0  0
 15 16  1  0  0  0  0
 15 28  1  0  0  0  0
 15 29  1  0  0  0  0
 16 17  1  0  0  0  0
 16 30  1  0  0  0  0
 16 31  1  0  0  0  0
 17 18  1  0  0  0  0
 17 19  1  0  0  0  0
 17 32  1  0  0  0  0
 18 33  1  0  0  0  0
 18 34  1  0  0  0  0
 19 35  1  0  0  0  0
M  END
> <s_m_source_file>
AV-unprocessed.smi

> <i_m_source_file_index>
2781

> <i_lp_mmshare_version>
43012

> <i_f3d_flags>
0

> <s_epik_input>
bjFbY0hdYyhGKVtjSF1bY0hdYzFbTkhdQyg9TylbTkhdW0NASF0yW0NAQEhdM1tDQEhdKFtDSDJdNClbQ0gyXVtDSDJdW0NASF00W0NASF0yMw==

> <s_epik_cmdline>
J2VwaWtfcHl0aG9uJywgJy1waCcsICc3LjAnLCAnLXRuJywgJzgnLCAnLW1hJywgJzIwMCcsICctbWV0YWxfYmluZGluZycsICctaW1hZScsICc8aW5maWxlLm1hZT4nLCAnLW9tYWUnLCAnPG91dGZpbGUubWFlPic=

> <r_lp_tautomer_probability>
1

> <r_epik_Ionization_Penalty>
4.05776e-05

> <r_epik_Ionization_Penalty_Charging>
0

> <r_epik_Ionization_Penalty_Neutral>
4.05776e-05

> <r_epik_State_Penalty>
-0

> <r_epik_Charging_Adjusted_Penalty>
0

> <i_epik_Tot_Q>
0

> <i_epik_Tot_abs_Q>
0

> <r_epik_Metal_State_Penalty>
-0

> <b_epik_Metal_Only>
0

> <s_lp_Force_Field>
OPLS_2005

> <r_lp_Energy>
77.2999

> <b_lp_Chiralities_Consistent>
1

> <s_lp_Variant>
AV-unprocessed.smi:2781-1

> <Gold.Version>
5.8.1

> <Gold.Id.Protein>
6NUR|6NUR_protein|mol2

> <Gold.PLP.Fitness>
48.9919

> <Gold.PLP.PLP>
-41.6057

> <Gold.PLP.part.hbond>
-1.9721

> <Gold.PLP.part.metal>
0.0000

> <Gold.PLP.part.buried>
-0.3492

> <Gold.PLP.part.nonpolar>
-40.3497

> <Gold.PLP.part.repulsive>
0.3990

> <Gold.PLP.ligand.clash>
0.0000

> <Gold.PLP.ligand.torsion>
0.1558

> <Gold.PLP.Chemscore.Hbond>
1.6890

> <Gold.PLP.Chemscore.CHOScore>
0.8682

> <Gold.PLP.Chemscore.Metal>
0.0000

> <Gold.Chemscore.Hbonds>
donor molecule, donor type, donor heavy atom, donor atom, acceptor molecule, acceptor atom, score
      L1  H     3    20       P1  8028  0.69
      L1  H    11    24       P1  8028  1.00
      L1  C     9    23       P1  7948  0.08

> <Gold.PLP.Chemscore.Internal.Correction>
0.0262

> <Gold.Rescore>
     Score         DG    S(hbond)    S(metal)    S(lipo)     H(rot)  DE(clash)    DE(int)     intcor
     18.57     -21.05       1.01        0.00     126.17       1.00       1.17       1.31       ----

> <Gold.Chemscore.Fitness>
18.5728

> <Gold.Chemscore.DG>
-21.0550

> <Gold.Chemscore.ZeroCoef>
-5.4800

> <Gold.Chemscore.Hbond>
1.0098

> <Gold.Chemscore.Metal>
0.0000

> <Gold.Chemscore.Lipo>
126.1732

> <Gold.Chemscore.Internal_Hbond>
0.0000

> <Gold.Chemscore.DEClash>
1.1689

> <Gold.Chemscore.DEInternal>
1.3132

> <Gold.Chemscore.Rot>
1.0000

> <Gold.Chemscore.Internal.Correction>
   9.000000E+99

> <Gold.Chemscore.Hbonds>
donor molecule, donor type, donor heavy atom, donor atom, acceptor molecule, acceptor atom, score
      L1  H     3    20       P1  8028  0.67
      L1  H    11    24       P1  8028  0.99

> <Gold.Chemscore.Hbond.Weighted>
-3.3727

> <Gold.Chemscore.Metal.Weighted>
-0.0000

> <Gold.Chemscore.Lipo.Weighted>
-14.7623

> <Gold.Chemscore.Internal_Hbond.Weighted>
0.0000

> <Gold.Chemscore.DEClash.Weighted>
1.1689

> <Gold.Chemscore.DEInternal.Weighted>
1.3132

> <Gold.Chemscore.Rot.Weighted>
2.5600

> <Gold.Chemscore.Internal.Correction.Weighted>
   9.000000E+99

> <Gold.Protein.RotatedTorsions>
[ 6907 6896 6895 6894 ] final  117.24 input  -60.11 | X-H torsion
[ 7974 7965 7964 7962 ] final  -37.50 input  175.53 | X-H torsion
[ 8008 7997 7996 7995 ] final  132.56 input   59.86 | X-H torsion
[ 10167 10162 10161 10158 ] final -148.39 input  -65.29 | X-H torsion
[ 10718 10713 10712 10709 ] final  140.90 input   66.30 | X-H torsion
[ 10763 10752 10751 10750 ] final  122.24 input  -60.55 | X-H torsion
[ 11005 11000 10999 10996 ] final   46.89 input  -57.11 | X-H torsion

> <Gold.Protein.ActiveResidues>
 VAL166  LYS551  ARG553  GLY616  TRP617  ASP618  TYR619  PRO620  LYS621  CYS622 
 ASP623  PHE694  ASN695  SER759  ASP760  ASP761  ALA762  ILE779  LEU786  VAL792 
 PHE793  MET794  SER795  GLU796  ALA797  LYS798  CYS799  TRP800  GLU811  SER814 

> <Gold.Protein.RotatedAtoms>
  152.4625  133.7852  159.6871 H   0  0  0  0  0  0  0  0  0  0  0  0  # atno 6907 bound_to 6896
  150.8575  133.7684  159.3010 H   0  0  0  0  0  0  0  0  0  0  0  0  # atno 6908 bound_to 6896
  151.5260  135.1071  159.9942 H   0  0  0  0  0  0  0  0  0  0  0  0  # atno 6909 bound_to 6896
  146.0570  140.6403  142.9015 H   0  0  0  0  0  0  0  0  0  0  0  0  # atno 7974 bound_to 7965
  156.2984  140.2543  156.3109 H   0  0  0  0  0  0  0  0  0  0  0  0  # atno 8008 bound_to 7997
  154.9327  140.0398  157.2075 H   0  0  0  0  0  0  0  0  0  0  0  0  # atno 8009 bound_to 7997
  154.8202  140.2859  155.5796 H   0  0  0  0  0  0  0  0  0  0  0  0  # atno 8010 bound_to 7997
  139.7535  143.8482  152.2592 H   0  0  0  0  0  0  0  0  0  0  0  0  # atno 10167 bound_to 10162
  157.3980  131.1013  151.0580 H   0  0  0  0  0  0  0  0  0  0  0  0  # atno 10718 bound_to 10713
  153.6266  135.3403  155.3028 H   0  0  0  0  0  0  0  0  0  0  0  0  # atno 10763 bound_to 10752
  154.8589  135.4285  154.2150 H   0  0  0  0  0  0  0  0  0  0  0  0  # atno 10764 bound_to 10752
  153.3036  135.7026  153.7253 H   0  0  0  0  0  0  0  0  0  0  0  0  # atno 10765 bound_to 10752
  140.1328  134.4683  155.8508 H   0  0  0  0  0  0  0  0  0  0  0  0  # atno 11005 bound_to 11000
  144.7153  140.4188  143.7049 LP  0  0  0  0  0  0  0  0  0  0  0  0  # atno 17320 bound_to 7965
  145.6627  139.1584  143.2799 LP  0  0  0  0  0  0  0  0  0  0  0  0  # atno 17321 bound_to 7965
  139.8467  144.7184  150.9264 LP  0  0  0  0  0  0  0  0  0  0  0  0  # atno 17342 bound_to 10162
  140.7800  143.3935  151.1270 LP  0  0  0  0  0  0  0  0  0  0  0  0  # atno 17343 bound_to 10162
  157.1589  130.6217  149.5605 LP  0  0  0  0  0  0  0  0  0  0  0  0  # atno 17370 bound_to 10713
  155.9815  130.4823  150.6834 LP  0  0  0  0  0  0  0  0  0  0  0  0  # atno 17371 bound_to 10713
  141.2173  133.6802  156.7101 LP  0  0  0  0  0  0  0  0  0  0  0  0  # atno 17394 bound_to 11000
  140.2820  134.8309  157.3942 LP  0  0  0  0  0  0  0  0  0  0  0  0  # atno 17395 bound_to 11000

$$$$
