AV-unprocessed.smi:72|AV-procd|sdf|696|dock7
  -GOLD-   2262017 13D 1   1.00000     0.00000
 Structure written by MMmdl.
 30 31  0  0  0  0  0  0  0  0  2 V2000
  152.3264  144.4569  158.3717 N   0  0  0  0  0  0  0  0  0  0  0  0
  151.7965  143.2422  157.9898 C   0  0  0  0  0  0  0  0  0  0  0  0
  150.7130  143.2546  157.1297 N   0  3  0  0  0  0  0  0  0  0  0  0
  150.0824  142.1658  156.6687 C   0  0  0  0  0  0  0  0  0  0  0  0
  150.5018  140.9755  157.0468 N   0  0  0  0  0  0  0  0  0  0  0  0
  149.8451  139.7111  156.5498 C   0  0  1  0  0  0  0  0  0  0  0  0
  148.6807  140.0601  155.8614 O   0  0  0  0  0  0  0  0  0  0  0  0
  148.8443  139.8337  154.4633 C   0  0  2  0  0  0  0  0  0  0  0  0
  147.4728  139.5986  153.8129 C   0  0  0  0  0  0  0  0  0  0  0  0
  147.6248  139.4410  152.4184 O   0  0  0  0  0  0  0  0  0  0  0  0
  149.7518  138.6046  154.4517 C   0  0  1  0  0  0  0  0  0  0  0  0
  150.3762  138.3802  153.2014 O   0  0  0  0  0  0  0  0  0  0  0  0
  150.7386  138.9163  155.5712 C   0  0  1  0  0  0  0  0  0  0  0  0
  151.8566  139.6570  155.1018 O   0  0  0  0  0  0  0  0  0  0  0  0
  151.6161  140.8609  157.9168 C   0  0  0  0  0  0  0  0  0  0  0  0
  152.0307  139.7528  158.2555 O   0  0  0  0  0  0  0  0  0  0  0  0
  152.2055  142.0572  158.3507 N   0  0  0  0  0  0  0  0  0  0  0  0
  149.5520  139.1461  157.4362 H   0  0  0  0  0  0  0  0  0  0  0  0
  149.3628  140.6746  153.9992 H   0  0  0  0  0  0  0  0  0  0  0  0
  149.1702  137.7210  154.7202 H   0  0  0  0  0  0  0  0  0  0  0  0
  151.0996  138.0081  156.0551 H   0  0  0  0  0  0  0  0  0  0  0  0
  153.1169  144.5431  158.9951 H   0  0  0  0  0  0  0  0  0  0  0  0
  151.9752  145.3501  158.0574 H   0  0  0  0  0  0  0  0  0  0  0  0
  149.2444  142.2851  155.9956 H   0  0  0  0  0  0  0  0  0  0  0  0
  147.0250  138.6826  154.1994 H   0  0  0  0  0  0  0  0  0  0  0  0
  146.7831  140.4143  154.0314 H   0  0  0  0  0  0  0  0  0  0  0  0
  148.5216  139.6338  152.1903 H   0  0  0  0  0  0  0  0  0  0  0  0
  149.8775  137.7322  152.7275 H   0  0  0  0  0  0  0  0  0  0  0  0
  152.6013  139.0763  155.0537 H   0  0  0  0  0  0  0  0  0  0  0  0
  150.3736  144.1561  156.8260 H   0  0  0  0  0  0  0  0  0  0  0  0
  1  2  1  0  0  0  0
  1 22  1  0  0  0  0
  1 23  1  0  0  0  0
  2 17  2  0  0  0  0
  2  3  1  0  0  0  0
  3  4  2  0  0  0  0
  3 30  1  0  0  0  0
  4  5  1  0  0  0  0
  4 24  1  0  0  0  0
  5  6  1  0  0  0  0
  5 15  1  0  0  0  0
  6 18  1  0  0  0  0
  6 13  1  0  0  0  0
  6  7  1  0  0  0  0
  7  8  1  0  0  0  0
  8 19  1  0  0  0  0
  8  9  1  0  0  0  0
  8 11  1  0  0  0  0
  9 10  1  0  0  0  0
  9 25  1  0  0  0  0
  9 26  1  0  0  0  0
 10 27  1  0  0  0  0
 11 20  1  0  0  0  0
 11 12  1  0  0  0  0
 11 13  1  0  0  0  0
 12 28  1  0  0  0  0
 13 21  1  0  0  0  0
 13 14  1  0  0  0  0
 14 29  1  0  0  0  0
 15 16  2  0  0  0  0
 15 17  1  0  0  0  0
M  CHG  1   3   1
M  END
> <s_m_source_file>
AV-unprocessed.smi

> <i_m_source_file_index>
72

> <i_lp_mmshare_version>
43012

> <i_f3d_flags>
0

> <s_epik_input>
W05IMl1jMW5bY0hdbihjKD1PKW4xKVtDQEBIXTJPW0NASF0oW0NIMl1bT0hdKVtDQEBIXShbT0hdKVtDQEhdMltPSF0=

> <s_epik_cmdline>
J2VwaWtfcHl0aG9uJywgJy1waCcsICc3LjAnLCAnLXRuJywgJzgnLCAnLW1hJywgJzIwMCcsICctbWV0YWxfYmluZGluZycsICctaW1hZScsICc8aW5maWxlLm1hZT4nLCAnLW9tYWUnLCAnPG91dGZpbGUubWFlPic=

> <r_lp_tautomer_probability>
4.77166e-05

> <r_epik_Ionization_Penalty>
0.104979

> <r_epik_Ionization_Penalty_Charging>
0.0999619

> <r_epik_Ionization_Penalty_Neutral>
0.00501745

> <r_epik_State_Penalty>
2.51541

> <r_epik_Charging_Adjusted_Penalty>
2.61537

> <i_epik_Tot_Q>
1

> <i_epik_Tot_abs_Q>
1

> <r_epik_Metal_State_Penalty>
3.53763

> <b_epik_Metal_Only>
0

> <s_epik_Chemistry_Notes>
This compound contains an acetal/aminal-like group ( X-CH(R)-Y where X, Y are N, S, or O) that may be acid/base labile, releasing an aldehyde.

> <s_lp_Force_Field>
OPLS_2005

> <r_lp_Energy>
36.6563

> <b_lp_Chiralities_Consistent>
1

> <s_lp_Variant>
AV-unprocessed.smi:72-34

> <Gold.Version>
5.8.1

> <Gold.Id.Protein>
6NUR|6NUR_protein|mol2

> <Gold.PLP.Fitness>
36.8554

> <Gold.PLP.PLP>
-22.2162

> <Gold.PLP.part.hbond>
-5.5540

> <Gold.PLP.part.metal>
0.0000

> <Gold.PLP.part.buried>
-1.6744

> <Gold.PLP.part.nonpolar>
-14.1491

> <Gold.PLP.part.repulsive>
0.0716

> <Gold.PLP.ligand.clash>
0.0000

> <Gold.PLP.ligand.torsion>
0.1803

> <Gold.PLP.Chemscore.Hbond>
4.4000

> <Gold.PLP.Chemscore.CHOScore>
0.5609

> <Gold.PLP.Chemscore.Metal>
0.0000

> <Gold.Chemscore.Hbonds>
donor molecule, donor type, donor heavy atom, donor atom, acceptor molecule, acceptor atom, score
      L1  H     3    30       P1  8028  1.41
      L1  H    10    27       P1  7957  1.00
      L1  H    12    28       P1  7948  1.00
      P1  H  7989  7998       L1    14  0.99
      L1  C     4    24       P1  8028  0.56

> <Gold.PLP.Chemscore.Internal.Correction>
0.1170

> <Gold.Rescore>
     Score         DG    S(hbond)    S(metal)    S(lipo)     H(rot)  DE(clash)    DE(int)     intcor
      7.74      -8.55       3.26        0.00      22.28       4.08       0.36       0.44       ----

> <Gold.Chemscore.Fitness>
7.7446

> <Gold.Chemscore.DG>
-8.5466

> <Gold.Chemscore.ZeroCoef>
-5.4800

> <Gold.Chemscore.Hbond>
3.2634

> <Gold.Chemscore.Metal>
0.0000

> <Gold.Chemscore.Lipo>
22.2845

> <Gold.Chemscore.Internal_Hbond>
0.0000

> <Gold.Chemscore.DEClash>
0.3583

> <Gold.Chemscore.DEInternal>
0.4436

> <Gold.Chemscore.Rot>
4.0783

> <Gold.Chemscore.Internal.Correction>
   9.000000E+99

> <Gold.Chemscore.Hbonds>
donor molecule, donor type, donor heavy atom, donor atom, acceptor molecule, acceptor atom, score
      L1  H     3    30       P1  8028  0.68
      L1  H    10    27       P1  7957  0.89
      L1  H    12    28       P1  7948  0.26
      P1  H  7989  7998       L1    14  0.77

> <Gold.Chemscore.Hbond.Weighted>
-10.8997

> <Gold.Chemscore.Metal.Weighted>
-0.0000

> <Gold.Chemscore.Lipo.Weighted>
-2.6073

> <Gold.Chemscore.Internal_Hbond.Weighted>
0.0000

> <Gold.Chemscore.DEClash.Weighted>
0.3583

> <Gold.Chemscore.DEInternal.Weighted>
0.4436

> <Gold.Chemscore.Rot.Weighted>
10.4404

> <Gold.Chemscore.Internal.Correction.Weighted>
   9.000000E+99

> <Gold.Protein.RotatedTorsions>
[ 6907 6896 6895 6894 ] final -143.03 input  -60.11 | X-H torsion
[ 7974 7965 7964 7962 ] final   70.29 input  175.53 | X-H torsion
[ 8008 7997 7996 7995 ] final  -17.19 input   59.86 | X-H torsion
[ 10167 10162 10161 10158 ] final  -72.83 input  -65.29 | X-H torsion
[ 10718 10713 10712 10709 ] final   -6.90 input   66.30 | X-H torsion
[ 10763 10752 10751 10750 ] final  108.97 input  -60.55 | X-H torsion
[ 11005 11000 10999 10996 ] final   96.55 input  -57.11 | X-H torsion

> <Gold.Protein.ActiveResidues>
 VAL166  LYS551  ARG553  GLY616  TRP617  ASP618  TYR619  PRO620  LYS621  CYS622 
 ASP623  PHE694  ASN695  SER759  ASP760  ASP761  ALA762  ILE779  LEU786  VAL792 
 PHE793  MET794  SER795  GLU796  ALA797  LYS798  CYS799  TRP800  GLU811  SER814 

> <Gold.Protein.RotatedAtoms>
  151.0950  133.5287  159.2612 H   0  0  0  0  0  0  0  0  0  0  0  0  # atno 6907 bound_to 6896
  151.2140  135.0492  159.8932 H   0  0  0  0  0  0  0  0  0  0  0  0  # atno 6908 bound_to 6896
  152.5438  134.0761  159.8269 H   0  0  0  0  0  0  0  0  0  0  0  0  # atno 6909 bound_to 6896
  145.7800  139.2883  143.1271 H   0  0  0  0  0  0  0  0  0  0  0  0  # atno 7974 bound_to 7965
  154.4996  140.2149  155.9373 H   0  0  0  0  0  0  0  0  0  0  0  0  # atno 8008 bound_to 7997
  156.1417  140.3178  155.8473 H   0  0  0  0  0  0  0  0  0  0  0  0  # atno 8009 bound_to 7997
  155.4108  140.0490  157.3022 H   0  0  0  0  0  0  0  0  0  0  0  0  # atno 8010 bound_to 7997
  140.5160  143.2338  151.7512 H   0  0  0  0  0  0  0  0  0  0  0  0  # atno 10167 bound_to 10162
  156.7252  130.5163  149.5858 H   0  0  0  0  0  0  0  0  0  0  0  0  # atno 10718 bound_to 10713
  153.4281  135.3795  155.2153 H   0  0  0  0  0  0  0  0  0  0  0  0  # atno 10763 bound_to 10752
  154.8748  135.3833  154.4301 H   0  0  0  0  0  0  0  0  0  0  0  0  # atno 10764 bound_to 10752
  153.4830  135.7088  153.5990 H   0  0  0  0  0  0  0  0  0  0  0  0  # atno 10765 bound_to 10752
  139.8781  134.8956  156.4175 H   0  0  0  0  0  0  0  0  0  0  0  0  # atno 11005 bound_to 11000
  146.0084  140.8458  142.9983 LP  0  0  0  0  0  0  0  0  0  0  0  0  # atno 17320 bound_to 7965
  144.6798  140.2454  143.7338 LP  0  0  0  0  0  0  0  0  0  0  0  0  # atno 17321 bound_to 7965
  139.4909  144.4323  151.9858 LP  0  0  0  0  0  0  0  0  0  0  0  0  # atno 17342 bound_to 10162
  140.3417  144.3195  150.5966 LP  0  0  0  0  0  0  0  0  0  0  0  0  # atno 17343 bound_to 10162
  156.1567  130.6346  151.0666 LP  0  0  0  0  0  0  0  0  0  0  0  0  # atno 17370 bound_to 10713
  157.6882  131.0818  150.7184 LP  0  0  0  0  0  0  0  0  0  0  0  0  # atno 17371 bound_to 10713
  140.9157  133.7680  155.9845 LP  0  0  0  0  0  0  0  0  0  0  0  0  # atno 17394 bound_to 11000
  140.8496  134.2970  157.5281 LP  0  0  0  0  0  0  0  0  0  0  0  0  # atno 17395 bound_to 11000

$$$$
