AV-unprocessed.smi:1111|AV-procd|sdf|4792|dock6
  -GOLD-   22720 3343D 1   1.00000     0.00000
 Structure written by MMmdl.
 32 33  0  0  0  0  0  0  0  0  1 V2000
  149.6876  141.2025  156.0610 C   0  0  0  0  0  0  0  0  0  0  0  0
  150.8012  140.4643  156.8328 C   0  0  1  0  0  0  0  0  0  0  0  0
  151.6262  141.4134  157.5899 N   0  0  0  0  0  0  0  0  0  0  0  0
  151.2270  142.3814  158.4332 C   0  0  0  0  0  0  0  0  0  0  0  0
  150.0600  142.5575  158.7803 O   0  0  0  0  0  0  0  0  0  0  0  0
  152.3225  143.3185  158.9399 C   0  0  0  0  0  0  0  0  0  0  0  0
  152.7259  142.9493  160.2841 N   0  0  0  0  0  0  0  0  0  0  0  0
  152.3723  143.5803  161.4707 C   0  0  0  0  0  0  0  0  0  0  0  0
  152.9694  142.8690  162.4867 C   0  0  0  0  0  0  0  0  0  0  0  0
  153.6915  141.8044  161.9526 N   0  0  0  0  0  0  0  0  0  0  0  0
  153.4989  141.9153  160.6448 C   0  0  0  0  0  0  0  0  0  0  0  0
  150.1809  139.4843  157.8574 C   0  0  0  0  0  0  0  0  0  0  0  0
  151.2513  138.4986  158.3468 C   0  0  0  0  0  0  0  0  0  0  0  0
  152.4047  138.2787  156.9425 S   0  0  0  0  0  0  0  0  0  0  0  0
  153.7532  138.6810  157.3705 O   0  0  0  0  0  0  0  0  0  0  0  0
  152.1683  136.9744  156.3053 O   0  0  0  0  0  0  0  0  0  0  0  0
  151.6779  139.5992  155.8985 C   0  0  0  0  0  0  0  0  0  0  0  0
  149.0147  140.4986  155.5704 H   0  0  0  0  0  0  0  0  0  0  0  0
  150.0900  141.8515  155.2833 H   0  0  0  0  0  0  0  0  0  0  0  0
  149.0851  141.8189  156.7293 H   0  0  0  0  0  0  0  0  0  0  0  0
  152.6163  141.3732  157.3955 H   0  0  0  0  0  0  0  0  0  0  0  0
  153.1920  143.2756  158.2824 H   0  0  0  0  0  0  0  0  0  0  0  0
  151.9659  144.3494  158.9420 H   0  0  0  0  0  0  0  0  0  0  0  0
  151.7386  144.4544  161.4941 H   0  0  0  0  0  0  0  0  0  0  0  0
  152.9330  143.0389  163.5526 H   0  0  0  0  0  0  0  0  0  0  0  0
  153.9265  141.2252  159.9318 H   0  0  0  0  0  0  0  0  0  0  0  0
  149.7079  140.0042  158.6916 H   0  0  0  0  0  0  0  0  0  0  0  0
  149.3931  138.9103  157.3671 H   0  0  0  0  0  0  0  0  0  0  0  0
  151.8140  138.9142  159.1830 H   0  0  0  0  0  0  0  0  0  0  0  0
  150.8367  137.5368  158.6490 H   0  0  0  0  0  0  0  0  0  0  0  0
  151.0624  139.1098  155.1431 H   0  0  0  0  0  0  0  0  0  0  0  0
  152.4673  140.1421  155.3791 H   0  0  0  0  0  0  0  0  0  0  0  0
  1  2  1  0  0  0  0
  1 18  1  0  0  0  0
  1 19  1  0  0  0  0
  1 20  1  0  0  0  0
  2 17  1  0  0  0  0
  2  3  1  0  0  0  0
  2 12  1  0  0  0  0
  3  4  1  0  0  0  0
  3 21  1  0  0  0  0
  4  5  2  0  0  0  0
  4  6  1  0  0  0  0
  6  7  1  0  0  0  0
  6 22  1  0  0  0  0
  6 23  1  0  0  0  0
  7 11  1  0  0  0  0
  7  8  1  0  0  0  0
  8  9  2  0  0  0  0
  8 24  1  0  0  0  0
  9 10  1  0  0  0  0
  9 25  1  0  0  0  0
 10 11  2  0  0  0  0
 11 26  1  0  0  0  0
 12 13  1  0  0  0  0
 12 27  1  0  0  0  0
 12 28  1  0  0  0  0
 13 14  1  0  0  0  0
 13 29  1  0  0  0  0
 13 30  1  0  0  0  0
 14 15  2  0  0  0  0
 14 16  2  0  0  0  0
 14 17  1  0  0  0  0
 17 31  1  0  0  0  0
 17 32  1  0  0  0  0
M  END
> <s_m_source_file>
AV-unprocessed.smi

> <i_m_source_file_index>
1111

> <i_lp_mmshare_version>
43012

> <i_f3d_flags>
0

> <s_epik_input>
Tz1TKD1PKShbQ0gyXTEpW0NIMl1bQ0gyXVtDQEBdMShbQ0gzXSlbTkhdQyg9TylbQ0gyXW4yW2NIXVtjSF1uW2NIXTI=

> <s_epik_cmdline>
J2VwaWtfcHl0aG9uJywgJy1waCcsICc3LjAnLCAnLXRuJywgJzgnLCAnLW1hJywgJzIwMCcsICctbWV0YWxfYmluZGluZycsICctaW1hZScsICc8aW5maWxlLm1hZT4nLCAnLW9tYWUnLCAnPG91dGZpbGUubWFlPic=

> <r_lp_tautomer_probability>
1

> <r_epik_Ionization_Penalty>
0.246342

> <r_epik_Ionization_Penalty_Charging>
0.246341

> <r_epik_Ionization_Penalty_Neutral>
5.91248e-07

> <r_epik_State_Penalty>
0.237514

> <r_epik_Charging_Adjusted_Penalty>
0.483856

> <i_epik_Tot_Q>
0

> <i_epik_Tot_abs_Q>
0

> <r_epik_Metal_State_Penalty>
0.166715

> <b_epik_Metal_Only>
0

> <s_lp_Force_Field>
OPLS_2005

> <r_lp_Energy>
5.37624

> <b_lp_Chiralities_Consistent>
1

> <s_lp_Variant>
AV-unprocessed.smi:1111-1

> <Gold.Version>
5.8.1

> <Gold.Id.Protein>
6NUR|6NUR_protein|mol2

> <Gold.PLP.Fitness>
40.7134

> <Gold.PLP.PLP>
-36.0760

> <Gold.PLP.part.hbond>
-2.7783

> <Gold.PLP.part.metal>
0.0000

> <Gold.PLP.part.buried>
-5.8363

> <Gold.PLP.part.nonpolar>
-27.9158

> <Gold.PLP.part.repulsive>
0.1467

> <Gold.PLP.ligand.clash>
0.0000

> <Gold.PLP.ligand.torsion>
0.5838

> <Gold.PLP.Chemscore.Hbond>
1.9280

> <Gold.PLP.Chemscore.CHOScore>
0.0000

> <Gold.PLP.Chemscore.Metal>
0.0000

> <Gold.Chemscore.Hbonds>
donor molecule, donor type, donor heavy atom, donor atom, acceptor molecule, acceptor atom, score
      P1  H  7997  8010       L1    15  1.00
      P1  H 10752 10763       L1    16  0.63

> <Gold.PLP.Chemscore.Internal.Correction>
0.0211

> <Gold.Rescore>
     Score         DG    S(hbond)    S(metal)    S(lipo)     H(rot)  DE(clash)    DE(int)     intcor
     13.17     -14.46       1.90        0.00      60.48       1.73       0.00       1.29       ----

> <Gold.Chemscore.Fitness>
13.1662

> <Gold.Chemscore.DG>
-14.4585

> <Gold.Chemscore.ZeroCoef>
-5.4800

> <Gold.Chemscore.Hbond>
1.8978

> <Gold.Chemscore.Metal>
0.0000

> <Gold.Chemscore.Lipo>
60.4776

> <Gold.Chemscore.Internal_Hbond>
0.0000

> <Gold.Chemscore.DEClash>
0.0000

> <Gold.Chemscore.DEInternal>
1.2923

> <Gold.Chemscore.Rot>
1.7328

> <Gold.Chemscore.Internal.Correction>
   9.000000E+99

> <Gold.Chemscore.Hbonds>
donor molecule, donor type, donor heavy atom, donor atom, acceptor molecule, acceptor atom, score
      P1  H  7997  8010       L1    15  0.94
      P1  H 10752 10763       L1    16  0.60

> <Gold.Chemscore.Hbond.Weighted>
-6.3386

> <Gold.Chemscore.Metal.Weighted>
-0.0000

> <Gold.Chemscore.Lipo.Weighted>
-7.0759

> <Gold.Chemscore.Internal_Hbond.Weighted>
0.0000

> <Gold.Chemscore.DEClash.Weighted>
0.0000

> <Gold.Chemscore.DEInternal.Weighted>
1.2923

> <Gold.Chemscore.Rot.Weighted>
4.4360

> <Gold.Chemscore.Internal.Correction.Weighted>
   9.000000E+99

> <Gold.Protein.RotatedTorsions>
[ 6907 6896 6895 6894 ] final  -35.07 input  -60.11 | X-H torsion
[ 7974 7965 7964 7962 ] final  159.95 input  175.53 | X-H torsion
[ 8008 7997 7996 7995 ] final   42.15 input   59.86 | X-H torsion
[ 10167 10162 10161 10158 ] final   21.88 input  -65.29 | X-H torsion
[ 10718 10713 10712 10709 ] final   -8.79 input   66.30 | X-H torsion
[ 10763 10752 10751 10750 ] final   90.59 input  -60.55 | X-H torsion
[ 11005 11000 10999 10996 ] final  -96.54 input  -57.11 | X-H torsion

> <Gold.Protein.ActiveResidues>
 VAL166  LYS551  ARG553  GLY616  TRP617  ASP618  TYR619  PRO620  LYS621  CYS622 
 ASP623  PHE694  ASN695  SER759  ASP760  ASP761  ALA762  ILE779  LEU786  VAL792 
 PHE793  MET794  SER795  GLU796  ALA797  LYS798  CYS799  TRP800  GLU811  SER814 

> <Gold.Protein.RotatedAtoms>
  151.0446  134.9630  159.8179 H   0  0  0  0  0  0  0  0  0  0  0  0  # atno 6907 bound_to 6896
  152.5370  134.2615  159.8947 H   0  0  0  0  0  0  0  0  0  0  0  0  # atno 6908 bound_to 6896
  151.2628  133.4251  159.2651 H   0  0  0  0  0  0  0  0  0  0  0  0  # atno 6909 bound_to 6896
  144.7763  139.7688  143.6277 H   0  0  0  0  0  0  0  0  0  0  0  0  # atno 7974 bound_to 7965
  155.2814  140.3372  155.4258 H   0  0  0  0  0  0  0  0  0  0  0  0  # atno 8008 bound_to 7997
  156.2088  140.1761  156.7781 H   0  0  0  0  0  0  0  0  0  0  0  0  # atno 8009 bound_to 7997
  154.5657  140.0679  156.8873 H   0  0  0  0  0  0  0  0  0  0  0  0  # atno 8010 bound_to 7997
  140.5392  143.9707  150.6509 H   0  0  0  0  0  0  0  0  0  0  0  0  # atno 10167 bound_to 10162
  156.6975  130.5083  149.5926 H   0  0  0  0  0  0  0  0  0  0  0  0  # atno 10718 bound_to 10713
  153.1992  135.4428  155.0245 H   0  0  0  0  0  0  0  0  0  0  0  0  # atno 10763 bound_to 10752
  154.8137  135.3305  154.7238 H   0  0  0  0  0  0  0  0  0  0  0  0  # atno 10764 bound_to 10752
  153.7685  135.6986  153.4966 H   0  0  0  0  0  0  0  0  0  0  0  0  # atno 10765 bound_to 10752
  141.1408  133.8105  157.0586 H   0  0  0  0  0  0  0  0  0  0  0  0  # atno 11005 bound_to 11000
  146.1944  139.5202  142.9784 LP  0  0  0  0  0  0  0  0  0  0  0  0  # atno 17320 bound_to 7965
  145.6177  141.0328  143.1932 LP  0  0  0  0  0  0  0  0  0  0  0  0  # atno 17321 bound_to 7965
  140.3103  143.3202  152.0886 LP  0  0  0  0  0  0  0  0  0  0  0  0  # atno 17342 bound_to 10162
  139.4982  144.6640  151.6398 LP  0  0  0  0  0  0  0  0  0  0  0  0  # atno 17343 bound_to 10162
  156.1752  130.6463  151.0886 LP  0  0  0  0  0  0  0  0  0  0  0  0  # atno 17370 bound_to 10713
  157.6985  131.0785  150.6893 LP  0  0  0  0  0  0  0  0  0  0  0  0  # atno 17371 bound_to 10713
  140.0586  134.9767  157.1265 LP  0  0  0  0  0  0  0  0  0  0  0  0  # atno 17394 bound_to 11000
  140.3882  134.2213  155.7167 LP  0  0  0  0  0  0  0  0  0  0  0  0  # atno 17395 bound_to 11000

$$$$
