AV-unprocessed.smi:34|AV-procd|sdf|219|dock10
  -GOLD-   2262015533D 1   1.00000     0.00000
 Structure written by MMmdl.
 55 59  0  0  0  0  0  0  0  0  1 V2000
  152.9941  140.2235  157.8036 O   0  0  0  0  0  0  0  0  0  0  0  0
  152.0787  141.0459  157.7569 C   0  0  0  0  0  0  0  0  0  0  0  0
  150.8591  140.8030  157.0062 N   0  0  0  0  0  0  0  0  0  0  0  0
  150.5676  139.7511  156.2052 C   0  0  0  0  0  0  0  0  0  0  0  0
  150.5633  139.8469  154.8492 N   0  0  0  0  0  0  0  0  0  0  0  0
  150.2624  138.7829  154.0989 C   0  0  0  0  0  0  0  0  0  0  0  0
  149.9407  137.5486  154.4927 N   0  0  0  0  0  0  0  0  0  0  0  0
  149.9422  137.4463  155.8529 C   0  0  0  0  0  0  0  0  0  0  0  0
  150.2381  138.4915  156.7706 C   0  0  0  0  0  0  0  0  0  0  0  0
  150.1288  138.0167  158.0712 N   0  0  0  0  0  0  0  0  0  0  0  0
  149.7876  136.7638  157.9244 C   0  0  0  0  0  0  0  0  0  0  0  0
  149.6685  136.3341  156.6185 N   0  0  0  0  0  0  0  0  0  0  0  0
  149.2873  134.9874  156.0838 C   0  0  2  0  0  0  0  0  0  0  0  0
  149.0907  134.1217  157.1623 O   0  0  0  0  0  0  0  0  0  0  0  0
  150.2932  133.4044  157.4038 C   0  0  1  0  0  0  0  0  0  0  0  0
  150.0086  132.1530  158.2417 C   0  0  0  0  0  0  0  0  0  0  0  0
  149.6133  132.5421  159.5469 O   0  0  0  0  0  0  0  0  0  0  0  0
  148.7212  131.8010  160.2315 C   0  0  0  0  0  0  0  0  0  0  0  0
  148.4939  130.6134  159.9916 O   0  0  0  0  0  0  0  0  0  0  0  0
  148.0339  132.5698  161.3092 C   0  0  0  0  0  0  0  0  0  0  0  0
  146.8510  132.0504  161.8848 C   0  0  0  0  0  0  0  0  0  0  0  0
  146.1790  132.7548  162.9025 C   0  0  0  0  0  0  0  0  0  0  0  0
  146.6820  133.9874  163.3577 C   0  0  0  0  0  0  0  0  0  0  0  0
  147.8589  134.5142  162.7945 C   0  0  0  0  0  0  0  0  0  0  0  0
  148.5322  133.8113  161.7762 C   0  0  0  0  0  0  0  0  0  0  0  0
  150.7832  133.1204  155.9870 C   0  0  2  0  0  0  0  0  0  0  0  0
  152.0920  132.8664  155.9553 F   0  0  0  0  0  0  0  0  0  0  0  0
  150.4448  134.4064  155.2460 C   0  0  1  0  0  0  0  0  0  0  0  0
  150.0597  134.1261  153.9161 O   0  0  0  0  0  0  0  0  0  0  0  0
  152.1237  142.3203  158.5488 C   0  0  0  0  0  0  0  0  0  0  0  0
  151.5086  143.4877  158.0435 C   0  0  0  0  0  0  0  0  0  0  0  0
  151.5281  144.6834  158.7876 C   0  0  0  0  0  0  0  0  0  0  0  0
  152.1564  144.7200  160.0467 C   0  0  0  0  0  0  0  0  0  0  0  0
  152.7618  143.5589  160.5629 C   0  0  0  0  0  0  0  0  0  0  0  0
  152.7427  142.3623  159.8198 C   0  0  0  0  0  0  0  0  0  0  0  0
  150.1450  141.5126  157.0819 H   0  0  0  0  0  0  0  0  0  0  0  0
  150.2829  138.9444  153.0311 H   0  0  0  0  0  0  0  0  0  0  0  0
  149.6152  136.1208  158.7751 H   0  0  0  0  0  0  0  0  0  0  0  0
  148.3610  135.1613  155.5348 H   0  0  0  0  0  0  0  0  0  0  0  0
  150.9950  134.0580  157.9250 H   0  0  0  0  0  0  0  0  0  0  0  0
  149.2064  131.5753  157.7805 H   0  0  0  0  0  0  0  0  0  0  0  0
  150.8905  131.5125  158.2863 H   0  0  0  0  0  0  0  0  0  0  0  0
  146.4454  131.1059  161.5518 H   0  0  0  0  0  0  0  0  0  0  0  0
  145.2766  132.3480  163.3346 H   0  0  0  0  0  0  0  0  0  0  0  0
  146.1662  134.5278  164.1376 H   0  0  0  0  0  0  0  0  0  0  0  0
  148.2466  135.4595  163.1440 H   0  0  0  0  0  0  0  0  0  0  0  0
  149.4333  134.2436  161.3663 H   0  0  0  0  0  0  0  0  0  0  0  0
  150.2567  132.2636  155.5628 H   0  0  0  0  0  0  0  0  0  0  0  0
  151.2955  135.0900  155.2515 H   0  0  0  0  0  0  0  0  0  0  0  0
  149.5834  134.8706  153.5803 H   0  0  0  0  0  0  0  0  0  0  0  0
  151.0207  143.4756  157.0793 H   0  0  0  0  0  0  0  0  0  0  0  0
  151.0589  145.5723  158.3923 H   0  0  0  0  0  0  0  0  0  0  0  0
  152.1702  145.6367  160.6176 H   0  0  0  0  0  0  0  0  0  0  0  0
  153.2384  143.5849  161.5319 H   0  0  0  0  0  0  0  0  0  0  0  0
  153.2041  141.4802  160.2396 H   0  0  0  0  0  0  0  0  0  0  0  0
  1  2  2  0  0  0  0
  2  3  1  0  0  0  0
  2 30  1  0  0  0  0
  3  4  1  0  0  0  0
  3 36  1  0  0  0  0
  4  9  1  0  0  0  0
  4  5  2  0  0  0  0
  5  6  1  0  0  0  0
  6  7  2  0  0  0  0
  6 37  1  0  0  0  0
  7  8  1  0  0  0  0
  8 12  1  0  0  0  0
  8  9  2  0  0  0  0
  9 10  1  0  0  0  0
 10 11  2  0  0  0  0
 11 12  1  0  0  0  0
 11 38  1  0  0  0  0
 12 13  1  0  0  0  0
 13 28  1  0  0  0  0
 13 14  1  0  0  0  0
 13 39  1  0  0  0  0
 14 15  1  0  0  0  0
 15 16  1  0  0  0  0
 15 26  1  0  0  0  0
 15 40  1  0  0  0  0
 16 17  1  0  0  0  0
 16 41  1  0  0  0  0
 16 42  1  0  0  0  0
 17 18  1  0  0  0  0
 18 19  2  0  0  0  0
 18 20  1  0  0  0  0
 20 25  1  0  0  0  0
 20 21  2  0  0  0  0
 21 22  1  0  0  0  0
 21 43  1  0  0  0  0
 22 23  2  0  0  0  0
 22 44  1  0  0  0  0
 23 24  1  0  0  0  0
 23 45  1  0  0  0  0
 24 25  2  0  0  0  0
 24 46  1  0  0  0  0
 25 47  1  0  0  0  0
 26 27  1  0  0  0  0
 26 28  1  0  0  0  0
 26 48  1  0  0  0  0
 28 29  1  0  0  0  0
 28 49  1  0  0  0  0
 29 50  1  0  0  0  0
 30 35  1  0  0  0  0
 30 31  2  0  0  0  0
 31 32  1  0  0  0  0
 31 51  1  0  0  0  0
 32 33  2  0  0  0  0
 32 52  1  0  0  0  0
 33 34  1  0  0  0  0
 33 53  1  0  0  0  0
 34 35  2  0  0  0  0
 34 54  1  0  0  0  0
 35 55  1  0  0  0  0
M  END
> <s_m_source_file>
AV-unprocessed.smi

> <i_m_source_file_index>
34

> <i_lp_mmshare_version>
43012

> <i_f3d_flags>
0

> <s_epik_input>
W2NIXTFbY0hdW2NIXVtjSF1bY0hdYzFDKD1PKVtOSF1jKG5bY0hdbjIpYyhjMjMpbltjSF1uM1tDQEBIXTRPW0NASF0oW0NAQEhdKEYpW0NASF00W09IXSlbQ0gyXU9DKD1PKWM1W2NIXVtjSF1bY0hdW2NIXVtjSF01

> <s_epik_cmdline>
J2VwaWtfcHl0aG9uJywgJy1waCcsICc3LjAnLCAnLXRuJywgJzgnLCAnLW1hJywgJzIwMCcsICctbWV0YWxfYmluZGluZycsICctaW1hZScsICc8aW5maWxlLm1hZT4nLCAnLW9tYWUnLCAnPG91dGZpbGUubWFlPic=

> <r_lp_tautomer_probability>
1

> <r_epik_Ionization_Penalty>
0.00257489

> <r_epik_Ionization_Penalty_Charging>
0

> <r_epik_Ionization_Penalty_Neutral>
0.00257489

> <r_epik_State_Penalty>
0.00519398

> <r_epik_Charging_Adjusted_Penalty>
0.00519398

> <i_epik_Tot_Q>
0

> <i_epik_Tot_abs_Q>
0

> <r_epik_Metal_State_Penalty>
0.335891

> <b_epik_Metal_Only>
0

> <s_epik_Chemistry_Notes>
This compound has an ester and may undergo hydrolysis at high or low pH. This compound contains an acetal/aminal-like group ( X-CH(R)-Y where X, Y are N, S, or O) that may be acid/base labile, releasing an aldehyde.

> <s_lp_Force_Field>
OPLS_2005

> <r_lp_Energy>
42.7442

> <b_lp_Chiralities_Consistent>
1

> <s_lp_Variant>
AV-unprocessed.smi:34-5

> <Gold.Version>
5.8.1

> <Gold.Id.Protein>
6NUR|6NUR_protein|mol2

> <Gold.PLP.Fitness>
60.2009

> <Gold.PLP.PLP>
-52.5514

> <Gold.PLP.part.hbond>
-3.1180

> <Gold.PLP.part.metal>
0.0000

> <Gold.PLP.part.buried>
-6.2873

> <Gold.PLP.part.nonpolar>
-43.5515

> <Gold.PLP.part.repulsive>
1.0688

> <Gold.PLP.ligand.clash>
0.0000

> <Gold.PLP.ligand.torsion>
1.8504

> <Gold.PLP.Chemscore.Hbond>
2.6854

> <Gold.PLP.Chemscore.CHOScore>
1.0000

> <Gold.PLP.Chemscore.Metal>
0.0000

> <Gold.Chemscore.Hbonds>
donor molecule, donor type, donor heavy atom, donor atom, acceptor molecule, acceptor atom, score
      L1  H    29    50       P1  7948  0.22
      P1  H  7989  7998       L1     5  0.90
      P1  H  7997  8009       L1     1  0.91
      L1  C     6    37       P1  7957  1.00

> <Gold.PLP.Chemscore.Internal.Correction>
0.2939

> <Gold.Rescore>
     Score         DG    S(hbond)    S(metal)    S(lipo)     H(rot)  DE(clash)    DE(int)     intcor
     17.71     -20.04       1.75        0.00     134.16       2.72       1.16       1.16       ----

> <Gold.Chemscore.Fitness>
17.7123

> <Gold.Chemscore.DG>
-20.0386

> <Gold.Chemscore.ZeroCoef>
-5.4800

> <Gold.Chemscore.Hbond>
1.7454

> <Gold.Chemscore.Metal>
0.0000

> <Gold.Chemscore.Lipo>
134.1552

> <Gold.Chemscore.Internal_Hbond>
0.0000

> <Gold.Chemscore.DEClash>
1.1629

> <Gold.Chemscore.DEInternal>
1.1634

> <Gold.Chemscore.Rot>
2.7215

> <Gold.Chemscore.Internal.Correction>
   9.000000E+99

> <Gold.Chemscore.Hbonds>
donor molecule, donor type, donor heavy atom, donor atom, acceptor molecule, acceptor atom, score
      L1  H    29    50       P1  7948  0.01
      P1  H  7989  7998       L1     5  0.17
      P1  H  7997  8009       L1     1  0.88

> <Gold.Chemscore.Hbond.Weighted>
-5.8295

> <Gold.Chemscore.Metal.Weighted>
-0.0000

> <Gold.Chemscore.Lipo.Weighted>
-15.6962

> <Gold.Chemscore.Internal_Hbond.Weighted>
0.0000

> <Gold.Chemscore.DEClash.Weighted>
1.1629

> <Gold.Chemscore.DEInternal.Weighted>
1.1634

> <Gold.Chemscore.Rot.Weighted>
6.9670

> <Gold.Chemscore.Internal.Correction.Weighted>
   9.000000E+99

> <Gold.Protein.RotatedTorsions>
[ 6907 6896 6895 6894 ] final  162.66 input  -60.11 | X-H torsion
[ 7974 7965 7964 7962 ] final  146.23 input  175.53 | X-H torsion
[ 8008 7997 7996 7995 ] final  155.19 input   59.86 | X-H torsion
[ 10167 10162 10161 10158 ] final   15.45 input  -65.29 | X-H torsion
[ 10718 10713 10712 10709 ] final  -64.79 input   66.30 | X-H torsion
[ 10763 10752 10751 10750 ] final  166.50 input  -60.55 | X-H torsion
[ 11005 11000 10999 10996 ] final -139.98 input  -57.11 | X-H torsion

> <Gold.Protein.ActiveResidues>
 VAL166  LYS551  ARG553  GLY616  TRP617  ASP618  TYR619  PRO620  LYS621  CYS622 
 ASP623  PHE694  ASN695  SER759  ASP760  ASP761  ALA762  ILE779  LEU786  VAL792 
 PHE793  MET794  SER795  GLU796  ALA797  LYS798  CYS799  TRP800  GLU811  SER814 

> <Gold.Protein.RotatedAtoms>
  151.9371  133.3627  159.3951 H   0  0  0  0  0  0  0  0  0  0  0  0  # atno 6907 bound_to 6896
  150.7005  134.4478  159.5331 H   0  0  0  0  0  0  0  0  0  0  0  0  # atno 6908 bound_to 6896
  152.2128  134.8485  160.0546 H   0  0  0  0  0  0  0  0  0  0  0  0  # atno 6909 bound_to 6896
  144.8688  139.5880  143.5897 H   0  0  0  0  0  0  0  0  0  0  0  0  # atno 7974 bound_to 7965
  156.2491  140.1946  156.6763 H   0  0  0  0  0  0  0  0  0  0  0  0  # atno 8008 bound_to 7997
  154.6355  140.0590  156.9809 H   0  0  0  0  0  0  0  0  0  0  0  0  # atno 8009 bound_to 7997
  155.1644  140.3262  155.4407 H   0  0  0  0  0  0  0  0  0  0  0  0  # atno 8010 bound_to 7997
  140.5866  143.8877  150.6836 H   0  0  0  0  0  0  0  0  0  0  0  0  # atno 10167 bound_to 10162
  156.0708  130.4238  150.1471 H   0  0  0  0  0  0  0  0  0  0  0  0  # atno 10718 bound_to 10713
  154.3398  135.2754  155.2428 H   0  0  0  0  0  0  0  0  0  0  0  0  # atno 10763 bound_to 10752
  154.4703  135.5884  153.6321 H   0  0  0  0  0  0  0  0  0  0  0  0  # atno 10764 bound_to 10752
  152.9858  135.6086  154.3599 H   0  0  0  0  0  0  0  0  0  0  0  0  # atno 10765 bound_to 10752
  140.8467  134.2336  157.4782 H   0  0  0  0  0  0  0  0  0  0  0  0  # atno 11005 bound_to 11000
  146.2915  139.7153  142.9157 LP  0  0  0  0  0  0  0  0  0  0  0  0  # atno 17320 bound_to 7965
  145.4171  141.0402  143.2985 LP  0  0  0  0  0  0  0  0  0  0  0  0  # atno 17321 bound_to 7965
  140.2389  143.3679  152.1503 LP  0  0  0  0  0  0  0  0  0  0  0  0  # atno 17342 bound_to 10162
  139.5202  144.7029  151.5440 LP  0  0  0  0  0  0  0  0  0  0  0  0  # atno 17343 bound_to 10162
  156.9522  130.9778  151.3496 LP  0  0  0  0  0  0  0  0  0  0  0  0  # atno 17370 bound_to 10713
  157.5777  130.8354  149.8479 LP  0  0  0  0  0  0  0  0  0  0  0  0  # atno 17371 bound_to 10713
  139.8703  134.9663  156.4556 LP  0  0  0  0  0  0  0  0  0  0  0  0  # atno 17394 bound_to 11000
  140.8836  133.7900  155.9493 LP  0  0  0  0  0  0  0  0  0  0  0  0  # atno 17395 bound_to 11000

$$$$
