AV-unprocessed.smi:1554|AV-procd|sdf|6250|dock4
  -GOLD-   22720 6433D 1   1.00000     0.00000
 Structure written by MMmdl.
 48 50  0  0  0  0  0  0  0  0  2 V2000
  153.1268  142.6932  161.8021 C   0  0  0  0  0  0  0  0  0  0  0  0
  152.5539  142.4291  160.4206 C   0  0  0  0  0  0  0  0  0  0  0  0
  152.8432  141.2032  159.7803 C   0  0  0  0  0  0  0  0  0  0  0  0
  152.3322  140.9188  158.4951 C   0  0  0  0  0  0  0  0  0  0  0  0
  152.4876  139.8012  157.6935 N   0  0  0  0  0  0  0  0  0  0  0  0
  151.7745  140.1371  156.6229 C   0  0  0  0  0  0  0  0  0  0  0  0
  151.1846  141.3486  156.6300 N   0  0  0  0  0  0  0  0  0  0  0  0
  150.3718  141.9322  155.5772 C   0  0  0  0  0  0  0  0  0  0  0  0
  149.4178  140.9102  154.9260 C   0  0  2  0  0  0  0  0  0  0  0  0
  150.1873  140.0924  154.0674 O   0  0  0  0  0  0  0  0  0  0  0  0
  148.2753  141.5639  154.1148 C   0  0  0  0  0  0  0  0  0  0  0  0
  147.4005  142.4271  154.9480 N   0  3  2  0  0  0  0  0  0  0  0  0
  146.9536  141.7492  156.1878 C   0  0  0  0  0  0  0  0  0  0  0  0
  146.0935  142.6973  157.0400 C   0  0  0  0  0  0  0  0  0  0  0  0
  144.9905  143.1632  156.2722 O   0  0  0  0  0  0  0  0  0  0  0  0
  145.4028  143.8953  155.1231 C   0  0  2  0  0  0  0  0  0  0  0  0
  144.1511  144.4303  154.4187 C   0  0  0  0  0  0  0  0  0  0  0  0
  146.2328  142.9721  154.2109 C   0  0  0  0  0  0  0  0  0  0  0  0
  151.5174  141.9027  157.8620 C   0  0  0  0  0  0  0  0  0  0  0  0
  151.2186  143.1243  158.4912 C   0  0  0  0  0  0  0  0  0  0  0  0
  151.7401  143.3936  159.7738 C   0  0  0  0  0  0  0  0  0  0  0  0
  151.4171  144.7189  160.4408 C   0  0  0  0  0  0  0  0  0  0  0  0
  153.6455  141.8169  162.1923 H   0  0  0  0  0  0  0  0  0  0  0  0
  152.3342  142.9498  162.5052 H   0  0  0  0  0  0  0  0  0  0  0  0
  153.8394  143.5173  161.7664 H   0  0  0  0  0  0  0  0  0  0  0  0
  153.4627  140.4680  160.2729 H   0  0  0  0  0  0  0  0  0  0  0  0
  151.6846  139.4671  155.7801 H   0  0  0  0  0  0  0  0  0  0  0  0
  149.8044  142.7638  155.9982 H   0  0  0  0  0  0  0  0  0  0  0  0
  151.0416  142.3572  154.8284 H   0  0  0  0  0  0  0  0  0  0  0  0
  149.0136  140.2738  155.7111 H   0  0  0  0  0  0  0  0  0  0  0  0
  150.0462  140.3654  153.1742 H   0  0  0  0  0  0  0  0  0  0  0  0
  148.6657  142.1686  153.2958 H   0  0  0  0  0  0  0  0  0  0  0  0
  147.6853  140.7733  153.6479 H   0  0  0  0  0  0  0  0  0  0  0  0
  146.3829  140.8551  155.9306 H   0  0  0  0  0  0  0  0  0  0  0  0
  147.8195  141.4228  156.7652 H   0  0  0  0  0  0  0  0  0  0  0  0
  145.7158  142.1743  157.9188 H   0  0  0  0  0  0  0  0  0  0  0  0
  146.6836  143.5410  157.4010 H   0  0  0  0  0  0  0  0  0  0  0  0
  146.0122  144.7445  155.4380 H   0  0  0  0  0  0  0  0  0  0  0  0
  144.4158  145.0085  153.5328 H   0  0  0  0  0  0  0  0  0  0  0  0
  143.5800  145.0815  155.0808 H   0  0  0  0  0  0  0  0  0  0  0  0
  143.4957  143.6174  154.1042 H   0  0  0  0  0  0  0  0  0  0  0  0
  146.5594  143.5301  153.3342 H   0  0  0  0  0  0  0  0  0  0  0  0
  145.6139  142.1489  153.8493 H   0  0  0  0  0  0  0  0  0  0  0  0
  150.5931  143.8492  157.9923 H   0  0  0  0  0  0  0  0  0  0  0  0
  150.8321  145.3631  159.7839 H   0  0  0  0  0  0  0  0  0  0  0  0
  152.3329  145.2505  160.7004 H   0  0  0  0  0  0  0  0  0  0  0  0
  150.8399  144.5565  161.3514 H   0  0  0  0  0  0  0  0  0  0  0  0
  147.9627  143.2126  155.2430 H   0  0  0  0  0  0  0  0  0  0  0  0
  1  2  1  0  0  0  0
  1 23  1  0  0  0  0
  1 24  1  0  0  0  0
  1 25  1  0  0  0  0
  2 21  1  0  0  0  0
  2  3  2  0  0  0  0
  3  4  1  0  0  0  0
  3 26  1  0  0  0  0
  4 19  2  0  0  0  0
  4  5  1  0  0  0  0
  5  6  2  0  0  0  0
  6  7  1  0  0  0  0
  6 27  1  0  0  0  0
  7  8  1  0  0  0  0
  7 19  1  0  0  0  0
  8  9  1  0  0  0  0
  8 28  1  0  0  0  0
  8 29  1  0  0  0  0
  9 10  1  0  0  0  0
  9 11  1  0  0  0  0
  9 30  1  0  0  0  0
 10 31  1  0  0  0  0
 11 12  1  0  0  0  0
 11 32  1  0  0  0  0
 11 33  1  0  0  0  0
 12 18  1  0  0  0  0
 12 13  1  0  0  0  0
 12 48  1  0  0  0  0
 13 14  1  0  0  0  0
 13 34  1  0  0  0  0
 13 35  1  0  0  0  0
 14 15  1  0  0  0  0
 14 36  1  0  0  0  0
 14 37  1  0  0  0  0
 15 16  1  0  0  0  0
 16 17  1  0  0  0  0
 16 18  1  0  0  0  0
 16 38  1  0  0  0  0
 17 39  1  0  0  0  0
 17 40  1  0  0  0  0
 17 41  1  0  0  0  0
 18 42  1  0  0  0  0
 18 43  1  0  0  0  0
 19 20  1  0  0  0  0
 20 21  2  0  0  0  0
 20 44  1  0  0  0  0
 21 22  1  0  0  0  0
 22 45  1  0  0  0  0
 22 46  1  0  0  0  0
 22 47  1  0  0  0  0
M  CHG  1  12   1
M  END
> <s_m_source_file>
AV-unprocessed.smi

> <i_m_source_file_index>
1554

> <i_lp_mmshare_version>
43012

> <i_f3d_flags>
0

> <s_epik_input>
W0NIM11jKFtjSF0xKWMoW0NIM10pW2NIXWMoYzEyKW4oW2NIXW4yKVtDSDJdW0NASF0oW09IXSlbQ0gyXU4zW0NIMl1bQ0gyXU9bQ0BASF0oW0NIM10pW0NIMl0z

> <s_epik_cmdline>
J2VwaWtfcHl0aG9uJywgJy1waCcsICc3LjAnLCAnLXRuJywgJzgnLCAnLW1hJywgJzIwMCcsICctbWV0YWxfYmluZGluZycsICctaW1hZScsICc8aW5maWxlLm1hZT4nLCAnLW9tYWUnLCAnPG91dGZpbGUubWFlPic=

> <r_epik_Ionization_Penalty>
0.695251

> <r_epik_Ionization_Penalty_Charging>
0.608065

> <r_epik_Ionization_Penalty_Neutral>
0.0871863

> <r_epik_State_Penalty>
0.731955

> <r_epik_Charging_Adjusted_Penalty>
1.34002

> <i_epik_Tot_Q>
1

> <i_epik_Tot_abs_Q>
1

> <r_epik_Metal_State_Penalty>
0.652186

> <b_epik_Metal_Only>
0

> <s_lp_Force_Field>
OPLS_2005

> <r_lp_Energy>
21.764

> <b_lp_Chiralities_Consistent>
1

> <s_lp_Variant>
AV-unprocessed.smi:1554-11

> <Gold.Version>
5.8.1

> <Gold.Id.Protein>
6NUR|6NUR_protein|mol2

> <Gold.PLP.Fitness>
59.3899

> <Gold.PLP.PLP>
-48.2273

> <Gold.PLP.part.hbond>
-4.0000

> <Gold.PLP.part.metal>
0.0000

> <Gold.PLP.part.buried>
-7.0264

> <Gold.PLP.part.nonpolar>
-36.2331

> <Gold.PLP.part.repulsive>
0.1807

> <Gold.PLP.ligand.clash>
0.0000

> <Gold.PLP.ligand.torsion>
0.4305

> <Gold.PLP.Chemscore.Hbond>
3.9913

> <Gold.PLP.Chemscore.CHOScore>
0.0000

> <Gold.PLP.Chemscore.Metal>
0.0000

> <Gold.Chemscore.Hbonds>
donor molecule, donor type, donor heavy atom, donor atom, acceptor molecule, acceptor atom, score
      L1  H    10    31       P1  7957  0.88
      L1  H    12    48       P1  8028  2.00
      P1  H  7997  8009       L1     5  0.58

> <Gold.PLP.Chemscore.Internal.Correction>
0.0498

> <Gold.Rescore>
     Score         DG    S(hbond)    S(metal)    S(lipo)     H(rot)  DE(clash)    DE(int)     intcor
     19.98     -20.94       1.84        0.00     124.45       2.05       0.37       0.59       ----

> <Gold.Chemscore.Fitness>
19.9769

> <Gold.Chemscore.DG>
-20.9421

> <Gold.Chemscore.ZeroCoef>
-5.4800

> <Gold.Chemscore.Hbond>
1.8447

> <Gold.Chemscore.Metal>
0.0000

> <Gold.Chemscore.Lipo>
124.4474

> <Gold.Chemscore.Internal_Hbond>
0.0000

> <Gold.Chemscore.DEClash>
0.3717

> <Gold.Chemscore.DEInternal>
0.5935

> <Gold.Chemscore.Rot>
2.0546

> <Gold.Chemscore.Internal.Correction>
   9.000000E+99

> <Gold.Chemscore.Hbonds>
donor molecule, donor type, donor heavy atom, donor atom, acceptor molecule, acceptor atom, score
      L1  H    10    31       P1  7957  0.83
      L1  H    12    48       P1  8028  0.74
      P1  H  7997  8009       L1     5  0.04

> <Gold.Chemscore.Hbond.Weighted>
-6.1614

> <Gold.Chemscore.Metal.Weighted>
-0.0000

> <Gold.Chemscore.Lipo.Weighted>
-14.5603

> <Gold.Chemscore.Internal_Hbond.Weighted>
0.0000

> <Gold.Chemscore.DEClash.Weighted>
0.3717

> <Gold.Chemscore.DEInternal.Weighted>
0.5935

> <Gold.Chemscore.Rot.Weighted>
5.2597

> <Gold.Chemscore.Internal.Correction.Weighted>
   9.000000E+99

> <Gold.Protein.RotatedTorsions>
[ 6907 6896 6895 6894 ] final  -23.01 input  -60.11 | X-H torsion
[ 7974 7965 7964 7962 ] final  -74.60 input  175.53 | X-H torsion
[ 8008 7997 7996 7995 ] final  170.73 input   59.86 | X-H torsion
[ 10167 10162 10161 10158 ] final  112.68 input  -65.29 | X-H torsion
[ 10718 10713 10712 10709 ] final -154.02 input   66.30 | X-H torsion
[ 10763 10752 10751 10750 ] final   55.55 input  -60.55 | X-H torsion
[ 11005 11000 10999 10996 ] final  134.39 input  -57.11 | X-H torsion

> <Gold.Protein.ActiveResidues>
 VAL166  LYS551  ARG553  GLY616  TRP617  ASP618  TYR619  PRO620  LYS621  CYS622 
 ASP623  PHE694  ASN695  SER759  ASP760  ASP761  ALA762  ILE779  LEU786  VAL792 
 PHE793  MET794  SER795  GLU796  ALA797  LYS798  CYS799  TRP800  GLU811  SER814 

> <Gold.Protein.RotatedAtoms>
  151.2102  135.0478  159.8907 H   0  0  0  0  0  0  0  0  0  0  0  0  # atno 6907 bound_to 6896
  152.5425  134.0753  159.8222 H   0  0  0  0  0  0  0  0  0  0  0  0  # atno 6908 bound_to 6896
  151.0905  133.5271  159.2647 H   0  0  0  0  0  0  0  0  0  0  0  0  # atno 6909 bound_to 6896
  145.6369  140.9322  143.1056 H   0  0  0  0  0  0  0  0  0  0  0  0  # atno 7974 bound_to 7965
  156.1338  140.1530  156.9025 H   0  0  0  0  0  0  0  0  0  0  0  0  # atno 8008 bound_to 7997
  154.4931  140.0846  156.7676 H   0  0  0  0  0  0  0  0  0  0  0  0  # atno 8009 bound_to 7997
  155.4206  140.3423  155.4273 H   0  0  0  0  0  0  0  0  0  0  0  0  # atno 8010 bound_to 7997
  139.6517  144.7128  151.2035 H   0  0  0  0  0  0  0  0  0  0  0  0  # atno 10167 bound_to 10162
  156.4937  130.8359  151.2581 H   0  0  0  0  0  0  0  0  0  0  0  0  # atno 10718 bound_to 10713
  152.9818  135.5707  154.5084 H   0  0  0  0  0  0  0  0  0  0  0  0  # atno 10763 bound_to 10752
  154.4592  135.2781  155.1727 H   0  0  0  0  0  0  0  0  0  0  0  0  # atno 10764 bound_to 10752
  154.3322  135.6247  153.5610 H   0  0  0  0  0  0  0  0  0  0  0  0  # atno 10765 bound_to 10752
  139.9912  134.9514  156.9860 H   0  0  0  0  0  0  0  0  0  0  0  0  # atno 11005 bound_to 11000
  144.7172  139.8155  143.7394 LP  0  0  0  0  0  0  0  0  0  0  0  0  # atno 17320 bound_to 7965
  146.1312  139.4347  143.0168 LP  0  0  0  0  0  0  0  0  0  0  0  0  # atno 17321 bound_to 7965
  140.7541  143.6139  150.8579 LP  0  0  0  0  0  0  0  0  0  0  0  0  # atno 17342 bound_to 10162
  139.9787  143.5975  152.2950 LP  0  0  0  0  0  0  0  0  0  0  0  0  # atno 17343 bound_to 10162
  157.7471  131.0005  150.2928 LP  0  0  0  0  0  0  0  0  0  0  0  0  # atno 17370 bound_to 10713
  156.3401  130.3814  149.7416 LP  0  0  0  0  0  0  0  0  0  0  0  0  # atno 17371 bound_to 10713
  140.4905  134.1198  155.7232 LP  0  0  0  0  0  0  0  0  0  0  0  0  # atno 17394 bound_to 11000
  141.1567  133.8869  157.1958 LP  0  0  0  0  0  0  0  0  0  0  0  0  # atno 17395 bound_to 11000

$$$$
