AV-unprocessed.smi:2889|AV-procd|sdf|11115|dock1
  -GOLD-   2272015583D 1   1.00000     0.00000
 Structure written by MMmdl.
 35 36  0  0  0  0  0  0  0  0  2 V2000
  154.5355  141.3235  160.2187 C   0  0  0  0  0  0  0  0  0  0  0  0
  153.2596  141.9963  161.3195 S   0  0  0  0  0  0  0  0  0  0  0  0
  152.1674  142.8355  160.1240 C   0  0  1  0  0  0  0  0  0  0  0  0
  152.7099  144.2666  159.8598 C   0  0  0  0  0  0  0  0  0  0  0  0
  151.8659  145.0626  158.8441 C   0  0  0  0  0  0  0  0  0  0  0  0
  151.7347  144.2496  157.5420 C   0  0  0  0  0  0  0  0  0  0  0  0
  151.1731  142.8293  157.7908 C   0  0  0  0  0  0  0  0  0  0  0  0
  151.9945  142.0062  158.8166 C   0  0  2  0  0  0  0  0  0  0  0  0
  151.3056  140.7534  159.0940 N   0  5  0  0  0  0  0  0  0  0  0  0
  151.8471  139.3702  158.4431 S   0  0  0  0  0  0  0  0  0  0  0  0
  152.9139  139.5850  157.4513 O   0  0  0  0  0  0  0  0  0  0  0  0
  152.0756  138.3330  159.4621 O   0  0  0  0  0  0  0  0  0  0  0  0
  150.3543  138.8266  157.5011 C   0  0  0  0  0  0  0  0  0  0  0  0
  150.6452  138.7791  156.0253 C   0  0  0  0  0  0  0  0  0  0  0  0
  151.3035  137.7570  155.2854 C   0  0  0  0  0  0  0  0  0  0  0  0
  151.2942  138.2315  154.0061 C   0  0  0  0  0  0  0  0  0  0  0  0
  150.6933  139.4467  153.9544 O   0  0  0  0  0  0  0  0  0  0  0  0
  150.2855  139.7899  155.2485 N   0  0  0  0  0  0  0  0  0  0  0  0
  155.2666  140.7588  160.7965 H   0  0  0  0  0  0  0  0  0  0  0  0
  155.0575  142.1233  159.6940 H   0  0  0  0  0  0  0  0  0  0  0  0
  154.0892  140.6562  159.4815 H   0  0  0  0  0  0  0  0  0  0  0  0
  151.1900  142.9498  160.5954 H   0  0  0  0  0  0  0  0  0  0  0  0
  152.7452  144.8188  160.7995 H   0  0  0  0  0  0  0  0  0  0  0  0
  153.7424  144.2183  159.5072 H   0  0  0  0  0  0  0  0  0  0  0  0
  150.8764  145.2584  159.2590 H   0  0  0  0  0  0  0  0  0  0  0  0
  152.3231  146.0321  158.6444 H   0  0  0  0  0  0  0  0  0  0  0  0
  151.0828  144.7804  156.8478 H   0  0  0  0  0  0  0  0  0  0  0  0
  152.7074  144.1887  157.0496 H   0  0  0  0  0  0  0  0  0  0  0  0
  150.1430  142.9206  158.1395 H   0  0  0  0  0  0  0  0  0  0  0  0
  151.1229  142.2953  156.8414 H   0  0  0  0  0  0  0  0  0  0  0  0
  152.9872  141.8356  158.3973 H   0  0  0  0  0  0  0  0  0  0  0  0
  150.0749  137.8401  157.8715 H   0  0  0  0  0  0  0  0  0  0  0  0
  149.5319  139.5045  157.7277 H   0  0  0  0  0  0  0  0  0  0  0  0
  151.7087  136.8205  155.6394 H   0  0  0  0  0  0  0  0  0  0  0  0
  151.6598  137.8416  153.0678 H   0  0  0  0  0  0  0  0  0  0  0  0
  1  2  1  0  0  0  0
  1 19  1  0  0  0  0
  1 20  1  0  0  0  0
  1 21  1  0  0  0  0
  2  3  1  0  0  0  0
  3  8  1  0  0  0  0
  3  4  1  0  0  0  0
  3 22  1  0  0  0  0
  4  5  1  0  0  0  0
  4 23  1  0  0  0  0
  4 24  1  0  0  0  0
  5  6  1  0  0  0  0
  5 25  1  0  0  0  0
  5 26  1  0  0  0  0
  6  7  1  0  0  0  0
  6 27  1  0  0  0  0
  6 28  1  0  0  0  0
  7  8  1  0  0  0  0
  7 29  1  0  0  0  0
  7 30  1  0  0  0  0
  8  9  1  0  0  0  0
  8 31  1  0  0  0  0
  9 10  1  0  0  0  0
 10 11  2  0  0  0  0
 10 12  2  0  0  0  0
 10 13  1  0  0  0  0
 13 14  1  0  0  0  0
 13 32  1  0  0  0  0
 13 33  1  0  0  0  0
 14 18  2  0  0  0  0
 14 15  1  0  0  0  0
 15 16  2  0  0  0  0
 15 34  1  0  0  0  0
 16 17  1  0  0  0  0
 16 35  1  0  0  0  0
 17 18  1  0  0  0  0
M  CHG  1   9  -1
M  END
> <s_m_source_file>
AV-unprocessed.smi

> <i_m_source_file_index>
2889

> <i_lp_mmshare_version>
43012

> <i_f3d_flags>
0

> <s_epik_input>
W0NIM11TW0NAQEhdMVtDSDJdW0NIMl1bQ0gyXVtDSDJdW0NASF0xW05IXVMoPU8pKD1PKVtDSDJdYzJbY0hdW2NIXW9uMg==

> <s_epik_cmdline>
J2VwaWtfcHl0aG9uJywgJy1waCcsICc3LjAnLCAnLXRuJywgJzgnLCAnLW1hJywgJzIwMCcsICctbWV0YWxfYmluZGluZycsICctaW1hZScsICc8aW5maWxlLm1hZT4nLCAnLW9tYWUnLCAnPG91dGZpbGUubWFlPic=

> <r_lp_tautomer_probability>
1

> <r_epik_Ionization_Penalty>
4.65467

> <r_epik_Ionization_Penalty_Charging>
4.65467

> <r_epik_Ionization_Penalty_Neutral>
2.71476e-10

> <r_epik_State_Penalty>
4.65444

> <r_epik_Charging_Adjusted_Penalty>
9.30911

> <i_epik_Tot_Q>
-1

> <i_epik_Tot_abs_Q>
1

> <r_epik_Metal_State_Penalty>
0.901484

> <b_epik_Metal_Only>
1

> <s_lp_Force_Field>
OPLS_2005

> <r_lp_Energy>
9.1096

> <b_lp_Chiralities_Consistent>
1

> <s_lp_Variant>
AV-unprocessed.smi:2889-8

> <Gold.Version>
5.8.1

> <Gold.Id.Protein>
6NUR|6NUR_protein|mol2

> <Gold.PLP.Fitness>
44.3013

> <Gold.PLP.PLP>
-36.8686

> <Gold.PLP.part.hbond>
-2.0000

> <Gold.PLP.part.metal>
0.0000

> <Gold.PLP.part.buried>
-5.4981

> <Gold.PLP.part.nonpolar>
-29.7826

> <Gold.PLP.part.repulsive>
0.2833

> <Gold.PLP.ligand.clash>
0.0000

> <Gold.PLP.ligand.torsion>
1.2906

> <Gold.PLP.Chemscore.Hbond>
2.0000

> <Gold.PLP.Chemscore.CHOScore>
1.0000

> <Gold.PLP.Chemscore.Metal>
0.0000

> <Gold.Chemscore.Hbonds>
donor molecule, donor type, donor heavy atom, donor atom, acceptor molecule, acceptor atom, score
      P1  H  7989  7998       L1    17  1.00
      P1  H  7997  8010       L1    11  1.00
      L1  C    16    35       P1  7949  1.00

> <Gold.PLP.Chemscore.Internal.Correction>
1.0139

> <Gold.Rescore>
     Score         DG    S(hbond)    S(metal)    S(lipo)     H(rot)  DE(clash)    DE(int)     intcor
     19.26     -20.57       1.87        0.00     109.06       1.53       0.01       1.29       ----

> <Gold.Chemscore.Fitness>
19.2641

> <Gold.Chemscore.DG>
-20.5736

> <Gold.Chemscore.ZeroCoef>
-5.4800

> <Gold.Chemscore.Hbond>
1.8724

> <Gold.Chemscore.Metal>
0.0000

> <Gold.Chemscore.Lipo>
109.0632

> <Gold.Chemscore.Internal_Hbond>
0.0000

> <Gold.Chemscore.DEClash>
0.0149

> <Gold.Chemscore.DEInternal>
1.2947

> <Gold.Chemscore.Rot>
1.5314

> <Gold.Chemscore.Internal.Correction>
   9.000000E+99

> <Gold.Chemscore.Hbonds>
donor molecule, donor type, donor heavy atom, donor atom, acceptor molecule, acceptor atom, score
      P1  H  7989  7998       L1    17  0.38
      P1  H  7997  8010       L1    11  1.00

> <Gold.Chemscore.Hbond.Weighted>
-6.2537

> <Gold.Chemscore.Metal.Weighted>
-0.0000

> <Gold.Chemscore.Lipo.Weighted>
-12.7604

> <Gold.Chemscore.Internal_Hbond.Weighted>
0.0000

> <Gold.Chemscore.DEClash.Weighted>
0.0149

> <Gold.Chemscore.DEInternal.Weighted>
1.2947

> <Gold.Chemscore.Rot.Weighted>
3.9205

> <Gold.Chemscore.Internal.Correction.Weighted>
   9.000000E+99

> <Gold.Protein.RotatedTorsions>
[ 6907 6896 6895 6894 ] final -102.56 input  -60.11 | X-H torsion
[ 7974 7965 7964 7962 ] final  -69.16 input  175.53 | X-H torsion
[ 8008 7997 7996 7995 ] final   39.29 input   59.86 | X-H torsion
[ 10167 10162 10161 10158 ] final  -81.90 input  -65.29 | X-H torsion
[ 10718 10713 10712 10709 ] final  -24.46 input   66.30 | X-H torsion
[ 10763 10752 10751 10750 ] final  -15.07 input  -60.55 | X-H torsion
[ 11005 11000 10999 10996 ] final  -51.53 input  -57.11 | X-H torsion

> <Gold.Protein.ActiveResidues>
 VAL166  LYS551  ARG553  GLY616  TRP617  ASP618  TYR619  PRO620  LYS621  CYS622 
 ASP623  PHE694  ASN695  SER759  ASP760  ASP761  ALA762  ILE779  LEU786  VAL792 
 PHE793  MET794  SER795  GLU796  ALA797  LYS798  CYS799  TRP800  GLU811  SER814 

> <Gold.Protein.RotatedAtoms>
  150.7201  134.0563  159.3815 H   0  0  0  0  0  0  0  0  0  0  0  0  # atno 6907 bound_to 6896
  151.8542  135.0545  160.0471 H   0  0  0  0  0  0  0  0  0  0  0  0  # atno 6908 bound_to 6896
  152.2767  133.5396  159.5509 H   0  0  0  0  0  0  0  0  0  0  0  0  # atno 6909 bound_to 6896
  145.7073  140.9092  143.0699 H   0  0  0  0  0  0  0  0  0  0  0  0  # atno 7974 bound_to 7965
  155.2342  140.3340  155.4300 H   0  0  0  0  0  0  0  0  0  0  0  0  # atno 8008 bound_to 7997
  156.2282  140.1839  156.7354 H   0  0  0  0  0  0  0  0  0  0  0  0  # atno 8009 bound_to 7997
  154.5934  140.0634  156.9256 H   0  0  0  0  0  0  0  0  0  0  0  0  # atno 8010 bound_to 7997
  140.4369  143.2528  151.8681 H   0  0  0  0  0  0  0  0  0  0  0  0  # atno 10167 bound_to 10162
  156.4773  130.4537  149.6832 H   0  0  0  0  0  0  0  0  0  0  0  0  # atno 10718 bound_to 10713
  153.5378  135.7013  153.5651 H   0  0  0  0  0  0  0  0  0  0  0  0  # atno 10763 bound_to 10752
  153.3631  135.3964  155.1733 H   0  0  0  0  0  0  0  0  0  0  0  0  # atno 10764 bound_to 10752
  154.8677  135.3793  154.4880 H   0  0  0  0  0  0  0  0  0  0  0  0  # atno 10765 bound_to 10752
  141.0876  133.6639  156.3891 H   0  0  0  0  0  0  0  0  0  0  0  0  # atno 11005 bound_to 11000
  144.6951  139.9028  143.7459 LP  0  0  0  0  0  0  0  0  0  0  0  0  # atno 17320 bound_to 7965
  146.0744  139.3732  143.0503 LP  0  0  0  0  0  0  0  0  0  0  0  0  # atno 17321 bound_to 7965
  139.4787  144.5273  151.8717 LP  0  0  0  0  0  0  0  0  0  0  0  0  # atno 17342 bound_to 10162
  140.4363  144.2047  150.5889 LP  0  0  0  0  0  0  0  0  0  0  0  0  # atno 17343 bound_to 10162
  156.3557  130.7455  151.2420 LP  0  0  0  0  0  0  0  0  0  0  0  0  # atno 17370 bound_to 10713
  157.7486  131.0364  150.4410 LP  0  0  0  0  0  0  0  0  0  0  0  0  # atno 17371 bound_to 10713
  140.5327  134.6196  157.5355 LP  0  0  0  0  0  0  0  0  0  0  0  0  # atno 17394 bound_to 11000
  139.9696  134.7315  156.0068 LP  0  0  0  0  0  0  0  0  0  0  0  0  # atno 17395 bound_to 11000

$$$$
