AV-unprocessed.smi:3100|AV-procd|sdf|11806|dock5
  -GOLD-   2272017183D 1   1.00000     0.00000
 Structure written by MMmdl.
 28 29  0  0  0  0  0  0  0  0  1 V2000
  152.4302  144.7055  158.5117 C   0  0  0  0  0  0  0  0  0  0  0  0
  152.3395  143.5042  159.4581 C   0  0  2  0  0  0  0  0  0  0  0  0
  153.6904  142.9201  159.8556 C   0  0  0  0  0  0  0  0  0  0  0  0
  153.3011  141.5313  160.3201 C   0  0  0  0  0  0  0  0  0  0  0  0
  152.0691  141.1946  159.4602 C   0  0  2  0  0  0  0  0  0  0  0  0
  152.3359  140.1478  158.3720 C   0  0  0  0  0  0  0  0  0  0  0  0
  153.3706  139.4804  158.4052 O   0  0  0  0  0  0  0  0  0  0  0  0
  151.3896  140.0425  157.4209 N   0  0  0  0  0  0  0  0  0  0  0  0
  151.3708  139.1786  156.2944 C   0  0  0  0  0  0  0  0  0  0  0  0
  152.1072  137.9777  156.4286 C   0  0  0  0  0  0  0  0  0  0  0  0
  152.1826  137.0542  155.4445 N   0  0  0  0  0  0  0  0  0  0  0  0
  151.5115  137.3295  154.3056 C   0  0  0  0  0  0  0  0  0  0  0  0
  150.7724  138.5199  154.1542 C   0  0  0  0  0  0  0  0  0  0  0  0
  150.7025  139.4392  155.1415 N   0  0  0  0  0  0  0  0  0  0  0  0
  151.6952  142.4128  158.8182 O   0  0  0  0  0  0  0  0  0  0  0  0
  152.9499  145.5383  158.9857 H   0  0  0  0  0  0  0  0  0  0  0  0
  151.4366  145.0511  158.2259 H   0  0  0  0  0  0  0  0  0  0  0  0
  152.9689  144.4493  157.5988 H   0  0  0  0  0  0  0  0  0  0  0  0
  151.7716  143.7693  160.3517 H   0  0  0  0  0  0  0  0  0  0  0  0
  154.3479  142.8513  158.9874 H   0  0  0  0  0  0  0  0  0  0  0  0
  154.1981  143.5019  160.6255 H   0  0  0  0  0  0  0  0  0  0  0  0
  154.1223  140.8197  160.2226 H   0  0  0  0  0  0  0  0  0  0  0  0
  153.0168  141.5570  161.3729 H   0  0  0  0  0  0  0  0  0  0  0  0
  151.2518  140.8674  160.1052 H   0  0  0  0  0  0  0  0  0  0  0  0
  150.5907  140.6522  157.5160 H   0  0  0  0  0  0  0  0  0  0  0  0
  152.6454  137.7520  157.3380 H   0  0  0  0  0  0  0  0  0  0  0  0
  151.5638  136.5984  153.5126 H   0  0  0  0  0  0  0  0  0  0  0  0
  150.2373  138.7350  153.2412 H   0  0  0  0  0  0  0  0  0  0  0  0
  1  2  1  0  0  0  0
  1 16  1  0  0  0  0
  1 17  1  0  0  0  0
  1 18  1  0  0  0  0
  2 15  1  0  0  0  0
  2  3  1  0  0  0  0
  2 19  1  0  0  0  0
  3  4  1  0  0  0  0
  3 20  1  0  0  0  0
  3 21  1  0  0  0  0
  4  5  1  0  0  0  0
  4 22  1  0  0  0  0
  4 23  1  0  0  0  0
  5  6  1  0  0  0  0
  5 15  1  0  0  0  0
  5 24  1  0  0  0  0
  6  7  2  0  0  0  0
  6  8  1  0  0  0  0
  8  9  1  0  0  0  0
  8 25  1  0  0  0  0
  9 14  1  0  0  0  0
  9 10  2  0  0  0  0
 10 11  1  0  0  0  0
 10 26  1  0  0  0  0
 11 12  2  0  0  0  0
 12 13  1  0  0  0  0
 12 27  1  0  0  0  0
 13 14  2  0  0  0  0
 13 28  1  0  0  0  0
M  END
> <s_m_source_file>
AV-unprocessed.smi

> <i_m_source_file_index>
3100

> <i_lp_mmshare_version>
43012

> <i_f3d_flags>
0

> <s_epik_input>
W0NIM11bQ0BASF0xW0NIMl1bQ0gyXVtDQEhdKE8xKUMoPU8pW05IXWMyW2NIXW5bY0hdW2NIXW4y

> <s_epik_cmdline>
J2VwaWtfcHl0aG9uJywgJy1waCcsICc3LjAnLCAnLXRuJywgJzgnLCAnLW1hJywgJzIwMCcsICctbWV0YWxfYmluZGluZycsICctaW1hZScsICc8aW5maWxlLm1hZT4nLCAnLW9tYWUnLCAnPG91dGZpbGUubWFlPic=

> <r_lp_tautomer_probability>
1

> <r_epik_Ionization_Penalty>
2.81186e-06

> <r_epik_Ionization_Penalty_Charging>
0

> <r_epik_Ionization_Penalty_Neutral>
2.81186e-06

> <r_epik_State_Penalty>
-0

> <r_epik_Charging_Adjusted_Penalty>
0

> <i_epik_Tot_Q>
0

> <i_epik_Tot_abs_Q>
0

> <r_epik_Metal_State_Penalty>
-0

> <b_epik_Metal_Only>
0

> <s_lp_Force_Field>
OPLS_2005

> <r_lp_Energy>
25.9651

> <b_lp_Chiralities_Consistent>
1

> <s_lp_Variant>
AV-unprocessed.smi:3100-3

> <Gold.Version>
5.8.1

> <Gold.Id.Protein>
6NUR|6NUR_protein|mol2

> <Gold.PLP.Fitness>
41.4018

> <Gold.PLP.PLP>
-30.4647

> <Gold.PLP.part.hbond>
-2.0002

> <Gold.PLP.part.metal>
0.0000

> <Gold.PLP.part.buried>
-3.7138

> <Gold.PLP.part.nonpolar>
-24.5380

> <Gold.PLP.part.repulsive>
0.1723

> <Gold.PLP.ligand.clash>
0.0000

> <Gold.PLP.ligand.torsion>
0.4271

> <Gold.PLP.Chemscore.Hbond>
1.9280

> <Gold.PLP.Chemscore.CHOScore>
2.0000

> <Gold.PLP.Chemscore.Metal>
0.0000

> <Gold.Chemscore.Hbonds>
donor molecule, donor type, donor heavy atom, donor atom, acceptor molecule, acceptor atom, score
      P1  H  7989  7998       L1    14  0.02
      P1  H  7997  8008       L1     7  1.00
      P1  H 10752 10764       L1    11  0.63
      L1  C    12    27       P1  7949  1.00
      L1  C    13    28       P1  7957  1.00

> <Gold.PLP.Chemscore.Internal.Correction>
0.0073

> <Gold.Rescore>
     Score         DG    S(hbond)    S(metal)    S(lipo)     H(rot)  DE(clash)    DE(int)     intcor
     15.62     -17.51       1.54        0.00      80.58       1.00       0.09       1.79       ----

> <Gold.Chemscore.Fitness>
15.6243

> <Gold.Chemscore.DG>
-17.5069

> <Gold.Chemscore.ZeroCoef>
-5.4800

> <Gold.Chemscore.Hbond>
1.5448

> <Gold.Chemscore.Metal>
0.0000

> <Gold.Chemscore.Lipo>
80.5754

> <Gold.Chemscore.Internal_Hbond>
0.0000

> <Gold.Chemscore.DEClash>
0.0915

> <Gold.Chemscore.DEInternal>
1.7911

> <Gold.Chemscore.Rot>
1.0000

> <Gold.Chemscore.Internal.Correction>
   9.000000E+99

> <Gold.Chemscore.Hbonds>
donor molecule, donor type, donor heavy atom, donor atom, acceptor molecule, acceptor atom, score
      P1  H  7997  8008       L1     7  0.85
      P1  H 10752 10764       L1    11  0.06

> <Gold.Chemscore.Hbond.Weighted>
-5.1596

> <Gold.Chemscore.Metal.Weighted>
-0.0000

> <Gold.Chemscore.Lipo.Weighted>
-9.4273

> <Gold.Chemscore.Internal_Hbond.Weighted>
0.0000

> <Gold.Chemscore.DEClash.Weighted>
0.0915

> <Gold.Chemscore.DEInternal.Weighted>
1.7911

> <Gold.Chemscore.Rot.Weighted>
2.5600

> <Gold.Chemscore.Internal.Correction.Weighted>
   9.000000E+99

> <Gold.Protein.RotatedTorsions>
[ 6907 6896 6895 6894 ] final  179.22 input  -60.11 | X-H torsion
[ 7974 7965 7964 7962 ] final -179.71 input  175.53 | X-H torsion
[ 8008 7997 7996 7995 ] final  -92.24 input   59.86 | X-H torsion
[ 10167 10162 10161 10158 ] final  -59.66 input  -65.29 | X-H torsion
[ 10718 10713 10712 10709 ] final  -77.20 input   66.30 | X-H torsion
[ 10763 10752 10751 10750 ] final  -50.36 input  -60.55 | X-H torsion
[ 11005 11000 10999 10996 ] final  110.13 input  -57.11 | X-H torsion

> <Gold.Protein.ActiveResidues>
 VAL166  LYS551  ARG553  GLY616  TRP617  ASP618  TYR619  PRO620  LYS621  CYS622 
 ASP623  PHE694  ASN695  SER759  ASP760  ASP761  ALA762  ILE779  LEU786  VAL792 
 PHE793  MET794  SER795  GLU796  ALA797  LYS798  CYS799  TRP800  GLU811  SER814 

> <Gold.Protein.RotatedAtoms>
  151.6752  133.3313  159.3205 H   0  0  0  0  0  0  0  0  0  0  0  0  # atno 6907 bound_to 6896
  150.7849  134.6828  159.6463 H   0  0  0  0  0  0  0  0  0  0  0  0  # atno 6908 bound_to 6896
  152.3916  134.6436  160.0157 H   0  0  0  0  0  0  0  0  0  0  0  0  # atno 6909 bound_to 6896
  144.7138  140.0676  143.6430 H   0  0  0  0  0  0  0  0  0  0  0  0  # atno 7974 bound_to 7965
  154.7207  140.0511  157.0637 H   0  0  0  0  0  0  0  0  0  0  0  0  # atno 8008 bound_to 7997
  155.0431  140.3171  155.4698 H   0  0  0  0  0  0  0  0  0  0  0  0  # atno 8009 bound_to 7997
  156.2815  140.2129  156.5555 H   0  0  0  0  0  0  0  0  0  0  0  0  # atno 8010 bound_to 7997
  140.6121  143.2390  151.5685 H   0  0  0  0  0  0  0  0  0  0  0  0  # atno 10167 bound_to 10162
  156.0152  130.4485  150.3309 H   0  0  0  0  0  0  0  0  0  0  0  0  # atno 10718 bound_to 10713
  154.1090  135.6552  153.4882 H   0  0  0  0  0  0  0  0  0  0  0  0  # atno 10763 bound_to 10752
  153.0263  135.5243  154.7210 H   0  0  0  0  0  0  0  0  0  0  0  0  # atno 10764 bound_to 10752
  154.6385  135.2985  155.0102 H   0  0  0  0  0  0  0  0  0  0  0  0  # atno 10765 bound_to 10752
  139.8876  134.9476  156.6232 H   0  0  0  0  0  0  0  0  0  0  0  0  # atno 11005 bound_to 11000
  145.9811  139.2941  143.1041 LP  0  0  0  0  0  0  0  0  0  0  0  0  # atno 17320 bound_to 7965
  145.9010  140.9243  143.0503 LP  0  0  0  0  0  0  0  0  0  0  0  0  # atno 17321 bound_to 7965
  139.5369  144.2756  152.1270 LP  0  0  0  0  0  0  0  0  0  0  0  0  # atno 17342 bound_to 10162
  140.1957  144.4708  150.6456 LP  0  0  0  0  0  0  0  0  0  0  0  0  # atno 17343 bound_to 10162
  157.1407  131.0295  151.2929 LP  0  0  0  0  0  0  0  0  0  0  0  0  # atno 17370 bound_to 10713
  157.4474  130.7579  149.7122 LP  0  0  0  0  0  0  0  0  0  0  0  0  # atno 17371 bound_to 10713
  140.7723  133.8728  155.8501 LP  0  0  0  0  0  0  0  0  0  0  0  0  # atno 17394 bound_to 11000
  140.9831  134.1379  157.4476 LP  0  0  0  0  0  0  0  0  0  0  0  0  # atno 17395 bound_to 11000

$$$$
