AV-unprocessed.smi:53|AV-procd|sdf|524|dock9
  -GOLD-   2262016403D 1   1.00000     0.00000
 Structure written by MMmdl.
 30 31  0  0  0  0  0  0  0  0  1 V2000
  152.9147  143.6164  159.1820 N   0  0  0  0  0  0  0  0  0  0  0  0
  152.1466  142.7255  158.5398 C   0  0  0  0  0  0  0  0  0  0  0  0
  151.2957  143.1461  157.4495 C   0  0  0  0  0  0  0  0  0  0  0  0
  150.5504  142.1894  156.8545 C   0  0  0  0  0  0  0  0  0  0  0  0
  150.5857  140.8632  157.2612 N   0  0  0  0  0  0  0  0  0  0  0  0
  149.7381  139.8172  156.5664 C   0  0  1  0  0  0  0  0  0  0  0  0
  148.4505  140.3307  156.3974 O   0  0  0  0  0  0  0  0  0  0  0  0
  147.9699  139.9867  155.1038 C   0  0  1  0  0  0  0  0  0  0  0  0
  146.8138  140.9111  154.6827 C   0  0  0  0  0  0  0  0  0  0  0  0
  146.4953  140.7095  153.3221 O   0  0  0  0  0  0  0  0  0  0  0  0
  149.2288  139.9948  154.2244 C   0  0  1  0  0  0  0  0  0  0  0  0
  149.5377  141.3070  153.7843 O   0  0  0  0  0  0  0  0  0  0  0  0
  150.2815  139.4281  155.1730 C   0  0  1  0  0  0  0  0  0  0  0  0
  151.5963  139.8668  154.8759 O   0  0  0  0  0  0  0  0  0  0  0  0
  151.4377  140.4792  158.3254 C   0  0  0  0  0  0  0  0  0  0  0  0
  151.5227  139.3118  158.7050 O   0  0  0  0  0  0  0  0  0  0  0  0
  152.1833  141.4626  158.9187 N   0  0  0  0  0  0  0  0  0  0  0  0
  149.6644  138.9630  157.2411 H   0  0  0  0  0  0  0  0  0  0  0  0
  147.5995  138.9617  155.1690 H   0  0  0  0  0  0  0  0  0  0  0  0
  149.1065  139.3652  153.3424 H   0  0  0  0  0  0  0  0  0  0  0  0
  150.2621  138.3391  155.1142 H   0  0  0  0  0  0  0  0  0  0  0  0
  153.5095  143.3199  159.9424 H   0  0  0  0  0  0  0  0  0  0  0  0
  152.8956  144.5867  158.9028 H   0  0  0  0  0  0  0  0  0  0  0  0
  151.2342  144.1675  157.1022 H   0  0  0  0  0  0  0  0  0  0  0  0
  149.9106  142.4847  156.0361 H   0  0  0  0  0  0  0  0  0  0  0  0
  145.9279  140.6895  155.2782 H   0  0  0  0  0  0  0  0  0  0  0  0
  147.0546  141.9605  154.8538 H   0  0  0  0  0  0  0  0  0  0  0  0
  145.5629  140.5729  153.2484 H   0  0  0  0  0  0  0  0  0  0  0  0
  149.5000  141.8871  154.5297 H   0  0  0  0  0  0  0  0  0  0  0  0
  151.9810  140.2024  155.6717 H   0  0  0  0  0  0  0  0  0  0  0  0
  1  2  1  0  0  0  0
  1 22  1  0  0  0  0
  1 23  1  0  0  0  0
  2 17  2  0  0  0  0
  2  3  1  0  0  0  0
  3  4  2  0  0  0  0
  3 24  1  0  0  0  0
  4  5  1  0  0  0  0
  4 25  1  0  0  0  0
  5  6  1  0  0  0  0
  5 15  1  0  0  0  0
  6 18  1  0  0  0  0
  6 13  1  0  0  0  0
  6  7  1  0  0  0  0
  7  8  1  0  0  0  0
  8 19  1  0  0  0  0
  8  9  1  0  0  0  0
  8 11  1  0  0  0  0
  9 10  1  0  0  0  0
  9 26  1  0  0  0  0
  9 27  1  0  0  0  0
 10 28  1  0  0  0  0
 11 20  1  0  0  0  0
 11 12  1  0  0  0  0
 11 13  1  0  0  0  0
 12 29  1  0  0  0  0
 13 21  1  0  0  0  0
 13 14  1  0  0  0  0
 14 30  1  0  0  0  0
 15 16  2  0  0  0  0
 15 17  1  0  0  0  0
M  END
> <s_m_source_file>
AV-unprocessed.smi

> <i_m_source_file_index>
53

> <i_lp_mmshare_version>
43012

> <i_f3d_flags>
0

> <s_epik_input>
W05IMl1jMVtjSF1bY0hdbihjKD1PKW4xKVtDQEBIXTJPW0NASF0oW0NIMl1bT0hdKVtDQEBIXShbT0hdKVtDQEBIXTJbT0hd

> <s_epik_cmdline>
J2VwaWtfcHl0aG9uJywgJy1waCcsICc3LjAnLCAnLXRuJywgJzgnLCAnLW1hJywgJzIwMCcsICctbWV0YWxfYmluZGluZycsICctaW1hZScsICc8aW5maWxlLm1hZT4nLCAnLW9tYWUnLCAnPG91dGZpbGUubWFlPic=

> <r_lp_tautomer_probability>
0.99996

> <r_epik_Ionization_Penalty>
0.00069087

> <r_epik_Ionization_Penalty_Charging>
2.61959e-08

> <r_epik_Ionization_Penalty_Neutral>
0.000690844

> <r_epik_State_Penalty>
1.15523e-05

> <r_epik_Charging_Adjusted_Penalty>
1.15785e-05

> <i_epik_Tot_Q>
0

> <i_epik_Tot_abs_Q>
0

> <r_epik_Metal_State_Penalty>
-0

> <b_epik_Metal_Only>
0

> <s_epik_Chemistry_Notes>
This compound contains an acetal/aminal-like group ( X-CH(R)-Y where X, Y are N, S, or O) that may be acid/base labile, releasing an aldehyde.

> <s_lp_Force_Field>
OPLS_2005

> <r_lp_Energy>
39.3068

> <b_lp_Chiralities_Consistent>
1

> <s_lp_Variant>
AV-unprocessed.smi:53-12

> <Gold.Version>
5.8.1

> <Gold.Id.Protein>
6NUR|6NUR_protein|mol2

> <Gold.PLP.Fitness>
35.5972

> <Gold.PLP.PLP>
-25.0616

> <Gold.PLP.part.hbond>
-5.0000

> <Gold.PLP.part.metal>
0.0000

> <Gold.PLP.part.buried>
-4.1962

> <Gold.PLP.part.nonpolar>
-15.8140

> <Gold.PLP.part.repulsive>
0.0386

> <Gold.PLP.ligand.clash>
0.0000

> <Gold.PLP.ligand.torsion>
0.4166

> <Gold.PLP.Chemscore.Hbond>
2.8480

> <Gold.PLP.Chemscore.CHOScore>
0.9402

> <Gold.PLP.Chemscore.Metal>
0.0000

> <Gold.Chemscore.Hbonds>
donor molecule, donor type, donor heavy atom, donor atom, acceptor molecule, acceptor atom, score
      L1  H    10    28       P1 10175  1.00
      P1  H  7989  7998       L1    14  1.00
      P1  H  8011  8017       L1    12  0.83
      L1  C     4    25       P1  8028  0.94

> <Gold.PLP.Chemscore.Internal.Correction>
0.0040

> <Gold.Rescore>
     Score         DG    S(hbond)    S(metal)    S(lipo)     H(rot)  DE(clash)    DE(int)     intcor
      8.12      -8.72       2.52        0.00      37.00       3.71       0.15       0.45       ----

> <Gold.Chemscore.Fitness>
8.1247

> <Gold.Chemscore.DG>
-8.7179

> <Gold.Chemscore.ZeroCoef>
-5.4800

> <Gold.Chemscore.Hbond>
2.5167

> <Gold.Chemscore.Metal>
0.0000

> <Gold.Chemscore.Lipo>
36.9959

> <Gold.Chemscore.Internal_Hbond>
0.0000

> <Gold.Chemscore.DEClash>
0.1461

> <Gold.Chemscore.DEInternal>
0.4471

> <Gold.Chemscore.Rot>
3.7095

> <Gold.Chemscore.Internal.Correction>
   9.000000E+99

> <Gold.Chemscore.Hbonds>
donor molecule, donor type, donor heavy atom, donor atom, acceptor molecule, acceptor atom, score
      L1  H    10    28       P1 10175  0.84
      P1  H  7989  7998       L1    14  0.79
      P1  H  8011  8017       L1    12  0.42

> <Gold.Chemscore.Hbond.Weighted>
-8.4058

> <Gold.Chemscore.Metal.Weighted>
-0.0000

> <Gold.Chemscore.Lipo.Weighted>
-4.3285

> <Gold.Chemscore.Internal_Hbond.Weighted>
0.0000

> <Gold.Chemscore.DEClash.Weighted>
0.1461

> <Gold.Chemscore.DEInternal.Weighted>
0.4471

> <Gold.Chemscore.Rot.Weighted>
9.4964

> <Gold.Chemscore.Internal.Correction.Weighted>
   9.000000E+99

> <Gold.Protein.RotatedTorsions>
[ 6907 6896 6895 6894 ] final   25.66 input  -60.11 | X-H torsion
[ 7974 7965 7964 7962 ] final   41.90 input  175.53 | X-H torsion
[ 8008 7997 7996 7995 ] final  108.16 input   59.86 | X-H torsion
[ 10167 10162 10161 10158 ] final  162.67 input  -65.29 | X-H torsion
[ 10718 10713 10712 10709 ] final  110.03 input   66.30 | X-H torsion
[ 10763 10752 10751 10750 ] final  -22.01 input  -60.55 | X-H torsion
[ 11005 11000 10999 10996 ] final  164.90 input  -57.11 | X-H torsion

> <Gold.Protein.ActiveResidues>
 VAL166  LYS551  ARG553  GLY616  TRP617  ASP618  TYR619  PRO620  LYS621  CYS622 
 ASP623  PHE694  ASN695  SER759  ASP760  ASP761  ALA762  ILE779  LEU786  VAL792 
 PHE793  MET794  SER795  GLU796  ALA797  LYS798  CYS799  TRP800  GLU811  SER814 

> <Gold.Protein.RotatedAtoms>
  151.9759  135.0053  160.0554 H   0  0  0  0  0  0  0  0  0  0  0  0  # atno 6907 bound_to 6896
  152.1740  133.4658  159.4932 H   0  0  0  0  0  0  0  0  0  0  0  0  # atno 6908 bound_to 6896
  150.6906  134.1834  159.4300 H   0  0  0  0  0  0  0  0  0  0  0  0  # atno 6909 bound_to 6896
  146.0785  139.5363  142.9552 H   0  0  0  0  0  0  0  0  0  0  0  0  # atno 7974 bound_to 7965
  156.1881  140.3081  155.9278 H   0  0  0  0  0  0  0  0  0  0  0  0  # atno 8008 bound_to 7997
  155.3235  140.0457  157.3057 H   0  0  0  0  0  0  0  0  0  0  0  0  # atno 8009 bound_to 7997
  154.5420  140.2264  155.8635 H   0  0  0  0  0  0  0  0  0  0  0  0  # atno 8010 bound_to 7997
  139.4863  144.4414  151.8947 H   0  0  0  0  0  0  0  0  0  0  0  0  # atno 10167 bound_to 10162
  157.6514  131.0925  150.6541 H   0  0  0  0  0  0  0  0  0  0  0  0  # atno 10718 bound_to 10713
  153.6452  135.6983  153.5228 H   0  0  0  0  0  0  0  0  0  0  0  0  # atno 10763 bound_to 10752
  153.2750  135.4203  155.1024 H   0  0  0  0  0  0  0  0  0  0  0  0  # atno 10764 bound_to 10752
  154.8490  135.3588  154.5996 H   0  0  0  0  0  0  0  0  0  0  0  0  # atno 10765 bound_to 10752
  140.2507  134.7979  157.3499 H   0  0  0  0  0  0  0  0  0  0  0  0  # atno 11005 bound_to 11000
  145.6261  141.0313  143.1888 LP  0  0  0  0  0  0  0  0  0  0  0  0  # atno 17320 bound_to 7965
  144.7278  139.7821  143.7358 LP  0  0  0  0  0  0  0  0  0  0  0  0  # atno 17321 bound_to 7965
  140.3866  144.2668  150.5903 LP  0  0  0  0  0  0  0  0  0  0  0  0  # atno 17342 bound_to 10162
  140.5184  143.2272  151.8427 LP  0  0  0  0  0  0  0  0  0  0  0  0  # atno 17343 bound_to 10162
  156.6852  130.4579  149.5616 LP  0  0  0  0  0  0  0  0  0  0  0  0  # atno 17370 bound_to 10713
  156.1901  130.6554  151.1051 LP  0  0  0  0  0  0  0  0  0  0  0  0  # atno 17371 bound_to 10713
  140.1561  134.4788  155.7927 LP  0  0  0  0  0  0  0  0  0  0  0  0  # atno 17394 bound_to 11000
  141.2201  133.6882  156.7463 LP  0  0  0  0  0  0  0  0  0  0  0  0  # atno 17395 bound_to 11000

$$$$
