AV-unprocessed.smi:3090|AV-procd|sdf|11775|dock9
  -GOLD-   2272017153D 1   1.00000     0.00000
 Structure written by MMmdl.
 22 22  0  0  0  0  0  0  0  0  2 V2000
  145.3630  137.0397  151.6609 C   0  0  0  0  0  0  0  0  0  0  0  0
  144.7923  135.7122  151.5822 N   0  0  0  0  0  0  0  0  0  0  0  0
  144.7495  134.8566  150.5030 C   0  0  0  0  0  0  0  0  0  0  0  0
  144.1095  133.7167  150.9057 C   0  0  0  0  0  0  0  0  0  0  0  0
  143.8034  132.4662  150.1243 C   0  0  1  0  0  0  0  0  0  0  0  0
  142.4169  132.1884  150.1177 O   0  0  0  0  0  0  0  0  0  0  0  0
  144.2788  132.6069  148.6676 C   0  0  0  0  0  0  0  0  0  0  0  0
  143.4822  133.5989  147.9245 N   0  3  0  0  0  0  0  0  0  0  0  0
  143.7984  133.9818  152.2705 C   0  0  0  0  0  0  0  0  0  0  0  0
  144.2076  135.1740  152.6714 N   0  0  0  0  0  0  0  0  0  0  0  0
  145.7947  137.3195  150.6995 H   0  0  0  0  0  0  0  0  0  0  0  0
  146.1455  137.0614  152.4200 H   0  0  0  0  0  0  0  0  0  0  0  0
  144.5877  137.7600  151.9237 H   0  0  0  0  0  0  0  0  0  0  0  0
  145.1742  135.1256  149.5468 H   0  0  0  0  0  0  0  0  0  0  0  0
  144.3029  131.6107  150.5810 H   0  0  0  0  0  0  0  0  0  0  0  0
  141.9693  132.9027  149.6889 H   0  0  0  0  0  0  0  0  0  0  0  0
  145.3314  132.8912  148.6284 H   0  0  0  0  0  0  0  0  0  0  0  0
  144.1880  131.6507  148.1509 H   0  0  0  0  0  0  0  0  0  0  0  0
  143.1127  133.1764  147.0848 H   0  0  0  0  0  0  0  0  0  0  0  0
  144.0729  134.3804  147.6780 H   0  0  0  0  0  0  0  0  0  0  0  0
  143.2902  133.3437  152.9786 H   0  0  0  0  0  0  0  0  0  0  0  0
  142.7210  133.9228  148.5038 H   0  0  0  0  0  0  0  0  0  0  0  0
  1  2  1  0  0  0  0
  1 11  1  0  0  0  0
  1 12  1  0  0  0  0
  1 13  1  0  0  0  0
  2 10  1  0  0  0  0
  2  3  1  0  0  0  0
  3  4  2  0  0  0  0
  3 14  1  0  0  0  0
  4  5  1  0  0  0  0
  4  9  1  0  0  0  0
  5  6  1  0  0  0  0
  5  7  1  0  0  0  0
  5 15  1  0  0  0  0
  6 16  1  0  0  0  0
  7  8  1  0  0  0  0
  7 17  1  0  0  0  0
  7 18  1  0  0  0  0
  8 19  1  0  0  0  0
  8 20  1  0  0  0  0
  8 22  1  0  0  0  0
  9 10  2  0  0  0  0
  9 21  1  0  0  0  0
M  CHG  1   8   1
M  END
> <s_m_source_file>
AV-unprocessed.smi

> <i_m_source_file_index>
3090

> <i_lp_mmshare_version>
43012

> <i_f3d_flags>
0

> <s_epik_input>
W0NIM11uMVtjSF1jKFtjSF1uMSlbQ0BIXShbT0hdKVtDSDJdW05IMl0=

> <s_epik_cmdline>
J2VwaWtfcHl0aG9uJywgJy1waCcsICc3LjAnLCAnLXRuJywgJzgnLCAnLW1hJywgJzIwMCcsICctbWV0YWxfYmluZGluZycsICctaW1hZScsICc8aW5maWxlLm1hZT4nLCAnLW9tYWUnLCAnPG91dGZpbGUubWFlPic=

> <r_lp_tautomer_probability>
1

> <r_epik_Ionization_Penalty>
0.014056

> <r_epik_Ionization_Penalty_Charging>
0.0140431

> <r_epik_Ionization_Penalty_Neutral>
1.29738e-05

> <r_epik_State_Penalty>
0.0109628

> <r_epik_Charging_Adjusted_Penalty>
0.0250059

> <i_epik_Tot_Q>
1

> <i_epik_Tot_abs_Q>
1

> <r_epik_Metal_State_Penalty>
0.0109636

> <b_epik_Metal_Only>
0

> <s_lp_Force_Field>
OPLS_2005

> <r_lp_Energy>
1.35566

> <b_lp_Chiralities_Consistent>
1

> <s_lp_Variant>
AV-unprocessed.smi:3090-2

> <Gold.Version>
5.8.1

> <Gold.Id.Protein>
6NUR|6NUR_protein|mol2

> <Gold.PLP.Fitness>
43.2573

> <Gold.PLP.PLP>
-22.9297

> <Gold.PLP.part.hbond>
-4.7246

> <Gold.PLP.part.metal>
0.0000

> <Gold.PLP.part.buried>
-1.5993

> <Gold.PLP.part.nonpolar>
-17.5997

> <Gold.PLP.part.repulsive>
0.2889

> <Gold.PLP.ligand.clash>
0.0000

> <Gold.PLP.ligand.torsion>
0.0374

> <Gold.PLP.Chemscore.Hbond>
4.8000

> <Gold.PLP.Chemscore.CHOScore>
2.0000

> <Gold.PLP.Chemscore.Metal>
0.0000

> <Gold.Chemscore.Hbonds>
donor molecule, donor type, donor heavy atom, donor atom, acceptor molecule, acceptor atom, score
      L1  H     6    16       P1 10186  1.00
      L1  H     8    19       P1 10195  0.99
      L1  H     8    20       P1  7921  0.69
      L1  H     8    22       P1 10186  1.89
      L1  C     3    14       P1  7921  1.00
      L1  C     9    21       P1 10957  1.00

> <Gold.PLP.Chemscore.Internal.Correction>
0.0024

> <Gold.Rescore>
     Score         DG    S(hbond)    S(metal)    S(lipo)     H(rot)  DE(clash)    DE(int)     intcor
     18.51     -18.55       3.71        0.00      48.55       1.96       0.02       0.02       ----

> <Gold.Chemscore.Fitness>
18.5062

> <Gold.Chemscore.DG>
-18.5484

> <Gold.Chemscore.ZeroCoef>
-5.4800

> <Gold.Chemscore.Hbond>
3.7105

> <Gold.Chemscore.Metal>
0.0000

> <Gold.Chemscore.Lipo>
48.5521

> <Gold.Chemscore.Internal_Hbond>
0.0000

> <Gold.Chemscore.DEClash>
0.0174

> <Gold.Chemscore.DEInternal>
0.0247

> <Gold.Chemscore.Rot>
1.9551

> <Gold.Chemscore.Internal.Correction>
   9.000000E+99

> <Gold.Chemscore.Hbonds>
donor molecule, donor type, donor heavy atom, donor atom, acceptor molecule, acceptor atom, score
      L1  H     6    16       P1 10186  0.99
      L1  H     8    19       P1 10195  0.88
      L1  H     8    20       P1  7921  0.65
      L1  H     8    22       P1 10186  0.90

> <Gold.Chemscore.Hbond.Weighted>
-12.3929

> <Gold.Chemscore.Metal.Weighted>
-0.0000

> <Gold.Chemscore.Lipo.Weighted>
-5.6806

> <Gold.Chemscore.Internal_Hbond.Weighted>
0.0000

> <Gold.Chemscore.DEClash.Weighted>
0.0174

> <Gold.Chemscore.DEInternal.Weighted>
0.0247

> <Gold.Chemscore.Rot.Weighted>
5.0051

> <Gold.Chemscore.Internal.Correction.Weighted>
   9.000000E+99

> <Gold.Protein.RotatedTorsions>
[ 6907 6896 6895 6894 ] final   46.82 input  -60.11 | X-H torsion
[ 7974 7965 7964 7962 ] final  140.88 input  175.53 | X-H torsion
[ 8008 7997 7996 7995 ] final -171.70 input   59.86 | X-H torsion
[ 10167 10162 10161 10158 ] final   42.99 input  -65.29 | X-H torsion
[ 10718 10713 10712 10709 ] final   79.89 input   66.30 | X-H torsion
[ 10763 10752 10751 10750 ] final -155.31 input  -60.55 | X-H torsion
[ 11005 11000 10999 10996 ] final  -64.48 input  -57.11 | X-H torsion

> <Gold.Protein.ActiveResidues>
 VAL166  LYS551  ARG553  GLY616  TRP617  ASP618  TYR619  PRO620  LYS621  CYS622 
 ASP623  PHE694  ASN695  SER759  ASP760  ASP761  ALA762  ILE779  LEU786  VAL792 
 PHE793  MET794  SER795  GLU796  ALA797  LYS798  CYS799  TRP800  GLU811  SER814 

> <Gold.Protein.RotatedAtoms>
  152.2608  134.8036  160.0430 H   0  0  0  0  0  0  0  0  0  0  0  0  # atno 6907 bound_to 6896
  151.8683  133.3465  159.3734 H   0  0  0  0  0  0  0  0  0  0  0  0  # atno 6908 bound_to 6896
  150.7116  134.5066  159.5631 H   0  0  0  0  0  0  0  0  0  0  0  0  # atno 6909 bound_to 6896
  144.9147  139.5247  143.5692 H   0  0  0  0  0  0  0  0  0  0  0  0  # atno 7974 bound_to 7965
  155.9350  140.1098  157.1102 H   0  0  0  0  0  0  0  0  0  0  0  0  # atno 8008 bound_to 7997
  154.4078  140.1230  156.4918 H   0  0  0  0  0  0  0  0  0  0  0  0  # atno 8009 bound_to 7997
  155.7033  140.3471  155.4944 H   0  0  0  0  0  0  0  0  0  0  0  0  # atno 8010 bound_to 7997
  140.3488  144.2376  150.6147 H   0  0  0  0  0  0  0  0  0  0  0  0  # atno 10167 bound_to 10162
  157.6790  130.9935  150.1999 H   0  0  0  0  0  0  0  0  0  0  0  0  # atno 10718 bound_to 10713
  154.7796  135.3170  154.8018 H   0  0  0  0  0  0  0  0  0  0  0  0  # atno 10763 bound_to 10752
  153.8733  135.6842  153.4777 H   0  0  0  0  0  0  0  0  0  0  0  0  # atno 10764 bound_to 10752
  153.1429  135.4731  154.9459 H   0  0  0  0  0  0  0  0  0  0  0  0  # atno 10765 bound_to 10752
  141.1426  133.6666  156.5839 H   0  0  0  0  0  0  0  0  0  0  0  0  # atno 11005 bound_to 11000
  146.3176  139.7980  142.8971 LP  0  0  0  0  0  0  0  0  0  0  0  0  # atno 17320 bound_to 7965
  145.3396  141.0285  143.3400 LP  0  0  0  0  0  0  0  0  0  0  0  0  # atno 17321 bound_to 7965
  140.5238  143.2259  151.8346 LP  0  0  0  0  0  0  0  0  0  0  0  0  # atno 17342 bound_to 10162
  139.4829  144.4804  151.9314 LP  0  0  0  0  0  0  0  0  0  0  0  0  # atno 17343 bound_to 10162
  156.2692  130.3720  149.8049 LP  0  0  0  0  0  0  0  0  0  0  0  0  # atno 17370 bound_to 10713
  156.5771  130.8450  151.3373 LP  0  0  0  0  0  0  0  0  0  0  0  0  # atno 17371 bound_to 10713
  140.3816  134.7518  157.4664 LP  0  0  0  0  0  0  0  0  0  0  0  0  # atno 17394 bound_to 11000
  140.0633  134.5964  155.8723 LP  0  0  0  0  0  0  0  0  0  0  0  0  # atno 17395 bound_to 11000

$$$$
