AV-unprocessed.smi:2931|AV-procd|sdf|11249|dock6
  -GOLD-   2272016143D 1   1.00000     0.00000
 Structure written by MMmdl.
 43 44  0  0  0  0  0  0  0  0  3 V2000
  145.8828  130.1649  151.6902 C   0  0  0  0  0  0  0  0  0  0  0  0
  145.3308  131.5178  151.9168 N   0  3  2  0  0  0  0  0  0  0  0  0
  144.4990  131.9871  150.7804 C   0  0  0  0  0  0  0  0  0  0  0  0
  143.8398  133.3391  151.1011 C   0  0  0  0  0  0  0  0  0  0  0  0
  144.8902  134.3878  151.4924 C   0  0  0  0  0  0  0  0  0  0  0  0
  145.7578  133.8625  152.6502 C   0  0  2  0  0  0  0  0  0  0  0  0
  146.8102  134.8198  152.9786 N   0  0  0  0  0  0  0  0  0  0  0  0
  146.8489  135.5666  154.0911 C   0  0  0  0  0  0  0  0  0  0  0  0
  145.9989  135.5202  154.9805 O   0  0  0  0  0  0  0  0  0  0  0  0
  147.9270  136.3635  154.1213 N   0  0  0  0  0  0  0  0  0  0  0  0
  148.2536  137.3036  155.1917 C   0  0  0  0  0  0  0  0  0  0  0  0
  149.6328  137.9644  155.0009 C   0  0  0  0  0  0  0  0  0  0  0  0
  149.5966  139.4832  155.0306 C   0  0  0  0  0  0  0  0  0  0  0  0
  148.6176  140.1881  154.2960 C   0  0  0  0  0  0  0  0  0  0  0  0
  148.5928  141.5963  154.3569 C   0  0  0  0  0  0  0  0  0  0  0  0
  149.5030  142.2534  155.1085 N   0  3  0  0  0  0  0  0  0  0  0  0
  150.4586  141.6183  155.8218 C   0  0  0  0  0  0  0  0  0  0  0  0
  150.5309  140.2105  155.8017 C   0  0  0  0  0  0  0  0  0  0  0  0
  146.3801  132.5023  152.2825 C   0  0  0  0  0  0  0  0  0  0  0  0
  146.5669  130.1586  150.8408 H   0  0  0  0  0  0  0  0  0  0  0  0
  145.0831  129.4504  151.4921 H   0  0  0  0  0  0  0  0  0  0  0  0
  146.4264  129.8189  152.5700 H   0  0  0  0  0  0  0  0  0  0  0  0
  145.1170  132.0724  149.8851 H   0  0  0  0  0  0  0  0  0  0  0  0
  143.7262  131.2487  150.5636 H   0  0  0  0  0  0  0  0  0  0  0  0
  143.2676  133.6887  150.2412 H   0  0  0  0  0  0  0  0  0  0  0  0
  143.1268  133.2143  151.9170 H   0  0  0  0  0  0  0  0  0  0  0  0
  145.5176  134.6165  150.6296 H   0  0  0  0  0  0  0  0  0  0  0  0
  144.3974  135.3190  151.7754 H   0  0  0  0  0  0  0  0  0  0  0  0
  145.1229  133.7140  153.5263 H   0  0  0  0  0  0  0  0  0  0  0  0
  147.5533  134.9324  152.3042 H   0  0  0  0  0  0  0  0  0  0  0  0
  148.5647  136.3307  153.3390 H   0  0  0  0  0  0  0  0  0  0  0  0
  147.4831  138.0749  155.2059 H   0  0  0  0  0  0  0  0  0  0  0  0
  148.2027  136.8112  156.1644 H   0  0  0  0  0  0  0  0  0  0  0  0
  150.3200  137.6056  155.7682 H   0  0  0  0  0  0  0  0  0  0  0  0
  150.0573  137.6494  154.0468 H   0  0  0  0  0  0  0  0  0  0  0  0
  147.8878  139.6571  153.7022 H   0  0  0  0  0  0  0  0  0  0  0  0
  147.8763  142.2115  153.8325 H   0  0  0  0  0  0  0  0  0  0  0  0
  151.1306  142.2506  156.3835 H   0  0  0  0  0  0  0  0  0  0  0  0
  151.2905  139.6985  156.3743 H   0  0  0  0  0  0  0  0  0  0  0  0
  146.9522  132.1212  153.1297 H   0  0  0  0  0  0  0  0  0  0  0  0
  147.0788  132.6141  151.4513 H   0  0  0  0  0  0  0  0  0  0  0  0
  144.7133  131.4450  152.7129 H   0  0  0  0  0  0  0  0  0  0  0  0
  149.4675  143.2729  155.1375 H   0  0  0  0  0  0  0  0  0  0  0  0
  1  2  1  0  0  0  0
  1 20  1  0  0  0  0
  1 21  1  0  0  0  0
  1 22  1  0  0  0  0
  2 19  1  0  0  0  0
  2  3  1  0  0  0  0
  2 42  1  0  0  0  0
  3  4  1  0  0  0  0
  3 23  1  0  0  0  0
  3 24  1  0  0  0  0
  4  5  1  0  0  0  0
  4 25  1  0  0  0  0
  4 26  1  0  0  0  0
  5  6  1  0  0  0  0
  5 27  1  0  0  0  0
  5 28  1  0  0  0  0
  6  7  1  0  0  0  0
  6 19  1  0  0  0  0
  6 29  1  0  0  0  0
  7  8  1  0  0  0  0
  7 30  1  0  0  0  0
  8  9  2  0  0  0  0
  8 10  1  0  0  0  0
 10 11  1  0  0  0  0
 10 31  1  0  0  0  0
 11 12  1  0  0  0  0
 11 32  1  0  0  0  0
 11 33  1  0  0  0  0
 12 13  1  0  0  0  0
 12 34  1  0  0  0  0
 12 35  1  0  0  0  0
 13 18  1  0  0  0  0
 13 14  2  0  0  0  0
 14 15  1  0  0  0  0
 14 36  1  0  0  0  0
 15 16  2  0  0  0  0
 15 37  1  0  0  0  0
 16 17  1  0  0  0  0
 16 43  1  0  0  0  0
 17 18  2  0  0  0  0
 17 38  1  0  0  0  0
 18 39  1  0  0  0  0
 19 40  1  0  0  0  0
 19 41  1  0  0  0  0
M  CHG  1   2   1
M  CHG  1  16   1
M  END
> <s_m_source_file>
AV-unprocessed.smi

> <i_m_source_file_index>
2931

> <i_lp_mmshare_version>
43012

> <i_f3d_flags>
0

> <s_epik_input>
W0NIM11OMVtDSDJdW0NIMl1bQ0gyXVtDQEhdKFtDSDJdMSlbTkhdQyg9TylbTkhdW0NIMl1bQ0gyXWMyW2NIXVtjSF1uW2NIXVtjSF0y

> <s_epik_cmdline>
J2VwaWtfcHl0aG9uJywgJy1waCcsICc3LjAnLCAnLXRuJywgJzgnLCAnLW1hJywgJzIwMCcsICctbWV0YWxfYmluZGluZycsICctaW1hZScsICc8aW5maWxlLm1hZT4nLCAnLW9tYWUnLCAnPG91dGZpbGUubWFlPic=

> <r_epik_Ionization_Penalty>
1.43754

> <r_epik_Ionization_Penalty_Charging>
1.4375

> <r_epik_Ionization_Penalty_Neutral>
3.7629e-05

> <r_epik_State_Penalty>
1.52008

> <r_epik_Charging_Adjusted_Penalty>
2.95758

> <i_epik_Tot_Q>
2

> <i_epik_Tot_abs_Q>
2

> <r_epik_Metal_State_Penalty>
1.57105

> <b_epik_Metal_Only>
0

> <s_lp_Force_Field>
OPLS_2005

> <r_lp_Energy>
22.8727

> <b_lp_Chiralities_Consistent>
1

> <s_lp_Variant>
AV-unprocessed.smi:2931-8

> <Gold.Version>
5.8.1

> <Gold.Id.Protein>
6NUR|6NUR_protein|mol2

> <Gold.PLP.Fitness>
41.7093

> <Gold.PLP.PLP>
-31.5304

> <Gold.PLP.part.hbond>
-2.8541

> <Gold.PLP.part.metal>
0.0000

> <Gold.PLP.part.buried>
-4.1975

> <Gold.PLP.part.nonpolar>
-24.5381

> <Gold.PLP.part.repulsive>
0.2755

> <Gold.PLP.ligand.clash>
0.0000

> <Gold.PLP.ligand.torsion>
0.6344

> <Gold.PLP.Chemscore.Hbond>
3.8073

> <Gold.PLP.Chemscore.CHOScore>
0.0000

> <Gold.PLP.Chemscore.Metal>
0.0000

> <Gold.Chemscore.Hbonds>
donor molecule, donor type, donor heavy atom, donor atom, acceptor molecule, acceptor atom, score
      L1  H     7    30       P1  7948  0.80
      L1  H    10    31       P1  7948  0.99
      L1  H    16    43       P1  8028  2.00

> <Gold.PLP.Chemscore.Internal.Correction>
0.0258

> <Gold.Rescore>
     Score         DG    S(hbond)    S(metal)    S(lipo)     H(rot)  DE(clash)    DE(int)     intcor
     18.86     -19.49       2.78        0.00      76.48       1.65       0.00       0.63       ----

> <Gold.Chemscore.Fitness>
18.8576

> <Gold.Chemscore.DG>
-19.4874

> <Gold.Chemscore.ZeroCoef>
-5.4800

> <Gold.Chemscore.Hbond>
2.7767

> <Gold.Chemscore.Metal>
0.0000

> <Gold.Chemscore.Lipo>
76.4796

> <Gold.Chemscore.Internal_Hbond>
0.0000

> <Gold.Chemscore.DEClash>
0.0000

> <Gold.Chemscore.DEInternal>
0.6299

> <Gold.Chemscore.Rot>
1.6464

> <Gold.Chemscore.Internal.Correction>
   9.000000E+99

> <Gold.Chemscore.Hbonds>
donor molecule, donor type, donor heavy atom, donor atom, acceptor molecule, acceptor atom, score
      L1  H     7    30       P1  7948  0.75
      L1  H    10    31       P1  7948  0.91
      L1  H    16    43       P1  8028  0.98

> <Gold.Chemscore.Hbond.Weighted>
-9.2741

> <Gold.Chemscore.Metal.Weighted>
-0.0000

> <Gold.Chemscore.Lipo.Weighted>
-8.9481

> <Gold.Chemscore.Internal_Hbond.Weighted>
0.0000

> <Gold.Chemscore.DEClash.Weighted>
0.0000

> <Gold.Chemscore.DEInternal.Weighted>
0.6299

> <Gold.Chemscore.Rot.Weighted>
4.2148

> <Gold.Chemscore.Internal.Correction.Weighted>
   9.000000E+99

> <Gold.Protein.RotatedTorsions>
[ 6907 6896 6895 6894 ] final    2.48 input  -60.11 | X-H torsion
[ 7974 7965 7964 7962 ] final -124.06 input  175.53 | X-H torsion
[ 8008 7997 7996 7995 ] final  -40.31 input   59.86 | X-H torsion
[ 10167 10162 10161 10158 ] final   95.86 input  -65.29 | X-H torsion
[ 10718 10713 10712 10709 ] final  118.11 input   66.30 | X-H torsion
[ 10763 10752 10751 10750 ] final -156.13 input  -60.55 | X-H torsion
[ 11005 11000 10999 10996 ] final  -37.52 input  -57.11 | X-H torsion

> <Gold.Protein.ActiveResidues>
 VAL166  LYS551  ARG553  GLY616  TRP617  ASP618  TYR619  PRO620  LYS621  CYS622 
 ASP623  PHE694  ASN695  SER759  ASP760  ASP761  ALA762  ILE779  LEU786  VAL792 
 PHE793  MET794  SER795  GLU796  ALA797  LYS798  CYS799  TRP800  GLU811  SER814 

> <Gold.Protein.RotatedAtoms>
  151.6096  135.1041  160.0078 H   0  0  0  0  0  0  0  0  0  0  0  0  # atno 6907 bound_to 6896
  152.4215  133.7120  159.6495 H   0  0  0  0  0  0  0  0  0  0  0  0  # atno 6908 bound_to 6896
  150.8103  133.8361  159.3207 H   0  0  0  0  0  0  0  0  0  0  0  0  # atno 6909 bound_to 6896
  145.0121  140.7915  143.4432 H   0  0  0  0  0  0  0  0  0  0  0  0  # atno 7974 bound_to 7965
  154.4013  140.1529  156.3006 H   0  0  0  0  0  0  0  0  0  0  0  0  # atno 8008 bound_to 7997
  155.8704  140.3449  155.5795 H   0  0  0  0  0  0  0  0  0  0  0  0  # atno 8009 bound_to 7997
  155.7781  140.0839  157.2064 H   0  0  0  0  0  0  0  0  0  0  0  0  # atno 8010 bound_to 7997
  139.7948  144.6837  150.9843 H   0  0  0  0  0  0  0  0  0  0  0  0  # atno 10167 bound_to 10162
  157.6052  131.1044  150.7710 H   0  0  0  0  0  0  0  0  0  0  0  0  # atno 10718 bound_to 10713
  154.7735  135.3152  154.8139 H   0  0  0  0  0  0  0  0  0  0  0  0  # atno 10763 bound_to 10752
  153.8869  135.6829  153.4767 H   0  0  0  0  0  0  0  0  0  0  0  0  # atno 10764 bound_to 10752
  153.1354  135.4762  154.9349 H   0  0  0  0  0  0  0  0  0  0  0  0  # atno 10765 bound_to 10752
  140.9958  133.6981  156.1932 H   0  0  0  0  0  0  0  0  0  0  0  0  # atno 11005 bound_to 11000
  145.2009  139.2252  143.5193 LP  0  0  0  0  0  0  0  0  0  0  0  0  # atno 17320 bound_to 7965
  146.3471  140.1826  142.8589 LP  0  0  0  0  0  0  0  0  0  0  0  0  # atno 17321 bound_to 7965
  140.7820  143.4342  151.0648 LP  0  0  0  0  0  0  0  0  0  0  0  0  # atno 17342 bound_to 10162
  139.8017  143.8074  152.3163 LP  0  0  0  0  0  0  0  0  0  0  0  0  # atno 17343 bound_to 10162
  156.8100  130.4949  149.5357 LP  0  0  0  0  0  0  0  0  0  0  0  0  # atno 17370 bound_to 10713
  156.1136  130.6058  151.0086 LP  0  0  0  0  0  0  0  0  0  0  0  0  # atno 17371 bound_to 10713
  140.6968  134.4607  157.5587 LP  0  0  0  0  0  0  0  0  0  0  0  0  # atno 17394 bound_to 11000
  139.9014  134.8547  156.1881 LP  0  0  0  0  0  0  0  0  0  0  0  0  # atno 17395 bound_to 11000

$$$$
