AV-unprocessed.smi:1227|AV-procd|sdf|5146|dock4
  -GOLD-   22720 4213D 1   1.00000     0.00000
 Structure written by MMmdl.
 44 45  0  0  0  0  0  0  0  0  1 V2000
  143.9632  146.0369  157.8420 C   0  0  0  0  0  0  0  0  0  0  0  0
  145.0020  145.0882  158.0592 O   0  0  0  0  0  0  0  0  0  0  0  0
  145.0522  144.4303  159.2735 C   0  0  0  0  0  0  0  0  0  0  0  0
  144.1013  144.7138  160.1987 N   0  0  0  0  0  0  0  0  0  0  0  0
  144.1492  144.0768  161.3862 C   0  0  0  0  0  0  0  0  0  0  0  0
  145.1406  143.1347  161.7141 C   0  0  0  0  0  0  0  0  0  0  0  0
  146.1287  142.8388  160.7570 C   0  0  0  0  0  0  0  0  0  0  0  0
  146.0877  143.4926  159.5004 C   0  0  0  0  0  0  0  0  0  0  0  0
  147.0364  143.2887  158.4582 N   0  0  0  0  0  0  0  0  0  0  0  0
  147.6227  142.1526  158.0431 C   0  0  0  0  0  0  0  0  0  0  0  0
  147.4255  141.0305  158.5084 O   0  0  0  0  0  0  0  0  0  0  0  0
  148.4633  142.3906  157.0267 N   0  0  0  0  0  0  0  0  0  0  0  0
  149.2671  141.3801  156.3501 C   0  0  0  0  0  0  0  0  0  0  0  0
  150.7660  141.7344  156.3731 C   0  0  0  0  0  0  0  0  0  0  0  0
  151.3299  141.5729  157.7214 N   0  0  0  0  0  0  0  0  0  0  0  0
  150.9505  142.6054  158.6982 C   0  0  0  0  0  0  0  0  0  0  0  0
  152.1528  143.4447  159.1731 C   0  0  0  0  0  0  0  0  0  0  0  0
  152.9863  142.7757  160.2763 C   0  0  0  0  0  0  0  0  0  0  0  0
  153.6673  141.4675  159.8496 C   0  0  0  0  0  0  0  0  0  0  0  0
  152.6700  140.3690  159.4459 C   0  0  0  0  0  0  0  0  0  0  0  0
  152.1547  140.5380  158.0110 C   0  0  0  0  0  0  0  0  0  0  0  0
  152.5002  139.7085  157.1684 O   0  0  0  0  0  0  0  0  0  0  0  0
  144.0679  146.4639  156.8446 H   0  0  0  0  0  0  0  0  0  0  0  0
  144.0164  146.8571  158.5593 H   0  0  0  0  0  0  0  0  0  0  0  0
  142.9781  145.5721  157.9010 H   0  0  0  0  0  0  0  0  0  0  0  0
  143.3770  144.3294  162.0978 H   0  0  0  0  0  0  0  0  0  0  0  0
  145.1460  142.6524  162.6804 H   0  0  0  0  0  0  0  0  0  0  0  0
  146.8960  142.1277  161.0168 H   0  0  0  0  0  0  0  0  0  0  0  0
  147.2757  144.1191  157.9364 H   0  0  0  0  0  0  0  0  0  0  0  0
  148.5605  143.3415  156.7015 H   0  0  0  0  0  0  0  0  0  0  0  0
  149.0957  140.4286  156.8542 H   0  0  0  0  0  0  0  0  0  0  0  0
  148.9198  141.2531  155.3234 H   0  0  0  0  0  0  0  0  0  0  0  0
  151.3091  141.1223  155.6524 H   0  0  0  0  0  0  0  0  0  0  0  0
  150.9091  142.7592  156.0256 H   0  0  0  0  0  0  0  0  0  0  0  0
  150.2258  143.2906  158.2578 H   0  0  0  0  0  0  0  0  0  0  0  0
  150.4341  142.1517  159.5451 H   0  0  0  0  0  0  0  0  0  0  0  0
  152.7871  143.7095  158.3260 H   0  0  0  0  0  0  0  0  0  0  0  0
  151.7762  144.3888  159.5679 H   0  0  0  0  0  0  0  0  0  0  0  0
  153.7529  143.4763  160.6090 H   0  0  0  0  0  0  0  0  0  0  0  0
  152.3554  142.5902  161.1465 H   0  0  0  0  0  0  0  0  0  0  0  0
  154.3694  141.6614  159.0371 H   0  0  0  0  0  0  0  0  0  0  0  0
  154.2705  141.1035  160.6819 H   0  0  0  0  0  0  0  0  0  0  0  0
  153.1710  139.4020  159.5093 H   0  0  0  0  0  0  0  0  0  0  0  0
  151.8361  140.3153  160.1466 H   0  0  0  0  0  0  0  0  0  0  0  0
  1  2  1  0  0  0  0
  1 23  1  0  0  0  0
  1 24  1  0  0  0  0
  1 25  1  0  0  0  0
  2  3  1  0  0  0  0
  3  8  1  0  0  0  0
  3  4  2  0  0  0  0
  4  5  1  0  0  0  0
  5  6  2  0  0  0  0
  5 26  1  0  0  0  0
  6  7  1  0  0  0  0
  6 27  1  0  0  0  0
  7  8  2  0  0  0  0
  7 28  1  0  0  0  0
  8  9  1  0  0  0  0
  9 10  1  0  0  0  0
  9 29  1  0  0  0  0
 10 11  2  0  0  0  0
 10 12  1  0  0  0  0
 12 13  1  0  0  0  0
 12 30  1  0  0  0  0
 13 14  1  0  0  0  0
 13 31  1  0  0  0  0
 13 32  1  0  0  0  0
 14 15  1  0  0  0  0
 14 33  1  0  0  0  0
 14 34  1  0  0  0  0
 15 21  1  0  0  0  0
 15 16  1  0  0  0  0
 16 17  1  0  0  0  0
 16 35  1  0  0  0  0
 16 36  1  0  0  0  0
 17 18  1  0  0  0  0
 17 37  1  0  0  0  0
 17 38  1  0  0  0  0
 18 19  1  0  0  0  0
 18 39  1  0  0  0  0
 18 40  1  0  0  0  0
 19 20  1  0  0  0  0
 19 41  1  0  0  0  0
 19 42  1  0  0  0  0
 20 21  1  0  0  0  0
 20 43  1  0  0  0  0
 20 44  1  0  0  0  0
 21 22  2  0  0  0  0
M  END
> <s_m_source_file>
AV-unprocessed.smi

> <i_m_source_file_index>
1227

> <i_lp_mmshare_version>
43012

> <i_f3d_flags>
0

> <s_epik_input>
W0NIM11PYzFuW2NIXVtjSF1bY0hdYzFbTkhdQyg9TylbTkhdW0NIMl1bQ0gyXU4yW0NIMl1bQ0gyXVtDSDJdW0NIMl1bQ0gyXUMyPU8=

> <s_epik_cmdline>
J2VwaWtfcHl0aG9uJywgJy1waCcsICc3LjAnLCAnLXRuJywgJzgnLCAnLW1hJywgJzIwMCcsICctbWV0YWxfYmluZGluZycsICctaW1hZScsICc8aW5maWxlLm1hZT4nLCAnLW9tYWUnLCAnPG91dGZpbGUubWFlPic=

> <r_lp_tautomer_probability>
1

> <r_epik_Ionization_Penalty>
8.86757e-05

> <r_epik_Ionization_Penalty_Charging>
0

> <r_epik_Ionization_Penalty_Neutral>
8.86757e-05

> <r_epik_State_Penalty>
-0

> <r_epik_Charging_Adjusted_Penalty>
0

> <i_epik_Tot_Q>
0

> <i_epik_Tot_abs_Q>
0

> <r_epik_Metal_State_Penalty>
-0

> <b_epik_Metal_Only>
0

> <s_lp_Force_Field>
OPLS_2005

> <r_lp_Energy>
20.5681

> <b_lp_Chiralities_Consistent>
1

> <s_lp_Variant>
AV-unprocessed.smi:1227-1

> <Gold.Version>
5.8.1

> <Gold.Id.Protein>
6NUR|6NUR_protein|mol2

> <Gold.PLP.Fitness>
47.0267

> <Gold.PLP.PLP>
-38.5974

> <Gold.PLP.part.hbond>
-4.0000

> <Gold.PLP.part.metal>
0.0000

> <Gold.PLP.part.buried>
-4.2853

> <Gold.PLP.part.nonpolar>
-31.3100

> <Gold.PLP.part.repulsive>
0.3612

> <Gold.PLP.ligand.clash>
0.0000

> <Gold.PLP.ligand.torsion>
0.4998

> <Gold.PLP.Chemscore.Hbond>
3.1352

> <Gold.PLP.Chemscore.CHOScore>
0.0000

> <Gold.PLP.Chemscore.Metal>
0.0000

> <Gold.Chemscore.Hbonds>
donor molecule, donor type, donor heavy atom, donor atom, acceptor molecule, acceptor atom, score
      L1  H     9    29       P1  8029  0.90
      L1  H    12    30       P1  8028  1.00
      P1  H  6934  6946       L1    11  0.06
      P1  H  7997  8008       L1    22  1.00

> <Gold.PLP.Chemscore.Internal.Correction>
0.0232

> <Gold.Rescore>
     Score         DG    S(hbond)    S(metal)    S(lipo)     H(rot)  DE(clash)    DE(int)     intcor
     16.63     -17.28       1.87        0.00      86.47       1.79       0.02       0.63       ----

> <Gold.Chemscore.Fitness>
16.6293

> <Gold.Chemscore.DG>
-17.2756

> <Gold.Chemscore.ZeroCoef>
-5.4800

> <Gold.Chemscore.Hbond>
1.8737

> <Gold.Chemscore.Metal>
0.0000

> <Gold.Chemscore.Lipo>
86.4739

> <Gold.Chemscore.Internal_Hbond>
0.0000

> <Gold.Chemscore.DEClash>
0.0157

> <Gold.Chemscore.DEInternal>
0.6306

> <Gold.Chemscore.Rot>
1.7890

> <Gold.Chemscore.Internal.Correction>
   9.000000E+99

> <Gold.Chemscore.Hbonds>
donor molecule, donor type, donor heavy atom, donor atom, acceptor molecule, acceptor atom, score
      L1  H     9    29       P1  8029  0.17
      L1  H    12    30       P1  8028  0.55
      P1  H  6934  6946       L1    11  0.07
      P1  H  7997  8008       L1    22  0.68

> <Gold.Chemscore.Hbond.Weighted>
-6.2580

> <Gold.Chemscore.Metal.Weighted>
-0.0000

> <Gold.Chemscore.Lipo.Weighted>
-10.1174

> <Gold.Chemscore.Internal_Hbond.Weighted>
0.0000

> <Gold.Chemscore.DEClash.Weighted>
0.0157

> <Gold.Chemscore.DEInternal.Weighted>
0.6306

> <Gold.Chemscore.Rot.Weighted>
4.5799

> <Gold.Chemscore.Internal.Correction.Weighted>
   9.000000E+99

> <Gold.Protein.RotatedTorsions>
[ 6907 6896 6895 6894 ] final  109.68 input  -60.11 | X-H torsion
[ 7974 7965 7964 7962 ] final  -17.92 input  175.53 | X-H torsion
[ 8008 7997 7996 7995 ] final  -57.26 input   59.86 | X-H torsion
[ 10167 10162 10161 10158 ] final  -86.37 input  -65.29 | X-H torsion
[ 10718 10713 10712 10709 ] final  -54.29 input   66.30 | X-H torsion
[ 10763 10752 10751 10750 ] final   75.06 input  -60.55 | X-H torsion
[ 11005 11000 10999 10996 ] final -176.42 input  -57.11 | X-H torsion

> <Gold.Protein.ActiveResidues>
 VAL166  LYS551  ARG553  GLY616  TRP617  ASP618  TYR619  PRO620  LYS621  CYS622 
 ASP623  PHE694  ASN695  SER759  ASP760  ASP761  ALA762  ILE779  LEU786  VAL792 
 PHE793  MET794  SER795  GLU796  ALA797  LYS798  CYS799  TRP800  GLU811  SER814 

> <Gold.Protein.RotatedAtoms>
  152.5056  133.8909  159.7393 H   0  0  0  0  0  0  0  0  0  0  0  0  # atno 6907 bound_to 6896
  150.9348  133.6716  159.2810 H   0  0  0  0  0  0  0  0  0  0  0  0  # atno 6908 bound_to 6896
  151.4047  135.0981  159.9619 H   0  0  0  0  0  0  0  0  0  0  0  0  # atno 6909 bound_to 6896
  146.1917  140.3848  142.8455 H   0  0  0  0  0  0  0  0  0  0  0  0  # atno 7974 bound_to 7965
  154.4261  140.1111  156.5769 H   0  0  0  0  0  0  0  0  0  0  0  0  # atno 8008 bound_to 7997
  155.6154  140.3494  155.4616 H   0  0  0  0  0  0  0  0  0  0  0  0  # atno 8009 bound_to 7997
  156.0067  140.1210  157.0484 H   0  0  0  0  0  0  0  0  0  0  0  0  # atno 8010 bound_to 7997
  140.3948  143.2688  151.9218 H   0  0  0  0  0  0  0  0  0  0  0  0  # atno 10167 bound_to 10162
  156.1463  130.4152  150.0018 H   0  0  0  0  0  0  0  0  0  0  0  0  # atno 10718 bound_to 10713
  153.0629  135.5002  154.8134 H   0  0  0  0  0  0  0  0  0  0  0  0  # atno 10763 bound_to 10752
  154.6910  135.2984  154.9482 H   0  0  0  0  0  0  0  0  0  0  0  0  # atno 10764 bound_to 10752
  154.0236  135.6739  153.4827 H   0  0  0  0  0  0  0  0  0  0  0  0  # atno 10765 bound_to 10752
  140.4523  134.6332  157.4806 H   0  0  0  0  0  0  0  0  0  0  0  0  # atno 11005 bound_to 11000
  144.8500  140.6987  143.6174 LP  0  0  0  0  0  0  0  0  0  0  0  0  # atno 17320 bound_to 7965
  145.3771  139.1645  143.4301 LP  0  0  0  0  0  0  0  0  0  0  0  0  # atno 17321 bound_to 7965
  139.4787  144.5692  151.8116 LP  0  0  0  0  0  0  0  0  0  0  0  0  # atno 17342 bound_to 10162
  140.4802  144.1461  150.5931 LP  0  0  0  0  0  0  0  0  0  0  0  0  # atno 17343 bound_to 10162
  156.7889  130.9249  151.3646 LP  0  0  0  0  0  0  0  0  0  0  0  0  # atno 17370 bound_to 10713
  157.6619  130.8974  149.9849 LP  0  0  0  0  0  0  0  0  0  0  0  0  # atno 17371 bound_to 10713
  139.9999  134.6853  155.9548 LP  0  0  0  0  0  0  0  0  0  0  0  0  # atno 17394 bound_to 11000
  141.1659  133.6537  156.4477 LP  0  0  0  0  0  0  0  0  0  0  0  0  # atno 17395 bound_to 11000

$$$$
