AV-unprocessed.smi:870|AV-procd|sdf|4008|dock2
  -GOLD-   22720 1493D 1   1.00000     0.00000
 Structure written by MMmdl.
 46 48  0  0  0  0  0  0  0  0  1 V2000
  151.5136  139.4614  157.8974 C   0  0  0  0  0  0  0  0  0  0  0  0
  152.3634  139.6848  156.7873 O   0  0  0  0  0  0  0  0  0  0  0  0
  152.0246  138.8722  155.6761 C   0  0  0  0  0  0  0  0  0  0  0  0
  150.6901  139.3318  155.1715 C   0  0  0  0  0  0  0  0  0  0  0  0
  150.5351  140.5119  154.5701 N   0  0  0  0  0  0  0  0  0  0  0  0
  149.1815  140.5385  154.2970 C   0  0  0  0  0  0  0  0  0  0  0  0
  148.3911  141.5281  153.6697 C   0  0  0  0  0  0  0  0  0  0  0  0
  147.0041  141.3345  153.5034 C   0  0  0  0  0  0  0  0  0  0  0  0
  146.3887  140.1517  153.9618 C   0  0  0  0  0  0  0  0  0  0  0  0
  147.1578  139.1530  154.5893 C   0  0  0  0  0  0  0  0  0  0  0  0
  148.5425  139.3499  154.7506 C   0  0  0  0  0  0  0  0  0  0  0  0
  149.5636  138.5854  155.3065 N   0  0  0  0  0  0  0  0  0  0  0  0
  149.4169  137.2665  155.9101 C   0  0  0  0  0  0  0  0  0  0  0  0
  149.2704  136.1411  154.8623 C   0  0  1  0  0  0  0  0  0  0  0  0
  150.4690  135.9174  154.1471 O   0  0  0  0  0  0  0  0  0  0  0  0
  148.7857  134.8086  155.4555 C   0  0  0  0  0  0  0  0  0  0  0  0
  148.1743  134.0302  154.4346 O   0  0  0  0  0  0  0  0  0  0  0  0
  148.4320  132.6764  154.3883 C   0  0  0  0  0  0  0  0  0  0  0  0
  149.4327  132.0378  155.1639 C   0  0  0  0  0  0  0  0  0  0  0  0
  149.6379  130.6487  155.0622 C   0  0  0  0  0  0  0  0  0  0  0  0
  148.8486  129.8808  154.1876 C   0  0  0  0  0  0  0  0  0  0  0  0
  147.8526  130.5038  153.4139 C   0  0  0  0  0  0  0  0  0  0  0  0
  147.6432  131.8953  153.5118 C   0  0  0  0  0  0  0  0  0  0  0  0
  146.5611  132.5519  152.6751 C   0  0  0  0  0  0  0  0  0  0  0  0
  151.8223  140.0950  158.7286 H   0  0  0  0  0  0  0  0  0  0  0  0
  151.5637  138.4235  158.2289 H   0  0  0  0  0  0  0  0  0  0  0  0
  150.4777  139.7017  157.6550 H   0  0  0  0  0  0  0  0  0  0  0  0
  152.7658  138.9540  154.8797 H   0  0  0  0  0  0  0  0  0  0  0  0
  151.9674  137.8238  155.9743 H   0  0  0  0  0  0  0  0  0  0  0  0
  148.8532  142.4379  153.3164 H   0  0  0  0  0  0  0  0  0  0  0  0
  146.4094  142.0973  153.0224 H   0  0  0  0  0  0  0  0  0  0  0  0
  145.3256  140.0117  153.8312 H   0  0  0  0  0  0  0  0  0  0  0  0
  146.6891  138.2467  154.9417 H   0  0  0  0  0  0  0  0  0  0  0  0
  150.2658  137.0736  156.5641 H   0  0  0  0  0  0  0  0  0  0  0  0
  148.5398  137.2850  156.5576 H   0  0  0  0  0  0  0  0  0  0  0  0
  148.5391  136.4552  154.1172 H   0  0  0  0  0  0  0  0  0  0  0  0
  150.2563  135.8140  153.2319 H   0  0  0  0  0  0  0  0  0  0  0  0
  149.6458  134.2683  155.8540 H   0  0  0  0  0  0  0  0  0  0  0  0
  148.0930  134.9887  156.2796 H   0  0  0  0  0  0  0  0  0  0  0  0
  150.0589  132.5917  155.8464 H   0  0  0  0  0  0  0  0  0  0  0  0
  150.4026  130.1718  155.6573 H   0  0  0  0  0  0  0  0  0  0  0  0
  149.0069  128.8152  154.1103 H   0  0  0  0  0  0  0  0  0  0  0  0
  147.2491  129.9077  152.7452 H   0  0  0  0  0  0  0  0  0  0  0  0
  146.1154  131.8470  151.9732 H   0  0  0  0  0  0  0  0  0  0  0  0
  146.9721  133.3841  152.1028 H   0  0  0  0  0  0  0  0  0  0  0  0
  145.7707  132.9356  153.3202 H   0  0  0  0  0  0  0  0  0  0  0  0
  1  2  1  0  0  0  0
  1 25  1  0  0  0  0
  1 26  1  0  0  0  0
  1 27  1  0  0  0  0
  2  3  1  0  0  0  0
  3  4  1  0  0  0  0
  3 28  1  0  0  0  0
  3 29  1  0  0  0  0
  4 12  1  0  0  0  0
  4  5  2  0  0  0  0
  5  6  1  0  0  0  0
  6 11  2  0  0  0  0
  6  7  1  0  0  0  0
  7  8  2  0  0  0  0
  7 30  1  0  0  0  0
  8  9  1  0  0  0  0
  8 31  1  0  0  0  0
  9 10  2  0  0  0  0
  9 32  1  0  0  0  0
 10 11  1  0  0  0  0
 10 33  1  0  0  0  0
 11 12  1  0  0  0  0
 12 13  1  0  0  0  0
 13 14  1  0  0  0  0
 13 34  1  0  0  0  0
 13 35  1  0  0  0  0
 14 15  1  0  0  0  0
 14 16  1  0  0  0  0
 14 36  1  0  0  0  0
 15 37  1  0  0  0  0
 16 17  1  0  0  0  0
 16 38  1  0  0  0  0
 16 39  1  0  0  0  0
 17 18  1  0  0  0  0
 18 23  1  0  0  0  0
 18 19  2  0  0  0  0
 19 20  1  0  0  0  0
 19 40  1  0  0  0  0
 20 21  2  0  0  0  0
 20 41  1  0  0  0  0
 21 22  1  0  0  0  0
 21 42  1  0  0  0  0
 22 23  2  0  0  0  0
 22 43  1  0  0  0  0
 23 24  1  0  0  0  0
 24 44  1  0  0  0  0
 24 45  1  0  0  0  0
 24 46  1  0  0  0  0
M  END
> <s_m_source_file>
AV-unprocessed.smi

> <i_m_source_file_index>
870

> <i_lp_mmshare_version>
43012

> <i_f3d_flags>
0

> <s_epik_input>
W2NIXTFbY0hdW2NIXVtjSF1jKGMxMiluKGMobjIpW0NIMl1PW0NIM10pW0NIMl1bQ0BIXShbT0hdKVtDSDJdT2MzW2NIXVtjSF1bY0hdW2NIXWMzW0NIM10=

> <s_epik_cmdline>
J2VwaWtfcHl0aG9uJywgJy1waCcsICc3LjAnLCAnLXRuJywgJzgnLCAnLW1hJywgJzIwMCcsICctbWV0YWxfYmluZGluZycsICctaW1hZScsICc8aW5maWxlLm1hZT4nLCAnLW9tYWUnLCAnPG91dGZpbGUubWFlPic=

> <r_lp_tautomer_probability>
1

> <r_epik_Ionization_Penalty>
0.0447032

> <r_epik_Ionization_Penalty_Charging>
0

> <r_epik_Ionization_Penalty_Neutral>
0.0447032

> <r_epik_State_Penalty>
0.0379025

> <r_epik_Charging_Adjusted_Penalty>
0.0379025

> <i_epik_Tot_Q>
0

> <i_epik_Tot_abs_Q>
0

> <r_epik_Metal_State_Penalty>
3.91398e-05

> <b_epik_Metal_Only>
0

> <s_lp_Force_Field>
OPLS_2005

> <r_lp_Energy>
16.5078

> <b_lp_Chiralities_Consistent>
1

> <s_lp_Variant>
AV-unprocessed.smi:870-2

> <Gold.Version>
5.8.1

> <Gold.Id.Protein>
6NUR|6NUR_protein|mol2

> <Gold.PLP.Fitness>
49.4058

> <Gold.PLP.PLP>
-40.4627

> <Gold.PLP.part.hbond>
-4.6996

> <Gold.PLP.part.metal>
0.0000

> <Gold.PLP.part.buried>
-2.2238

> <Gold.PLP.part.nonpolar>
-34.0673

> <Gold.PLP.part.repulsive>
0.2021

> <Gold.PLP.ligand.clash>
0.0000

> <Gold.PLP.ligand.torsion>
0.9858

> <Gold.PLP.Chemscore.Hbond>
3.5500

> <Gold.PLP.Chemscore.CHOScore>
0.0000

> <Gold.PLP.Chemscore.Metal>
0.0000

> <Gold.Chemscore.Hbonds>
donor molecule, donor type, donor heavy atom, donor atom, acceptor molecule, acceptor atom, score
      P1  H  7989  7998       L1     5  1.00
      P1  H  7997  8008       L1     2  0.96

> <Gold.PLP.Chemscore.Internal.Correction>
0.2648

> <Gold.Rescore>
     Score         DG    S(hbond)    S(metal)    S(lipo)     H(rot)  DE(clash)    DE(int)     intcor
     16.73     -18.91       2.57        0.00      92.94       2.36       0.84       1.35       ----

> <Gold.Chemscore.Fitness>
16.7271

> <Gold.Chemscore.DG>
-18.9099

> <Gold.Chemscore.ZeroCoef>
-5.4800

> <Gold.Chemscore.Hbond>
2.5731

> <Gold.Chemscore.Metal>
0.0000

> <Gold.Chemscore.Lipo>
92.9368

> <Gold.Chemscore.Internal_Hbond>
0.0000

> <Gold.Chemscore.DEClash>
0.8355

> <Gold.Chemscore.DEInternal>
1.3473

> <Gold.Chemscore.Rot>
2.3585

> <Gold.Chemscore.Internal.Correction>
   9.000000E+99

> <Gold.Chemscore.Hbonds>
donor molecule, donor type, donor heavy atom, donor atom, acceptor molecule, acceptor atom, score
      P1  H  7989  7998       L1     5  0.85
      P1  H  7997  8008       L1     2  0.50
      P1  H 10752 10764       L1    15  0.01

> <Gold.Chemscore.Hbond.Weighted>
-8.5941

> <Gold.Chemscore.Metal.Weighted>
-0.0000

> <Gold.Chemscore.Lipo.Weighted>
-10.8736

> <Gold.Chemscore.Internal_Hbond.Weighted>
0.0000

> <Gold.Chemscore.DEClash.Weighted>
0.8355

> <Gold.Chemscore.DEInternal.Weighted>
1.3473

> <Gold.Chemscore.Rot.Weighted>
6.0378

> <Gold.Chemscore.Internal.Correction.Weighted>
   9.000000E+99

> <Gold.Protein.RotatedTorsions>
[ 6907 6896 6895 6894 ] final -140.48 input  -60.11 | X-H torsion
[ 7974 7965 7964 7962 ] final  -74.15 input  175.53 | X-H torsion
[ 8008 7997 7996 7995 ] final  -57.59 input   59.86 | X-H torsion
[ 10167 10162 10161 10158 ] final   26.28 input  -65.29 | X-H torsion
[ 10718 10713 10712 10709 ] final  156.22 input   66.30 | X-H torsion
[ 10763 10752 10751 10750 ] final  -63.13 input  -60.55 | X-H torsion
[ 11005 11000 10999 10996 ] final  -75.62 input  -57.11 | X-H torsion

> <Gold.Protein.ActiveResidues>
 VAL166  LYS551  ARG553  GLY616  TRP617  ASP618  TYR619  PRO620  LYS621  CYS622 
 ASP623  PHE694  ASN695  SER759  ASP760  ASP761  ALA762  ILE779  LEU786  VAL792 
 PHE793  MET794  SER795  GLU796  ALA797  LYS798  CYS799  TRP800  GLU811  SER814 

> <Gold.Protein.RotatedAtoms>
  151.0613  133.5542  159.2633 H   0  0  0  0  0  0  0  0  0  0  0  0  # atno 6907 bound_to 6896
  151.2516  135.0623  159.9074 H   0  0  0  0  0  0  0  0  0  0  0  0  # atno 6908 bound_to 6896
  152.5398  134.0372  159.8105 H   0  0  0  0  0  0  0  0  0  0  0  0  # atno 6909 bound_to 6896
  145.6429  140.9305  143.1026 H   0  0  0  0  0  0  0  0  0  0  0  0  # atno 7974 bound_to 7965
  154.4274  140.1103  156.5822 H   0  0  0  0  0  0  0  0  0  0  0  0  # atno 8008 bound_to 7997
  155.6100  140.3494  155.4600 H   0  0  0  0  0  0  0  0  0  0  0  0  # atno 8009 bound_to 7997
  156.0107  140.1218  157.0446 H   0  0  0  0  0  0  0  0  0  0  0  0  # atno 8010 bound_to 7997
  140.5036  144.0276  150.6342 H   0  0  0  0  0  0  0  0  0  0  0  0  # atno 10167 bound_to 10162
  157.2078  131.0691  151.1987 H   0  0  0  0  0  0  0  0  0  0  0  0  # atno 10718 bound_to 10713
  154.3103  135.6217  153.5463 H   0  0  0  0  0  0  0  0  0  0  0  0  # atno 10763 bound_to 10752
  152.9830  135.5699  154.5184 H   0  0  0  0  0  0  0  0  0  0  0  0  # atno 10764 bound_to 10752
  154.4833  135.2864  155.1530 H   0  0  0  0  0  0  0  0  0  0  0  0  # atno 10765 bound_to 10752
  141.1647  133.6953  156.7545 H   0  0  0  0  0  0  0  0  0  0  0  0  # atno 11005 bound_to 11000
  144.7151  139.8228  143.7401 LP  0  0  0  0  0  0  0  0  0  0  0  0  # atno 17320 bound_to 7965
  146.1266  139.4293  143.0195 LP  0  0  0  0  0  0  0  0  0  0  0  0  # atno 17321 bound_to 7965
  140.3578  143.2925  152.0416 LP  0  0  0  0  0  0  0  0  0  0  0  0  # atno 17342 bound_to 10162
  139.4878  144.6325  151.7041 LP  0  0  0  0  0  0  0  0  0  0  0  0  # atno 17343 bound_to 10162
  157.3702  130.7177  149.6560 LP  0  0  0  0  0  0  0  0  0  0  0  0  # atno 17370 bound_to 10713
  155.9693  130.4201  150.4406 LP  0  0  0  0  0  0  0  0  0  0  0  0  # atno 17371 bound_to 10713
  140.2579  134.8489  157.3731 LP  0  0  0  0  0  0  0  0  0  0  0  0  # atno 17394 bound_to 11000
  140.1639  134.4694  155.7876 LP  0  0  0  0  0  0  0  0  0  0  0  0  # atno 17395 bound_to 11000

$$$$
