AV-unprocessed.smi:229|AV-procd|sdf|1759|dock3
  -GOLD-   2262020283D 1   1.00000     0.00000
 Structure written by MMmdl.
 58 62  0  0  0  0  0  0  0  0  1 V2000
  152.2489  144.2861  160.1160 C   0  0  0  0  0  0  0  0  0  0  0  0
  152.9882  143.1554  160.8440 C   0  0  0  0  0  0  0  0  0  0  0  0
  153.5026  142.0503  159.9069 C   0  0  2  0  0  0  0  0  0  0  0  0
  152.4707  141.6378  158.8416 C   0  0  0  0  0  0  0  0  0  0  0  0
  152.9811  140.5169  158.0626 N   0  0  0  0  0  0  0  0  0  0  0  0
  152.3252  140.2785  156.8987 C   0  0  0  0  0  0  0  0  0  0  0  0
  152.9150  139.5318  155.9263 N   0  0  0  0  0  0  0  0  0  0  0  0
  152.2727  139.2840  154.7809 C   0  0  0  0  0  0  0  0  0  0  0  0
  151.0558  139.6806  154.4037 N   0  0  0  0  0  0  0  0  0  0  0  0
  150.4626  140.4372  155.3706 C   0  0  0  0  0  0  0  0  0  0  0  0
  151.0203  140.7828  156.6340 C   0  0  0  0  0  0  0  0  0  0  0  0
  150.1261  141.5778  157.3427 N   0  0  0  0  0  0  0  0  0  0  0  0
  149.0959  141.6862  156.5488 C   0  0  0  0  0  0  0  0  0  0  0  0
  149.2142  141.0314  155.3443 N   0  0  0  0  0  0  0  0  0  0  0  0
  148.2312  140.9858  154.2765 C   0  0  0  0  0  0  0  0  0  0  0  0
  146.8196  140.6405  154.7899 C   0  0  2  0  0  0  0  0  0  0  0  0
  146.1171  139.9341  153.7845 O   0  0  0  0  0  0  0  0  0  0  0  0
  146.0350  141.9001  155.2109 C   0  0  1  0  0  0  0  0  0  0  0  0
  145.6045  142.8637  154.1001 C   0  0  0  0  0  0  0  0  0  0  0  0
  144.4505  143.5777  154.7672 C   0  0  0  0  0  0  0  0  0  0  0  0
  143.7937  142.4442  155.5530 C   0  0  0  0  0  0  0  0  0  0  0  0
  144.8466  141.5539  155.9159 O   0  0  0  0  0  0  0  0  0  0  0  0
  153.3596  139.3736  158.8878 C   0  0  0  0  0  0  0  0  0  0  0  0
  154.3503  139.7955  159.9961 C   0  0  2  0  0  0  0  0  0  0  0  0
  155.7631  140.0883  159.4779 C   0  0  0  0  0  0  0  0  0  0  0  0
  156.5552  138.8460  159.8599 C   0  0  0  0  0  0  0  0  0  0  0  0
  155.9957  138.5100  161.1154 O   0  0  0  0  0  0  0  0  0  0  0  0
  154.5867  138.6447  160.9935 C   0  0  0  0  0  0  0  0  0  0  0  0
  153.8147  140.9128  160.7130 O   0  0  0  0  0  0  0  0  0  0  0  0
  151.9619  145.0719  160.8147 H   0  0  0  0  0  0  0  0  0  0  0  0
  151.3388  143.9276  159.6353 H   0  0  0  0  0  0  0  0  0  0  0  0
  152.8788  144.7382  159.3493 H   0  0  0  0  0  0  0  0  0  0  0  0
  153.8364  143.5874  161.3762 H   0  0  0  0  0  0  0  0  0  0  0  0
  152.3403  142.7232  161.6075 H   0  0  0  0  0  0  0  0  0  0  0  0
  154.4091  142.4079  159.4168 H   0  0  0  0  0  0  0  0  0  0  0  0
  151.5360  141.3396  159.3187 H   0  0  0  0  0  0  0  0  0  0  0  0
  152.2402  142.4883  158.2025 H   0  0  0  0  0  0  0  0  0  0  0  0
  152.8114  138.6818  154.0643 H   0  0  0  0  0  0  0  0  0  0  0  0
  148.2180  142.2552  156.8185 H   0  0  0  0  0  0  0  0  0  0  0  0
  148.2256  141.9567  153.7793 H   0  0  0  0  0  0  0  0  0  0  0  0
  148.5584  140.2575  153.5333 H   0  0  0  0  0  0  0  0  0  0  0  0
  146.9165  139.9851  155.6564 H   0  0  0  0  0  0  0  0  0  0  0  0
  145.2058  140.1803  153.8310 H   0  0  0  0  0  0  0  0  0  0  0  0
  146.6390  142.4601  155.9268 H   0  0  0  0  0  0  0  0  0  0  0  0
  146.4024  143.5382  153.7886 H   0  0  0  0  0  0  0  0  0  0  0  0
  145.2431  142.3326  153.2192 H   0  0  0  0  0  0  0  0  0  0  0  0
  144.8263  144.3410  155.4500 H   0  0  0  0  0  0  0  0  0  0  0  0
  143.7727  144.0558  154.0595 H   0  0  0  0  0  0  0  0  0  0  0  0
  143.2543  142.8029  156.4298 H   0  0  0  0  0  0  0  0  0  0  0  0
  143.0889  141.9034  154.9200 H   0  0  0  0  0  0  0  0  0  0  0  0
  152.4587  138.9545  159.3388 H   0  0  0  0  0  0  0  0  0  0  0  0
  153.8047  138.5921  158.2698 H   0  0  0  0  0  0  0  0  0  0  0  0
  155.8034  140.3022  158.4094 H   0  0  0  0  0  0  0  0  0  0  0  0
  156.1877  140.9448  160.0036 H   0  0  0  0  0  0  0  0  0  0  0  0
  156.3874  138.0359  159.1482 H   0  0  0  0  0  0  0  0  0  0  0  0
  157.6269  139.0322  159.9307 H   0  0  0  0  0  0  0  0  0  0  0  0
  154.1299  138.8261  161.9669 H   0  0  0  0  0  0  0  0  0  0  0  0
  154.1856  137.7036  160.6135 H   0  0  0  0  0  0  0  0  0  0  0  0
  1  2  1  0  0  0  0
  1 30  1  0  0  0  0
  1 31  1  0  0  0  0
  1 32  1  0  0  0  0
  2  3  1  0  0  0  0
  2 33  1  0  0  0  0
  2 34  1  0  0  0  0
  3 29  1  0  0  0  0
  3  4  1  0  0  0  0
  3 35  1  0  0  0  0
  4  5  1  0  0  0  0
  4 36  1  0  0  0  0
  4 37  1  0  0  0  0
  5  6  1  0  0  0  0
  5 23  1  0  0  0  0
  6 11  1  0  0  0  0
  6  7  2  0  0  0  0
  7  8  1  0  0  0  0
  8  9  2  0  0  0  0
  8 38  1  0  0  0  0
  9 10  1  0  0  0  0
 10 14  1  0  0  0  0
 10 11  2  0  0  0  0
 11 12  1  0  0  0  0
 12 13  2  0  0  0  0
 13 14  1  0  0  0  0
 13 39  1  0  0  0  0
 14 15  1  0  0  0  0
 15 16  1  0  0  0  0
 15 40  1  0  0  0  0
 15 41  1  0  0  0  0
 16 17  1  0  0  0  0
 16 18  1  0  0  0  0
 16 42  1  0  0  0  0
 17 43  1  0  0  0  0
 18 22  1  0  0  0  0
 18 19  1  0  0  0  0
 18 44  1  0  0  0  0
 19 20  1  0  0  0  0
 19 45  1  0  0  0  0
 19 46  1  0  0  0  0
 20 21  1  0  0  0  0
 20 47  1  0  0  0  0
 20 48  1  0  0  0  0
 21 22  1  0  0  0  0
 21 49  1  0  0  0  0
 21 50  1  0  0  0  0
 23 24  1  0  0  0  0
 23 51  1  0  0  0  0
 23 52  1  0  0  0  0
 24 28  1  0  0  0  0
 24 25  1  0  0  0  0
 24 29  1  0  0  0  0
 25 26  1  0  0  0  0
 25 53  1  0  0  0  0
 25 54  1  0  0  0  0
 26 27  1  0  0  0  0
 26 55  1  0  0  0  0
 26 56  1  0  0  0  0
 27 28  1  0  0  0  0
 28 57  1  0  0  0  0
 28 58  1  0  0  0  0
M  END
> <s_m_source_file>
AV-unprocessed.smi

> <i_m_source_file_index>
229

> <i_lp_mmshare_version>
43012

> <i_f3d_flags>
0

> <s_epik_input>
W0NIMl0xT1tDSDJdW0NIMl1bQ0BdMTJbQ0gyXU4oW0NIMl1bQ0BIXShPMilbQ0gyXVtDSDNdKWMobltjSF1uMyljKGMzNCluW2NIXW40W0NIMl1bQ0BIXShbT0hdKVtDQEBIXTVbQ0gyXVtDSDJdW0NIMl1PNQ==

> <s_epik_cmdline>
J2VwaWtfcHl0aG9uJywgJy1waCcsICc3LjAnLCAnLXRuJywgJzgnLCAnLW1hJywgJzIwMCcsICctbWV0YWxfYmluZGluZycsICctaW1hZScsICc8aW5maWxlLm1hZT4nLCAnLW9tYWUnLCAnPG91dGZpbGUubWFlPic=

> <r_lp_tautomer_probability>
1

> <r_epik_Ionization_Penalty>
0.00318402

> <r_epik_Ionization_Penalty_Charging>
0

> <r_epik_Ionization_Penalty_Neutral>
0.00318402

> <r_epik_State_Penalty>
0.00215642

> <r_epik_Charging_Adjusted_Penalty>
0.00215642

> <i_epik_Tot_Q>
0

> <i_epik_Tot_abs_Q>
0

> <r_epik_Metal_State_Penalty>
-0

> <b_epik_Metal_Only>
0

> <s_lp_Force_Field>
OPLS_2005

> <r_lp_Energy>
55.431

> <b_lp_Chiralities_Consistent>
1

> <s_lp_Variant>
AV-unprocessed.smi:229-13

> <Gold.Version>
5.8.1

> <Gold.Id.Protein>
6NUR|6NUR_protein|mol2

> <Gold.PLP.Fitness>
59.3608

> <Gold.PLP.PLP>
-50.9279

> <Gold.PLP.part.hbond>
-3.7348

> <Gold.PLP.part.metal>
0.0000

> <Gold.PLP.part.buried>
-5.3347

> <Gold.PLP.part.nonpolar>
-42.6817

> <Gold.PLP.part.repulsive>
0.2998

> <Gold.PLP.ligand.clash>
0.0000

> <Gold.PLP.ligand.torsion>
0.9592

> <Gold.PLP.Chemscore.Hbond>
2.8160

> <Gold.PLP.Chemscore.CHOScore>
0.5002

> <Gold.PLP.Chemscore.Metal>
0.0000

> <Gold.Chemscore.Hbonds>
donor molecule, donor type, donor heavy atom, donor atom, acceptor molecule, acceptor atom, score
      L1  H    17    43       P1 10175  0.67
      P1  H  7989  7998       L1     9  0.62
      P1  H  7997  8010       L1     7  0.90
      L1  C    13    39       P1  8028  0.14

> <Gold.PLP.Chemscore.Internal.Correction>
0.4025

> <Gold.Rescore>
     Score         DG    S(hbond)    S(metal)    S(lipo)     H(rot)  DE(clash)    DE(int)     intcor
     14.05     -16.60       1.62        0.00     102.54       2.46       0.12       2.43       ----

> <Gold.Chemscore.Fitness>
14.0467

> <Gold.Chemscore.DG>
-16.5953

> <Gold.Chemscore.ZeroCoef>
-5.4800

> <Gold.Chemscore.Hbond>
1.6209

> <Gold.Chemscore.Metal>
0.0000

> <Gold.Chemscore.Lipo>
102.5358

> <Gold.Chemscore.Internal_Hbond>
0.0000

> <Gold.Chemscore.DEClash>
0.1212

> <Gold.Chemscore.DEInternal>
2.4274

> <Gold.Chemscore.Rot>
2.4591

> <Gold.Chemscore.Internal.Correction>
   9.000000E+99

> <Gold.Chemscore.Hbonds>
donor molecule, donor type, donor heavy atom, donor atom, acceptor molecule, acceptor atom, score
      L1  H    17    43       P1 10175  0.64
      P1  H  7989  7998       L1     9  0.01
      P1  H  7997  8010       L1     7  0.18

> <Gold.Chemscore.Hbond.Weighted>
-5.4139

> <Gold.Chemscore.Metal.Weighted>
-0.0000

> <Gold.Chemscore.Lipo.Weighted>
-11.9967

> <Gold.Chemscore.Internal_Hbond.Weighted>
0.0000

> <Gold.Chemscore.DEClash.Weighted>
0.1212

> <Gold.Chemscore.DEInternal.Weighted>
2.4274

> <Gold.Chemscore.Rot.Weighted>
6.2953

> <Gold.Chemscore.Internal.Correction.Weighted>
   9.000000E+99

> <Gold.Protein.RotatedTorsions>
[ 6907 6896 6895 6894 ] final -109.65 input  -60.11 | X-H torsion
[ 7974 7965 7964 7962 ] final -176.13 input  175.53 | X-H torsion
[ 8008 7997 7996 7995 ] final   97.93 input   59.86 | X-H torsion
[ 10167 10162 10161 10158 ] final   49.84 input  -65.29 | X-H torsion
[ 10718 10713 10712 10709 ] final  160.38 input   66.30 | X-H torsion
[ 10763 10752 10751 10750 ] final  -63.25 input  -60.55 | X-H torsion
[ 11005 11000 10999 10996 ] final  163.69 input  -57.11 | X-H torsion

> <Gold.Protein.ActiveResidues>
 VAL166  LYS551  ARG553  GLY616  TRP617  ASP618  TYR619  PRO620  LYS621  CYS622 
 ASP623  PHE694  ASN695  SER759  ASP760  ASP761  ALA762  ILE779  LEU786  VAL792 
 PHE793  MET794  SER795  GLU796  ALA797  LYS798  CYS799  TRP800  GLU811  SER814 

> <Gold.Protein.RotatedAtoms>
  150.7575  133.9498  159.3481 H   0  0  0  0  0  0  0  0  0  0  0  0  # atno 6907 bound_to 6896
  151.7414  135.0851  160.0325 H   0  0  0  0  0  0  0  0  0  0  0  0  # atno 6908 bound_to 6896
  152.3526  133.6160  159.5991 H   0  0  0  0  0  0  0  0  0  0  0  0  # atno 6909 bound_to 6896
  144.7127  140.1217  143.6405 H   0  0  0  0  0  0  0  0  0  0  0  0  # atno 7974 bound_to 7965
  156.0952  140.3251  155.7869 H   0  0  0  0  0  0  0  0  0  0  0  0  # atno 8008 bound_to 7997
  155.4929  140.0563  157.2968 H   0  0  0  0  0  0  0  0  0  0  0  0  # atno 8009 bound_to 7997
  154.4662  140.1990  156.0127 H   0  0  0  0  0  0  0  0  0  0  0  0  # atno 8010 bound_to 7997
  140.2787  144.3181  150.6270 H   0  0  0  0  0  0  0  0  0  0  0  0  # atno 10167 bound_to 10162
  157.1512  131.0564  151.2279 H   0  0  0  0  0  0  0  0  0  0  0  0  # atno 10718 bound_to 10713
  154.3122  135.6213  153.5470 H   0  0  0  0  0  0  0  0  0  0  0  0  # atno 10763 bound_to 10752
  152.9828  135.5704  154.5164 H   0  0  0  0  0  0  0  0  0  0  0  0  # atno 10764 bound_to 10752
  154.4816  135.2863  155.1542 H   0  0  0  0  0  0  0  0  0  0  0  0  # atno 10765 bound_to 10752
  140.2383  134.8071  157.3386 H   0  0  0  0  0  0  0  0  0  0  0  0  # atno 11005 bound_to 11000
  145.9365  139.2640  143.1294 LP  0  0  0  0  0  0  0  0  0  0  0  0  # atno 17320 bound_to 7965
  145.9468  140.8938  143.0279 LP  0  0  0  0  0  0  0  0  0  0  0  0  # atno 17321 bound_to 7965
  140.5829  143.2171  151.7394 LP  0  0  0  0  0  0  0  0  0  0  0  0  # atno 17342 bound_to 10162
  139.4968  144.4053  152.0138 LP  0  0  0  0  0  0  0  0  0  0  0  0  # atno 17343 bound_to 10162
  157.4219  130.7442  149.6920 LP  0  0  0  0  0  0  0  0  0  0  0  0  # atno 17370 bound_to 10713
  155.9770  130.4068  150.3740 LP  0  0  0  0  0  0  0  0  0  0  0  0  # atno 17371 bound_to 10713
  140.1679  134.4645  155.7851 LP  0  0  0  0  0  0  0  0  0  0  0  0  # atno 17394 bound_to 11000
  141.2212  133.6929  156.7657 LP  0  0  0  0  0  0  0  0  0  0  0  0  # atno 17395 bound_to 11000

$$$$
