AV-unprocessed.smi:158|AV-procd|sdf|1329|dock7
  -GOLD-   2262019 23D 1   1.00000     0.00000
 Structure written by MMmdl.
 31 33  0  0  0  0  0  0  0  0  1 V2000
  153.8513  138.6620  160.5025 N   0  0  0  0  0  0  0  0  0  0  0  0
  153.1142  139.6043  159.8976 C   0  0  0  0  0  0  0  0  0  0  0  0
  153.3829  140.9031  160.1670 N   0  0  0  0  0  0  0  0  0  0  0  0
  152.6716  141.8756  159.5833 C   0  0  0  0  0  0  0  0  0  0  0  0
  153.1001  143.4936  159.9974 Cl  0  0  0  0  0  0  0  0  0  0  0  0
  151.6664  141.7342  158.7132 N   0  0  0  0  0  0  0  0  0  0  0  0
  151.3920  140.4256  158.4382 C   0  0  0  0  0  0  0  0  0  0  0  0
  152.0688  139.3051  158.9900 C   0  0  0  0  0  0  0  0  0  0  0  0
  151.5256  138.1295  158.4895 N   0  0  0  0  0  0  0  0  0  0  0  0
  150.5801  138.5382  157.6859 C   0  0  0  0  0  0  0  0  0  0  0  0
  150.4307  139.9048  157.5947 N   0  0  0  0  0  0  0  0  0  0  0  0
  149.4441  140.6609  156.7623 C   0  0  2  0  0  0  0  0  0  0  0  0
  148.4060  139.8061  156.3811 O   0  0  0  0  0  0  0  0  0  0  0  0
  148.1696  139.9124  154.9760 C   0  0  1  0  0  0  0  0  0  0  0  0
  146.6574  139.8565  154.7100 C   0  0  0  0  0  0  0  0  0  0  0  0
  146.3894  139.9901  153.3304 O   0  0  0  0  0  0  0  0  0  0  0  0
  148.8463  141.2306  154.5812 C   0  0  2  0  0  0  0  0  0  0  0  0
  149.2012  141.3071  153.2147 O   0  0  0  0  0  0  0  0  0  0  0  0
  150.0663  141.2252  155.4808 C   0  0  2  0  0  0  0  0  0  0  0  0
  151.0023  140.3894  155.0200 F   0  0  0  0  0  0  0  0  0  0  0  0
  149.0493  141.4358  157.4207 H   0  0  0  0  0  0  0  0  0  0  0  0
  148.6726  139.0702  154.4968 H   0  0  0  0  0  0  0  0  0  0  0  0
  148.2051  142.0757  154.8363 H   0  0  0  0  0  0  0  0  0  0  0  0
  150.5168  142.2043  155.6445 H   0  0  0  0  0  0  0  0  0  0  0  0
  153.6699  137.6860  160.3169 H   0  0  0  0  0  0  0  0  0  0  0  0
  154.5869  138.9292  161.1403 H   0  0  0  0  0  0  0  0  0  0  0  0
  149.9602  137.8480  157.1326 H   0  0  0  0  0  0  0  0  0  0  0  0
  146.2566  138.8990  155.0434 H   0  0  0  0  0  0  0  0  0  0  0  0
  146.1322  140.6355  155.2635 H   0  0  0  0  0  0  0  0  0  0  0  0
  145.4646  139.8553  153.1898 H   0  0  0  0  0  0  0  0  0  0  0  0
  149.1889  140.4333  152.8537 H   0  0  0  0  0  0  0  0  0  0  0  0
  1  2  1  0  0  0  0
  1 25  1  0  0  0  0
  1 26  1  0  0  0  0
  2  8  1  0  0  0  0
  2  3  2  0  0  0  0
  3  4  1  0  0  0  0
  4  5  1  0  0  0  0
  4  6  2  0  0  0  0
  6  7  1  0  0  0  0
  7 11  1  0  0  0  0
  7  8  2  0  0  0  0
  8  9  1  0  0  0  0
  9 10  2  0  0  0  0
 10 11  1  0  0  0  0
 10 27  1  0  0  0  0
 11 12  1  0  0  0  0
 12 21  1  0  0  0  0
 12 19  1  0  0  0  0
 12 13  1  0  0  0  0
 13 14  1  0  0  0  0
 14 22  1  0  0  0  0
 14 15  1  0  0  0  0
 14 17  1  0  0  0  0
 15 16  1  0  0  0  0
 15 28  1  0  0  0  0
 15 29  1  0  0  0  0
 16 30  1  0  0  0  0
 17 23  1  0  0  0  0
 17 18  1  0  0  0  0
 17 19  1  0  0  0  0
 18 31  1  0  0  0  0
 19 24  1  0  0  0  0
 19 20  1  0  0  0  0
M  END
> <s_m_source_file>
AV-unprocessed.smi

> <i_m_source_file_index>
158

> <i_lp_mmshare_version>
43012

> <i_f3d_flags>
0

> <s_epik_input>
Q2xjKG4xKW5jKFtOSDJdKWMoYzEyKW5bY0hdbjJbQ0BASF0zT1tDQEhdKFtDSDJdW09IXSlbQ0BASF0oW09IXSlbQ0BASF0zRg==

> <s_epik_cmdline>
J2VwaWtfcHl0aG9uJywgJy1waCcsICc3LjAnLCAnLXRuJywgJzgnLCAnLW1hJywgJzIwMCcsICctbWV0YWxfYmluZGluZycsICctaW1hZScsICc8aW5maWxlLm1hZT4nLCAnLW9tYWUnLCAnPG91dGZpbGUubWFlPic=

> <r_lp_tautomer_probability>
1

> <r_epik_Ionization_Penalty>
6.51543e-05

> <r_epik_Ionization_Penalty_Charging>
0

> <r_epik_Ionization_Penalty_Neutral>
6.51543e-05

> <r_epik_State_Penalty>
-0

> <r_epik_Charging_Adjusted_Penalty>
0

> <i_epik_Tot_Q>
0

> <i_epik_Tot_abs_Q>
0

> <r_epik_Metal_State_Penalty>
-0

> <b_epik_Metal_Only>
0

> <s_epik_Chemistry_Notes>
This compound contains an acetal/aminal-like group ( X-CH(R)-Y where X, Y are N, S, or O) that may be acid/base labile, releasing an aldehyde.

> <s_lp_Force_Field>
OPLS_2005

> <r_lp_Energy>
35.9636

> <b_lp_Chiralities_Consistent>
1

> <s_lp_Variant>
AV-unprocessed.smi:158-7

> <Gold.Version>
5.8.1

> <Gold.Id.Protein>
6NUR|6NUR_protein|mol2

> <Gold.PLP.Fitness>
34.0978

> <Gold.PLP.PLP>
-27.6648

> <Gold.PLP.part.hbond>
-3.5298

> <Gold.PLP.part.metal>
0.0000

> <Gold.PLP.part.buried>
-1.6575

> <Gold.PLP.part.nonpolar>
-21.1365

> <Gold.PLP.part.repulsive>
0.0324

> <Gold.PLP.ligand.clash>
0.0000

> <Gold.PLP.ligand.torsion>
0.5057

> <Gold.PLP.Chemscore.Hbond>
2.4800

> <Gold.PLP.Chemscore.CHOScore>
0.0000

> <Gold.PLP.Chemscore.Metal>
0.0000

> <Gold.Chemscore.Hbonds>
donor molecule, donor type, donor heavy atom, donor atom, acceptor molecule, acceptor atom, score
      L1  H    16    30       P1 10175  1.00
      L1  H    18    31       P1  7957  0.48
      P1  H  8011  8017       L1    18  1.00

> <Gold.PLP.Chemscore.Internal.Correction>
0.0044

> <Gold.Rescore>
     Score         DG    S(hbond)    S(metal)    S(lipo)     H(rot)  DE(clash)    DE(int)     intcor
      8.56      -9.65       2.25        0.00      39.78       3.12       0.70       0.39       ----

> <Gold.Chemscore.Fitness>
8.5642

> <Gold.Chemscore.DG>
-9.6492

> <Gold.Chemscore.ZeroCoef>
-5.4800

> <Gold.Chemscore.Hbond>
2.2484

> <Gold.Chemscore.Metal>
0.0000

> <Gold.Chemscore.Lipo>
39.7810

> <Gold.Chemscore.Internal_Hbond>
0.0000

> <Gold.Chemscore.DEClash>
0.6986

> <Gold.Chemscore.DEInternal>
0.3865

> <Gold.Chemscore.Rot>
3.1230

> <Gold.Chemscore.Internal.Correction>
   9.000000E+99

> <Gold.Chemscore.Hbonds>
donor molecule, donor type, donor heavy atom, donor atom, acceptor molecule, acceptor atom, score
      L1  H    16    30       P1 10175  0.90
      L1  H    18    31       P1  7957  0.48
      P1  H  8011  8017       L1    18  0.86

> <Gold.Chemscore.Hbond.Weighted>
-7.5098

> <Gold.Chemscore.Metal.Weighted>
-0.0000

> <Gold.Chemscore.Lipo.Weighted>
-4.6544

> <Gold.Chemscore.Internal_Hbond.Weighted>
0.0000

> <Gold.Chemscore.DEClash.Weighted>
0.6986

> <Gold.Chemscore.DEInternal.Weighted>
0.3865

> <Gold.Chemscore.Rot.Weighted>
7.9950

> <Gold.Chemscore.Internal.Correction.Weighted>
   9.000000E+99

> <Gold.Protein.RotatedTorsions>
[ 6907 6896 6895 6894 ] final  157.38 input  -60.11 | X-H torsion
[ 7974 7965 7964 7962 ] final   37.15 input  175.53 | X-H torsion
[ 8008 7997 7996 7995 ] final   99.88 input   59.86 | X-H torsion
[ 10167 10162 10161 10158 ] final  168.03 input  -65.29 | X-H torsion
[ 10718 10713 10712 10709 ] final  -45.93 input   66.30 | X-H torsion
[ 10763 10752 10751 10750 ] final    5.69 input  -60.55 | X-H torsion
[ 11005 11000 10999 10996 ] final  -29.01 input  -57.11 | X-H torsion

> <Gold.Protein.ActiveResidues>
 VAL166  LYS551  ARG553  GLY616  TRP617  ASP618  TYR619  PRO620  LYS621  CYS622 
 ASP623  PHE694  ASN695  SER759  ASP760  ASP761  ALA762  ILE779  LEU786  VAL792 
 PHE793  MET794  SER795  GLU796  ALA797  LYS798  CYS799  TRP800  GLU811  SER814 

> <Gold.Protein.RotatedAtoms>
  152.0159  133.3879  159.4238 H   0  0  0  0  0  0  0  0  0  0  0  0  # atno 6907 bound_to 6896
  150.6895  134.3679  159.4988 H   0  0  0  0  0  0  0  0  0  0  0  0  # atno 6908 bound_to 6896
  152.1446  134.9035  160.0602 H   0  0  0  0  0  0  0  0  0  0  0  0  # atno 6909 bound_to 6896
  146.1159  139.5929  142.9322 H   0  0  0  0  0  0  0  0  0  0  0  0  # atno 7974 bound_to 7965
  156.1149  140.3222  155.8125 H   0  0  0  0  0  0  0  0  0  0  0  0  # atno 8008 bound_to 7997
  155.4608  140.0539  157.3008 H   0  0  0  0  0  0  0  0  0  0  0  0  # atno 8009 bound_to 7997
  154.4786  140.2043  155.9833 H   0  0  0  0  0  0  0  0  0  0  0  0  # atno 8010 bound_to 7997
  139.4958  144.3858  151.9572 H   0  0  0  0  0  0  0  0  0  0  0  0  # atno 10167 bound_to 10162
  156.2234  130.4167  149.8964 H   0  0  0  0  0  0  0  0  0  0  0  0  # atno 10718 bound_to 10713
  153.2564  135.6919  153.7624 H   0  0  0  0  0  0  0  0  0  0  0  0  # atno 10763 bound_to 10752
  153.6700  135.3346  155.3151 H   0  0  0  0  0  0  0  0  0  0  0  0  # atno 10764 bound_to 10752
  154.8414  135.4497  154.1539 H   0  0  0  0  0  0  0  0  0  0  0  0  # atno 10765 bound_to 10752
  140.9259  133.7369  156.0866 H   0  0  0  0  0  0  0  0  0  0  0  0  # atno 11005 bound_to 11000
  145.5568  141.0408  143.2248 LP  0  0  0  0  0  0  0  0  0  0  0  0  # atno 17320 bound_to 7965
  144.7552  139.7092  143.7257 LP  0  0  0  0  0  0  0  0  0  0  0  0  # atno 17321 bound_to 7965
  140.3295  144.3333  150.5990 LP  0  0  0  0  0  0  0  0  0  0  0  0  # atno 17342 bound_to 10162
  140.5657  143.2186  151.7688 LP  0  0  0  0  0  0  0  0  0  0  0  0  # atno 17343 bound_to 10162
  156.6603  130.8779  151.3546 LP  0  0  0  0  0  0  0  0  0  0  0  0  # atno 17370 bound_to 10713
  157.7098  130.9427  150.1052 LP  0  0  0  0  0  0  0  0  0  0  0  0  # atno 17371 bound_to 10713
  140.7927  134.3599  157.5460 LP  0  0  0  0  0  0  0  0  0  0  0  0  # atno 17394 bound_to 11000
  139.8785  134.9150  156.3120 LP  0  0  0  0  0  0  0  0  0  0  0  0  # atno 17395 bound_to 11000

$$$$
