AV-unprocessed.smi:2693|AV-procd|sdf|10398|dock1
  -GOLD-   2272014433D 1   1.00000     0.00000
 Structure written by MMmdl.
 45 47  0  0  0  0  0  0  0  0  1 V2000
  146.2806  128.3729  152.3594 C   0  0  0  0  0  0  0  0  0  0  0  0
  147.4544  128.7978  153.1166 N   0  0  0  0  0  0  0  0  0  0  0  0
  148.2662  127.7596  153.7448 C   0  0  0  0  0  0  0  0  0  0  0  0
  147.7885  130.1499  153.2365 C   0  0  0  0  0  0  0  0  0  0  0  0
  146.9763  131.0411  152.6527 N   0  0  0  0  0  0  0  0  0  0  0  0
  147.2935  132.3478  152.7706 C   0  0  0  0  0  0  0  0  0  0  0  0
  148.4378  132.7784  153.4714 C   0  0  0  0  0  0  0  0  0  0  0  0
  148.6999  134.1706  153.5787 N   0  0  0  0  0  0  0  0  0  0  0  0
  149.2230  134.8402  154.6194 C   0  0  0  0  0  0  0  0  0  0  0  0
  149.6670  134.3258  155.6454 O   0  0  0  0  0  0  0  0  0  0  0  0
  149.2192  136.1611  154.3992 N   0  0  0  0  0  0  0  0  0  0  0  0
  149.6919  137.1543  155.3566 C   0  0  1  0  0  0  0  0  0  0  0  0
  150.9896  137.8279  154.9101 C   0  0  2  0  0  0  0  0  0  0  0  0
  152.3883  137.8406  155.4149 C   0  0  0  0  0  0  0  0  0  0  0  0
  152.6283  139.3723  155.3379 C   0  0  0  0  0  0  0  0  0  0  0  0
  151.3310  139.9659  155.0859 O   0  0  0  0  0  0  0  0  0  0  0  0
  150.4234  139.0333  155.6354 C   0  0  1  0  0  0  0  0  0  0  0  0
  149.0261  138.5714  155.1768 C   0  0  0  0  0  0  0  0  0  0  0  0
  148.5441  139.0191  153.7818 C   0  0  0  0  0  0  0  0  0  0  0  0
  147.8855  138.8864  156.1453 C   0  0  0  0  0  0  0  0  0  0  0  0
  149.2223  131.7552  154.0554 C   0  0  0  0  0  0  0  0  0  0  0  0
  148.8926  130.4520  153.9321 N   0  0  0  0  0  0  0  0  0  0  0  0
  145.3717  128.7625  152.8189 H   0  0  0  0  0  0  0  0  0  0  0  0
  146.1944  127.2871  152.3166 H   0  0  0  0  0  0  0  0  0  0  0  0
  146.3343  128.7414  151.3345 H   0  0  0  0  0  0  0  0  0  0  0  0
  148.3561  127.9408  154.8165 H   0  0  0  0  0  0  0  0  0  0  0  0
  149.2673  127.7480  153.3128 H   0  0  0  0  0  0  0  0  0  0  0  0
  147.8333  126.7679  153.6132 H   0  0  0  0  0  0  0  0  0  0  0  0
  146.6257  133.0544  152.2999 H   0  0  0  0  0  0  0  0  0  0  0  0
  148.4659  134.7205  152.7650 H   0  0  0  0  0  0  0  0  0  0  0  0
  148.8459  136.5043  153.5265 H   0  0  0  0  0  0  0  0  0  0  0  0
  149.7259  136.7999  156.3910 H   0  0  0  0  0  0  0  0  0  0  0  0
  151.0009  137.9476  153.8243 H   0  0  0  0  0  0  0  0  0  0  0  0
  152.4568  137.4668  156.4375 H   0  0  0  0  0  0  0  0  0  0  0  0
  153.0739  137.2769  154.7817 H   0  0  0  0  0  0  0  0  0  0  0  0
  153.0444  139.7475  156.2735 H   0  0  0  0  0  0  0  0  0  0  0  0
  153.3129  139.6379  154.5320 H   0  0  0  0  0  0  0  0  0  0  0  0
  150.5319  138.9855  156.7252 H   0  0  0  0  0  0  0  0  0  0  0  0
  148.3458  140.0912  153.7622 H   0  0  0  0  0  0  0  0  0  0  0  0
  147.6183  138.5152  153.5023 H   0  0  0  0  0  0  0  0  0  0  0  0
  149.2584  138.8209  152.9849 H   0  0  0  0  0  0  0  0  0  0  0  0
  147.6698  139.9547  156.1751 H   0  0  0  0  0  0  0  0  0  0  0  0
  148.1265  138.5773  157.1627 H   0  0  0  0  0  0  0  0  0  0  0  0
  146.9664  138.3716  155.8643 H   0  0  0  0  0  0  0  0  0  0  0  0
  150.1034  131.9565  154.6442 H   0  0  0  0  0  0  0  0  0  0  0  0
  1  2  1  0  0  0  0
  1 23  1  0  0  0  0
  1 24  1  0  0  0  0
  1 25  1  0  0  0  0
  2  3  1  0  0  0  0
  2  4  1  0  0  0  0
  3 26  1  0  0  0  0
  3 27  1  0  0  0  0
  3 28  1  0  0  0  0
  4 22  1  0  0  0  0
  4  5  2  0  0  0  0
  5  6  1  0  0  0  0
  6  7  2  0  0  0  0
  6 29  1  0  0  0  0
  7  8  1  0  0  0  0
  7 21  1  0  0  0  0
  8  9  1  0  0  0  0
  8 30  1  0  0  0  0
  9 10  2  0  0  0  0
  9 11  1  0  0  0  0
 11 12  1  0  0  0  0
 11 31  1  0  0  0  0
 12 18  1  0  0  0  0
 12 13  1  0  0  0  0
 12 32  1  0  0  0  0
 13 17  1  0  0  0  0
 13 14  1  0  0  0  0
 13 33  1  0  0  0  0
 14 15  1  0  0  0  0
 14 34  1  0  0  0  0
 14 35  1  0  0  0  0
 15 16  1  0  0  0  0
 15 36  1  0  0  0  0
 15 37  1  0  0  0  0
 16 17  1  0  0  0  0
 17 18  1  0  0  0  0
 17 38  1  0  0  0  0
 18 19  1  0  0  0  0
 18 20  1  0  0  0  0
 19 39  1  0  0  0  0
 19 40  1  0  0  0  0
 19 41  1  0  0  0  0
 20 42  1  0  0  0  0
 20 43  1  0  0  0  0
 20 44  1  0  0  0  0
 21 22  2  0  0  0  0
 21 45  1  0  0  0  0
M  END
> <s_m_source_file>
AV-unprocessed.smi

> <i_m_source_file_index>
2693

> <i_lp_mmshare_version>
43012

> <i_f3d_flags>
0

> <s_epik_input>
W0NIM11OKFtDSDNdKWMxbltjSF1jKFtjSF1uMSlbTkhdQyg9TylbTkhdW0NASF0yQyhbQ0gzXSkoW0NIM10pW0NAQEhdKFtDQEhdMjMpT1tDSDJdW0NIMl0z

> <s_epik_cmdline>
J2VwaWtfcHl0aG9uJywgJy1waCcsICc3LjAnLCAnLXRuJywgJzgnLCAnLW1hJywgJzIwMCcsICctbWV0YWxfYmluZGluZycsICctaW1hZScsICc8aW5maWxlLm1hZT4nLCAnLW9tYWUnLCAnPG91dGZpbGUubWFlPic=

> <r_lp_tautomer_probability>
1

> <r_epik_Ionization_Penalty>
0.00031779

> <r_epik_Ionization_Penalty_Charging>
0

> <r_epik_Ionization_Penalty_Neutral>
0.00031779

> <r_epik_State_Penalty>
-0

> <r_epik_Charging_Adjusted_Penalty>
0

> <i_epik_Tot_Q>
0

> <i_epik_Tot_abs_Q>
0

> <r_epik_Metal_State_Penalty>
-0

> <b_epik_Metal_Only>
0

> <s_lp_Force_Field>
OPLS_2005

> <r_lp_Energy>
52.7678

> <b_lp_Chiralities_Consistent>
1

> <s_lp_Variant>
AV-unprocessed.smi:2693-2

> <Gold.Version>
5.8.1

> <Gold.Id.Protein>
6NUR|6NUR_protein|mol2

> <Gold.PLP.Fitness>
36.3189

> <Gold.PLP.PLP>
-29.1927

> <Gold.PLP.part.hbond>
-3.0000

> <Gold.PLP.part.metal>
0.0000

> <Gold.PLP.part.buried>
0.8081

> <Gold.PLP.part.nonpolar>
-26.8378

> <Gold.PLP.part.repulsive>
0.3470

> <Gold.PLP.ligand.clash>
0.0000

> <Gold.PLP.ligand.torsion>
0.4751

> <Gold.PLP.Chemscore.Hbond>
2.6000

> <Gold.PLP.Chemscore.CHOScore>
0.0000

> <Gold.PLP.Chemscore.Metal>
0.0000

> <Gold.Chemscore.Hbonds>
donor molecule, donor type, donor heavy atom, donor atom, acceptor molecule, acceptor atom, score
      L1  H     8    30       P1  7948  0.85
      L1  H    11    31       P1  7948  0.80
      P1  H  7989  7998       L1    16  1.00

> <Gold.PLP.Chemscore.Internal.Correction>
0.2765

> <Gold.Rescore>
     Score         DG    S(hbond)    S(metal)    S(lipo)     H(rot)  DE(clash)    DE(int)     intcor
     15.54     -18.16       2.19        0.00      67.83       1.00       1.19       1.44       ----

> <Gold.Chemscore.Fitness>
15.5409

> <Gold.Chemscore.DG>
-18.1649

> <Gold.Chemscore.ZeroCoef>
-5.4800

> <Gold.Chemscore.Hbond>
2.1881

> <Gold.Chemscore.Metal>
0.0000

> <Gold.Chemscore.Lipo>
67.8332

> <Gold.Chemscore.Internal_Hbond>
0.0000

> <Gold.Chemscore.DEClash>
1.1858

> <Gold.Chemscore.DEInternal>
1.4382

> <Gold.Chemscore.Rot>
1.0000

> <Gold.Chemscore.Internal.Correction>
   9.000000E+99

> <Gold.Chemscore.Hbonds>
donor molecule, donor type, donor heavy atom, donor atom, acceptor molecule, acceptor atom, score
      L1  H     8    30       P1  7948  0.25
      L1  H    11    31       P1  7948  0.79
      P1  H  7989  7998       L1    16  0.30

> <Gold.Chemscore.Hbond.Weighted>
-7.3084

> <Gold.Chemscore.Metal.Weighted>
-0.0000

> <Gold.Chemscore.Lipo.Weighted>
-7.9365

> <Gold.Chemscore.Internal_Hbond.Weighted>
0.0000

> <Gold.Chemscore.DEClash.Weighted>
1.1858

> <Gold.Chemscore.DEInternal.Weighted>
1.4382

> <Gold.Chemscore.Rot.Weighted>
2.5600

> <Gold.Chemscore.Internal.Correction.Weighted>
   9.000000E+99

> <Gold.Protein.RotatedTorsions>
[ 6907 6896 6895 6894 ] final   -5.37 input  -60.11 | X-H torsion
[ 7974 7965 7964 7962 ] final   18.56 input  175.53 | X-H torsion
[ 8008 7997 7996 7995 ] final  149.10 input   59.86 | X-H torsion
[ 10167 10162 10161 10158 ] final -172.10 input  -65.29 | X-H torsion
[ 10718 10713 10712 10709 ] final  139.20 input   66.30 | X-H torsion
[ 10763 10752 10751 10750 ] final   15.65 input  -60.55 | X-H torsion
[ 11005 11000 10999 10996 ] final -162.67 input  -57.11 | X-H torsion

> <Gold.Protein.ActiveResidues>
 VAL166  LYS551  ARG553  GLY616  TRP617  ASP618  TYR619  PRO620  LYS621  CYS622 
 ASP623  PHE694  ASN695  SER759  ASP760  ASP761  ALA762  ILE779  LEU786  VAL792 
 PHE793  MET794  SER795  GLU796  ALA797  LYS798  CYS799  TRP800  GLU811  SER814 

> <Gold.Protein.RotatedAtoms>
  151.4827  135.1053  159.9781 H   0  0  0  0  0  0  0  0  0  0  0  0  # atno 6907 bound_to 6896
  152.4772  133.8164  159.7041 H   0  0  0  0  0  0  0  0  0  0  0  0  # atno 6908 bound_to 6896
  150.8819  133.7299  159.2956 H   0  0  0  0  0  0  0  0  0  0  0  0  # atno 6909 bound_to 6896
  146.2181  139.8440  142.8635 H   0  0  0  0  0  0  0  0  0  0  0  0  # atno 7974 bound_to 7965
  156.2767  140.2111  156.5804 H   0  0  0  0  0  0  0  0  0  0  0  0  # atno 8008 bound_to 7997
  154.7063  140.0516  157.0530 H   0  0  0  0  0  0  0  0  0  0  0  0  # atno 8009 bound_to 7997
  155.0666  140.3172  155.4646 H   0  0  0  0  0  0  0  0  0  0  0  0  # atno 8010 bound_to 7997
  139.5764  144.1523  152.1456 H   0  0  0  0  0  0  0  0  0  0  0  0  # atno 10167 bound_to 10162
  157.4170  131.1034  151.0394 H   0  0  0  0  0  0  0  0  0  0  0  0  # atno 10718 bound_to 10713
  153.1505  135.6777  153.8890 H   0  0  0  0  0  0  0  0  0  0  0  0  # atno 10763 bound_to 10752
  153.8318  135.3116  155.3420 H   0  0  0  0  0  0  0  0  0  0  0  0  # atno 10764 bound_to 10752
  154.7858  135.4863  154.0029 H   0  0  0  0  0  0  0  0  0  0  0  0  # atno 10765 bound_to 10752
  140.6067  134.4891  157.5211 H   0  0  0  0  0  0  0  0  0  0  0  0  # atno 11005 bound_to 11000
  145.2869  141.0156  143.3685 LP  0  0  0  0  0  0  0  0  0  0  0  0  # atno 17320 bound_to 7965
  144.9107  139.4533  143.6588 LP  0  0  0  0  0  0  0  0  0  0  0  0  # atno 17321 bound_to 7965
  140.1066  144.5493  150.6953 LP  0  0  0  0  0  0  0  0  0  0  0  0  # atno 17342 bound_to 10162
  140.7046  143.2459  151.4763 LP  0  0  0  0  0  0  0  0  0  0  0  0  # atno 17343 bound_to 10162
  157.1337  130.6113  149.5536 LP  0  0  0  0  0  0  0  0  0  0  0  0  # atno 17370 bound_to 10713
  155.9868  130.4905  150.7097 LP  0  0  0  0  0  0  0  0  0  0  0  0  # atno 17371 bound_to 10713
  139.9209  134.8150  156.1214 LP  0  0  0  0  0  0  0  0  0  0  0  0  # atno 17394 bound_to 11000
  141.0836  133.6744  156.2387 LP  0  0  0  0  0  0  0  0  0  0  0  0  # atno 17395 bound_to 11000

$$$$
