AV-unprocessed.smi:3298|AV-procd|sdf|12641|dock1
  -GOLD-   2272018573D 1   1.00000     0.00000
 Structure written by MMmdl.
 35 36  0  0  0  0  0  0  0  0  1 V2000
  153.4690  141.4415  160.5161 C   0  0  0  0  0  0  0  0  0  0  0  0
  152.7191  142.5690  159.8380 C   0  0  0  0  0  0  0  0  0  0  0  0
  151.9798  142.3403  158.6583 C   0  0  0  0  0  0  0  0  0  0  0  0
  151.3084  143.4243  158.0555 C   0  0  0  0  0  0  0  0  0  0  0  0
  150.5553  143.1661  156.8782 N   0  0  0  0  0  0  0  0  0  0  0  0
  150.2342  141.9806  156.3316 C   0  0  0  0  0  0  0  0  0  0  0  0
  150.5075  140.8783  156.8068 O   0  0  0  0  0  0  0  0  0  0  0  0
  149.5474  142.1424  155.1918 N   0  0  0  0  0  0  0  0  0  0  0  0
  149.0473  141.0548  154.3582 C   0  0  1  0  0  0  0  0  0  0  0  0
  150.0712  139.9589  154.2489 C   0  0  0  0  0  0  0  0  0  0  0  0
  149.6198  138.7870  154.6900 C   0  0  0  0  0  0  0  0  0  0  0  0
  148.2079  138.8594  155.2093 C   0  0  2  0  0  0  0  0  0  0  0  0
  147.2850  137.8488  154.5085 C   0  0  0  0  0  0  0  0  0  0  0  0
  147.3476  138.0189  153.1085 O   0  0  0  0  0  0  0  0  0  0  0  0
  147.8140  140.3413  154.9721 C   0  0  0  0  0  0  0  0  0  0  0  0
  151.3899  144.6908  158.6823 C   0  0  0  0  0  0  0  0  0  0  0  0
  152.1536  144.8118  159.8601 C   0  0  0  0  0  0  0  0  0  0  0  0
  152.8098  143.7792  160.4303 N   0  0  0  0  0  0  0  0  0  0  0  0
  148.8245  141.4214  153.3545 H   0  0  0  0  0  0  0  0  0  0  0  0
  148.2415  138.6483  156.2791 H   0  0  0  0  0  0  0  0  0  0  0  0
  153.2491  140.4820  160.0475 H   0  0  0  0  0  0  0  0  0  0  0  0
  153.1905  141.3764  161.5684 H   0  0  0  0  0  0  0  0  0  0  0  0
  154.5441  141.6127  160.4546 H   0  0  0  0  0  0  0  0  0  0  0  0
  151.9347  141.3532  158.2212 H   0  0  0  0  0  0  0  0  0  0  0  0
  150.1788  143.9824  156.4195 H   0  0  0  0  0  0  0  0  0  0  0  0
  149.3613  143.0825  154.8743 H   0  0  0  0  0  0  0  0  0  0  0  0
  151.0561  140.1304  153.8400 H   0  0  0  0  0  0  0  0  0  0  0  0
  150.1883  137.8689  154.7013 H   0  0  0  0  0  0  0  0  0  0  0  0
  147.5628  136.8250  154.7615 H   0  0  0  0  0  0  0  0  0  0  0  0
  146.2520  137.9919  154.8270 H   0  0  0  0  0  0  0  0  0  0  0  0
  148.0410  137.4732  152.7700 H   0  0  0  0  0  0  0  0  0  0  0  0
  147.4991  140.8023  155.9093 H   0  0  0  0  0  0  0  0  0  0  0  0
  146.9671  140.4208  154.2893 H   0  0  0  0  0  0  0  0  0  0  0  0
  150.8775  145.5582  158.2960 H   0  0  0  0  0  0  0  0  0  0  0  0
  152.2336  145.7644  160.3623 H   0  0  0  0  0  0  0  0  0  0  0  0
  1  2  1  0  0  0  0
  1 21  1  0  0  0  0
  1 22  1  0  0  0  0
  1 23  1  0  0  0  0
  2 18  1  0  0  0  0
  2  3  2  0  0  0  0
  3  4  1  0  0  0  0
  3 24  1  0  0  0  0
  4  5  1  0  0  0  0
  4 16  2  0  0  0  0
  5  6  1  0  0  0  0
  5 25  1  0  0  0  0
  6  7  2  0  0  0  0
  6  8  1  0  0  0  0
  8  9  1  0  0  0  0
  8 26  1  0  0  0  0
  9 19  1  0  0  0  0
  9 15  1  0  0  0  0
  9 10  1  0  0  0  0
 10 11  2  0  0  0  0
 10 27  1  0  0  0  0
 11 12  1  0  0  0  0
 11 28  1  0  0  0  0
 12 20  1  0  0  0  0
 12 13  1  0  0  0  0
 12 15  1  0  0  0  0
 13 14  1  0  0  0  0
 13 29  1  0  0  0  0
 13 30  1  0  0  0  0
 14 31  1  0  0  0  0
 15 32  1  0  0  0  0
 15 33  1  0  0  0  0
 16 17  1  0  0  0  0
 16 34  1  0  0  0  0
 17 18  2  0  0  0  0
 17 35  1  0  0  0  0
M  END
> <s_m_source_file>
AV-unprocessed.smi

> <i_m_source_file_index>
3298

> <i_lp_mmshare_version>
43012

> <i_f3d_flags>
0

> <s_epik_input>
W0NIM11jMVtjSF1jKFtjSF1bY0hdbjEpW05IXUMoPU8pW05IXVtDQEBIXTJbQ0hdPVtDSF1bQ0BASF0oW0NIMl0yKVtDSDJdW09IXQ==

> <s_epik_cmdline>
J2VwaWtfcHl0aG9uJywgJy1waCcsICc3LjAnLCAnLXRuJywgJzgnLCAnLW1hJywgJzIwMCcsICctbWV0YWxfYmluZGluZycsICctaW1hZScsICc8aW5maWxlLm1hZT4nLCAnLW9tYWUnLCAnPG91dGZpbGUubWFlPic=

> <r_epik_Ionization_Penalty>
0.379275

> <r_epik_Ionization_Penalty_Charging>
0

> <r_epik_Ionization_Penalty_Neutral>
0.379275

> <r_epik_State_Penalty>
0.377195

> <r_epik_Charging_Adjusted_Penalty>
0.377195

> <i_epik_Tot_Q>
0

> <i_epik_Tot_abs_Q>
0

> <r_epik_Metal_State_Penalty>
0.22815

> <b_epik_Metal_Only>
0

> <s_lp_Force_Field>
OPLS_2005

> <r_lp_Energy>
21.1615

> <b_lp_Chiralities_Consistent>
1

> <s_lp_Variant>
AV-unprocessed.smi:3298-2

> <Gold.Version>
5.8.1

> <Gold.Id.Protein>
6NUR|6NUR_protein|mol2

> <Gold.PLP.Fitness>
43.3577

> <Gold.PLP.PLP>
-35.5884

> <Gold.PLP.part.hbond>
-3.0000

> <Gold.PLP.part.metal>
0.0000

> <Gold.PLP.part.buried>
-3.1315

> <Gold.PLP.part.nonpolar>
-29.7910

> <Gold.PLP.part.repulsive>
0.2829

> <Gold.PLP.ligand.clash>
0.0000

> <Gold.PLP.ligand.torsion>
0.2482

> <Gold.PLP.Chemscore.Hbond>
2.7488

> <Gold.PLP.Chemscore.CHOScore>
0.0000

> <Gold.PLP.Chemscore.Metal>
0.0000

> <Gold.Chemscore.Hbonds>
donor molecule, donor type, donor heavy atom, donor atom, acceptor molecule, acceptor atom, score
      L1  H     5    25       P1  8028  0.99
      L1  H     8    26       P1  8028  0.75
      L1  H    14    31       P1  7948  1.00

> <Gold.PLP.Chemscore.Internal.Correction>
0.0192

> <Gold.Rescore>
     Score         DG    S(hbond)    S(metal)    S(lipo)     H(rot)  DE(clash)    DE(int)     intcor
     18.00     -21.26       2.83        0.00      92.96       1.78       0.20       3.05       ----

> <Gold.Chemscore.Fitness>
18.0045

> <Gold.Chemscore.DG>
-21.2587

> <Gold.Chemscore.ZeroCoef>
-5.4800

> <Gold.Chemscore.Hbond>
2.8318

> <Gold.Chemscore.Metal>
0.0000

> <Gold.Chemscore.Lipo>
92.9598

> <Gold.Chemscore.Internal_Hbond>
0.0000

> <Gold.Chemscore.DEClash>
0.1996

> <Gold.Chemscore.DEInternal>
3.0546

> <Gold.Chemscore.Rot>
1.7796

> <Gold.Chemscore.Internal.Correction>
   9.000000E+99

> <Gold.Chemscore.Hbonds>
donor molecule, donor type, donor heavy atom, donor atom, acceptor molecule, acceptor atom, score
      L1  H     5    25       P1  8028  0.94
      L1  H     8    26       P1  8028  0.76
      L1  H    14    31       P1  7948  1.00

> <Gold.Chemscore.Hbond.Weighted>
-9.4582

> <Gold.Chemscore.Metal.Weighted>
-0.0000

> <Gold.Chemscore.Lipo.Weighted>
-10.8763

> <Gold.Chemscore.Internal_Hbond.Weighted>
0.0000

> <Gold.Chemscore.DEClash.Weighted>
0.1996

> <Gold.Chemscore.DEInternal.Weighted>
3.0546

> <Gold.Chemscore.Rot.Weighted>
4.5558

> <Gold.Chemscore.Internal.Correction.Weighted>
   9.000000E+99

> <Gold.Protein.RotatedTorsions>
[ 6907 6896 6895 6894 ] final    0.08 input  -60.11 | X-H torsion
[ 7974 7965 7964 7962 ] final   -8.53 input  175.53 | X-H torsion
[ 8008 7997 7996 7995 ] final -167.89 input   59.86 | X-H torsion
[ 10167 10162 10161 10158 ] final  -21.25 input  -65.29 | X-H torsion
[ 10718 10713 10712 10709 ] final   55.20 input   66.30 | X-H torsion
[ 10763 10752 10751 10750 ] final  122.62 input  -60.55 | X-H torsion
[ 11005 11000 10999 10996 ] final  125.57 input  -57.11 | X-H torsion

> <Gold.Protein.ActiveResidues>
 VAL166  LYS551  ARG553  GLY616  TRP617  ASP618  TYR619  PRO620  LYS621  CYS622 
 ASP623  PHE694  ASN695  SER759  ASP760  ASP761  ALA762  ILE779  LEU786  VAL792 
 PHE793  MET794  SER795  GLU796  ALA797  LYS798  CYS799  TRP800  GLU811  SER814 

> <Gold.Protein.RotatedAtoms>
  151.5707  135.1062  159.9994 H   0  0  0  0  0  0  0  0  0  0  0  0  # atno 6907 bound_to 6896
  152.4402  133.7430  159.6662 H   0  0  0  0  0  0  0  0  0  0  0  0  # atno 6908 bound_to 6896
  150.8306  133.8028  159.3123 H   0  0  0  0  0  0  0  0  0  0  0  0  # atno 6909 bound_to 6896
  146.2278  140.2482  142.8346 H   0  0  0  0  0  0  0  0  0  0  0  0  # atno 7974 bound_to 7965
  155.8840  140.1013  157.1465 H   0  0  0  0  0  0  0  0  0  0  0  0  # atno 8008 bound_to 7997
  154.4008  140.1323  156.4295 H   0  0  0  0  0  0  0  0  0  0  0  0  # atno 8009 bound_to 7997
  155.7611  140.3463  155.5200 H   0  0  0  0  0  0  0  0  0  0  0  0  # atno 8010 bound_to 7997
  140.7281  143.4645  151.0332 H   0  0  0  0  0  0  0  0  0  0  0  0  # atno 10167 bound_to 10162
  157.5324  130.8640  149.8706 H   0  0  0  0  0  0  0  0  0  0  0  0  # atno 10718 bound_to 10713
  153.6327  135.3393  155.3047 H   0  0  0  0  0  0  0  0  0  0  0  0  # atno 10763 bound_to 10752
  154.8577  135.4299  154.2088 H   0  0  0  0  0  0  0  0  0  0  0  0  # atno 10764 bound_to 10752
  153.2988  135.7023  153.7296 H   0  0  0  0  0  0  0  0  0  0  0  0  # atno 10765 bound_to 10752
  139.9413  134.9635  156.8578 H   0  0  0  0  0  0  0  0  0  0  0  0  # atno 11005 bound_to 11000
  144.9432  140.8101  143.5617 LP  0  0  0  0  0  0  0  0  0  0  0  0  # atno 17320 bound_to 7965
  145.2435  139.2062  143.4980 LP  0  0  0  0  0  0  0  0  0  0  0  0  # atno 17321 bound_to 7965
  139.8333  143.7662  152.3180 LP  0  0  0  0  0  0  0  0  0  0  0  0  # atno 17342 bound_to 10162
  139.7785  144.7452  151.0122 LP  0  0  0  0  0  0  0  0  0  0  0  0  # atno 17343 bound_to 10162
  156.0433  130.3734  150.1381 LP  0  0  0  0  0  0  0  0  0  0  0  0  # atno 17370 bound_to 10713
  156.9565  130.9791  151.3488 LP  0  0  0  0  0  0  0  0  0  0  0  0  # atno 17371 bound_to 10713
  140.5945  134.0230  155.7512 LP  0  0  0  0  0  0  0  0  0  0  0  0  # atno 17394 bound_to 11000
  141.1048  133.9711  157.3016 LP  0  0  0  0  0  0  0  0  0  0  0  0  # atno 17395 bound_to 11000

$$$$
