AV-unprocessed.smi:1056|AV-procd|sdf|4634|dock3
  -GOLD-   22720 3143D 1   1.00000     0.00000
 Structure written by MMmdl.
 46 48  0  0  0  0  0  0  0  0  3 V2000
  152.0118  144.3342  160.6097 C   0  0  0  0  0  0  0  0  0  0  0  0
  151.9466  143.2622  159.5350 C   0  0  0  0  0  0  0  0  0  0  0  0
  151.0723  143.4557  158.4421 C   0  0  0  0  0  0  0  0  0  0  0  0
  151.0396  142.4613  157.4717 C   0  0  0  0  0  0  0  0  0  0  0  0
  150.2977  142.3598  156.2934 N   0  3  0  0  0  0  0  0  0  0  0  0
  150.6084  141.1961  155.6588 C   0  0  0  0  0  0  0  0  0  0  0  0
  151.5371  140.5499  156.4157 N   0  0  0  0  0  0  0  0  0  0  0  0
  152.2128  139.2654  156.1777 C   0  0  0  0  0  0  0  0  0  0  0  0
  151.2428  138.1419  155.7544 C   0  0  2  0  0  0  0  0  0  0  0  0
  151.9147  136.8988  155.7802 O   0  0  0  0  0  0  0  0  0  0  0  0
  150.6874  138.3406  154.3291 C   0  0  0  0  0  0  0  0  0  0  0  0
  149.2836  137.8789  154.1852 N   0  3  2  0  0  0  0  0  0  0  0  0
  148.2802  138.9547  154.3674 C   0  0  0  0  0  0  0  0  0  0  0  0
  146.8770  138.4417  153.9967 C   0  0  0  0  0  0  0  0  0  0  0  0
  146.6026  137.1018  154.5106 N   0  0  0  0  0  0  0  0  0  0  0  0
  147.5215  136.2501  154.9940 C   0  0  0  0  0  0  0  0  0  0  0  0
  147.2170  135.1316  155.3992 O   0  0  0  0  0  0  0  0  0  0  0  0
  148.9896  136.7002  155.0394 C   0  0  0  0  0  0  0  0  0  0  0  0
  151.8366  141.3029  157.5589 C   0  0  0  0  0  0  0  0  0  0  0  0
  152.6988  141.0941  158.6337 C   0  0  0  0  0  0  0  0  0  0  0  0
  152.7483  142.0954  159.6301 C   0  0  0  0  0  0  0  0  0  0  0  0
  153.6836  141.8968  160.8109 C   0  0  0  0  0  0  0  0  0  0  0  0
  151.3434  145.1658  160.3850 H   0  0  0  0  0  0  0  0  0  0  0  0
  153.0229  144.7339  160.6912 H   0  0  0  0  0  0  0  0  0  0  0  0
  151.7207  143.9256  161.5776 H   0  0  0  0  0  0  0  0  0  0  0  0
  150.4577  144.3408  158.3640 H   0  0  0  0  0  0  0  0  0  0  0  0
  150.1944  140.8517  154.7221 H   0  0  0  0  0  0  0  0  0  0  0  0
  152.9501  139.4375  155.3927 H   0  0  0  0  0  0  0  0  0  0  0  0
  152.7787  138.9849  157.0662 H   0  0  0  0  0  0  0  0  0  0  0  0
  150.4273  138.0757  156.4743 H   0  0  0  0  0  0  0  0  0  0  0  0
  151.5207  136.3555  156.4461 H   0  0  0  0  0  0  0  0  0  0  0  0
  150.7456  139.4025  154.0843 H   0  0  0  0  0  0  0  0  0  0  0  0
  151.3102  137.8260  153.5953 H   0  0  0  0  0  0  0  0  0  0  0  0
  148.2957  139.2848  155.4074 H   0  0  0  0  0  0  0  0  0  0  0  0
  148.5180  139.8250  153.7569 H   0  0  0  0  0  0  0  0  0  0  0  0
  146.1131  139.1308  154.3576 H   0  0  0  0  0  0  0  0  0  0  0  0
  146.7769  138.4034  152.9115 H   0  0  0  0  0  0  0  0  0  0  0  0
  145.6400  136.7944  154.4928 H   0  0  0  0  0  0  0  0  0  0  0  0
  149.6230  135.8662  154.7341 H   0  0  0  0  0  0  0  0  0  0  0  0
  149.2401  136.9316  156.0758 H   0  0  0  0  0  0  0  0  0  0  0  0
  153.3082  140.2062  158.7129 H   0  0  0  0  0  0  0  0  0  0  0  0
  154.2148  140.9467  160.7453 H   0  0  0  0  0  0  0  0  0  0  0  0
  153.1256  141.9017  161.7476 H   0  0  0  0  0  0  0  0  0  0  0  0
  154.4280  142.6924  160.8467 H   0  0  0  0  0  0  0  0  0  0  0  0
  149.1857  137.5552  153.2336 H   0  0  0  0  0  0  0  0  0  0  0  0
  149.6309  143.0366  155.9442 H   0  0  0  0  0  0  0  0  0  0  0  0
  1  2  1  0  0  0  0
  1 23  1  0  0  0  0
  1 24  1  0  0  0  0
  1 25  1  0  0  0  0
  2 21  1  0  0  0  0
  2  3  2  0  0  0  0
  3  4  1  0  0  0  0
  3 26  1  0  0  0  0
  4 19  2  0  0  0  0
  4  5  1  0  0  0  0
  5  6  2  0  0  0  0
  5 46  1  0  0  0  0
  6  7  1  0  0  0  0
  6 27  1  0  0  0  0
  7  8  1  0  0  0  0
  7 19  1  0  0  0  0
  8  9  1  0  0  0  0
  8 28  1  0  0  0  0
  8 29  1  0  0  0  0
  9 10  1  0  0  0  0
  9 11  1  0  0  0  0
  9 30  1  0  0  0  0
 10 31  1  0  0  0  0
 11 12  1  0  0  0  0
 11 32  1  0  0  0  0
 11 33  1  0  0  0  0
 12 18  1  0  0  0  0
 12 13  1  0  0  0  0
 12 45  1  0  0  0  0
 13 14  1  0  0  0  0
 13 34  1  0  0  0  0
 13 35  1  0  0  0  0
 14 15  1  0  0  0  0
 14 36  1  0  0  0  0
 14 37  1  0  0  0  0
 15 16  1  0  0  0  0
 15 38  1  0  0  0  0
 16 17  2  0  0  0  0
 16 18  1  0  0  0  0
 18 39  1  0  0  0  0
 18 40  1  0  0  0  0
 19 20  1  0  0  0  0
 20 21  2  0  0  0  0
 20 41  1  0  0  0  0
 21 22  1  0  0  0  0
 22 42  1  0  0  0  0
 22 43  1  0  0  0  0
 22 44  1  0  0  0  0
M  CHG  1   5   1
M  CHG  1  12   1
M  END
> <s_m_source_file>
AV-unprocessed.smi

> <i_m_source_file_index>
1056

> <i_lp_mmshare_version>
43012

> <i_f3d_flags>
0

> <s_epik_input>
W0NIM11jKFtjSF0xKWMoW0NIM10pW2NIXWMoYzEyKW4oW2NIXW4yKVtDSDJdW0NASF0oW09IXSlbQ0gyXU4zW0NIMl1bQ0gyXVtOSF1DKD1PKVtDSDJdMw==

> <s_epik_cmdline>
J2VwaWtfcHl0aG9uJywgJy1waCcsICc3LjAnLCAnLXRuJywgJzgnLCAnLW1hJywgJzIwMCcsICctbWV0YWxfYmluZGluZycsICctaW1hZScsICc8aW5maWxlLm1hZT4nLCAnLW9tYWUnLCAnPG91dGZpbGUubWFlPic=

> <r_epik_Ionization_Penalty>
1.262

> <r_epik_Ionization_Penalty_Charging>
1.26188

> <r_epik_Ionization_Penalty_Neutral>
0.000125436

> <r_epik_State_Penalty>
1.3387

> <r_epik_Charging_Adjusted_Penalty>
2.60058

> <i_epik_Tot_Q>
2

> <i_epik_Tot_abs_Q>
2

> <r_epik_Metal_State_Penalty>
1.58938

> <b_epik_Metal_Only>
0

> <s_lp_Force_Field>
OPLS_2005

> <r_lp_Energy>
36.1571

> <b_lp_Chiralities_Consistent>
1

> <s_lp_Variant>
AV-unprocessed.smi:1056-5

> <Gold.Version>
5.8.1

> <Gold.Id.Protein>
6NUR|6NUR_protein|mol2

> <Gold.PLP.Fitness>
52.4981

> <Gold.PLP.PLP>
-39.5712

> <Gold.PLP.part.hbond>
-3.0000

> <Gold.PLP.part.metal>
0.0000

> <Gold.PLP.part.buried>
-4.5493

> <Gold.PLP.part.nonpolar>
-31.6531

> <Gold.PLP.part.repulsive>
0.1528

> <Gold.PLP.ligand.clash>
0.0000

> <Gold.PLP.ligand.torsion>
1.0602

> <Gold.PLP.Chemscore.Hbond>
5.0000

> <Gold.PLP.Chemscore.CHOScore>
0.0000

> <Gold.PLP.Chemscore.Metal>
0.0000

> <Gold.Chemscore.Hbonds>
donor molecule, donor type, donor heavy atom, donor atom, acceptor molecule, acceptor atom, score
      L1  H     5    46       P1  8028  2.00
      L1  H    12    45       P1  7948  2.00
      P1  H 10752 10763       L1    10  0.78

> <Gold.PLP.Chemscore.Internal.Correction>
0.0474

> <Gold.Rescore>
     Score         DG    S(hbond)    S(metal)    S(lipo)     H(rot)  DE(clash)    DE(int)     intcor
     19.79     -21.04       2.69        0.00     109.45       2.44       0.09       1.16       ----

> <Gold.Chemscore.Fitness>
19.7914

> <Gold.Chemscore.DG>
-21.0384

> <Gold.Chemscore.ZeroCoef>
-5.4800

> <Gold.Chemscore.Hbond>
2.6911

> <Gold.Chemscore.Metal>
0.0000

> <Gold.Chemscore.Lipo>
109.4485

> <Gold.Chemscore.Internal_Hbond>
0.0000

> <Gold.Chemscore.DEClash>
0.0874

> <Gold.Chemscore.DEInternal>
1.1596

> <Gold.Chemscore.Rot>
2.4357

> <Gold.Chemscore.Internal.Correction>
   9.000000E+99

> <Gold.Chemscore.Hbonds>
donor molecule, donor type, donor heavy atom, donor atom, acceptor molecule, acceptor atom, score
      L1  H     5    46       P1  8028  0.99
      L1  H    12    45       P1  7948  0.98
      P1  H 10752 10763       L1    10  0.10

> <Gold.Chemscore.Hbond.Weighted>
-8.9883

> <Gold.Chemscore.Metal.Weighted>
-0.0000

> <Gold.Chemscore.Lipo.Weighted>
-12.8055

> <Gold.Chemscore.Internal_Hbond.Weighted>
0.0000

> <Gold.Chemscore.DEClash.Weighted>
0.0874

> <Gold.Chemscore.DEInternal.Weighted>
1.1596

> <Gold.Chemscore.Rot.Weighted>
6.2353

> <Gold.Chemscore.Internal.Correction.Weighted>
   9.000000E+99

> <Gold.Protein.RotatedTorsions>
[ 6907 6896 6895 6894 ] final  -86.68 input  -60.11 | X-H torsion
[ 7974 7965 7964 7962 ] final  -66.48 input  175.53 | X-H torsion
[ 8008 7997 7996 7995 ] final  -50.47 input   59.86 | X-H torsion
[ 10167 10162 10161 10158 ] final  -38.25 input  -65.29 | X-H torsion
[ 10718 10713 10712 10709 ] final  102.85 input   66.30 | X-H torsion
[ 10763 10752 10751 10750 ] final   90.75 input  -60.55 | X-H torsion
[ 11005 11000 10999 10996 ] final -156.14 input  -57.11 | X-H torsion

> <Gold.Protein.ActiveResidues>
 VAL166  LYS551  ARG553  GLY616  TRP617  ASP618  TYR619  PRO620  LYS621  CYS622 
 ASP623  PHE694  ASN695  SER759  ASP760  ASP761  ALA762  ILE779  LEU786  VAL792 
 PHE793  MET794  SER795  GLU796  ALA797  LYS798  CYS799  TRP800  GLU811  SER814 

> <Gold.Protein.RotatedAtoms>
  150.6866  134.3013  159.4707 H   0  0  0  0  0  0  0  0  0  0  0  0  # atno 6907 bound_to 6896
  152.0909  134.9405  160.0581 H   0  0  0  0  0  0  0  0  0  0  0  0  # atno 6908 bound_to 6896
  152.0722  133.4077  159.4501 H   0  0  0  0  0  0  0  0  0  0  0  0  # atno 6909 bound_to 6896
  145.7413  140.8952  143.0528 H   0  0  0  0  0  0  0  0  0  0  0  0  # atno 7974 bound_to 7965
  154.4063  140.1271  156.4671 H   0  0  0  0  0  0  0  0  0  0  0  0  # atno 8008 bound_to 7997
  155.7216  140.3492  155.4999 H   0  0  0  0  0  0  0  0  0  0  0  0  # atno 8009 bound_to 7997
  155.9209  140.1052  157.1197 H   0  0  0  0  0  0  0  0  0  0  0  0  # atno 8010 bound_to 7997
  140.7097  143.3289  151.2615 H   0  0  0  0  0  0  0  0  0  0  0  0  # atno 10167 bound_to 10162
  157.6790  131.0763  150.5466 H   0  0  0  0  0  0  0  0  0  0  0  0  # atno 10718 bound_to 10713
  153.2009  135.4422  155.0265 H   0  0  0  0  0  0  0  0  0  0  0  0  # atno 10763 bound_to 10752
  154.8146  135.3309  154.7214 H   0  0  0  0  0  0  0  0  0  0  0  0  # atno 10764 bound_to 10752
  153.7660  135.6988  153.4971 H   0  0  0  0  0  0  0  0  0  0  0  0  # atno 10765 bound_to 10752
  140.6788  134.4167  157.5228 H   0  0  0  0  0  0  0  0  0  0  0  0  # atno 11005 bound_to 11000
  144.6870  139.9464  143.7476 LP  0  0  0  0  0  0  0  0  0  0  0  0  # atno 17320 bound_to 7965
  146.0445  139.3453  143.0677 LP  0  0  0  0  0  0  0  0  0  0  0  0  # atno 17321 bound_to 7965
  139.6765  143.9928  152.2784 LP  0  0  0  0  0  0  0  0  0  0  0  0  # atno 17342 bound_to 10162
  139.9544  144.6599  150.8140 LP  0  0  0  0  0  0  0  0  0  0  0  0  # atno 17343 bound_to 10162
  156.5771  130.4295  149.5993 LP  0  0  0  0  0  0  0  0  0  0  0  0  # atno 17370 bound_to 10713
  156.2692  130.7007  151.1799 LP  0  0  0  0  0  0  0  0  0  0  0  0  # atno 17371 bound_to 10713
  139.8958  134.8674  156.2114 LP  0  0  0  0  0  0  0  0  0  0  0  0  # atno 17394 bound_to 11000
  141.0334  133.6976  156.1470 LP  0  0  0  0  0  0  0  0  0  0  0  0  # atno 17395 bound_to 11000

$$$$
