AV-unprocessed.smi:370|AV-procd|sdf|2440|dock2
  -GOLD-   2262022383D 1   1.00000     0.00000
 Structure written by MMmdl.
 42 43  0  0  0  0  0  0  0  0  3 V2000
  151.9066  145.5761  159.8864 C   0  0  0  0  0  0  0  0  0  0  0  0
  151.4616  144.3592  159.1510 C   0  0  0  0  0  0  0  0  0  0  0  0
  151.6769  143.9108  157.8784 C   0  0  0  0  0  0  0  0  0  0  0  0
  150.9600  142.6851  157.8440 C   0  0  0  0  0  0  0  0  0  0  0  0
  150.9377  141.8942  156.6650 N   0  0  0  0  0  0  0  0  0  0  0  0
  149.9464  141.1200  156.1871 C   0  0  0  0  0  0  0  0  0  0  0  0
  148.8686  141.0421  156.7881 O   0  0  0  0  0  0  0  0  0  0  0  0
  150.2969  140.4963  155.0297 N   0  5  0  0  0  0  0  0  0  0  0  0
  149.7177  139.2345  154.5571 C   0  0  0  0  0  0  0  0  0  0  0  0
  150.5981  138.0126  154.9996 C   0  0  0  0  0  0  0  0  0  0  0  0
  151.9474  138.0695  154.2166 C   0  0  0  0  0  0  0  0  0  0  0  0
  150.9767  138.1373  156.5021 C   0  0  0  0  0  0  0  0  0  0  0  0
  149.8338  136.7293  154.7384 N   0  3  0  0  0  0  0  0  0  0  0  0
  150.5829  135.4513  154.9056 C   0  0  0  0  0  0  0  0  0  0  0  0
  149.7453  134.2602  154.4071 C   0  0  0  0  0  0  0  0  0  0  0  0
  148.4960  134.2168  155.0816 O   0  0  0  0  0  0  0  0  0  0  0  0
  147.7349  135.3925  154.8460 C   0  0  0  0  0  0  0  0  0  0  0  0
  148.4987  136.6036  155.4002 C   0  0  0  0  0  0  0  0  0  0  0  0
  150.3619  142.4105  158.9936 N   0  0  0  0  0  0  0  0  0  0  0  0
  150.6806  143.4813  159.8369 O   0  0  0  0  0  0  0  0  0  0  0  0
  152.4553  146.2501  159.2283 H   0  0  0  0  0  0  0  0  0  0  0  0
  152.5598  145.3081  160.7167 H   0  0  0  0  0  0  0  0  0  0  0  0
  151.0510  146.1186  160.2888 H   0  0  0  0  0  0  0  0  0  0  0  0
  152.2543  144.3851  157.0987 H   0  0  0  0  0  0  0  0  0  0  0  0
  151.7823  141.9132  156.1136 H   0  0  0  0  0  0  0  0  0  0  0  0
  148.6997  139.0936  154.9226 H   0  0  0  0  0  0  0  0  0  0  0  0
  149.6341  139.2317  153.4699 H   0  0  0  0  0  0  0  0  0  0  0  0
  152.4753  139.0156  154.3586 H   0  0  0  0  0  0  0  0  0  0  0  0
  151.8226  137.9331  153.1401 H   0  0  0  0  0  0  0  0  0  0  0  0
  152.6411  137.3013  154.5596 H   0  0  0  0  0  0  0  0  0  0  0  0
  151.6044  139.0099  156.6945 H   0  0  0  0  0  0  0  0  0  0  0  0
  151.5474  137.2678  156.8305 H   0  0  0  0  0  0  0  0  0  0  0  0
  150.1139  138.2210  157.1658 H   0  0  0  0  0  0  0  0  0  0  0  0
  151.5052  135.4461  154.3274 H   0  0  0  0  0  0  0  0  0  0  0  0
  150.8514  135.3162  155.9542 H   0  0  0  0  0  0  0  0  0  0  0  0
  149.5855  134.3253  153.3295 H   0  0  0  0  0  0  0  0  0  0  0  0
  150.2767  133.3265  154.5919 H   0  0  0  0  0  0  0  0  0  0  0  0
  147.5305  135.5103  153.7804 H   0  0  0  0  0  0  0  0  0  0  0  0
  146.7719  135.2940  155.3474 H   0  0  0  0  0  0  0  0  0  0  0  0
  148.6236  136.4830  156.4771 H   0  0  0  0  0  0  0  0  0  0  0  0
  147.8911  137.4953  155.2485 H   0  0  0  0  0  0  0  0  0  0  0  0
  149.6403  136.7830  153.7470 H   0  0  0  0  0  0  0  0  0  0  0  0
  1  2  1  0  0  0  0
  1 21  1  0  0  0  0
  1 22  1  0  0  0  0
  1 23  1  0  0  0  0
  2 20  1  0  0  0  0
  2  3  2  0  0  0  0
  3  4  1  0  0  0  0
  3 24  1  0  0  0  0
  4  5  1  0  0  0  0
  4 19  2  0  0  0  0
  5  6  1  0  0  0  0
  5 25  1  0  0  0  0
  6  7  2  0  0  0  0
  6  8  1  0  0  0  0
  8  9  1  0  0  0  0
  9 10  1  0  0  0  0
  9 26  1  0  0  0  0
  9 27  1  0  0  0  0
 10 11  1  0  0  0  0
 10 12  1  0  0  0  0
 10 13  1  0  0  0  0
 11 28  1  0  0  0  0
 11 29  1  0  0  0  0
 11 30  1  0  0  0  0
 12 31  1  0  0  0  0
 12 32  1  0  0  0  0
 12 33  1  0  0  0  0
 13 18  1  0  0  0  0
 13 14  1  0  0  0  0
 13 42  1  0  0  0  0
 14 15  1  0  0  0  0
 14 34  1  0  0  0  0
 14 35  1  0  0  0  0
 15 16  1  0  0  0  0
 15 36  1  0  0  0  0
 15 37  1  0  0  0  0
 16 17  1  0  0  0  0
 17 18  1  0  0  0  0
 17 38  1  0  0  0  0
 17 39  1  0  0  0  0
 18 40  1  0  0  0  0
 18 41  1  0  0  0  0
 19 20  1  0  0  0  0
M  CHG  1   8  -1
M  CHG  1  13   1
M  END
> <s_m_source_file>
AV-unprocessed.smi

> <i_m_source_file_index>
370

> <i_lp_mmshare_version>
43012

> <i_f3d_flags>
0

> <s_epik_input>
W0NIM11jMVtjSF1jKG5vMSlbTkhdQyg9TylbTkhdW0NIMl1DKFtDSDNdKShbQ0gzXSlOMltDSDJdW0NIMl1PW0NIMl1bQ0gyXTI=

> <s_epik_cmdline>
J2VwaWtfcHl0aG9uJywgJy1waCcsICc3LjAnLCAnLXRuJywgJzgnLCAnLW1hJywgJzIwMCcsICctbWV0YWxfYmluZGluZycsICctaW1hZScsICc8aW5maWxlLm1hZT4nLCAnLW9tYWUnLCAnPG91dGZpbGUubWFlPic=

> <r_epik_Ionization_Penalty>
6.79272

> <r_epik_Ionization_Penalty_Charging>
6.79272

> <r_epik_Ionization_Penalty_Neutral>
5.6208e-06

> <r_epik_State_Penalty>
7.45901

> <r_epik_Charging_Adjusted_Penalty>
14.2517

> <i_epik_Tot_Q>
0

> <i_epik_Tot_abs_Q>
2

> <r_epik_Metal_State_Penalty>
3.38639

> <b_epik_Metal_Only>
1

> <s_lp_Force_Field>
OPLS_2005

> <r_lp_Energy>
23.8333

> <b_lp_Chiralities_Consistent>
1

> <s_lp_Variant>
AV-unprocessed.smi:370-5

> <Gold.Version>
5.8.1

> <Gold.Id.Protein>
6NUR|6NUR_protein|mol2

> <Gold.PLP.Fitness>
43.1320

> <Gold.PLP.PLP>
-35.2452

> <Gold.PLP.part.hbond>
-2.9584

> <Gold.PLP.part.metal>
0.0000

> <Gold.PLP.part.buried>
-5.6097

> <Gold.PLP.part.nonpolar>
-27.6517

> <Gold.PLP.part.repulsive>
0.4931

> <Gold.PLP.ligand.clash>
0.0000

> <Gold.PLP.ligand.torsion>
0.7071

> <Gold.PLP.Chemscore.Hbond>
3.0000

> <Gold.PLP.Chemscore.CHOScore>
0.0000

> <Gold.PLP.Chemscore.Metal>
0.0000

> <Gold.Chemscore.Hbonds>
donor molecule, donor type, donor heavy atom, donor atom, acceptor molecule, acceptor atom, score
      L1  H    13    42       P1  7948  1.92
      P1  H  7989  7998       L1     8  0.90

> <Gold.PLP.Chemscore.Internal.Correction>
0.3011

> <Gold.Rescore>
     Score         DG    S(hbond)    S(metal)    S(lipo)     H(rot)  DE(clash)    DE(int)     intcor
     14.72     -16.97       1.82        0.00      80.52       1.57       0.48       1.77       ----

> <Gold.Chemscore.Fitness>
14.7206

> <Gold.Chemscore.DG>
-16.9732

> <Gold.Chemscore.ZeroCoef>
-5.4800

> <Gold.Chemscore.Hbond>
1.8240

> <Gold.Chemscore.Metal>
0.0000

> <Gold.Chemscore.Lipo>
80.5167

> <Gold.Chemscore.Internal_Hbond>
0.0000

> <Gold.Chemscore.DEClash>
0.4808

> <Gold.Chemscore.DEInternal>
1.7718

> <Gold.Chemscore.Rot>
1.5701

> <Gold.Chemscore.Internal.Correction>
   9.000000E+99

> <Gold.Chemscore.Hbonds>
donor molecule, donor type, donor heavy atom, donor atom, acceptor molecule, acceptor atom, score
      L1  H    13    42       P1  7948  0.67
      P1  H  7989  7998       L1     8  0.21

> <Gold.Chemscore.Hbond.Weighted>
-6.0921

> <Gold.Chemscore.Metal.Weighted>
-0.0000

> <Gold.Chemscore.Lipo.Weighted>
-9.4205

> <Gold.Chemscore.Internal_Hbond.Weighted>
0.0000

> <Gold.Chemscore.DEClash.Weighted>
0.4808

> <Gold.Chemscore.DEInternal.Weighted>
1.7718

> <Gold.Chemscore.Rot.Weighted>
4.0194

> <Gold.Chemscore.Internal.Correction.Weighted>
   9.000000E+99

> <Gold.Protein.RotatedTorsions>
[ 6907 6896 6895 6894 ] final    8.11 input  -60.11 | X-H torsion
[ 7974 7965 7964 7962 ] final  167.60 input  175.53 | X-H torsion
[ 8008 7997 7996 7995 ] final  123.16 input   59.86 | X-H torsion
[ 10167 10162 10161 10158 ] final   22.43 input  -65.29 | X-H torsion
[ 10718 10713 10712 10709 ] final    6.78 input   66.30 | X-H torsion
[ 10763 10752 10751 10750 ] final -133.22 input  -60.55 | X-H torsion
[ 11005 11000 10999 10996 ] final -131.82 input  -57.11 | X-H torsion

> <Gold.Protein.ActiveResidues>
 VAL166  LYS551  ARG553  GLY616  TRP617  ASP618  TYR619  PRO620  LYS621  CYS622 
 ASP623  PHE694  ASN695  SER759  ASP760  ASP761  ALA762  ILE779  LEU786  VAL792 
 PHE793  MET794  SER795  GLU796  ALA797  LYS798  CYS799  TRP800  GLU811  SER814 

> <Gold.Protein.RotatedAtoms>
  151.7008  135.0930  160.0250 H   0  0  0  0  0  0  0  0  0  0  0  0  # atno 6907 bound_to 6896
  152.3722  133.6429  159.6104 H   0  0  0  0  0  0  0  0  0  0  0  0  # atno 6908 bound_to 6896
  150.7682  133.9168  159.3427 H   0  0  0  0  0  0  0  0  0  0  0  0  # atno 6909 bound_to 6896
  144.7418  139.8785  143.6394 H   0  0  0  0  0  0  0  0  0  0  0  0  # atno 7974 bound_to 7965
  156.2755  140.2769  156.1583 H   0  0  0  0  0  0  0  0  0  0  0  0  # atno 8008 bound_to 7997
  155.0781  140.0387  157.2648 H   0  0  0  0  0  0  0  0  0  0  0  0  # atno 8009 bound_to 7997
  154.6986  140.2644  155.6747 H   0  0  0  0  0  0  0  0  0  0  0  0  # atno 8010 bound_to 7997
  140.5349  143.9778  150.6486 H   0  0  0  0  0  0  0  0  0  0  0  0  # atno 10167 bound_to 10162
  156.9272  130.5812  149.5649 H   0  0  0  0  0  0  0  0  0  0  0  0  # atno 10718 bound_to 10713
  154.8735  135.3773  154.4537 H   0  0  0  0  0  0  0  0  0  0  0  0  # atno 10763 bound_to 10752
  153.5211  135.7029  153.5736 H   0  0  0  0  0  0  0  0  0  0  0  0  # atno 10764 bound_to 10752
  153.3982  135.3955  155.1935 H   0  0  0  0  0  0  0  0  0  0  0  0  # atno 10765 bound_to 10752
  140.9225  134.1426  157.4302 H   0  0  0  0  0  0  0  0  0  0  0  0  # atno 11005 bound_to 11000
  146.1228  139.4249  143.0217 LP  0  0  0  0  0  0  0  0  0  0  0  0  # atno 17320 bound_to 7965
  145.7279  141.0053  143.1367 LP  0  0  0  0  0  0  0  0  0  0  0  0  # atno 17321 bound_to 7965
  140.3163  143.3165  152.0829 LP  0  0  0  0  0  0  0  0  0  0  0  0  # atno 17342 bound_to 10162
  139.4967  144.6603  151.6479 LP  0  0  0  0  0  0  0  0  0  0  0  0  # atno 17343 bound_to 10162
  156.0464  130.5539  150.8889 LP  0  0  0  0  0  0  0  0  0  0  0  0  # atno 17370 bound_to 10713
  157.5870  131.0945  150.9180 LP  0  0  0  0  0  0  0  0  0  0  0  0  # atno 17371 bound_to 10713
  139.8778  134.9976  156.5857 LP  0  0  0  0  0  0  0  0  0  0  0  0  # atno 17394 bound_to 11000
  140.7969  133.8536  155.8693 LP  0  0  0  0  0  0  0  0  0  0  0  0  # atno 17395 bound_to 11000

$$$$
