AV-unprocessed.smi:2825|AV-procd|sdf|10890|dock4
  -GOLD-   2272015333D 1   1.00000     0.00000
 Structure written by MMmdl.
 49 50  0  0  0  0  0  0  0  0  2 V2000
  148.1073  136.3995  160.1310 C   0  0  0  0  0  0  0  0  0  0  0  0
  147.6965  136.9818  158.7749 C   0  0  0  0  0  0  0  0  0  0  0  0
  147.9332  136.0002  157.6175 C   0  0  0  0  0  0  0  0  0  0  0  0
  149.6813  135.4043  157.5666 S   0  0  0  0  0  0  0  0  0  0  0  0
  150.4689  136.2240  158.5001 O   0  0  0  0  0  0  0  0  0  0  0  0
  149.6988  133.9375  157.6833 O   0  0  0  0  0  0  0  0  0  0  0  0
  150.2010  135.8149  155.9592 N   0  0  0  0  0  0  0  0  0  0  0  0
  150.0025  134.8416  154.8760 C   0  0  0  0  0  0  0  0  0  0  0  0
  151.2379  136.8515  155.7586 C   0  0  0  0  0  0  0  0  0  0  0  0
  150.6931  138.2896  155.5810 C   0  0  2  0  0  0  0  0  0  0  0  0
  150.2615  138.4772  154.2490 O   0  0  0  0  0  0  0  0  0  0  0  0
  151.7870  139.3359  155.8738 C   0  0  0  0  0  0  0  0  0  0  0  0
  151.2380  140.6624  156.1862 N   0  0  0  0  0  0  0  0  0  0  0  0
  150.3634  141.4374  155.4889 C   0  0  0  0  0  0  0  0  0  0  0  0
  150.1677  142.5798  156.2042 N   0  3  0  0  0  0  0  0  0  0  0  0
  150.9287  142.5333  157.3744 C   0  0  0  0  0  0  0  0  0  0  0  0
  151.0635  143.4487  158.4116 C   0  0  0  0  0  0  0  0  0  0  0  0
  151.9275  143.0976  159.4736 C   0  0  0  0  0  0  0  0  0  0  0  0
  152.0985  144.0763  160.6231 C   0  0  0  0  0  0  0  0  0  0  0  0
  152.6232  141.8605  159.4707 C   0  0  0  0  0  0  0  0  0  0  0  0
  153.5503  141.4931  160.6170 C   0  0  0  0  0  0  0  0  0  0  0  0
  152.4714  140.9423  158.4072 C   0  0  0  0  0  0  0  0  0  0  0  0
  151.6174  141.3050  157.3688 C   0  0  0  0  0  0  0  0  0  0  0  0
  147.9307  137.1183  160.9316 H   0  0  0  0  0  0  0  0  0  0  0  0
  149.1663  136.1400  160.1437 H   0  0  0  0  0  0  0  0  0  0  0  0
  147.5375  135.4986  160.3609 H   0  0  0  0  0  0  0  0  0  0  0  0
  146.6428  137.2607  158.8079 H   0  0  0  0  0  0  0  0  0  0  0  0
  148.2511  137.9032  158.5985 H   0  0  0  0  0  0  0  0  0  0  0  0
  147.2700  135.1377  157.6702 H   0  0  0  0  0  0  0  0  0  0  0  0
  147.7296  136.4997  156.6702 H   0  0  0  0  0  0  0  0  0  0  0  0
  150.7221  134.0271  154.9588 H   0  0  0  0  0  0  0  0  0  0  0  0
  150.1132  135.3194  153.9023 H   0  0  0  0  0  0  0  0  0  0  0  0
  148.9991  134.4190  154.9212 H   0  0  0  0  0  0  0  0  0  0  0  0
  151.8769  136.8282  156.6420 H   0  0  0  0  0  0  0  0  0  0  0  0
  151.8850  136.5848  154.9228 H   0  0  0  0  0  0  0  0  0  0  0  0
  149.8539  138.4843  156.2472 H   0  0  0  0  0  0  0  0  0  0  0  0
  149.3662  138.1828  154.1793 H   0  0  0  0  0  0  0  0  0  0  0  0
  152.4161  139.0223  156.7078 H   0  0  0  0  0  0  0  0  0  0  0  0
  152.4495  139.4471  155.0138 H   0  0  0  0  0  0  0  0  0  0  0  0
  149.9050  141.1898  154.5423 H   0  0  0  0  0  0  0  0  0  0  0  0
  150.5310  144.3887  158.4073 H   0  0  0  0  0  0  0  0  0  0  0  0
  153.1279  144.4320  160.6703 H   0  0  0  0  0  0  0  0  0  0  0  0
  151.8517  143.6018  161.5728 H   0  0  0  0  0  0  0  0  0  0  0  0
  151.4495  144.9450  160.5078 H   0  0  0  0  0  0  0  0  0  0  0  0
  154.0470  140.5390  160.4376 H   0  0  0  0  0  0  0  0  0  0  0  0
  152.9902  141.4079  161.5484 H   0  0  0  0  0  0  0  0  0  0  0  0
  154.3237  142.2510  160.7444 H   0  0  0  0  0  0  0  0  0  0  0  0
  152.9984  139.9995  158.4056 H   0  0  0  0  0  0  0  0  0  0  0  0
  149.5584  143.3337  155.9133 H   0  0  0  0  0  0  0  0  0  0  0  0
  1  2  1  0  0  0  0
  1 24  1  0  0  0  0
  1 25  1  0  0  0  0
  1 26  1  0  0  0  0
  2  3  1  0  0  0  0
  2 27  1  0  0  0  0
  2 28  1  0  0  0  0
  3  4  1  0  0  0  0
  3 29  1  0  0  0  0
  3 30  1  0  0  0  0
  4  5  2  0  0  0  0
  4  6  2  0  0  0  0
  4  7  1  0  0  0  0
  7  8  1  0  0  0  0
  7  9  1  0  0  0  0
  8 31  1  0  0  0  0
  8 32  1  0  0  0  0
  8 33  1  0  0  0  0
  9 10  1  0  0  0  0
  9 34  1  0  0  0  0
  9 35  1  0  0  0  0
 10 11  1  0  0  0  0
 10 12  1  0  0  0  0
 10 36  1  0  0  0  0
 11 37  1  0  0  0  0
 12 13  1  0  0  0  0
 12 38  1  0  0  0  0
 12 39  1  0  0  0  0
 13 23  1  0  0  0  0
 13 14  1  0  0  0  0
 14 15  2  0  0  0  0
 14 40  1  0  0  0  0
 15 16  1  0  0  0  0
 15 49  1  0  0  0  0
 16 23  2  0  0  0  0
 16 17  1  0  0  0  0
 17 18  2  0  0  0  0
 17 41  1  0  0  0  0
 18 19  1  0  0  0  0
 18 20  1  0  0  0  0
 19 42  1  0  0  0  0
 19 43  1  0  0  0  0
 19 44  1  0  0  0  0
 20 21  1  0  0  0  0
 20 22  2  0  0  0  0
 21 45  1  0  0  0  0
 21 46  1  0  0  0  0
 21 47  1  0  0  0  0
 22 23  1  0  0  0  0
 22 48  1  0  0  0  0
M  CHG  1  15   1
M  END
> <s_m_source_file>
AV-unprocessed.smi

> <i_m_source_file_index>
2825

> <i_lp_mmshare_version>
43012

> <i_f3d_flags>
0

> <s_epik_input>
W0NIM11bQ0gyXVtDSDJdUyg9TykoPU8pTihbQ0gzXSlbQ0gyXVtDQEhdKFtPSF0pW0NIMl1uKFtjSF1uMSljKGMxMilbY0hdYyhbQ0gzXSljKFtjSF0yKVtDSDNd

> <s_epik_cmdline>
J2VwaWtfcHl0aG9uJywgJy1waCcsICc3LjAnLCAnLXRuJywgJzgnLCAnLW1hJywgJzIwMCcsICctbWV0YWxfYmluZGluZycsICctaW1hZScsICc8aW5maWxlLm1hZT4nLCAnLW9tYWUnLCAnPG91dGZpbGUubWFlPic=

> <r_epik_Ionization_Penalty>
1.0773

> <r_epik_Ionization_Penalty_Charging>
1.0773

> <r_epik_Ionization_Penalty_Neutral>
1.44651e-06

> <r_epik_State_Penalty>
1.13242

> <r_epik_Charging_Adjusted_Penalty>
2.20972

> <i_epik_Tot_Q>
1

> <i_epik_Tot_abs_Q>
1

> <r_epik_Metal_State_Penalty>
5.13045

> <b_epik_Metal_Only>
0

> <s_lp_Force_Field>
OPLS_2005

> <r_lp_Energy>
13.8299

> <b_lp_Chiralities_Consistent>
1

> <s_lp_Variant>
AV-unprocessed.smi:2825-3

> <Gold.Version>
5.8.1

> <Gold.Id.Protein>
6NUR|6NUR_protein|mol2

> <Gold.PLP.Fitness>
51.8448

> <Gold.PLP.PLP>
-42.3702

> <Gold.PLP.part.hbond>
-2.9975

> <Gold.PLP.part.metal>
0.0000

> <Gold.PLP.part.buried>
-6.1450

> <Gold.PLP.part.nonpolar>
-34.1919

> <Gold.PLP.part.repulsive>
0.0975

> <Gold.PLP.ligand.clash>
0.0000

> <Gold.PLP.ligand.torsion>
1.7507

> <Gold.PLP.Chemscore.Hbond>
3.5040

> <Gold.PLP.Chemscore.CHOScore>
0.0000

> <Gold.PLP.Chemscore.Metal>
0.0000

> <Gold.Chemscore.Hbonds>
donor molecule, donor type, donor heavy atom, donor atom, acceptor molecule, acceptor atom, score
      L1  H    15    49       P1  8028  2.00
      P1  H  6896  6907       L1     6  0.98
      P1  H  6896  6908       L1     5  0.53

> <Gold.PLP.Chemscore.Internal.Correction>
2.4640

> <Gold.Rescore>
     Score         DG    S(hbond)    S(metal)    S(lipo)     H(rot)  DE(clash)    DE(int)     intcor
     15.88     -17.98       1.84        0.00     109.32       2.51       0.24       1.86       ----

> <Gold.Chemscore.Fitness>
15.8825

> <Gold.Chemscore.DG>
-17.9820

> <Gold.Chemscore.ZeroCoef>
-5.4800

> <Gold.Chemscore.Hbond>
1.8377

> <Gold.Chemscore.Metal>
0.0000

> <Gold.Chemscore.Lipo>
109.3243

> <Gold.Chemscore.Internal_Hbond>
0.0000

> <Gold.Chemscore.DEClash>
0.2413

> <Gold.Chemscore.DEInternal>
1.8581

> <Gold.Chemscore.Rot>
2.5106

> <Gold.Chemscore.Internal.Correction>
   9.000000E+99

> <Gold.Chemscore.Hbonds>
donor molecule, donor type, donor heavy atom, donor atom, acceptor molecule, acceptor atom, score
      L1  H    15    49       P1  8028  0.96
      P1  H  6896  6907       L1     6  0.28
      P1  H  6896  6908       L1     5  0.42

> <Gold.Chemscore.Hbond.Weighted>
-6.1381

> <Gold.Chemscore.Metal.Weighted>
-0.0000

> <Gold.Chemscore.Lipo.Weighted>
-12.7909

> <Gold.Chemscore.Internal_Hbond.Weighted>
0.0000

> <Gold.Chemscore.DEClash.Weighted>
0.2413

> <Gold.Chemscore.DEInternal.Weighted>
1.8581

> <Gold.Chemscore.Rot.Weighted>
6.4271

> <Gold.Chemscore.Internal.Correction.Weighted>
   9.000000E+99

> <Gold.Protein.RotatedTorsions>
[ 6907 6896 6895 6894 ] final -128.90 input  -60.11 | X-H torsion
[ 7974 7965 7964 7962 ] final   61.61 input  175.53 | X-H torsion
[ 8008 7997 7996 7995 ] final   25.19 input   59.86 | X-H torsion
[ 10167 10162 10161 10158 ] final   75.28 input  -65.29 | X-H torsion
[ 10718 10713 10712 10709 ] final  120.20 input   66.30 | X-H torsion
[ 10763 10752 10751 10750 ] final  -50.06 input  -60.55 | X-H torsion
[ 11005 11000 10999 10996 ] final   31.94 input  -57.11 | X-H torsion

> <Gold.Protein.ActiveResidues>
 VAL166  LYS551  ARG553  GLY616  TRP617  ASP618  TYR619  PRO620  LYS621  CYS622 
 ASP623  PHE694  ASN695  SER759  ASP760  ASP761  ALA762  ILE779  LEU786  VAL792 
 PHE793  MET794  SER795  GLU796  ALA797  LYS798  CYS799  TRP800  GLU811  SER814 

> <Gold.Protein.RotatedAtoms>
  150.9229  133.6858  159.2827 H   0  0  0  0  0  0  0  0  0  0  0  0  # atno 6907 bound_to 6896
  151.4307  135.1008  159.9651 H   0  0  0  0  0  0  0  0  0  0  0  0  # atno 6908 bound_to 6896
  152.4988  133.8660  159.7329 H   0  0  0  0  0  0  0  0  0  0  0  0  # atno 6909 bound_to 6896
  145.8828  139.3455  143.0696 H   0  0  0  0  0  0  0  0  0  0  0  0  # atno 7974 bound_to 7965
  155.0079  140.3133  155.4841 H   0  0  0  0  0  0  0  0  0  0  0  0  # atno 8008 bound_to 7997
  156.2914  140.2220  156.5133 H   0  0  0  0  0  0  0  0  0  0  0  0  # atno 8009 bound_to 7997
  154.7560  140.0462  157.0922 H   0  0  0  0  0  0  0  0  0  0  0  0  # atno 8010 bound_to 7997
  140.0046  144.5660  150.7708 H   0  0  0  0  0  0  0  0  0  0  0  0  # atno 10167 bound_to 10162
  157.5907  131.1064  150.8003 H   0  0  0  0  0  0  0  0  0  0  0  0  # atno 10718 bound_to 10713
  154.1042  135.6559  153.4873 H   0  0  0  0  0  0  0  0  0  0  0  0  # atno 10763 bound_to 10752
  153.0278  135.5232  154.7256 H   0  0  0  0  0  0  0  0  0  0  0  0  # atno 10764 bound_to 10752
  154.6417  135.2989  155.0064 H   0  0  0  0  0  0  0  0  0  0  0  0  # atno 10765 bound_to 10752
  140.2787  134.2998  155.7807 H   0  0  0  0  0  0  0  0  0  0  0  0  # atno 11005 bound_to 11000
  145.9003  140.9247  143.0506 LP  0  0  0  0  0  0  0  0  0  0  0  0  # atno 17320 bound_to 7965
  144.6727  140.1024  143.7460 LP  0  0  0  0  0  0  0  0  0  0  0  0  # atno 17321 bound_to 7965
  140.7405  143.2806  151.3611 LP  0  0  0  0  0  0  0  0  0  0  0  0  # atno 17342 bound_to 10162
  139.6247  144.0837  152.2424 LP  0  0  0  0  0  0  0  0  0  0  0  0  # atno 17343 bound_to 10162
  156.8425  130.5053  149.5319 LP  0  0  0  0  0  0  0  0  0  0  0  0  # atno 17370 bound_to 10713
  156.0962  130.5934  150.9817 LP  0  0  0  0  0  0  0  0  0  0  0  0  # atno 17371 bound_to 10713
  141.2166  133.7511  156.9446 LP  0  0  0  0  0  0  0  0  0  0  0  0  # atno 17394 bound_to 11000
  140.1304  134.9359  157.2329 LP  0  0  0  0  0  0  0  0  0  0  0  0  # atno 17395 bound_to 11000

$$$$
