AV-unprocessed.smi:2249|AV-procd|sdf|9099|dock4
  -GOLD-   2272012293D 1   1.00000     0.00000
 Structure written by MMmdl.
 38 39  0  0  0  0  0  0  0  0  1 V2000
  144.5623  136.3215  153.7026 C   0  0  0  0  0  0  0  0  0  0  0  0
  145.2263  136.5358  152.3296 C   0  0  1  0  0  0  0  0  0  0  0  0
  146.5522  137.1177  152.5360 N   0  0  0  0  0  0  0  0  0  0  0  0
  146.8213  138.2117  153.2639 C   0  0  0  0  0  0  0  0  0  0  0  0
  145.9614  138.8585  153.8624 O   0  0  0  0  0  0  0  0  0  0  0  0
  148.1365  138.4906  153.2477 N   0  0  0  0  0  0  0  0  0  0  0  0
  148.7957  139.5152  153.8509 C   0  0  0  0  0  0  0  0  0  0  0  0
  148.3644  140.7904  154.0959 C   0  0  0  0  0  0  0  0  0  0  0  0
  149.4903  141.3773  154.7416 C   0  0  0  0  0  0  0  0  0  0  0  0
  150.5096  140.5379  154.8750 N   0  0  0  0  0  0  0  0  0  0  0  0
  150.0835  139.3812  154.3225 N   0  0  0  0  0  0  0  0  0  0  0  0
  150.9582  138.2251  154.2950 C   0  0  0  0  0  0  0  0  0  0  0  0
  145.3402  135.2350  151.4921 C   0  0  0  0  0  0  0  0  0  0  0  0
  143.9828  134.5163  151.3329 C   0  0  0  0  0  0  0  0  0  0  0  0
  144.1365  133.1950  150.5627 C   0  0  0  0  0  0  0  0  0  0  0  0
  145.0738  132.3536  151.2226 O   0  0  0  0  0  0  0  0  0  0  0  0
  146.3760  132.9225  151.2783 C   0  0  0  0  0  0  0  0  0  0  0  0
  146.3466  134.2293  152.0875 C   0  0  0  0  0  0  0  0  0  0  0  0
  143.5219  136.0135  153.6047 H   0  0  0  0  0  0  0  0  0  0  0  0
  144.5626  137.2418  154.2875 H   0  0  0  0  0  0  0  0  0  0  0  0
  145.0855  135.5607  154.2829 H   0  0  0  0  0  0  0  0  0  0  0  0
  144.6145  137.2415  151.7644 H   0  0  0  0  0  0  0  0  0  0  0  0
  147.3239  136.6509  152.0824 H   0  0  0  0  0  0  0  0  0  0  0  0
  148.7183  137.8580  152.7185 H   0  0  0  0  0  0  0  0  0  0  0  0
  147.4138  141.2456  153.8628 H   0  0  0  0  0  0  0  0  0  0  0  0
  149.5974  142.3846  155.1159 H   0  0  0  0  0  0  0  0  0  0  0  0
  150.5475  137.4418  154.9322 H   0  0  0  0  0  0  0  0  0  0  0  0
  151.9542  138.4877  154.6543 H   0  0  0  0  0  0  0  0  0  0  0  0
  151.0394  137.8498  153.2745 H   0  0  0  0  0  0  0  0  0  0  0  0
  145.6909  135.5058  150.4947 H   0  0  0  0  0  0  0  0  0  0  0  0
  143.5563  134.3126  152.3161 H   0  0  0  0  0  0  0  0  0  0  0  0
  143.2657  135.1485  150.8092 H   0  0  0  0  0  0  0  0  0  0  0  0
  143.1776  132.6790  150.5110 H   0  0  0  0  0  0  0  0  0  0  0  0
  144.4547  133.3781  149.5352 H   0  0  0  0  0  0  0  0  0  0  0  0
  147.0517  132.2074  151.7480 H   0  0  0  0  0  0  0  0  0  0  0  0
  146.7518  133.0983  150.2692 H   0  0  0  0  0  0  0  0  0  0  0  0
  147.3511  134.6507  152.1054 H   0  0  0  0  0  0  0  0  0  0  0  0
  146.0813  134.0081  153.1221 H   0  0  0  0  0  0  0  0  0  0  0  0
  1  2  1  0  0  0  0
  1 19  1  0  0  0  0
  1 20  1  0  0  0  0
  1 21  1  0  0  0  0
  2  3  1  0  0  0  0
  2 13  1  0  0  0  0
  2 22  1  0  0  0  0
  3  4  1  0  0  0  0
  3 23  1  0  0  0  0
  4  5  2  0  0  0  0
  4  6  1  0  0  0  0
  6  7  1  0  0  0  0
  6 24  1  0  0  0  0
  7 11  1  0  0  0  0
  7  8  2  0  0  0  0
  8  9  1  0  0  0  0
  8 25  1  0  0  0  0
  9 10  2  0  0  0  0
  9 26  1  0  0  0  0
 10 11  1  0  0  0  0
 11 12  1  0  0  0  0
 12 27  1  0  0  0  0
 12 28  1  0  0  0  0
 12 29  1  0  0  0  0
 13 18  1  0  0  0  0
 13 14  1  0  0  0  0
 13 30  1  0  0  0  0
 14 15  1  0  0  0  0
 14 31  1  0  0  0  0
 14 32  1  0  0  0  0
 15 16  1  0  0  0  0
 15 33  1  0  0  0  0
 15 34  1  0  0  0  0
 16 17  1  0  0  0  0
 17 18  1  0  0  0  0
 17 35  1  0  0  0  0
 17 36  1  0  0  0  0
 18 37  1  0  0  0  0
 18 38  1  0  0  0  0
M  END
> <s_m_source_file>
AV-unprocessed.smi

> <i_m_source_file_index>
2249

> <i_lp_mmshare_version>
43012

> <i_f3d_flags>
0

> <s_epik_input>
W0NIMl0xW0NIMl1PW0NIMl1bQ0gyXVtDSF0xW0NASF0oW0NIM10pW05IXUMoPU8pW05IXWMyW2NIXVtjSF1ubjJbQ0gzXQ==

> <s_epik_cmdline>
J2VwaWtfcHl0aG9uJywgJy1waCcsICc3LjAnLCAnLXRuJywgJzgnLCAnLW1hJywgJzIwMCcsICctbWV0YWxfYmluZGluZycsICctaW1hZScsICc8aW5maWxlLm1hZT4nLCAnLW9tYWUnLCAnPG91dGZpbGUubWFlPic=

> <r_lp_tautomer_probability>
1

> <r_epik_Ionization_Penalty>
4.67687e-05

> <r_epik_Ionization_Penalty_Charging>
0

> <r_epik_Ionization_Penalty_Neutral>
4.67687e-05

> <r_epik_State_Penalty>
-0

> <r_epik_Charging_Adjusted_Penalty>
0

> <i_epik_Tot_Q>
0

> <i_epik_Tot_abs_Q>
0

> <r_epik_Metal_State_Penalty>
-0

> <b_epik_Metal_Only>
0

> <s_lp_Force_Field>
OPLS_2005

> <r_lp_Energy>
13.2478

> <b_lp_Chiralities_Consistent>
1

> <s_lp_Variant>
AV-unprocessed.smi:2249-2

> <Gold.Version>
5.8.1

> <Gold.Id.Protein>
6NUR|6NUR_protein|mol2

> <Gold.PLP.Fitness>
42.4124

> <Gold.PLP.PLP>
-32.0378

> <Gold.PLP.part.hbond>
-4.0000

> <Gold.PLP.part.metal>
0.0000

> <Gold.PLP.part.buried>
-2.5271

> <Gold.PLP.part.nonpolar>
-26.8596

> <Gold.PLP.part.repulsive>
0.6500

> <Gold.PLP.ligand.clash>
0.0000

> <Gold.PLP.ligand.torsion>
0.2977

> <Gold.PLP.Chemscore.Hbond>
2.6500

> <Gold.PLP.Chemscore.CHOScore>
1.0000

> <Gold.PLP.Chemscore.Metal>
0.0000

> <Gold.Chemscore.Hbonds>
donor molecule, donor type, donor heavy atom, donor atom, acceptor molecule, acceptor atom, score
      L1  H     3    23       P1  7948  1.00
      L1  H     6    24       P1  7948  1.00
      P1  H  7989  7998       L1    10  0.64
      L1  C     9    26       P1  8028  1.00

> <Gold.PLP.Chemscore.Internal.Correction>
0.0202

> <Gold.Rescore>
     Score         DG    S(hbond)    S(metal)    S(lipo)     H(rot)  DE(clash)    DE(int)     intcor
     14.14     -15.84       1.96        0.00      60.11       1.26       0.08       1.62       ----

> <Gold.Chemscore.Fitness>
14.1425

> <Gold.Chemscore.DG>
-15.8386

> <Gold.Chemscore.ZeroCoef>
-5.4800

> <Gold.Chemscore.Hbond>
1.9607

> <Gold.Chemscore.Metal>
0.0000

> <Gold.Chemscore.Lipo>
60.1057

> <Gold.Chemscore.Internal_Hbond>
0.0000

> <Gold.Chemscore.DEClash>
0.0757

> <Gold.Chemscore.DEInternal>
1.6204

> <Gold.Chemscore.Rot>
1.2588

> <Gold.Chemscore.Internal.Correction>
   9.000000E+99

> <Gold.Chemscore.Hbonds>
donor molecule, donor type, donor heavy atom, donor atom, acceptor molecule, acceptor atom, score
      L1  H     3    23       P1  7948  0.98
      L1  H     6    24       P1  7948  0.95
      P1  H  7989  7998       L1    10  0.03

> <Gold.Chemscore.Hbond.Weighted>
-6.5486

> <Gold.Chemscore.Metal.Weighted>
-0.0000

> <Gold.Chemscore.Lipo.Weighted>
-7.0324

> <Gold.Chemscore.Internal_Hbond.Weighted>
0.0000

> <Gold.Chemscore.DEClash.Weighted>
0.0757

> <Gold.Chemscore.DEInternal.Weighted>
1.6204

> <Gold.Chemscore.Rot.Weighted>
3.2224

> <Gold.Chemscore.Internal.Correction.Weighted>
   9.000000E+99

> <Gold.Protein.RotatedTorsions>
[ 6907 6896 6895 6894 ] final -105.76 input  -60.11 | X-H torsion
[ 7974 7965 7964 7962 ] final   72.51 input  175.53 | X-H torsion
[ 8008 7997 7996 7995 ] final   58.38 input   59.86 | X-H torsion
[ 10167 10162 10161 10158 ] final -179.59 input  -65.29 | X-H torsion
[ 10718 10713 10712 10709 ] final   54.25 input   66.30 | X-H torsion
[ 10763 10752 10751 10750 ] final   -6.84 input  -60.55 | X-H torsion
[ 11005 11000 10999 10996 ] final -116.58 input  -57.11 | X-H torsion

> <Gold.Protein.ActiveResidues>
 VAL166  LYS551  ARG553  GLY616  TRP617  ASP618  TYR619  PRO620  LYS621  CYS622 
 ASP623  PHE694  ASN695  SER759  ASP760  ASP761  ALA762  ILE779  LEU786  VAL792 
 PHE793  MET794  SER795  GLU796  ALA797  LYS798  CYS799  TRP800  GLU811  SER814 

> <Gold.Protein.RotatedAtoms>
  150.7353  134.0078  159.3659 H   0  0  0  0  0  0  0  0  0  0  0  0  # atno 6907 bound_to 6896
  151.8036  135.0699  160.0413 H   0  0  0  0  0  0  0  0  0  0  0  0  # atno 6908 bound_to 6896
  152.3123  133.5729  159.5725 H   0  0  0  0  0  0  0  0  0  0  0  0  # atno 6909 bound_to 6896
  145.7525  139.2766  143.1423 H   0  0  0  0  0  0  0  0  0  0  0  0  # atno 7974 bound_to 7965
  155.5491  140.3486  155.4464 H   0  0  0  0  0  0  0  0  0  0  0  0  # atno 8008 bound_to 7997
  156.0596  140.1337  156.9983 H   0  0  0  0  0  0  0  0  0  0  0  0  # atno 8009 bound_to 7997
  154.4473  140.0988  156.6482 H   0  0  0  0  0  0  0  0  0  0  0  0  # atno 8010 bound_to 7997
  139.5379  144.2444  152.0834 H   0  0  0  0  0  0  0  0  0  0  0  0  # atno 10167 bound_to 10162
  157.5240  130.8585  149.8597 H   0  0  0  0  0  0  0  0  0  0  0  0  # atno 10718 bound_to 10713
  153.4180  135.7009  153.6314 H   0  0  0  0  0  0  0  0  0  0  0  0  # atno 10763 bound_to 10752
  153.4780  135.3700  155.2427 H   0  0  0  0  0  0  0  0  0  0  0  0  # atno 10764 bound_to 10752
  154.8720  135.4059  154.3543 H   0  0  0  0  0  0  0  0  0  0  0  0  # atno 10765 bound_to 10752
  141.0413  133.9832  157.2990 H   0  0  0  0  0  0  0  0  0  0  0  0  # atno 11005 bound_to 11000
  146.0343  140.8228  142.9860 LP  0  0  0  0  0  0  0  0  0  0  0  0  # atno 17320 bound_to 7965
  144.6847  140.2815  143.7291 LP  0  0  0  0  0  0  0  0  0  0  0  0  # atno 17321 bound_to 7965
  140.1918  144.4744  150.6475 LP  0  0  0  0  0  0  0  0  0  0  0  0  # atno 17342 bound_to 10162
  140.6595  143.2248  151.5888 LP  0  0  0  0  0  0  0  0  0  0  0  0  # atno 17343 bound_to 10162
  156.0374  130.3748  150.1525 LP  0  0  0  0  0  0  0  0  0  0  0  0  # atno 17370 bound_to 10713
  156.9712  130.9835  151.3458 LP  0  0  0  0  0  0  0  0  0  0  0  0  # atno 17371 bound_to 10713
  139.9278  135.0201  156.8294 LP  0  0  0  0  0  0  0  0  0  0  0  0  # atno 17394 bound_to 11000
  140.6230  133.9976  155.7627 LP  0  0  0  0  0  0  0  0  0  0  0  0  # atno 17395 bound_to 11000

$$$$
