AV-unprocessed.smi:3232|AV-procd|sdf|12341|dock4
  -GOLD-   2272018203D 1   1.00000     0.00000
 Structure written by MMmdl.
 40 41  0  0  0  0  0  0  0  0  2 V2000
  145.6885  132.1774  149.4920 C   0  0  0  0  0  0  0  0  0  0  0  0
  145.6773  131.6258  150.9246 C   0  0  0  0  0  0  0  0  0  0  0  0
  146.9277  131.9403  151.6595 N   0  3  2  0  0  0  0  0  0  0  0  0
  147.0959  131.2092  152.9357 C   0  0  0  0  0  0  0  0  0  0  0  0
  147.9938  132.0823  153.8236 C   0  0  0  0  0  0  0  0  0  0  0  0
  148.3998  133.2577  152.9352 C   0  0  0  0  0  0  0  0  0  0  0  0
  147.2563  133.3651  151.9179 C   0  0  2  0  0  0  0  0  0  0  0  0
  146.0463  134.1912  152.4308 C   0  0  0  0  0  0  0  0  0  0  0  0
  146.3496  135.6155  152.5348 N   0  0  0  0  0  0  0  0  0  0  0  0
  145.4595  136.5831  152.8087 C   0  0  0  0  0  0  0  0  0  0  0  0
  144.2676  136.3592  153.0231 O   0  0  0  0  0  0  0  0  0  0  0  0
  146.0030  138.0187  152.8500 C   0  0  2  0  0  0  0  0  0  0  0  0
  146.5901  138.4576  151.4934 C   0  0  0  0  0  0  0  0  0  0  0  0
  146.9578  138.1609  153.9425 N   0  0  0  0  0  0  0  0  0  0  0  0
  148.2663  138.4231  153.9075 C   0  0  0  0  0  0  0  0  0  0  0  0
  148.8264  138.5356  155.1036 N   0  0  0  0  0  0  0  0  0  0  0  0
  147.7282  138.3293  155.8894 C   0  0  0  0  0  0  0  0  0  0  0  0
  146.5818  138.1121  155.2451 N   0  0  0  0  0  0  0  0  0  0  0  0
  144.7937  131.8651  148.9531 H   0  0  0  0  0  0  0  0  0  0  0  0
  146.5523  131.8118  148.9359 H   0  0  0  0  0  0  0  0  0  0  0  0
  145.7159  133.2669  149.4766 H   0  0  0  0  0  0  0  0  0  0  0  0
  144.8017  131.9777  151.4710 H   0  0  0  0  0  0  0  0  0  0  0  0
  145.5823  130.5404  150.8728 H   0  0  0  0  0  0  0  0  0  0  0  0
  146.1318  131.0523  153.4222 H   0  0  0  0  0  0  0  0  0  0  0  0
  147.5381  130.2307  152.7463 H   0  0  0  0  0  0  0  0  0  0  0  0
  147.4270  132.4429  154.6833 H   0  0  0  0  0  0  0  0  0  0  0  0
  148.8596  131.5389  154.2032 H   0  0  0  0  0  0  0  0  0  0  0  0
  148.5949  134.1687  153.4994 H   0  0  0  0  0  0  0  0  0  0  0  0
  149.3232  133.0064  152.4113 H   0  0  0  0  0  0  0  0  0  0  0  0
  147.6244  133.8197  150.9972 H   0  0  0  0  0  0  0  0  0  0  0  0
  145.2129  134.1149  151.7335 H   0  0  0  0  0  0  0  0  0  0  0  0
  145.6805  133.7971  153.3805 H   0  0  0  0  0  0  0  0  0  0  0  0
  147.3082  135.8895  152.3736 H   0  0  0  0  0  0  0  0  0  0  0  0
  145.1681  138.6868  153.0689 H   0  0  0  0  0  0  0  0  0  0  0  0
  145.8411  138.3919  150.7034 H   0  0  0  0  0  0  0  0  0  0  0  0
  147.4396  137.8431  151.1928 H   0  0  0  0  0  0  0  0  0  0  0  0
  146.9301  139.4925  151.5340 H   0  0  0  0  0  0  0  0  0  0  0  0
  148.8200  138.5377  152.9872 H   0  0  0  0  0  0  0  0  0  0  0  0
  147.7732  138.3473  156.9683 H   0  0  0  0  0  0  0  0  0  0  0  0
  147.6813  131.6066  151.0754 H   0  0  0  0  0  0  0  0  0  0  0  0
  1  2  1  0  0  0  0
  1 19  1  0  0  0  0
  1 20  1  0  0  0  0
  1 21  1  0  0  0  0
  2  3  1  0  0  0  0
  2 22  1  0  0  0  0
  2 23  1  0  0  0  0
  3  7  1  0  0  0  0
  3  4  1  0  0  0  0
  3 40  1  0  0  0  0
  4  5  1  0  0  0  0
  4 24  1  0  0  0  0
  4 25  1  0  0  0  0
  5  6  1  0  0  0  0
  5 26  1  0  0  0  0
  5 27  1  0  0  0  0
  6  7  1  0  0  0  0
  6 28  1  0  0  0  0
  6 29  1  0  0  0  0
  7  8  1  0  0  0  0
  7 30  1  0  0  0  0
  8  9  1  0  0  0  0
  8 31  1  0  0  0  0
  8 32  1  0  0  0  0
  9 10  1  0  0  0  0
  9 33  1  0  0  0  0
 10 11  2  0  0  0  0
 10 12  1  0  0  0  0
 12 13  1  0  0  0  0
 12 14  1  0  0  0  0
 12 34  1  0  0  0  0
 13 35  1  0  0  0  0
 13 36  1  0  0  0  0
 13 37  1  0  0  0  0
 14 18  1  0  0  0  0
 14 15  1  0  0  0  0
 15 16  2  0  0  0  0
 15 38  1  0  0  0  0
 16 17  1  0  0  0  0
 17 18  2  0  0  0  0
 17 39  1  0  0  0  0
M  CHG  1   3   1
M  END
> <s_m_source_file>
AV-unprocessed.smi

> <i_m_source_file_index>
3232

> <i_lp_mmshare_version>
43012

> <i_f3d_flags>
0

> <s_epik_input>
W0NIM11bQ0gyXU4xW0NIMl1bQ0gyXVtDSDJdW0NASF0xW0NIMl1bTkhdQyg9TylbQ0BIXShbQ0gzXSluMltjSF1uW2NIXW4y

> <s_epik_cmdline>
J2VwaWtfcHl0aG9uJywgJy1waCcsICc3LjAnLCAnLXRuJywgJzgnLCAnLW1hJywgJzIwMCcsICctbWV0YWxfYmluZGluZycsICctaW1hZScsICc8aW5maWxlLm1hZT4nLCAnLW9tYWUnLCAnPG91dGZpbGUubWFlPic=

> <r_lp_tautomer_probability>
1

> <r_epik_Ionization_Penalty>
0.00177695

> <r_epik_Ionization_Penalty_Charging>
0.00176881

> <r_epik_Ionization_Penalty_Neutral>
8.13528e-06

> <r_epik_State_Penalty>
0.00119827

> <r_epik_Charging_Adjusted_Penalty>
0.00296709

> <i_epik_Tot_Q>
1

> <i_epik_Tot_abs_Q>
1

> <r_epik_Metal_State_Penalty>
-0

> <b_epik_Metal_Only>
0

> <s_lp_Force_Field>
OPLS_2005

> <r_lp_Energy>
38.6691

> <b_lp_Chiralities_Consistent>
1

> <s_lp_Variant>
AV-unprocessed.smi:3232-3

> <Gold.Version>
5.8.1

> <Gold.Id.Protein>
6NUR|6NUR_protein|mol2

> <Gold.PLP.Fitness>
36.0988

> <Gold.PLP.PLP>
-25.7740

> <Gold.PLP.part.hbond>
-2.0000

> <Gold.PLP.part.metal>
0.0000

> <Gold.PLP.part.buried>
0.1612

> <Gold.PLP.part.nonpolar>
-24.3921

> <Gold.PLP.part.repulsive>
0.2560

> <Gold.PLP.ligand.clash>
0.0000

> <Gold.PLP.ligand.torsion>
0.3137

> <Gold.PLP.Chemscore.Hbond>
2.0000

> <Gold.PLP.Chemscore.CHOScore>
1.6061

> <Gold.PLP.Chemscore.Metal>
0.0000

> <Gold.Chemscore.Hbonds>
donor molecule, donor type, donor heavy atom, donor atom, acceptor molecule, acceptor atom, score
      L1  H     3    40       P1 10747  1.00
      L1  H     9    33       P1  7948  1.00
      L1  C    15    38       P1  7948  0.57
      L1  C    15    38       P1  7957  1.00

> <Gold.PLP.Chemscore.Internal.Correction>
0.1340

> <Gold.Rescore>
     Score         DG    S(hbond)    S(metal)    S(lipo)     H(rot)  DE(clash)    DE(int)     intcor
     13.06     -13.23       2.00        0.00      63.64       2.49       0.02       0.15       ----

> <Gold.Chemscore.Fitness>
13.0581

> <Gold.Chemscore.DG>
-13.2272

> <Gold.Chemscore.ZeroCoef>
-5.4800

> <Gold.Chemscore.Hbond>
1.9975

> <Gold.Chemscore.Metal>
0.0000

> <Gold.Chemscore.Lipo>
63.6354

> <Gold.Chemscore.Internal_Hbond>
0.0000

> <Gold.Chemscore.DEClash>
0.0217

> <Gold.Chemscore.DEInternal>
0.1473

> <Gold.Chemscore.Rot>
2.4882

> <Gold.Chemscore.Internal.Correction>
   9.000000E+99

> <Gold.Chemscore.Hbonds>
donor molecule, donor type, donor heavy atom, donor atom, acceptor molecule, acceptor atom, score
      L1  H     3    40       P1 10747  1.00
      L1  H     9    33       P1  7948  1.00

> <Gold.Chemscore.Hbond.Weighted>
-6.6716

> <Gold.Chemscore.Metal.Weighted>
-0.0000

> <Gold.Chemscore.Lipo.Weighted>
-7.4453

> <Gold.Chemscore.Internal_Hbond.Weighted>
0.0000

> <Gold.Chemscore.DEClash.Weighted>
0.0217

> <Gold.Chemscore.DEInternal.Weighted>
0.1473

> <Gold.Chemscore.Rot.Weighted>
6.3697

> <Gold.Chemscore.Internal.Correction.Weighted>
   9.000000E+99

> <Gold.Protein.RotatedTorsions>
[ 6907 6896 6895 6894 ] final   20.79 input  -60.11 | X-H torsion
[ 7974 7965 7964 7962 ] final -155.06 input  175.53 | X-H torsion
[ 8008 7997 7996 7995 ] final  -98.51 input   59.86 | X-H torsion
[ 10167 10162 10161 10158 ] final  111.75 input  -65.29 | X-H torsion
[ 10718 10713 10712 10709 ] final   91.96 input   66.30 | X-H torsion
[ 10763 10752 10751 10750 ] final   37.25 input  -60.55 | X-H torsion
[ 11005 11000 10999 10996 ] final -112.46 input  -57.11 | X-H torsion

> <Gold.Protein.ActiveResidues>
 VAL166  LYS551  ARG553  GLY616  TRP617  ASP618  TYR619  PRO620  LYS621  CYS622 
 ASP623  PHE694  ASN695  SER759  ASP760  ASP761  ALA762  ILE779  LEU786  VAL792 
 PHE793  MET794  SER795  GLU796  ALA797  LYS798  CYS799  TRP800  GLU811  SER814 

> <Gold.Protein.RotatedAtoms>
  151.9018  135.0375  160.0506 H   0  0  0  0  0  0  0  0  0  0  0  0  # atno 6907 bound_to 6896
  152.2352  133.5086  159.5247 H   0  0  0  0  0  0  0  0  0  0  0  0  # atno 6908 bound_to 6896
  150.7037  134.1079  159.4032 H   0  0  0  0  0  0  0  0  0  0  0  0  # atno 6909 bound_to 6896
  144.7658  140.4301  143.5943 H   0  0  0  0  0  0  0  0  0  0  0  0  # atno 7974 bound_to 7965
  154.8021  140.0454  157.1281 H   0  0  0  0  0  0  0  0  0  0  0  0  # atno 8008 bound_to 7997
  154.9466  140.3059  155.5075 H   0  0  0  0  0  0  0  0  0  0  0  0  # atno 8009 bound_to 7997
  156.2963  140.2296  156.4540 H   0  0  0  0  0  0  0  0  0  0  0  0  # atno 8010 bound_to 7997
  139.6588  144.7129  151.1906 H   0  0  0  0  0  0  0  0  0  0  0  0  # atno 10167 bound_to 10162
  157.6959  131.0426  150.3809 H   0  0  0  0  0  0  0  0  0  0  0  0  # atno 10718 bound_to 10713
  153.0045  135.6283  154.2114 H   0  0  0  0  0  0  0  0  0  0  0  0  # atno 10763 bound_to 10752
  154.1858  135.2811  155.3039 H   0  0  0  0  0  0  0  0  0  0  0  0  # atno 10764 bound_to 10752
  154.5799  135.5650  153.7234 H   0  0  0  0  0  0  0  0  0  0  0  0  # atno 10765 bound_to 10752
  141.0673  133.9437  157.2553 H   0  0  0  0  0  0  0  0  0  0  0  0  # atno 11005 bound_to 11000
  145.6474  139.1559  143.2881 LP  0  0  0  0  0  0  0  0  0  0  0  0  # atno 17320 bound_to 7965
  146.1764  140.6566  142.9209 LP  0  0  0  0  0  0  0  0  0  0  0  0  # atno 17321 bound_to 7965
  140.7571  143.6029  150.8682 LP  0  0  0  0  0  0  0  0  0  0  0  0  # atno 17342 bound_to 10162
  139.9684  143.6084  152.2981 LP  0  0  0  0  0  0  0  0  0  0  0  0  # atno 17343 bound_to 10162
  156.4223  130.3955  149.6817 LP  0  0  0  0  0  0  0  0  0  0  0  0  # atno 17370 bound_to 10713
  156.4063  130.7700  151.2710 LP  0  0  0  0  0  0  0  0  0  0  0  0  # atno 17371 bound_to 10713
  139.9489  135.0179  156.8935 LP  0  0  0  0  0  0  0  0  0  0  0  0  # atno 17394 bound_to 11000
  140.5746  134.0411  155.7442 LP  0  0  0  0  0  0  0  0  0  0  0  0  # atno 17395 bound_to 11000

$$$$
