AV-unprocessed.smi:3076|AV-procd|sdf|11727|dock4
  -GOLD-   2272017123D 1   1.00000     0.00000
 Structure written by MMmdl.
 20 20  0  0  0  0  0  0  0  0  1 V2000
  148.1417  138.6007  152.5370 N   0  0  0  0  0  0  0  0  0  0  0  0
  148.0510  138.8330  153.9867 C   0  0  0  0  0  0  0  0  0  0  0  0
  148.9942  139.9468  154.4734 C   0  0  2  0  0  0  0  0  0  0  0  0
  148.9764  140.9934  153.5227 O   0  0  0  0  0  0  0  0  0  0  0  0
  150.4032  139.4137  154.6785 C   0  0  0  0  0  0  0  0  0  0  0  0
  151.3619  140.1367  155.4215 C   0  0  0  0  0  0  0  0  0  0  0  0
  152.6555  139.6003  155.5685 C   0  0  0  0  0  0  0  0  0  0  0  0
  152.9399  138.3602  154.9635 C   0  0  0  0  0  0  0  0  0  0  0  0
  152.0340  137.6598  154.2482 N   0  0  0  0  0  0  0  0  0  0  0  0
  150.7957  138.1814  154.1119 C   0  0  0  0  0  0  0  0  0  0  0  0
  148.8823  139.1704  152.1308 H   0  0  0  0  0  0  0  0  0  0  0  0
  148.3735  137.6271  152.3459 H   0  0  0  0  0  0  0  0  0  0  0  0
  147.0253  139.1189  154.2216 H   0  0  0  0  0  0  0  0  0  0  0  0
  148.2393  137.9086  154.5341 H   0  0  0  0  0  0  0  0  0  0  0  0
  148.6322  140.3470  155.4218 H   0  0  0  0  0  0  0  0  0  0  0  0
  149.1113  140.6217  152.6645 H   0  0  0  0  0  0  0  0  0  0  0  0
  151.1132  141.0876  155.8697 H   0  0  0  0  0  0  0  0  0  0  0  0
  153.4123  140.1277  156.1300 H   0  0  0  0  0  0  0  0  0  0  0  0
  153.9219  137.9203  155.0549 H   0  0  0  0  0  0  0  0  0  0  0  0
  150.0990  137.5960  153.5299 H   0  0  0  0  0  0  0  0  0  0  0  0
  1  2  1  0  0  0  0
  1 11  1  0  0  0  0
  1 12  1  0  0  0  0
  2  3  1  0  0  0  0
  2 13  1  0  0  0  0
  2 14  1  0  0  0  0
  3  4  1  0  0  0  0
  3  5  1  0  0  0  0
  3 15  1  0  0  0  0
  4 16  1  0  0  0  0
  5 10  1  0  0  0  0
  5  6  2  0  0  0  0
  6  7  1  0  0  0  0
  6 17  1  0  0  0  0
  7  8  2  0  0  0  0
  7 18  1  0  0  0  0
  8  9  1  0  0  0  0
  8 19  1  0  0  0  0
  9 10  2  0  0  0  0
 10 20  1  0  0  0  0
M  END
> <s_m_source_file>
AV-unprocessed.smi

> <i_m_source_file_index>
3076

> <i_lp_mmshare_version>
43012

> <i_f3d_flags>
0

> <s_epik_input>
W05IMl1bQ0gyXVtDQEhdKFtPSF0pYzFbY0hdW2NIXVtjSF1uW2NIXTE=

> <s_epik_cmdline>
J2VwaWtfcHl0aG9uJywgJy1waCcsICc3LjAnLCAnLXRuJywgJzgnLCAnLW1hJywgJzIwMCcsICctbWV0YWxfYmluZGluZycsICctaW1hZScsICc8aW5maWxlLm1hZT4nLCAnLW9tYWUnLCAnPG91dGZpbGUubWFlPic=

> <r_epik_Ionization_Penalty>
2.22627

> <r_epik_Ionization_Penalty_Charging>
0

> <r_epik_Ionization_Penalty_Neutral>
2.22627

> <r_epik_State_Penalty>
2.36938

> <r_epik_Charging_Adjusted_Penalty>
2.36938

> <i_epik_Tot_Q>
0

> <i_epik_Tot_abs_Q>
0

> <r_epik_Metal_State_Penalty>
2.36785

> <b_epik_Metal_Only>
0

> <s_lp_Force_Field>
OPLS_2005

> <r_lp_Energy>
11.5599

> <b_lp_Chiralities_Consistent>
1

> <s_lp_Variant>
AV-unprocessed.smi:3076-3

> <Gold.Version>
5.8.1

> <Gold.Id.Protein>
6NUR|6NUR_protein|mol2

> <Gold.PLP.Fitness>
34.9324

> <Gold.PLP.PLP>
-22.2377

> <Gold.PLP.part.hbond>
-5.5257

> <Gold.PLP.part.metal>
0.0000

> <Gold.PLP.part.buried>
-0.5076

> <Gold.PLP.part.nonpolar>
-17.8622

> <Gold.PLP.part.repulsive>
0.1532

> <Gold.PLP.ligand.clash>
0.0000

> <Gold.PLP.ligand.torsion>
0.6078

> <Gold.PLP.Chemscore.Hbond>
3.6238

> <Gold.PLP.Chemscore.CHOScore>
1.0121

> <Gold.PLP.Chemscore.Metal>
0.0000

> <Gold.Chemscore.Hbonds>
donor molecule, donor type, donor heavy atom, donor atom, acceptor molecule, acceptor atom, score
      L1  H     1    11       P1  7957  0.86
      L1  H     1    12       P1  7948  1.00
      L1  H     4    16       P1  7957  1.00
      P1  H 10752 10765       L1     9  0.55
      L1  C    10    20       P1  7948  1.00
      L1  C    10    20       P1  7949  0.04

> <Gold.PLP.Chemscore.Internal.Correction>
0.0028

> <Gold.Rescore>
     Score         DG    S(hbond)    S(metal)    S(lipo)     H(rot)  DE(clash)    DE(int)     intcor
     15.91     -16.72       3.04        0.00      49.75       1.85       0.02       0.79       ----

> <Gold.Chemscore.Fitness>
15.9131

> <Gold.Chemscore.DG>
-16.7196

> <Gold.Chemscore.ZeroCoef>
-5.4800

> <Gold.Chemscore.Hbond>
3.0369

> <Gold.Chemscore.Metal>
0.0000

> <Gold.Chemscore.Lipo>
49.7525

> <Gold.Chemscore.Internal_Hbond>
0.0000

> <Gold.Chemscore.DEClash>
0.0204

> <Gold.Chemscore.DEInternal>
0.7861

> <Gold.Chemscore.Rot>
1.8455

> <Gold.Chemscore.Internal.Correction>
   9.000000E+99

> <Gold.Chemscore.Hbonds>
donor molecule, donor type, donor heavy atom, donor atom, acceptor molecule, acceptor atom, score
      L1  H     1    11       P1  7957  0.83
      L1  H     1    12       P1  7948  0.96
      L1  H     4    16       P1  7957  1.00
      P1  H 10752 10765       L1     9  0.16

> <Gold.Chemscore.Hbond.Weighted>
-10.1431

> <Gold.Chemscore.Metal.Weighted>
-0.0000

> <Gold.Chemscore.Lipo.Weighted>
-5.8210

> <Gold.Chemscore.Internal_Hbond.Weighted>
0.0000

> <Gold.Chemscore.DEClash.Weighted>
0.0204

> <Gold.Chemscore.DEInternal.Weighted>
0.7861

> <Gold.Chemscore.Rot.Weighted>
4.7245

> <Gold.Chemscore.Internal.Correction.Weighted>
   9.000000E+99

> <Gold.Protein.RotatedTorsions>
[ 6907 6896 6895 6894 ] final   60.11 input  -60.11 | X-H torsion
[ 7974 7965 7964 7962 ] final -123.12 input  175.53 | X-H torsion
[ 8008 7997 7996 7995 ] final -131.12 input   59.86 | X-H torsion
[ 10167 10162 10161 10158 ] final  162.48 input  -65.29 | X-H torsion
[ 10718 10713 10712 10709 ] final  143.57 input   66.30 | X-H torsion
[ 10763 10752 10751 10750 ] final  157.84 input  -60.55 | X-H torsion
[ 11005 11000 10999 10996 ] final   24.20 input  -57.11 | X-H torsion

> <Gold.Protein.ActiveResidues>
 VAL166  LYS551  ARG553  GLY616  TRP617  ASP618  TYR619  PRO620  LYS621  CYS622 
 ASP623  PHE694  ASN695  SER759  ASP760  ASP761  ALA762  ILE779  LEU786  VAL792 
 PHE793  MET794  SER795  GLU796  ALA797  LYS798  CYS799  TRP800  GLU811  SER814 

> <Gold.Protein.RotatedAtoms>
  152.3974  134.6343  160.0083 H   0  0  0  0  0  0  0  0  0  0  0  0  # atno 6907 bound_to 6896
  151.6559  133.3313  159.3170 H   0  0  0  0  0  0  0  0  0  0  0  0  # atno 6908 bound_to 6896
  150.7879  134.6922  159.6548 H   0  0  0  0  0  0  0  0  0  0  0  0  # atno 6909 bound_to 6896
  145.0221  140.7997  143.4374 H   0  0  0  0  0  0  0  0  0  0  0  0  # atno 7974 bound_to 7965
  155.3070  140.0455  157.3033 H   0  0  0  0  0  0  0  0  0  0  0  0  # atno 8008 bound_to 7997
  154.5454  140.2301  155.8538 H   0  0  0  0  0  0  0  0  0  0  0  0  # atno 8009 bound_to 7997
  156.1919  140.3048  155.9356 H   0  0  0  0  0  0  0  0  0  0  0  0  # atno 8010 bound_to 7997
  139.4861  144.4433  151.8924 H   0  0  0  0  0  0  0  0  0  0  0  0  # atno 10167 bound_to 10162
  157.3674  131.0974  151.0860 H   0  0  0  0  0  0  0  0  0  0  0  0  # atno 10718 bound_to 10713
  154.2066  135.2788  155.2973 H   0  0  0  0  0  0  0  0  0  0  0  0  # atno 10763 bound_to 10752
  154.5812  135.5589  153.7191 H   0  0  0  0  0  0  0  0  0  0  0  0  # atno 10764 bound_to 10752
  153.0074  135.6345  154.2204 H   0  0  0  0  0  0  0  0  0  0  0  0  # atno 10765 bound_to 10752
  140.3613  134.2122  155.7672 H   0  0  0  0  0  0  0  0  0  0  0  0  # atno 11005 bound_to 11000
  145.1881  139.2315  143.5257 LP  0  0  0  0  0  0  0  0  0  0  0  0  # atno 17320 bound_to 7965
  146.3487  140.1671  142.8590 LP  0  0  0  0  0  0  0  0  0  0  0  0  # atno 17321 bound_to 7965
  140.3886  144.2645  150.5901 LP  0  0  0  0  0  0  0  0  0  0  0  0  # atno 17342 bound_to 10162
  140.5167  143.2276  151.8452 LP  0  0  0  0  0  0  0  0  0  0  0  0  # atno 17343 bound_to 10162
  157.1977  130.6380  149.5727 LP  0  0  0  0  0  0  0  0  0  0  0  0  # atno 17370 bound_to 10713
  155.9749  130.4701  150.6419 LP  0  0  0  0  0  0  0  0  0  0  0  0  # atno 17371 bound_to 10713
  141.1983  133.8038  157.0588 LP  0  0  0  0  0  0  0  0  0  0  0  0  # atno 17394 bound_to 11000
  140.0624  134.9747  157.1328 LP  0  0  0  0  0  0  0  0  0  0  0  0  # atno 17395 bound_to 11000

$$$$
