AV-unprocessed.smi:1697|AV-procd|sdf|6808|dock1
  -GOLD-   22720 7583D 1   1.00000     0.00000
 Structure written by MMmdl.
 55 57  0  0  0  0  0  0  0  0  3 V2000
  143.0121  146.3335  155.2262 C   0  0  0  0  0  0  0  0  0  0  0  0
  142.4197  145.0070  155.7207 C   0  0  0  0  0  0  0  0  0  0  0  0
  143.3662  144.2820  156.4960 O   0  0  0  0  0  0  0  0  0  0  0  0
  144.1173  143.3076  155.7826 C   0  0  2  0  0  0  0  0  0  0  0  0
  145.3211  142.9129  156.6487 C   0  0  0  0  0  0  0  0  0  0  0  0
  146.2458  141.9399  155.8993 C   0  0  0  0  0  0  0  0  0  0  0  0
  146.7093  142.5214  154.6125 N   0  3  1  0  0  0  0  0  0  0  0  0
  147.7035  141.6509  153.9331 C   0  0  0  0  0  0  0  0  0  0  0  0
  148.6471  140.9242  154.9180 C   0  0  1  0  0  0  0  0  0  0  0  0
  149.1539  139.7586  154.3007 O   0  0  0  0  0  0  0  0  0  0  0  0
  149.8594  141.7796  155.3412 C   0  0  0  0  0  0  0  0  0  0  0  0
  150.5524  141.2584  156.5267 N   0  0  0  0  0  0  0  0  0  0  0  0
  150.8605  139.9779  156.8709 C   0  0  0  0  0  0  0  0  0  0  0  0
  151.5067  140.0196  158.0691 N   0  3  0  0  0  0  0  0  0  0  0  0
  151.6004  141.3439  158.5025 C   0  0  0  0  0  0  0  0  0  0  0  0
  152.1615  141.8893  159.6510 C   0  0  0  0  0  0  0  0  0  0  0  0
  152.0853  143.2923  159.8023 C   0  0  0  0  0  0  0  0  0  0  0  0
  152.6853  143.9208  161.0485 C   0  0  0  0  0  0  0  0  0  0  0  0
  151.4591  144.1002  158.8177 C   0  0  0  0  0  0  0  0  0  0  0  0
  151.3773  145.6070  158.9944 C   0  0  0  0  0  0  0  0  0  0  0  0
  150.8975  143.5265  157.6547 C   0  0  0  0  0  0  0  0  0  0  0  0
  150.9838  142.1432  157.5206 C   0  0  0  0  0  0  0  0  0  0  0  0
  145.5635  142.8968  153.7402 C   0  0  0  0  0  0  0  0  0  0  0  0
  144.6229  143.8855  154.4493 C   0  0  0  0  0  0  0  0  0  0  0  0
  142.3062  146.8543  154.5790 H   0  0  0  0  0  0  0  0  0  0  0  0
  143.9238  146.1631  154.6529 H   0  0  0  0  0  0  0  0  0  0  0  0
  143.2559  147.0031  156.0504 H   0  0  0  0  0  0  0  0  0  0  0  0
  141.4911  145.1726  156.2675 H   0  0  0  0  0  0  0  0  0  0  0  0
  142.1635  144.3938  154.8565 H   0  0  0  0  0  0  0  0  0  0  0  0
  143.5182  142.4152  155.5965 H   0  0  0  0  0  0  0  0  0  0  0  0
  145.8825  143.8046  156.9319 H   0  0  0  0  0  0  0  0  0  0  0  0
  144.9768  142.4565  157.5777 H   0  0  0  0  0  0  0  0  0  0  0  0
  147.1045  141.7092  156.5309 H   0  0  0  0  0  0  0  0  0  0  0  0
  145.7285  140.9978  155.7100 H   0  0  0  0  0  0  0  0  0  0  0  0
  147.1891  140.8969  153.3347 H   0  0  0  0  0  0  0  0  0  0  0  0
  148.2678  142.2611  153.2270 H   0  0  0  0  0  0  0  0  0  0  0  0
  148.1086  140.6195  155.8139 H   0  0  0  0  0  0  0  0  0  0  0  0
  149.2256  139.9067  153.3701 H   0  0  0  0  0  0  0  0  0  0  0  0
  150.5849  141.8591  154.5301 H   0  0  0  0  0  0  0  0  0  0  0  0
  149.5419  142.7975  155.5726 H   0  0  0  0  0  0  0  0  0  0  0  0
  150.6373  139.0899  156.2969 H   0  0  0  0  0  0  0  0  0  0  0  0
  152.6330  141.2679  160.3986 H   0  0  0  0  0  0  0  0  0  0  0  0
  153.4303  144.6710  160.7826 H   0  0  0  0  0  0  0  0  0  0  0  0
  153.1746  143.1750  161.6759 H   0  0  0  0  0  0  0  0  0  0  0  0
  151.9081  144.4002  161.6445 H   0  0  0  0  0  0  0  0  0  0  0  0
  150.8428  146.0772  158.1685 H   0  0  0  0  0  0  0  0  0  0  0  0
  152.3760  146.0422  159.0360 H   0  0  0  0  0  0  0  0  0  0  0  0
  150.8509  145.8567  159.9160 H   0  0  0  0  0  0  0  0  0  0  0  0
  150.4181  144.1407  156.9067 H   0  0  0  0  0  0  0  0  0  0  0  0
  145.9192  143.3534  152.8175 H   0  0  0  0  0  0  0  0  0  0  0  0
  145.0126  141.9995  153.4540 H   0  0  0  0  0  0  0  0  0  0  0  0
  143.7863  144.1249  153.7933 H   0  0  0  0  0  0  0  0  0  0  0  0
  145.1498  144.8232  154.6314 H   0  0  0  0  0  0  0  0  0  0  0  0
  147.1927  143.3752  154.8526 H   0  0  0  0  0  0  0  0  0  0  0  0
  151.8505  139.2022  158.5572 H   0  0  0  0  0  0  0  0  0  0  0  0
  1  2  1  0  0  0  0
  1 25  1  0  0  0  0
  1 26  1  0  0  0  0
  1 27  1  0  0  0  0
  2  3  1  0  0  0  0
  2 28  1  0  0  0  0
  2 29  1  0  0  0  0
  3  4  1  0  0  0  0
  4 24  1  0  0  0  0
  4  5  1  0  0  0  0
  4 30  1  0  0  0  0
  5  6  1  0  0  0  0
  5 31  1  0  0  0  0
  5 32  1  0  0  0  0
  6  7  1  0  0  0  0
  6 33  1  0  0  0  0
  6 34  1  0  0  0  0
  7  8  1  0  0  0  0
  7 23  1  0  0  0  0
  7 54  1  0  0  0  0
  8  9  1  0  0  0  0
  8 35  1  0  0  0  0
  8 36  1  0  0  0  0
  9 10  1  0  0  0  0
  9 11  1  0  0  0  0
  9 37  1  0  0  0  0
 10 38  1  0  0  0  0
 11 12  1  0  0  0  0
 11 39  1  0  0  0  0
 11 40  1  0  0  0  0
 12 22  1  0  0  0  0
 12 13  1  0  0  0  0
 13 14  2  0  0  0  0
 13 41  1  0  0  0  0
 14 15  1  0  0  0  0
 14 55  1  0  0  0  0
 15 22  2  0  0  0  0
 15 16  1  0  0  0  0
 16 17  2  0  0  0  0
 16 42  1  0  0  0  0
 17 18  1  0  0  0  0
 17 19  1  0  0  0  0
 18 43  1  0  0  0  0
 18 44  1  0  0  0  0
 18 45  1  0  0  0  0
 19 20  1  0  0  0  0
 19 21  2  0  0  0  0
 20 46  1  0  0  0  0
 20 47  1  0  0  0  0
 20 48  1  0  0  0  0
 21 22  1  0  0  0  0
 21 49  1  0  0  0  0
 23 24  1  0  0  0  0
 23 50  1  0  0  0  0
 23 51  1  0  0  0  0
 24 52  1  0  0  0  0
 24 53  1  0  0  0  0
M  CHG  1   7   1
M  CHG  1  14   1
M  END
> <s_m_source_file>
AV-unprocessed.smi

> <i_m_source_file_index>
1697

> <i_lp_mmshare_version>
43012

> <i_f3d_flags>
0

> <s_epik_input>
W0NIM11bQ0gyXU9bQ0hdMVtDSDJdW0NIMl1OKFtDSDJdW0NIMl0xKVtDSDJdW0NASF0oW09IXSlbQ0gyXW4oW2NIXW4yKWMoYzIzKVtjSF1jKFtDSDNdKWMoW2NIXTMpW0NIM10=

> <s_epik_cmdline>
J2VwaWtfcHl0aG9uJywgJy1waCcsICc3LjAnLCAnLXRuJywgJzgnLCAnLW1hJywgJzIwMCcsICctbWV0YWxfYmluZGluZycsICctaW1hZScsICc8aW5maWxlLm1hZT4nLCAnLW9tYWUnLCAnPG91dGZpbGUubWFlPic=

> <r_epik_Ionization_Penalty>
1.20016

> <r_epik_Ionization_Penalty_Charging>
1.20016

> <r_epik_Ionization_Penalty_Neutral>
1.70998e-06

> <r_epik_State_Penalty>
1.27959

> <r_epik_Charging_Adjusted_Penalty>
2.47975

> <i_epik_Tot_Q>
2

> <i_epik_Tot_abs_Q>
2

> <r_epik_Metal_State_Penalty>
5.29682

> <b_epik_Metal_Only>
0

> <s_lp_Force_Field>
OPLS_2005

> <r_lp_Energy>
35.517

> <b_lp_Chiralities_Consistent>
1

> <s_lp_Variant>
AV-unprocessed.smi:1697-6

> <Gold.Version>
5.8.1

> <Gold.Id.Protein>
6NUR|6NUR_protein|mol2

> <Gold.PLP.Fitness>
58.5262

> <Gold.PLP.PLP>
-51.4714

> <Gold.PLP.part.hbond>
-2.0000

> <Gold.PLP.part.metal>
0.0000

> <Gold.PLP.part.buried>
-6.9994

> <Gold.PLP.part.nonpolar>
-41.7161

> <Gold.PLP.part.repulsive>
0.2199

> <Gold.PLP.ligand.clash>
0.0000

> <Gold.PLP.ligand.torsion>
1.1805

> <Gold.PLP.Chemscore.Hbond>
3.0000

> <Gold.PLP.Chemscore.CHOScore>
0.0000

> <Gold.PLP.Chemscore.Metal>
0.0000

> <Gold.Chemscore.Hbonds>
donor molecule, donor type, donor heavy atom, donor atom, acceptor molecule, acceptor atom, score
      L1  H     7    54       P1  8028  0.61
      L1  H    10    38       P1  7957  0.46

> <Gold.PLP.Chemscore.Internal.Correction>
0.4158

> <Gold.Rescore>
     Score         DG    S(hbond)    S(metal)    S(lipo)     H(rot)  DE(clash)    DE(int)     intcor
     17.78     -19.44       1.38        0.00     131.28       2.35       0.13       1.53       ----

> <Gold.Chemscore.Fitness>
17.7837

> <Gold.Chemscore.DG>
-19.4442

> <Gold.Chemscore.ZeroCoef>
-5.4800

> <Gold.Chemscore.Hbond>
1.3810

> <Gold.Chemscore.Metal>
0.0000

> <Gold.Chemscore.Lipo>
131.2758

> <Gold.Chemscore.Internal_Hbond>
0.0000

> <Gold.Chemscore.DEClash>
0.1260

> <Gold.Chemscore.DEInternal>
1.5344

> <Gold.Chemscore.Rot>
2.3468

> <Gold.Chemscore.Internal.Correction>
   9.000000E+99

> <Gold.Chemscore.Hbonds>
donor molecule, donor type, donor heavy atom, donor atom, acceptor molecule, acceptor atom, score
      L1  H     7    54       P1  8028  0.03
      L1  H    10    38       P1  7957  0.46

> <Gold.Chemscore.Hbond.Weighted>
-4.6126

> <Gold.Chemscore.Metal.Weighted>
-0.0000

> <Gold.Chemscore.Lipo.Weighted>
-15.3593

> <Gold.Chemscore.Internal_Hbond.Weighted>
0.0000

> <Gold.Chemscore.DEClash.Weighted>
0.1260

> <Gold.Chemscore.DEInternal.Weighted>
1.5344

> <Gold.Chemscore.Rot.Weighted>
6.0077

> <Gold.Chemscore.Internal.Correction.Weighted>
   9.000000E+99

> <Gold.Protein.RotatedTorsions>
[ 6907 6896 6895 6894 ] final -107.76 input  -60.11 | X-H torsion
[ 7974 7965 7964 7962 ] final  115.68 input  175.53 | X-H torsion
[ 8008 7997 7996 7995 ] final   29.57 input   59.86 | X-H torsion
[ 10167 10162 10161 10158 ] final  -88.89 input  -65.29 | X-H torsion
[ 10718 10713 10712 10709 ] final  -22.59 input   66.30 | X-H torsion
[ 10763 10752 10751 10750 ] final  177.16 input  -60.55 | X-H torsion
[ 11005 11000 10999 10996 ] final   64.79 input  -57.11 | X-H torsion

> <Gold.Protein.ActiveResidues>
 VAL166  LYS551  ARG553  GLY616  TRP617  ASP618  TYR619  PRO620  LYS621  CYS622 
 ASP623  PHE694  ASN695  SER759  ASP760  ASP761  ALA762  ILE779  LEU786  VAL792 
 PHE793  MET794  SER795  GLU796  ALA797  LYS798  CYS799  TRP800  GLU811  SER814 

> <Gold.Protein.RotatedAtoms>
  150.7462  133.9779  159.3566 H   0  0  0  0  0  0  0  0  0  0  0  0  # atno 6907 bound_to 6896
  151.7717  135.0782  160.0370 H   0  0  0  0  0  0  0  0  0  0  0  0  # atno 6908 bound_to 6896
  152.3334  133.5947  159.5862 H   0  0  0  0  0  0  0  0  0  0  0  0  # atno 6909 bound_to 6896
  145.1890  139.3010  143.4378 H   0  0  0  0  0  0  0  0  0  0  0  0  # atno 7974 bound_to 7965
  155.0767  140.3206  155.4614 H   0  0  0  0  0  0  0  0  0  0  0  0  # atno 8008 bound_to 7997
  156.2777  140.2102  156.5840 H   0  0  0  0  0  0  0  0  0  0  0  0  # atno 8009 bound_to 7997
  154.7011  140.0507  157.0446 H   0  0  0  0  0  0  0  0  0  0  0  0  # atno 8010 bound_to 7997
  140.3702  143.2798  151.9510 H   0  0  0  0  0  0  0  0  0  0  0  0  # atno 10167 bound_to 10162
  156.5025  130.4591  149.6693 H   0  0  0  0  0  0  0  0  0  0  0  0  # atno 10718 bound_to 10713
  154.4907  135.2779  155.1498 H   0  0  0  0  0  0  0  0  0  0  0  0  # atno 10763 bound_to 10752
  154.3171  135.6217  153.5495 H   0  0  0  0  0  0  0  0  0  0  0  0  # atno 10764 bound_to 10752
  152.9887  135.5734  154.5328 H   0  0  0  0  0  0  0  0  0  0  0  0  # atno 10765 bound_to 10752
  139.9936  134.6552  156.0048 H   0  0  0  0  0  0  0  0  0  0  0  0  # atno 11005 bound_to 11000
  146.3440  140.2095  142.8590 LP  0  0  0  0  0  0  0  0  0  0  0  0  # atno 17320 bound_to 7965
  145.0060  140.8673  143.5252 LP  0  0  0  0  0  0  0  0  0  0  0  0  # atno 17321 bound_to 7965
  139.4804  144.5914  151.7765 LP  0  0  0  0  0  0  0  0  0  0  0  0  # atno 17342 bound_to 10162
  140.5041  144.1125  150.5978 LP  0  0  0  0  0  0  0  0  0  0  0  0  # atno 17343 bound_to 10162
  156.3319  130.7336  151.2267 LP  0  0  0  0  0  0  0  0  0  0  0  0  # atno 17370 bound_to 10713
  157.7461  131.0427  150.4710 LP  0  0  0  0  0  0  0  0  0  0  0  0  # atno 17371 bound_to 10713
  141.1586  133.6540  156.4243 LP  0  0  0  0  0  0  0  0  0  0  0  0  # atno 17394 bound_to 11000
  140.4861  134.6619  157.5191 LP  0  0  0  0  0  0  0  0  0  0  0  0  # atno 17395 bound_to 11000

$$$$
