AV-unprocessed.smi:3026|AV-procd|sdf|11513|dock2
  -GOLD-   2272016453D 1   1.00000     0.00000
 Structure written by MMmdl.
 33 34  0  0  0  0  0  0  0  0  1 V2000
  151.8513  145.5105  159.8111 C   0  0  0  0  0  0  0  0  0  0  0  0
  152.2552  144.2071  160.4661 C   0  0  0  0  0  0  0  0  0  0  0  0
  152.5760  144.1385  161.8374 C   0  0  0  0  0  0  0  0  0  0  0  0
  152.9401  142.8682  162.3270 C   0  0  0  0  0  0  0  0  0  0  0  0
  152.9772  141.7805  161.5269 N   0  0  0  0  0  0  0  0  0  0  0  0
  152.6444  141.9559  160.2434 C   0  0  0  0  0  0  0  0  0  0  0  0
  152.7149  140.8278  159.4351 N   0  0  0  0  0  0  0  0  0  0  0  0
  153.9452  140.0690  159.6425 C   0  0  0  0  0  0  0  0  0  0  0  0
  153.8566  138.6847  158.9903 C   0  0  0  0  0  0  0  0  0  0  0  0
  153.5827  138.8517  157.6082 O   0  0  0  0  0  0  0  0  0  0  0  0
  152.3258  139.4819  157.4000 C   0  0  0  0  0  0  0  0  0  0  0  0
  152.2986  140.8994  158.0246 C   0  0  1  0  0  0  0  0  0  0  0  0
  150.8912  141.5379  157.8584 C   0  0  0  0  0  0  0  0  0  0  0  0
  150.4184  141.7074  156.4038 C   0  0  0  0  0  0  0  0  0  0  0  0
  149.1390  142.3034  156.3634 O   0  0  0  0  0  0  0  0  0  0  0  0
  152.2969  143.1162  159.6711 N   0  0  0  0  0  0  0  0  0  0  0  0
  151.5825  146.2576  160.5584 H   0  0  0  0  0  0  0  0  0  0  0  0
  150.9921  145.3612  159.1565 H   0  0  0  0  0  0  0  0  0  0  0  0
  152.6753  145.9024  159.2146 H   0  0  0  0  0  0  0  0  0  0  0  0
  152.5472  145.0071  162.4787 H   0  0  0  0  0  0  0  0  0  0  0  0
  153.2042  142.7247  163.3643 H   0  0  0  0  0  0  0  0  0  0  0  0
  154.7830  140.6265  159.2216 H   0  0  0  0  0  0  0  0  0  0  0  0
  154.1435  139.9552  160.7091 H   0  0  0  0  0  0  0  0  0  0  0  0
  154.8017  138.1539  159.1039 H   0  0  0  0  0  0  0  0  0  0  0  0
  153.0862  138.0738  159.4637 H   0  0  0  0  0  0  0  0  0  0  0  0
  152.1640  139.5310  156.3241 H   0  0  0  0  0  0  0  0  0  0  0  0
  151.5297  138.8586  157.8110 H   0  0  0  0  0  0  0  0  0  0  0  0
  153.0314  141.5173  157.5038 H   0  0  0  0  0  0  0  0  0  0  0  0
  150.1615  140.9331  158.3983 H   0  0  0  0  0  0  0  0  0  0  0  0
  150.8516  142.5226  158.3228 H   0  0  0  0  0  0  0  0  0  0  0  0
  151.1181  142.2979  155.8139 H   0  0  0  0  0  0  0  0  0  0  0  0
  150.3543  140.7311  155.9230 H   0  0  0  0  0  0  0  0  0  0  0  0
  149.2453  143.2398  156.2904 H   0  0  0  0  0  0  0  0  0  0  0  0
  1  2  1  0  0  0  0
  1 17  1  0  0  0  0
  1 18  1  0  0  0  0
  1 19  1  0  0  0  0
  2 16  1  0  0  0  0
  2  3  2  0  0  0  0
  3  4  1  0  0  0  0
  3 20  1  0  0  0  0
  4  5  2  0  0  0  0
  4 21  1  0  0  0  0
  5  6  1  0  0  0  0
  6  7  1  0  0  0  0
  6 16  2  0  0  0  0
  7 12  1  0  0  0  0
  7  8  1  0  0  0  0
  8  9  1  0  0  0  0
  8 22  1  0  0  0  0
  8 23  1  0  0  0  0
  9 10  1  0  0  0  0
  9 24  1  0  0  0  0
  9 25  1  0  0  0  0
 10 11  1  0  0  0  0
 11 12  1  0  0  0  0
 11 26  1  0  0  0  0
 11 27  1  0  0  0  0
 12 13  1  0  0  0  0
 12 28  1  0  0  0  0
 13 14  1  0  0  0  0
 13 29  1  0  0  0  0
 13 30  1  0  0  0  0
 14 15  1  0  0  0  0
 14 31  1  0  0  0  0
 14 32  1  0  0  0  0
 15 33  1  0  0  0  0
M  END
> <s_m_source_file>
AV-unprocessed.smi

> <i_m_source_file_index>
3026

> <i_lp_mmshare_version>
43012

> <i_f3d_flags>
0

> <s_epik_input>
W0NIM11jMVtjSF1bY0hdbmMobjEpTjJbQ0gyXVtDSDJdT1tDSDJdW0NASF0yW0NIMl1bQ0gyXVtPSF0=

> <s_epik_cmdline>
J2VwaWtfcHl0aG9uJywgJy1waCcsICc3LjAnLCAnLXRuJywgJzgnLCAnLW1hJywgJzIwMCcsICctbWV0YWxfYmluZGluZycsICctaW1hZScsICc8aW5maWxlLm1hZT4nLCAnLW9tYWUnLCAnPG91dGZpbGUubWFlPic=

> <r_lp_tautomer_probability>
1

> <r_epik_Ionization_Penalty>
6.52665e-05

> <r_epik_Ionization_Penalty_Charging>
0

> <r_epik_Ionization_Penalty_Neutral>
6.52665e-05

> <r_epik_State_Penalty>
-0

> <r_epik_Charging_Adjusted_Penalty>
0

> <i_epik_Tot_Q>
0

> <i_epik_Tot_abs_Q>
0

> <r_epik_Metal_State_Penalty>
-0

> <b_epik_Metal_Only>
0

> <s_lp_Force_Field>
OPLS_2005

> <r_lp_Energy>
15.2375

> <b_lp_Chiralities_Consistent>
1

> <s_lp_Variant>
AV-unprocessed.smi:3026-1

> <Gold.Version>
5.8.1

> <Gold.Id.Protein>
6NUR|6NUR_protein|mol2

> <Gold.PLP.Fitness>
39.6089

> <Gold.PLP.PLP>
-33.6568

> <Gold.PLP.part.hbond>
-2.0000

> <Gold.PLP.part.metal>
0.0000

> <Gold.PLP.part.buried>
-6.0811

> <Gold.PLP.part.nonpolar>
-25.5467

> <Gold.PLP.part.repulsive>
0.0335

> <Gold.PLP.ligand.clash>
0.0000

> <Gold.PLP.ligand.torsion>
0.1805

> <Gold.PLP.Chemscore.Hbond>
2.0000

> <Gold.PLP.Chemscore.CHOScore>
0.0000

> <Gold.PLP.Chemscore.Metal>
0.0000

> <Gold.Chemscore.Hbonds>
donor molecule, donor type, donor heavy atom, donor atom, acceptor molecule, acceptor atom, score
      L1  H    15    33       P1  8028  1.00
      P1  H  7997  8010       L1    10  1.00

> <Gold.PLP.Chemscore.Internal.Correction>
0.3131

> <Gold.Rescore>
     Score         DG    S(hbond)    S(metal)    S(lipo)     H(rot)  DE(clash)    DE(int)     intcor
     14.13     -15.85       1.55        0.00      87.75       1.99       0.25       1.47       ----

> <Gold.Chemscore.Fitness>
14.1296

> <Gold.Chemscore.DG>
-15.8505

> <Gold.Chemscore.ZeroCoef>
-5.4800

> <Gold.Chemscore.Hbond>
1.5537

> <Gold.Chemscore.Metal>
0.0000

> <Gold.Chemscore.Lipo>
87.7457

> <Gold.Chemscore.Internal_Hbond>
0.0000

> <Gold.Chemscore.DEClash>
0.2464

> <Gold.Chemscore.DEInternal>
1.4745

> <Gold.Chemscore.Rot>
1.9864

> <Gold.Chemscore.Internal.Correction>
   9.000000E+99

> <Gold.Chemscore.Hbonds>
donor molecule, donor type, donor heavy atom, donor atom, acceptor molecule, acceptor atom, score
      L1  H    15    33       P1  8028  0.97
      P1  H  7997  8010       L1    10  0.21

> <Gold.Chemscore.Hbond.Weighted>
-5.1894

> <Gold.Chemscore.Metal.Weighted>
-0.0000

> <Gold.Chemscore.Lipo.Weighted>
-10.2662

> <Gold.Chemscore.Internal_Hbond.Weighted>
0.0000

> <Gold.Chemscore.DEClash.Weighted>
0.2464

> <Gold.Chemscore.DEInternal.Weighted>
1.4745

> <Gold.Chemscore.Rot.Weighted>
5.0851

> <Gold.Chemscore.Internal.Correction.Weighted>
   9.000000E+99

> <Gold.Protein.RotatedTorsions>
[ 6907 6896 6895 6894 ] final -127.60 input  -60.11 | X-H torsion
[ 7974 7965 7964 7962 ] final  165.19 input  175.53 | X-H torsion
[ 8008 7997 7996 7995 ] final   31.10 input   59.86 | X-H torsion
[ 10167 10162 10161 10158 ] final  166.65 input  -65.29 | X-H torsion
[ 10718 10713 10712 10709 ] final -163.30 input   66.30 | X-H torsion
[ 10763 10752 10751 10750 ] final   -3.79 input  -60.55 | X-H torsion
[ 11005 11000 10999 10996 ] final   80.35 input  -57.11 | X-H torsion

> <Gold.Protein.ActiveResidues>
 VAL166  LYS551  ARG553  GLY616  TRP617  ASP618  TYR619  PRO620  LYS621  CYS622 
 ASP623  PHE694  ASN695  SER759  ASP760  ASP761  ALA762  ILE779  LEU786  VAL792 
 PHE793  MET794  SER795  GLU796  ALA797  LYS798  CYS799  TRP800  GLU811  SER814 

> <Gold.Protein.RotatedAtoms>
  150.9090  133.7021  159.2859 H   0  0  0  0  0  0  0  0  0  0  0  0  # atno 6907 bound_to 6896
  151.4514  135.1029  159.9708 H   0  0  0  0  0  0  0  0  0  0  0  0  # atno 6908 bound_to 6896
  152.4919  133.8475  159.7240 H   0  0  0  0  0  0  0  0  0  0  0  0  # atno 6909 bound_to 6896
  144.7513  139.8434  143.6365 H   0  0  0  0  0  0  0  0  0  0  0  0  # atno 7974 bound_to 7965
  155.1009  140.3229  155.4547 H   0  0  0  0  0  0  0  0  0  0  0  0  # atno 8008 bound_to 7997
  156.2717  140.2061  156.6082 H   0  0  0  0  0  0  0  0  0  0  0  0  # atno 8009 bound_to 7997
  154.6830  140.0524  157.0272 H   0  0  0  0  0  0  0  0  0  0  0  0  # atno 8010 bound_to 7997
  139.4929  144.4005  151.9415 H   0  0  0  0  0  0  0  0  0  0  0  0  # atno 10167 bound_to 10162
  156.6227  130.8897  151.2961 H   0  0  0  0  0  0  0  0  0  0  0  0  # atno 10718 bound_to 10713
  153.3761  135.6996  153.6600 H   0  0  0  0  0  0  0  0  0  0  0  0  # atno 10763 bound_to 10752
  153.5230  135.3608  155.2641 H   0  0  0  0  0  0  0  0  0  0  0  0  # atno 10764 bound_to 10752
  154.8687  135.4162  154.3050 H   0  0  0  0  0  0  0  0  0  0  0  0  # atno 10765 bound_to 10752
  139.9138  134.7913  156.1898 H   0  0  0  0  0  0  0  0  0  0  0  0  # atno 11005 bound_to 11000
  146.1467  139.4538  143.0075 LP  0  0  0  0  0  0  0  0  0  0  0  0  # atno 17320 bound_to 7965
  145.6934  141.0157  143.1543 LP  0  0  0  0  0  0  0  0  0  0  0  0  # atno 17321 bound_to 7965
  140.3444  144.3164  150.5961 LP  0  0  0  0  0  0  0  0  0  0  0  0  # atno 17342 bound_to 10162
  140.5538  143.2202  151.7882 LP  0  0  0  0  0  0  0  0  0  0  0  0  # atno 17343 bound_to 10162
  157.7223  130.9575  150.1488 LP  0  0  0  0  0  0  0  0  0  0  0  0  # atno 17370 bound_to 10713
  156.2298  130.3681  149.8458 LP  0  0  0  0  0  0  0  0  0  0  0  0  # atno 17371 bound_to 10713
  141.0591  133.6850  156.1917 LP  0  0  0  0  0  0  0  0  0  0  0  0  # atno 17394 bound_to 11000
  140.6690  134.4888  157.5586 LP  0  0  0  0  0  0  0  0  0  0  0  0  # atno 17395 bound_to 11000

$$$$
