AV-unprocessed.smi:749|AV-procd|sdf|3585|dock4
  -GOLD-   22720 0583D 1   1.00000     0.00000
 Structure written by MMmdl.
 43 44  0  0  0  0  0  0  0  0  1 V2000
  151.6090  144.7837  158.7625 C   0  0  0  0  0  0  0  0  0  0  0  0
  151.9854  143.4269  159.1626 N   0  0  0  0  0  0  0  0  0  0  0  0
  152.7084  143.3391  160.4408 C   0  0  0  0  0  0  0  0  0  0  0  0
  152.7828  141.9189  161.0275 C   0  0  2  0  0  0  0  0  0  0  0  0
  153.7720  141.8808  162.0988 N   0  0  0  0  0  0  0  0  0  0  0  0
  153.8126  142.7039  163.1598 C   0  0  0  0  0  0  0  0  0  0  0  0
  152.9974  143.6083  163.3329 O   0  0  0  0  0  0  0  0  0  0  0  0
  154.8090  142.4850  164.0436 N   0  0  0  0  0  0  0  0  0  0  0  0
  155.1445  143.1532  165.2554 C   0  0  0  0  0  0  0  0  0  0  0  0
  155.6619  142.4210  166.3561 C   0  0  0  0  0  0  0  0  0  0  0  0
  155.8635  143.3803  167.3110 C   0  0  0  0  0  0  0  0  0  0  0  0
  156.3867  143.3440  168.7196 C   0  0  0  0  0  0  0  0  0  0  0  0
  157.7873  142.7017  168.7666 C   0  0  0  0  0  0  0  0  0  0  0  0
  155.4426  142.5160  169.6115 C   0  0  0  0  0  0  0  0  0  0  0  0
  156.4893  144.7747  169.2807 C   0  0  0  0  0  0  0  0  0  0  0  0
  155.4996  144.6000  166.8252 O   0  0  0  0  0  0  0  0  0  0  0  0
  155.0406  144.4483  165.5125 N   0  0  0  0  0  0  0  0  0  0  0  0
  153.1447  140.9221  159.9221 C   0  0  0  0  0  0  0  0  0  0  0  0
  152.0956  140.9571  158.8049 C   0  0  0  0  0  0  0  0  0  0  0  0
  151.7300  142.3768  158.3450 C   0  0  0  0  0  0  0  0  0  0  0  0
  151.1827  142.5084  157.2499 O   0  0  0  0  0  0  0  0  0  0  0  0
  150.5238  144.8742  158.6964 H   0  0  0  0  0  0  0  0  0  0  0  0
  152.0331  145.0330  157.7884 H   0  0  0  0  0  0  0  0  0  0  0  0
  151.9619  145.5346  159.4708 H   0  0  0  0  0  0  0  0  0  0  0  0
  153.7164  143.7195  160.2672 H   0  0  0  0  0  0  0  0  0  0  0  0
  152.2482  144.0030  161.1743 H   0  0  0  0  0  0  0  0  0  0  0  0
  151.8013  141.6611  161.4310 H   0  0  0  0  0  0  0  0  0  0  0  0
  154.4822  141.1650  162.0348 H   0  0  0  0  0  0  0  0  0  0  0  0
  155.4352  141.7339  163.7927 H   0  0  0  0  0  0  0  0  0  0  0  0
  155.8547  141.3614  166.4334 H   0  0  0  0  0  0  0  0  0  0  0  0
  158.1757  142.6654  169.7850 H   0  0  0  0  0  0  0  0  0  0  0  0
  158.5032  143.2627  168.1648 H   0  0  0  0  0  0  0  0  0  0  0  0
  157.7690  141.6787  168.3882 H   0  0  0  0  0  0  0  0  0  0  0  0
  155.3508  141.4925  169.2467 H   0  0  0  0  0  0  0  0  0  0  0  0
  154.4402  142.9448  169.6394 H   0  0  0  0  0  0  0  0  0  0  0  0
  155.8042  142.4679  170.6393 H   0  0  0  0  0  0  0  0  0  0  0  0
  156.8779  144.7766  170.2999 H   0  0  0  0  0  0  0  0  0  0  0  0
  155.5165  145.2674  169.3025 H   0  0  0  0  0  0  0  0  0  0  0  0
  157.1545  145.3905  168.6741 H   0  0  0  0  0  0  0  0  0  0  0  0
  154.1288  141.1558  159.5126 H   0  0  0  0  0  0  0  0  0  0  0  0
  153.2095  139.9117  160.3273 H   0  0  0  0  0  0  0  0  0  0  0  0
  152.4458  140.3774  157.9501 H   0  0  0  0  0  0  0  0  0  0  0  0
  151.1796  140.4775  159.1516 H   0  0  0  0  0  0  0  0  0  0  0  0
  1  2  1  0  0  0  0
  1 22  1  0  0  0  0
  1 23  1  0  0  0  0
  1 24  1  0  0  0  0
  2 20  1  0  0  0  0
  2  3  1  0  0  0  0
  3  4  1  0  0  0  0
  3 25  1  0  0  0  0
  3 26  1  0  0  0  0
  4  5  1  0  0  0  0
  4 18  1  0  0  0  0
  4 27  1  0  0  0  0
  5  6  1  0  0  0  0
  5 28  1  0  0  0  0
  6  7  2  0  0  0  0
  6  8  1  0  0  0  0
  8  9  1  0  0  0  0
  8 29  1  0  0  0  0
  9 17  2  0  0  0  0
  9 10  1  0  0  0  0
 10 11  2  0  0  0  0
 10 30  1  0  0  0  0
 11 12  1  0  0  0  0
 11 16  1  0  0  0  0
 12 13  1  0  0  0  0
 12 14  1  0  0  0  0
 12 15  1  0  0  0  0
 13 31  1  0  0  0  0
 13 32  1  0  0  0  0
 13 33  1  0  0  0  0
 14 34  1  0  0  0  0
 14 35  1  0  0  0  0
 14 36  1  0  0  0  0
 15 37  1  0  0  0  0
 15 38  1  0  0  0  0
 15 39  1  0  0  0  0
 16 17  1  0  0  0  0
 18 19  1  0  0  0  0
 18 40  1  0  0  0  0
 18 41  1  0  0  0  0
 19 20  1  0  0  0  0
 19 42  1  0  0  0  0
 19 43  1  0  0  0  0
 20 21  2  0  0  0  0
M  END
> <s_m_source_file>
AV-unprocessed.smi

> <i_m_source_file_index>
749

> <i_lp_mmshare_version>
43012

> <i_f3d_flags>
0

> <s_epik_input>
Tz1DMVtDSDJdW0NIMl1bQ0BASF0oW0NIMl1OMVtDSDNdKVtOSF1DKD1PKVtOSF1jMltjSF1jKG9uMilDKFtDSDNdKShbQ0gzXSlbQ0gzXQ==

> <s_epik_cmdline>
J2VwaWtfcHl0aG9uJywgJy1waCcsICc3LjAnLCAnLXRuJywgJzgnLCAnLW1hJywgJzIwMCcsICctbWV0YWxfYmluZGluZycsICctaW1hZScsICc8aW5maWxlLm1hZT4nLCAnLW9tYWUnLCAnPG91dGZpbGUubWFlPic=

> <r_lp_tautomer_probability>
1

> <r_epik_Ionization_Penalty>
2.91905e-05

> <r_epik_Ionization_Penalty_Charging>
0

> <r_epik_Ionization_Penalty_Neutral>
2.91905e-05

> <r_epik_State_Penalty>
-0

> <r_epik_Charging_Adjusted_Penalty>
0

> <i_epik_Tot_Q>
0

> <i_epik_Tot_abs_Q>
0

> <r_epik_Metal_State_Penalty>
0.0102923

> <b_epik_Metal_Only>
0

> <s_lp_Force_Field>
OPLS_2005

> <r_lp_Energy>
15.3042

> <b_lp_Chiralities_Consistent>
1

> <s_lp_Variant>
AV-unprocessed.smi:749-2

> <Gold.Version>
5.8.1

> <Gold.Id.Protein>
6NUR|6NUR_protein|mol2

> <Gold.PLP.Fitness>
42.6130

> <Gold.PLP.PLP>
-43.3143

> <Gold.PLP.part.hbond>
-3.0613

> <Gold.PLP.part.metal>
0.0000

> <Gold.PLP.part.buried>
-5.4810

> <Gold.PLP.part.nonpolar>
-33.2392

> <Gold.PLP.part.repulsive>
0.4584

> <Gold.PLP.ligand.clash>
0.0000

> <Gold.PLP.ligand.torsion>
0.3515

> <Gold.PLP.Chemscore.Hbond>
0.0000

> <Gold.PLP.Chemscore.CHOScore>
0.0000

> <Gold.PLP.Chemscore.Metal>
0.0000

> <Gold.PLP.Chemscore.Internal.Correction>
0.0017

> <Gold.Rescore>
     Score         DG    S(hbond)    S(metal)    S(lipo)     H(rot)  DE(clash)    DE(int)     intcor
      9.07     -11.40       0.00        0.00      77.57       1.23       0.14       2.20       ----

> <Gold.Chemscore.Fitness>
9.0653

> <Gold.Chemscore.DG>
-11.4022

> <Gold.Chemscore.ZeroCoef>
-5.4800

> <Gold.Chemscore.Hbond>
0.0000

> <Gold.Chemscore.Metal>
0.0000

> <Gold.Chemscore.Lipo>
77.5662

> <Gold.Chemscore.Internal_Hbond>
0.0000

> <Gold.Chemscore.DEClash>
0.1416

> <Gold.Chemscore.DEInternal>
2.1953

> <Gold.Chemscore.Rot>
1.2317

> <Gold.Chemscore.Internal.Correction>
   9.000000E+99

> <Gold.Chemscore.Hbond.Weighted>
-0.0000

> <Gold.Chemscore.Metal.Weighted>
-0.0000

> <Gold.Chemscore.Lipo.Weighted>
-9.0752

> <Gold.Chemscore.Internal_Hbond.Weighted>
0.0000

> <Gold.Chemscore.DEClash.Weighted>
0.1416

> <Gold.Chemscore.DEInternal.Weighted>
2.1953

> <Gold.Chemscore.Rot.Weighted>
3.1531

> <Gold.Chemscore.Internal.Correction.Weighted>
   9.000000E+99

> <Gold.Protein.RotatedTorsions>
[ 6907 6896 6895 6894 ] final  -72.78 input  -60.11 | X-H torsion
[ 7974 7965 7964 7962 ] final   78.58 input  175.53 | X-H torsion
[ 8008 7997 7996 7995 ] final   81.82 input   59.86 | X-H torsion
[ 10167 10162 10161 10158 ] final   18.19 input  -65.29 | X-H torsion
[ 10718 10713 10712 10709 ] final  123.79 input   66.30 | X-H torsion
[ 10763 10752 10751 10750 ] final   56.35 input  -60.55 | X-H torsion
[ 11005 11000 10999 10996 ] final  178.65 input  -57.11 | X-H torsion

> <Gold.Protein.ActiveResidues>
 VAL166  LYS551  ARG553  GLY616  TRP617  ASP618  TYR619  PRO620  LYS621  CYS622 
 ASP623  PHE694  ASN695  SER759  ASP760  ASP761  ALA762  ILE779  LEU786  VAL792 
 PHE793  MET794  SER795  GLU796  ALA797  LYS798  CYS799  TRP800  GLU811  SER814 

> <Gold.Protein.RotatedAtoms>
  150.7156  134.5113  159.5608 H   0  0  0  0  0  0  0  0  0  0  0  0  # atno 6907 bound_to 6896
  152.2689  134.7951  160.0427 H   0  0  0  0  0  0  0  0  0  0  0  0  # atno 6908 bound_to 6896
  151.8638  133.3427  159.3749 H   0  0  0  0  0  0  0  0  0  0  0  0  # atno 6909 bound_to 6896
  145.6753  139.2508  143.1845 H   0  0  0  0  0  0  0  0  0  0  0  0  # atno 7974 bound_to 7965
  155.9023  140.3432  155.6035 H   0  0  0  0  0  0  0  0  0  0  0  0  # atno 8008 bound_to 7997
  155.7486  140.0817  157.2231 H   0  0  0  0  0  0  0  0  0  0  0  0  # atno 8009 bound_to 7997
  154.4045  140.1557  156.2685 H   0  0  0  0  0  0  0  0  0  0  0  0  # atno 8010 bound_to 7997
  140.5671  143.9230  150.6685 H   0  0  0  0  0  0  0  0  0  0  0  0  # atno 10167 bound_to 10162
  157.5637  131.1088  150.8493 H   0  0  0  0  0  0  0  0  0  0  0  0  # atno 10718 bound_to 10713
  152.9831  135.5679  154.5215 H   0  0  0  0  0  0  0  0  0  0  0  0  # atno 10763 bound_to 10752
  154.4702  135.2784  155.1650 H   0  0  0  0  0  0  0  0  0  0  0  0  # atno 10764 bound_to 10752
  154.3201  135.6270  153.5557 H   0  0  0  0  0  0  0  0  0  0  0  0  # atno 10765 bound_to 10752
  140.3975  134.6807  157.4543 H   0  0  0  0  0  0  0  0  0  0  0  0  # atno 11005 bound_to 11000
  146.1010  140.7543  142.9549 LP  0  0  0  0  0  0  0  0  0  0  0  0  # atno 17320 bound_to 7965
  144.7043  140.3788  143.7130 LP  0  0  0  0  0  0  0  0  0  0  0  0  # atno 17321 bound_to 7965
  140.2695  143.3466  152.1250 LP  0  0  0  0  0  0  0  0  0  0  0  0  # atno 17342 bound_to 10162
  139.5099  144.6874  151.5850 LP  0  0  0  0  0  0  0  0  0  0  0  0  # atno 17343 bound_to 10162
  156.8983  130.5237  149.5283 LP  0  0  0  0  0  0  0  0  0  0  0  0  # atno 17370 bound_to 10713
  156.0687  130.5725  150.9340 LP  0  0  0  0  0  0  0  0  0  0  0  0  # atno 17371 bound_to 10713
  140.0361  134.6335  155.9042 LP  0  0  0  0  0  0  0  0  0  0  0  0  # atno 17394 bound_to 11000
  141.1869  133.6558  156.5258 LP  0  0  0  0  0  0  0  0  0  0  0  0  # atno 17395 bound_to 11000

$$$$
