AV-unprocessed.smi:1784|AV-procd|sdf|7199|dock4
  -GOLD-   22720 8443D 1   1.00000     0.00000
 Structure written by MMmdl.
 44 46  0  0  0  0  0  0  0  0  2 V2000
  150.6127  140.7882  156.3228 O   0  0  0  0  0  0  0  0  0  0  0  0
  150.0262  141.8630  156.1973 C   0  0  0  0  0  0  0  0  0  0  0  0
  150.4391  143.0067  156.7607 N   0  0  0  0  0  0  0  0  0  0  0  0
  151.6494  143.1567  157.5609 C   0  0  0  0  0  0  0  0  0  0  0  0
  151.3289  143.6914  158.9667 C   0  0  1  0  0  0  0  0  0  0  0  0
  152.4208  143.4014  159.9960 C   0  0  0  0  0  0  0  0  0  0  0  0
  152.1956  144.5065  161.0021 C   0  0  0  0  0  0  0  0  0  0  0  0
  151.8458  145.6799  160.0932 C   0  0  0  0  0  0  0  0  0  0  0  0
  151.1972  145.1122  158.9586 O   0  0  0  0  0  0  0  0  0  0  0  0
  148.9137  142.0535  155.4688 N   0  0  0  0  0  0  0  0  0  0  0  0
  148.2162  141.0988  154.6763 C   0  0  0  0  0  0  0  0  0  0  0  0
  148.8284  139.8786  154.2904 C   0  0  0  0  0  0  0  0  0  0  0  0
  148.1241  138.9616  153.4881 C   0  0  0  0  0  0  0  0  0  0  0  0
  146.8150  139.2761  153.0856 C   0  0  0  0  0  0  0  0  0  0  0  0
  146.2529  140.4355  153.4858 N   0  3  0  0  0  0  0  0  0  0  0  0
  146.8733  141.3516  154.2708 C   0  0  0  0  0  0  0  0  0  0  0  0
  146.1521  142.5159  154.6210 N   0  0  0  0  0  0  0  0  0  0  0  0
  145.7332  143.4635  153.5945 C   0  0  0  0  0  0  0  0  0  0  0  0
  144.7102  144.3638  154.2816 C   0  0  0  0  0  0  0  0  0  0  0  0
  144.0103  143.3971  155.2321 C   0  0  0  0  0  0  0  0  0  0  0  0
  145.1230  142.4310  155.6523 C   0  0  0  0  0  0  0  0  0  0  0  0
  149.8938  143.8416  156.6039 H   0  0  0  0  0  0  0  0  0  0  0  0
  152.1149  142.1742  157.6419 H   0  0  0  0  0  0  0  0  0  0  0  0
  152.3743  143.8001  157.0587 H   0  0  0  0  0  0  0  0  0  0  0  0
  150.3870  143.2717  159.3238 H   0  0  0  0  0  0  0  0  0  0  0  0
  152.3427  142.4044  160.4302 H   0  0  0  0  0  0  0  0  0  0  0  0
  153.4107  143.5036  159.5487 H   0  0  0  0  0  0  0  0  0  0  0  0
  151.3495  144.2619  161.6456 H   0  0  0  0  0  0  0  0  0  0  0  0
  153.0636  144.6985  161.6334 H   0  0  0  0  0  0  0  0  0  0  0  0
  151.2130  146.4166  160.5885 H   0  0  0  0  0  0  0  0  0  0  0  0
  152.7526  146.1836  159.7562 H   0  0  0  0  0  0  0  0  0  0  0  0
  148.6029  143.0092  155.3768 H   0  0  0  0  0  0  0  0  0  0  0  0
  149.8312  139.6291  154.6030 H   0  0  0  0  0  0  0  0  0  0  0  0
  148.5839  138.0323  153.1846 H   0  0  0  0  0  0  0  0  0  0  0  0
  146.2007  138.6372  152.4678 H   0  0  0  0  0  0  0  0  0  0  0  0
  146.5786  144.0332  153.2079 H   0  0  0  0  0  0  0  0  0  0  0  0
  145.2594  142.9411  152.7624 H   0  0  0  0  0  0  0  0  0  0  0  0
  145.2197  145.1429  154.8509 H   0  0  0  0  0  0  0  0  0  0  0  0
  144.0282  144.8459  153.5805 H   0  0  0  0  0  0  0  0  0  0  0  0
  143.5406  143.8970  156.0796 H   0  0  0  0  0  0  0  0  0  0  0  0
  143.2352  142.8514  154.6925 H   0  0  0  0  0  0  0  0  0  0  0  0
  144.7422  141.4158  155.7722 H   0  0  0  0  0  0  0  0  0  0  0  0
  145.5520  142.7495  156.6026 H   0  0  0  0  0  0  0  0  0  0  0  0
  145.2980  140.6308  153.1850 H   0  0  0  0  0  0  0  0  0  0  0  0
  1  2  2  0  0  0  0
  2  3  1  0  0  0  0
  2 10  1  0  0  0  0
  3  4  1  0  0  0  0
  3 22  1  0  0  0  0
  4  5  1  0  0  0  0
  4 23  1  0  0  0  0
  4 24  1  0  0  0  0
  5  9  1  0  0  0  0
  5  6  1  0  0  0  0
  5 25  1  0  0  0  0
  6  7  1  0  0  0  0
  6 26  1  0  0  0  0
  6 27  1  0  0  0  0
  7  8  1  0  0  0  0
  7 28  1  0  0  0  0
  7 29  1  0  0  0  0
  8  9  1  0  0  0  0
  8 30  1  0  0  0  0
  8 31  1  0  0  0  0
 10 11  1  0  0  0  0
 10 32  1  0  0  0  0
 11 16  1  0  0  0  0
 11 12  2  0  0  0  0
 12 13  1  0  0  0  0
 12 33  1  0  0  0  0
 13 14  2  0  0  0  0
 13 34  1  0  0  0  0
 14 15  1  0  0  0  0
 14 35  1  0  0  0  0
 15 16  2  0  0  0  0
 15 44  1  0  0  0  0
 16 17  1  0  0  0  0
 17 21  1  0  0  0  0
 17 18  1  0  0  0  0
 18 19  1  0  0  0  0
 18 36  1  0  0  0  0
 18 37  1  0  0  0  0
 19 20  1  0  0  0  0
 19 38  1  0  0  0  0
 19 39  1  0  0  0  0
 20 21  1  0  0  0  0
 20 40  1  0  0  0  0
 20 41  1  0  0  0  0
 21 42  1  0  0  0  0
 21 43  1  0  0  0  0
M  CHG  1  15   1
M  END
> <s_m_source_file>
AV-unprocessed.smi

> <i_m_source_file_index>
1784

> <i_lp_mmshare_version>
43012

> <i_f3d_flags>
0

> <s_epik_input>
TzFbQ0gyXVtDSDJdW0NIMl1bQ0BIXTFbQ0gyXVtOSF1DKD1PKVtOSF1jMltjSF1bY0hdW2NIXW5jMk4zW0NIMl1bQ0gyXVtDSDJdW0NIMl0z

> <s_epik_cmdline>
J2VwaWtfcHl0aG9uJywgJy1waCcsICc3LjAnLCAnLXRuJywgJzgnLCAnLW1hJywgJzIwMCcsICctbWV0YWxfYmluZGluZycsICctaW1hZScsICc8aW5maWxlLm1hZT4nLCAnLW9tYWUnLCAnPG91dGZpbGUubWFlPic=

> <r_lp_tautomer_probability>
0.999994

> <r_epik_Ionization_Penalty>
1.11624

> <r_epik_Ionization_Penalty_Charging>
1.11622

> <r_epik_Ionization_Penalty_Neutral>
1.90191e-05

> <r_epik_State_Penalty>
1.17466

> <r_epik_Charging_Adjusted_Penalty>
2.29088

> <i_epik_Tot_Q>
1

> <i_epik_Tot_abs_Q>
1

> <r_epik_Metal_State_Penalty>
1.25978

> <b_epik_Metal_Only>
0

> <s_lp_Force_Field>
OPLS_2005

> <r_lp_Energy>
50.8632

> <b_lp_Chiralities_Consistent>
1

> <s_lp_Variant>
AV-unprocessed.smi:1784-4

> <Gold.Version>
5.8.1

> <Gold.Id.Protein>
6NUR|6NUR_protein|mol2

> <Gold.PLP.Fitness>
53.6698

> <Gold.PLP.PLP>
-42.3001

> <Gold.PLP.part.hbond>
-3.0000

> <Gold.PLP.part.metal>
0.0000

> <Gold.PLP.part.buried>
-6.3469

> <Gold.PLP.part.nonpolar>
-32.6049

> <Gold.PLP.part.repulsive>
0.5384

> <Gold.PLP.ligand.clash>
0.0000

> <Gold.PLP.ligand.torsion>
0.5144

> <Gold.PLP.Chemscore.Hbond>
4.0000

> <Gold.PLP.Chemscore.CHOScore>
0.0000

> <Gold.PLP.Chemscore.Metal>
0.0000

> <Gold.Chemscore.Hbonds>
donor molecule, donor type, donor heavy atom, donor atom, acceptor molecule, acceptor atom, score
      L1  H     3    22       P1  8028  1.00
      L1  H    10    32       P1  8028  1.00
      L1  H    15    44       P1 10175  2.00

> <Gold.PLP.Chemscore.Internal.Correction>
0.3985

> <Gold.Rescore>
     Score         DG    S(hbond)    S(metal)    S(lipo)     H(rot)  DE(clash)    DE(int)     intcor
     21.72     -23.70       2.90        0.00     103.55       1.40       0.15       1.83       ----

> <Gold.Chemscore.Fitness>
21.7244

> <Gold.Chemscore.DG>
-23.6985

> <Gold.Chemscore.ZeroCoef>
-5.4800

> <Gold.Chemscore.Hbond>
2.9022

> <Gold.Chemscore.Metal>
0.0000

> <Gold.Chemscore.Lipo>
103.5469

> <Gold.Chemscore.Internal_Hbond>
0.0000

> <Gold.Chemscore.DEClash>
0.1472

> <Gold.Chemscore.DEInternal>
1.8269

> <Gold.Chemscore.Rot>
1.4023

> <Gold.Chemscore.Internal.Correction>
   9.000000E+99

> <Gold.Chemscore.Hbonds>
donor molecule, donor type, donor heavy atom, donor atom, acceptor molecule, acceptor atom, score
      L1  H     3    22       P1  8028  0.95
      L1  H    10    32       P1  8028  0.94
      L1  H    15    44       P1 10175  0.85

> <Gold.Chemscore.Hbond.Weighted>
-9.6933

> <Gold.Chemscore.Metal.Weighted>
-0.0000

> <Gold.Chemscore.Lipo.Weighted>
-12.1150

> <Gold.Chemscore.Internal_Hbond.Weighted>
0.0000

> <Gold.Chemscore.DEClash.Weighted>
0.1472

> <Gold.Chemscore.DEInternal.Weighted>
1.8269

> <Gold.Chemscore.Rot.Weighted>
3.5898

> <Gold.Chemscore.Internal.Correction.Weighted>
   9.000000E+99

> <Gold.Protein.RotatedTorsions>
[ 6907 6896 6895 6894 ] final   60.80 input  -60.11 | X-H torsion
[ 7974 7965 7964 7962 ] final  111.82 input  175.53 | X-H torsion
[ 8008 7997 7996 7995 ] final -109.54 input   59.86 | X-H torsion
[ 10167 10162 10161 10158 ] final  -88.89 input  -65.29 | X-H torsion
[ 10718 10713 10712 10709 ] final  171.44 input   66.30 | X-H torsion
[ 10763 10752 10751 10750 ] final   36.25 input  -60.55 | X-H torsion
[ 11005 11000 10999 10996 ] final   49.93 input  -57.11 | X-H torsion

> <Gold.Protein.ActiveResidues>
 VAL166  LYS551  ARG553  GLY616  TRP617  ASP618  TYR619  PRO620  LYS621  CYS622 
 ASP623  PHE694  ASN695  SER759  ASP760  ASP761  ALA762  ILE779  LEU786  VAL792 
 PHE793  MET794  SER795  GLU796  ALA797  LYS798  CYS799  TRP800  GLU811  SER814 

> <Gold.Protein.RotatedAtoms>
  152.4034  134.6247  160.0059 H   0  0  0  0  0  0  0  0  0  0  0  0  # atno 6907 bound_to 6896
  151.6446  133.3318  159.3146 H   0  0  0  0  0  0  0  0  0  0  0  0  # atno 6908 bound_to 6896
  150.7932  134.7014  159.6597 H   0  0  0  0  0  0  0  0  0  0  0  0  # atno 6909 bound_to 6896
  145.2373  139.2793  143.4136 H   0  0  0  0  0  0  0  0  0  0  0  0  # atno 7974 bound_to 7965
  154.9609  140.0399  157.2189 H   0  0  0  0  0  0  0  0  0  0  0  0  # atno 8008 bound_to 7997
  154.7890  140.2832  155.5984 H   0  0  0  0  0  0  0  0  0  0  0  0  # atno 8009 bound_to 7997
  156.2947  140.2577  156.2733 H   0  0  0  0  0  0  0  0  0  0  0  0  # atno 8010 bound_to 7997
  140.3702  143.2798  151.9510 H   0  0  0  0  0  0  0  0  0  0  0  0  # atno 10167 bound_to 10162
  156.9935  131.0155  151.2850 H   0  0  0  0  0  0  0  0  0  0  0  0  # atno 10718 bound_to 10713
  153.0085  135.6311  154.1956 H   0  0  0  0  0  0  0  0  0  0  0  0  # atno 10763 bound_to 10752
  154.1699  135.2819  155.3086 H   0  0  0  0  0  0  0  0  0  0  0  0  # atno 10764 bound_to 10752
  154.5917  135.5615  153.7345 H   0  0  0  0  0  0  0  0  0  0  0  0  # atno 10765 bound_to 10752
  140.1061  134.5017  155.8719 H   0  0  0  0  0  0  0  0  0  0  0  0  # atno 11005 bound_to 11000
  146.3337  140.2726  142.8606 LP  0  0  0  0  0  0  0  0  0  0  0  0  # atno 17320 bound_to 7965
  144.9621  140.8285  143.5507 LP  0  0  0  0  0  0  0  0  0  0  0  0  # atno 17321 bound_to 7965
  139.4804  144.5914  151.7765 LP  0  0  0  0  0  0  0  0  0  0  0  0  # atno 17342 bound_to 10162
  140.5041  144.1125  150.5978 LP  0  0  0  0  0  0  0  0  0  0  0  0  # atno 17343 bound_to 10162
  157.5442  130.8139  149.8065 LP  0  0  0  0  0  0  0  0  0  0  0  0  # atno 17370 bound_to 10713
  156.0198  130.3800  150.1997 LP  0  0  0  0  0  0  0  0  0  0  0  0  # atno 17371 bound_to 10713
  141.2118  133.6712  156.6613 LP  0  0  0  0  0  0  0  0  0  0  0  0  # atno 17394 bound_to 11000
  140.3154  134.8052  157.4210 LP  0  0  0  0  0  0  0  0  0  0  0  0  # atno 17395 bound_to 11000

$$$$
