AV-unprocessed.smi:1245|AV-procd|sdf|5240|dock6
  -GOLD-   22720 4353D 1   1.00000     0.00000
 Structure written by MMmdl.
 44 45  0  0  0  0  0  0  0  0  2 V2000
  150.6306  134.8855  156.2144 O   0  0  0  0  0  0  0  0  0  0  0  0
  150.2910  135.4045  155.1504 C   0  0  0  0  0  0  0  0  0  0  0  0
  150.4500  136.9106  154.9242 C   0  0  0  0  0  0  0  0  0  0  0  0
  150.8150  137.6823  156.2051 C   0  0  0  0  0  0  0  0  0  0  0  0
  151.5147  139.3559  155.8269 S   0  0  0  0  0  0  0  0  0  0  0  0
  152.9549  139.1902  155.5787 O   0  0  0  0  0  0  0  0  0  0  0  0
  150.6659  140.0045  154.8152 O   0  0  0  0  0  0  0  0  0  0  0  0
  151.3219  140.2838  157.4218 C   0  0  0  0  0  0  0  0  0  0  0  0
  150.4764  141.5632  157.2734 C   0  0  0  0  0  0  0  0  0  0  0  0
  151.3801  142.7254  157.6991 C   0  0  0  0  0  0  0  0  0  0  0  0
  152.4195  142.0952  158.6242 C   0  0  0  0  0  0  0  0  0  0  0  0
  152.6696  140.7114  158.0257 C   0  0  0  0  0  0  0  0  0  0  0  0
  149.7675  134.7087  154.1295 N   0  0  0  0  0  0  0  0  0  0  0  0
  149.5360  133.2687  154.1255 C   0  0  0  0  0  0  0  0  0  0  0  0
  149.0867  132.7671  152.7425 C   0  0  0  0  0  0  0  0  0  0  0  0
  147.6365  133.1021  152.4523 C   0  0  0  0  0  0  0  0  0  0  0  0
  146.6560  132.1024  152.2709 C   0  0  0  0  0  0  0  0  0  0  0  0
  145.3254  132.4837  151.9984 C   0  0  0  0  0  0  0  0  0  0  0  0
  145.0038  133.8541  151.9121 C   0  0  0  0  0  0  0  0  0  0  0  0
  146.0226  134.8103  152.0994 C   0  0  0  0  0  0  0  0  0  0  0  0
  147.2857  134.4054  152.3581 N   0  3  0  0  0  0  0  0  0  0  0  0
  151.2182  137.0664  154.1659 H   0  0  0  0  0  0  0  0  0  0  0  0
  149.5182  137.3001  154.5128 H   0  0  0  0  0  0  0  0  0  0  0  0
  149.9478  137.7941  156.8529 H   0  0  0  0  0  0  0  0  0  0  0  0
  151.5679  137.1357  156.7740 H   0  0  0  0  0  0  0  0  0  0  0  0
  150.8170  139.6115  158.1167 H   0  0  0  0  0  0  0  0  0  0  0  0
  150.0905  141.7057  156.2635 H   0  0  0  0  0  0  0  0  0  0  0  0
  149.6134  141.5055  157.9379 H   0  0  0  0  0  0  0  0  0  0  0  0
  151.8769  143.1497  156.8263 H   0  0  0  0  0  0  0  0  0  0  0  0
  150.8246  143.5296  158.1823 H   0  0  0  0  0  0  0  0  0  0  0  0
  153.3300  142.6903  158.7001 H   0  0  0  0  0  0  0  0  0  0  0  0
  152.0040  141.9919  159.6276 H   0  0  0  0  0  0  0  0  0  0  0  0
  153.0373  139.9994  158.7652 H   0  0  0  0  0  0  0  0  0  0  0  0
  153.4313  140.7941  157.2518 H   0  0  0  0  0  0  0  0  0  0  0  0
  149.5210  135.2137  153.2903 H   0  0  0  0  0  0  0  0  0  0  0  0
  150.4662  132.7798  154.4160 H   0  0  0  0  0  0  0  0  0  0  0  0
  148.7977  133.0073  154.8857 H   0  0  0  0  0  0  0  0  0  0  0  0
  149.7112  133.2008  151.9604 H   0  0  0  0  0  0  0  0  0  0  0  0
  149.2191  131.6862  152.6764 H   0  0  0  0  0  0  0  0  0  0  0  0
  146.9177  131.0562  152.3379 H   0  0  0  0  0  0  0  0  0  0  0  0
  144.5609  131.7337  151.8568 H   0  0  0  0  0  0  0  0  0  0  0  0
  143.9908  134.1666  151.7042 H   0  0  0  0  0  0  0  0  0  0  0  0
  145.8671  135.8783  152.0505 H   0  0  0  0  0  0  0  0  0  0  0  0
  148.0068  135.1150  152.4903 H   0  0  0  0  0  0  0  0  0  0  0  0
  1  2  2  0  0  0  0
  2  3  1  0  0  0  0
  2 13  1  0  0  0  0
  3  4  1  0  0  0  0
  3 22  1  0  0  0  0
  3 23  1  0  0  0  0
  4  5  1  0  0  0  0
  4 24  1  0  0  0  0
  4 25  1  0  0  0  0
  5  6  2  0  0  0  0
  5  7  2  0  0  0  0
  5  8  1  0  0  0  0
  8 12  1  0  0  0  0
  8  9  1  0  0  0  0
  8 26  1  0  0  0  0
  9 10  1  0  0  0  0
  9 27  1  0  0  0  0
  9 28  1  0  0  0  0
 10 11  1  0  0  0  0
 10 29  1  0  0  0  0
 10 30  1  0  0  0  0
 11 12  1  0  0  0  0
 11 31  1  0  0  0  0
 11 32  1  0  0  0  0
 12 33  1  0  0  0  0
 12 34  1  0  0  0  0
 13 14  1  0  0  0  0
 13 35  1  0  0  0  0
 14 15  1  0  0  0  0
 14 36  1  0  0  0  0
 14 37  1  0  0  0  0
 15 16  1  0  0  0  0
 15 38  1  0  0  0  0
 15 39  1  0  0  0  0
 16 21  1  0  0  0  0
 16 17  2  0  0  0  0
 17 18  1  0  0  0  0
 17 40  1  0  0  0  0
 18 19  2  0  0  0  0
 18 41  1  0  0  0  0
 19 20  1  0  0  0  0
 19 42  1  0  0  0  0
 20 21  2  0  0  0  0
 20 43  1  0  0  0  0
 21 44  1  0  0  0  0
M  CHG  1  21   1
M  END
> <s_m_source_file>
AV-unprocessed.smi

> <i_m_source_file_index>
1245

> <i_lp_mmshare_version>
43012

> <i_f3d_flags>
0

> <s_epik_input>
W0NIMl0xW0NIMl1bQ0gyXVtDSDJdW0NIXTFTKD1PKSg9TylbQ0gyXVtDSDJdQyg9TylbTkhdW0NIMl1bQ0gyXWMyW2NIXVtjSF1bY0hdW2NIXW4y

> <s_epik_cmdline>
J2VwaWtfcHl0aG9uJywgJy1waCcsICc3LjAnLCAnLXRuJywgJzgnLCAnLW1hJywgJzIwMCcsICctbWV0YWxfYmluZGluZycsICctaW1hZScsICc8aW5maWxlLm1hZT4nLCAnLW9tYWUnLCAnPG91dGZpbGUubWFlPic=

> <r_epik_Ionization_Penalty>
1.90383

> <r_epik_Ionization_Penalty_Charging>
1.90383

> <r_epik_Ionization_Penalty_Neutral>
6.52612e-08

> <r_epik_State_Penalty>
2.02532

> <r_epik_Charging_Adjusted_Penalty>
3.92915

> <i_epik_Tot_Q>
1

> <i_epik_Tot_abs_Q>
1

> <r_epik_Metal_State_Penalty>
2.0489

> <b_epik_Metal_Only>
0

> <s_lp_Force_Field>
OPLS_2005

> <r_lp_Energy>
22.4311

> <b_lp_Chiralities_Consistent>
1

> <s_lp_Variant>
AV-unprocessed.smi:1245-2

> <Gold.Version>
5.8.1

> <Gold.Id.Protein>
6NUR|6NUR_protein|mol2

> <Gold.PLP.Fitness>
48.9791

> <Gold.PLP.PLP>
-35.5013

> <Gold.PLP.part.hbond>
-3.8292

> <Gold.PLP.part.metal>
0.0000

> <Gold.PLP.part.buried>
-5.8874

> <Gold.PLP.part.nonpolar>
-26.6272

> <Gold.PLP.part.repulsive>
0.1403

> <Gold.PLP.ligand.clash>
0.0000

> <Gold.PLP.ligand.torsion>
0.7354

> <Gold.PLP.Chemscore.Hbond>
4.8613

> <Gold.PLP.Chemscore.CHOScore>
0.0000

> <Gold.PLP.Chemscore.Metal>
0.0000

> <Gold.Chemscore.Hbonds>
donor molecule, donor type, donor heavy atom, donor atom, acceptor molecule, acceptor atom, score
      L1  H    13    35       P1  7948  0.50
      L1  H    21    44       P1  7948  1.92
      P1  H  7989  7998       L1     7  1.00
      P1  H  7997  8010       L1     6  0.91

> <Gold.PLP.Chemscore.Internal.Correction>
0.3648

> <Gold.Rescore>
     Score         DG    S(hbond)    S(metal)    S(lipo)     H(rot)  DE(clash)    DE(int)     intcor
     22.17     -23.17       3.78        0.00      90.08       2.14       0.04       0.97       ----

> <Gold.Chemscore.Fitness>
22.1727

> <Gold.Chemscore.DG>
-23.1728

> <Gold.Chemscore.ZeroCoef>
-5.4800

> <Gold.Chemscore.Hbond>
3.7827

> <Gold.Chemscore.Metal>
0.0000

> <Gold.Chemscore.Lipo>
90.0762

> <Gold.Chemscore.Internal_Hbond>
0.0000

> <Gold.Chemscore.DEClash>
0.0351

> <Gold.Chemscore.DEInternal>
0.9650

> <Gold.Chemscore.Rot>
2.1408

> <Gold.Chemscore.Internal.Correction>
   9.000000E+99

> <Gold.Chemscore.Hbonds>
donor molecule, donor type, donor heavy atom, donor atom, acceptor molecule, acceptor atom, score
      L1  H    13    35       P1  7948  0.02
      L1  H    21    44       P1  7948  0.82
      P1  H  7989  7998       L1     7  0.85
      P1  H  7997  8010       L1     6  0.88

> <Gold.Chemscore.Hbond.Weighted>
-12.6343

> <Gold.Chemscore.Metal.Weighted>
-0.0000

> <Gold.Chemscore.Lipo.Weighted>
-10.5389

> <Gold.Chemscore.Internal_Hbond.Weighted>
0.0000

> <Gold.Chemscore.DEClash.Weighted>
0.0351

> <Gold.Chemscore.DEInternal.Weighted>
0.9650

> <Gold.Chemscore.Rot.Weighted>
5.4805

> <Gold.Chemscore.Internal.Correction.Weighted>
   9.000000E+99

> <Gold.Protein.RotatedTorsions>
[ 6907 6896 6895 6894 ] final  167.16 input  -60.11 | X-H torsion
[ 7974 7965 7964 7962 ] final    9.28 input  175.53 | X-H torsion
[ 8008 7997 7996 7995 ] final   67.06 input   59.86 | X-H torsion
[ 10167 10162 10161 10158 ] final   54.54 input  -65.29 | X-H torsion
[ 10718 10713 10712 10709 ] final  -37.15 input   66.30 | X-H torsion
[ 10763 10752 10751 10750 ] final  -45.35 input  -60.55 | X-H torsion
[ 11005 11000 10999 10996 ] final -157.14 input  -57.11 | X-H torsion

> <Gold.Protein.ActiveResidues>
 VAL166  LYS551  ARG553  GLY616  TRP617  ASP618  TYR619  PRO620  LYS621  CYS622 
 ASP623  PHE694  ASN695  SER759  ASP760  ASP761  ALA762  ILE779  LEU786  VAL792 
 PHE793  MET794  SER795  GLU796  ALA797  LYS798  CYS799  TRP800  GLU811  SER814 

> <Gold.Protein.RotatedAtoms>
  151.8676  133.3469  159.3723 H   0  0  0  0  0  0  0  0  0  0  0  0  # atno 6907 bound_to 6896
  150.7161  134.5145  159.5632 H   0  0  0  0  0  0  0  0  0  0  0  0  # atno 6908 bound_to 6896
  152.2671  134.7973  160.0472 H   0  0  0  0  0  0  0  0  0  0  0  0  # atno 6909 bound_to 6896
  146.2405  139.9806  142.8436 H   0  0  0  0  0  0  0  0  0  0  0  0  # atno 7974 bound_to 7965
  155.6870  140.3496  155.4878 H   0  0  0  0  0  0  0  0  0  0  0  0  # atno 8008 bound_to 7997
  155.9557  140.1128  157.0961 H   0  0  0  0  0  0  0  0  0  0  0  0  # atno 8009 bound_to 7997
  154.4132  140.1185  156.5098 H   0  0  0  0  0  0  0  0  0  0  0  0  # atno 8010 bound_to 7997
  140.2291  144.3706  150.6421 H   0  0  0  0  0  0  0  0  0  0  0  0  # atno 10167 bound_to 10162
  156.3185  130.4262  149.7982 H   0  0  0  0  0  0  0  0  0  0  0  0  # atno 10718 bound_to 10713
  154.0272  135.6661  153.4777 H   0  0  0  0  0  0  0  0  0  0  0  0  # atno 10763 bound_to 10752
  153.0555  135.5058  154.7967 H   0  0  0  0  0  0  0  0  0  0  0  0  # atno 10764 bound_to 10752
  154.6901  135.3060  154.9457 H   0  0  0  0  0  0  0  0  0  0  0  0  # atno 10765 bound_to 10752
  140.6678  134.4280  157.5232 H   0  0  0  0  0  0  0  0  0  0  0  0  # atno 11005 bound_to 11000
  145.1595  140.9665  143.4385 LP  0  0  0  0  0  0  0  0  0  0  0  0  # atno 17320 bound_to 7965
  145.0129  139.3493  143.6111 LP  0  0  0  0  0  0  0  0  0  0  0  0  # atno 17321 bound_to 7965
  140.6199  143.2175  151.6716 LP  0  0  0  0  0  0  0  0  0  0  0  0  # atno 17342 bound_to 10162
  139.5116  144.3502  152.0659 LP  0  0  0  0  0  0  0  0  0  0  0  0  # atno 17343 bound_to 10162
  156.5299  130.8253  151.3233 LP  0  0  0  0  0  0  0  0  0  0  0  0  # atno 17370 bound_to 10713
  157.7407  130.9855  150.2393 LP  0  0  0  0  0  0  0  0  0  0  0  0  # atno 17371 bound_to 10713
  139.8991  134.8598  156.1973 LP  0  0  0  0  0  0  0  0  0  0  0  0  # atno 17394 bound_to 11000
  141.0415  133.6935  156.1607 LP  0  0  0  0  0  0  0  0  0  0  0  0  # atno 17395 bound_to 11000

$$$$
