AV-unprocessed.smi:1412|AV-procd|sdf|5747|dock3
  -GOLD-   22720 5383D 1   1.00000     0.00000
 Structure written by MMmdl.
 41 42  0  0  0  0  0  0  0  0  3 V2000
  147.8281  141.6304  155.2924 C   0  0  0  0  0  0  0  0  0  0  0  0
  148.3919  141.4439  156.7122 C   0  0  0  0  0  0  0  0  0  0  0  0
  149.9328  141.6199  156.8726 C   0  0  2  0  0  0  0  0  0  0  0  0
  150.6110  141.5066  155.4807 C   0  0  0  0  0  0  0  0  0  0  0  0
  150.5190  140.4784  157.7573 C   0  0  0  0  0  0  0  0  0  0  0  0
  151.9628  140.6190  157.9577 N   0  0  0  0  0  0  0  0  0  0  0  0
  152.8398  139.6322  158.1912 C   0  0  0  0  0  0  0  0  0  0  0  0
  152.4772  138.4554  158.1395 O   0  0  0  0  0  0  0  0  0  0  0  0
  154.0781  140.0726  158.5023 N   0  5  0  0  0  0  0  0  0  0  0  0
  154.3025  140.6423  159.6977 C   0  0  0  0  0  0  0  0  0  0  0  0
  155.3852  140.3518  160.4372 N   0  0  0  0  0  0  0  0  0  0  0  0
  155.4316  141.0524  161.6346 N   0  0  0  0  0  0  0  0  0  0  0  0
  154.3716  141.8486  161.7731 C   0  0  0  0  0  0  0  0  0  0  0  0
  153.2221  141.8166  160.4524 S   0  0  0  0  0  0  0  0  0  0  0  0
  150.2568  142.9478  157.5142 N   0  3  0  0  0  0  0  0  0  0  0  0
  149.9987  143.0825  158.9748 C   0  0  0  0  0  0  0  0  0  0  0  0
  150.1690  144.5502  159.4090 C   0  0  0  0  0  0  0  0  0  0  0  0
  151.4649  145.0211  159.0628 O   0  0  0  0  0  0  0  0  0  0  0  0
  151.6903  144.9638  157.6605 C   0  0  0  0  0  0  0  0  0  0  0  0
  151.6042  143.5003  157.2034 C   0  0  0  0  0  0  0  0  0  0  0  0
  146.7538  141.4452  155.2853 H   0  0  0  0  0  0  0  0  0  0  0  0
  148.2780  140.9388  154.5810 H   0  0  0  0  0  0  0  0  0  0  0  0
  147.9782  142.6447  154.9235 H   0  0  0  0  0  0  0  0  0  0  0  0
  147.8755  142.1415  157.3721 H   0  0  0  0  0  0  0  0  0  0  0  0
  148.0959  140.4475  157.0405 H   0  0  0  0  0  0  0  0  0  0  0  0
  150.5694  140.4887  155.0927 H   0  0  0  0  0  0  0  0  0  0  0  0
  151.6663  141.7794  155.5207 H   0  0  0  0  0  0  0  0  0  0  0  0
  150.1283  142.1426  154.7381 H   0  0  0  0  0  0  0  0  0  0  0  0
  149.9986  140.4101  158.7130 H   0  0  0  0  0  0  0  0  0  0  0  0
  150.3608  139.5102  157.2829 H   0  0  0  0  0  0  0  0  0  0  0  0
  152.3216  141.5625  157.9878 H   0  0  0  0  0  0  0  0  0  0  0  0
  154.2656  142.4578  162.6582 H   0  0  0  0  0  0  0  0  0  0  0  0
  148.9844  142.7892  159.2397 H   0  0  0  0  0  0  0  0  0  0  0  0
  150.6789  142.4393  159.5343 H   0  0  0  0  0  0  0  0  0  0  0  0
  149.4087  145.1808  158.9447 H   0  0  0  0  0  0  0  0  0  0  0  0
  150.0385  144.6394  160.4876 H   0  0  0  0  0  0  0  0  0  0  0  0
  150.9675  145.5857  157.1294 H   0  0  0  0  0  0  0  0  0  0  0  0
  152.6797  145.3677  157.4457 H   0  0  0  0  0  0  0  0  0  0  0  0
  152.3760  142.9236  157.7148 H   0  0  0  0  0  0  0  0  0  0  0  0
  151.8229  143.4445  156.1390 H   0  0  0  0  0  0  0  0  0  0  0  0
  149.6034  143.5868  157.0818 H   0  0  0  0  0  0  0  0  0  0  0  0
  1  2  1  0  0  0  0
  1 21  1  0  0  0  0
  1 22  1  0  0  0  0
  1 23  1  0  0  0  0
  2  3  1  0  0  0  0
  2 24  1  0  0  0  0
  2 25  1  0  0  0  0
  3  4  1  0  0  0  0
  3  5  1  0  0  0  0
  3 15  1  0  0  0  0
  4 26  1  0  0  0  0
  4 27  1  0  0  0  0
  4 28  1  0  0  0  0
  5  6  1  0  0  0  0
  5 29  1  0  0  0  0
  5 30  1  0  0  0  0
  6  7  1  0  0  0  0
  6 31  1  0  0  0  0
  7  8  2  0  0  0  0
  7  9  1  0  0  0  0
  9 10  1  0  0  0  0
 10 14  1  0  0  0  0
 10 11  2  0  0  0  0
 11 12  1  0  0  0  0
 12 13  2  0  0  0  0
 13 14  1  0  0  0  0
 13 32  1  0  0  0  0
 15 20  1  0  0  0  0
 15 16  1  0  0  0  0
 15 41  1  0  0  0  0
 16 17  1  0  0  0  0
 16 33  1  0  0  0  0
 16 34  1  0  0  0  0
 17 18  1  0  0  0  0
 17 35  1  0  0  0  0
 17 36  1  0  0  0  0
 18 19  1  0  0  0  0
 19 20  1  0  0  0  0
 19 37  1  0  0  0  0
 19 38  1  0  0  0  0
 20 39  1  0  0  0  0
 20 40  1  0  0  0  0
M  CHG  1   9  -1
M  CHG  1  15   1
M  END
> <s_m_source_file>
AV-unprocessed.smi

> <i_m_source_file_index>
1412

> <i_lp_mmshare_version>
43012

> <i_f3d_flags>
0

> <s_epik_input>
W0NIMl0xW0NIMl1PW0NIMl1bQ0gyXU4xW0NAQF0oW0NIM10pKFtDSDJdW0NIM10pW0NIMl1bTkhdQyg9TylbTkhdYzJubltjSF1zMg==

> <s_epik_cmdline>
J2VwaWtfcHl0aG9uJywgJy1waCcsICc3LjAnLCAnLXRuJywgJzgnLCAnLW1hJywgJzIwMCcsICctbWV0YWxfYmluZGluZycsICctaW1hZScsICc8aW5maWxlLm1hZT4nLCAnLW9tYWUnLCAnPG91dGZpbGUubWFlPic=

> <r_lp_tautomer_probability>
1

> <r_epik_Ionization_Penalty>
4.35651

> <r_epik_Ionization_Penalty_Charging>
4.3235

> <r_epik_Ionization_Penalty_Neutral>
0.0330098

> <r_epik_State_Penalty>
4.4846

> <r_epik_Charging_Adjusted_Penalty>
8.8081

> <i_epik_Tot_Q>
0

> <i_epik_Tot_abs_Q>
2

> <r_epik_Metal_State_Penalty>
1.11611

> <b_epik_Metal_Only>
1

> <s_lp_Force_Field>
OPLS_2005

> <r_lp_Energy>
23.2358

> <b_lp_Chiralities_Consistent>
1

> <s_lp_Variant>
AV-unprocessed.smi:1412-8

> <Gold.Version>
5.8.1

> <Gold.Id.Protein>
6NUR|6NUR_protein|mol2

> <Gold.PLP.Fitness>
37.8909

> <Gold.PLP.PLP>
-31.0301

> <Gold.PLP.part.hbond>
-3.0000

> <Gold.PLP.part.metal>
0.0000

> <Gold.PLP.part.buried>
-4.3544

> <Gold.PLP.part.nonpolar>
-23.1141

> <Gold.PLP.part.repulsive>
0.2273

> <Gold.PLP.ligand.clash>
0.0034

> <Gold.PLP.ligand.torsion>
2.7387

> <Gold.PLP.Chemscore.Hbond>
4.0000

> <Gold.PLP.Chemscore.CHOScore>
0.0000

> <Gold.PLP.Chemscore.Metal>
0.0000

> <Gold.Chemscore.Hbonds>
donor molecule, donor type, donor heavy atom, donor atom, acceptor molecule, acceptor atom, score
      L1  H    15    41       P1  8028  2.00
      P1  H  7997  8008       L1     9  1.74

> <Gold.PLP.Chemscore.Internal.Correction>
0.3416

> <Gold.Rescore>
     Score         DG    S(hbond)    S(metal)    S(lipo)     H(rot)  DE(clash)    DE(int)     intcor
     11.41     -16.63       1.80        0.00      85.12       1.88       2.20       3.02       ----

> <Gold.Chemscore.Fitness>
11.4134

> <Gold.Chemscore.DG>
-16.6324

> <Gold.Chemscore.ZeroCoef>
-5.4800

> <Gold.Chemscore.Hbond>
1.7966

> <Gold.Chemscore.Metal>
0.0000

> <Gold.Chemscore.Lipo>
85.1204

> <Gold.Chemscore.Internal_Hbond>
0.0000

> <Gold.Chemscore.DEClash>
2.2025

> <Gold.Chemscore.DEInternal>
3.0165

> <Gold.Chemscore.Rot>
1.8779

> <Gold.Chemscore.Internal.Correction>
   9.000000E+99

> <Gold.Chemscore.Hbonds>
donor molecule, donor type, donor heavy atom, donor atom, acceptor molecule, acceptor atom, score
      L1  H    15    41       P1  8028  0.91
      P1  H  7997  8008       L1     9  0.52

> <Gold.Chemscore.Hbond.Weighted>
-6.0007

> <Gold.Chemscore.Metal.Weighted>
-0.0000

> <Gold.Chemscore.Lipo.Weighted>
-9.9591

> <Gold.Chemscore.Internal_Hbond.Weighted>
0.0000

> <Gold.Chemscore.DEClash.Weighted>
2.2025

> <Gold.Chemscore.DEInternal.Weighted>
3.0165

> <Gold.Chemscore.Rot.Weighted>
4.8074

> <Gold.Chemscore.Internal.Correction.Weighted>
   9.000000E+99

> <Gold.Protein.RotatedTorsions>
[ 6907 6896 6895 6894 ] final  -52.85 input  -60.11 | X-H torsion
[ 7974 7965 7964 7962 ] final -102.34 input  175.53 | X-H torsion
[ 8008 7997 7996 7995 ] final -108.68 input   59.86 | X-H torsion
[ 10167 10162 10161 10158 ] final  -11.26 input  -65.29 | X-H torsion
[ 10718 10713 10712 10709 ] final  -72.74 input   66.30 | X-H torsion
[ 10763 10752 10751 10750 ] final -116.64 input  -60.55 | X-H torsion
[ 11005 11000 10999 10996 ] final  -40.15 input  -57.11 | X-H torsion

> <Gold.Protein.ActiveResidues>
 VAL166  LYS551  ARG553  GLY616  TRP617  ASP618  TYR619  PRO620  LYS621  CYS622 
 ASP623  PHE694  ASN695  SER759  ASP760  ASP761  ALA762  ILE779  LEU786  VAL792 
 PHE793  MET794  SER795  GLU796  ALA797  LYS798  CYS799  TRP800  GLU811  SER814 

> <Gold.Protein.RotatedAtoms>
  150.8480  134.7796  159.6985 H   0  0  0  0  0  0  0  0  0  0  0  0  # atno 6907 bound_to 6896
  152.4552  134.5304  159.9819 H   0  0  0  0  0  0  0  0  0  0  0  0  # atno 6908 bound_to 6896
  151.5430  133.3391  159.2974 H   0  0  0  0  0  0  0  0  0  0  0  0  # atno 6909 bound_to 6896
  145.2699  140.9295  143.2992 H   0  0  0  0  0  0  0  0  0  0  0  0  # atno 7974 bound_to 7965
  154.9479  140.0401  157.2129 H   0  0  0  0  0  0  0  0  0  0  0  0  # atno 8008 bound_to 7997
  154.8006  140.2851  155.5902 H   0  0  0  0  0  0  0  0  0  0  0  0  # atno 8009 bound_to 7997
  156.2961  140.2556  156.2874 H   0  0  0  0  0  0  0  0  0  0  0  0  # atno 8010 bound_to 7997
  140.7134  143.5658  150.9145 H   0  0  0  0  0  0  0  0  0  0  0  0  # atno 10167 bound_to 10162
  156.0308  130.4379  150.2638 H   0  0  0  0  0  0  0  0  0  0  0  0  # atno 10718 bound_to 10713
  154.8527  135.4338  154.1853 H   0  0  0  0  0  0  0  0  0  0  0  0  # atno 10763 bound_to 10752
  153.2934  135.6963  153.7277 H   0  0  0  0  0  0  0  0  0  0  0  0  # atno 10764 bound_to 10752
  153.6435  135.3464  155.3053 H   0  0  0  0  0  0  0  0  0  0  0  0  # atno 10765 bound_to 10752
  141.0154  133.6888  156.2283 H   0  0  0  0  0  0  0  0  0  0  0  0  # atno 11005 bound_to 11000
  144.9344  139.4261  143.6479 LP  0  0  0  0  0  0  0  0  0  0  0  0  # atno 17320 bound_to 7965
  146.3249  139.8271  142.8915 LP  0  0  0  0  0  0  0  0  0  0  0  0  # atno 17321 bound_to 7965
  139.9384  143.6410  152.3059 LP  0  0  0  0  0  0  0  0  0  0  0  0  # atno 17342 bound_to 10162
  139.6886  144.7649  151.1478 LP  0  0  0  0  0  0  0  0  0  0  0  0  # atno 17343 bound_to 10162
  157.0740  131.0125  151.3180 LP  0  0  0  0  0  0  0  0  0  0  0  0  # atno 17370 bound_to 10713
  157.4977  130.7861  149.7573 LP  0  0  0  0  0  0  0  0  0  0  0  0  # atno 17371 bound_to 10713
  140.6663  134.4914  157.5585 LP  0  0  0  0  0  0  0  0  0  0  0  0  # atno 17394 bound_to 11000
  139.9114  134.8337  156.1516 LP  0  0  0  0  0  0  0  0  0  0  0  0  # atno 17395 bound_to 11000

$$$$
