AV-unprocessed.smi:762|AV-procd|sdf|3633|dock1
  -GOLD-   22720 1 23D 1   1.00000     0.00000
 Structure written by MMmdl.
 42 44  0  0  0  0  0  0  0  0  1 V2000
  151.4863  141.1462  157.6345 O   0  0  0  0  0  0  0  0  0  0  0  0
  151.0466  142.2884  157.5024 C   0  0  0  0  0  0  0  0  0  0  0  0
  151.8055  143.4734  158.0997 C   0  0  0  0  0  0  0  0  0  0  0  0
  152.3178  143.2584  159.5131 C   0  0  0  0  0  0  0  0  0  0  0  0
  153.1895  142.2767  159.8160 C   0  0  0  0  0  0  0  0  0  0  0  0
  153.6886  141.9840  161.2193 C   0  0  0  0  0  0  0  0  0  0  0  0
  152.8210  142.6554  162.2968 C   0  0  0  0  0  0  0  0  0  0  0  0
  152.4930  144.1050  161.9186 C   0  0  0  0  0  0  0  0  0  0  0  0
  151.7395  144.1836  160.5780 C   0  0  0  0  0  0  0  0  0  0  0  0
  149.9050  142.5703  156.8562 N   0  0  0  0  0  0  0  0  0  0  0  0
  149.0290  141.5824  156.2389 C   0  0  0  0  0  0  0  0  0  0  0  0
  149.0600  141.6768  154.7042 C   0  0  0  0  0  0  0  0  0  0  0  0
  148.3607  140.5649  154.0870 N   0  0  0  0  0  0  0  0  0  0  0  0
  147.2415  140.5949  153.3476 C   0  0  0  0  0  0  0  0  0  0  0  0
  146.8130  139.4067  152.9238 N   0  0  0  0  0  0  0  0  0  0  0  0
  147.7275  138.5063  153.4327 N   0  0  0  0  0  0  0  0  0  0  0  0
  148.6250  139.2421  154.0993 C   0  0  0  0  0  0  0  0  0  0  0  0
  149.7847  138.6589  154.8418 C   0  0  0  0  0  0  0  0  0  0  0  0
  151.1530  139.3014  154.7836 C   0  0  0  0  0  0  0  0  0  0  0  0
  150.9181  137.9747  154.1099 C   0  0  0  0  0  0  0  0  0  0  0  0
  152.6570  143.6718  157.4472 H   0  0  0  0  0  0  0  0  0  0  0  0
  151.1946  144.3767  158.0689 H   0  0  0  0  0  0  0  0  0  0  0  0
  153.5761  141.6421  159.0318 H   0  0  0  0  0  0  0  0  0  0  0  0
  153.7053  140.9054  161.3768 H   0  0  0  0  0  0  0  0  0  0  0  0
  154.7194  142.3322  161.2916 H   0  0  0  0  0  0  0  0  0  0  0  0
  151.8909  142.0976  162.4154 H   0  0  0  0  0  0  0  0  0  0  0  0
  153.3285  142.6185  163.2612 H   0  0  0  0  0  0  0  0  0  0  0  0
  151.9029  144.5778  162.7043 H   0  0  0  0  0  0  0  0  0  0  0  0
  153.4215  144.6730  161.8470 H   0  0  0  0  0  0  0  0  0  0  0  0
  151.7517  145.2122  160.2164 H   0  0  0  0  0  0  0  0  0  0  0  0
  150.6932  143.9137  160.7246 H   0  0  0  0  0  0  0  0  0  0  0  0
  149.6174  143.5368  156.7982 H   0  0  0  0  0  0  0  0  0  0  0  0
  149.3097  140.5805  156.5687 H   0  0  0  0  0  0  0  0  0  0  0  0
  148.0170  141.7552  156.6046 H   0  0  0  0  0  0  0  0  0  0  0  0
  148.6153  142.6138  154.3680 H   0  0  0  0  0  0  0  0  0  0  0  0
  150.0882  141.6712  154.3403 H   0  0  0  0  0  0  0  0  0  0  0  0
  146.7225  141.5133  153.1152 H   0  0  0  0  0  0  0  0  0  0  0  0
  149.4598  138.2331  155.7891 H   0  0  0  0  0  0  0  0  0  0  0  0
  151.2821  140.1693  154.1404 H   0  0  0  0  0  0  0  0  0  0  0  0
  151.7432  139.3056  155.6977 H   0  0  0  0  0  0  0  0  0  0  0  0
  151.3530  137.0912  154.5724 H   0  0  0  0  0  0  0  0  0  0  0  0
  150.8881  137.9646  153.0220 H   0  0  0  0  0  0  0  0  0  0  0  0
  1  2  2  0  0  0  0
  2  3  1  0  0  0  0
  2 10  1  0  0  0  0
  3  4  1  0  0  0  0
  3 21  1  0  0  0  0
  3 22  1  0  0  0  0
  4  9  1  0  0  0  0
  4  5  2  0  0  0  0
  5  6  1  0  0  0  0
  5 23  1  0  0  0  0
  6  7  1  0  0  0  0
  6 24  1  0  0  0  0
  6 25  1  0  0  0  0
  7  8  1  0  0  0  0
  7 26  1  0  0  0  0
  7 27  1  0  0  0  0
  8  9  1  0  0  0  0
  8 28  1  0  0  0  0
  8 29  1  0  0  0  0
  9 30  1  0  0  0  0
  9 31  1  0  0  0  0
 10 11  1  0  0  0  0
 10 32  1  0  0  0  0
 11 12  1  0  0  0  0
 11 33  1  0  0  0  0
 11 34  1  0  0  0  0
 12 13  1  0  0  0  0
 12 35  1  0  0  0  0
 12 36  1  0  0  0  0
 13 17  1  0  0  0  0
 13 14  1  0  0  0  0
 14 15  2  0  0  0  0
 14 37  1  0  0  0  0
 15 16  1  0  0  0  0
 16 17  2  0  0  0  0
 17 18  1  0  0  0  0
 18 20  1  0  0  0  0
 18 19  1  0  0  0  0
 18 38  1  0  0  0  0
 19 20  1  0  0  0  0
 19 39  1  0  0  0  0
 19 40  1  0  0  0  0
 20 41  1  0  0  0  0
 20 42  1  0  0  0  0
M  END
> <s_m_source_file>
AV-unprocessed.smi

> <i_m_source_file_index>
762

> <i_lp_mmshare_version>
43012

> <i_f3d_flags>
0

> <s_epik_input>
W0NIMl0xW0NIMl1bQ0gyXVtDSDJdW0NIXT1DMVtDSDJdQyg9TylbTkhdW0NIMl1bQ0gyXW4yW2NIXW5uYzJbQ0hdM1tDSDJdW0NIMl0z

> <s_epik_cmdline>
J2VwaWtfcHl0aG9uJywgJy1waCcsICc3LjAnLCAnLXRuJywgJzgnLCAnLW1hJywgJzIwMCcsICctbWV0YWxfYmluZGluZycsICctaW1hZScsICc8aW5maWxlLm1hZT4nLCAnLW9tYWUnLCAnPG91dGZpbGUubWFlPic=

> <r_lp_tautomer_probability>
1

> <r_epik_Ionization_Penalty>
0.000270947

> <r_epik_Ionization_Penalty_Charging>
0

> <r_epik_Ionization_Penalty_Neutral>
0.000270947

> <r_epik_State_Penalty>
-0

> <r_epik_Charging_Adjusted_Penalty>
0

> <i_epik_Tot_Q>
0

> <i_epik_Tot_abs_Q>
0

> <r_epik_Metal_State_Penalty>
-0

> <b_epik_Metal_Only>
0

> <s_lp_Force_Field>
OPLS_2005

> <r_lp_Energy>
11.3747

> <b_lp_Chiralities_Consistent>
1

> <s_lp_Variant>
AV-unprocessed.smi:762-1

> <Gold.Version>
5.8.1

> <Gold.Id.Protein>
6NUR|6NUR_protein|mol2

> <Gold.PLP.Fitness>
50.0368

> <Gold.PLP.PLP>
-48.3613

> <Gold.PLP.part.hbond>
-1.0000

> <Gold.PLP.part.metal>
0.0000

> <Gold.PLP.part.buried>
-2.2313

> <Gold.PLP.part.nonpolar>
-44.7799

> <Gold.PLP.part.repulsive>
1.2542

> <Gold.PLP.ligand.clash>
0.0000

> <Gold.PLP.ligand.torsion>
0.5543

> <Gold.PLP.Chemscore.Hbond>
0.8480

> <Gold.PLP.Chemscore.CHOScore>
0.0000

> <Gold.PLP.Chemscore.Metal>
0.0000

> <Gold.Chemscore.Hbonds>
donor molecule, donor type, donor heavy atom, donor atom, acceptor molecule, acceptor atom, score
      L1  H    10    32       P1  8028  0.85

> <Gold.PLP.Chemscore.Internal.Correction>
0.2402

> <Gold.Rescore>
     Score         DG    S(hbond)    S(metal)    S(lipo)     H(rot)  DE(clash)    DE(int)     intcor
     15.88     -16.55       0.88        0.00     115.62       2.10       0.12       0.55       ----

> <Gold.Chemscore.Fitness>
15.8845

> <Gold.Chemscore.DG>
-16.5515

> <Gold.Chemscore.ZeroCoef>
-5.4800

> <Gold.Chemscore.Hbond>
0.8767

> <Gold.Chemscore.Metal>
0.0000

> <Gold.Chemscore.Lipo>
115.6176

> <Gold.Chemscore.Internal_Hbond>
0.0000

> <Gold.Chemscore.DEClash>
0.1192

> <Gold.Chemscore.DEInternal>
0.5478

> <Gold.Chemscore.Rot>
2.1031

> <Gold.Chemscore.Internal.Correction>
   9.000000E+99

> <Gold.Chemscore.Hbonds>
donor molecule, donor type, donor heavy atom, donor atom, acceptor molecule, acceptor atom, score
      L1  H    10    32       P1  8028  0.83

> <Gold.Chemscore.Hbond.Weighted>
-2.9280

> <Gold.Chemscore.Metal.Weighted>
-0.0000

> <Gold.Chemscore.Lipo.Weighted>
-13.5273

> <Gold.Chemscore.Internal_Hbond.Weighted>
0.0000

> <Gold.Chemscore.DEClash.Weighted>
0.1192

> <Gold.Chemscore.DEInternal.Weighted>
0.5478

> <Gold.Chemscore.Rot.Weighted>
5.3838

> <Gold.Chemscore.Internal.Correction.Weighted>
   9.000000E+99

> <Gold.Protein.RotatedTorsions>
[ 6907 6896 6895 6894 ] final   79.03 input  -60.11 | X-H torsion
[ 7974 7965 7964 7962 ] final  147.25 input  175.53 | X-H torsion
[ 8008 7997 7996 7995 ] final  101.33 input   59.86 | X-H torsion
[ 10167 10162 10161 10158 ] final   97.15 input  -65.29 | X-H torsion
[ 10718 10713 10712 10709 ] final  -49.66 input   66.30 | X-H torsion
[ 10763 10752 10751 10750 ] final   16.80 input  -60.55 | X-H torsion
[ 11005 11000 10999 10996 ] final  130.90 input  -57.11 | X-H torsion

> <Gold.Protein.ActiveResidues>
 VAL166  LYS551  ARG553  GLY616  TRP617  ASP618  TYR619  PRO620  LYS621  CYS622 
 ASP623  PHE694  ASN695  SER759  ASP760  ASP761  ALA762  ILE779  LEU786  VAL792 
 PHE793  MET794  SER795  GLU796  ALA797  LYS798  CYS799  TRP800  GLU811  SER814 

> <Gold.Protein.RotatedAtoms>
  152.5183  134.3574  159.9272 H   0  0  0  0  0  0  0  0  0  0  0  0  # atno 6907 bound_to 6896
  151.3525  133.3913  159.2689 H   0  0  0  0  0  0  0  0  0  0  0  0  # atno 6908 bound_to 6896
  150.9715  134.9106  159.7849 H   0  0  0  0  0  0  0  0  0  0  0  0  # atno 6909 bound_to 6896
  144.8606  139.6005  143.5932 H   0  0  0  0  0  0  0  0  0  0  0  0  # atno 7974 bound_to 7965
  156.1288  140.3199  155.8318 H   0  0  0  0  0  0  0  0  0  0  0  0  # atno 8008 bound_to 7997
  155.4369  140.0523  157.3031 H   0  0  0  0  0  0  0  0  0  0  0  0  # atno 8009 bound_to 7997
  154.4883  140.2082  155.9618 H   0  0  0  0  0  0  0  0  0  0  0  0  # atno 8010 bound_to 7997
  139.7828  144.6882  150.9999 H   0  0  0  0  0  0  0  0  0  0  0  0  # atno 10167 bound_to 10162
  156.1872  130.4152  149.9422 H   0  0  0  0  0  0  0  0  0  0  0  0  # atno 10718 bound_to 10713
  153.1398  135.6757  153.9046 H   0  0  0  0  0  0  0  0  0  0  0  0  # atno 10763 bound_to 10752
  153.8506  135.3093  155.3433 H   0  0  0  0  0  0  0  0  0  0  0  0  # atno 10764 bound_to 10752
  154.7778  135.4905  153.9863 H   0  0  0  0  0  0  0  0  0  0  0  0  # atno 10765 bound_to 10752
  139.9698  134.9580  156.9360 H   0  0  0  0  0  0  0  0  0  0  0  0  # atno 11005 bound_to 11000
  146.2858  139.6999  142.9197 LP  0  0  0  0  0  0  0  0  0  0  0  0  # atno 17320 bound_to 7965
  145.4319  141.0416  143.2906 LP  0  0  0  0  0  0  0  0  0  0  0  0  # atno 17321 bound_to 7965
  140.7819  143.4464  151.0476 LP  0  0  0  0  0  0  0  0  0  0  0  0  # atno 17342 bound_to 10162
  139.8144  143.7906  152.3173 LP  0  0  0  0  0  0  0  0  0  0  0  0  # atno 17343 bound_to 10162
  156.7174  130.8993  151.3615 LP  0  0  0  0  0  0  0  0  0  0  0  0  # atno 17370 bound_to 10713
  157.6906  130.9230  150.0504 LP  0  0  0  0  0  0  0  0  0  0  0  0  # atno 17371 bound_to 10713
  140.5317  134.0807  155.7317 LP  0  0  0  0  0  0  0  0  0  0  0  0  # atno 17394 bound_to 11000
  141.1378  133.9191  157.2394 LP  0  0  0  0  0  0  0  0  0  0  0  0  # atno 17395 bound_to 11000

$$$$
