AV-unprocessed.smi:657|AV-procd|sdf|3221|dock6
  -GOLD-   22720 0163D 1   1.00000     0.00000
 Structure written by MMmdl.
 47 48  0  0  0  0  0  0  0  0  2 V2000
  146.5212  138.4653  152.8483 C   0  0  0  0  0  0  0  0  0  0  0  0
  146.2371  138.9386  154.2903 C   0  0  0  0  0  0  0  0  0  0  0  0
  145.0816  138.0877  154.8572 C   0  0  0  0  0  0  0  0  0  0  0  0
  145.9515  140.4125  154.3770 N   0  3  1  0  0  0  0  0  0  0  0  0
  145.4224  140.8518  155.7069 C   0  0  0  0  0  0  0  0  0  0  0  0
  144.9729  142.3224  155.7015 C   0  0  0  0  0  0  0  0  0  0  0  0
  146.0959  143.2490  155.2347 C   0  0  0  0  0  0  0  0  0  0  0  0
  146.5712  142.7958  153.8510 C   0  0  0  0  0  0  0  0  0  0  0  0
  147.0300  141.3187  153.8442 C   0  0  1  0  0  0  0  0  0  0  0  0
  148.4182  141.1661  154.5051 C   0  0  0  0  0  0  0  0  0  0  0  0
  149.3802  140.7138  153.8851 O   0  0  0  0  0  0  0  0  0  0  0  0
  148.4906  141.5278  155.7951 N   0  0  0  0  0  0  0  0  0  0  0  0
  149.6639  141.3850  156.6533 C   0  0  0  0  0  0  0  0  0  0  0  0
  149.8994  142.6060  157.5686 C   0  0  0  0  0  0  0  0  0  0  0  0
  151.1861  142.5197  158.3483 C   0  0  0  0  0  0  0  0  0  0  0  0
  152.3008  143.4054  158.3108 C   0  0  0  0  0  0  0  0  0  0  0  0
  153.2570  143.0640  159.1590 N   0  0  0  0  0  0  0  0  0  0  0  0
  152.7942  141.9461  159.7552 N   0  0  0  0  0  0  0  0  0  0  0  0
  153.5951  141.2915  160.7669 C   0  0  0  0  0  0  0  0  0  0  0  0
  151.5517  141.5894  159.2797 C   0  0  0  0  0  0  0  0  0  0  0  0
  146.6281  137.3807  152.8057 H   0  0  0  0  0  0  0  0  0  0  0  0
  147.4509  138.8738  152.4530 H   0  0  0  0  0  0  0  0  0  0  0  0
  145.7117  138.7408  152.1715 H   0  0  0  0  0  0  0  0  0  0  0  0
  147.1225  138.7211  154.8883 H   0  0  0  0  0  0  0  0  0  0  0  0
  145.2439  137.0267  154.6633 H   0  0  0  0  0  0  0  0  0  0  0  0
  144.1270  138.3602  154.4057 H   0  0  0  0  0  0  0  0  0  0  0  0
  144.9877  138.1805  155.9386 H   0  0  0  0  0  0  0  0  0  0  0  0
  144.5514  140.2636  155.9869 H   0  0  0  0  0  0  0  0  0  0  0  0
  146.1629  140.6867  156.4889 H   0  0  0  0  0  0  0  0  0  0  0  0
  144.1082  142.4374  155.0464 H   0  0  0  0  0  0  0  0  0  0  0  0
  144.6429  142.6130  156.6995 H   0  0  0  0  0  0  0  0  0  0  0  0
  145.7434  144.2799  155.1930 H   0  0  0  0  0  0  0  0  0  0  0  0
  146.9195  143.2289  155.9490 H   0  0  0  0  0  0  0  0  0  0  0  0
  145.7576  142.9212  153.1351 H   0  0  0  0  0  0  0  0  0  0  0  0
  147.3716  143.4521  153.5048 H   0  0  0  0  0  0  0  0  0  0  0  0
  147.1630  141.0753  152.7902 H   0  0  0  0  0  0  0  0  0  0  0  0
  147.6547  141.8872  156.2331 H   0  0  0  0  0  0  0  0  0  0  0  0
  149.5999  140.4682  157.2410 H   0  0  0  0  0  0  0  0  0  0  0  0
  150.5222  141.2664  155.9913 H   0  0  0  0  0  0  0  0  0  0  0  0
  149.8962  143.5072  156.9547 H   0  0  0  0  0  0  0  0  0  0  0  0
  149.0485  142.7153  158.2410 H   0  0  0  0  0  0  0  0  0  0  0  0
  152.4338  144.2917  157.7080 H   0  0  0  0  0  0  0  0  0  0  0  0
  153.1425  140.3388  161.0429 H   0  0  0  0  0  0  0  0  0  0  0  0
  153.6574  141.9246  161.6524 H   0  0  0  0  0  0  0  0  0  0  0  0
  154.5997  141.1082  160.3841 H   0  0  0  0  0  0  0  0  0  0  0  0
  151.0273  140.7211  159.6507 H   0  0  0  0  0  0  0  0  0  0  0  0
  145.1792  140.5550  153.7422 H   0  0  0  0  0  0  0  0  0  0  0  0
  1  2  1  0  0  0  0
  1 21  1  0  0  0  0
  1 22  1  0  0  0  0
  1 23  1  0  0  0  0
  2  3  1  0  0  0  0
  2  4  1  0  0  0  0
  2 24  1  0  0  0  0
  3 25  1  0  0  0  0
  3 26  1  0  0  0  0
  3 27  1  0  0  0  0
  4  9  1  0  0  0  0
  4  5  1  0  0  0  0
  4 47  1  0  0  0  0
  5  6  1  0  0  0  0
  5 28  1  0  0  0  0
  5 29  1  0  0  0  0
  6  7  1  0  0  0  0
  6 30  1  0  0  0  0
  6 31  1  0  0  0  0
  7  8  1  0  0  0  0
  7 32  1  0  0  0  0
  7 33  1  0  0  0  0
  8  9  1  0  0  0  0
  8 34  1  0  0  0  0
  8 35  1  0  0  0  0
  9 10  1  0  0  0  0
  9 36  1  0  0  0  0
 10 11  2  0  0  0  0
 10 12  1  0  0  0  0
 12 13  1  0  0  0  0
 12 37  1  0  0  0  0
 13 14  1  0  0  0  0
 13 38  1  0  0  0  0
 13 39  1  0  0  0  0
 14 15  1  0  0  0  0
 14 40  1  0  0  0  0
 14 41  1  0  0  0  0
 15 20  2  0  0  0  0
 15 16  1  0  0  0  0
 16 17  2  0  0  0  0
 16 42  1  0  0  0  0
 17 18  1  0  0  0  0
 18 19  1  0  0  0  0
 18 20  1  0  0  0  0
 19 43  1  0  0  0  0
 19 44  1  0  0  0  0
 19 45  1  0  0  0  0
 20 46  1  0  0  0  0
M  CHG  1   4   1
M  END
> <s_m_source_file>
AV-unprocessed.smi

> <i_m_source_file_index>
657

> <i_lp_mmshare_version>
43012

> <i_f3d_flags>
0

> <s_epik_input>
W0NIM11bQ0hdKFtDSDNdKU4xW0NIMl1bQ0gyXVtDSDJdW0NIMl1bQ0BIXTFDKD1PKVtOSF1bQ0gyXVtDSDJdYzJbY0hdbm4oW0NIM10pW2NIXTI=

> <s_epik_cmdline>
J2VwaWtfcHl0aG9uJywgJy1waCcsICc3LjAnLCAnLXRuJywgJzgnLCAnLW1hJywgJzIwMCcsICctbWV0YWxfYmluZGluZycsICctaW1hZScsICc8aW5maWxlLm1hZT4nLCAnLW9tYWUnLCAnPG91dGZpbGUubWFlPic=

> <r_lp_tautomer_probability>
1

> <r_epik_Ionization_Penalty>
0.0244317

> <r_epik_Ionization_Penalty_Charging>
0.0240236

> <r_epik_Ionization_Penalty_Neutral>
0.00040815

> <r_epik_State_Penalty>
0.0194773

> <r_epik_Charging_Adjusted_Penalty>
0.0435009

> <i_epik_Tot_Q>
1

> <i_epik_Tot_abs_Q>
1

> <r_epik_Metal_State_Penalty>
0.0361957

> <b_epik_Metal_Only>
0

> <s_lp_Force_Field>
OPLS_2005

> <r_lp_Energy>
18.2294

> <b_lp_Chiralities_Consistent>
1

> <s_lp_Variant>
AV-unprocessed.smi:657-2

> <Gold.Version>
5.8.1

> <Gold.Id.Protein>
6NUR|6NUR_protein|mol2

> <Gold.PLP.Fitness>
47.0722

> <Gold.PLP.PLP>
-38.3733

> <Gold.PLP.part.hbond>
-4.0000

> <Gold.PLP.part.metal>
0.0000

> <Gold.PLP.part.buried>
-4.5335

> <Gold.PLP.part.nonpolar>
-32.3738

> <Gold.PLP.part.repulsive>
1.8499

> <Gold.PLP.ligand.clash>
0.0000

> <Gold.PLP.ligand.torsion>
0.2679

> <Gold.PLP.Chemscore.Hbond>
3.0131

> <Gold.PLP.Chemscore.CHOScore>
0.0000

> <Gold.PLP.Chemscore.Metal>
0.0000

> <Gold.Chemscore.Hbonds>
donor molecule, donor type, donor heavy atom, donor atom, acceptor molecule, acceptor atom, score
      L1  H     4    47       P1 10175  2.00
      P1  H  7989  7998       L1    11  0.21
      P1  H  8011  8017       L1    11  0.23

> <Gold.PLP.Chemscore.Internal.Correction>
0.1953

> <Gold.Rescore>
     Score         DG    S(hbond)    S(metal)    S(lipo)     H(rot)  DE(clash)    DE(int)     intcor
     15.63     -18.10       1.95        0.00      87.75       1.63       1.44       1.04       ----

> <Gold.Chemscore.Fitness>
15.6252

> <Gold.Chemscore.DG>
-18.1043

> <Gold.Chemscore.ZeroCoef>
-5.4800

> <Gold.Chemscore.Hbond>
1.9536

> <Gold.Chemscore.Metal>
0.0000

> <Gold.Chemscore.Lipo>
87.7500

> <Gold.Chemscore.Internal_Hbond>
0.0000

> <Gold.Chemscore.DEClash>
1.4372

> <Gold.Chemscore.DEInternal>
1.0419

> <Gold.Chemscore.Rot>
1.6279

> <Gold.Chemscore.Internal.Correction>
   9.000000E+99

> <Gold.Chemscore.Hbonds>
donor molecule, donor type, donor heavy atom, donor atom, acceptor molecule, acceptor atom, score
      L1  H     4    47       P1 10175  0.98
      P1  H  7989  7998       L1    11  0.21
      P1  H  8011  8017       L1    11  0.08

> <Gold.Chemscore.Hbond.Weighted>
-6.5249

> <Gold.Chemscore.Metal.Weighted>
-0.0000

> <Gold.Chemscore.Lipo.Weighted>
-10.2667

> <Gold.Chemscore.Internal_Hbond.Weighted>
0.0000

> <Gold.Chemscore.DEClash.Weighted>
1.4372

> <Gold.Chemscore.DEInternal.Weighted>
1.0419

> <Gold.Chemscore.Rot.Weighted>
4.1673

> <Gold.Chemscore.Internal.Correction.Weighted>
   9.000000E+99

> <Gold.Protein.RotatedTorsions>
[ 6907 6896 6895 6894 ] final  -16.89 input  -60.11 | X-H torsion
[ 7974 7965 7964 7962 ] final   87.30 input  175.53 | X-H torsion
[ 8008 7997 7996 7995 ] final   32.07 input   59.86 | X-H torsion
[ 10167 10162 10161 10158 ] final  -42.28 input  -65.29 | X-H torsion
[ 10718 10713 10712 10709 ] final  173.26 input   66.30 | X-H torsion
[ 10763 10752 10751 10750 ] final   69.53 input  -60.55 | X-H torsion
[ 11005 11000 10999 10996 ] final  117.18 input  -57.11 | X-H torsion

> <Gold.Protein.ActiveResidues>
 VAL166  LYS551  ARG553  GLY616  TRP617  ASP618  TYR619  PRO620  LYS621  CYS622 
 ASP623  PHE694  ASN695  SER759  ASP760  ASP761  ALA762  ILE779  LEU786  VAL792 
 PHE793  MET794  SER795  GLU796  ALA797  LYS798  CYS799  TRP800  GLU811  SER814 

> <Gold.Protein.RotatedAtoms>
  151.3017  135.0770  159.9240 H   0  0  0  0  0  0  0  0  0  0  0  0  # atno 6907 bound_to 6896
  152.5296  133.9826  159.7824 H   0  0  0  0  0  0  0  0  0  0  0  0  # atno 6908 bound_to 6896
  151.0114  133.5910  159.2712 H   0  0  0  0  0  0  0  0  0  0  0  0  # atno 6909 bound_to 6896
  145.5608  139.2304  143.2460 H   0  0  0  0  0  0  0  0  0  0  0  0  # atno 7974 bound_to 7965
  155.1166  140.3244  155.4508 H   0  0  0  0  0  0  0  0  0  0  0  0  # atno 8008 bound_to 7997
  156.2675  140.2034  156.6237 H   0  0  0  0  0  0  0  0  0  0  0  0  # atno 8009 bound_to 7997
  154.6715  140.0536  157.0158 H   0  0  0  0  0  0  0  0  0  0  0  0  # atno 8010 bound_to 7997
  140.6974  143.3047  151.3186 H   0  0  0  0  0  0  0  0  0  0  0  0  # atno 10167 bound_to 10162
  156.9669  131.0078  151.2914 H   0  0  0  0  0  0  0  0  0  0  0  0  # atno 10718 bound_to 10713
  153.0292  135.5207  154.7302 H   0  0  0  0  0  0  0  0  0  0  0  0  # atno 10763 bound_to 10752
  154.6332  135.2903  155.0194 H   0  0  0  0  0  0  0  0  0  0  0  0  # atno 10764 bound_to 10752
  154.1139  135.6618  153.4942 H   0  0  0  0  0  0  0  0  0  0  0  0  # atno 10765 bound_to 10752
  139.9066  134.9607  156.7311 H   0  0  0  0  0  0  0  0  0  0  0  0  # atno 11005 bound_to 11000
  146.1852  140.6433  142.9171 LP  0  0  0  0  0  0  0  0  0  0  0  0  # atno 17320 bound_to 7965
  144.7484  140.5127  143.6819 LP  0  0  0  0  0  0  0  0  0  0  0  0  # atno 17321 bound_to 7965
  139.6448  144.0472  152.2582 LP  0  0  0  0  0  0  0  0  0  0  0  0  # atno 17342 bound_to 10162
  139.9989  144.6308  150.7747 LP  0  0  0  0  0  0  0  0  0  0  0  0  # atno 17343 bound_to 10162
  157.5619  130.8251  149.8277 LP  0  0  0  0  0  0  0  0  0  0  0  0  # atno 17370 bound_to 10713
  156.0298  130.3768  150.1718 LP  0  0  0  0  0  0  0  0  0  0  0  0  # atno 17371 bound_to 10713
  140.6924  133.9378  155.7974 LP  0  0  0  0  0  0  0  0  0  0  0  0  # atno 17394 bound_to 11000
  141.0432  134.0592  157.3877 LP  0  0  0  0  0  0  0  0  0  0  0  0  # atno 17395 bound_to 11000

$$$$
