AV-unprocessed.smi:3117|AV-procd|sdf|11882|dock3
  -GOLD-   2272017273D 1   1.00000     0.00000
 Structure written by MMmdl.
 36 36  0  0  0  0  0  0  0  0  1 V2000
  149.1314  141.2028  158.0465 C   0  0  0  0  0  0  0  0  0  0  0  0
  150.2970  141.2475  157.0428 C   0  0  2  0  0  0  0  0  0  0  0  0
  150.2774  139.9899  156.2848 N   0  0  0  0  0  0  0  0  0  0  0  0
  148.9732  139.5904  155.7477 C   0  0  0  0  0  0  0  0  0  0  0  0
  148.6874  140.2228  154.3691 C   0  0  0  0  0  0  0  0  0  0  0  0
  147.5841  139.4280  153.6514 C   0  0  0  0  0  0  0  0  0  0  0  0
  148.2907  141.7084  154.4672 C   0  0  0  0  0  0  0  0  0  0  0  0
  149.8498  140.1065  153.5713 O   0  0  0  0  0  0  0  0  0  0  0  0
  151.6687  141.4791  157.7488 C   0  0  2  0  0  0  0  0  0  0  0  0
  151.9789  140.4393  158.8447 C   0  0  0  0  0  0  0  0  0  0  0  0
  151.7959  142.8207  158.3045 N   0  0  0  0  0  0  0  0  0  0  0  0
  151.5085  144.0249  157.6944 C   0  0  0  0  0  0  0  0  0  0  0  0
  151.7663  145.0143  158.5995 C   0  0  0  0  0  0  0  0  0  0  0  0
  152.2140  144.3097  159.7515 C   0  0  0  0  0  0  0  0  0  0  0  0
  152.2294  142.9988  159.5740 N   0  0  0  0  0  0  0  0  0  0  0  0
  148.9858  142.1631  158.5406 H   0  0  0  0  0  0  0  0  0  0  0  0
  149.2953  140.4480  158.8164 H   0  0  0  0  0  0  0  0  0  0  0  0
  148.1927  140.9657  157.5446 H   0  0  0  0  0  0  0  0  0  0  0  0
  150.0985  142.0801  156.3663 H   0  0  0  0  0  0  0  0  0  0  0  0
  150.6302  139.2381  156.8691 H   0  0  0  0  0  0  0  0  0  0  0  0
  148.9256  138.5034  155.6698 H   0  0  0  0  0  0  0  0  0  0  0  0
  148.1737  139.8770  156.4257 H   0  0  0  0  0  0  0  0  0  0  0  0
  146.6469  139.4667  154.2080 H   0  0  0  0  0  0  0  0  0  0  0  0
  147.8569  138.3774  153.5409 H   0  0  0  0  0  0  0  0  0  0  0  0
  147.3897  139.8241  152.6538 H   0  0  0  0  0  0  0  0  0  0  0  0
  147.4105  141.8370  155.0981 H   0  0  0  0  0  0  0  0  0  0  0  0
  148.0557  142.1215  153.4857 H   0  0  0  0  0  0  0  0  0  0  0  0
  149.0906  142.3170  154.8900 H   0  0  0  0  0  0  0  0  0  0  0  0
  149.5917  139.8410  152.7019 H   0  0  0  0  0  0  0  0  0  0  0  0
  152.4500  141.3800  156.9933 H   0  0  0  0  0  0  0  0  0  0  0  0
  152.1190  139.4423  158.4278 H   0  0  0  0  0  0  0  0  0  0  0  0
  151.1784  140.3845  159.5832 H   0  0  0  0  0  0  0  0  0  0  0  0
  152.9001  140.6910  159.3715 H   0  0  0  0  0  0  0  0  0  0  0  0
  151.1434  144.0762  156.6793 H   0  0  0  0  0  0  0  0  0  0  0  0
  151.6508  146.0787  158.4600 H   0  0  0  0  0  0  0  0  0  0  0  0
  152.5241  144.7092  160.7057 H   0  0  0  0  0  0  0  0  0  0  0  0
  1  2  1  0  0  0  0
  1 16  1  0  0  0  0
  1 17  1  0  0  0  0
  1 18  1  0  0  0  0
  2  3  1  0  0  0  0
  2  9  1  0  0  0  0
  2 19  1  0  0  0  0
  3  4  1  0  0  0  0
  3 20  1  0  0  0  0
  4  5  1  0  0  0  0
  4 21  1  0  0  0  0
  4 22  1  0  0  0  0
  5  6  1  0  0  0  0
  5  7  1  0  0  0  0
  5  8  1  0  0  0  0
  6 23  1  0  0  0  0
  6 24  1  0  0  0  0
  6 25  1  0  0  0  0
  7 26  1  0  0  0  0
  7 27  1  0  0  0  0
  7 28  1  0  0  0  0
  8 29  1  0  0  0  0
  9 10  1  0  0  0  0
  9 11  1  0  0  0  0
  9 30  1  0  0  0  0
 10 31  1  0  0  0  0
 10 32  1  0  0  0  0
 10 33  1  0  0  0  0
 11 15  1  0  0  0  0
 11 12  1  0  0  0  0
 12 13  2  0  0  0  0
 12 34  1  0  0  0  0
 13 14  1  0  0  0  0
 13 35  1  0  0  0  0
 14 15  2  0  0  0  0
 14 36  1  0  0  0  0
M  END
> <s_m_source_file>
AV-unprocessed.smi

> <i_m_source_file_index>
3117

> <i_lp_mmshare_version>
43012

> <i_f3d_flags>
0

> <s_epik_input>
W0NIM11DKFtDSDNdKShbT0hdKVtDSDJdW05IXVtDQEBIXShbQ0gzXSlbQ0BIXShbQ0gzXSluMVtjSF1bY0hdW2NIXW4x

> <s_epik_cmdline>
J2VwaWtfcHl0aG9uJywgJy1waCcsICc3LjAnLCAnLXRuJywgJzgnLCAnLW1hJywgJzIwMCcsICctbWV0YWxfYmluZGluZycsICctaW1hZScsICc8aW5maWxlLm1hZT4nLCAnLW9tYWUnLCAnPG91dGZpbGUubWFlPic=

> <r_lp_tautomer_probability>
1

> <r_epik_Ionization_Penalty>
2.13419

> <r_epik_Ionization_Penalty_Charging>
0

> <r_epik_Ionization_Penalty_Neutral>
2.13419

> <r_epik_State_Penalty>
2.27148

> <r_epik_Charging_Adjusted_Penalty>
2.27148

> <i_epik_Tot_Q>
0

> <i_epik_Tot_abs_Q>
0

> <r_epik_Metal_State_Penalty>
2.27029

> <b_epik_Metal_Only>
0

> <s_lp_Force_Field>
OPLS_2005

> <r_lp_Energy>
19.9089

> <b_lp_Chiralities_Consistent>
1

> <s_lp_Variant>
AV-unprocessed.smi:3117-5

> <Gold.Version>
5.8.1

> <Gold.Id.Protein>
6NUR|6NUR_protein|mol2

> <Gold.PLP.Fitness>
38.4574

> <Gold.PLP.PLP>
-31.7127

> <Gold.PLP.part.hbond>
-1.6566

> <Gold.PLP.part.metal>
0.0000

> <Gold.PLP.part.buried>
-5.1185

> <Gold.PLP.part.nonpolar>
-26.1632

> <Gold.PLP.part.repulsive>
0.0000

> <Gold.PLP.ligand.clash>
0.0000

> <Gold.PLP.ligand.torsion>
0.6310

> <Gold.PLP.Chemscore.Hbond>
1.6720

> <Gold.PLP.Chemscore.CHOScore>
0.9508

> <Gold.PLP.Chemscore.Metal>
0.0000

> <Gold.Chemscore.Hbonds>
donor molecule, donor type, donor heavy atom, donor atom, acceptor molecule, acceptor atom, score
      L1  H     8    29       P1  7957  1.00
      P1  H  7989  7998       L1     8  0.66
      L1  C    12    34       P1  8028  0.99

> <Gold.PLP.Chemscore.Internal.Correction>
0.1383

> <Gold.Rescore>
     Score         DG    S(hbond)    S(metal)    S(lipo)     H(rot)  DE(clash)    DE(int)     intcor
     13.85     -14.33       1.39        0.00      83.79       2.19       0.02       0.45       ----

> <Gold.Chemscore.Fitness>
13.8513

> <Gold.Chemscore.DG>
-14.3260

> <Gold.Chemscore.ZeroCoef>
-5.4800

> <Gold.Chemscore.Hbond>
1.3904

> <Gold.Chemscore.Metal>
0.0000

> <Gold.Chemscore.Lipo>
83.7935

> <Gold.Chemscore.Internal_Hbond>
0.0000

> <Gold.Chemscore.DEClash>
0.0214

> <Gold.Chemscore.DEInternal>
0.4533

> <Gold.Chemscore.Rot>
2.1882

> <Gold.Chemscore.Internal.Correction>
   9.000000E+99

> <Gold.Chemscore.Hbonds>
donor molecule, donor type, donor heavy atom, donor atom, acceptor molecule, acceptor atom, score
      L1  H     8    29       P1  7957  0.91
      P1  H  7989  7998       L1     8  0.43

> <Gold.Chemscore.Hbond.Weighted>
-4.6439

> <Gold.Chemscore.Metal.Weighted>
-0.0000

> <Gold.Chemscore.Lipo.Weighted>
-9.8038

> <Gold.Chemscore.Internal_Hbond.Weighted>
0.0000

> <Gold.Chemscore.DEClash.Weighted>
0.0214

> <Gold.Chemscore.DEInternal.Weighted>
0.4533

> <Gold.Chemscore.Rot.Weighted>
5.6018

> <Gold.Chemscore.Internal.Correction.Weighted>
   9.000000E+99

> <Gold.Protein.RotatedTorsions>
[ 6907 6896 6895 6894 ] final -132.97 input  -60.11 | X-H torsion
[ 7974 7965 7964 7962 ] final  163.69 input  175.53 | X-H torsion
[ 8008 7997 7996 7995 ] final  130.29 input   59.86 | X-H torsion
[ 10167 10162 10161 10158 ] final -130.70 input  -65.29 | X-H torsion
[ 10718 10713 10712 10709 ] final   38.34 input   66.30 | X-H torsion
[ 10763 10752 10751 10750 ] final  113.90 input  -60.55 | X-H torsion
[ 11005 11000 10999 10996 ] final -109.05 input  -57.11 | X-H torsion

> <Gold.Protein.ActiveResidues>
 VAL166  LYS551  ARG553  GLY616  TRP617  ASP618  TYR619  PRO620  LYS621  CYS622 
 ASP623  PHE694  ASN695  SER759  ASP760  ASP761  ALA762  ILE779  LEU786  VAL792 
 PHE793  MET794  SER795  GLU796  ALA797  LYS798  CYS799  TRP800  GLU811  SER814 

> <Gold.Protein.RotatedAtoms>
  150.9685  133.6369  159.2741 H   0  0  0  0  0  0  0  0  0  0  0  0  # atno 6907 bound_to 6896
  151.3666  135.0913  159.9461 H   0  0  0  0  0  0  0  0  0  0  0  0  # atno 6908 bound_to 6896
  152.5174  133.9248  159.7606 H   0  0  0  0  0  0  0  0  0  0  0  0  # atno 6909 bound_to 6896
  144.7578  139.8218  143.6343 H   0  0  0  0  0  0  0  0  0  0  0  0  # atno 7974 bound_to 7965
  156.2952  140.2599  156.2738 H   0  0  0  0  0  0  0  0  0  0  0  0  # atno 8008 bound_to 7997
  154.9669  140.0391  157.2235 H   0  0  0  0  0  0  0  0  0  0  0  0  # atno 8009 bound_to 7997
  154.7894  140.2809  155.6007 H   0  0  0  0  0  0  0  0  0  0  0  0  # atno 8010 bound_to 7997
  139.9265  143.6321  152.2540 H   0  0  0  0  0  0  0  0  0  0  0  0  # atno 10167 bound_to 10162
  157.3577  130.7632  149.7024 H   0  0  0  0  0  0  0  0  0  0  0  0  # atno 10718 bound_to 10713
  153.4993  135.3641  155.2531 H   0  0  0  0  0  0  0  0  0  0  0  0  # atno 10763 bound_to 10752
  154.8748  135.3996  154.3497 H   0  0  0  0  0  0  0  0  0  0  0  0  # atno 10764 bound_to 10752
  153.4131  135.7078  153.6412 H   0  0  0  0  0  0  0  0  0  0  0  0  # atno 10765 bound_to 10752
  141.0869  133.9124  157.2166 H   0  0  0  0  0  0  0  0  0  0  0  0  # atno 11005 bound_to 11000
  146.1609  139.4723  142.9989 LP  0  0  0  0  0  0  0  0  0  0  0  0  # atno 17320 bound_to 7965
  145.6719  141.0214  143.1653 LP  0  0  0  0  0  0  0  0  0  0  0  0  # atno 17321 bound_to 7965
  139.6817  144.7655  151.1596 LP  0  0  0  0  0  0  0  0  0  0  0  0  # atno 17342 bound_to 10162
  140.7648  143.5715  150.8991 LP  0  0  0  0  0  0  0  0  0  0  0  0  # atno 17343 bound_to 10162
  155.9732  130.4123  150.4023 LP  0  0  0  0  0  0  0  0  0  0  0  0  # atno 17370 bound_to 10713
  157.2095  131.0457  151.2607 LP  0  0  0  0  0  0  0  0  0  0  0  0  # atno 17371 bound_to 10713
  139.9688  135.0134  156.9458 LP  0  0  0  0  0  0  0  0  0  0  0  0  # atno 17394 bound_to 11000
  140.5343  134.0783  155.7324 LP  0  0  0  0  0  0  0  0  0  0  0  0  # atno 17395 bound_to 11000

$$$$
