AV-unprocessed.smi:3272|AV-procd|sdf|12518|dock8
  -GOLD-   2272018433D 1   1.00000     0.00000
 Structure written by MMmdl.
 35 36  0  0  0  0  0  0  0  0  1 V2000
  153.1598  142.6329  162.0575 C   0  0  0  0  0  0  0  0  0  0  0  0
  153.5689  141.9600  160.7419 C   0  0  0  0  0  0  0  0  0  0  0  0
  152.8955  142.5538  159.6036 N   0  0  0  0  0  0  0  0  0  0  0  0
  152.0413  141.9463  158.7048 C   0  0  0  0  0  0  0  0  0  0  0  0
  151.6681  142.9271  157.8299 C   0  0  0  0  0  0  0  0  0  0  0  0
  150.7946  142.8545  156.7156 N   0  0  0  0  0  0  0  0  0  0  0  0
  150.3224  141.7473  156.1200 C   0  0  0  0  0  0  0  0  0  0  0  0
  150.6054  140.5940  156.4443 O   0  0  0  0  0  0  0  0  0  0  0  0
  149.4994  142.0550  155.1073 N   0  0  0  0  0  0  0  0  0  0  0  0
  148.8273  141.0944  154.2381 C   0  0  0  0  0  0  0  0  0  0  0  0
  147.2953  141.2068  154.3441 C   0  0  2  0  0  0  0  0  0  0  0  0
  146.7667  142.6086  154.1205 C   0  0  0  0  0  0  0  0  0  0  0  0
  145.3677  142.5213  154.7237 C   0  0  0  0  0  0  0  0  0  0  0  0
  145.4505  141.5539  155.7667 O   0  0  0  0  0  0  0  0  0  0  0  0
  146.7131  140.8960  155.7242 C   0  0  0  0  0  0  0  0  0  0  0  0
  152.3348  144.1037  158.2598 C   0  0  0  0  0  0  0  0  0  0  0  0
  153.0768  143.8698  159.3314 N   0  0  0  0  0  0  0  0  0  0  0  0
  153.6639  142.1670  162.9043 H   0  0  0  0  0  0  0  0  0  0  0  0
  152.0851  142.5514  162.2230 H   0  0  0  0  0  0  0  0  0  0  0  0
  153.4204  143.6917  162.0575 H   0  0  0  0  0  0  0  0  0  0  0  0
  154.6468  142.0379  160.5935 H   0  0  0  0  0  0  0  0  0  0  0  0
  153.3291  140.8965  160.7728 H   0  0  0  0  0  0  0  0  0  0  0  0
  151.7832  140.8999  158.7754 H   0  0  0  0  0  0  0  0  0  0  0  0
  150.4970  143.7398  156.3324 H   0  0  0  0  0  0  0  0  0  0  0  0
  149.3281  143.0315  154.9176 H   0  0  0  0  0  0  0  0  0  0  0  0
  149.1514  141.2080  153.2020 H   0  0  0  0  0  0  0  0  0  0  0  0
  149.1405  140.0965  154.5456 H   0  0  0  0  0  0  0  0  0  0  0  0
  146.8315  140.5441  153.6113 H   0  0  0  0  0  0  0  0  0  0  0  0
  147.3662  143.3344  154.6722 H   0  0  0  0  0  0  0  0  0  0  0  0
  146.7577  142.9018  153.0703 H   0  0  0  0  0  0  0  0  0  0  0  0
  145.0169  143.4830  155.0991 H   0  0  0  0  0  0  0  0  0  0  0  0
  144.6533  142.1674  153.9795 H   0  0  0  0  0  0  0  0  0  0  0  0
  146.6089  139.8258  155.9042 H   0  0  0  0  0  0  0  0  0  0  0  0
  147.3431  141.3113  156.5119 H   0  0  0  0  0  0  0  0  0  0  0  0
  152.3058  145.0985  157.8400 H   0  0  0  0  0  0  0  0  0  0  0  0
  1  2  1  0  0  0  0
  1 18  1  0  0  0  0
  1 19  1  0  0  0  0
  1 20  1  0  0  0  0
  2  3  1  0  0  0  0
  2 21  1  0  0  0  0
  2 22  1  0  0  0  0
  3 17  1  0  0  0  0
  3  4  1  0  0  0  0
  4  5  2  0  0  0  0
  4 23  1  0  0  0  0
  5  6  1  0  0  0  0
  5 16  1  0  0  0  0
  6  7  1  0  0  0  0
  6 24  1  0  0  0  0
  7  8  2  0  0  0  0
  7  9  1  0  0  0  0
  9 10  1  0  0  0  0
  9 25  1  0  0  0  0
 10 11  1  0  0  0  0
 10 26  1  0  0  0  0
 10 27  1  0  0  0  0
 11 15  1  0  0  0  0
 11 12  1  0  0  0  0
 11 28  1  0  0  0  0
 12 13  1  0  0  0  0
 12 29  1  0  0  0  0
 12 30  1  0  0  0  0
 13 14  1  0  0  0  0
 13 31  1  0  0  0  0
 13 32  1  0  0  0  0
 14 15  1  0  0  0  0
 15 33  1  0  0  0  0
 15 34  1  0  0  0  0
 16 17  2  0  0  0  0
 16 35  1  0  0  0  0
M  END
> <s_m_source_file>
AV-unprocessed.smi

> <i_m_source_file_index>
3272

> <i_lp_mmshare_version>
43012

> <i_f3d_flags>
0

> <s_epik_input>
W0NIM11bQ0gyXW4xW2NIXWMoW2NIXW4xKVtOSF1DKD1PKVtOSF1bQ0gyXVtDQEBIXTJbQ0gyXVtDSDJdT1tDSDJdMg==

> <s_epik_cmdline>
J2VwaWtfcHl0aG9uJywgJy1waCcsICc3LjAnLCAnLXRuJywgJzgnLCAnLW1hJywgJzIwMCcsICctbWV0YWxfYmluZGluZycsICctaW1hZScsICc8aW5maWxlLm1hZT4nLCAnLW9tYWUnLCAnPG91dGZpbGUubWFlPic=

> <r_lp_tautomer_probability>
1

> <r_epik_Ionization_Penalty>
0.000182896

> <r_epik_Ionization_Penalty_Charging>
0

> <r_epik_Ionization_Penalty_Neutral>
0.000182896

> <r_epik_State_Penalty>
-0

> <r_epik_Charging_Adjusted_Penalty>
0

> <i_epik_Tot_Q>
0

> <i_epik_Tot_abs_Q>
0

> <r_epik_Metal_State_Penalty>
-0

> <b_epik_Metal_Only>
0

> <s_lp_Force_Field>
OPLS_2005

> <r_lp_Energy>
22.7112

> <b_lp_Chiralities_Consistent>
1

> <s_lp_Variant>
AV-unprocessed.smi:3272-1

> <Gold.Version>
5.8.1

> <Gold.Id.Protein>
6NUR|6NUR_protein|mol2

> <Gold.PLP.Fitness>
45.3722

> <Gold.PLP.PLP>
-40.3361

> <Gold.PLP.part.hbond>
-2.0000

> <Gold.PLP.part.metal>
0.0000

> <Gold.PLP.part.buried>
-5.3146

> <Gold.PLP.part.nonpolar>
-33.9753

> <Gold.PLP.part.repulsive>
0.4187

> <Gold.PLP.ligand.clash>
0.0000

> <Gold.PLP.ligand.torsion>
0.0535

> <Gold.PLP.Chemscore.Hbond>
1.7120

> <Gold.PLP.Chemscore.CHOScore>
0.0000

> <Gold.PLP.Chemscore.Metal>
0.0000

> <Gold.Chemscore.Hbonds>
donor molecule, donor type, donor heavy atom, donor atom, acceptor molecule, acceptor atom, score
      L1  H     6    24       P1  8028  0.88
      L1  H     9    25       P1  8028  0.94

> <Gold.PLP.Chemscore.Internal.Correction>
0.0071

> <Gold.Rescore>
     Score         DG    S(hbond)    S(metal)    S(lipo)     H(rot)  DE(clash)    DE(int)     intcor
     16.69     -17.86       1.97        0.00      80.32       1.41       0.00       1.17       ----

> <Gold.Chemscore.Fitness>
16.6927

> <Gold.Chemscore.DG>
-17.8613

> <Gold.Chemscore.ZeroCoef>
-5.4800

> <Gold.Chemscore.Hbond>
1.9714

> <Gold.Chemscore.Metal>
0.0000

> <Gold.Chemscore.Lipo>
80.3181

> <Gold.Chemscore.Internal_Hbond>
0.0000

> <Gold.Chemscore.DEClash>
0.0000

> <Gold.Chemscore.DEInternal>
1.1686

> <Gold.Chemscore.Rot>
1.4064

> <Gold.Chemscore.Internal.Correction>
   9.000000E+99

> <Gold.Chemscore.Hbonds>
donor molecule, donor type, donor heavy atom, donor atom, acceptor molecule, acceptor atom, score
      L1  H     6    24       P1  8028  0.84
      L1  H     9    25       P1  8028  0.91

> <Gold.Chemscore.Hbond.Weighted>
-6.5845

> <Gold.Chemscore.Metal.Weighted>
-0.0000

> <Gold.Chemscore.Lipo.Weighted>
-9.3972

> <Gold.Chemscore.Internal_Hbond.Weighted>
0.0000

> <Gold.Chemscore.DEClash.Weighted>
0.0000

> <Gold.Chemscore.DEInternal.Weighted>
1.1686

> <Gold.Chemscore.Rot.Weighted>
3.6004

> <Gold.Chemscore.Internal.Correction.Weighted>
   9.000000E+99

> <Gold.Protein.RotatedTorsions>
[ 6907 6896 6895 6894 ] final   30.20 input  -60.11 | X-H torsion
[ 7974 7965 7964 7962 ] final  104.67 input  175.53 | X-H torsion
[ 8008 7997 7996 7995 ] final  110.32 input   59.86 | X-H torsion
[ 10167 10162 10161 10158 ] final -167.11 input  -65.29 | X-H torsion
[ 10718 10713 10712 10709 ] final -122.05 input   66.30 | X-H torsion
[ 10763 10752 10751 10750 ] final   92.71 input  -60.55 | X-H torsion
[ 11005 11000 10999 10996 ] final -125.83 input  -57.11 | X-H torsion

> <Gold.Protein.ActiveResidues>
 VAL166  LYS551  ARG553  GLY616  TRP617  ASP618  TYR619  PRO620  LYS621  CYS622 
 ASP623  PHE694  ASN695  SER759  ASP760  ASP761  ALA762  ILE779  LEU786  VAL792 
 PHE793  MET794  SER795  GLU796  ALA797  LYS798  CYS799  TRP800  GLU811  SER814 

> <Gold.Protein.RotatedAtoms>
  152.0426  134.9702  160.0573 H   0  0  0  0  0  0  0  0  0  0  0  0  # atno 6907 bound_to 6896
  152.1135  133.4309  159.4650 H   0  0  0  0  0  0  0  0  0  0  0  0  # atno 6908 bound_to 6896
  150.6845  134.2539  159.4565 H   0  0  0  0  0  0  0  0  0  0  0  0  # atno 6909 bound_to 6896
  145.3298  139.2490  143.3667 H   0  0  0  0  0  0  0  0  0  0  0  0  # atno 7974 bound_to 7965
  156.2044  140.3041  155.9596 H   0  0  0  0  0  0  0  0  0  0  0  0  # atno 8008 bound_to 7997
  155.2876  140.0440  157.3037 H   0  0  0  0  0  0  0  0  0  0  0  0  # atno 8009 bound_to 7997
  154.5614  140.2321  155.8338 H   0  0  0  0  0  0  0  0  0  0  0  0  # atno 8010 bound_to 7997
  139.6071  144.0891  152.1804 H   0  0  0  0  0  0  0  0  0  0  0  0  # atno 10167 bound_to 10162
  156.1386  130.6449  150.9736 H   0  0  0  0  0  0  0  0  0  0  0  0  # atno 10718 bound_to 10713
  153.2222  135.4351  155.0502 H   0  0  0  0  0  0  0  0  0  0  0  0  # atno 10763 bound_to 10752
  154.8255  135.3359  154.6910 H   0  0  0  0  0  0  0  0  0  0  0  0  # atno 10764 bound_to 10752
  153.7342  135.7009  153.5038 H   0  0  0  0  0  0  0  0  0  0  0  0  # atno 10765 bound_to 10752
  140.9730  134.0779  157.3849 H   0  0  0  0  0  0  0  0  0  0  0  0  # atno 11005 bound_to 11000
  146.3050  140.3873  142.8690 LP  0  0  0  0  0  0  0  0  0  0  0  0  # atno 17320 bound_to 7965
  144.8873  140.7479  143.5948 LP  0  0  0  0  0  0  0  0  0  0  0  0  # atno 17321 bound_to 7965
  140.0501  144.5940  150.7343 LP  0  0  0  0  0  0  0  0  0  0  0  0  # atno 17342 bound_to 10162
  140.7292  143.2670  151.4011 LP  0  0  0  0  0  0  0  0  0  0  0  0  # atno 17343 bound_to 10162
  157.6555  131.0890  150.7956 LP  0  0  0  0  0  0  0  0  0  0  0  0  # atno 17370 bound_to 10713
  156.8033  130.4928  149.5366 LP  0  0  0  0  0  0  0  0  0  0  0  0  # atno 17371 bound_to 10713
  139.8919  135.0121  156.6819 LP  0  0  0  0  0  0  0  0  0  0  0  0  # atno 17394 bound_to 11000
  140.7301  133.9066  155.8205 LP  0  0  0  0  0  0  0  0  0  0  0  0  # atno 17395 bound_to 11000

$$$$
