AV-unprocessed.smi:2565|AV-procd|sdf|10068|dock8
  -GOLD-   2272014103D 1   1.00000     0.00000
 Structure written by MMmdl.
 25 26  0  0  0  0  0  0  0  0  2 V2000
  153.2541  142.5573  160.7606 C   0  0  0  0  0  0  0  0  0  0  0  0
  153.1419  141.5929  159.6845 N   0  0  0  0  0  0  0  0  0  0  0  0
  153.8235  140.4504  159.5116 C   0  0  0  0  0  0  0  0  0  0  0  0
  153.4943  139.7574  158.4226 N   0  0  0  0  0  0  0  0  0  0  0  0
  152.5048  140.5074  157.8196 N   0  0  0  0  0  0  0  0  0  0  0  0
  152.3395  141.5839  158.5999 C   0  0  0  0  0  0  0  0  0  0  0  0
  151.3336  142.6645  158.3305 C   0  0  2  0  0  0  0  0  0  0  0  0
  152.0009  144.0202  158.0278 C   0  0  0  0  0  0  0  0  0  0  0  0
  150.9720  145.0667  157.8701 N   0  3  0  0  0  0  0  0  0  0  0  0
  150.0831  145.1320  159.0470 C   0  0  0  0  0  0  0  0  0  0  0  0
  149.4793  143.7456  159.3327 C   0  0  0  0  0  0  0  0  0  0  0  0
  150.5227  142.7905  159.4968 O   0  0  0  0  0  0  0  0  0  0  0  0
  153.9225  142.1789  161.5347 H   0  0  0  0  0  0  0  0  0  0  0  0
  152.2726  142.7381  161.1997 H   0  0  0  0  0  0  0  0  0  0  0  0
  153.6552  143.4945  160.3743 H   0  0  0  0  0  0  0  0  0  0  0  0
  154.5799  140.1115  160.2046 H   0  0  0  0  0  0  0  0  0  0  0  0
  150.6996  142.3618  157.4953 H   0  0  0  0  0  0  0  0  0  0  0  0
  152.6741  144.3032  158.8384 H   0  0  0  0  0  0  0  0  0  0  0  0
  152.5990  143.9619  157.1180 H   0  0  0  0  0  0  0  0  0  0  0  0
  151.4208  145.9623  157.7383 H   0  0  0  0  0  0  0  0  0  0  0  0
  150.6544  145.4793  159.9091 H   0  0  0  0  0  0  0  0  0  0  0  0
  149.2957  145.8640  158.8662 H   0  0  0  0  0  0  0  0  0  0  0  0
  148.8817  143.7766  160.2439 H   0  0  0  0  0  0  0  0  0  0  0  0
  148.8129  143.4369  158.5257 H   0  0  0  0  0  0  0  0  0  0  0  0
  150.4147  144.8545  157.0549 H   0  0  0  0  0  0  0  0  0  0  0  0
  1  2  1  0  0  0  0
  1 13  1  0  0  0  0
  1 14  1  0  0  0  0
  1 15  1  0  0  0  0
  2  6  1  0  0  0  0
  2  3  1  0  0  0  0
  3  4  2  0  0  0  0
  3 16  1  0  0  0  0
  4  5  1  0  0  0  0
  5  6  2  0  0  0  0
  6  7  1  0  0  0  0
  7 12  1  0  0  0  0
  7  8  1  0  0  0  0
  7 17  1  0  0  0  0
  8  9  1  0  0  0  0
  8 18  1  0  0  0  0
  8 19  1  0  0  0  0
  9 10  1  0  0  0  0
  9 20  1  0  0  0  0
  9 25  1  0  0  0  0
 10 11  1  0  0  0  0
 10 21  1  0  0  0  0
 10 22  1  0  0  0  0
 11 12  1  0  0  0  0
 11 23  1  0  0  0  0
 11 24  1  0  0  0  0
M  CHG  1   9   1
M  END
> <s_m_source_file>
AV-unprocessed.smi

> <i_m_source_file_index>
2565

> <i_lp_mmshare_version>
43012

> <i_f3d_flags>
0

> <s_epik_input>
W0NIM11uMVtjSF1ubmMxW0NAQEhdMltDSDJdW05IXVtDSDJdW0NIMl1PMg==

> <s_epik_cmdline>
J2VwaWtfcHl0aG9uJywgJy1waCcsICc3LjAnLCAnLXRuJywgJzgnLCAnLW1hJywgJzIwMCcsICctbWV0YWxfYmluZGluZycsICctaW1hZScsICc8aW5maWxlLm1hZT4nLCAnLW9tYWUnLCAnPG91dGZpbGUubWFlPic=

> <r_lp_tautomer_probability>
1

> <r_epik_Ionization_Penalty>
0.12571

> <r_epik_Ionization_Penalty_Charging>
0.125708

> <r_epik_Ionization_Penalty_Neutral>
1.64918e-06

> <r_epik_State_Penalty>
0.115169

> <r_epik_Charging_Adjusted_Penalty>
0.240877

> <i_epik_Tot_Q>
1

> <i_epik_Tot_abs_Q>
1

> <r_epik_Metal_State_Penalty>
0.115216

> <b_epik_Metal_Only>
0

> <s_lp_Force_Field>
OPLS_2005

> <r_lp_Energy>
13.9295

> <b_lp_Chiralities_Consistent>
1

> <s_lp_Variant>
AV-unprocessed.smi:2565-1

> <Gold.Version>
5.8.1

> <Gold.Id.Protein>
6NUR|6NUR_protein|mol2

> <Gold.PLP.Fitness>
29.8199

> <Gold.PLP.PLP>
-20.9484

> <Gold.PLP.part.hbond>
-4.1371

> <Gold.PLP.part.metal>
0.0000

> <Gold.PLP.part.buried>
1.7814

> <Gold.PLP.part.nonpolar>
-18.7307

> <Gold.PLP.part.repulsive>
0.1998

> <Gold.PLP.ligand.clash>
0.0000

> <Gold.PLP.ligand.torsion>
0.0662

> <Gold.PLP.Chemscore.Hbond>
3.0000

> <Gold.PLP.Chemscore.CHOScore>
0.0000

> <Gold.PLP.Chemscore.Metal>
0.0000

> <Gold.Chemscore.Hbonds>
donor molecule, donor type, donor heavy atom, donor atom, acceptor molecule, acceptor atom, score
      L1  H     9    25       P1  8028  2.00
      P1  H  7997  8008       L1     4  1.00

> <Gold.PLP.Chemscore.Internal.Correction>
0.0039

> <Gold.Rescore>
     Score         DG    S(hbond)    S(metal)    S(lipo)     H(rot)  DE(clash)    DE(int)     intcor
     10.83     -11.37       0.89        0.00      46.81       1.00       0.53       0.00       ----

> <Gold.Chemscore.Fitness>
10.8345

> <Gold.Chemscore.DG>
-11.3669

> <Gold.Chemscore.ZeroCoef>
-5.4800

> <Gold.Chemscore.Hbond>
0.8894

> <Gold.Chemscore.Metal>
0.0000

> <Gold.Chemscore.Lipo>
46.8051

> <Gold.Chemscore.Internal_Hbond>
0.0000

> <Gold.Chemscore.DEClash>
0.5295

> <Gold.Chemscore.DEInternal>
0.0029

> <Gold.Chemscore.Rot>
1.0000

> <Gold.Chemscore.Internal.Correction>
   9.000000E+99

> <Gold.Chemscore.Hbonds>
donor molecule, donor type, donor heavy atom, donor atom, acceptor molecule, acceptor atom, score
      L1  H     9    25       P1  8028  0.42
      P1  H  7997  8008       L1     4  0.12

> <Gold.Chemscore.Hbond.Weighted>
-2.9707

> <Gold.Chemscore.Metal.Weighted>
-0.0000

> <Gold.Chemscore.Lipo.Weighted>
-5.4762

> <Gold.Chemscore.Internal_Hbond.Weighted>
0.0000

> <Gold.Chemscore.DEClash.Weighted>
0.5295

> <Gold.Chemscore.DEInternal.Weighted>
0.0029

> <Gold.Chemscore.Rot.Weighted>
2.5600

> <Gold.Chemscore.Internal.Correction.Weighted>
   9.000000E+99

> <Gold.Protein.RotatedTorsions>
[ 6907 6896 6895 6894 ] final  135.93 input  -60.11 | X-H torsion
[ 7974 7965 7964 7962 ] final   39.55 input  175.53 | X-H torsion
[ 8008 7997 7996 7995 ] final -106.26 input   59.86 | X-H torsion
[ 10167 10162 10161 10158 ] final -177.51 input  -65.29 | X-H torsion
[ 10718 10713 10712 10709 ] final  -93.03 input   66.30 | X-H torsion
[ 10763 10752 10751 10750 ] final  -86.83 input  -60.55 | X-H torsion
[ 11005 11000 10999 10996 ] final  -98.83 input  -57.11 | X-H torsion

> <Gold.Protein.ActiveResidues>
 VAL166  LYS551  ARG553  GLY616  TRP617  ASP618  TYR619  PRO620  LYS621  CYS622 
 ASP623  PHE694  ASN695  SER759  ASP760  ASP761  ALA762  ILE779  LEU786  VAL792 
 PHE793  MET794  SER795  GLU796  ALA797  LYS798  CYS799  TRP800  GLU811  SER814 

> <Gold.Protein.RotatedAtoms>
  152.2950  133.5598  159.5581 H   0  0  0  0  0  0  0  0  0  0  0  0  # atno 6907 bound_to 6896
  150.7252  134.0374  159.3763 H   0  0  0  0  0  0  0  0  0  0  0  0  # atno 6908 bound_to 6896
  151.8278  135.0631  160.0484 H   0  0  0  0  0  0  0  0  0  0  0  0  # atno 6909 bound_to 6896
  146.0975  139.5638  142.9436 H   0  0  0  0  0  0  0  0  0  0  0  0  # atno 7974 bound_to 7965
  154.9119  140.0409  157.1951 H   0  0  0  0  0  0  0  0  0  0  0  0  # atno 8008 bound_to 7997
  154.8339  140.2903  155.5682 H   0  0  0  0  0  0  0  0  0  0  0  0  # atno 8009 bound_to 7997
  156.2988  140.2495  156.3270 H   0  0  0  0  0  0  0  0  0  0  0  0  # atno 8010 bound_to 7997
  139.5477  144.2193  152.1018 H   0  0  0  0  0  0  0  0  0  0  0  0  # atno 10167 bound_to 10162
  156.0008  130.5011  150.5715 H   0  0  0  0  0  0  0  0  0  0  0  0  # atno 10718 bound_to 10713
  154.6269  135.5435  153.7637 H   0  0  0  0  0  0  0  0  0  0  0  0  # atno 10763 bound_to 10752
  153.0265  135.6426  154.1359 H   0  0  0  0  0  0  0  0  0  0  0  0  # atno 10764 bound_to 10752
  154.1290  135.2915  155.3170 H   0  0  0  0  0  0  0  0  0  0  0  0  # atno 10765 bound_to 10752
  141.1330  133.8275  157.0892 H   0  0  0  0  0  0  0  0  0  0  0  0  # atno 11005 bound_to 11000
  145.5919  141.0368  143.2065 LP  0  0  0  0  0  0  0  0  0  0  0  0  # atno 17320 bound_to 7965
  144.7407  139.7458  143.7312 LP  0  0  0  0  0  0  0  0  0  0  0  0  # atno 17321 bound_to 7965
  140.1682  144.4961  150.6594 LP  0  0  0  0  0  0  0  0  0  0  0  0  # atno 17342 bound_to 10162
  140.6730  143.2293  151.5578 LP  0  0  0  0  0  0  0  0  0  0  0  0  # atno 17343 bound_to 10162
  157.3609  131.0749  151.1637 LP  0  0  0  0  0  0  0  0  0  0  0  0  # atno 17370 bound_to 10713
  157.2422  130.6574  149.5894 LP  0  0  0  0  0  0  0  0  0  0  0  0  # atno 17371 bound_to 10713
  140.0403  134.9858  157.0949 LP  0  0  0  0  0  0  0  0  0  0  0  0  # atno 17394 bound_to 11000
  140.4146  134.1945  155.7163 LP  0  0  0  0  0  0  0  0  0  0  0  0  # atno 17395 bound_to 11000

$$$$
