AV-unprocessed.smi:1801|AV-procd|sdf|7270|dock7
  -GOLD-   22720 8523D 1   1.00000     0.00000
 Structure written by MMmdl.
 37 38  0  0  0  0  0  0  0  0  3 V2000
  148.4934  133.2112  153.6358 C   0  0  0  0  0  0  0  0  0  0  0  0
  147.6144  133.8785  154.7066 C   0  0  1  0  0  0  0  0  0  0  0  0
  148.4852  134.3510  155.8927 C   0  0  0  0  0  0  0  0  0  0  0  0
  147.7853  134.2786  157.1727 N   0  0  0  0  0  0  0  0  0  0  0  0
  148.2710  134.6634  158.3615 C   0  0  0  0  0  0  0  0  0  0  0  0
  149.3924  135.1706  158.4338 O   0  0  0  0  0  0  0  0  0  0  0  0
  147.4318  134.4229  159.3933 N   0  5  0  0  0  0  0  0  0  0  0  0
  147.5518  135.1231  160.5334 C   0  0  0  0  0  0  0  0  0  0  0  0
  148.2983  136.2358  160.6174 N   0  0  0  0  0  0  0  0  0  0  0  0
  148.2830  136.8095  161.8815 N   0  0  0  0  0  0  0  0  0  0  0  0
  147.5151  136.1150  162.7208 C   0  0  0  0  0  0  0  0  0  0  0  0
  146.7394  134.6988  162.0430 S   0  0  0  0  0  0  0  0  0  0  0  0
  146.7717  135.0284  154.1057 C   0  0  0  0  0  0  0  0  0  0  0  0
  146.4960  134.8314  152.6631 N   0  3  0  0  0  0  0  0  0  0  0  0
  145.8179  133.5562  152.3215 C   0  0  0  0  0  0  0  0  0  0  0  0
  144.7008  133.8972  151.3269 C   0  0  0  0  0  0  0  0  0  0  0  0
  145.0486  135.2959  150.8286 C   0  0  0  0  0  0  0  0  0  0  0  0
  145.7231  135.9262  152.0422 C   0  0  0  0  0  0  0  0  0  0  0  0
  149.2042  133.9187  153.2079 H   0  0  0  0  0  0  0  0  0  0  0  0
  147.8930  132.8073  152.8205 H   0  0  0  0  0  0  0  0  0  0  0  0
  149.0641  132.3836  154.0586 H   0  0  0  0  0  0  0  0  0  0  0  0
  146.9382  133.1129  155.0874 H   0  0  0  0  0  0  0  0  0  0  0  0
  149.4017  133.7615  155.9522 H   0  0  0  0  0  0  0  0  0  0  0  0
  148.7946  135.3852  155.7387 H   0  0  0  0  0  0  0  0  0  0  0  0
  146.8559  133.8843  157.1620 H   0  0  0  0  0  0  0  0  0  0  0  0
  147.4029  136.4397  163.7443 H   0  0  0  0  0  0  0  0  0  0  0  0
  145.8156  135.1356  154.6198 H   0  0  0  0  0  0  0  0  0  0  0  0
  147.3002  135.9723  154.2467 H   0  0  0  0  0  0  0  0  0  0  0  0
  146.5496  132.8846  151.8715 H   0  0  0  0  0  0  0  0  0  0  0  0
  145.4074  133.0550  153.1998 H   0  0  0  0  0  0  0  0  0  0  0  0
  144.6186  133.1696  150.5190 H   0  0  0  0  0  0  0  0  0  0  0  0
  143.7430  133.9240  151.8485 H   0  0  0  0  0  0  0  0  0  0  0  0
  145.7554  135.2321  149.9999 H   0  0  0  0  0  0  0  0  0  0  0  0
  144.1766  135.8553  150.4882 H   0  0  0  0  0  0  0  0  0  0  0  0
  144.9618  136.2821  152.7387 H   0  0  0  0  0  0  0  0  0  0  0  0
  146.3613  136.7699  151.7785 H   0  0  0  0  0  0  0  0  0  0  0  0
  147.3872  134.8149  152.1881 H   0  0  0  0  0  0  0  0  0  0  0  0
  1  2  1  0  0  0  0
  1 19  1  0  0  0  0
  1 20  1  0  0  0  0
  1 21  1  0  0  0  0
  2  3  1  0  0  0  0
  2 13  1  0  0  0  0
  2 22  1  0  0  0  0
  3  4  1  0  0  0  0
  3 23  1  0  0  0  0
  3 24  1  0  0  0  0
  4  5  1  0  0  0  0
  4 25  1  0  0  0  0
  5  6  2  0  0  0  0
  5  7  1  0  0  0  0
  7  8  1  0  0  0  0
  8 12  1  0  0  0  0
  8  9  2  0  0  0  0
  9 10  1  0  0  0  0
 10 11  2  0  0  0  0
 11 12  1  0  0  0  0
 11 26  1  0  0  0  0
 13 14  1  0  0  0  0
 13 27  1  0  0  0  0
 13 28  1  0  0  0  0
 14 18  1  0  0  0  0
 14 15  1  0  0  0  0
 14 37  1  0  0  0  0
 15 16  1  0  0  0  0
 15 29  1  0  0  0  0
 15 30  1  0  0  0  0
 16 17  1  0  0  0  0
 16 31  1  0  0  0  0
 16 32  1  0  0  0  0
 17 18  1  0  0  0  0
 17 33  1  0  0  0  0
 17 34  1  0  0  0  0
 18 35  1  0  0  0  0
 18 36  1  0  0  0  0
M  CHG  1   7  -1
M  CHG  1  14   1
M  END
> <s_m_source_file>
AV-unprocessed.smi

> <i_m_source_file_index>
1801

> <i_lp_mmshare_version>
43012

> <i_f3d_flags>
0

> <s_epik_input>
W0NIMl0xW0NIMl1bQ0gyXVtDSDJdTjFbQ0gyXVtDQEhdKFtDSDNdKVtDSDJdW05IXUMoPU8pW05IXWMybm5bY0hdczI=

> <s_epik_cmdline>
J2VwaWtfcHl0aG9uJywgJy1waCcsICc3LjAnLCAnLXRuJywgJzgnLCAnLW1hJywgJzIwMCcsICctbWV0YWxfYmluZGluZycsICctaW1hZScsICc8aW5maWxlLm1hZT4nLCAnLW9tYWUnLCAnPG91dGZpbGUubWFlPic=

> <r_lp_tautomer_probability>
1

> <r_epik_Ionization_Penalty>
3.29721

> <r_epik_Ionization_Penalty_Charging>
3.25987

> <r_epik_Ionization_Penalty_Neutral>
0.0373399

> <r_epik_State_Penalty>
3.2571

> <r_epik_Charging_Adjusted_Penalty>
6.51697

> <i_epik_Tot_Q>
0

> <i_epik_Tot_abs_Q>
2

> <r_epik_Metal_State_Penalty>
0.477553

> <b_epik_Metal_Only>
1

> <s_lp_Force_Field>
OPLS_2005

> <r_lp_Energy>
22.4804

> <b_lp_Chiralities_Consistent>
1

> <s_lp_Variant>
AV-unprocessed.smi:1801-4

> <Gold.Version>
5.8.1

> <Gold.Id.Protein>
6NUR|6NUR_protein|mol2

> <Gold.PLP.Fitness>
38.7326

> <Gold.PLP.PLP>
-28.3247

> <Gold.PLP.part.hbond>
-3.3012

> <Gold.PLP.part.metal>
0.0000

> <Gold.PLP.part.buried>
-4.0884

> <Gold.PLP.part.nonpolar>
-21.2517

> <Gold.PLP.part.repulsive>
0.0258

> <Gold.PLP.ligand.clash>
0.0105

> <Gold.PLP.ligand.torsion>
0.9294

> <Gold.PLP.Chemscore.Hbond>
3.9840

> <Gold.PLP.Chemscore.CHOScore>
0.0000

> <Gold.PLP.Chemscore.Metal>
0.0000

> <Gold.Chemscore.Hbonds>
donor molecule, donor type, donor heavy atom, donor atom, acceptor molecule, acceptor atom, score
      L1  H    14    37       P1  7948  1.22
      P1  H  6896  6909       L1     6  1.00
      P1  H  6931  6943       L1    10  1.00

> <Gold.PLP.Chemscore.Internal.Correction>
0.3253

> <Gold.Rescore>
     Score         DG    S(hbond)    S(metal)    S(lipo)     H(rot)  DE(clash)    DE(int)     intcor
     14.17     -16.66       3.00        0.00      51.93       1.93       0.07       2.42       ----

> <Gold.Chemscore.Fitness>
14.1653

> <Gold.Chemscore.DG>
-16.6594

> <Gold.Chemscore.ZeroCoef>
-5.4800

> <Gold.Chemscore.Hbond>
3.0048

> <Gold.Chemscore.Metal>
0.0000

> <Gold.Chemscore.Lipo>
51.9259

> <Gold.Chemscore.Internal_Hbond>
0.0000

> <Gold.Chemscore.DEClash>
0.0742

> <Gold.Chemscore.DEInternal>
2.4199

> <Gold.Chemscore.Rot>
1.9266

> <Gold.Chemscore.Internal.Correction>
   9.000000E+99

> <Gold.Chemscore.Hbonds>
donor molecule, donor type, donor heavy atom, donor atom, acceptor molecule, acceptor atom, score
      L1  H    14    37       P1  7948  0.55
      P1  H  6896  6909       L1     6  0.98
      P1  H  6931  6943       L1    10  0.85

> <Gold.Chemscore.Hbond.Weighted>
-10.0362

> <Gold.Chemscore.Metal.Weighted>
-0.0000

> <Gold.Chemscore.Lipo.Weighted>
-6.0753

> <Gold.Chemscore.Internal_Hbond.Weighted>
0.0000

> <Gold.Chemscore.DEClash.Weighted>
0.0742

> <Gold.Chemscore.DEInternal.Weighted>
2.4199

> <Gold.Chemscore.Rot.Weighted>
4.9321

> <Gold.Chemscore.Internal.Correction.Weighted>
   9.000000E+99

> <Gold.Protein.RotatedTorsions>
[ 6907 6896 6895 6894 ] final   39.84 input  -60.11 | X-H torsion
[ 7974 7965 7964 7962 ] final  136.79 input  175.53 | X-H torsion
[ 8008 7997 7996 7995 ] final -172.17 input   59.86 | X-H torsion
[ 10167 10162 10161 10158 ] final -112.43 input  -65.29 | X-H torsion
[ 10718 10713 10712 10709 ] final   45.79 input   66.30 | X-H torsion
[ 10763 10752 10751 10750 ] final  117.84 input  -60.55 | X-H torsion
[ 11005 11000 10999 10996 ] final -134.96 input  -57.11 | X-H torsion

> <Gold.Protein.ActiveResidues>
 VAL166  LYS551  ARG553  GLY616  TRP617  ASP618  TYR619  PRO620  LYS621  CYS622 
 ASP623  PHE694  ASN695  SER759  ASP760  ASP761  ALA762  ILE779  LEU786  VAL792 
 PHE793  MET794  SER795  GLU796  ALA797  LYS798  CYS799  TRP800  GLU811  SER814 

> <Gold.Protein.RotatedAtoms>
  152.1748  134.8804  160.0531 H   0  0  0  0  0  0  0  0  0  0  0  0  # atno 6907 bound_to 6896
  151.9751  133.3734  159.4094 H   0  0  0  0  0  0  0  0  0  0  0  0  # atno 6908 bound_to 6896
  150.6907  134.4022  159.5168 H   0  0  0  0  0  0  0  0  0  0  0  0  # atno 6909 bound_to 6896
  144.9530  139.4796  143.5516 H   0  0  0  0  0  0  0  0  0  0  0  0  # atno 7974 bound_to 7965
  155.9411  140.1109  157.1054 H   0  0  0  0  0  0  0  0  0  0  0  0  # atno 8008 bound_to 7997
  154.4089  140.1219  156.4994 H   0  0  0  0  0  0  0  0  0  0  0  0  # atno 8009 bound_to 7997
  155.6960  140.3472  155.4915 H   0  0  0  0  0  0  0  0  0  0  0  0  # atno 8010 bound_to 7997
  140.1227  143.4429  152.1680 H   0  0  0  0  0  0  0  0  0  0  0  0  # atno 10167 bound_to 10162
  157.4412  130.8082  149.7696 H   0  0  0  0  0  0  0  0  0  0  0  0  # atno 10718 bound_to 10713
  153.5585  135.3525  155.2789 H   0  0  0  0  0  0  0  0  0  0  0  0  # atno 10763 bound_to 10752
  154.8698  135.4131  154.2857 H   0  0  0  0  0  0  0  0  0  0  0  0  # atno 10764 bound_to 10752
  153.3598  135.7059  153.6790 H   0  0  0  0  0  0  0  0  0  0  0  0  # atno 10765 bound_to 10752
  140.8942  134.1773  157.4506 H   0  0  0  0  0  0  0  0  0  0  0  0  # atno 11005 bound_to 11000
  146.3328  139.8629  142.8853 LP  0  0  0  0  0  0  0  0  0  0  0  0  # atno 17320 bound_to 7965
  145.2814  141.0140  143.3715 LP  0  0  0  0  0  0  0  0  0  0  0  0  # atno 17321 bound_to 7965
  139.5560  144.7373  151.4293 LP  0  0  0  0  0  0  0  0  0  0  0  0  # atno 17342 bound_to 10162
  140.6862  143.7967  150.7190 LP  0  0  0  0  0  0  0  0  0  0  0  0  # atno 17343 bound_to 10162
  155.9949  130.3915  150.2838 LP  0  0  0  0  0  0  0  0  0  0  0  0  # atno 17370 bound_to 10713
  157.1003  131.0194  151.3088 LP  0  0  0  0  0  0  0  0  0  0  0  0  # atno 17371 bound_to 10713
  139.8733  134.9871  156.5354 LP  0  0  0  0  0  0  0  0  0  0  0  0  # atno 17394 bound_to 11000
  140.8310  133.8279  155.8984 LP  0  0  0  0  0  0  0  0  0  0  0  0  # atno 17395 bound_to 11000

$$$$
