AV-unprocessed.smi:618|AV-procd|sdf|3078|dock4
  -GOLD-   22720 0 03D 1   1.00000     0.00000
 Structure written by MMmdl.
 41 43  0  0  0  0  0  0  0  0  2 V2000
  149.7298  135.3081  156.1743 O   0  0  0  0  0  0  0  0  0  0  0  0
  149.4935  135.5062  154.9828 C   0  0  0  0  0  0  0  0  0  0  0  0
  148.8083  134.6465  154.2162 N   0  0  0  0  0  0  0  0  0  0  0  0
  148.2416  133.3837  154.6783 C   0  0  0  0  0  0  0  0  0  0  0  0
  147.9567  132.4223  153.5105 C   0  0  2  0  0  0  0  0  0  0  0  0
  147.3032  133.1404  152.3193 C   0  0  0  0  0  0  0  0  0  0  0  0
  146.9974  132.1931  151.2172 N   0  3  2  0  0  0  0  0  0  0  0  0
  146.1135  132.7916  150.1920 C   0  0  0  0  0  0  0  0  0  0  0  0
  144.6843  132.3101  150.5038 C   0  0  0  0  0  0  0  0  0  0  0  0
  144.8193  131.3566  151.6961 C   0  0  0  0  0  0  0  0  0  0  0  0
  146.2985  130.9731  151.6780 C   0  0  2  0  0  0  0  0  0  0  0  0
  146.8649  130.4029  152.9943 C   0  0  0  0  0  0  0  0  0  0  0  0
  147.0473  131.4266  153.9613 O   0  0  0  0  0  0  0  0  0  0  0  0
  149.8851  136.5814  154.2780 N   0  0  0  0  0  0  0  0  0  0  0  0
  150.6084  137.7186  154.7286 C   0  0  0  0  0  0  0  0  0  0  0  0
  151.6717  137.5103  155.6310 C   0  0  0  0  0  0  0  0  0  0  0  0
  152.4162  138.6164  156.0821 C   0  0  0  0  0  0  0  0  0  0  0  0
  152.0724  139.8950  155.6028 C   0  0  0  0  0  0  0  0  0  0  0  0
  151.0688  140.1113  154.7266 N   0  0  0  0  0  0  0  0  0  0  0  0
  150.3574  139.0458  154.2995 C   0  0  0  0  0  0  0  0  0  0  0  0
  148.6627  134.8833  153.2456 H   0  0  0  0  0  0  0  0  0  0  0  0
  148.9428  132.9282  155.3781 H   0  0  0  0  0  0  0  0  0  0  0  0
  147.3269  133.5801  155.2402 H   0  0  0  0  0  0  0  0  0  0  0  0
  148.8905  131.9587  153.1870 H   0  0  0  0  0  0  0  0  0  0  0  0
  146.3866  133.6311  152.6510 H   0  0  0  0  0  0  0  0  0  0  0  0
  147.9619  133.9231  151.9409 H   0  0  0  0  0  0  0  0  0  0  0  0
  146.1890  133.8797  150.1586 H   0  0  0  0  0  0  0  0  0  0  0  0
  146.4204  132.4178  149.2143 H   0  0  0  0  0  0  0  0  0  0  0  0
  144.0190  133.1412  150.7401 H   0  0  0  0  0  0  0  0  0  0  0  0
  144.2671  131.7901  149.6404 H   0  0  0  0  0  0  0  0  0  0  0  0
  144.5766  131.8825  152.6206 H   0  0  0  0  0  0  0  0  0  0  0  0
  144.1594  130.4917  151.6215 H   0  0  0  0  0  0  0  0  0  0  0  0
  146.4278  130.2181  150.9005 H   0  0  0  0  0  0  0  0  0  0  0  0
  146.1937  129.6444  153.3975 H   0  0  0  0  0  0  0  0  0  0  0  0
  147.8194  129.9067  152.8117 H   0  0  0  0  0  0  0  0  0  0  0  0
  149.6848  136.5611  153.2888 H   0  0  0  0  0  0  0  0  0  0  0  0
  151.9138  136.5167  155.9792 H   0  0  0  0  0  0  0  0  0  0  0  0
  153.2319  138.4880  156.7781 H   0  0  0  0  0  0  0  0  0  0  0  0
  152.6215  140.7664  155.9276 H   0  0  0  0  0  0  0  0  0  0  0  0
  149.5871  139.2798  153.5817 H   0  0  0  0  0  0  0  0  0  0  0  0
  147.8757  131.9273  150.7944 H   0  0  0  0  0  0  0  0  0  0  0  0
  1  2  2  0  0  0  0
  2  3  1  0  0  0  0
  2 14  1  0  0  0  0
  3  4  1  0  0  0  0
  3 21  1  0  0  0  0
  4  5  1  0  0  0  0
  4 22  1  0  0  0  0
  4 23  1  0  0  0  0
  5 13  1  0  0  0  0
  5  6  1  0  0  0  0
  5 24  1  0  0  0  0
  6  7  1  0  0  0  0
  6 25  1  0  0  0  0
  6 26  1  0  0  0  0
  7 11  1  0  0  0  0
  7  8  1  0  0  0  0
  7 41  1  0  0  0  0
  8  9  1  0  0  0  0
  8 27  1  0  0  0  0
  8 28  1  0  0  0  0
  9 10  1  0  0  0  0
  9 29  1  0  0  0  0
  9 30  1  0  0  0  0
 10 11  1  0  0  0  0
 10 31  1  0  0  0  0
 10 32  1  0  0  0  0
 11 12  1  0  0  0  0
 11 33  1  0  0  0  0
 12 13  1  0  0  0  0
 12 34  1  0  0  0  0
 12 35  1  0  0  0  0
 14 15  1  0  0  0  0
 14 36  1  0  0  0  0
 15 20  1  0  0  0  0
 15 16  2  0  0  0  0
 16 17  1  0  0  0  0
 16 37  1  0  0  0  0
 17 18  2  0  0  0  0
 17 38  1  0  0  0  0
 18 19  1  0  0  0  0
 18 39  1  0  0  0  0
 19 20  2  0  0  0  0
 20 40  1  0  0  0  0
M  CHG  1   7   1
M  END
> <s_m_source_file>
AV-unprocessed.smi

> <i_m_source_file_index>
618

> <i_lp_mmshare_version>
43012

> <i_f3d_flags>
0

> <s_epik_input>
W2NIXTFuW2NIXVtjSF1bY0hdYzFbTkhdQyg9TylbTkhdW0NIMl1bQ0BIXShbQ0gyXTIpT1tDSDJdW0NAQEhdKE4yMylbQ0gyXVtDSDJdW0NIMl0z

> <s_epik_cmdline>
J2VwaWtfcHl0aG9uJywgJy1waCcsICc3LjAnLCAnLXRuJywgJzgnLCAnLW1hJywgJzIwMCcsICctbWV0YWxfYmluZGluZycsICctaW1hZScsICc8aW5maWxlLm1hZT4nLCAnLW9tYWUnLCAnPG91dGZpbGUubWFlPic=

> <r_epik_Ionization_Penalty>
0.111044

> <r_epik_Ionization_Penalty_Charging>
0.10673

> <r_epik_Ionization_Penalty_Neutral>
0.00431361

> <r_epik_State_Penalty>
0.0978747

> <r_epik_Charging_Adjusted_Penalty>
0.204605

> <i_epik_Tot_Q>
1

> <i_epik_Tot_abs_Q>
1

> <r_epik_Metal_State_Penalty>
0.0947591

> <b_epik_Metal_Only>
0

> <s_lp_Force_Field>
OPLS_2005

> <r_lp_Energy>
38.4037

> <b_lp_Chiralities_Consistent>
1

> <s_lp_Variant>
AV-unprocessed.smi:618-5

> <Gold.Version>
5.8.1

> <Gold.Id.Protein>
6NUR|6NUR_protein|mol2

> <Gold.PLP.Fitness>
49.0830

> <Gold.PLP.PLP>
-35.4779

> <Gold.PLP.part.hbond>
-4.7805

> <Gold.PLP.part.metal>
0.0000

> <Gold.PLP.part.buried>
-2.1589

> <Gold.PLP.part.nonpolar>
-28.6065

> <Gold.PLP.part.repulsive>
0.2992

> <Gold.PLP.ligand.clash>
0.0000

> <Gold.PLP.ligand.torsion>
0.5864

> <Gold.PLP.Chemscore.Hbond>
3.9280

> <Gold.PLP.Chemscore.CHOScore>
0.9969

> <Gold.PLP.Chemscore.Metal>
0.0000

> <Gold.Chemscore.Hbonds>
donor molecule, donor type, donor heavy atom, donor atom, acceptor molecule, acceptor atom, score
      L1  H     3    21       P1  7948  0.91
      L1  H     7    41       P1 10747  1.00
      L1  H    14    36       P1  7948  1.00
      P1  H  7989  7998       L1    19  1.00
      L1  C    20    40       P1  7957  0.99

> <Gold.PLP.Chemscore.Internal.Correction>
0.0032

> <Gold.Rescore>
     Score         DG    S(hbond)    S(metal)    S(lipo)     H(rot)  DE(clash)    DE(int)     intcor
     20.21     -22.06       2.84        0.00      88.22       1.27       0.10       1.74       ----

> <Gold.Chemscore.Fitness>
20.2147

> <Gold.Chemscore.DG>
-22.0565

> <Gold.Chemscore.ZeroCoef>
-5.4800

> <Gold.Chemscore.Hbond>
2.8429

> <Gold.Chemscore.Metal>
0.0000

> <Gold.Chemscore.Lipo>
88.2157

> <Gold.Chemscore.Internal_Hbond>
0.0000

> <Gold.Chemscore.DEClash>
0.1000

> <Gold.Chemscore.DEInternal>
1.7419

> <Gold.Chemscore.Rot>
1.2656

> <Gold.Chemscore.Internal.Correction>
   9.000000E+99

> <Gold.Chemscore.Hbonds>
donor molecule, donor type, donor heavy atom, donor atom, acceptor molecule, acceptor atom, score
      L1  H     3    21       P1  7948  0.45
      L1  H     7    41       P1 10747  0.97
      L1  H    14    36       P1  7948  0.34
      P1  H  7989  7998       L1    19  0.47

> <Gold.Chemscore.Hbond.Weighted>
-9.4952

> <Gold.Chemscore.Metal.Weighted>
-0.0000

> <Gold.Chemscore.Lipo.Weighted>
-10.3212

> <Gold.Chemscore.Internal_Hbond.Weighted>
0.0000

> <Gold.Chemscore.DEClash.Weighted>
0.1000

> <Gold.Chemscore.DEInternal.Weighted>
1.7419

> <Gold.Chemscore.Rot.Weighted>
3.2399

> <Gold.Chemscore.Internal.Correction.Weighted>
   9.000000E+99

> <Gold.Protein.RotatedTorsions>
[ 6907 6896 6895 6894 ] final  -83.69 input  -60.11 | X-H torsion
[ 7974 7965 7964 7962 ] final  -34.45 input  175.53 | X-H torsion
[ 8008 7997 7996 7995 ] final -103.82 input   59.86 | X-H torsion
[ 10167 10162 10161 10158 ] final   79.81 input  -65.29 | X-H torsion
[ 10718 10713 10712 10709 ] final  154.89 input   66.30 | X-H torsion
[ 10763 10752 10751 10750 ] final   -7.84 input  -60.55 | X-H torsion
[ 11005 11000 10999 10996 ] final  -95.20 input  -57.11 | X-H torsion

> <Gold.Protein.ActiveResidues>
 VAL166  LYS551  ARG553  GLY616  TRP617  ASP618  TYR619  PRO620  LYS621  CYS622 
 ASP623  PHE694  ASN695  SER759  ASP760  ASP761  ALA762  ILE779  LEU786  VAL792 
 PHE793  MET794  SER795  GLU796  ALA797  LYS798  CYS799  TRP800  GLU811  SER814 

> <Gold.Protein.RotatedAtoms>
  150.6883  134.3473  159.4893 H   0  0  0  0  0  0  0  0  0  0  0  0  # atno 6907 bound_to 6896
  152.1319  134.9126  160.0567 H   0  0  0  0  0  0  0  0  0  0  0  0  # atno 6908 bound_to 6896
  152.0293  133.3896  159.4327 H   0  0  0  0  0  0  0  0  0  0  0  0  # atno 6909 bound_to 6896
  146.0828  140.6040  142.8900 H   0  0  0  0  0  0  0  0  0  0  0  0  # atno 7974 bound_to 7965
  154.8764  140.0421  157.1755 H   0  0  0  0  0  0  0  0  0  0  0  0  # atno 8008 bound_to 7997
  154.8685  140.2955  155.5474 H   0  0  0  0  0  0  0  0  0  0  0  0  # atno 8009 bound_to 7997
  156.2999  140.2433  156.3671 H   0  0  0  0  0  0  0  0  0  0  0  0  # atno 8010 bound_to 7997
  139.9564  144.5991  150.8112 H   0  0  0  0  0  0  0  0  0  0  0  0  # atno 10167 bound_to 10162
  157.2256  131.0728  151.1885 H   0  0  0  0  0  0  0  0  0  0  0  0  # atno 10718 bound_to 10713
  153.4320  135.7012  153.6224 H   0  0  0  0  0  0  0  0  0  0  0  0  # atno 10763 bound_to 10752
  153.4635  135.3731  155.2351 H   0  0  0  0  0  0  0  0  0  0  0  0  # atno 10764 bound_to 10752
  154.8726  135.4025  154.3706 H   0  0  0  0  0  0  0  0  0  0  0  0  # atno 10765 bound_to 10752
  141.1449  133.8009  157.0402 H   0  0  0  0  0  0  0  0  0  0  0  0  # atno 11005 bound_to 11000
  144.7305  140.4657  143.6941 LP  0  0  0  0  0  0  0  0  0  0  0  0  # atno 17320 bound_to 7965
  145.6185  139.1521  143.3036 LP  0  0  0  0  0  0  0  0  0  0  0  0  # atno 17321 bound_to 7965
  140.7567  143.3071  151.2936 LP  0  0  0  0  0  0  0  0  0  0  0  0  # atno 17342 bound_to 10162
  139.6588  144.0227  152.2678 LP  0  0  0  0  0  0  0  0  0  0  0  0  # atno 17343 bound_to 10162
  157.3531  130.7092  149.6453 LP  0  0  0  0  0  0  0  0  0  0  0  0  # atno 17370 bound_to 10713
  155.9679  130.4247  150.4619 LP  0  0  0  0  0  0  0  0  0  0  0  0  # atno 17371 bound_to 10713
  140.0698  134.9709  157.1447 LP  0  0  0  0  0  0  0  0  0  0  0  0  # atno 17394 bound_to 11000
  140.3728  134.2372  155.7176 LP  0  0  0  0  0  0  0  0  0  0  0  0  # atno 17395 bound_to 11000

$$$$
