AV-unprocessed.smi:670|AV-procd|sdf|3271|dock10
  -GOLD-   22720 0233D 1   1.00000     0.00000
 Structure written by MMmdl.
 45 46  0  0  0  0  0  0  0  0  1 V2000
  153.7736  140.7850  160.2263 C   0  0  0  0  0  0  0  0  0  0  0  0
  153.3078  142.2491  160.2532 C   0  0  2  0  0  0  0  0  0  0  0  0
  152.6586  142.6232  161.6010 C   0  0  0  0  0  0  0  0  0  0  0  0
  152.2269  144.0987  161.6241 C   0  0  0  0  0  0  0  0  0  0  0  0
  151.2912  144.4290  160.4503 C   0  0  0  0  0  0  0  0  0  0  0  0
  151.9262  144.0491  159.1012 C   0  0  0  0  0  0  0  0  0  0  0  0
  152.3621  142.5714  159.0759 C   0  0  2  0  0  0  0  0  0  0  0  0
  151.2124  141.7459  159.1965 O   0  0  0  0  0  0  0  0  0  0  0  0
  150.6627  141.2978  157.9693 C   0  0  0  0  0  0  0  0  0  0  0  0
  151.7963  140.7389  157.0975 C   0  0  0  0  0  0  0  0  0  0  0  0
  151.3124  139.6826  156.2131 N   0  0  0  0  0  0  0  0  0  0  0  0
  152.0680  139.0098  155.3306 C   0  0  0  0  0  0  0  0  0  0  0  0
  153.2804  139.1918  155.2051 O   0  0  0  0  0  0  0  0  0  0  0  0
  151.3275  137.9795  154.4644 C   0  0  0  0  0  0  0  0  0  0  0  0
  150.7197  136.8850  155.2362 N   0  0  0  0  0  0  0  0  0  0  0  0
  151.6411  136.0394  155.8352 N   0  0  0  0  0  0  0  0  0  0  0  0
  151.2350  135.0292  156.5273 C   0  0  0  0  0  0  0  0  0  0  0  0
  152.1813  134.2163  157.1017 O   0  0  0  0  0  0  0  0  0  0  0  0
  149.8246  134.7565  156.6975 C   0  0  0  0  0  0  0  0  0  0  0  0
  148.9343  135.5885  156.1142 C   0  0  0  0  0  0  0  0  0  0  0  0
  149.3608  136.7446  155.3237 C   0  0  0  0  0  0  0  0  0  0  0  0
  148.5708  137.5195  154.7860 O   0  0  0  0  0  0  0  0  0  0  0  0
  152.7135  133.9046  156.3862 H   0  0  0  0  0  0  0  0  0  0  0  0
  152.9332  140.0976  160.3226 H   0  0  0  0  0  0  0  0  0  0  0  0
  154.4671  140.5773  161.0414 H   0  0  0  0  0  0  0  0  0  0  0  0
  154.2840  140.5530  159.2914 H   0  0  0  0  0  0  0  0  0  0  0  0
  154.1994  142.8671  160.1372 H   0  0  0  0  0  0  0  0  0  0  0  0
  151.7932  141.9849  161.7872 H   0  0  0  0  0  0  0  0  0  0  0  0
  153.3576  142.4352  162.4165 H   0  0  0  0  0  0  0  0  0  0  0  0
  151.7324  144.3257  162.5690 H   0  0  0  0  0  0  0  0  0  0  0  0
  153.1097  144.7375  161.5766 H   0  0  0  0  0  0  0  0  0  0  0  0
  150.3488  143.8940  160.5746 H   0  0  0  0  0  0  0  0  0  0  0  0
  151.0449  145.4910  160.4589 H   0  0  0  0  0  0  0  0  0  0  0  0
  151.2264  144.2532  158.2907 H   0  0  0  0  0  0  0  0  0  0  0  0
  152.7947  144.6838  158.9205 H   0  0  0  0  0  0  0  0  0  0  0  0
  152.8874  142.3615  158.1420 H   0  0  0  0  0  0  0  0  0  0  0  0
  149.9161  140.5239  158.1506 H   0  0  0  0  0  0  0  0  0  0  0  0
  150.1654  142.1230  157.4570 H   0  0  0  0  0  0  0  0  0  0  0  0
  152.2679  141.5411  156.5274 H   0  0  0  0  0  0  0  0  0  0  0  0
  152.5735  140.3169  157.7347 H   0  0  0  0  0  0  0  0  0  0  0  0
  150.3265  139.4691  156.2541 H   0  0  0  0  0  0  0  0  0  0  0  0
  150.5590  138.5038  153.8934 H   0  0  0  0  0  0  0  0  0  0  0  0
  152.0195  137.5774  153.7219 H   0  0  0  0  0  0  0  0  0  0  0  0
  149.4994  133.9067  157.2790 H   0  0  0  0  0  0  0  0  0  0  0  0
  147.8778  135.3974  156.2327 H   0  0  0  0  0  0  0  0  0  0  0  0
  1  2  1  0  0  0  0
  1 24  1  0  0  0  0
  1 25  1  0  0  0  0
  1 26  1  0  0  0  0
  2  7  1  0  0  0  0
  2  3  1  0  0  0  0
  2 27  1  0  0  0  0
  3  4  1  0  0  0  0
  3 28  1  0  0  0  0
  3 29  1  0  0  0  0
  4  5  1  0  0  0  0
  4 30  1  0  0  0  0
  4 31  1  0  0  0  0
  5  6  1  0  0  0  0
  5 32  1  0  0  0  0
  5 33  1  0  0  0  0
  6  7  1  0  0  0  0
  6 34  1  0  0  0  0
  6 35  1  0  0  0  0
  7  8  1  0  0  0  0
  7 36  1  0  0  0  0
  8  9  1  0  0  0  0
  9 10  1  0  0  0  0
  9 37  1  0  0  0  0
  9 38  1  0  0  0  0
 10 11  1  0  0  0  0
 10 39  1  0  0  0  0
 10 40  1  0  0  0  0
 11 12  1  0  0  0  0
 11 41  1  0  0  0  0
 12 13  2  0  0  0  0
 12 14  1  0  0  0  0
 14 42  1  0  0  0  0
 14 43  1  0  0  0  0
 14 15  1  0  0  0  0
 15 16  1  0  0  0  0
 15 21  1  0  0  0  0
 16 17  2  0  0  0  0
 17 18  1  0  0  0  0
 17 19  1  0  0  0  0
 18 23  1  0  0  0  0
 19 44  1  0  0  0  0
 19 20  2  0  0  0  0
 20 45  1  0  0  0  0
 20 21  1  0  0  0  0
 21 22  2  0  0  0  0
M  END
> <s_m_source_file>
AV-unprocessed.smi

> <i_m_source_file_index>
670

> <i_lp_mmshare_version>
43012

> <i_f3d_flags>
0

> <s_epik_input>
W0NIM11bQ0BASF0xW0NIMl1bQ0gyXVtDSDJdW0NIMl1bQ0BIXTFPW0NIMl1bQ0gyXVtOSF1DKD1PKVtDSDJdbjJbbkhdYyg9TylbY0hdW2NIXWMyPU8=

> <s_epik_cmdline>
J2VwaWtfcHl0aG9uJywgJy1waCcsICc3LjAnLCAnLXRuJywgJzgnLCAnLW1hJywgJzIwMCcsICctbWV0YWxfYmluZGluZycsICctaW1hZScsICc8aW5maWxlLm1hZT4nLCAnLW9tYWUnLCAnPG91dGZpbGUubWFlPic=

> <r_lp_tautomer_probability>
0.9996

> <r_epik_Ionization_Penalty>
2.12726

> <r_epik_Ionization_Penalty_Charging>
3.83395e-08

> <r_epik_Ionization_Penalty_Neutral>
2.12726

> <r_epik_State_Penalty>
1.70432

> <r_epik_Charging_Adjusted_Penalty>
1.70432

> <i_epik_Tot_Q>
0

> <i_epik_Tot_abs_Q>
0

> <r_epik_Metal_State_Penalty>
1.70432

> <b_epik_Metal_Only>
0

> <s_lp_Force_Field>
OPLS_2005

> <r_lp_Energy>
20.0493

> <b_lp_Chiralities_Consistent>
1

> <s_lp_Variant>
AV-unprocessed.smi:670-7

> <Gold.Version>
5.8.1

> <Gold.Id.Protein>
6NUR|6NUR_protein|mol2

> <Gold.PLP.Fitness>
50.9969

> <Gold.PLP.PLP>
-46.4472

> <Gold.PLP.part.hbond>
-3.1738

> <Gold.PLP.part.metal>
0.0000

> <Gold.PLP.part.buried>
-7.7601

> <Gold.PLP.part.nonpolar>
-35.9920

> <Gold.PLP.part.repulsive>
0.3782

> <Gold.PLP.ligand.clash>
0.0000

> <Gold.PLP.ligand.torsion>
0.7570

> <Gold.PLP.Chemscore.Hbond>
2.0000

> <Gold.PLP.Chemscore.CHOScore>
0.0000

> <Gold.PLP.Chemscore.Metal>
0.0000

> <Gold.Chemscore.Hbonds>
donor molecule, donor type, donor heavy atom, donor atom, acceptor molecule, acceptor atom, score
      P1  H  7997  8008       L1    13  1.00
      P1  H 10752 10763       L1    16  1.00

> <Gold.PLP.Chemscore.Internal.Correction>
0.0637

> <Gold.Rescore>
     Score         DG    S(hbond)    S(metal)    S(lipo)     H(rot)  DE(clash)    DE(int)     intcor
     15.25     -16.15       1.88        0.00     105.14       3.09       0.11       0.79       ----

> <Gold.Chemscore.Fitness>
15.2512

> <Gold.Chemscore.DG>
-16.1488

> <Gold.Chemscore.ZeroCoef>
-5.4800

> <Gold.Chemscore.Hbond>
1.8795

> <Gold.Chemscore.Metal>
0.0000

> <Gold.Chemscore.Lipo>
105.1439

> <Gold.Chemscore.Internal_Hbond>
0.0000

> <Gold.Chemscore.DEClash>
0.1116

> <Gold.Chemscore.DEInternal>
0.7859

> <Gold.Chemscore.Rot>
3.0901

> <Gold.Chemscore.Internal.Correction>
   9.000000E+99

> <Gold.Chemscore.Hbonds>
donor molecule, donor type, donor heavy atom, donor atom, acceptor molecule, acceptor atom, score
      P1  H  7997  8008       L1    13  0.99
      P1  H 10752 10763       L1    16  0.63

> <Gold.Chemscore.Hbond.Weighted>
-6.2775

> <Gold.Chemscore.Metal.Weighted>
-0.0000

> <Gold.Chemscore.Lipo.Weighted>
-12.3018

> <Gold.Chemscore.Internal_Hbond.Weighted>
0.0000

> <Gold.Chemscore.DEClash.Weighted>
0.1116

> <Gold.Chemscore.DEInternal.Weighted>
0.7859

> <Gold.Chemscore.Rot.Weighted>
7.9106

> <Gold.Chemscore.Internal.Correction.Weighted>
   9.000000E+99

> <Gold.Protein.RotatedTorsions>
[ 6907 6896 6895 6894 ] final -130.80 input  -60.11 | X-H torsion
[ 7974 7965 7964 7962 ] final  152.83 input  175.53 | X-H torsion
[ 8008 7997 7996 7995 ] final  -10.93 input   59.86 | X-H torsion
[ 10167 10162 10161 10158 ] final   83.51 input  -65.29 | X-H torsion
[ 10718 10713 10712 10709 ] final   33.63 input   66.30 | X-H torsion
[ 10763 10752 10751 10750 ] final   76.72 input  -60.55 | X-H torsion
[ 11005 11000 10999 10996 ] final -144.44 input  -57.11 | X-H torsion

> <Gold.Protein.ActiveResidues>
 VAL166  LYS551  ARG553  GLY616  TRP617  ASP618  TYR619  PRO620  LYS621  CYS622 
 ASP623  PHE694  ASN695  SER759  ASP760  ASP761  ALA762  ILE779  LEU786  VAL792 
 PHE793  MET794  SER795  GLU796  ALA797  LYS798  CYS799  TRP800  GLU811  SER814 

> <Gold.Protein.RotatedAtoms>
  150.9437  133.6627  159.2785 H   0  0  0  0  0  0  0  0  0  0  0  0  # atno 6907 bound_to 6896
  151.4007  135.0969  159.9564 H   0  0  0  0  0  0  0  0  0  0  0  0  # atno 6908 bound_to 6896
  152.5080  133.8932  159.7459 H   0  0  0  0  0  0  0  0  0  0  0  0  # atno 6909 bound_to 6896
  144.8195  139.6720  143.6106 H   0  0  0  0  0  0  0  0  0  0  0  0  # atno 7974 bound_to 7965
  154.5510  140.2316  155.8485 H   0  0  0  0  0  0  0  0  0  0  0  0  # atno 8008 bound_to 7997
  156.1946  140.3068  155.9362 H   0  0  0  0  0  0  0  0  0  0  0  0  # atno 8009 bound_to 7997
  155.3071  140.0434  157.3023 H   0  0  0  0  0  0  0  0  0  0  0  0  # atno 8010 bound_to 7997
  139.9177  144.6232  150.8472 H   0  0  0  0  0  0  0  0  0  0  0  0  # atno 10167 bound_to 10162
  157.3003  130.7347  149.6662 H   0  0  0  0  0  0  0  0  0  0  0  0  # atno 10718 bound_to 10713
  153.0746  135.4941  154.8377 H   0  0  0  0  0  0  0  0  0  0  0  0  # atno 10763 bound_to 10752
  154.7070  135.3012  154.9258 H   0  0  0  0  0  0  0  0  0  0  0  0  # atno 10764 bound_to 10752
  153.9964  135.6772  153.4809 H   0  0  0  0  0  0  0  0  0  0  0  0  # atno 10765 bound_to 10752
  140.8024  134.2841  157.4973 H   0  0  0  0  0  0  0  0  0  0  0  0  # atno 11005 bound_to 11000
  146.2500  139.6180  142.9433 LP  0  0  0  0  0  0  0  0  0  0  0  0  # atno 17320 bound_to 7965
  145.5136  141.0434  143.2474 LP  0  0  0  0  0  0  0  0  0  0  0  0  # atno 17321 bound_to 7965
  140.7670  143.3320  151.2391 LP  0  0  0  0  0  0  0  0  0  0  0  0  # atno 17342 bound_to 10162
  139.6888  143.9727  152.2848 LP  0  0  0  0  0  0  0  0  0  0  0  0  # atno 17343 bound_to 10162
  155.9671  130.4282  150.4778 LP  0  0  0  0  0  0  0  0  0  0  0  0  # atno 17370 bound_to 10713
  157.2757  131.0596  151.2231 LP  0  0  0  0  0  0  0  0  0  0  0  0  # atno 17371 bound_to 10713
  139.8720  134.9437  156.3860 LP  0  0  0  0  0  0  0  0  0  0  0  0  # atno 17394 bound_to 11000
  140.9281  133.7598  155.9990 LP  0  0  0  0  0  0  0  0  0  0  0  0  # atno 17395 bound_to 11000

$$$$
