AV-unprocessed.smi:2006|AV-procd|sdf|8131|dock9
  -GOLD-   2272010363D 1   1.00000     0.00000
 Structure written by MMmdl.
 32 33  0  0  0  0  0  0  0  0  1 V2000
  153.6400  141.9503  160.8552 C   0  0  0  0  0  0  0  0  0  0  0  0
  152.4879  142.6045  160.0854 C   0  0  2  0  0  0  0  0  0  0  0  0
  151.9926  141.7219  158.9232 C   0  0  0  0  0  0  0  0  0  0  0  0
  150.9664  142.4233  158.1620 N   0  0  0  0  0  0  0  0  0  0  0  0
  150.3846  141.6320  157.1614 C   0  0  0  0  0  0  0  0  0  0  0  0
  148.9867  141.4413  157.1668 C   0  0  0  0  0  0  0  0  0  0  0  0
  148.4092  140.6366  156.1658 C   0  0  0  0  0  0  0  0  0  0  0  0
  149.2476  140.0516  155.1956 C   0  0  0  0  0  0  0  0  0  0  0  0
  148.6769  139.1696  154.1048 C   0  0  0  0  0  0  0  0  0  0  0  0
  149.7090  138.5907  153.2685 N   0  0  0  0  0  0  0  0  0  0  0  0
  150.6333  140.3009  155.2746 C   0  0  0  0  0  0  0  0  0  0  0  0
  151.1944  141.0721  156.2304 N   0  0  0  0  0  0  0  0  0  0  0  0
  151.4164  143.7276  157.6928 C   0  0  0  0  0  0  0  0  0  0  0  0
  151.9227  144.5643  158.8794 C   0  0  0  0  0  0  0  0  0  0  0  0
  152.9482  143.8494  159.5634 O   0  0  0  0  0  0  0  0  0  0  0  0
  153.3339  140.9960  161.2846 H   0  0  0  0  0  0  0  0  0  0  0  0
  153.9756  142.5903  161.6715 H   0  0  0  0  0  0  0  0  0  0  0  0
  154.4949  141.7654  160.2038 H   0  0  0  0  0  0  0  0  0  0  0  0
  151.6670  142.7911  160.7803 H   0  0  0  0  0  0  0  0  0  0  0  0
  152.8261  141.4673  158.2668 H   0  0  0  0  0  0  0  0  0  0  0  0
  151.5882  140.7852  159.3092 H   0  0  0  0  0  0  0  0  0  0  0  0
  148.3674  141.9003  157.9237 H   0  0  0  0  0  0  0  0  0  0  0  0
  147.3422  140.4706  156.1462 H   0  0  0  0  0  0  0  0  0  0  0  0
  148.0899  138.3674  154.5530 H   0  0  0  0  0  0  0  0  0  0  0  0
  147.9969  139.7508  153.4809 H   0  0  0  0  0  0  0  0  0  0  0  0
  149.4313  137.6606  152.9892 H   0  0  0  0  0  0  0  0  0  0  0  0
  149.7878  139.1250  152.4149 H   0  0  0  0  0  0  0  0  0  0  0  0
  151.3118  139.8688  154.5539 H   0  0  0  0  0  0  0  0  0  0  0  0
  152.2163  143.6036  156.9611 H   0  0  0  0  0  0  0  0  0  0  0  0
  150.5961  144.2438  157.1924 H   0  0  0  0  0  0  0  0  0  0  0  0
  152.3260  145.5132  158.5262 H   0  0  0  0  0  0  0  0  0  0  0  0
  151.1079  144.7993  159.5660 H   0  0  0  0  0  0  0  0  0  0  0  0
  1  2  1  0  0  0  0
  1 16  1  0  0  0  0
  1 17  1  0  0  0  0
  1 18  1  0  0  0  0
  2 15  1  0  0  0  0
  2  3  1  0  0  0  0
  2 19  1  0  0  0  0
  3  4  1  0  0  0  0
  3 20  1  0  0  0  0
  3 21  1  0  0  0  0
  4  5  1  0  0  0  0
  4 13  1  0  0  0  0
  5 12  1  0  0  0  0
  5  6  2  0  0  0  0
  6  7  1  0  0  0  0
  6 22  1  0  0  0  0
  7  8  2  0  0  0  0
  7 23  1  0  0  0  0
  8  9  1  0  0  0  0
  8 11  1  0  0  0  0
  9 10  1  0  0  0  0
  9 24  1  0  0  0  0
  9 25  1  0  0  0  0
 10 26  1  0  0  0  0
 10 27  1  0  0  0  0
 11 12  2  0  0  0  0
 11 28  1  0  0  0  0
 13 14  1  0  0  0  0
 13 29  1  0  0  0  0
 13 30  1  0  0  0  0
 14 15  1  0  0  0  0
 14 31  1  0  0  0  0
 14 32  1  0  0  0  0
M  END
> <s_m_source_file>
AV-unprocessed.smi

> <i_m_source_file_index>
2006

> <i_lp_mmshare_version>
43012

> <i_f3d_flags>
0

> <s_epik_input>
W0NIM11bQ0BASF0xW0NIMl1OKFtDSDJdW0NIMl1PMSljMltjSF1bY0hdYyhbY0hdbjIpW0NIMl1bTkgyXQ==

> <s_epik_cmdline>
J2VwaWtfcHl0aG9uJywgJy1waCcsICc3LjAnLCAnLXRuJywgJzgnLCAnLW1hJywgJzIwMCcsICctbWV0YWxfYmluZGluZycsICctaW1hZScsICc8aW5maWxlLm1hZT4nLCAnLW9tYWUnLCAnPG91dGZpbGUubWFlPic=

> <r_lp_tautomer_probability>
1

> <r_epik_Ionization_Penalty>
1.39389

> <r_epik_Ionization_Penalty_Charging>
0

> <r_epik_Ionization_Penalty_Neutral>
1.39389

> <r_epik_State_Penalty>
1.46818

> <r_epik_Charging_Adjusted_Penalty>
1.46818

> <i_epik_Tot_Q>
0

> <i_epik_Tot_abs_Q>
0

> <r_epik_Metal_State_Penalty>
1.46201

> <b_epik_Metal_Only>
0

> <s_lp_Force_Field>
OPLS_2005

> <r_lp_Energy>
16.9161

> <b_lp_Chiralities_Consistent>
1

> <s_lp_Variant>
AV-unprocessed.smi:2006-3

> <Gold.Version>
5.8.1

> <Gold.Id.Protein>
6NUR|6NUR_protein|mol2

> <Gold.PLP.Fitness>
37.6581

> <Gold.PLP.PLP>
-31.9164

> <Gold.PLP.part.hbond>
-2.0000

> <Gold.PLP.part.metal>
0.0000

> <Gold.PLP.part.buried>
-3.1715

> <Gold.PLP.part.nonpolar>
-26.3499

> <Gold.PLP.part.repulsive>
0.0861

> <Gold.PLP.ligand.clash>
0.0000

> <Gold.PLP.ligand.torsion>
0.1790

> <Gold.PLP.Chemscore.Hbond>
2.0000

> <Gold.PLP.Chemscore.CHOScore>
0.0000

> <Gold.PLP.Chemscore.Metal>
0.0000

> <Gold.Chemscore.Hbonds>
donor molecule, donor type, donor heavy atom, donor atom, acceptor molecule, acceptor atom, score
      L1  H    10    26       P1  7948  1.00
      L1  H    10    27       P1  7957  1.00

> <Gold.PLP.Chemscore.Internal.Correction>
0.0997

> <Gold.Rescore>
     Score         DG    S(hbond)    S(metal)    S(lipo)     H(rot)  DE(clash)    DE(int)     intcor
     18.02     -18.22       1.94        0.00      81.34       1.28       0.15       0.05       ----

> <Gold.Chemscore.Fitness>
18.0180

> <Gold.Chemscore.DG>
-18.2224

> <Gold.Chemscore.ZeroCoef>
-5.4800

> <Gold.Chemscore.Hbond>
1.9440

> <Gold.Chemscore.Metal>
0.0000

> <Gold.Chemscore.Lipo>
81.3367

> <Gold.Chemscore.Internal_Hbond>
0.0000

> <Gold.Chemscore.DEClash>
0.1494

> <Gold.Chemscore.DEInternal>
0.0549

> <Gold.Chemscore.Rot>
1.2762

> <Gold.Chemscore.Internal.Correction>
   9.000000E+99

> <Gold.Chemscore.Hbonds>
donor molecule, donor type, donor heavy atom, donor atom, acceptor molecule, acceptor atom, score
      L1  H    10    26       P1  7948  0.90
      L1  H    10    27       P1  7957  0.75

> <Gold.Chemscore.Hbond.Weighted>
-6.4931

> <Gold.Chemscore.Metal.Weighted>
-0.0000

> <Gold.Chemscore.Lipo.Weighted>
-9.5164

> <Gold.Chemscore.Internal_Hbond.Weighted>
0.0000

> <Gold.Chemscore.DEClash.Weighted>
0.1494

> <Gold.Chemscore.DEInternal.Weighted>
0.0549

> <Gold.Chemscore.Rot.Weighted>
3.2671

> <Gold.Chemscore.Internal.Correction.Weighted>
   9.000000E+99

> <Gold.Protein.RotatedTorsions>
[ 6907 6896 6895 6894 ] final -167.64 input  -60.11 | X-H torsion
[ 7974 7965 7964 7962 ] final  165.17 input  175.53 | X-H torsion
[ 8008 7997 7996 7995 ] final   94.10 input   59.86 | X-H torsion
[ 10167 10162 10161 10158 ] final -148.08 input  -65.29 | X-H torsion
[ 10718 10713 10712 10709 ] final   92.43 input   66.30 | X-H torsion
[ 10763 10752 10751 10750 ] final  178.04 input  -60.55 | X-H torsion
[ 11005 11000 10999 10996 ] final   29.45 input  -57.11 | X-H torsion

> <Gold.Protein.ActiveResidues>
 VAL166  LYS551  ARG553  GLY616  TRP617  ASP618  TYR619  PRO620  LYS621  CYS622 
 ASP623  PHE694  ASN695  SER759  ASP760  ASP761  ALA762  ILE779  LEU786  VAL792 
 PHE793  MET794  SER795  GLU796  ALA797  LYS798  CYS799  TRP800  GLU811  SER814 

> <Gold.Protein.RotatedAtoms>
  151.4629  133.3588  159.2811 H   0  0  0  0  0  0  0  0  0  0  0  0  # atno 6907 bound_to 6896
  150.9013  134.8427  159.7373 H   0  0  0  0  0  0  0  0  0  0  0  0  # atno 6908 bound_to 6896
  152.4881  134.4549  159.9638 H   0  0  0  0  0  0  0  0  0  0  0  0  # atno 6909 bound_to 6896
  144.7514  139.8431  143.6365 H   0  0  0  0  0  0  0  0  0  0  0  0  # atno 7974 bound_to 7965
  156.0542  140.3304  155.7386 H   0  0  0  0  0  0  0  0  0  0  0  0  # atno 8008 bound_to 7997
  155.5554  140.0614  157.2858 H   0  0  0  0  0  0  0  0  0  0  0  0  # atno 8009 bound_to 7997
  154.4450  140.1886  156.0717 H   0  0  0  0  0  0  0  0  0  0  0  0  # atno 8010 bound_to 7997
  139.7564  143.8442  152.2598 H   0  0  0  0  0  0  0  0  0  0  0  0  # atno 10167 bound_to 10162
  157.6958  131.0443  150.3881 H   0  0  0  0  0  0  0  0  0  0  0  0  # atno 10718 bound_to 10713
  154.5025  135.2784  155.1409 H   0  0  0  0  0  0  0  0  0  0  0  0  # atno 10763 bound_to 10752
  154.3037  135.6243  153.5439 H   0  0  0  0  0  0  0  0  0  0  0  0  # atno 10764 bound_to 10752
  152.9905  135.5703  154.5471 H   0  0  0  0  0  0  0  0  0  0  0  0  # atno 10765 bound_to 10752
  140.3048  134.2716  155.7746 H   0  0  0  0  0  0  0  0  0  0  0  0  # atno 11005 bound_to 11000
  146.1469  139.4540  143.0073 LP  0  0  0  0  0  0  0  0  0  0  0  0  # atno 17320 bound_to 7965
  145.6931  141.0158  143.1544 LP  0  0  0  0  0  0  0  0  0  0  0  0  # atno 17321 bound_to 7965
  139.8435  144.7199  150.9302 LP  0  0  0  0  0  0  0  0  0  0  0  0  # atno 17342 bound_to 10162
  140.7803  143.3962  151.1225 LP  0  0  0  0  0  0  0  0  0  0  0  0  # atno 17343 bound_to 10162
  156.4287  130.3967  149.6775 LP  0  0  0  0  0  0  0  0  0  0  0  0  # atno 17370 bound_to 10713
  156.4000  130.7670  151.2677 LP  0  0  0  0  0  0  0  0  0  0  0  0  # atno 17371 bound_to 10713
  141.2120  133.7670  156.9821 LP  0  0  0  0  0  0  0  0  0  0  0  0  # atno 17394 bound_to 11000
  140.1077  134.9496  157.2018 LP  0  0  0  0  0  0  0  0  0  0  0  0  # atno 17395 bound_to 11000

$$$$
