AV-unprocessed.smi:178|AV-procd|sdf|1446|dock2
  -GOLD-   2262019233D 1   1.00000     0.00000
 Structure written by MMmdl.
 50 52  0  0  0  0  0  0  0  0  1 V2000
  149.4172  140.4740  157.1528 C   0  0  0  0  0  0  0  0  0  0  0  0
  150.0622  139.2131  157.1908 O   0  0  0  0  0  0  0  0  0  0  0  0
  149.2168  138.1581  156.7665 C   0  0  0  0  0  0  0  0  0  0  0  0
  149.6226  136.8754  157.5088 C   0  0  0  0  0  0  0  0  0  0  0  0
  148.8601  135.7026  157.0736 N   0  0  0  0  0  0  0  0  0  0  0  0
  148.1211  134.9404  158.0772 C   0  0  0  0  0  0  0  0  0  0  0  0
  148.8466  134.8848  159.4282 C   0  0  0  0  0  0  0  0  0  0  0  0
  148.5804  136.0701  160.2557 C   0  0  0  0  0  0  0  0  0  0  0  0
  148.3709  137.0030  160.9071 N   0  0  0  0  0  0  0  0  0  0  0  0
  148.9696  135.2592  155.7869 C   0  0  0  0  0  0  0  0  0  0  0  0
  150.0095  135.7212  155.0412 N   0  0  0  0  0  0  0  0  0  0  0  0
  150.1720  135.3373  153.7732 C   0  0  0  0  0  0  0  0  0  0  0  0
  149.4214  134.5045  153.0535 N   0  0  0  0  0  0  0  0  0  0  0  0
  148.3782  134.0242  153.7869 C   0  0  0  0  0  0  0  0  0  0  0  0
  148.0778  134.3428  155.1450 C   0  0  0  0  0  0  0  0  0  0  0  0
  146.9404  133.6419  155.5361 N   0  0  0  0  0  0  0  0  0  0  0  0
  146.5871  132.9665  154.4783 C   0  0  0  0  0  0  0  0  0  0  0  0
  147.3987  133.1343  153.3819 N   0  0  0  0  0  0  0  0  0  0  0  0
  147.2399  132.5064  152.0792 C   0  0  0  0  0  0  0  0  0  0  0  0
  146.0903  133.1118  151.2395 C   0  0  2  0  0  0  0  0  0  0  0  0
  146.4129  132.9709  149.8647 O   0  0  0  0  0  0  0  0  0  0  0  0
  145.8207  134.5817  151.5247 C   0  0  0  0  0  0  0  0  0  0  0  0
  144.3720  134.7432  151.0823 C   0  0  0  0  0  0  0  0  0  0  0  0
  143.7454  133.5186  151.4410 O   0  0  0  0  0  0  0  0  0  0  0  0
  144.7154  132.4771  151.5463 C   0  0  1  0  0  0  0  0  0  0  0  0
  144.3098  131.2644  150.6930 C   0  0  0  0  0  0  0  0  0  0  0  0
  150.1087  141.2494  157.4821 H   0  0  0  0  0  0  0  0  0  0  0  0
  148.5500  140.4930  157.8142 H   0  0  0  0  0  0  0  0  0  0  0  0
  149.0920  140.7207  156.1413 H   0  0  0  0  0  0  0  0  0  0  0  0
  148.1763  138.4091  156.9770 H   0  0  0  0  0  0  0  0  0  0  0  0
  149.3093  138.0219  155.6887 H   0  0  0  0  0  0  0  0  0  0  0  0
  150.6826  136.6886  157.3347 H   0  0  0  0  0  0  0  0  0  0  0  0
  149.5254  137.0136  158.5861 H   0  0  0  0  0  0  0  0  0  0  0  0
  147.1469  135.4094  158.2175 H   0  0  0  0  0  0  0  0  0  0  0  0
  147.8978  133.9388  157.7118 H   0  0  0  0  0  0  0  0  0  0  0  0
  148.5453  134.0070  159.9993 H   0  0  0  0  0  0  0  0  0  0  0  0
  149.9246  134.8222  159.2827 H   0  0  0  0  0  0  0  0  0  0  0  0
  151.0249  135.7594  153.2626 H   0  0  0  0  0  0  0  0  0  0  0  0
  145.7226  132.3184  154.4701 H   0  0  0  0  0  0  0  0  0  0  0  0
  148.1845  132.5910  151.5403 H   0  0  0  0  0  0  0  0  0  0  0  0
  147.0736  131.4397  152.2348 H   0  0  0  0  0  0  0  0  0  0  0  0
  147.0912  132.3175  149.7838 H   0  0  0  0  0  0  0  0  0  0  0  0
  145.8893  134.7753  152.5960 H   0  0  0  0  0  0  0  0  0  0  0  0
  146.5050  135.2628  151.0167 H   0  0  0  0  0  0  0  0  0  0  0  0
  143.8809  135.5964  151.5506 H   0  0  0  0  0  0  0  0  0  0  0  0
  144.3123  134.8674  150.0003 H   0  0  0  0  0  0  0  0  0  0  0  0
  144.6991  132.1738  152.5940 H   0  0  0  0  0  0  0  0  0  0  0  0
  145.0526  130.4696  150.7630 H   0  0  0  0  0  0  0  0  0  0  0  0
  144.1958  131.5299  149.6418 H   0  0  0  0  0  0  0  0  0  0  0  0
  143.3564  130.8581  151.0313 H   0  0  0  0  0  0  0  0  0  0  0  0
  1  2  1  0  0  0  0
  1 27  1  0  0  0  0
  1 28  1  0  0  0  0
  1 29  1  0  0  0  0
  2  3  1  0  0  0  0
  3  4  1  0  0  0  0
  3 30  1  0  0  0  0
  3 31  1  0  0  0  0
  4  5  1  0  0  0  0
  4 32  1  0  0  0  0
  4 33  1  0  0  0  0
  5  6  1  0  0  0  0
  5 10  1  0  0  0  0
  6  7  1  0  0  0  0
  6 34  1  0  0  0  0
  6 35  1  0  0  0  0
  7  8  1  0  0  0  0
  7 36  1  0  0  0  0
  7 37  1  0  0  0  0
  8  9  3  0  0  0  0
 10 15  1  0  0  0  0
 10 11  2  0  0  0  0
 11 12  1  0  0  0  0
 12 13  2  0  0  0  0
 12 38  1  0  0  0  0
 13 14  1  0  0  0  0
 14 18  1  0  0  0  0
 14 15  2  0  0  0  0
 15 16  1  0  0  0  0
 16 17  2  0  0  0  0
 17 18  1  0  0  0  0
 17 39  1  0  0  0  0
 18 19  1  0  0  0  0
 19 20  1  0  0  0  0
 19 40  1  0  0  0  0
 19 41  1  0  0  0  0
 20 25  1  0  0  0  0
 20 21  1  0  0  0  0
 20 22  1  0  0  0  0
 21 42  1  0  0  0  0
 22 23  1  0  0  0  0
 22 43  1  0  0  0  0
 22 44  1  0  0  0  0
 23 24  1  0  0  0  0
 23 45  1  0  0  0  0
 23 46  1  0  0  0  0
 24 25  1  0  0  0  0
 25 26  1  0  0  0  0
 25 47  1  0  0  0  0
 26 48  1  0  0  0  0
 26 49  1  0  0  0  0
 26 50  1  0  0  0  0
M  END
> <s_m_source_file>
AV-unprocessed.smi

> <i_m_source_file_index>
178

> <i_lp_mmshare_version>
43012

> <i_f3d_flags>
0

> <s_epik_input>
W0NIM11PW0NIMl1bQ0gyXU4oW0NIMl1bQ0gyXUMjTiljKG5bY0hdbjEpYyhjMTIpbltjSF1uMltDSDJdW0NAQF0zKFtPSF0pW0NIMl1bQ0gyXU9bQ0BIXTNbQ0gzXQ==

> <s_epik_cmdline>
J2VwaWtfcHl0aG9uJywgJy1waCcsICc3LjAnLCAnLXRuJywgJzgnLCAnLW1hJywgJzIwMCcsICctbWV0YWxfYmluZGluZycsICctaW1hZScsICc8aW5maWxlLm1hZT4nLCAnLW9tYWUnLCAnPG91dGZpbGUubWFlPic=

> <r_lp_tautomer_probability>
1

> <r_epik_Ionization_Penalty>
0.000885317

> <r_epik_Ionization_Penalty_Charging>
0

> <r_epik_Ionization_Penalty_Neutral>
0.000885317

> <r_epik_State_Penalty>
0.00047273

> <r_epik_Charging_Adjusted_Penalty>
0.00047273

> <i_epik_Tot_Q>
0

> <i_epik_Tot_abs_Q>
0

> <r_epik_Metal_State_Penalty>
-0

> <b_epik_Metal_Only>
0

> <s_lp_Force_Field>
OPLS_2005

> <r_lp_Energy>
29.3608

> <b_lp_Chiralities_Consistent>
1

> <s_lp_Variant>
AV-unprocessed.smi:178-2

> <Gold.Version>
5.8.1

> <Gold.Id.Protein>
6NUR|6NUR_protein|mol2

> <Gold.PLP.Fitness>
40.1060

> <Gold.PLP.PLP>
-30.8900

> <Gold.PLP.part.hbond>
-3.0000

> <Gold.PLP.part.metal>
0.0000

> <Gold.PLP.part.buried>
-7.0436

> <Gold.PLP.part.nonpolar>
-21.5068

> <Gold.PLP.part.repulsive>
0.4049

> <Gold.PLP.ligand.clash>
0.0000

> <Gold.PLP.ligand.torsion>
1.4973

> <Gold.PLP.Chemscore.Hbond>
2.8560

> <Gold.PLP.Chemscore.CHOScore>
1.0000

> <Gold.PLP.Chemscore.Metal>
0.0000

> <Gold.Chemscore.Hbonds>
donor molecule, donor type, donor heavy atom, donor atom, acceptor molecule, acceptor atom, score
      L1  H    21    42       P1 10747  0.03
      P1  H  6931  6943       L1     9  1.00
      P1  H  6934  6947       L1     9  0.15
      L1  C    12    38       P1  7949  0.28

> <Gold.PLP.Chemscore.Internal.Correction>
0.6425

> <Gold.Rescore>
     Score         DG    S(hbond)    S(metal)    S(lipo)     H(rot)  DE(clash)    DE(int)     intcor
     10.97     -12.45       2.78        0.00      54.09       3.37       0.01       1.47       ----

> <Gold.Chemscore.Fitness>
10.9710

> <Gold.Chemscore.DG>
-12.4476

> <Gold.Chemscore.ZeroCoef>
-5.4800

> <Gold.Chemscore.Hbond>
2.7769

> <Gold.Chemscore.Metal>
0.0000

> <Gold.Chemscore.Lipo>
54.0872

> <Gold.Chemscore.Internal_Hbond>
0.0000

> <Gold.Chemscore.DEClash>
0.0077

> <Gold.Chemscore.DEInternal>
1.4688

> <Gold.Chemscore.Rot>
3.3732

> <Gold.Chemscore.Internal.Correction>
   9.000000E+99

> <Gold.Chemscore.Hbonds>
donor molecule, donor type, donor heavy atom, donor atom, acceptor molecule, acceptor atom, score
      L1  H    21    42       P1 10747  0.09
      P1  H  6931  6943       L1     9  0.94
      P1  H  6934  6947       L1     9  0.15

> <Gold.Chemscore.Hbond.Weighted>
-9.2747

> <Gold.Chemscore.Metal.Weighted>
-0.0000

> <Gold.Chemscore.Lipo.Weighted>
-6.3282

> <Gold.Chemscore.Internal_Hbond.Weighted>
0.0000

> <Gold.Chemscore.DEClash.Weighted>
0.0077

> <Gold.Chemscore.DEInternal.Weighted>
1.4688

> <Gold.Chemscore.Rot.Weighted>
8.6354

> <Gold.Chemscore.Internal.Correction.Weighted>
   9.000000E+99

> <Gold.Protein.RotatedTorsions>
[ 6907 6896 6895 6894 ] final  131.53 input  -60.11 | X-H torsion
[ 7974 7965 7964 7962 ] final -105.35 input  175.53 | X-H torsion
[ 8008 7997 7996 7995 ] final  100.68 input   59.86 | X-H torsion
[ 10167 10162 10161 10158 ] final   49.92 input  -65.29 | X-H torsion
[ 10718 10713 10712 10709 ] final   67.03 input   66.30 | X-H torsion
[ 10763 10752 10751 10750 ] final -143.55 input  -60.55 | X-H torsion
[ 11005 11000 10999 10996 ] final -144.49 input  -57.11 | X-H torsion

> <Gold.Protein.ActiveResidues>
 VAL166  LYS551  ARG553  GLY616  TRP617  ASP618  TYR619  PRO620  LYS621  CYS622 
 ASP623  PHE694  ASN695  SER759  ASP760  ASP761  ALA762  ILE779  LEU786  VAL792 
 PHE793  MET794  SER795  GLU796  ALA797  LYS798  CYS799  TRP800  GLU811  SER814 

> <Gold.Protein.RotatedAtoms>
  152.3417  133.6074  159.5880 H   0  0  0  0  0  0  0  0  0  0  0  0  # atno 6907 bound_to 6896
  150.7482  133.9712  159.3555 H   0  0  0  0  0  0  0  0  0  0  0  0  # atno 6908 bound_to 6896
  151.7575  135.0819  160.0391 H   0  0  0  0  0  0  0  0  0  0  0  0  # atno 6909 bound_to 6896
  145.2316  140.9172  143.3201 H   0  0  0  0  0  0  0  0  0  0  0  0  # atno 7974 bound_to 7965
  156.1227  140.3209  155.8231 H   0  0  0  0  0  0  0  0  0  0  0  0  # atno 8008 bound_to 7997
  155.4476  140.0530  157.3021 H   0  0  0  0  0  0  0  0  0  0  0  0  # atno 8009 bound_to 7997
  154.4839  140.2064  155.9713 H   0  0  0  0  0  0  0  0  0  0  0  0  # atno 8010 bound_to 7997
  140.2779  144.3191  150.6272 H   0  0  0  0  0  0  0  0  0  0  0  0  # atno 10167 bound_to 10162
  157.6206  130.9299  150.0188 H   0  0  0  0  0  0  0  0  0  0  0  0  # atno 10718 bound_to 10713
  154.8465  135.3464  154.6206 H   0  0  0  0  0  0  0  0  0  0  0  0  # atno 10763 bound_to 10752
  153.6815  135.6980  153.5121 H   0  0  0  0  0  0  0  0  0  0  0  0  # atno 10764 bound_to 10752
  153.2665  135.4306  155.0901 H   0  0  0  0  0  0  0  0  0  0  0  0  # atno 10765 bound_to 10752
  140.8019  134.2847  157.4975 H   0  0  0  0  0  0  0  0  0  0  0  0  # atno 11005 bound_to 11000
  144.9672  139.3918  143.6327 LP  0  0  0  0  0  0  0  0  0  0  0  0  # atno 17320 bound_to 7965
  146.3351  139.8752  142.8833 LP  0  0  0  0  0  0  0  0  0  0  0  0  # atno 17321 bound_to 7965
  140.5836  143.2171  151.7383 LP  0  0  0  0  0  0  0  0  0  0  0  0  # atno 17342 bound_to 10162
  139.4970  144.4044  152.0148 LP  0  0  0  0  0  0  0  0  0  0  0  0  # atno 17343 bound_to 10162
  156.1349  130.3643  149.9673 LP  0  0  0  0  0  0  0  0  0  0  0  0  # atno 17370 bound_to 10713
  156.7726  130.9192  151.3644 LP  0  0  0  0  0  0  0  0  0  0  0  0  # atno 17371 bound_to 10713
  139.8721  134.9434  156.3852 LP  0  0  0  0  0  0  0  0  0  0  0  0  # atno 17394 bound_to 11000
  140.9286  133.7595  155.9996 LP  0  0  0  0  0  0  0  0  0  0  0  0  # atno 17395 bound_to 11000

$$$$
