AV-unprocessed.smi:196|AV-procd|sdf|1541|dock9
  -GOLD-   2262019403D 1   1.00000     0.00000
 Structure written by MMmdl.
 47 50  0  0  0  0  0  0  0  0  1 V2000
  147.0449  133.9611  153.0171 C   0  0  0  0  0  0  0  0  0  0  0  0
  145.9386  134.3293  152.0148 C   0  0  1  0  0  0  0  0  0  0  0  0
  145.7238  133.2700  151.0935 O   0  0  0  0  0  0  0  0  0  0  0  0
  144.4707  133.5058  150.4775 C   0  0  0  0  0  0  0  0  0  0  0  0
  143.5866  133.8992  151.6547 C   0  0  0  0  0  0  0  0  0  0  0  0
  144.5351  134.6487  152.5957 C   0  0  1  0  0  0  0  0  0  0  0  0
  144.3715  134.1167  153.9004 O   0  0  0  0  0  0  0  0  0  0  0  0
  144.2250  136.1652  152.6483 C   0  0  0  0  0  0  0  0  0  0  0  0
  145.3945  136.9884  152.9178 N   0  0  0  0  0  0  0  0  0  0  0  0
  145.8816  138.0105  152.1356 C   0  0  0  0  0  0  0  0  0  0  0  0
  146.9483  138.6036  152.5963 N   0  0  0  0  0  0  0  0  0  0  0  0
  147.2243  137.9389  153.7860 C   0  0  0  0  0  0  0  0  0  0  0  0
  148.2336  138.0626  154.7848 C   0  0  0  0  0  0  0  0  0  0  0  0
  149.2240  138.9942  154.7370 N   0  0  0  0  0  0  0  0  0  0  0  0
  148.8697  140.4093  154.7145 C   0  0  0  0  0  0  0  0  0  0  0  0
  149.9775  141.1255  155.4870 C   0  0  1  0  0  0  0  0  0  0  0  0
  149.6348  141.2159  156.7733 F   0  0  0  0  0  0  0  0  0  0  0  0
  151.1701  140.1850  155.3445 C   0  0  0  0  0  0  0  0  0  0  0  0
  150.5358  138.7848  155.3593 C   0  0  2  0  0  0  0  0  0  0  0  0
  151.4049  137.7718  154.5966 C   0  0  0  0  0  0  0  0  0  0  0  0
  150.8680  137.2207  153.5058 N   0  0  0  0  0  0  0  0  0  0  0  0
  152.5339  137.4807  154.9886 O   0  0  0  0  0  0  0  0  0  0  0  0
  148.1872  137.1884  155.8253 N   0  0  0  0  0  0  0  0  0  0  0  0
  147.2233  136.2665  155.8957 C   0  0  0  0  0  0  0  0  0  0  0  0
  146.2205  136.0428  155.0458 N   0  0  0  0  0  0  0  0  0  0  0  0
  146.2611  136.9102  153.9946 C   0  0  0  0  0  0  0  0  0  0  0  0
  150.1729  142.1356  155.1261 H   0  0  0  0  0  0  0  0  0  0  0  0
  150.3970  138.4640  156.3937 H   0  0  0  0  0  0  0  0  0  0  0  0
  147.2059  134.7631  153.7379 H   0  0  0  0  0  0  0  0  0  0  0  0
  147.9891  133.7868  152.5014 H   0  0  0  0  0  0  0  0  0  0  0  0
  146.8008  133.0534  153.5692 H   0  0  0  0  0  0  0  0  0  0  0  0
  146.2830  135.1751  151.4184 H   0  0  0  0  0  0  0  0  0  0  0  0
  144.5586  134.3246  149.7615 H   0  0  0  0  0  0  0  0  0  0  0  0
  144.1058  132.6232  149.9519 H   0  0  0  0  0  0  0  0  0  0  0  0
  142.7248  134.4905  151.3427 H   0  0  0  0  0  0  0  0  0  0  0  0
  143.2041  132.9909  152.1239 H   0  0  0  0  0  0  0  0  0  0  0  0
  143.9413  133.2782  153.8306 H   0  0  0  0  0  0  0  0  0  0  0  0
  143.7899  136.4896  151.7022 H   0  0  0  0  0  0  0  0  0  0  0  0
  143.4759  136.3753  153.4130 H   0  0  0  0  0  0  0  0  0  0  0  0
  145.4152  138.3089  151.2081 H   0  0  0  0  0  0  0  0  0  0  0  0
  148.8538  140.7434  153.6765 H   0  0  0  0  0  0  0  0  0  0  0  0
  147.8898  140.6116  155.1503 H   0  0  0  0  0  0  0  0  0  0  0  0
  151.6660  140.3787  154.3915 H   0  0  0  0  0  0  0  0  0  0  0  0
  151.9081  140.3213  156.1357 H   0  0  0  0  0  0  0  0  0  0  0  0
  151.3933  136.5441  152.9714 H   0  0  0  0  0  0  0  0  0  0  0  0
  149.9337  137.4791  153.2235 H   0  0  0  0  0  0  0  0  0  0  0  0
  147.2607  135.6159  156.7569 H   0  0  0  0  0  0  0  0  0  0  0  0
  1  2  1  0  0  0  0
  1 29  1  0  0  0  0
  1 30  1  0  0  0  0
  1 31  1  0  0  0  0
  2  6  1  0  0  0  0
  2  3  1  0  0  0  0
  2 32  1  0  0  0  0
  3  4  1  0  0  0  0
  4  5  1  0  0  0  0
  4 33  1  0  0  0  0
  4 34  1  0  0  0  0
  5  6  1  0  0  0  0
  5 35  1  0  0  0  0
  5 36  1  0  0  0  0
  6  7  1  0  0  0  0
  6  8  1  0  0  0  0
  7 37  1  0  0  0  0
  8  9  1  0  0  0  0
  8 38  1  0  0  0  0
  8 39  1  0  0  0  0
  9 26  1  0  0  0  0
  9 10  1  0  0  0  0
 10 11  2  0  0  0  0
 10 40  1  0  0  0  0
 11 12  1  0  0  0  0
 12 26  2  0  0  0  0
 12 13  1  0  0  0  0
 13 14  1  0  0  0  0
 13 23  2  0  0  0  0
 14 19  1  0  0  0  0
 14 15  1  0  0  0  0
 15 16  1  0  0  0  0
 15 41  1  0  0  0  0
 15 42  1  0  0  0  0
 16 27  1  0  0  0  0
 16 17  1  0  0  0  0
 16 18  1  0  0  0  0
 18 19  1  0  0  0  0
 18 43  1  0  0  0  0
 18 44  1  0  0  0  0
 19 28  1  0  0  0  0
 19 20  1  0  0  0  0
 20 21  1  0  0  0  0
 20 22  2  0  0  0  0
 21 45  1  0  0  0  0
 21 46  1  0  0  0  0
 23 24  1  0  0  0  0
 24 25  2  0  0  0  0
 24 47  1  0  0  0  0
 25 26  1  0  0  0  0
M  END
> <s_m_source_file>
AV-unprocessed.smi

> <i_m_source_file_index>
196

> <i_lp_mmshare_version>
43012

> <i_f3d_flags>
0

> <s_epik_input>
W0NIMl0xW0NIMl1PW0NAQEhdKFtDSDNdKVtDQEBdMShbT0hdKVtDSDJdbihbY0hdbjIpYyhjMjMpbltjSF1uYzNONFtDSDJdW0NASF0oRilbQ0gyXVtDQEhdNEMoPU8pW05IMl0=

> <s_epik_cmdline>
J2VwaWtfcHl0aG9uJywgJy1waCcsICc3LjAnLCAnLXRuJywgJzgnLCAnLW1hJywgJzIwMCcsICctbWV0YWxfYmluZGluZycsICctaW1hZScsICc8aW5maWxlLm1hZT4nLCAnLW9tYWUnLCAnPG91dGZpbGUubWFlPic=

> <r_lp_tautomer_probability>
1

> <r_epik_Ionization_Penalty>
0.000857933

> <r_epik_Ionization_Penalty_Charging>
0

> <r_epik_Ionization_Penalty_Neutral>
0.000857933

> <r_epik_State_Penalty>
0.000462053

> <r_epik_Charging_Adjusted_Penalty>
0.000462053

> <i_epik_Tot_Q>
0

> <i_epik_Tot_abs_Q>
0

> <r_epik_Metal_State_Penalty>
-0

> <b_epik_Metal_Only>
0

> <s_lp_Force_Field>
OPLS_2005

> <r_lp_Energy>
42.8122

> <b_lp_Chiralities_Consistent>
1

> <s_lp_Variant>
AV-unprocessed.smi:196-14

> <Gold.Version>
5.8.1

> <Gold.Id.Protein>
6NUR|6NUR_protein|mol2

> <Gold.PLP.Fitness>
37.8673

> <Gold.PLP.PLP>
-30.5420

> <Gold.PLP.part.hbond>
-3.6647

> <Gold.PLP.part.metal>
0.0000

> <Gold.PLP.part.buried>
-0.7941

> <Gold.PLP.part.nonpolar>
-27.8221

> <Gold.PLP.part.repulsive>
0.6368

> <Gold.PLP.ligand.clash>
0.0000

> <Gold.PLP.ligand.torsion>
1.2733

> <Gold.PLP.Chemscore.Hbond>
2.2001

> <Gold.PLP.Chemscore.CHOScore>
1.0000

> <Gold.PLP.Chemscore.Metal>
0.0000

> <Gold.Chemscore.Hbonds>
donor molecule, donor type, donor heavy atom, donor atom, acceptor molecule, acceptor atom, score
      L1  H     7    37       P1 10957  0.56
      L1  H    21    45       P1  7949  0.62
      L1  H    21    46       P1  7948  0.31
      P1  H 10752 10765       L1    22  0.54
      L1  C    10    40       P1 10171  1.00

> <Gold.PLP.Chemscore.Internal.Correction>
0.2718

> <Gold.Rescore>
     Score         DG    S(hbond)    S(metal)    S(lipo)     H(rot)  DE(clash)    DE(int)     intcor
      7.88     -10.65       1.72        0.00      51.92       2.60       0.38       2.39       ----

> <Gold.Chemscore.Fitness>
7.8839

> <Gold.Chemscore.DG>
-10.6536

> <Gold.Chemscore.ZeroCoef>
-5.4800

> <Gold.Chemscore.Hbond>
1.7206

> <Gold.Chemscore.Metal>
0.0000

> <Gold.Chemscore.Lipo>
51.9198

> <Gold.Chemscore.Internal_Hbond>
0.0000

> <Gold.Chemscore.DEClash>
0.3782

> <Gold.Chemscore.DEInternal>
2.3915

> <Gold.Chemscore.Rot>
2.5968

> <Gold.Chemscore.Internal.Correction>
   9.000000E+99

> <Gold.Chemscore.Hbonds>
donor molecule, donor type, donor heavy atom, donor atom, acceptor molecule, acceptor atom, score
      L1  H     7    37       P1 10957  0.53
      L1  H    21    45       P1  7949  0.52
      L1  H    21    46       P1  7948  0.12
      P1  H 10752 10765       L1    22  0.37

> <Gold.Chemscore.Hbond.Weighted>
-5.7467

> <Gold.Chemscore.Metal.Weighted>
-0.0000

> <Gold.Chemscore.Lipo.Weighted>
-6.0746

> <Gold.Chemscore.Internal_Hbond.Weighted>
0.0000

> <Gold.Chemscore.DEClash.Weighted>
0.3782

> <Gold.Chemscore.DEInternal.Weighted>
2.3915

> <Gold.Chemscore.Rot.Weighted>
6.6477

> <Gold.Chemscore.Internal.Correction.Weighted>
   9.000000E+99

> <Gold.Protein.RotatedTorsions>
[ 6907 6896 6895 6894 ] final -159.46 input  -60.11 | X-H torsion
[ 7974 7965 7964 7962 ] final  -78.72 input  175.53 | X-H torsion
[ 8008 7997 7996 7995 ] final   89.24 input   59.86 | X-H torsion
[ 10167 10162 10161 10158 ] final   79.48 input  -65.29 | X-H torsion
[ 10718 10713 10712 10709 ] final -147.45 input   66.30 | X-H torsion
[ 10763 10752 10751 10750 ] final  164.28 input  -60.55 | X-H torsion
[ 11005 11000 10999 10996 ] final  118.43 input  -57.11 | X-H torsion

> <Gold.Protein.ActiveResidues>
 VAL166  LYS551  ARG553  GLY616  TRP617  ASP618  TYR619  PRO620  LYS621  CYS622 
 ASP623  PHE694  ASN695  SER759  ASP760  ASP761  ALA762  ILE779  LEU786  VAL792 
 PHE793  MET794  SER795  GLU796  ALA797  LYS798  CYS799  TRP800  GLU811  SER814 

> <Gold.Protein.RotatedAtoms>
  151.3340  133.3989  159.2664 H   0  0  0  0  0  0  0  0  0  0  0  0  # atno 6907 bound_to 6896
  150.9932  134.9263  159.7922 H   0  0  0  0  0  0  0  0  0  0  0  0  # atno 6908 bound_to 6896
  152.5253  134.3305  159.9233 H   0  0  0  0  0  0  0  0  0  0  0  0  # atno 6909 bound_to 6896
  145.5828  140.9445  143.1335 H   0  0  0  0  0  0  0  0  0  0  0  0  # atno 7974 bound_to 7965
  155.9975  140.3363  155.6813 H   0  0  0  0  0  0  0  0  0  0  0  0  # atno 8008 bound_to 7997
  155.6336  140.0687  157.2659 H   0  0  0  0  0  0  0  0  0  0  0  0  # atno 8009 bound_to 7997
  154.4238  140.1755  156.1486 H   0  0  0  0  0  0  0  0  0  0  0  0  # atno 8010 bound_to 7997
  139.9599  144.5968  150.8082 H   0  0  0  0  0  0  0  0  0  0  0  0  # atno 10167 bound_to 10162
  156.4077  130.7966  151.2181 H   0  0  0  0  0  0  0  0  0  0  0  0  # atno 10718 bound_to 10713
  154.3065  135.2758  155.2586 H   0  0  0  0  0  0  0  0  0  0  0  0  # atno 10763 bound_to 10752
  154.5000  135.5811  153.6527 H   0  0  0  0  0  0  0  0  0  0  0  0  # atno 10764 bound_to 10752
  152.9893  135.6155  154.3240 H   0  0  0  0  0  0  0  0  0  0  0  0  # atno 10765 bound_to 10752
  139.9109  134.9620  156.7501 H   0  0  0  0  0  0  0  0  0  0  0  0  # atno 11005 bound_to 11000
  144.7386  139.7513  143.7319 LP  0  0  0  0  0  0  0  0  0  0  0  0  # atno 17320 bound_to 7965
  146.1704  139.4852  142.9931 LP  0  0  0  0  0  0  0  0  0  0  0  0  # atno 17321 bound_to 7965
  140.7556  143.3050  151.2985 LP  0  0  0  0  0  0  0  0  0  0  0  0  # atno 17342 bound_to 10162
  139.6562  144.0272  152.2661 LP  0  0  0  0  0  0  0  0  0  0  0  0  # atno 17343 bound_to 10162
  157.7506  131.0267  150.3974 LP  0  0  0  0  0  0  0  0  0  0  0  0  # atno 17370 bound_to 10713
  156.4266  130.3963  149.6788 LP  0  0  0  0  0  0  0  0  0  0  0  0  # atno 17371 bound_to 10713
  140.6780  133.9500  155.7894 LP  0  0  0  0  0  0  0  0  0  0  0  0  # atno 17394 bound_to 11000
  141.0530  134.0457  157.3758 LP  0  0  0  0  0  0  0  0  0  0  0  0  # atno 17395 bound_to 11000

$$$$
