AV-unprocessed.smi:3330|AV-procd|sdf|12807|dock2
  -GOLD-   2272019173D 1   1.00000     0.00000
 Structure written by MMmdl.
 38 39  0  0  0  0  0  0  0  0  1 V2000
  149.9240  143.6494  158.8908 C   0  0  0  0  0  0  0  0  0  0  0  0
  151.2611  143.7482  158.1232 C   0  0  2  0  0  0  0  0  0  0  0  0
  151.6953  142.4103  157.7315 N   0  0  0  0  0  0  0  0  0  0  0  0
  151.0981  141.9588  156.4836 C   0  0  0  0  0  0  0  0  0  0  0  0
  149.6330  141.5715  156.7367 C   0  0  0  0  0  0  0  0  0  0  0  0
  148.9584  141.1995  155.4905 N   0  0  0  0  0  0  0  0  0  0  0  0
  147.7032  141.5477  155.1785 C   0  0  0  0  0  0  0  0  0  0  0  0
  146.9183  142.2110  155.8556 O   0  0  0  0  0  0  0  0  0  0  0  0
  147.3770  140.9885  153.8109 C   0  0  0  0  0  0  0  0  0  0  0  0
  148.6386  140.3454  153.5135 N   0  0  0  0  0  0  0  0  0  0  0  0
  149.5306  140.4878  154.5024 C   0  0  0  0  0  0  0  0  0  0  0  0
  150.6767  140.0415  154.4923 O   0  0  0  0  0  0  0  0  0  0  0  0
  152.3972  144.4009  158.9568 C   0  0  1  0  0  0  0  0  0  0  0  0
  152.0063  145.7838  159.5109 C   0  0  0  0  0  0  0  0  0  0  0  0
  152.8311  143.5425  160.0525 N   0  0  0  0  0  0  0  0  0  0  0  0
  152.6982  143.7456  161.4119 C   0  0  0  0  0  0  0  0  0  0  0  0
  153.2484  142.6669  162.0424 C   0  0  0  0  0  0  0  0  0  0  0  0
  153.6999  141.8449  160.9727 C   0  0  0  0  0  0  0  0  0  0  0  0
  153.4510  142.3714  159.7850 N   0  0  0  0  0  0  0  0  0  0  0  0
  149.5497  144.6324  159.1762 H   0  0  0  0  0  0  0  0  0  0  0  0
  150.0353  143.0626  159.8032 H   0  0  0  0  0  0  0  0  0  0  0  0
  149.1398  143.1875  158.2924 H   0  0  0  0  0  0  0  0  0  0  0  0
  151.1094  144.3508  157.2264 H   0  0  0  0  0  0  0  0  0  0  0  0
  151.5105  141.7505  158.4738 H   0  0  0  0  0  0  0  0  0  0  0  0
  151.1465  142.7455  155.7313 H   0  0  0  0  0  0  0  0  0  0  0  0
  151.6521  141.1009  156.0997 H   0  0  0  0  0  0  0  0  0  0  0  0
  149.5815  140.7415  157.4442 H   0  0  0  0  0  0  0  0  0  0  0  0
  149.1047  142.3994  157.2134 H   0  0  0  0  0  0  0  0  0  0  0  0
  146.5585  140.2692  153.8544 H   0  0  0  0  0  0  0  0  0  0  0  0
  147.1485  141.7790  153.0954 H   0  0  0  0  0  0  0  0  0  0  0  0
  148.8149  139.8508  152.6509 H   0  0  0  0  0  0  0  0  0  0  0  0
  153.2579  144.5434  158.2997 H   0  0  0  0  0  0  0  0  0  0  0  0
  151.7906  146.4899  158.7091 H   0  0  0  0  0  0  0  0  0  0  0  0
  152.8152  146.2090  160.1059 H   0  0  0  0  0  0  0  0  0  0  0  0
  151.1216  145.7248  160.1455 H   0  0  0  0  0  0  0  0  0  0  0  0
  152.2261  144.6306  161.8123 H   0  0  0  0  0  0  0  0  0  0  0  0
  153.3169  142.4916  163.1057 H   0  0  0  0  0  0  0  0  0  0  0  0
  154.1973  140.8877  161.0231 H   0  0  0  0  0  0  0  0  0  0  0  0
  1  2  1  0  0  0  0
  1 20  1  0  0  0  0
  1 21  1  0  0  0  0
  1 22  1  0  0  0  0
  2  3  1  0  0  0  0
  2 13  1  0  0  0  0
  2 23  1  0  0  0  0
  3  4  1  0  0  0  0
  3 24  1  0  0  0  0
  4  5  1  0  0  0  0
  4 25  1  0  0  0  0
  4 26  1  0  0  0  0
  5  6  1  0  0  0  0
  5 27  1  0  0  0  0
  5 28  1  0  0  0  0
  6 11  1  0  0  0  0
  6  7  1  0  0  0  0
  7  8  2  0  0  0  0
  7  9  1  0  0  0  0
  9 10  1  0  0  0  0
  9 29  1  0  0  0  0
  9 30  1  0  0  0  0
 10 11  1  0  0  0  0
 10 31  1  0  0  0  0
 11 12  2  0  0  0  0
 13 14  1  0  0  0  0
 13 15  1  0  0  0  0
 13 32  1  0  0  0  0
 14 33  1  0  0  0  0
 14 34  1  0  0  0  0
 14 35  1  0  0  0  0
 15 19  1  0  0  0  0
 15 16  1  0  0  0  0
 16 17  2  0  0  0  0
 16 36  1  0  0  0  0
 17 18  1  0  0  0  0
 17 37  1  0  0  0  0
 18 19  2  0  0  0  0
 18 38  1  0  0  0  0
M  END
> <s_m_source_file>
AV-unprocessed.smi

> <i_m_source_file_index>
3330

> <i_lp_mmshare_version>
43012

> <i_f3d_flags>
0

> <s_epik_input>
bjFbY0hdW2NIXVtjSF1uMVtDQEBIXShbQ0gzXSlbQ0BIXShbQ0gzXSlbTkhdW0NIMl1bQ0gyXU4yQyg9TylbQ0gyXVtOSF1DMj1P

> <s_epik_cmdline>
J2VwaWtfcHl0aG9uJywgJy1waCcsICc3LjAnLCAnLXRuJywgJzgnLCAnLW1hJywgJzIwMCcsICctbWV0YWxfYmluZGluZycsICctaW1hZScsICc8aW5maWxlLm1hZT4nLCAnLW9tYWUnLCAnPG91dGZpbGUubWFlPic=

> <r_lp_tautomer_probability>
1

> <r_epik_Ionization_Penalty>
2.2997

> <r_epik_Ionization_Penalty_Charging>
0

> <r_epik_Ionization_Penalty_Neutral>
2.2997

> <r_epik_State_Penalty>
2.44917

> <r_epik_Charging_Adjusted_Penalty>
2.44917

> <i_epik_Tot_Q>
0

> <i_epik_Tot_abs_Q>
0

> <r_epik_Metal_State_Penalty>
2.52438

> <b_epik_Metal_Only>
0

> <s_lp_Force_Field>
OPLS_2005

> <r_lp_Energy>
27.6633

> <b_lp_Chiralities_Consistent>
1

> <s_lp_Variant>
AV-unprocessed.smi:3330-7

> <Gold.Version>
5.8.1

> <Gold.Id.Protein>
6NUR|6NUR_protein|mol2

> <Gold.PLP.Fitness>
52.7724

> <Gold.PLP.PLP>
-48.4638

> <Gold.PLP.part.hbond>
-1.7568

> <Gold.PLP.part.metal>
0.0000

> <Gold.PLP.part.buried>
-6.1961

> <Gold.PLP.part.nonpolar>
-40.3603

> <Gold.PLP.part.repulsive>
0.8065

> <Gold.PLP.ligand.clash>
0.0000

> <Gold.PLP.ligand.torsion>
0.8784

> <Gold.PLP.Chemscore.Hbond>
1.9760

> <Gold.PLP.Chemscore.CHOScore>
0.0000

> <Gold.PLP.Chemscore.Metal>
0.0000

> <Gold.Chemscore.Hbonds>
donor molecule, donor type, donor heavy atom, donor atom, acceptor molecule, acceptor atom, score
      L1  H    10    31       P1  7957  0.83
      P1  H  7989  7998       L1    12  1.00

> <Gold.PLP.Chemscore.Internal.Correction>
0.1375

> <Gold.Rescore>
     Score         DG    S(hbond)    S(metal)    S(lipo)     H(rot)  DE(clash)    DE(int)     intcor
     12.31     -16.24       1.86        0.00      95.62       2.60       0.01       3.92       ----

> <Gold.Chemscore.Fitness>
12.3087

> <Gold.Chemscore.DG>
-16.2383

> <Gold.Chemscore.ZeroCoef>
-5.4800

> <Gold.Chemscore.Hbond>
1.8608

> <Gold.Chemscore.Metal>
0.0000

> <Gold.Chemscore.Lipo>
95.6157

> <Gold.Chemscore.Internal_Hbond>
0.0000

> <Gold.Chemscore.DEClash>
0.0073

> <Gold.Chemscore.DEInternal>
3.9223

> <Gold.Chemscore.Rot>
2.5952

> <Gold.Chemscore.Internal.Correction>
   9.000000E+99

> <Gold.Chemscore.Hbonds>
donor molecule, donor type, donor heavy atom, donor atom, acceptor molecule, acceptor atom, score
      L1  H    10    31       P1  7957  0.81
      P1  H  7989  7998       L1    12  0.81

> <Gold.Chemscore.Hbond.Weighted>
-6.2150

> <Gold.Chemscore.Metal.Weighted>
-0.0000

> <Gold.Chemscore.Lipo.Weighted>
-11.1870

> <Gold.Chemscore.Internal_Hbond.Weighted>
0.0000

> <Gold.Chemscore.DEClash.Weighted>
0.0073

> <Gold.Chemscore.DEInternal.Weighted>
3.9223

> <Gold.Chemscore.Rot.Weighted>
6.6437

> <Gold.Chemscore.Internal.Correction.Weighted>
   9.000000E+99

> <Gold.Protein.RotatedTorsions>
[ 6907 6896 6895 6894 ] final  100.24 input  -60.11 | X-H torsion
[ 7974 7965 7964 7962 ] final  103.77 input  175.53 | X-H torsion
[ 8008 7997 7996 7995 ] final  -53.71 input   59.86 | X-H torsion
[ 10167 10162 10161 10158 ] final   79.84 input  -65.29 | X-H torsion
[ 10718 10713 10712 10709 ] final  -80.09 input   66.30 | X-H torsion
[ 10763 10752 10751 10750 ] final   73.12 input  -60.55 | X-H torsion
[ 11005 11000 10999 10996 ] final   96.36 input  -57.11 | X-H torsion

> <Gold.Protein.ActiveResidues>
 VAL166  LYS551  ARG553  GLY616  TRP617  ASP618  TYR619  PRO620  LYS621  CYS622 
 ASP623  PHE694  ASN695  SER759  ASP760  ASP761  ALA762  ILE779  LEU786  VAL792 
 PHE793  MET794  SER795  GLU796  ALA797  LYS798  CYS799  TRP800  GLU811  SER814 

> <Gold.Protein.RotatedAtoms>
  152.5376  134.0308  159.8023 H   0  0  0  0  0  0  0  0  0  0  0  0  # atno 6907 bound_to 6896
  151.0479  133.5642  159.2652 H   0  0  0  0  0  0  0  0  0  0  0  0  # atno 6908 bound_to 6896
  151.2587  135.0654  159.9143 H   0  0  0  0  0  0  0  0  0  0  0  0  # atno 6909 bound_to 6896
  145.3416  139.2461  143.3606 H   0  0  0  0  0  0  0  0  0  0  0  0  # atno 7974 bound_to 7965
  154.4141  140.1193  156.5198 H   0  0  0  0  0  0  0  0  0  0  0  0  # atno 8008 bound_to 7997
  155.6714  140.3496  155.4800 H   0  0  0  0  0  0  0  0  0  0  0  0  # atno 8009 bound_to 7997
  155.9630  140.1126  157.0869 H   0  0  0  0  0  0  0  0  0  0  0  0  # atno 8010 bound_to 7997
  139.9561  144.5993  150.8115 H   0  0  0  0  0  0  0  0  0  0  0  0  # atno 10167 bound_to 10162
  156.0078  130.4564  150.3748 H   0  0  0  0  0  0  0  0  0  0  0  0  # atno 10718 bound_to 10713
  153.0501  135.5074  154.7847 H   0  0  0  0  0  0  0  0  0  0  0  0  # atno 10763 bound_to 10752
  154.6715  135.2954  154.9738 H   0  0  0  0  0  0  0  0  0  0  0  0  # atno 10764 bound_to 10752
  154.0554  135.6698  153.4858 H   0  0  0  0  0  0  0  0  0  0  0  0  # atno 10765 bound_to 10752
  139.8782  134.8947  156.4148 H   0  0  0  0  0  0  0  0  0  0  0  0  # atno 11005 bound_to 11000
  146.3005  140.4014  142.8706 LP  0  0  0  0  0  0  0  0  0  0  0  0  # atno 17320 bound_to 7965
  144.8786  140.7370  143.6001 LP  0  0  0  0  0  0  0  0  0  0  0  0  # atno 17321 bound_to 7965
  140.7568  143.3073  151.2931 LP  0  0  0  0  0  0  0  0  0  0  0  0  # atno 17342 bound_to 10162
  139.6590  144.0223  152.2679 LP  0  0  0  0  0  0  0  0  0  0  0  0  # atno 17343 bound_to 10162
  157.1831  131.0397  151.2738 LP  0  0  0  0  0  0  0  0  0  0  0  0  # atno 17370 bound_to 10713
  157.4128  130.7394  149.6852 LP  0  0  0  0  0  0  0  0  0  0  0  0  # atno 17371 bound_to 10713
  140.9175  133.7668  155.9866 LP  0  0  0  0  0  0  0  0  0  0  0  0  # atno 17394 bound_to 11000
  140.8477  134.2991  157.5288 LP  0  0  0  0  0  0  0  0  0  0  0  0  # atno 17395 bound_to 11000

$$$$
