AV-unprocessed.smi:1768|AV-procd|sdf|7148|dock4
  -GOLD-   22720 8383D 1   1.00000     0.00000
 Structure written by MMmdl.
 32 33  0  0  0  0  0  0  0  0  2 V2000
  149.6277  135.4120  154.4282 C   0  0  0  0  0  0  0  0  0  0  0  0
  150.5857  136.4427  154.9187 C   0  0  0  0  0  0  0  0  0  0  0  0
  151.7263  136.1309  155.5389 N   0  0  0  0  0  0  0  0  0  0  0  0
  152.4482  137.2586  155.9024 N   0  0  0  0  0  0  0  0  0  0  0  0
  151.8398  138.4044  155.5645 C   0  0  0  0  0  0  0  0  0  0  0  0
  152.3754  139.6082  155.8261 N   0  5  0  0  0  0  0  0  0  0  0  0
  151.5802  140.6996  155.9051 C   0  0  0  0  0  0  0  0  0  0  0  0
  150.6685  140.9962  155.1296 O   0  0  0  0  0  0  0  0  0  0  0  0
  151.8582  141.4948  156.9485 N   0  0  0  0  0  0  0  0  0  0  0  0
  151.1772  142.7416  157.2909 C   0  0  1  0  0  0  0  0  0  0  0  0
  149.7984  142.4287  157.8997 C   0  0  0  0  0  0  0  0  0  0  0  0
  152.0665  143.5530  158.2525 C   0  0  2  0  0  0  0  0  0  0  0  0
  152.3853  142.8549  159.5762 C   0  0  0  0  0  0  0  0  0  0  0  0
  152.6465  144.0030  160.5397 C   0  0  0  0  0  0  0  0  0  0  0  0
  152.1202  145.2368  159.8026 C   0  0  0  0  0  0  0  0  0  0  0  0
  151.3936  144.7214  158.6969 O   0  0  0  0  0  0  0  0  0  0  0  0
  150.3037  138.1652  154.7317 S   0  0  0  0  0  0  0  0  0  0  0  0
  149.0469  135.0178  155.2622 H   0  0  0  0  0  0  0  0  0  0  0  0
  150.1659  134.5908  153.9541 H   0  0  0  0  0  0  0  0  0  0  0  0
  148.9436  135.8464  153.6991 H   0  0  0  0  0  0  0  0  0  0  0  0
  152.6163  141.2131  157.5524 H   0  0  0  0  0  0  0  0  0  0  0  0
  151.0336  143.3294  156.3823 H   0  0  0  0  0  0  0  0  0  0  0  0
  149.2487  143.3415  158.1286 H   0  0  0  0  0  0  0  0  0  0  0  0
  149.8939  141.8562  158.8227 H   0  0  0  0  0  0  0  0  0  0  0  0
  149.1844  141.8477  157.2111 H   0  0  0  0  0  0  0  0  0  0  0  0
  152.9941  143.8480  157.7573 H   0  0  0  0  0  0  0  0  0  0  0  0
  151.5218  142.2828  159.9183 H   0  0  0  0  0  0  0  0  0  0  0  0
  153.2307  142.1710  159.4962 H   0  0  0  0  0  0  0  0  0  0  0  0
  152.1218  143.8439  161.4822 H   0  0  0  0  0  0  0  0  0  0  0  0
  153.7090  144.1097  160.7605 H   0  0  0  0  0  0  0  0  0  0  0  0
  151.4877  145.8636  160.4314 H   0  0  0  0  0  0  0  0  0  0  0  0
  152.9468  145.8463  159.4352 H   0  0  0  0  0  0  0  0  0  0  0  0
  1  2  1  0  0  0  0
  1 18  1  0  0  0  0
  1 19  1  0  0  0  0
  1 20  1  0  0  0  0
  2 17  1  0  0  0  0
  2  3  2  0  0  0  0
  3  4  1  0  0  0  0
  4  5  2  0  0  0  0
  5  6  1  0  0  0  0
  5 17  1  0  0  0  0
  6  7  1  0  0  0  0
  7  8  2  0  0  0  0
  7  9  1  0  0  0  0
  9 10  1  0  0  0  0
  9 21  1  0  0  0  0
 10 11  1  0  0  0  0
 10 12  1  0  0  0  0
 10 22  1  0  0  0  0
 11 23  1  0  0  0  0
 11 24  1  0  0  0  0
 11 25  1  0  0  0  0
 12 16  1  0  0  0  0
 12 13  1  0  0  0  0
 12 26  1  0  0  0  0
 13 14  1  0  0  0  0
 13 27  1  0  0  0  0
 13 28  1  0  0  0  0
 14 15  1  0  0  0  0
 14 29  1  0  0  0  0
 14 30  1  0  0  0  0
 15 16  1  0  0  0  0
 15 31  1  0  0  0  0
 15 32  1  0  0  0  0
M  CHG  1   6  -1
M  END
> <s_m_source_file>
AV-unprocessed.smi

> <i_m_source_file_index>
1768

> <i_lp_mmshare_version>
43012

> <i_f3d_flags>
0

> <s_epik_input>
W0NIM11jMW5uYyhzMSlbTkhdQyg9TylbTkhdW0NASF0oW0NIM10pW0NAQEhdMltDSDJdW0NIMl1bQ0gyXU8y

> <s_epik_cmdline>
J2VwaWtfcHl0aG9uJywgJy1waCcsICc3LjAnLCAnLXRuJywgJzgnLCAnLW1hJywgJzIwMCcsICctbWV0YWxfYmluZGluZycsICctaW1hZScsICc8aW5maWxlLm1hZT4nLCAnLW9tYWUnLCAnPG91dGZpbGUubWFlPic=

> <r_lp_tautomer_probability>
1

> <r_epik_Ionization_Penalty>
4.3376

> <r_epik_Ionization_Penalty_Charging>
4.19392

> <r_epik_Ionization_Penalty_Neutral>
0.143681

> <r_epik_State_Penalty>
4.19342

> <r_epik_Charging_Adjusted_Penalty>
8.38735

> <i_epik_Tot_Q>
-1

> <i_epik_Tot_abs_Q>
1

> <r_epik_Metal_State_Penalty>
0.686065

> <b_epik_Metal_Only>
1

> <s_lp_Force_Field>
OPLS_2005

> <r_lp_Energy>
16.4206

> <b_lp_Chiralities_Consistent>
1

> <s_lp_Variant>
AV-unprocessed.smi:1768-6

> <Gold.Version>
5.8.1

> <Gold.Id.Protein>
6NUR|6NUR_protein|mol2

> <Gold.PLP.Fitness>
42.3446

> <Gold.PLP.PLP>
-32.2547

> <Gold.PLP.part.hbond>
-3.8991

> <Gold.PLP.part.metal>
0.0000

> <Gold.PLP.part.buried>
-2.9883

> <Gold.PLP.part.nonpolar>
-25.6421

> <Gold.PLP.part.repulsive>
0.3373

> <Gold.PLP.ligand.clash>
0.0000

> <Gold.PLP.ligand.torsion>
0.7215

> <Gold.PLP.Chemscore.Hbond>
3.8320

> <Gold.PLP.Chemscore.CHOScore>
0.0000

> <Gold.PLP.Chemscore.Metal>
0.0000

> <Gold.Chemscore.Hbonds>
donor molecule, donor type, donor heavy atom, donor atom, acceptor molecule, acceptor atom, score
      P1  H  7989  7998       L1     8  0.68
      P1  H  7997  8008       L1     6  1.69
      P1  H 10752 10765       L1     3  0.45

> <Gold.PLP.Chemscore.Internal.Correction>
0.0369

> <Gold.Rescore>
     Score         DG    S(hbond)    S(metal)    S(lipo)     H(rot)  DE(clash)    DE(int)     intcor
     12.68     -15.08       1.15        0.00      77.21       1.28       0.27       2.13       ----

> <Gold.Chemscore.Fitness>
12.6768

> <Gold.Chemscore.DG>
-15.0760

> <Gold.Chemscore.ZeroCoef>
-5.4800

> <Gold.Chemscore.Hbond>
1.1476

> <Gold.Chemscore.Metal>
0.0000

> <Gold.Chemscore.Lipo>
77.2111

> <Gold.Chemscore.Internal_Hbond>
0.0000

> <Gold.Chemscore.DEClash>
0.2674

> <Gold.Chemscore.DEInternal>
2.1318

> <Gold.Chemscore.Rot>
1.2776

> <Gold.Chemscore.Internal.Correction>
   9.000000E+99

> <Gold.Chemscore.Hbonds>
donor molecule, donor type, donor heavy atom, donor atom, acceptor molecule, acceptor atom, score
      P1  H  7989  7998       L1     8  0.15
      P1  H  7997  8008       L1     6  0.61
      P1  H 10752 10765       L1     3  0.02

> <Gold.Chemscore.Hbond.Weighted>
-3.8329

> <Gold.Chemscore.Metal.Weighted>
-0.0000

> <Gold.Chemscore.Lipo.Weighted>
-9.0337

> <Gold.Chemscore.Internal_Hbond.Weighted>
0.0000

> <Gold.Chemscore.DEClash.Weighted>
0.2674

> <Gold.Chemscore.DEInternal.Weighted>
2.1318

> <Gold.Chemscore.Rot.Weighted>
3.2706

> <Gold.Chemscore.Internal.Correction.Weighted>
   9.000000E+99

> <Gold.Protein.RotatedTorsions>
[ 6907 6896 6895 6894 ] final -157.65 input  -60.11 | X-H torsion
[ 7974 7965 7964 7962 ] final   47.77 input  175.53 | X-H torsion
[ 8008 7997 7996 7995 ] final  -44.39 input   59.86 | X-H torsion
[ 10167 10162 10161 10158 ] final -111.20 input  -65.29 | X-H torsion
[ 10718 10713 10712 10709 ] final  -89.04 input   66.30 | X-H torsion
[ 10763 10752 10751 10750 ] final -160.80 input  -60.55 | X-H torsion
[ 11005 11000 10999 10996 ] final -158.51 input  -57.11 | X-H torsion

> <Gold.Protein.ActiveResidues>
 VAL166  LYS551  ARG553  GLY616  TRP617  ASP618  TYR619  PRO620  LYS621  CYS622 
 ASP623  PHE694  ASN695  SER759  ASP760  ASP761  ALA762  ILE779  LEU786  VAL792 
 PHE793  MET794  SER795  GLU796  ALA797  LYS798  CYS799  TRP800  GLU811  SER814 

> <Gold.Protein.RotatedAtoms>
  151.3062  133.4101  159.2643 H   0  0  0  0  0  0  0  0  0  0  0  0  # atno 6907 bound_to 6896
  151.0153  134.9429  159.8040 H   0  0  0  0  0  0  0  0  0  0  0  0  # atno 6908 bound_to 6896
  152.5311  134.3025  159.9136 H   0  0  0  0  0  0  0  0  0  0  0  0  # atno 6909 bound_to 6896
  146.0267  139.4714  142.9863 H   0  0  0  0  0  0  0  0  0  0  0  0  # atno 7974 bound_to 7965
  154.3997  140.1423  156.3675 H   0  0  0  0  0  0  0  0  0  0  0  0  # atno 8008 bound_to 7997
  155.8124  140.3472  155.5444 H   0  0  0  0  0  0  0  0  0  0  0  0  # atno 8009 bound_to 7997
  155.8373  140.0921  157.1747 H   0  0  0  0  0  0  0  0  0  0  0  0  # atno 8010 bound_to 7997
  140.1362  143.4318  152.1593 H   0  0  0  0  0  0  0  0  0  0  0  0  # atno 10167 bound_to 10162
  155.9984  130.4857  150.5110 H   0  0  0  0  0  0  0  0  0  0  0  0  # atno 10718 bound_to 10713
  154.7359  135.3057  154.8812 H   0  0  0  0  0  0  0  0  0  0  0  0  # atno 10763 bound_to 10752
  153.9641  135.6749  153.4750 H   0  0  0  0  0  0  0  0  0  0  0  0  # atno 10764 bound_to 10752
  153.0962  135.4934  154.8705 H   0  0  0  0  0  0  0  0  0  0  0  0  # atno 10765 bound_to 10752
  140.6528  134.4432  157.5235 H   0  0  0  0  0  0  0  0  0  0  0  0  # atno 11005 bound_to 11000
  145.7107  141.0107  143.1455 LP  0  0  0  0  0  0  0  0  0  0  0  0  # atno 17320 bound_to 7965
  144.7012  139.8754  143.7443 LP  0  0  0  0  0  0  0  0  0  0  0  0  # atno 17321 bound_to 7965
  139.5494  144.7326  151.4480 LP  0  0  0  0  0  0  0  0  0  0  0  0  # atno 17342 bound_to 10162
  140.6787  143.8130  150.7093 LP  0  0  0  0  0  0  0  0  0  0  0  0  # atno 17343 bound_to 10162
  157.3083  131.0659  151.2019 LP  0  0  0  0  0  0  0  0  0  0  0  0  # atno 17370 bound_to 10713
  157.2974  130.6826  149.6146 LP  0  0  0  0  0  0  0  0  0  0  0  0  # atno 17371 bound_to 10713
  139.9040  134.8491  156.1781 LP  0  0  0  0  0  0  0  0  0  0  0  0  # atno 17394 bound_to 11000
  141.0524  133.6882  156.1796 LP  0  0  0  0  0  0  0  0  0  0  0  0  # atno 17395 bound_to 11000

$$$$
