AV-unprocessed.smi:2178|AV-procd|sdf|8853|dock7
  -GOLD-   2272012 43D 1   1.00000     0.00000
 Structure written by MMmdl.
 46 48  0  0  0  0  0  0  0  0  1 V2000
  154.3399  135.4714  161.6041 C   0  0  0  0  0  0  0  0  0  0  0  0
  154.4945  136.5086  162.7007 C   0  0  0  0  0  0  0  0  0  0  0  0
  154.4116  136.1142  164.0521 C   0  0  0  0  0  0  0  0  0  0  0  0
  154.5428  137.0685  165.0777 C   0  0  0  0  0  0  0  0  0  0  0  0
  154.7507  138.4225  164.7563 C   0  0  0  0  0  0  0  0  0  0  0  0
  154.8334  138.8291  163.4085 C   0  0  0  0  0  0  0  0  0  0  0  0
  155.0404  140.2971  163.0854 C   0  0  0  0  0  0  0  0  0  0  0  0
  154.7195  137.8671  162.3765 C   0  0  0  0  0  0  0  0  0  0  0  0
  154.7983  138.2476  161.0618 O   0  0  0  0  0  0  0  0  0  0  0  0
  153.5761  138.1061  160.3523 C   0  0  0  0  0  0  0  0  0  0  0  0
  153.5464  139.1274  159.2071 C   0  0  1  0  0  0  0  0  0  0  0  0
  154.6034  138.8362  158.3151 O   0  0  0  0  0  0  0  0  0  0  0  0
  152.2021  139.1210  158.4520 C   0  0  0  0  0  0  0  0  0  0  0  0
  151.8706  140.4243  157.8920 N   0  0  0  0  0  0  0  0  0  0  0  0
  151.4033  140.7184  156.6521 C   0  0  0  0  0  0  0  0  0  0  0  0
  151.1513  139.6432  155.6332 C   0  0  0  0  0  0  0  0  0  0  0  0
  150.6371  140.1218  154.4062 O   0  0  0  0  0  0  0  0  0  0  0  0
  151.1812  142.0136  156.4131 N   0  0  0  0  0  0  0  0  0  0  0  0
  151.5396  142.6119  157.6048 C   0  0  0  0  0  0  0  0  0  0  0  0
  151.5345  143.9720  157.9887 C   0  0  0  0  0  0  0  0  0  0  0  0
  151.9503  144.3501  159.2824 C   0  0  0  0  0  0  0  0  0  0  0  0
  152.3743  143.3757  160.2093 C   0  0  0  0  0  0  0  0  0  0  0  0
  152.3866  142.0150  159.8468 C   0  0  0  0  0  0  0  0  0  0  0  0
  151.9730  141.6437  158.5534 C   0  0  0  0  0  0  0  0  0  0  0  0
  153.9841  134.5214  162.0036 H   0  0  0  0  0  0  0  0  0  0  0  0
  155.2953  135.2955  161.1098 H   0  0  0  0  0  0  0  0  0  0  0  0
  153.6224  135.8101  160.8562 H   0  0  0  0  0  0  0  0  0  0  0  0
  154.2448  135.0780  164.3082 H   0  0  0  0  0  0  0  0  0  0  0  0
  154.4787  136.7625  166.1114 H   0  0  0  0  0  0  0  0  0  0  0  0
  154.8432  139.1497  165.5499 H   0  0  0  0  0  0  0  0  0  0  0  0
  154.4958  140.5811  162.1847 H   0  0  0  0  0  0  0  0  0  0  0  0
  156.0992  140.5040  162.9296 H   0  0  0  0  0  0  0  0  0  0  0  0
  154.6864  140.9293  163.9002 H   0  0  0  0  0  0  0  0  0  0  0  0
  153.5118  137.0934  159.9520 H   0  0  0  0  0  0  0  0  0  0  0  0
  152.7165  138.2471  161.0102 H   0  0  0  0  0  0  0  0  0  0  0  0
  153.7313  140.1211  159.6171 H   0  0  0  0  0  0  0  0  0  0  0  0
  154.2907  138.2213  157.6692 H   0  0  0  0  0  0  0  0  0  0  0  0
  152.2078  138.3687  157.6634 H   0  0  0  0  0  0  0  0  0  0  0  0
  151.3967  138.8378  159.1302 H   0  0  0  0  0  0  0  0  0  0  0  0
  152.0814  139.1132  155.4287 H   0  0  0  0  0  0  0  0  0  0  0  0
  150.4468  138.9213  156.0470 H   0  0  0  0  0  0  0  0  0  0  0  0
  149.8298  139.6674  154.2215 H   0  0  0  0  0  0  0  0  0  0  0  0
  151.2106  144.7256  157.2863 H   0  0  0  0  0  0  0  0  0  0  0  0
  151.9436  145.3927  159.5646 H   0  0  0  0  0  0  0  0  0  0  0  0
  152.6905  143.6736  161.1983 H   0  0  0  0  0  0  0  0  0  0  0  0
  152.7114  141.2659  160.5536 H   0  0  0  0  0  0  0  0  0  0  0  0
  1  2  1  0  0  0  0
  1 25  1  0  0  0  0
  1 26  1  0  0  0  0
  1 27  1  0  0  0  0
  2  8  1  0  0  0  0
  2  3  2  0  0  0  0
  3  4  1  0  0  0  0
  3 28  1  0  0  0  0
  4  5  2  0  0  0  0
  4 29  1  0  0  0  0
  5  6  1  0  0  0  0
  5 30  1  0  0  0  0
  6  7  1  0  0  0  0
  6  8  2  0  0  0  0
  7 31  1  0  0  0  0
  7 32  1  0  0  0  0
  7 33  1  0  0  0  0
  8  9  1  0  0  0  0
  9 10  1  0  0  0  0
 10 11  1  0  0  0  0
 10 34  1  0  0  0  0
 10 35  1  0  0  0  0
 11 12  1  0  0  0  0
 11 13  1  0  0  0  0
 11 36  1  0  0  0  0
 12 37  1  0  0  0  0
 13 14  1  0  0  0  0
 13 38  1  0  0  0  0
 13 39  1  0  0  0  0
 14 24  1  0  0  0  0
 14 15  1  0  0  0  0
 15 16  1  0  0  0  0
 15 18  2  0  0  0  0
 16 17  1  0  0  0  0
 16 40  1  0  0  0  0
 16 41  1  0  0  0  0
 17 42  1  0  0  0  0
 18 19  1  0  0  0  0
 19 24  2  0  0  0  0
 19 20  1  0  0  0  0
 20 21  2  0  0  0  0
 20 43  1  0  0  0  0
 21 22  1  0  0  0  0
 21 44  1  0  0  0  0
 22 23  2  0  0  0  0
 22 45  1  0  0  0  0
 23 24  1  0  0  0  0
 23 46  1  0  0  0  0
M  END
> <s_m_source_file>
AV-unprocessed.smi

> <i_m_source_file_index>
2178

> <i_lp_mmshare_version>
43012

> <i_f3d_flags>
0

> <s_epik_input>
W0NIM11jMVtjSF1bY0hdW2NIXWMoW0NIM10pYzFPW0NIMl1bQ0BIXShbT0hdKVtDSDJdbihjKG4yKVtDSDJdW09IXSljKGMyMylbY0hdW2NIXVtjSF1bY0hdMw==

> <s_epik_cmdline>
J2VwaWtfcHl0aG9uJywgJy1waCcsICc3LjAnLCAnLXRuJywgJzgnLCAnLW1hJywgJzIwMCcsICctbWV0YWxfYmluZGluZycsICctaW1hZScsICc8aW5maWxlLm1hZT4nLCAnLW9tYWUnLCAnPG91dGZpbGUubWFlPic=

> <r_lp_tautomer_probability>
1

> <r_epik_Ionization_Penalty>
0.0555874

> <r_epik_Ionization_Penalty_Charging>
0

> <r_epik_Ionization_Penalty_Neutral>
0.0555874

> <r_epik_State_Penalty>
0.0478234

> <r_epik_Charging_Adjusted_Penalty>
0.0478234

> <i_epik_Tot_Q>
0

> <i_epik_Tot_abs_Q>
0

> <r_epik_Metal_State_Penalty>
4.98044e-05

> <b_epik_Metal_Only>
0

> <s_lp_Force_Field>
OPLS_2005

> <r_lp_Energy>
18.9383

> <b_lp_Chiralities_Consistent>
1

> <s_lp_Variant>
AV-unprocessed.smi:2178-2

> <Gold.Version>
5.8.1

> <Gold.Id.Protein>
6NUR|6NUR_protein|mol2

> <Gold.PLP.Fitness>
51.1660

> <Gold.PLP.PLP>
-46.6356

> <Gold.PLP.part.hbond>
-1.8126

> <Gold.PLP.part.metal>
0.0000

> <Gold.PLP.part.buried>
-4.0033

> <Gold.PLP.part.nonpolar>
-41.5089

> <Gold.PLP.part.repulsive>
0.0765

> <Gold.PLP.ligand.clash>
0.0000

> <Gold.PLP.ligand.torsion>
0.7604

> <Gold.PLP.Chemscore.Hbond>
1.9588

> <Gold.PLP.Chemscore.CHOScore>
0.0000

> <Gold.PLP.Chemscore.Metal>
0.0000

> <Gold.Chemscore.Hbonds>
donor molecule, donor type, donor heavy atom, donor atom, acceptor molecule, acceptor atom, score
      P1  H  7989  7998       L1    17  1.00
      P1  H  7997  8009       L1    12  0.85

> <Gold.PLP.Chemscore.Internal.Correction>
0.1750

> <Gold.Rescore>
     Score         DG    S(hbond)    S(metal)    S(lipo)     H(rot)  DE(clash)    DE(int)     intcor
     17.33     -18.86       1.56        0.00     134.46       2.96       0.03       1.50       ----

> <Gold.Chemscore.Fitness>
17.3336

> <Gold.Chemscore.DG>
-18.8623

> <Gold.Chemscore.ZeroCoef>
-5.4800

> <Gold.Chemscore.Hbond>
1.5622

> <Gold.Chemscore.Metal>
0.0000

> <Gold.Chemscore.Lipo>
134.4620

> <Gold.Chemscore.Internal_Hbond>
0.0000

> <Gold.Chemscore.DEClash>
0.0296

> <Gold.Chemscore.DEInternal>
1.4990

> <Gold.Chemscore.Rot>
2.9561

> <Gold.Chemscore.Internal.Correction>
   9.000000E+99

> <Gold.Chemscore.Hbonds>
donor molecule, donor type, donor heavy atom, donor atom, acceptor molecule, acceptor atom, score
      P1  H  7989  7998       L1    17  0.89
      P1  H  7997  8009       L1    12  0.14

> <Gold.Chemscore.Hbond.Weighted>
-5.2179

> <Gold.Chemscore.Metal.Weighted>
-0.0000

> <Gold.Chemscore.Lipo.Weighted>
-15.7321

> <Gold.Chemscore.Internal_Hbond.Weighted>
0.0000

> <Gold.Chemscore.DEClash.Weighted>
0.0296

> <Gold.Chemscore.DEInternal.Weighted>
1.4990

> <Gold.Chemscore.Rot.Weighted>
7.5677

> <Gold.Chemscore.Internal.Correction.Weighted>
   9.000000E+99

> <Gold.Protein.RotatedTorsions>
[ 6907 6896 6895 6894 ] final    8.85 input  -60.11 | X-H torsion
[ 7974 7965 7964 7962 ] final  -38.35 input  175.53 | X-H torsion
[ 8008 7997 7996 7995 ] final  123.94 input   59.86 | X-H torsion
[ 10167 10162 10161 10158 ] final -114.28 input  -65.29 | X-H torsion
[ 10718 10713 10712 10709 ] final   -6.63 input   66.30 | X-H torsion
[ 10763 10752 10751 10750 ] final  132.76 input  -60.55 | X-H torsion
[ 11005 11000 10999 10996 ] final   80.95 input  -57.11 | X-H torsion

> <Gold.Protein.ActiveResidues>
 VAL166  LYS551  ARG553  GLY616  TRP617  ASP618  TYR619  PRO620  LYS621  CYS622 
 ASP623  PHE694  ASN695  SER759  ASP760  ASP761  ALA762  ILE779  LEU786  VAL792 
 PHE793  MET794  SER795  GLU796  ALA797  LYS798  CYS799  TRP800  GLU811  SER814 

> <Gold.Protein.RotatedAtoms>
  151.7126  135.0910  160.0270 H   0  0  0  0  0  0  0  0  0  0  0  0  # atno 6907 bound_to 6896
  152.3652  133.6343  159.6053 H   0  0  0  0  0  0  0  0  0  0  0  0  # atno 6908 bound_to 6896
  150.7633  133.9276  159.3458 H   0  0  0  0  0  0  0  0  0  0  0  0  # atno 6909 bound_to 6896
  146.0494  140.6502  142.9049 H   0  0  0  0  0  0  0  0  0  0  0  0  # atno 7974 bound_to 7965
  156.2784  140.2751  156.1707 H   0  0  0  0  0  0  0  0  0  0  0  0  # atno 8008 bound_to 7997
  155.0657  140.0387  157.2609 H   0  0  0  0  0  0  0  0  0  0  0  0  # atno 8009 bound_to 7997
  154.7081  140.2663  155.6661 H   0  0  0  0  0  0  0  0  0  0  0  0  # atno 8010 bound_to 7997
  140.1027  143.4598  152.1802 H   0  0  0  0  0  0  0  0  0  0  0  0  # atno 10167 bound_to 10162
  156.7290  130.5174  149.5850 H   0  0  0  0  0  0  0  0  0  0  0  0  # atno 10718 bound_to 10713
  153.7959  135.3148  155.3384 H   0  0  0  0  0  0  0  0  0  0  0  0  # atno 10763 bound_to 10752
  154.8107  135.4669  154.0513 H   0  0  0  0  0  0  0  0  0  0  0  0  # atno 10764 bound_to 10752
  153.1846  135.6899  153.8519 H   0  0  0  0  0  0  0  0  0  0  0  0  # atno 10765 bound_to 10752
  139.9115  134.7960  156.1977 H   0  0  0  0  0  0  0  0  0  0  0  0  # atno 11005 bound_to 11000
  144.7115  140.4054  143.7077 LP  0  0  0  0  0  0  0  0  0  0  0  0  # atno 17320 bound_to 7965
  145.6750  139.1607  143.2733 LP  0  0  0  0  0  0  0  0  0  0  0  0  # atno 17321 bound_to 7965
  139.5662  144.7436  151.4015 LP  0  0  0  0  0  0  0  0  0  0  0  0  # atno 17342 bound_to 10162
  140.6969  143.7727  150.7341 LP  0  0  0  0  0  0  0  0  0  0  0  0  # atno 17343 bound_to 10162
  156.1542  130.6330  151.0635 LP  0  0  0  0  0  0  0  0  0  0  0  0  # atno 17370 bound_to 10713
  157.6866  131.0823  150.7224 LP  0  0  0  0  0  0  0  0  0  0  0  0  # atno 17371 bound_to 10713
  141.0544  133.6872  156.1833 LP  0  0  0  0  0  0  0  0  0  0  0  0  # atno 17394 bound_to 11000
  140.6760  134.4818  157.5588 LP  0  0  0  0  0  0  0  0  0  0  0  0  # atno 17395 bound_to 11000

$$$$
