AV-unprocessed.smi:212|AV-procd|sdf|1631|dock9
  -GOLD-   2262019583D 1   1.00000     0.00000
 Structure written by MMmdl.
 65 68  0  0  0  0  0  0  0  0  2 V2000
  150.6232  130.9448  154.8237 C   0  0  0  0  0  0  0  0  0  0  0  0
  149.5048  131.9030  155.2676 C   0  0  2  0  0  0  0  0  0  0  0  0
  148.1016  131.3548  154.9343 C   0  0  0  0  0  0  0  0  0  0  0  0
  147.8236  131.4139  153.4748 N   0  3  1  0  0  0  0  0  0  0  0  0
  146.5356  130.7763  153.0945 C   0  0  0  0  0  0  0  0  0  0  0  0
  146.7146  129.3154  152.6185 C   0  0  0  0  0  0  0  0  0  0  0  0
  146.6904  128.3590  153.8227 C   0  0  0  0  0  0  0  0  0  0  0  0
  145.6465  128.9026  151.5891 C   0  0  0  0  0  0  0  0  0  0  0  0
  147.9869  129.1751  152.0181 O   0  0  0  0  0  0  0  0  0  0  0  0
  147.9825  132.7860  152.9310 C   0  0  0  0  0  0  0  0  0  0  0  0
  149.3764  133.3519  153.2598 C   0  0  0  0  0  0  0  0  0  0  0  0
  149.6744  133.2385  154.6889 N   0  0  0  0  0  0  0  0  0  0  0  0
  149.3730  134.2835  155.5047 C   0  0  0  0  0  0  0  0  0  0  0  0
  148.3954  134.1542  156.4412 N   0  0  0  0  0  0  0  0  0  0  0  0
  148.1004  135.1708  157.2566 C   0  0  0  0  0  0  0  0  0  0  0  0
  148.6480  136.3861  157.3063 N   0  0  0  0  0  0  0  0  0  0  0  0
  149.6234  136.5267  156.3640 C   0  0  0  0  0  0  0  0  0  0  0  0
  150.0444  135.5370  155.4312 C   0  0  0  0  0  0  0  0  0  0  0  0
  151.0516  136.0494  154.6211 N   0  0  0  0  0  0  0  0  0  0  0  0
  151.2196  137.2696  155.0533 C   0  0  0  0  0  0  0  0  0  0  0  0
  150.4013  137.6391  156.0962 N   0  0  0  0  0  0  0  0  0  0  0  0
  150.3746  138.9294  156.7612 C   0  0  0  0  0  0  0  0  0  0  0  0
  150.5215  140.1347  155.7913 C   0  0  1  0  0  0  0  0  0  0  0  0
  149.3600  140.2566  154.7740 C   0  0  0  0  0  0  0  0  0  0  0  0
  149.6374  141.2021  153.7613 O   0  0  0  0  0  0  0  0  0  0  0  0
  150.7314  141.4883  156.5212 C   0  0  1  0  0  0  0  0  0  0  0  0
  149.5812  141.9863  157.3947 C   0  0  0  0  0  0  0  0  0  0  0  0
  150.2796  142.7033  158.5556 C   0  0  0  0  0  0  0  0  0  0  0  0
  151.6532  142.7598  158.1945 O   0  0  0  0  0  0  0  0  0  0  0  0
  151.9409  141.5871  157.4525 C   0  0  0  0  0  0  0  0  0  0  0  0
  150.5201  129.9752  155.3112 H   0  0  0  0  0  0  0  0  0  0  0  0
  151.6030  131.3422  155.0902 H   0  0  0  0  0  0  0  0  0  0  0  0
  150.6147  130.7726  153.7474 H   0  0  0  0  0  0  0  0  0  0  0  0
  149.5648  131.9612  156.3540 H   0  0  0  0  0  0  0  0  0  0  0  0
  148.0068  130.3323  155.2998 H   0  0  0  0  0  0  0  0  0  0  0  0
  147.3473  131.9429  155.4600 H   0  0  0  0  0  0  0  0  0  0  0  0
  145.8301  130.8286  153.9257 H   0  0  0  0  0  0  0  0  0  0  0  0
  146.0704  131.3429  152.2859 H   0  0  0  0  0  0  0  0  0  0  0  0
  145.7330  128.4037  154.3433 H   0  0  0  0  0  0  0  0  0  0  0  0
  147.4684  128.6079  154.5456 H   0  0  0  0  0  0  0  0  0  0  0  0
  146.8474  127.3244  153.5147 H   0  0  0  0  0  0  0  0  0  0  0  0
  144.6428  129.0042  152.0026 H   0  0  0  0  0  0  0  0  0  0  0  0
  145.7710  127.8629  151.2835 H   0  0  0  0  0  0  0  0  0  0  0  0
  145.6944  129.5122  150.6860 H   0  0  0  0  0  0  0  0  0  0  0  0
  148.2375  130.0066  151.6442 H   0  0  0  0  0  0  0  0  0  0  0  0
  147.8451  132.7726  151.8491 H   0  0  0  0  0  0  0  0  0  0  0  0
  147.2030  133.4284  153.3427 H   0  0  0  0  0  0  0  0  0  0  0  0
  150.1355  132.7993  152.7062 H   0  0  0  0  0  0  0  0  0  0  0  0
  149.4602  134.3855  152.9215 H   0  0  0  0  0  0  0  0  0  0  0  0
  147.3131  134.9838  157.9721 H   0  0  0  0  0  0  0  0  0  0  0  0
  151.9443  137.9415  154.6167 H   0  0  0  0  0  0  0  0  0  0  0  0
  149.4470  138.9963  157.3284 H   0  0  0  0  0  0  0  0  0  0  0  0
  151.1801  138.9245  157.4940 H   0  0  0  0  0  0  0  0  0  0  0  0
  151.4330  139.9697  155.2142 H   0  0  0  0  0  0  0  0  0  0  0  0
  149.1349  139.2900  154.3223 H   0  0  0  0  0  0  0  0  0  0  0  0
  148.4487  140.5907  155.2709 H   0  0  0  0  0  0  0  0  0  0  0  0
  149.3048  140.8701  152.9413 H   0  0  0  0  0  0  0  0  0  0  0  0
  150.8916  142.2493  155.7552 H   0  0  0  0  0  0  0  0  0  0  0  0
  148.9383  142.6652  156.8334 H   0  0  0  0  0  0  0  0  0  0  0  0
  148.9519  141.1829  157.7749 H   0  0  0  0  0  0  0  0  0  0  0  0
  149.8797  143.7020  158.7323 H   0  0  0  0  0  0  0  0  0  0  0  0
  150.1758  142.1279  159.4766 H   0  0  0  0  0  0  0  0  0  0  0  0
  152.0142  140.7476  158.1433 H   0  0  0  0  0  0  0  0  0  0  0  0
  152.8835  141.6746  156.9118 H   0  0  0  0  0  0  0  0  0  0  0  0
  148.5424  130.8604  153.0309 H   0  0  0  0  0  0  0  0  0  0  0  0
  1  2  1  0  0  0  0
  1 31  1  0  0  0  0
  1 32  1  0  0  0  0
  1 33  1  0  0  0  0
  2 12  1  0  0  0  0
  2  3  1  0  0  0  0
  2 34  1  0  0  0  0
  3  4  1  0  0  0  0
  3 35  1  0  0  0  0
  3 36  1  0  0  0  0
  4  5  1  0  0  0  0
  4 10  1  0  0  0  0
  4 65  1  0  0  0  0
  5  6  1  0  0  0  0
  5 37  1  0  0  0  0
  5 38  1  0  0  0  0
  6  7  1  0  0  0  0
  6  8  1  0  0  0  0
  6  9  1  0  0  0  0
  7 39  1  0  0  0  0
  7 40  1  0  0  0  0
  7 41  1  0  0  0  0
  8 42  1  0  0  0  0
  8 43  1  0  0  0  0
  8 44  1  0  0  0  0
  9 45  1  0  0  0  0
 10 11  1  0  0  0  0
 10 46  1  0  0  0  0
 10 47  1  0  0  0  0
 11 12  1  0  0  0  0
 11 48  1  0  0  0  0
 11 49  1  0  0  0  0
 12 13  1  0  0  0  0
 13 18  1  0  0  0  0
 13 14  2  0  0  0  0
 14 15  1  0  0  0  0
 15 16  2  0  0  0  0
 15 50  1  0  0  0  0
 16 17  1  0  0  0  0
 17 21  1  0  0  0  0
 17 18  2  0  0  0  0
 18 19  1  0  0  0  0
 19 20  2  0  0  0  0
 20 21  1  0  0  0  0
 20 51  1  0  0  0  0
 21 22  1  0  0  0  0
 22 23  1  0  0  0  0
 22 52  1  0  0  0  0
 22 53  1  0  0  0  0
 23 24  1  0  0  0  0
 23 26  1  0  0  0  0
 23 54  1  0  0  0  0
 24 25  1  0  0  0  0
 24 55  1  0  0  0  0
 24 56  1  0  0  0  0
 25 57  1  0  0  0  0
 26 30  1  0  0  0  0
 26 27  1  0  0  0  0
 26 58  1  0  0  0  0
 27 28  1  0  0  0  0
 27 59  1  0  0  0  0
 27 60  1  0  0  0  0
 28 29  1  0  0  0  0
 28 61  1  0  0  0  0
 28 62  1  0  0  0  0
 29 30  1  0  0  0  0
 30 63  1  0  0  0  0
 30 64  1  0  0  0  0
M  CHG  1   4   1
M  END
> <s_m_source_file>
AV-unprocessed.smi

> <i_m_source_file_index>
212

> <i_lp_mmshare_version>
43012

> <i_f3d_flags>
0

> <s_epik_input>
W0NIM11bQ0BASF0xW0NIMl1OKFtDSDJdQyhbQ0gzXSkoW0NIM10pW09IXSlbQ0gyXVtDSDJdTjFjKG5bY0hdbjIpYyhjMjMpbltjSF1uM1tDSDJdW0NASF0oW0NIMl1bT0hdKVtDQEBIXTRbQ0gyXVtDSDJdT1tDSDJdNA==

> <s_epik_cmdline>
J2VwaWtfcHl0aG9uJywgJy1waCcsICc3LjAnLCAnLXRuJywgJzgnLCAnLW1hJywgJzIwMCcsICctbWV0YWxfYmluZGluZycsICctaW1hZScsICc8aW5maWxlLm1hZT4nLCAnLW9tYWUnLCAnPG91dGZpbGUubWFlPic=

> <r_lp_tautomer_probability>
1

> <r_epik_Ionization_Penalty>
0.00182193

> <r_epik_Ionization_Penalty_Charging>
0.00173996

> <r_epik_Ionization_Penalty_Neutral>
8.19718e-05

> <r_epik_State_Penalty>
-0

> <r_epik_Charging_Adjusted_Penalty>
0.00173996

> <i_epik_Tot_Q>
1

> <i_epik_Tot_abs_Q>
1

> <r_epik_Metal_State_Penalty>
-0

> <b_epik_Metal_Only>
0

> <s_lp_Force_Field>
OPLS_2005

> <r_lp_Energy>
59.1595

> <b_lp_Chiralities_Consistent>
1

> <s_lp_Variant>
AV-unprocessed.smi:212-15

> <Gold.Version>
5.8.1

> <Gold.Id.Protein>
6NUR|6NUR_protein|mol2

> <Gold.PLP.Fitness>
48.3011

> <Gold.PLP.PLP>
-42.4787

> <Gold.PLP.part.hbond>
-5.0000

> <Gold.PLP.part.metal>
0.0000

> <Gold.PLP.part.buried>
-6.5222

> <Gold.PLP.part.nonpolar>
-29.6485

> <Gold.PLP.part.repulsive>
0.2217

> <Gold.PLP.ligand.clash>
0.0000

> <Gold.PLP.ligand.torsion>
2.2975

> <Gold.PLP.Chemscore.Hbond>
3.1135

> <Gold.PLP.Chemscore.CHOScore>
0.0000

> <Gold.PLP.Chemscore.Metal>
0.0000

> <Gold.Chemscore.Hbonds>
donor molecule, donor type, donor heavy atom, donor atom, acceptor molecule, acceptor atom, score
      L1  H     9    45       P1 10747  0.91
      L1  H    25    57       P1  7957  1.00
      P1  H  7989  7998       L1    25  0.26
      P1  H 10752 10765       L1    19  0.90

> <Gold.PLP.Chemscore.Internal.Correction>
1.0771

> <Gold.Rescore>
     Score         DG    S(hbond)    S(metal)    S(lipo)     H(rot)  DE(clash)    DE(int)     intcor
     11.60     -15.20       1.94        0.00     101.94       3.40       1.24       2.35       ----

> <Gold.Chemscore.Fitness>
11.6022

> <Gold.Chemscore.DG>
-15.1978

> <Gold.Chemscore.ZeroCoef>
-5.4800

> <Gold.Chemscore.Hbond>
1.9436

> <Gold.Chemscore.Metal>
0.0000

> <Gold.Chemscore.Lipo>
101.9382

> <Gold.Chemscore.Internal_Hbond>
0.0000

> <Gold.Chemscore.DEClash>
1.2406

> <Gold.Chemscore.DEInternal>
2.3550

> <Gold.Chemscore.Rot>
3.3986

> <Gold.Chemscore.Internal.Correction>
   9.000000E+99

> <Gold.Chemscore.Hbonds>
donor molecule, donor type, donor heavy atom, donor atom, acceptor molecule, acceptor atom, score
      L1  H     9    45       P1 10747  0.75
      L1  H    25    57       P1  7957  0.92
      P1  H  7989  7998       L1    25  0.02
      P1  H 10752 10765       L1    19  0.17

> <Gold.Chemscore.Hbond.Weighted>
-6.4915

> <Gold.Chemscore.Metal.Weighted>
-0.0000

> <Gold.Chemscore.Lipo.Weighted>
-11.9268

> <Gold.Chemscore.Internal_Hbond.Weighted>
0.0000

> <Gold.Chemscore.DEClash.Weighted>
1.2406

> <Gold.Chemscore.DEInternal.Weighted>
2.3550

> <Gold.Chemscore.Rot.Weighted>
8.7005

> <Gold.Chemscore.Internal.Correction.Weighted>
   9.000000E+99

> <Gold.Protein.RotatedTorsions>
[ 6907 6896 6895 6894 ] final -137.24 input  -60.11 | X-H torsion
[ 7974 7965 7964 7962 ] final  132.60 input  175.53 | X-H torsion
[ 8008 7997 7996 7995 ] final -177.86 input   59.86 | X-H torsion
[ 10167 10162 10161 10158 ] final   72.79 input  -65.29 | X-H torsion
[ 10718 10713 10712 10709 ] final   -5.57 input   66.30 | X-H torsion
[ 10763 10752 10751 10750 ] final  155.32 input  -60.55 | X-H torsion
[ 11005 11000 10999 10996 ] final   50.10 input  -57.11 | X-H torsion

> <Gold.Protein.ActiveResidues>
 VAL166  LYS551  ARG553  GLY616  TRP617  ASP618  TYR619  PRO620  LYS621  CYS622 
 ASP623  PHE694  ASN695  SER759  ASP760  ASP761  ALA762  ILE779  LEU786  VAL792 
 PHE793  MET794  SER795  GLU796  ALA797  LYS798  CYS799  TRP800  GLU811  SER814 

> <Gold.Protein.RotatedAtoms>
  151.0200  133.5886  159.2672 H   0  0  0  0  0  0  0  0  0  0  0  0  # atno 6907 bound_to 6896
  151.3006  135.0766  159.9247 H   0  0  0  0  0  0  0  0  0  0  0  0  # atno 6908 bound_to 6896
  152.5320  133.9882  159.7892 H   0  0  0  0  0  0  0  0  0  0  0  0  # atno 6909 bound_to 6896
  144.9951  139.4367  143.5320 H   0  0  0  0  0  0  0  0  0  0  0  0  # atno 7974 bound_to 7965
  156.0120  140.1242  157.0444 H   0  0  0  0  0  0  0  0  0  0  0  0  # atno 8008 bound_to 7997
  154.4279  140.1086  156.5912 H   0  0  0  0  0  0  0  0  0  0  0  0  # atno 8009 bound_to 7997
  155.6066  140.3471  155.4612 H   0  0  0  0  0  0  0  0  0  0  0  0  # atno 8010 bound_to 7997
  140.0315  144.5462  150.7504 H   0  0  0  0  0  0  0  0  0  0  0  0  # atno 10167 bound_to 10162
  156.7446  130.5220  149.5817 H   0  0  0  0  0  0  0  0  0  0  0  0  # atno 10718 bound_to 10713
  154.1665  135.2807  155.3093 H   0  0  0  0  0  0  0  0  0  0  0  0  # atno 10763 bound_to 10752
  154.6107  135.5499  153.7474 H   0  0  0  0  0  0  0  0  0  0  0  0  # atno 10764 bound_to 10752
  153.0177  135.6415  154.1806 H   0  0  0  0  0  0  0  0  0  0  0  0  # atno 10765 bound_to 10752
  140.1046  134.5035  155.8731 H   0  0  0  0  0  0  0  0  0  0  0  0  # atno 11005 bound_to 11000
  146.3440  139.9306  142.8754 LP  0  0  0  0  0  0  0  0  0  0  0  0  # atno 17320 bound_to 7965
  145.2231  140.9943  143.4034 LP  0  0  0  0  0  0  0  0  0  0  0  0  # atno 17321 bound_to 7965
  140.7300  143.2678  151.3985 LP  0  0  0  0  0  0  0  0  0  0  0  0  # atno 17342 bound_to 10162
  139.6073  144.1170  152.2262 LP  0  0  0  0  0  0  0  0  0  0  0  0  # atno 17343 bound_to 10162
  156.1442  130.6265  151.0508 LP  0  0  0  0  0  0  0  0  0  0  0  0  # atno 17370 bound_to 10713
  157.6804  131.0839  150.7385 LP  0  0  0  0  0  0  0  0  0  0  0  0  # atno 17371 bound_to 10713
  141.2115  133.6707  156.6586 LP  0  0  0  0  0  0  0  0  0  0  0  0  # atno 17394 bound_to 11000
  140.3173  134.8037  157.4224 LP  0  0  0  0  0  0  0  0  0  0  0  0  # atno 17395 bound_to 11000

$$$$
