AV-unprocessed.smi:372|AV-procd|sdf|2448|dock7
  -GOLD-   2262022383D 1   1.00000     0.00000
 Structure written by MMmdl.
 22 23  0  0  0  0  0  0  0  0  2 V2000
  150.7279  141.3131  156.0495 C   0  0  0  0  0  0  0  0  0  0  0  0
  151.5161  140.3960  157.0074 C   0  0  2  0  0  0  0  0  0  0  0  0
  152.1296  141.2121  158.1658 C   0  0  0  0  0  0  0  0  0  0  0  0
  151.9155  142.6075  158.3031 C   0  0  0  0  0  0  0  0  0  0  0  0
  152.4938  143.2850  159.3933 C   0  0  0  0  0  0  0  0  0  0  0  0
  153.2632  142.5555  160.3176 C   0  0  0  0  0  0  0  0  0  0  0  0
  153.4179  141.1727  160.1084 C   0  0  0  0  0  0  0  0  0  0  0  0
  152.8670  140.5151  159.0670 N   0  0  0  0  0  0  0  0  0  0  0  0
  152.5008  139.6458  156.2337 N   0  5  0  0  0  0  0  0  0  0  0  0
  152.2565  138.3215  156.3635 C   0  0  0  0  0  0  0  0  0  0  0  0
  152.8899  137.3882  155.8762 O   0  0  0  0  0  0  0  0  0  0  0  0
  151.1770  138.1154  157.1214 N   0  0  0  0  0  0  0  0  0  0  0  0
  150.6380  139.2588  157.5319 C   0  0  0  0  0  0  0  0  0  0  0  0
  149.6078  139.3887  158.1935 O   0  0  0  0  0  0  0  0  0  0  0  0
  149.9282  141.8431  156.5681 H   0  0  0  0  0  0  0  0  0  0  0  0
  150.2689  140.7501  155.2353 H   0  0  0  0  0  0  0  0  0  0  0  0
  151.3801  142.0638  155.6019 H   0  0  0  0  0  0  0  0  0  0  0  0
  151.3194  143.1638  157.5954 H   0  0  0  0  0  0  0  0  0  0  0  0
  152.3473  144.3475  159.5185 H   0  0  0  0  0  0  0  0  0  0  0  0
  153.7210  143.0426  161.1655 H   0  0  0  0  0  0  0  0  0  0  0  0
  153.9994  140.5774  160.7968 H   0  0  0  0  0  0  0  0  0  0  0  0
  150.8019  137.2033  157.3338 H   0  0  0  0  0  0  0  0  0  0  0  0
  1  2  1  0  0  0  0
  1 15  1  0  0  0  0
  1 16  1  0  0  0  0
  1 17  1  0  0  0  0
  2 13  1  0  0  0  0
  2  3  1  0  0  0  0
  2  9  1  0  0  0  0
  3  8  1  0  0  0  0
  3  4  2  0  0  0  0
  4  5  1  0  0  0  0
  4 18  1  0  0  0  0
  5  6  2  0  0  0  0
  5 19  1  0  0  0  0
  6  7  1  0  0  0  0
  6 20  1  0  0  0  0
  7  8  2  0  0  0  0
  7 21  1  0  0  0  0
  9 10  1  0  0  0  0
 10 11  2  0  0  0  0
 10 12  1  0  0  0  0
 12 13  1  0  0  0  0
 12 22  1  0  0  0  0
 13 14  2  0  0  0  0
M  CHG  1   9  -1
M  END
> <s_m_source_file>
AV-unprocessed.smi

> <i_m_source_file_index>
372

> <i_lp_mmshare_version>
43012

> <i_f3d_flags>
0

> <s_epik_input>
Tz1DMVtOSF1DKD1PKVtOSF1bQ0BAXTEoW0NIM10pYzJbY0hdW2NIXVtjSF1bY0hdbjI=

> <s_epik_cmdline>
J2VwaWtfcHl0aG9uJywgJy1waCcsICc3LjAnLCAnLXRuJywgJzgnLCAnLW1hJywgJzIwMCcsICctbWV0YWxfYmluZGluZycsICctaW1hZScsICc8aW5maWxlLm1hZT4nLCAnLW9tYWUnLCAnPG91dGZpbGUubWFlPic=

> <r_lp_tautomer_probability>
1

> <r_epik_Ionization_Penalty>
4.88994

> <r_epik_Ionization_Penalty_Charging>
4.8337

> <r_epik_Ionization_Penalty_Neutral>
0.0562367

> <r_epik_State_Penalty>
4.86848

> <r_epik_Charging_Adjusted_Penalty>
9.70218

> <i_epik_Tot_Q>
-1

> <i_epik_Tot_abs_Q>
1

> <r_epik_Metal_State_Penalty>
1.42536

> <b_epik_Metal_Only>
1

> <s_lp_Force_Field>
OPLS_2005

> <r_lp_Energy>
15.0122

> <b_lp_Chiralities_Consistent>
1

> <s_lp_Variant>
AV-unprocessed.smi:372-6

> <Gold.Version>
5.8.1

> <Gold.Id.Protein>
6NUR|6NUR_protein|mol2

> <Gold.PLP.Fitness>
32.4915

> <Gold.PLP.PLP>
-24.9962

> <Gold.PLP.part.hbond>
-2.0000

> <Gold.PLP.part.metal>
0.0000

> <Gold.PLP.part.buried>
-3.9100

> <Gold.PLP.part.nonpolar>
-19.3750

> <Gold.PLP.part.repulsive>
0.0198

> <Gold.PLP.ligand.clash>
0.0000

> <Gold.PLP.ligand.torsion>
0.0299

> <Gold.PLP.Chemscore.Hbond>
2.5005

> <Gold.PLP.Chemscore.CHOScore>
0.0000

> <Gold.PLP.Chemscore.Metal>
0.0000

> <Gold.Chemscore.Hbonds>
donor molecule, donor type, donor heavy atom, donor atom, acceptor molecule, acceptor atom, score
      P1  H  7997  8010       L1     9  2.00
      P1  H 10752 10764       L1    11  0.50

> <Gold.PLP.Chemscore.Internal.Correction>
0.0536

> <Gold.Rescore>
     Score         DG    S(hbond)    S(metal)    S(lipo)     H(rot)  DE(clash)    DE(int)     intcor
     15.70     -15.74       1.61        0.00      63.78       1.00       0.00       0.05       ----

> <Gold.Chemscore.Fitness>
15.6978

> <Gold.Chemscore.DG>
-15.7448

> <Gold.Chemscore.ZeroCoef>
-5.4800

> <Gold.Chemscore.Hbond>
1.6056

> <Gold.Chemscore.Metal>
0.0000

> <Gold.Chemscore.Lipo>
63.7778

> <Gold.Chemscore.Internal_Hbond>
0.0000

> <Gold.Chemscore.DEClash>
0.0015

> <Gold.Chemscore.DEInternal>
0.0455

> <Gold.Chemscore.Rot>
1.0000

> <Gold.Chemscore.Internal.Correction>
   9.000000E+99

> <Gold.Chemscore.Hbonds>
donor molecule, donor type, donor heavy atom, donor atom, acceptor molecule, acceptor atom, score
      P1  H  7997  8010       L1     9  0.89
      P1  H 10752 10764       L1    11  0.48

> <Gold.Chemscore.Hbond.Weighted>
-5.3628

> <Gold.Chemscore.Metal.Weighted>
-0.0000

> <Gold.Chemscore.Lipo.Weighted>
-7.4620

> <Gold.Chemscore.Internal_Hbond.Weighted>
0.0000

> <Gold.Chemscore.DEClash.Weighted>
0.0015

> <Gold.Chemscore.DEInternal.Weighted>
0.0455

> <Gold.Chemscore.Rot.Weighted>
2.5600

> <Gold.Chemscore.Internal.Correction.Weighted>
   9.000000E+99

> <Gold.Protein.RotatedTorsions>
[ 6907 6896 6895 6894 ] final  164.70 input  -60.11 | X-H torsion
[ 7974 7965 7964 7962 ] final  -17.80 input  175.53 | X-H torsion
[ 8008 7997 7996 7995 ] final   82.95 input   59.86 | X-H torsion
[ 10167 10162 10161 10158 ] final   50.35 input  -65.29 | X-H torsion
[ 10718 10713 10712 10709 ] final  -51.19 input   66.30 | X-H torsion
[ 10763 10752 10751 10750 ] final  -29.78 input  -60.55 | X-H torsion
[ 11005 11000 10999 10996 ] final   -7.38 input  -57.11 | X-H torsion

> <Gold.Protein.ActiveResidues>
 VAL166  LYS551  ARG553  GLY616  TRP617  ASP618  TYR619  PRO620  LYS621  CYS622 
 ASP623  PHE694  ASN695  SER759  ASP760  ASP761  ALA762  ILE779  LEU786  VAL792 
 PHE793  MET794  SER795  GLU796  ALA797  LYS798  CYS799  TRP800  GLU811  SER814 

> <Gold.Protein.RotatedAtoms>
  151.9057  133.3549  159.3845 H   0  0  0  0  0  0  0  0  0  0  0  0  # atno 6907 bound_to 6896
  150.7069  134.4783  159.5467 H   0  0  0  0  0  0  0  0  0  0  0  0  # atno 6908 bound_to 6896
  152.2379  134.8257  160.0515 H   0  0  0  0  0  0  0  0  0  0  0  0  # atno 6909 bound_to 6896
  146.1923  140.3830  142.8453 H   0  0  0  0  0  0  0  0  0  0  0  0  # atno 7974 bound_to 7965
  155.9174  140.3423  155.6146 H   0  0  0  0  0  0  0  0  0  0  0  0  # atno 8008 bound_to 7997
  155.7314  140.0796  157.2306 H   0  0  0  0  0  0  0  0  0  0  0  0  # atno 8009 bound_to 7997
  154.4064  140.1587  156.2501 H   0  0  0  0  0  0  0  0  0  0  0  0  # atno 8010 bound_to 7997
  140.2733  144.3240  150.6284 H   0  0  0  0  0  0  0  0  0  0  0  0  # atno 10167 bound_to 10162
  156.1732  130.4149  149.9616 H   0  0  0  0  0  0  0  0  0  0  0  0  # atno 10718 bound_to 10713
  153.7702  135.6913  153.4908 H   0  0  0  0  0  0  0  0  0  0  0  0  # atno 10763 bound_to 10752
  153.1879  135.4482  155.0111 H   0  0  0  0  0  0  0  0  0  0  0  0  # atno 10764 bound_to 10752
  154.8120  135.3382  154.7212 H   0  0  0  0  0  0  0  0  0  0  0  0  # atno 10765 bound_to 10752
  140.7122  133.8899  155.8759 H   0  0  0  0  0  0  0  0  0  0  0  0  # atno 11005 bound_to 11000
  144.8512  140.7003  143.6167 LP  0  0  0  0  0  0  0  0  0  0  0  0  # atno 17320 bound_to 7965
  145.3752  139.1649  143.4310 LP  0  0  0  0  0  0  0  0  0  0  0  0  # atno 17321 bound_to 7965
  140.5872  143.2169  151.7321 LP  0  0  0  0  0  0  0  0  0  0  0  0  # atno 17342 bound_to 10162
  139.4983  144.3994  152.0198 LP  0  0  0  0  0  0  0  0  0  0  0  0  # atno 17343 bound_to 10162
  156.7410  130.9079  151.3632 LP  0  0  0  0  0  0  0  0  0  0  0  0  # atno 17370 bound_to 10713
  157.6817  130.9146  150.0284 LP  0  0  0  0  0  0  0  0  0  0  0  0  # atno 17371 bound_to 10713
  141.0075  134.1066  157.4256 LP  0  0  0  0  0  0  0  0  0  0  0  0  # atno 17394 bound_to 11000
  139.8869  135.0085  156.6526 LP  0  0  0  0  0  0  0  0  0  0  0  0  # atno 17395 bound_to 11000

$$$$
