AV-unprocessed.smi:1998|AV-procd|sdf|8091|dock5
  -GOLD-   2272010313D 1   1.00000     0.00000
 Structure written by MMmdl.
 48 49  0  0  0  0  0  0  0  0  2 V2000
  154.1763  141.0968  161.0728 C   0  0  0  0  0  0  0  0  0  0  0  0
  153.3274  142.1285  160.3902 C   0  0  0  0  0  0  0  0  0  0  0  0
  152.9179  143.3992  160.8827 C   0  0  0  0  0  0  0  0  0  0  0  0
  152.1670  143.9275  159.8707 C   0  0  0  0  0  0  0  0  0  0  0  0
  151.4581  145.2385  159.7787 C   0  0  0  0  0  0  0  0  0  0  0  0
  152.1538  142.9924  158.8510 N   0  0  0  0  0  0  0  0  0  0  0  0
  151.4966  143.0591  157.5532 C   0  0  0  0  0  0  0  0  0  0  0  0
  150.5303  141.8926  157.3132 C   0  0  0  0  0  0  0  0  0  0  0  0
  150.8922  140.7244  157.4607 O   0  0  0  0  0  0  0  0  0  0  0  0
  149.2913  142.2334  156.9253 N   0  0  0  0  0  0  0  0  0  0  0  0
  148.2068  141.3026  156.6115 C   0  0  0  0  0  0  0  0  0  0  0  0
  147.7304  141.3615  155.1271 C   0  0  0  0  0  0  0  0  0  0  0  0
  148.9920  141.5107  154.2355 C   0  0  0  0  0  0  0  0  0  0  0  0
  147.0226  140.0441  154.7245 C   0  0  0  0  0  0  0  0  0  0  0  0
  146.8065  142.5457  154.9674 N   0  3  0  0  0  0  0  0  0  0  0  0
  146.2270  142.7544  153.6087 C   0  0  0  0  0  0  0  0  0  0  0  0
  145.4238  144.0661  153.5479 C   0  0  0  0  0  0  0  0  0  0  0  0
  144.4126  144.0689  154.5441 O   0  0  0  0  0  0  0  0  0  0  0  0
  144.9662  143.9792  155.8481 C   0  0  0  0  0  0  0  0  0  0  0  0
  145.7209  142.6479  155.9857 C   0  0  0  0  0  0  0  0  0  0  0  0
  152.8680  141.8915  159.1726 N   0  0  0  0  0  0  0  0  0  0  0  0
  154.5030  141.4420  162.0538 H   0  0  0  0  0  0  0  0  0  0  0  0
  155.0678  140.8709  160.4872 H   0  0  0  0  0  0  0  0  0  0  0  0
  153.6255  140.1667  161.2151 H   0  0  0  0  0  0  0  0  0  0  0  0
  153.1414  143.8540  161.8366 H   0  0  0  0  0  0  0  0  0  0  0  0
  151.5565  145.8001  160.7078 H   0  0  0  0  0  0  0  0  0  0  0  0
  150.3951  145.0940  159.5853 H   0  0  0  0  0  0  0  0  0  0  0  0
  151.8708  145.8469  158.9739 H   0  0  0  0  0  0  0  0  0  0  0  0
  150.9604  144.0062  157.4824 H   0  0  0  0  0  0  0  0  0  0  0  0
  152.2530  143.0630  156.7668 H   0  0  0  0  0  0  0  0  0  0  0  0
  149.0859  143.2173  156.8276 H   0  0  0  0  0  0  0  0  0  0  0  0
  148.5142  140.2981  156.8985 H   0  0  0  0  0  0  0  0  0  0  0  0
  147.3725  141.5482  157.2694 H   0  0  0  0  0  0  0  0  0  0  0  0
  149.7153  140.7145  154.4116 H   0  0  0  0  0  0  0  0  0  0  0  0
  149.5031  142.4563  154.4198 H   0  0  0  0  0  0  0  0  0  0  0  0
  148.7548  141.4534  153.1730 H   0  0  0  0  0  0  0  0  0  0  0  0
  147.7202  139.2063  154.7031 H   0  0  0  0  0  0  0  0  0  0  0  0
  146.5806  140.1102  153.7305 H   0  0  0  0  0  0  0  0  0  0  0  0
  146.2318  139.7736  155.4246 H   0  0  0  0  0  0  0  0  0  0  0  0
  147.0018  142.8274  152.8474 H   0  0  0  0  0  0  0  0  0  0  0  0
  145.5869  141.9122  153.3435 H   0  0  0  0  0  0  0  0  0  0  0  0
  146.0790  144.9290  153.6785 H   0  0  0  0  0  0  0  0  0  0  0  0
  144.9536  144.1719  152.5700 H   0  0  0  0  0  0  0  0  0  0  0  0
  145.6242  144.8275  156.0434 H   0  0  0  0  0  0  0  0  0  0  0  0
  144.1572  144.0293  156.5770 H   0  0  0  0  0  0  0  0  0  0  0  0
  145.0098  141.8305  155.8613 H   0  0  0  0  0  0  0  0  0  0  0  0
  146.1094  142.5780  156.9991 H   0  0  0  0  0  0  0  0  0  0  0  0
  147.3971  143.3512  155.1180 H   0  0  0  0  0  0  0  0  0  0  0  0
  1  2  1  0  0  0  0
  1 22  1  0  0  0  0
  1 23  1  0  0  0  0
  1 24  1  0  0  0  0
  2 21  2  0  0  0  0
  2  3  1  0  0  0  0
  3  4  2  0  0  0  0
  3 25  1  0  0  0  0
  4  5  1  0  0  0  0
  4  6  1  0  0  0  0
  5 26  1  0  0  0  0
  5 27  1  0  0  0  0
  5 28  1  0  0  0  0
  6  7  1  0  0  0  0
  6 21  1  0  0  0  0
  7  8  1  0  0  0  0
  7 29  1  0  0  0  0
  7 30  1  0  0  0  0
  8  9  2  0  0  0  0
  8 10  1  0  0  0  0
 10 11  1  0  0  0  0
 10 31  1  0  0  0  0
 11 12  1  0  0  0  0
 11 32  1  0  0  0  0
 11 33  1  0  0  0  0
 12 13  1  0  0  0  0
 12 14  1  0  0  0  0
 12 15  1  0  0  0  0
 13 34  1  0  0  0  0
 13 35  1  0  0  0  0
 13 36  1  0  0  0  0
 14 37  1  0  0  0  0
 14 38  1  0  0  0  0
 14 39  1  0  0  0  0
 15 20  1  0  0  0  0
 15 16  1  0  0  0  0
 15 48  1  0  0  0  0
 16 17  1  0  0  0  0
 16 40  1  0  0  0  0
 16 41  1  0  0  0  0
 17 18  1  0  0  0  0
 17 42  1  0  0  0  0
 17 43  1  0  0  0  0
 18 19  1  0  0  0  0
 19 20  1  0  0  0  0
 19 44  1  0  0  0  0
 19 45  1  0  0  0  0
 20 46  1  0  0  0  0
 20 47  1  0  0  0  0
M  CHG  1  15   1
M  END
> <s_m_source_file>
AV-unprocessed.smi

> <i_m_source_file_index>
1998

> <i_lp_mmshare_version>
43012

> <i_f3d_flags>
0

> <s_epik_input>
W0NIM11jMVtjSF1jKFtDSDNdKW4objEpW0NIMl1DKD1PKVtOSF1bQ0gyXUMoW0NIM10pKFtDSDNdKU4yW0NIMl1bQ0gyXU9bQ0gyXVtDSDJdMg==

> <s_epik_cmdline>
J2VwaWtfcHl0aG9uJywgJy1waCcsICc3LjAnLCAnLXRuJywgJzgnLCAnLW1hJywgJzIwMCcsICctbWV0YWxfYmluZGluZycsICctaW1hZScsICc8aW5maWxlLm1hZT4nLCAnLW9tYWUnLCAnPG91dGZpbGUubWFlPic=

> <r_lp_tautomer_probability>
1

> <r_epik_Ionization_Penalty>
0.748602

> <r_epik_Ionization_Penalty_Charging>
0.748396

> <r_epik_Ionization_Penalty_Neutral>
0.000205295

> <r_epik_State_Penalty>
0.775162

> <r_epik_Charging_Adjusted_Penalty>
1.52356

> <i_epik_Tot_Q>
1

> <i_epik_Tot_abs_Q>
1

> <r_epik_Metal_State_Penalty>
0.775274

> <b_epik_Metal_Only>
0

> <s_lp_Force_Field>
OPLS_2005

> <r_lp_Energy>
25.5475

> <b_lp_Chiralities_Consistent>
1

> <s_lp_Variant>
AV-unprocessed.smi:1998-2

> <Gold.Version>
5.8.1

> <Gold.Id.Protein>
6NUR|6NUR_protein|mol2

> <Gold.PLP.Fitness>
51.8129

> <Gold.PLP.PLP>
-44.2703

> <Gold.PLP.part.hbond>
-2.0000

> <Gold.PLP.part.metal>
0.0000

> <Gold.PLP.part.buried>
-6.7837

> <Gold.PLP.part.nonpolar>
-33.8741

> <Gold.PLP.part.repulsive>
0.2769

> <Gold.PLP.ligand.clash>
0.0000

> <Gold.PLP.ligand.torsion>
0.4911

> <Gold.PLP.Chemscore.Hbond>
2.8000

> <Gold.PLP.Chemscore.CHOScore>
0.0000

> <Gold.PLP.Chemscore.Metal>
0.0000

> <Gold.Chemscore.Hbonds>
donor molecule, donor type, donor heavy atom, donor atom, acceptor molecule, acceptor atom, score
      L1  H    10    31       P1  8028  0.98
      L1  H    15    48       P1  8028  1.53

> <Gold.PLP.Chemscore.Internal.Correction>
0.1248

> <Gold.Rescore>
     Score         DG    S(hbond)    S(metal)    S(lipo)     H(rot)  DE(clash)    DE(int)     intcor
     16.06     -17.96       1.19        0.00     110.64       1.74       0.12       1.78       ----

> <Gold.Chemscore.Fitness>
16.0629

> <Gold.Chemscore.DG>
-17.9644

> <Gold.Chemscore.ZeroCoef>
-5.4800

> <Gold.Chemscore.Hbond>
1.1945

> <Gold.Chemscore.Metal>
0.0000

> <Gold.Chemscore.Lipo>
110.6397

> <Gold.Chemscore.Internal_Hbond>
0.0000

> <Gold.Chemscore.DEClash>
0.1171

> <Gold.Chemscore.DEInternal>
1.7844

> <Gold.Chemscore.Rot>
1.7383

> <Gold.Chemscore.Internal.Correction>
   9.000000E+99

> <Gold.Chemscore.Hbonds>
donor molecule, donor type, donor heavy atom, donor atom, acceptor molecule, acceptor atom, score
      L1  H    10    31       P1  8028  0.86
      L1  H    15    48       P1  8028  0.11

> <Gold.Chemscore.Hbond.Weighted>
-3.9897

> <Gold.Chemscore.Metal.Weighted>
-0.0000

> <Gold.Chemscore.Lipo.Weighted>
-12.9448

> <Gold.Chemscore.Internal_Hbond.Weighted>
0.0000

> <Gold.Chemscore.DEClash.Weighted>
0.1171

> <Gold.Chemscore.DEInternal.Weighted>
1.7844

> <Gold.Chemscore.Rot.Weighted>
4.4501

> <Gold.Chemscore.Internal.Correction.Weighted>
   9.000000E+99

> <Gold.Protein.RotatedTorsions>
[ 6907 6896 6895 6894 ] final   84.51 input  -60.11 | X-H torsion
[ 7974 7965 7964 7962 ] final  167.61 input  175.53 | X-H torsion
[ 8008 7997 7996 7995 ] final  -65.97 input   59.86 | X-H torsion
[ 10167 10162 10161 10158 ] final   42.23 input  -65.29 | X-H torsion
[ 10718 10713 10712 10709 ] final   48.90 input   66.30 | X-H torsion
[ 10763 10752 10751 10750 ] final   90.95 input  -60.55 | X-H torsion
[ 11005 11000 10999 10996 ] final  116.41 input  -57.11 | X-H torsion

> <Gold.Protein.ActiveResidues>
 VAL166  LYS551  ARG553  GLY616  TRP617  ASP618  TYR619  PRO620  LYS621  CYS622 
 ASP623  PHE694  ASN695  SER759  ASP760  ASP761  ALA762  ILE779  LEU786  VAL792 
 PHE793  MET794  SER795  GLU796  ALA797  LYS798  CYS799  TRP800  GLU811  SER814 

> <Gold.Protein.RotatedAtoms>
  152.5354  134.2729  159.8977 H   0  0  0  0  0  0  0  0  0  0  0  0  # atno 6907 bound_to 6896
  151.2685  133.4260  159.2627 H   0  0  0  0  0  0  0  0  0  0  0  0  # atno 6908 bound_to 6896
  151.0389  134.9607  159.8207 H   0  0  0  0  0  0  0  0  0  0  0  0  # atno 6909 bound_to 6896
  144.7418  139.8786  143.6394 H   0  0  0  0  0  0  0  0  0  0  0  0  # atno 7974 bound_to 7965
  154.4705  140.0922  156.7132 H   0  0  0  0  0  0  0  0  0  0  0  0  # atno 8008 bound_to 7997
  155.4737  140.3465  155.4311 H   0  0  0  0  0  0  0  0  0  0  0  0  # atno 8009 bound_to 7997
  156.1031  140.1427  156.9430 H   0  0  0  0  0  0  0  0  0  0  0  0  # atno 8010 bound_to 7997
  140.3565  144.2284  150.6141 H   0  0  0  0  0  0  0  0  0  0  0  0  # atno 10167 bound_to 10162
  157.4733  130.8269  149.8012 H   0  0  0  0  0  0  0  0  0  0  0  0  # atno 10718 bound_to 10713
  153.2030  135.4415  155.0289 H   0  0  0  0  0  0  0  0  0  0  0  0  # atno 10763 bound_to 10752
  154.8157  135.3314  154.7184 H   0  0  0  0  0  0  0  0  0  0  0  0  # atno 10764 bound_to 10752
  153.7628  135.6990  153.4977 H   0  0  0  0  0  0  0  0  0  0  0  0  # atno 10765 bound_to 10752
  139.9040  134.9597  156.7193 H   0  0  0  0  0  0  0  0  0  0  0  0  # atno 11005 bound_to 11000
  146.1228  139.4249  143.0218 LP  0  0  0  0  0  0  0  0  0  0  0  0  # atno 17320 bound_to 7965
  145.7280  141.0052  143.1367 LP  0  0  0  0  0  0  0  0  0  0  0  0  # atno 17321 bound_to 7965
  140.5169  143.2276  151.8449 LP  0  0  0  0  0  0  0  0  0  0  0  0  # atno 17342 bound_to 10162
  139.4819  144.4883  151.9218 LP  0  0  0  0  0  0  0  0  0  0  0  0  # atno 17343 bound_to 10162
  156.0084  130.3844  150.2349 LP  0  0  0  0  0  0  0  0  0  0  0  0  # atno 17370 bound_to 10713
  157.0532  131.0069  151.3247 LP  0  0  0  0  0  0  0  0  0  0  0  0  # atno 17371 bound_to 10713
  140.7013  133.9304  155.8026 LP  0  0  0  0  0  0  0  0  0  0  0  0  # atno 17394 bound_to 11000
  141.0369  134.0676  157.3948 LP  0  0  0  0  0  0  0  0  0  0  0  0  # atno 17395 bound_to 11000

$$$$
