AV-unprocessed.smi:523|AV-procd|sdf|2804|dock9
  -GOLD-   2262023283D 1   1.00000     0.00000
 Structure written by MMmdl.
 40 42  0  0  0  0  0  0  0  0  2 V2000
  148.9866  140.5456  154.3841 C   0  0  0  0  0  0  0  0  0  0  0  0
  150.2633  140.8307  154.9256 O   0  0  0  0  0  0  0  0  0  0  0  0
  150.2055  141.2006  156.2938 C   0  0  0  0  0  0  0  0  0  0  0  0
  151.5476  141.8125  156.7180 C   0  0  0  0  0  0  0  0  0  0  0  0
  152.0789  141.1806  157.9252 N   0  0  0  0  0  0  0  0  0  0  0  0
  152.4276  141.7589  159.1086 C   0  0  0  0  0  0  0  0  0  0  0  0
  152.3556  143.1361  159.3243 N   0  0  0  0  0  0  0  0  0  0  0  0
  152.4725  144.1880  158.3185 C   0  0  0  0  0  0  0  0  0  0  0  0
  151.3639  145.2405  158.4984 C   0  0  0  0  0  0  0  0  0  0  0  0
  151.4742  145.8130  159.7964 O   0  0  0  0  0  0  0  0  0  0  0  0
  151.3587  144.8299  160.8189 C   0  0  0  0  0  0  0  0  0  0  0  0
  152.4556  143.7642  160.6373 C   0  0  0  0  0  0  0  0  0  0  0  0
  152.8020  140.8986  160.0575 N   0  0  0  0  0  0  0  0  0  0  0  0
  152.7145  139.6713  159.4202 C   0  0  0  0  0  0  0  0  0  0  0  0
  152.2757  139.8121  158.1409 C   0  0  0  0  0  0  0  0  0  0  0  0
  152.0457  138.6747  157.2218 C   0  0  0  0  0  0  0  0  0  0  0  0
  151.6253  138.8538  156.0805 O   0  0  0  0  0  0  0  0  0  0  0  0
  152.3491  137.4707  157.8025 N   0  5  0  0  0  0  0  0  0  0  0  0
  152.8018  137.2835  159.0909 C   0  0  0  0  0  0  0  0  0  0  0  0
  153.0471  136.1620  159.5373 O   0  0  0  0  0  0  0  0  0  0  0  0
  152.9875  138.3654  159.9109 N   0  0  0  0  0  0  0  0  0  0  0  0
  153.4587  138.1967  161.2885 C   0  0  0  0  0  0  0  0  0  0  0  0
  149.0872  140.2799  153.3318 H   0  0  0  0  0  0  0  0  0  0  0  0
  148.3262  141.4111  154.4519 H   0  0  0  0  0  0  0  0  0  0  0  0
  148.5193  139.7062  154.9003 H   0  0  0  0  0  0  0  0  0  0  0  0
  149.3974  141.9161  156.4532 H   0  0  0  0  0  0  0  0  0  0  0  0
  149.9913  140.3245  156.9075 H   0  0  0  0  0  0  0  0  0  0  0  0
  152.2793  141.7296  155.9159 H   0  0  0  0  0  0  0  0  0  0  0  0
  151.4215  142.8791  156.8682 H   0  0  0  0  0  0  0  0  0  0  0  0
  153.4494  144.6627  158.4177 H   0  0  0  0  0  0  0  0  0  0  0  0
  152.4522  143.7655  157.3147 H   0  0  0  0  0  0  0  0  0  0  0  0
  151.4677  146.0295  157.7537 H   0  0  0  0  0  0  0  0  0  0  0  0
  150.3746  144.7999  158.3647 H   0  0  0  0  0  0  0  0  0  0  0  0
  151.4618  145.3151  161.7894 H   0  0  0  0  0  0  0  0  0  0  0  0
  150.3668  144.3767  160.7924 H   0  0  0  0  0  0  0  0  0  0  0  0
  152.3599  143.0053  161.4145 H   0  0  0  0  0  0  0  0  0  0  0  0
  153.4444  144.2101  160.7530 H   0  0  0  0  0  0  0  0  0  0  0  0
  154.4042  137.6532  161.3091 H   0  0  0  0  0  0  0  0  0  0  0  0
  152.7288  137.6350  161.8725 H   0  0  0  0  0  0  0  0  0  0  0  0
  153.6223  139.1469  161.7958 H   0  0  0  0  0  0  0  0  0  0  0  0
  1  2  1  0  0  0  0
  1 23  1  0  0  0  0
  1 24  1  0  0  0  0
  1 25  1  0  0  0  0
  2  3  1  0  0  0  0
  3  4  1  0  0  0  0
  3 26  1  0  0  0  0
  3 27  1  0  0  0  0
  4  5  1  0  0  0  0
  4 28  1  0  0  0  0
  4 29  1  0  0  0  0
  5 15  1  0  0  0  0
  5  6  1  0  0  0  0
  6  7  1  0  0  0  0
  6 13  2  0  0  0  0
  7 12  1  0  0  0  0
  7  8  1  0  0  0  0
  8  9  1  0  0  0  0
  8 30  1  0  0  0  0
  8 31  1  0  0  0  0
  9 10  1  0  0  0  0
  9 32  1  0  0  0  0
  9 33  1  0  0  0  0
 10 11  1  0  0  0  0
 11 12  1  0  0  0  0
 11 34  1  0  0  0  0
 11 35  1  0  0  0  0
 12 36  1  0  0  0  0
 12 37  1  0  0  0  0
 13 14  1  0  0  0  0
 14 21  1  0  0  0  0
 14 15  2  0  0  0  0
 15 16  1  0  0  0  0
 16 17  2  0  0  0  0
 16 18  1  0  0  0  0
 18 19  1  0  0  0  0
 19 20  2  0  0  0  0
 19 21  1  0  0  0  0
 21 22  1  0  0  0  0
 22 38  1  0  0  0  0
 22 39  1  0  0  0  0
 22 40  1  0  0  0  0
M  CHG  1  18  -1
M  END
> <s_m_source_file>
AV-unprocessed.smi

> <i_m_source_file_index>
523

> <i_lp_mmshare_version>
43012

> <i_f3d_flags>
0

> <s_epik_input>
W0NIM11uMWMoPU8pW25IXWMoPU8pYyhjMTIpbihbQ0gyXVtDSDJdT1tDSDNdKWMobjIpTjNbQ0gyXVtDSDJdT1tDSDJdW0NIMl0z

> <s_epik_cmdline>
J2VwaWtfcHl0aG9uJywgJy1waCcsICc3LjAnLCAnLXRuJywgJzgnLCAnLW1hJywgJzIwMCcsICctbWV0YWxfYmluZGluZycsICctaW1hZScsICc8aW5maWxlLm1hZT4nLCAnLW9tYWUnLCAnPG91dGZpbGUubWFlPic=

> <r_lp_tautomer_probability>
1

> <r_epik_Ionization_Penalty>
4.75788

> <r_epik_Ionization_Penalty_Charging>
0.0452179

> <r_epik_Ionization_Penalty_Neutral>
4.71266

> <r_epik_State_Penalty>
4.71244

> <r_epik_Charging_Adjusted_Penalty>
4.75766

> <i_epik_Tot_Q>
-1

> <i_epik_Tot_abs_Q>
1

> <r_epik_Metal_State_Penalty>
0.934872

> <b_epik_Metal_Only>
1

> <s_lp_Force_Field>
OPLS_2005

> <r_lp_Energy>
41.5278

> <b_lp_Chiralities_Consistent>
1

> <s_lp_Variant>
AV-unprocessed.smi:523-2

> <Gold.Version>
5.8.1

> <Gold.Id.Protein>
6NUR|6NUR_protein|mol2

> <Gold.PLP.Fitness>
44.2325

> <Gold.PLP.PLP>
-39.4481

> <Gold.PLP.part.hbond>
-2.4653

> <Gold.PLP.part.metal>
0.0000

> <Gold.PLP.part.buried>
-6.2934

> <Gold.PLP.part.nonpolar>
-30.3630

> <Gold.PLP.part.repulsive>
0.2740

> <Gold.PLP.ligand.clash>
0.0000

> <Gold.PLP.ligand.torsion>
0.6161

> <Gold.PLP.Chemscore.Hbond>
1.8800

> <Gold.PLP.Chemscore.CHOScore>
0.0000

> <Gold.PLP.Chemscore.Metal>
0.0000

> <Gold.Chemscore.Hbonds>
donor molecule, donor type, donor heavy atom, donor atom, acceptor molecule, acceptor atom, score
      P1  H  6896  6909       L1    20  1.00
      P1  H  7989  7998       L1     2  0.80

> <Gold.PLP.Chemscore.Internal.Correction>
0.3766

> <Gold.Rescore>
     Score         DG    S(hbond)    S(metal)    S(lipo)     H(rot)  DE(clash)    DE(int)     intcor
     12.01     -16.95       1.78        0.00      80.49       1.52       0.49       4.45       ----

> <Gold.Chemscore.Fitness>
12.0082

> <Gold.Chemscore.DG>
-16.9548

> <Gold.Chemscore.ZeroCoef>
-5.4800

> <Gold.Chemscore.Hbond>
1.7777

> <Gold.Chemscore.Metal>
0.0000

> <Gold.Chemscore.Lipo>
80.4939

> <Gold.Chemscore.Internal_Hbond>
0.0000

> <Gold.Chemscore.DEClash>
0.4950

> <Gold.Chemscore.DEInternal>
4.4516

> <Gold.Chemscore.Rot>
1.5159

> <Gold.Chemscore.Internal.Correction>
   9.000000E+99

> <Gold.Chemscore.Hbonds>
donor molecule, donor type, donor heavy atom, donor atom, acceptor molecule, acceptor atom, score
      P1  H  6896  6909       L1    20  0.95
      P1  H  7989  7998       L1     2  0.58

> <Gold.Chemscore.Hbond.Weighted>
-5.9376

> <Gold.Chemscore.Metal.Weighted>
-0.0000

> <Gold.Chemscore.Lipo.Weighted>
-9.4178

> <Gold.Chemscore.Internal_Hbond.Weighted>
0.0000

> <Gold.Chemscore.DEClash.Weighted>
0.4950

> <Gold.Chemscore.DEInternal.Weighted>
4.4516

> <Gold.Chemscore.Rot.Weighted>
3.8806

> <Gold.Chemscore.Internal.Correction.Weighted>
   9.000000E+99

> <Gold.Protein.RotatedTorsions>
[ 6907 6896 6895 6894 ] final  160.17 input  -60.11 | X-H torsion
[ 7974 7965 7964 7962 ] final -137.74 input  175.53 | X-H torsion
[ 8008 7997 7996 7995 ] final   46.30 input   59.86 | X-H torsion
[ 10167 10162 10161 10158 ] final   36.42 input  -65.29 | X-H torsion
[ 10718 10713 10712 10709 ] final   37.98 input   66.30 | X-H torsion
[ 10763 10752 10751 10750 ] final  112.68 input  -60.55 | X-H torsion
[ 11005 11000 10999 10996 ] final   94.49 input  -57.11 | X-H torsion

> <Gold.Protein.ActiveResidues>
 VAL166  LYS551  ARG553  GLY616  TRP617  ASP618  TYR619  PRO620  LYS621  CYS622 
 ASP623  PHE694  ASN695  SER759  ASP760  ASP761  ALA762  ILE779  LEU786  VAL792 
 PHE793  MET794  SER795  GLU796  ALA797  LYS798  CYS799  TRP800  GLU811  SER814 

> <Gold.Protein.RotatedAtoms>
  151.9746  133.3737  159.4084 H   0  0  0  0  0  0  0  0  0  0  0  0  # atno 6907 bound_to 6896
  150.6943  134.4103  159.5168 H   0  0  0  0  0  0  0  0  0  0  0  0  # atno 6908 bound_to 6896
  152.1812  134.8752  160.0577 H   0  0  0  0  0  0  0  0  0  0  0  0  # atno 6909 bound_to 6896
  144.8817  140.6516  143.5202 H   0  0  0  0  0  0  0  0  0  0  0  0  # atno 7974 bound_to 7965
  155.3501  140.3413  155.4239 H   0  0  0  0  0  0  0  0  0  0  0  0  # atno 8008 bound_to 7997
  156.1768  140.1650  156.8383 H   0  0  0  0  0  0  0  0  0  0  0  0  # atno 8009 bound_to 7997
  154.5291  140.0749  156.8294 H   0  0  0  0  0  0  0  0  0  0  0  0  # atno 8010 bound_to 7997
  140.4130  144.1567  150.6141 H   0  0  0  0  0  0  0  0  0  0  0  0  # atno 10167 bound_to 10162
  157.3533  130.7610  149.6994 H   0  0  0  0  0  0  0  0  0  0  0  0  # atno 10718 bound_to 10713
  153.4813  135.3679  155.2444 H   0  0  0  0  0  0  0  0  0  0  0  0  # atno 10763 bound_to 10752
  154.8755  135.3955  154.3696 H   0  0  0  0  0  0  0  0  0  0  0  0  # atno 10764 bound_to 10752
  153.4300  135.7082  153.6302 H   0  0  0  0  0  0  0  0  0  0  0  0  # atno 10765 bound_to 10752
  139.8798  134.8848  156.3872 H   0  0  0  0  0  0  0  0  0  0  0  0  # atno 11005 bound_to 11000
  145.3943  139.1610  143.4212 LP  0  0  0  0  0  0  0  0  0  0  0  0  # atno 17320 bound_to 7965
  146.2998  140.4034  142.8708 LP  0  0  0  0  0  0  0  0  0  0  0  0  # atno 17321 bound_to 7965
  140.4617  143.2446  151.9210 LP  0  0  0  0  0  0  0  0  0  0  0  0  # atno 17342 bound_to 10162
  139.4782  144.5460  151.8457 LP  0  0  0  0  0  0  0  0  0  0  0  0  # atno 17343 bound_to 10162
  155.9725  130.4134  150.4081 LP  0  0  0  0  0  0  0  0  0  0  0  0  # atno 17370 bound_to 10713
  157.2147  131.0468  151.2579 LP  0  0  0  0  0  0  0  0  0  0  0  0  # atno 17371 bound_to 10713
  140.9358  133.7548  156.0082 LP  0  0  0  0  0  0  0  0  0  0  0  0  # atno 17394 bound_to 11000
  140.8278  134.3214  157.5359 LP  0  0  0  0  0  0  0  0  0  0  0  0  # atno 17395 bound_to 11000

$$$$
