AV-unprocessed.smi:1440|AV-procd|sdf|5873|dock4
  -GOLD-   22720 5553D 1   1.00000     0.00000
 Structure written by MMmdl.
 41 42  0  0  0  0  0  0  0  0  1 V2000
  151.7235  145.6169  159.7491 C   0  0  0  0  0  0  0  0  0  0  0  0
  151.5572  144.0949  159.6384 C   0  0  2  0  0  0  0  0  0  0  0  0
  152.9184  143.3747  159.6562 C   0  0  0  0  0  0  0  0  0  0  0  0
  152.7525  141.8503  159.5511 C   0  0  0  0  0  0  0  0  0  0  0  0
  151.9490  141.4523  158.2954 C   0  0  1  0  0  0  0  0  0  0  0  0
  151.7250  140.0099  158.2590 N   0  0  0  0  0  0  0  0  0  0  0  0
  152.1495  139.1797  157.2944 C   0  0  0  0  0  0  0  0  0  0  0  0
  152.7961  139.5579  156.3161 O   0  0  0  0  0  0  0  0  0  0  0  0
  151.7952  137.6994  157.4868 C   0  0  0  0  0  0  0  0  0  0  0  0
  150.3604  137.4622  157.6248 N   0  0  0  0  0  0  0  0  0  0  0  0
  149.7308  137.1495  158.7687 C   0  0  0  0  0  0  0  0  0  0  0  0
  150.3090  137.0088  159.8458 O   0  0  0  0  0  0  0  0  0  0  0  0
  148.2140  136.9740  158.6861 C   0  0  0  0  0  0  0  0  0  0  0  0
  147.6748  136.4657  159.9340 N   0  0  0  0  0  0  0  0  0  0  0  0
  147.2274  135.2500  160.2545 C   0  0  0  0  0  0  0  0  0  0  0  0
  146.7985  135.1499  161.5050 N   0  0  0  0  0  0  0  0  0  0  0  0
  147.0256  136.4296  161.9274 C   0  0  0  0  0  0  0  0  0  0  0  0
  147.5500  137.2587  161.0249 N   0  0  0  0  0  0  0  0  0  0  0  0
  150.5927  142.1809  158.2655 C   0  0  0  0  0  0  0  0  0  0  0  0
  150.7643  143.7045  158.3769 C   0  0  0  0  0  0  0  0  0  0  0  0
  152.2865  146.0168  158.9054 H   0  0  0  0  0  0  0  0  0  0  0  0
  152.2536  145.8886  160.6624 H   0  0  0  0  0  0  0  0  0  0  0  0
  150.7545  146.1165  159.7699 H   0  0  0  0  0  0  0  0  0  0  0  0
  150.9899  143.7631  160.5094 H   0  0  0  0  0  0  0  0  0  0  0  0
  153.5353  143.7302  158.8295 H   0  0  0  0  0  0  0  0  0  0  0  0
  153.4588  143.6196  160.5711 H   0  0  0  0  0  0  0  0  0  0  0  0
  153.7364  141.3800  159.5363 H   0  0  0  0  0  0  0  0  0  0  0  0
  152.2483  141.4801  160.4450 H   0  0  0  0  0  0  0  0  0  0  0  0
  152.5126  141.7445  157.4070 H   0  0  0  0  0  0  0  0  0  0  0  0
  151.2037  139.6129  159.0271 H   0  0  0  0  0  0  0  0  0  0  0  0
  152.1494  137.1414  156.6197 H   0  0  0  0  0  0  0  0  0  0  0  0
  152.3291  137.3035  158.3526 H   0  0  0  0  0  0  0  0  0  0  0  0
  149.8016  137.5593  156.7892 H   0  0  0  0  0  0  0  0  0  0  0  0
  147.7396  137.9310  158.4645 H   0  0  0  0  0  0  0  0  0  0  0  0
  147.9586  136.2925  157.8729 H   0  0  0  0  0  0  0  0  0  0  0  0
  147.2132  134.4239  159.5585 H   0  0  0  0  0  0  0  0  0  0  0  0
  146.7972  136.7602  162.9301 H   0  0  0  0  0  0  0  0  0  0  0  0
  150.0590  141.9395  157.3454 H   0  0  0  0  0  0  0  0  0  0  0  0
  149.9662  141.8298  159.0868 H   0  0  0  0  0  0  0  0  0  0  0  0
  149.7835  144.1810  158.3913 H   0  0  0  0  0  0  0  0  0  0  0  0
  151.2758  144.0781  157.4888 H   0  0  0  0  0  0  0  0  0  0  0  0
  1  2  1  0  0  0  0
  1 21  1  0  0  0  0
  1 22  1  0  0  0  0
  1 23  1  0  0  0  0
  2 20  1  0  0  0  0
  2  3  1  0  0  0  0
  2 24  1  0  0  0  0
  3  4  1  0  0  0  0
  3 25  1  0  0  0  0
  3 26  1  0  0  0  0
  4  5  1  0  0  0  0
  4 27  1  0  0  0  0
  4 28  1  0  0  0  0
  5  6  1  0  0  0  0
  5 19  1  0  0  0  0
  5 29  1  0  0  0  0
  6  7  1  0  0  0  0
  6 30  1  0  0  0  0
  7  8  2  0  0  0  0
  7  9  1  0  0  0  0
  9 10  1  0  0  0  0
  9 31  1  0  0  0  0
  9 32  1  0  0  0  0
 10 11  1  0  0  0  0
 10 33  1  0  0  0  0
 11 12  2  0  0  0  0
 11 13  1  0  0  0  0
 13 14  1  0  0  0  0
 13 34  1  0  0  0  0
 13 35  1  0  0  0  0
 14 18  1  0  0  0  0
 14 15  1  0  0  0  0
 15 16  2  0  0  0  0
 15 36  1  0  0  0  0
 16 17  1  0  0  0  0
 17 18  2  0  0  0  0
 17 37  1  0  0  0  0
 19 20  1  0  0  0  0
 19 38  1  0  0  0  0
 19 39  1  0  0  0  0
 20 40  1  0  0  0  0
 20 41  1  0  0  0  0
M  END
> <s_m_source_file>
AV-unprocessed.smi

> <i_m_source_file_index>
1440

> <i_lp_mmshare_version>
43012

> <i_f3d_flags>
0

> <s_epik_input>
W0NIM11bQ0BASF0xW0NIMl1bQ0gyXVtDQEhdKFtDSDJdW0NIMl0xKVtOSF1DKD1PKVtDSDJdW05IXUMoPU8pW0NIMl1uMltjSF1uW2NIXW4y

> <s_epik_cmdline>
J2VwaWtfcHl0aG9uJywgJy1waCcsICc3LjAnLCAnLXRuJywgJzgnLCAnLW1hJywgJzIwMCcsICctbWV0YWxfYmluZGluZycsICctaW1hZScsICc8aW5maWxlLm1hZT4nLCAnLW9tYWUnLCAnPG91dGZpbGUubWFlPic=

> <r_lp_tautomer_probability>
1

> <r_epik_Ionization_Penalty>
7.34071e-06

> <r_epik_Ionization_Penalty_Charging>
0

> <r_epik_Ionization_Penalty_Neutral>
7.34071e-06

> <r_epik_State_Penalty>
-0

> <r_epik_Charging_Adjusted_Penalty>
0

> <i_epik_Tot_Q>
0

> <i_epik_Tot_abs_Q>
0

> <r_epik_Metal_State_Penalty>
-0

> <b_epik_Metal_Only>
0

> <s_lp_Force_Field>
OPLS_2005

> <r_lp_Energy>
7.17082

> <b_lp_Chiralities_Consistent>
1

> <s_lp_Variant>
AV-unprocessed.smi:1440-1

> <Gold.Version>
5.8.1

> <Gold.Id.Protein>
6NUR|6NUR_protein|mol2

> <Gold.PLP.Fitness>
49.4299

> <Gold.PLP.PLP>
-39.0182

> <Gold.PLP.part.hbond>
-4.5488

> <Gold.PLP.part.metal>
0.0000

> <Gold.PLP.part.buried>
-5.8784

> <Gold.PLP.part.nonpolar>
-29.6514

> <Gold.PLP.part.repulsive>
0.1596

> <Gold.PLP.ligand.clash>
0.0000

> <Gold.PLP.ligand.torsion>
0.3337

> <Gold.PLP.Chemscore.Hbond>
3.6880

> <Gold.PLP.Chemscore.CHOScore>
0.0000

> <Gold.PLP.Chemscore.Metal>
0.0000

> <Gold.Chemscore.Hbonds>
donor molecule, donor type, donor heavy atom, donor atom, acceptor molecule, acceptor atom, score
      P1  H  6896  6909       L1    12  0.81
      P1  H  6931  6943       L1    18  0.83
      P1  H  6934  6947       L1    18  0.96
      P1  H  7997  8010       L1     8  1.00

> <Gold.PLP.Chemscore.Internal.Correction>
0.0150

> <Gold.Rescore>
     Score         DG    S(hbond)    S(metal)    S(lipo)     H(rot)  DE(clash)    DE(int)     intcor
     18.30     -18.78       3.53        0.00      75.62       2.86       0.05       0.43       ----

> <Gold.Chemscore.Fitness>
18.3009

> <Gold.Chemscore.DG>
-18.7767

> <Gold.Chemscore.ZeroCoef>
-5.4800

> <Gold.Chemscore.Hbond>
3.5259

> <Gold.Chemscore.Metal>
0.0000

> <Gold.Chemscore.Lipo>
75.6153

> <Gold.Chemscore.Internal_Hbond>
0.0000

> <Gold.Chemscore.DEClash>
0.0465

> <Gold.Chemscore.DEInternal>
0.4293

> <Gold.Chemscore.Rot>
2.8621

> <Gold.Chemscore.Internal.Correction>
   9.000000E+99

> <Gold.Chemscore.Hbonds>
donor molecule, donor type, donor heavy atom, donor atom, acceptor molecule, acceptor atom, score
      P1  H  6896  6909       L1    12  0.40
      P1  H  6931  6943       L1    18  0.53
      P1  H  6934  6947       L1    18  0.91
      P1  H  7997  8010       L1     8  1.00

> <Gold.Chemscore.Hbond.Weighted>
-11.7766

> <Gold.Chemscore.Metal.Weighted>
-0.0000

> <Gold.Chemscore.Lipo.Weighted>
-8.8470

> <Gold.Chemscore.Internal_Hbond.Weighted>
0.0000

> <Gold.Chemscore.DEClash.Weighted>
0.0465

> <Gold.Chemscore.DEInternal.Weighted>
0.4293

> <Gold.Chemscore.Rot.Weighted>
7.3270

> <Gold.Chemscore.Internal.Correction.Weighted>
   9.000000E+99

> <Gold.Protein.RotatedTorsions>
[ 6907 6896 6895 6894 ] final   84.61 input  -60.11 | X-H torsion
[ 7974 7965 7964 7962 ] final -176.77 input  175.53 | X-H torsion
[ 8008 7997 7996 7995 ] final   81.13 input   59.86 | X-H torsion
[ 10167 10162 10161 10158 ] final  -70.03 input  -65.29 | X-H torsion
[ 10718 10713 10712 10709 ] final -164.21 input   66.30 | X-H torsion
[ 10763 10752 10751 10750 ] final  -24.57 input  -60.55 | X-H torsion
[ 11005 11000 10999 10996 ] final  126.17 input  -57.11 | X-H torsion

> <Gold.Protein.ActiveResidues>
 VAL166  LYS551  ARG553  GLY616  TRP617  ASP618  TYR619  PRO620  LYS621  CYS622 
 ASP623  PHE694  ASN695  SER759  ASP760  ASP761  ALA762  ILE779  LEU786  VAL792 
 PHE793  MET794  SER795  GLU796  ALA797  LYS798  CYS799  TRP800  GLU811  SER814 

> <Gold.Protein.RotatedAtoms>
  152.5356  134.2714  159.8972 H   0  0  0  0  0  0  0  0  0  0  0  0  # atno 6907 bound_to 6896
  151.2670  133.4267  159.2627 H   0  0  0  0  0  0  0  0  0  0  0  0  # atno 6908 bound_to 6896
  151.0401  134.9616  159.8214 H   0  0  0  0  0  0  0  0  0  0  0  0  # atno 6909 bound_to 6896
  144.7127  140.1120  143.6410 H   0  0  0  0  0  0  0  0  0  0  0  0  # atno 7974 bound_to 7965
  155.8930  140.3438  155.5970 H   0  0  0  0  0  0  0  0  0  0  0  0  # atno 8008 bound_to 7997
  155.7589  140.0830  157.2184 H   0  0  0  0  0  0  0  0  0  0  0  0  # atno 8009 bound_to 7997
  154.4035  140.1539  156.2797 H   0  0  0  0  0  0  0  0  0  0  0  0  # atno 8010 bound_to 7997
  140.5384  143.2316  151.7134 H   0  0  0  0  0  0  0  0  0  0  0  0  # atno 10167 bound_to 10162
  156.6357  130.8948  151.2986 H   0  0  0  0  0  0  0  0  0  0  0  0  # atno 10718 bound_to 10713
  153.6860  135.6964  153.5104 H   0  0  0  0  0  0  0  0  0  0  0  0  # atno 10763 bound_to 10752
  153.2449  135.4294  155.0736 H   0  0  0  0  0  0  0  0  0  0  0  0  # atno 10764 bound_to 10752
  154.8386  135.3517  154.6402 H   0  0  0  0  0  0  0  0  0  0  0  0  # atno 10765 bound_to 10752
  139.9442  134.9632  156.8667 H   0  0  0  0  0  0  0  0  0  0  0  0  # atno 11005 bound_to 11000
  145.9446  139.2692  143.1248 LP  0  0  0  0  0  0  0  0  0  0  0  0  # atno 17320 bound_to 7965
  145.9387  140.8995  143.0319 LP  0  0  0  0  0  0  0  0  0  0  0  0  # atno 17321 bound_to 7965
  139.4979  144.4006  152.0185 LP  0  0  0  0  0  0  0  0  0  0  0  0  # atno 17342 bound_to 10162
  140.3113  144.3534  150.6033 LP  0  0  0  0  0  0  0  0  0  0  0  0  # atno 17343 bound_to 10162
  157.7186  130.9529  150.1351 LP  0  0  0  0  0  0  0  0  0  0  0  0  # atno 17370 bound_to 10713
  156.2199  130.3673  149.8569 LP  0  0  0  0  0  0  0  0  0  0  0  0  # atno 17371 bound_to 10713
  140.5875  134.0294  155.7487 LP  0  0  0  0  0  0  0  0  0  0  0  0  # atno 17394 bound_to 11000
  141.1088  133.9651  157.2949 LP  0  0  0  0  0  0  0  0  0  0  0  0  # atno 17395 bound_to 11000

$$$$
