AV-unprocessed.smi:2027|AV-procd|sdf|8215|dock1
  -GOLD-   2272010483D 1   1.00000     0.00000
 Structure written by MMmdl.
 50 52  0  0  0  0  0  0  0  0  2 V2000
  152.3893  145.3031  160.0320 C   0  0  0  0  0  0  0  0  0  0  0  0
  151.9682  143.9798  159.4159 C   0  0  0  0  0  0  0  0  0  0  0  0
  151.1832  144.0022  158.2411 C   0  0  0  0  0  0  0  0  0  0  0  0
  150.8174  142.7758  157.6991 C   0  0  0  0  0  0  0  0  0  0  0  0
  150.0626  142.4638  156.5660 N   0  3  0  0  0  0  0  0  0  0  0  0
  149.9789  141.1108  156.4337 C   0  0  0  0  0  0  0  0  0  0  0  0
  150.6693  140.5550  157.4659 N   0  0  0  0  0  0  0  0  0  0  0  0
  150.9167  139.1429  157.7878 C   0  0  0  0  0  0  0  0  0  0  0  0
  152.4176  138.7967  157.7852 C   0  0  2  0  0  0  0  0  0  0  0  0
  152.9680  139.1343  156.5268 O   0  0  0  0  0  0  0  0  0  0  0  0
  152.6703  137.2977  158.0519 C   0  0  0  0  0  0  0  0  0  0  0  0
  152.7544  136.8832  159.4620 N   0  0  0  0  0  0  0  0  0  0  0  0
  151.7764  137.6281  160.2465 C   0  0  0  0  0  0  0  0  0  0  0  0
  154.0851  137.0707  160.0579 C   0  0  0  0  0  0  0  0  0  0  0  0
  154.1905  136.6966  161.5114 C   0  0  0  0  0  0  0  0  0  0  0  0
  153.9986  137.5431  162.6402 C   0  0  0  0  0  0  0  0  0  0  0  0
  154.1942  136.9198  163.7902 N   0  0  0  0  0  0  0  0  0  0  0  0
  154.5019  135.6550  163.4386 N   0  0  0  0  0  0  0  0  0  0  0  0
  154.7999  134.6832  164.4683 C   0  0  0  0  0  0  0  0  0  0  0  0
  154.4869  135.4845  162.0709 C   0  0  0  0  0  0  0  0  0  0  0  0
  151.2051  141.5553  158.2844 C   0  0  0  0  0  0  0  0  0  0  0  0
  151.9747  141.5151  159.4444 C   0  0  0  0  0  0  0  0  0  0  0  0
  152.3568  142.7518  160.0112 C   0  0  0  0  0  0  0  0  0  0  0  0
  153.1969  142.7402  161.2768 C   0  0  0  0  0  0  0  0  0  0  0  0
  152.0430  146.1486  159.4371 H   0  0  0  0  0  0  0  0  0  0  0  0
  153.4756  145.3669  160.0985 H   0  0  0  0  0  0  0  0  0  0  0  0
  151.9735  145.4078  161.0344 H   0  0  0  0  0  0  0  0  0  0  0  0
  150.8828  144.9333  157.7833 H   0  0  0  0  0  0  0  0  0  0  0  0
  149.4672  140.5761  155.6464 H   0  0  0  0  0  0  0  0  0  0  0  0
  150.4683  138.9311  158.7593 H   0  0  0  0  0  0  0  0  0  0  0  0
  150.3807  138.5367  157.0562 H   0  0  0  0  0  0  0  0  0  0  0  0
  152.8918  139.4193  158.5347 H   0  0  0  0  0  0  0  0  0  0  0  0
  153.0245  138.3495  156.0037 H   0  0  0  0  0  0  0  0  0  0  0  0
  151.9021  136.7049  157.5532 H   0  0  0  0  0  0  0  0  0  0  0  0
  153.6012  137.0417  157.5429 H   0  0  0  0  0  0  0  0  0  0  0  0
  151.7847  137.3057  161.2884 H   0  0  0  0  0  0  0  0  0  0  0  0
  150.7671  137.4653  159.8667 H   0  0  0  0  0  0  0  0  0  0  0  0
  151.9816  138.6993  160.2198 H   0  0  0  0  0  0  0  0  0  0  0  0
  154.8241  136.5258  159.4687 H   0  0  0  0  0  0  0  0  0  0  0  0
  154.3667  138.1200  159.9588 H   0  0  0  0  0  0  0  0  0  0  0  0
  153.7421  138.5921  162.6566 H   0  0  0  0  0  0  0  0  0  0  0  0
  155.0292  133.7177  164.0166 H   0  0  0  0  0  0  0  0  0  0  0  0
  153.9404  134.5708  165.1298 H   0  0  0  0  0  0  0  0  0  0  0  0
  155.6602  135.0157  165.0504 H   0  0  0  0  0  0  0  0  0  0  0  0
  154.7107  134.5336  161.6104 H   0  0  0  0  0  0  0  0  0  0  0  0
  152.2750  140.5805  159.8940 H   0  0  0  0  0  0  0  0  0  0  0  0
  153.3809  141.7230  161.6241 H   0  0  0  0  0  0  0  0  0  0  0  0
  152.6917  143.2781  162.0789 H   0  0  0  0  0  0  0  0  0  0  0  0
  154.1637  143.2106  161.0966 H   0  0  0  0  0  0  0  0  0  0  0  0
  149.6392  143.1228  155.9253 H   0  0  0  0  0  0  0  0  0  0  0  0
  1  2  1  0  0  0  0
  1 25  1  0  0  0  0
  1 26  1  0  0  0  0
  1 27  1  0  0  0  0
  2 23  1  0  0  0  0
  2  3  2  0  0  0  0
  3  4  1  0  0  0  0
  3 28  1  0  0  0  0
  4 21  2  0  0  0  0
  4  5  1  0  0  0  0
  5  6  2  0  0  0  0
  5 50  1  0  0  0  0
  6  7  1  0  0  0  0
  6 29  1  0  0  0  0
  7  8  1  0  0  0  0
  7 21  1  0  0  0  0
  8  9  1  0  0  0  0
  8 30  1  0  0  0  0
  8 31  1  0  0  0  0
  9 10  1  0  0  0  0
  9 11  1  0  0  0  0
  9 32  1  0  0  0  0
 10 33  1  0  0  0  0
 11 12  1  0  0  0  0
 11 34  1  0  0  0  0
 11 35  1  0  0  0  0
 12 13  1  0  0  0  0
 12 14  1  0  0  0  0
 13 36  1  0  0  0  0
 13 37  1  0  0  0  0
 13 38  1  0  0  0  0
 14 15  1  0  0  0  0
 14 39  1  0  0  0  0
 14 40  1  0  0  0  0
 15 20  2  0  0  0  0
 15 16  1  0  0  0  0
 16 17  2  0  0  0  0
 16 41  1  0  0  0  0
 17 18  1  0  0  0  0
 18 19  1  0  0  0  0
 18 20  1  0  0  0  0
 19 42  1  0  0  0  0
 19 43  1  0  0  0  0
 19 44  1  0  0  0  0
 20 45  1  0  0  0  0
 21 22  1  0  0  0  0
 22 23  2  0  0  0  0
 22 46  1  0  0  0  0
 23 24  1  0  0  0  0
 24 47  1  0  0  0  0
 24 48  1  0  0  0  0
 24 49  1  0  0  0  0
M  CHG  1   5   1
M  END
> <s_m_source_file>
AV-unprocessed.smi

> <i_m_source_file_index>
2027

> <i_lp_mmshare_version>
43012

> <i_f3d_flags>
0

> <s_epik_input>
W0NIM11jKFtjSF0xKWMoW0NIM10pW2NIXWMoYzEyKW4oW2NIXW4yKVtDSDJdW0NASF0oW09IXSlbQ0gyXU4oW0NIM10pW0NIMl1jM1tjSF1ubihbQ0gzXSlbY0hdMw==

> <s_epik_cmdline>
J2VwaWtfcHl0aG9uJywgJy1waCcsICc3LjAnLCAnLXRuJywgJzgnLCAnLW1hJywgJzIwMCcsICctbWV0YWxfYmluZGluZycsICctaW1hZScsICc8aW5maWxlLm1hZT4nLCAnLW9tYWUnLCAnPG91dGZpbGUubWFlPic=

> <r_epik_Ionization_Penalty>
1.48134

> <r_epik_Ionization_Penalty_Charging>
1.21121

> <r_epik_Ionization_Penalty_Neutral>
0.270133

> <r_epik_State_Penalty>
1.53013

> <r_epik_Charging_Adjusted_Penalty>
2.74134

> <i_epik_Tot_Q>
1

> <i_epik_Tot_abs_Q>
1

> <r_epik_Metal_State_Penalty>
1.60443

> <b_epik_Metal_Only>
0

> <s_lp_Force_Field>
OPLS_2005

> <r_lp_Energy>
21.1476

> <b_lp_Chiralities_Consistent>
1

> <s_lp_Variant>
AV-unprocessed.smi:2027-7

> <Gold.Version>
5.8.1

> <Gold.Id.Protein>
6NUR|6NUR_protein|mol2

> <Gold.PLP.Fitness>
55.5914

> <Gold.PLP.PLP>
-46.9402

> <Gold.PLP.part.hbond>
-2.6725

> <Gold.PLP.part.metal>
0.0000

> <Gold.PLP.part.buried>
-7.7193

> <Gold.PLP.part.nonpolar>
-37.5435

> <Gold.PLP.part.repulsive>
0.1074

> <Gold.PLP.ligand.clash>
0.0000

> <Gold.PLP.ligand.torsion>
0.9379

> <Gold.PLP.Chemscore.Hbond>
3.3878

> <Gold.PLP.Chemscore.CHOScore>
0.0000

> <Gold.PLP.Chemscore.Metal>
0.0000

> <Gold.Chemscore.Hbonds>
donor molecule, donor type, donor heavy atom, donor atom, acceptor molecule, acceptor atom, score
      L1  H     5    50       P1  8028  1.95
      P1  H  6896  6909       L1    12  0.68
      P1  H  7997  8010       L1    10  1.00

> <Gold.PLP.Chemscore.Internal.Correction>
0.3634

> <Gold.Rescore>
     Score         DG    S(hbond)    S(metal)    S(lipo)     H(rot)  DE(clash)    DE(int)     intcor
     19.31     -19.96       1.82        0.00     126.49       2.50       0.00       0.65       ----

> <Gold.Chemscore.Fitness>
19.3130

> <Gold.Chemscore.DG>
-19.9609

> <Gold.Chemscore.ZeroCoef>
-5.4800

> <Gold.Chemscore.Hbond>
1.8207

> <Gold.Chemscore.Metal>
0.0000

> <Gold.Chemscore.Lipo>
126.4932

> <Gold.Chemscore.Internal_Hbond>
0.0000

> <Gold.Chemscore.DEClash>
0.0021

> <Gold.Chemscore.DEInternal>
0.6458

> <Gold.Chemscore.Rot>
2.5000

> <Gold.Chemscore.Internal.Correction>
   9.000000E+99

> <Gold.Chemscore.Hbonds>
donor molecule, donor type, donor heavy atom, donor atom, acceptor molecule, acceptor atom, score
      L1  H     5    50       P1  8028  0.93
      P1  H  6896  6909       L1    12  0.07
      P1  H  7997  8010       L1    10  0.68

> <Gold.Chemscore.Hbond.Weighted>
-6.0811

> <Gold.Chemscore.Metal.Weighted>
-0.0000

> <Gold.Chemscore.Lipo.Weighted>
-14.7997

> <Gold.Chemscore.Internal_Hbond.Weighted>
0.0000

> <Gold.Chemscore.DEClash.Weighted>
0.0021

> <Gold.Chemscore.DEInternal.Weighted>
0.6458

> <Gold.Chemscore.Rot.Weighted>
6.3999

> <Gold.Chemscore.Internal.Correction.Weighted>
   9.000000E+99

> <Gold.Protein.RotatedTorsions>
[ 6907 6896 6895 6894 ] final  163.90 input  -60.11 | X-H torsion
[ 7974 7965 7964 7962 ] final -176.77 input  175.53 | X-H torsion
[ 8008 7997 7996 7995 ] final   86.22 input   59.86 | X-H torsion
[ 10167 10162 10161 10158 ] final  161.50 input  -65.29 | X-H torsion
[ 10718 10713 10712 10709 ] final   70.10 input   66.30 | X-H torsion
[ 10763 10752 10751 10750 ] final  -44.44 input  -60.55 | X-H torsion
[ 11005 11000 10999 10996 ] final   62.65 input  -57.11 | X-H torsion

> <Gold.Protein.ActiveResidues>
 VAL166  LYS551  ARG553  GLY616  TRP617  ASP618  TYR619  PRO620  LYS621  CYS622 
 ASP623  PHE694  ASN695  SER759  ASP760  ASP761  ALA762  ILE779  LEU786  VAL792 
 PHE793  MET794  SER795  GLU796  ALA797  LYS798  CYS799  TRP800  GLU811  SER814 

> <Gold.Protein.RotatedAtoms>
  151.9181  133.3578  159.3886 H   0  0  0  0  0  0  0  0  0  0  0  0  # atno 6907 bound_to 6896
  150.7043  134.4663  159.5414 H   0  0  0  0  0  0  0  0  0  0  0  0  # atno 6908 bound_to 6896
  152.2282  134.8348  160.0528 H   0  0  0  0  0  0  0  0  0  0  0  0  # atno 6909 bound_to 6896
  144.7127  140.1121  143.6410 H   0  0  0  0  0  0  0  0  0  0  0  0  # atno 7974 bound_to 7965
  155.9600  140.3394  155.6482 H   0  0  0  0  0  0  0  0  0  0  0  0  # atno 8008 bound_to 7997
  155.6810  140.0738  157.2503 H   0  0  0  0  0  0  0  0  0  0  0  0  # atno 8009 bound_to 7997
  154.4141  140.1674  156.1970 H   0  0  0  0  0  0  0  0  0  0  0  0  # atno 8010 bound_to 7997
  139.4850  144.4530  151.8805 H   0  0  0  0  0  0  0  0  0  0  0  0  # atno 10167 bound_to 10162
  157.6382  130.9460  150.0604 H   0  0  0  0  0  0  0  0  0  0  0  0  # atno 10718 bound_to 10713
  154.0121  135.6680  153.4766 H   0  0  0  0  0  0  0  0  0  0  0  0  # atno 10763 bound_to 10752
  153.0616  135.5024  154.8103 H   0  0  0  0  0  0  0  0  0  0  0  0  # atno 10764 bound_to 10752
  154.6989  135.3075  154.9334 H   0  0  0  0  0  0  0  0  0  0  0  0  # atno 10765 bound_to 10752
  140.0078  134.6343  155.9828 H   0  0  0  0  0  0  0  0  0  0  0  0  # atno 11005 bound_to 11000
  145.9446  139.2692  143.1248 LP  0  0  0  0  0  0  0  0  0  0  0  0  # atno 17320 bound_to 7965
  145.9388  140.8995  143.0318 LP  0  0  0  0  0  0  0  0  0  0  0  0  # atno 17321 bound_to 7965
  140.3988  144.2520  150.5894 LP  0  0  0  0  0  0  0  0  0  0  0  0  # atno 17342 bound_to 10162
  140.5077  143.2299  151.8583 LP  0  0  0  0  0  0  0  0  0  0  0  0  # atno 17343 bound_to 10162
  156.1639  130.3644  149.9260 LP  0  0  0  0  0  0  0  0  0  0  0  0  # atno 17370 bound_to 10713
  156.7252  130.9022  151.3621 LP  0  0  0  0  0  0  0  0  0  0  0  0  # atno 17371 bound_to 10713
  141.1689  133.6537  156.4579 LP  0  0  0  0  0  0  0  0  0  0  0  0  # atno 17394 bound_to 11000
  140.4610  134.6841  157.5085 LP  0  0  0  0  0  0  0  0  0  0  0  0  # atno 17395 bound_to 11000

$$$$
