AV-unprocessed.smi:403|AV-procd|sdf|2496|dock3
  -GOLD-   2262022443D 1   1.00000     0.00000
 Structure written by MMmdl.
 46 47  0  0  0  0  0  0  0  0  1 V2000
  151.6984  144.2425  158.1861 C   0  0  0  0  0  0  0  0  0  0  0  0
  151.7228  144.0585  159.7130 C   0  0  0  0  0  0  0  0  0  0  0  0
  151.8474  145.4208  160.4124 C   0  0  0  0  0  0  0  0  0  0  0  0
  152.8427  143.1037  160.1758 C   0  0  0  0  0  0  0  0  0  0  0  0
  152.4833  141.6083  160.0521 C   0  0  0  0  0  0  0  0  0  0  0  0
  153.6980  140.6746  160.0974 C   0  0  0  0  0  0  0  0  0  0  0  0
  153.9742  139.9422  159.1463 O   0  0  0  0  0  0  0  0  0  0  0  0
  154.4235  140.7157  161.2255 N   0  0  0  0  0  0  0  0  0  0  0  0
  155.6215  139.9201  161.4791 C   0  0  0  0  0  0  0  0  0  0  0  0
  155.4805  138.8669  162.5816 C   0  0  0  0  0  0  0  0  0  0  0  0
  156.0896  139.0489  163.8458 C   0  0  0  0  0  0  0  0  0  0  0  0
  155.9160  138.0743  164.8447 C   0  0  0  0  0  0  0  0  0  0  0  0
  155.1294  136.9480  164.5473 C   0  0  0  0  0  0  0  0  0  0  0  0
  154.5339  136.7605  163.3525 N   0  0  0  0  0  0  0  0  0  0  0  0
  154.6990  137.6964  162.3858 C   0  0  0  0  0  0  0  0  0  0  0  0
  154.0785  137.4561  161.1473 N   0  0  0  0  0  0  0  0  0  0  0  0
  154.5110  136.2067  160.5340 C   0  0  0  0  0  0  0  0  0  0  0  0
  153.9607  136.1087  159.1009 C   0  0  0  0  0  0  0  0  0  0  0  0
  152.5418  136.2425  159.1222 O   0  0  0  0  0  0  0  0  0  0  0  0
  152.1280  137.4958  159.6602 C   0  0  0  0  0  0  0  0  0  0  0  0
  152.6300  137.6263  161.1084 C   0  0  0  0  0  0  0  0  0  0  0  0
  152.6485  144.6314  157.8184 H   0  0  0  0  0  0  0  0  0  0  0  0
  150.9171  144.9428  157.8894 H   0  0  0  0  0  0  0  0  0  0  0  0
  151.4990  143.3044  157.6691 H   0  0  0  0  0  0  0  0  0  0  0  0
  150.7664  143.6287  160.0138 H   0  0  0  0  0  0  0  0  0  0  0  0
  152.7834  145.9154  160.1508 H   0  0  0  0  0  0  0  0  0  0  0  0
  151.8198  145.3124  161.4971 H   0  0  0  0  0  0  0  0  0  0  0  0
  151.0301  146.0850  160.1302 H   0  0  0  0  0  0  0  0  0  0  0  0
  153.7552  143.3143  159.6157 H   0  0  0  0  0  0  0  0  0  0  0  0
  153.0719  143.3207  161.2204 H   0  0  0  0  0  0  0  0  0  0  0  0
  151.8062  141.3267  160.8596 H   0  0  0  0  0  0  0  0  0  0  0  0
  151.9534  141.4239  159.1176 H   0  0  0  0  0  0  0  0  0  0  0  0
  154.1282  141.3432  161.9592 H   0  0  0  0  0  0  0  0  0  0  0  0
  155.8837  139.4054  160.5549 H   0  0  0  0  0  0  0  0  0  0  0  0
  156.4505  140.5953  161.6936 H   0  0  0  0  0  0  0  0  0  0  0  0
  156.6826  139.9244  164.0635 H   0  0  0  0  0  0  0  0  0  0  0  0
  156.3726  138.1892  165.8165 H   0  0  0  0  0  0  0  0  0  0  0  0
  154.9723  136.1782  165.2885 H   0  0  0  0  0  0  0  0  0  0  0  0
  155.5998  136.1444  160.5227 H   0  0  0  0  0  0  0  0  0  0  0  0
  154.1493  135.3679  161.1307 H   0  0  0  0  0  0  0  0  0  0  0  0
  154.3995  136.8782  158.4635 H   0  0  0  0  0  0  0  0  0  0  0  0
  154.2205  135.1449  158.6630 H   0  0  0  0  0  0  0  0  0  0  0  0
  152.5062  138.3113  159.0416 H   0  0  0  0  0  0  0  0  0  0  0  0
  151.0398  137.5525  159.6329 H   0  0  0  0  0  0  0  0  0  0  0  0
  152.1484  136.8713  161.7315 H   0  0  0  0  0  0  0  0  0  0  0  0
  152.3619  138.6024  161.5137 H   0  0  0  0  0  0  0  0  0  0  0  0
  1  2  1  0  0  0  0
  1 22  1  0  0  0  0
  1 23  1  0  0  0  0
  1 24  1  0  0  0  0
  2  3  1  0  0  0  0
  2  4  1  0  0  0  0
  2 25  1  0  0  0  0
  3 26  1  0  0  0  0
  3 27  1  0  0  0  0
  3 28  1  0  0  0  0
  4  5  1  0  0  0  0
  4 29  1  0  0  0  0
  4 30  1  0  0  0  0
  5  6  1  0  0  0  0
  5 31  1  0  0  0  0
  5 32  1  0  0  0  0
  6  7  2  0  0  0  0
  6  8  1  0  0  0  0
  8  9  1  0  0  0  0
  8 33  1  0  0  0  0
  9 10  1  0  0  0  0
  9 34  1  0  0  0  0
  9 35  1  0  0  0  0
 10 15  1  0  0  0  0
 10 11  2  0  0  0  0
 11 12  1  0  0  0  0
 11 36  1  0  0  0  0
 12 13  2  0  0  0  0
 12 37  1  0  0  0  0
 13 14  1  0  0  0  0
 13 38  1  0  0  0  0
 14 15  2  0  0  0  0
 15 16  1  0  0  0  0
 16 21  1  0  0  0  0
 16 17  1  0  0  0  0
 17 18  1  0  0  0  0
 17 39  1  0  0  0  0
 17 40  1  0  0  0  0
 18 19  1  0  0  0  0
 18 41  1  0  0  0  0
 18 42  1  0  0  0  0
 19 20  1  0  0  0  0
 20 21  1  0  0  0  0
 20 43  1  0  0  0  0
 20 44  1  0  0  0  0
 21 45  1  0  0  0  0
 21 46  1  0  0  0  0
M  END
> <s_m_source_file>
AV-unprocessed.smi

> <i_m_source_file_index>
403

> <i_lp_mmshare_version>
43012

> <i_f3d_flags>
0

> <s_epik_input>
W0NIM11bQ0hdKFtDSDNdKVtDSDJdW0NIMl1DKD1PKVtOSF1bQ0gyXWMxW2NIXVtjSF1bY0hdbmMxTjJbQ0gyXVtDSDJdT1tDSDJdW0NIMl0y

> <s_epik_cmdline>
J2VwaWtfcHl0aG9uJywgJy1waCcsICc3LjAnLCAnLXRuJywgJzgnLCAnLW1hJywgJzIwMCcsICctbWV0YWxfYmluZGluZycsICctaW1hZScsICc8aW5maWxlLm1hZT4nLCAnLW9tYWUnLCAnPG91dGZpbGUubWFlPic=

> <r_lp_tautomer_probability>
1

> <r_epik_Ionization_Penalty>
0.00581842

> <r_epik_Ionization_Penalty_Charging>
0

> <r_epik_Ionization_Penalty_Neutral>
0.00581842

> <r_epik_State_Penalty>
0.00427389

> <r_epik_Charging_Adjusted_Penalty>
0.00427389

> <i_epik_Tot_Q>
0

> <i_epik_Tot_abs_Q>
0

> <r_epik_Metal_State_Penalty>
-0

> <b_epik_Metal_Only>
0

> <s_lp_Force_Field>
OPLS_2005

> <r_lp_Energy>
20.7725

> <b_lp_Chiralities_Consistent>
1

> <s_lp_Variant>
AV-unprocessed.smi:403-1

> <Gold.Version>
5.8.1

> <Gold.Id.Protein>
6NUR|6NUR_protein|mol2

> <Gold.PLP.Fitness>
48.7559

> <Gold.PLP.PLP>
-44.6106

> <Gold.PLP.part.hbond>
-2.0000

> <Gold.PLP.part.metal>
0.0000

> <Gold.PLP.part.buried>
-5.6219

> <Gold.PLP.part.nonpolar>
-36.9500

> <Gold.PLP.part.repulsive>
0.0239

> <Gold.PLP.ligand.clash>
0.0000

> <Gold.PLP.ligand.torsion>
0.6446

> <Gold.PLP.Chemscore.Hbond>
1.7440

> <Gold.PLP.Chemscore.CHOScore>
0.0000

> <Gold.PLP.Chemscore.Metal>
0.0000

> <Gold.Chemscore.Hbonds>
donor molecule, donor type, donor heavy atom, donor atom, acceptor molecule, acceptor atom, score
      P1  H  6896  6908       L1    19  0.78
      P1  H  7997  8008       L1     7  0.83

> <Gold.PLP.Chemscore.Internal.Correction>
0.2024

> <Gold.Rescore>
     Score         DG    S(hbond)    S(metal)    S(lipo)     H(rot)  DE(clash)    DE(int)     intcor
     17.32     -18.14       1.08        0.00     115.37       1.73       0.21       0.61       ----

> <Gold.Chemscore.Fitness>
17.3178

> <Gold.Chemscore.DG>
-18.1355

> <Gold.Chemscore.ZeroCoef>
-5.4800

> <Gold.Chemscore.Hbond>
1.0773

> <Gold.Chemscore.Metal>
0.0000

> <Gold.Chemscore.Lipo>
115.3686

> <Gold.Chemscore.Internal_Hbond>
0.0000

> <Gold.Chemscore.DEClash>
0.2063

> <Gold.Chemscore.DEInternal>
0.6114

> <Gold.Chemscore.Rot>
1.7347

> <Gold.Chemscore.Internal.Correction>
   9.000000E+99

> <Gold.Chemscore.Hbonds>
donor molecule, donor type, donor heavy atom, donor atom, acceptor molecule, acceptor atom, score
      P1  H  6896  6908       L1    19  0.29
      P1  H  7997  8008       L1     7  0.78

> <Gold.Chemscore.Hbond.Weighted>
-3.5983

> <Gold.Chemscore.Metal.Weighted>
-0.0000

> <Gold.Chemscore.Lipo.Weighted>
-13.4981

> <Gold.Chemscore.Internal_Hbond.Weighted>
0.0000

> <Gold.Chemscore.DEClash.Weighted>
0.2063

> <Gold.Chemscore.DEInternal.Weighted>
0.6114

> <Gold.Chemscore.Rot.Weighted>
4.4409

> <Gold.Chemscore.Internal.Correction.Weighted>
   9.000000E+99

> <Gold.Protein.RotatedTorsions>
[ 6907 6896 6895 6894 ] final  -90.13 input  -60.11 | X-H torsion
[ 7974 7965 7964 7962 ] final  112.89 input  175.53 | X-H torsion
[ 8008 7997 7996 7995 ] final -112.34 input   59.86 | X-H torsion
[ 10167 10162 10161 10158 ] final -104.43 input  -65.29 | X-H torsion
[ 10718 10713 10712 10709 ] final  134.17 input   66.30 | X-H torsion
[ 10763 10752 10751 10750 ] final    9.61 input  -60.55 | X-H torsion
[ 11005 11000 10999 10996 ] final  -72.02 input  -57.11 | X-H torsion

> <Gold.Protein.ActiveResidues>
 VAL166  LYS551  ARG553  GLY616  TRP617  ASP618  TYR619  PRO620  LYS621  CYS622 
 ASP623  PHE694  ASN695  SER759  ASP760  ASP761  ALA762  ILE779  LEU786  VAL792 
 PHE793  MET794  SER795  GLU796  ALA797  LYS798  CYS799  TRP800  GLU811  SER814 

> <Gold.Protein.RotatedAtoms>
  150.6879  134.2479  159.4498 H   0  0  0  0  0  0  0  0  0  0  0  0  # atno 6907 bound_to 6896
  152.0419  134.9704  160.0583 H   0  0  0  0  0  0  0  0  0  0  0  0  # atno 6908 bound_to 6896
  152.1202  133.4314  159.4709 H   0  0  0  0  0  0  0  0  0  0  0  0  # atno 6909 bound_to 6896
  145.2238  139.2850  143.4204 H   0  0  0  0  0  0  0  0  0  0  0  0  # atno 7974 bound_to 7965
  155.0037  140.0394  157.2371 H   0  0  0  0  0  0  0  0  0  0  0  0  # atno 8008 bound_to 7997
  154.7521  140.2769  155.6261 H   0  0  0  0  0  0  0  0  0  0  0  0  # atno 8009 bound_to 7997
  156.2887  140.2645  156.2277 H   0  0  0  0  0  0  0  0  0  0  0  0  # atno 8010 bound_to 7997
  140.2093  143.3759  152.1064 H   0  0  0  0  0  0  0  0  0  0  0  0  # atno 10167 bound_to 10162
  157.4699  131.1079  150.9816 H   0  0  0  0  0  0  0  0  0  0  0  0  # atno 10718 bound_to 10713
  153.2121  135.6870  153.8101 H   0  0  0  0  0  0  0  0  0  0  0  0  # atno 10763 bound_to 10752
  153.7330  135.3250  155.3290 H   0  0  0  0  0  0  0  0  0  0  0  0  # atno 10764 bound_to 10752
  154.8227  135.4640  154.0933 H   0  0  0  0  0  0  0  0  0  0  0  0  # atno 10765 bound_to 10752
  141.1602  133.6834  156.6995 H   0  0  0  0  0  0  0  0  0  0  0  0  # atno 11005 bound_to 11000
  146.3369  140.2552  142.8600 LP  0  0  0  0  0  0  0  0  0  0  0  0  # atno 17320 bound_to 7965
  144.9740  140.8396  143.5438 LP  0  0  0  0  0  0  0  0  0  0  0  0  # atno 17321 bound_to 7965
  139.5186  144.7008  151.5498 LP  0  0  0  0  0  0  0  0  0  0  0  0  # atno 17342 bound_to 10162
  140.6335  143.9030  150.6626 LP  0  0  0  0  0  0  0  0  0  0  0  0  # atno 17343 bound_to 10162
  157.0584  130.5815  149.5381 LP  0  0  0  0  0  0  0  0  0  0  0  0  # atno 17370 bound_to 10713
  156.0068  130.5156  150.7857 LP  0  0  0  0  0  0  0  0  0  0  0  0  # atno 17371 bound_to 10713
  140.2969  134.8195  157.4065 LP  0  0  0  0  0  0  0  0  0  0  0  0  # atno 17394 bound_to 11000
  140.1296  134.5112  155.8116 LP  0  0  0  0  0  0  0  0  0  0  0  0  # atno 17395 bound_to 11000

$$$$
