AV-unprocessed.smi:1849|AV-procd|sdf|7520|dock4
  -GOLD-   22720 9223D 1   1.00000     0.00000
 Structure written by MMmdl.
 41 42  0  0  0  0  0  0  0  0  2 V2000
  149.1280  140.2289  154.4273 C   0  0  0  0  0  0  0  0  0  0  0  0
  147.8853  140.9920  154.2904 N   0  0  0  0  0  0  0  0  0  0  0  0
  147.7223  142.3352  154.5135 C   0  0  0  0  0  0  0  0  0  0  0  0
  146.4036  142.6173  154.2680 C   0  0  0  0  0  0  0  0  0  0  0  0
  145.8167  141.4355  153.9047 N   0  3  0  0  0  0  0  0  0  0  0  0
  146.7173  140.4458  153.9137 C   0  0  0  0  0  0  0  0  0  0  0  0
  146.4384  139.0131  153.5840 C   0  0  0  0  0  0  0  0  0  0  0  0
  146.4170  138.7452  152.0700 C   0  0  0  0  0  0  0  0  0  0  0  0
  146.6517  137.3379  151.7714 N   0  0  0  0  0  0  0  0  0  0  0  0
  145.7665  136.3545  151.9864 C   0  0  0  0  0  0  0  0  0  0  0  0
  144.6461  136.5309  152.4656 O   0  0  0  0  0  0  0  0  0  0  0  0
  146.2524  135.1590  151.6245 N   0  0  0  0  0  0  0  0  0  0  0  0
  145.5424  133.8894  151.7465 C   0  0  0  0  0  0  0  0  0  0  0  0
  146.3641  132.7451  151.1161 C   0  0  0  0  0  0  0  0  0  0  0  0
  145.5983  131.4129  151.1567 C   0  0  0  0  0  0  0  0  0  0  0  0
  144.2225  131.5387  150.4839 C   0  0  0  0  0  0  0  0  0  0  0  0
  143.3987  132.6705  151.1173 C   0  0  0  0  0  0  0  0  0  0  0  0
  144.1605  134.0051  151.0750 C   0  0  0  0  0  0  0  0  0  0  0  0
  149.9134  140.8772  154.8169 H   0  0  0  0  0  0  0  0  0  0  0  0
  149.4262  139.8474  153.4503 H   0  0  0  0  0  0  0  0  0  0  0  0
  148.9728  139.3988  155.1170 H   0  0  0  0  0  0  0  0  0  0  0  0
  148.5356  142.9751  154.8239 H   0  0  0  0  0  0  0  0  0  0  0  0
  145.8535  143.5454  154.3238 H   0  0  0  0  0  0  0  0  0  0  0  0
  147.2111  138.4171  154.0714 H   0  0  0  0  0  0  0  0  0  0  0  0
  145.4887  138.7517  154.0513 H   0  0  0  0  0  0  0  0  0  0  0  0
  145.4667  139.0588  151.6352 H   0  0  0  0  0  0  0  0  0  0  0  0
  147.1921  139.3326  151.5769 H   0  0  0  0  0  0  0  0  0  0  0  0
  147.5472  137.0960  151.3724 H   0  0  0  0  0  0  0  0  0  0  0  0
  147.1854  135.1206  151.2405 H   0  0  0  0  0  0  0  0  0  0  0  0
  145.3866  133.6697  152.8047 H   0  0  0  0  0  0  0  0  0  0  0  0
  146.6058  132.9909  150.0809 H   0  0  0  0  0  0  0  0  0  0  0  0
  147.3162  132.6328  151.6363 H   0  0  0  0  0  0  0  0  0  0  0  0
  146.1822  130.6336  150.6661 H   0  0  0  0  0  0  0  0  0  0  0  0
  145.4705  131.0975  152.1929 H   0  0  0  0  0  0  0  0  0  0  0  0
  144.3523  131.7327  149.4184 H   0  0  0  0  0  0  0  0  0  0  0  0
  143.6820  130.5952  150.5634 H   0  0  0  0  0  0  0  0  0  0  0  0
  142.4448  132.7709  150.5987 H   0  0  0  0  0  0  0  0  0  0  0  0
  143.1633  132.4161  152.1515 H   0  0  0  0  0  0  0  0  0  0  0  0
  143.5695  134.7793  151.5658 H   0  0  0  0  0  0  0  0  0  0  0  0
  144.2784  134.3183  150.0364 H   0  0  0  0  0  0  0  0  0  0  0  0
  144.8405  141.3231  153.6617 H   0  0  0  0  0  0  0  0  0  0  0  0
  1  2  1  0  0  0  0
  1 19  1  0  0  0  0
  1 20  1  0  0  0  0
  1 21  1  0  0  0  0
  2  6  1  0  0  0  0
  2  3  1  0  0  0  0
  3  4  2  0  0  0  0
  3 22  1  0  0  0  0
  4  5  1  0  0  0  0
  4 23  1  0  0  0  0
  5  6  2  0  0  0  0
  5 41  1  0  0  0  0
  6  7  1  0  0  0  0
  7  8  1  0  0  0  0
  7 24  1  0  0  0  0
  7 25  1  0  0  0  0
  8  9  1  0  0  0  0
  8 26  1  0  0  0  0
  8 27  1  0  0  0  0
  9 10  1  0  0  0  0
  9 28  1  0  0  0  0
 10 11  2  0  0  0  0
 10 12  1  0  0  0  0
 12 13  1  0  0  0  0
 12 29  1  0  0  0  0
 13 18  1  0  0  0  0
 13 14  1  0  0  0  0
 13 30  1  0  0  0  0
 14 15  1  0  0  0  0
 14 31  1  0  0  0  0
 14 32  1  0  0  0  0
 15 16  1  0  0  0  0
 15 33  1  0  0  0  0
 15 34  1  0  0  0  0
 16 17  1  0  0  0  0
 16 35  1  0  0  0  0
 16 36  1  0  0  0  0
 17 18  1  0  0  0  0
 17 37  1  0  0  0  0
 17 38  1  0  0  0  0
 18 39  1  0  0  0  0
 18 40  1  0  0  0  0
M  CHG  1   5   1
M  END
> <s_m_source_file>
AV-unprocessed.smi

> <i_m_source_file_index>
1849

> <i_lp_mmshare_version>
43012

> <i_f3d_flags>
0

> <s_epik_input>
W0NIM11uMVtjSF1bY0hdbmMxW0NIMl1bQ0gyXVtOSF1DKD1PKVtOSF1bQ0hdMltDSDJdW0NIMl1bQ0gyXVtDSDJdW0NIMl0y

> <s_epik_cmdline>
J2VwaWtfcHl0aG9uJywgJy1waCcsICc3LjAnLCAnLXRuJywgJzgnLCAnLW1hJywgJzIwMCcsICctbWV0YWxfYmluZGluZycsICctaW1hZScsICc8aW5maWxlLm1hZT4nLCAnLW9tYWUnLCAnPG91dGZpbGUubWFlPic=

> <r_lp_tautomer_probability>
1

> <r_epik_Ionization_Penalty>
0.0507041

> <r_epik_Ionization_Penalty_Charging>
0

> <r_epik_Ionization_Penalty_Neutral>
0.0507041

> <r_epik_State_Penalty>
0.0433397

> <r_epik_Charging_Adjusted_Penalty>
0.0433397

> <i_epik_Tot_Q>
1

> <i_epik_Tot_abs_Q>
1

> <r_epik_Metal_State_Penalty>
0.385258

> <b_epik_Metal_Only>
0

> <s_lp_Force_Field>
OPLS_2005

> <r_lp_Energy>
7.33452

> <b_lp_Chiralities_Consistent>
1

> <s_lp_Variant>
AV-unprocessed.smi:1849-1

> <Gold.Version>
5.8.1

> <Gold.Id.Protein>
6NUR|6NUR_protein|mol2

> <Gold.PLP.Fitness>
48.3117

> <Gold.PLP.PLP>
-36.7510

> <Gold.PLP.part.hbond>
-2.4787

> <Gold.PLP.part.metal>
0.0000

> <Gold.PLP.part.buried>
-1.4420

> <Gold.PLP.part.nonpolar>
-33.9248

> <Gold.PLP.part.repulsive>
0.3453

> <Gold.PLP.ligand.clash>
0.0000

> <Gold.PLP.ligand.torsion>
0.5131

> <Gold.PLP.Chemscore.Hbond>
3.1982

> <Gold.PLP.Chemscore.CHOScore>
0.9925

> <Gold.PLP.Chemscore.Metal>
0.0000

> <Gold.Chemscore.Hbonds>
donor molecule, donor type, donor heavy atom, donor atom, acceptor molecule, acceptor atom, score
      L1  H     5    41       P1 10175  1.79
      L1  H     9    28       P1  7948  0.78
      L1  H    12    29       P1  7948  0.47
      L1  C     3    22       P1  8028  0.78

> <Gold.PLP.Chemscore.Internal.Correction>
0.0149

> <Gold.Rescore>
     Score         DG    S(hbond)    S(metal)    S(lipo)     H(rot)  DE(clash)    DE(int)     intcor
     14.54     -16.10       1.80        0.00      77.08       1.73       0.18       1.37       ----

> <Gold.Chemscore.Fitness>
14.5443

> <Gold.Chemscore.DG>
-16.0966

> <Gold.Chemscore.ZeroCoef>
-5.4800

> <Gold.Chemscore.Hbond>
1.8018

> <Gold.Chemscore.Metal>
0.0000

> <Gold.Chemscore.Lipo>
77.0820

> <Gold.Chemscore.Internal_Hbond>
0.0000

> <Gold.Chemscore.DEClash>
0.1798

> <Gold.Chemscore.DEInternal>
1.3725

> <Gold.Chemscore.Rot>
1.7265

> <Gold.Chemscore.Internal.Correction>
   9.000000E+99

> <Gold.Chemscore.Hbonds>
donor molecule, donor type, donor heavy atom, donor atom, acceptor molecule, acceptor atom, score
      L1  H     5    41       P1 10175  0.26
      L1  H     9    28       P1  7948  0.78
      L1  H    12    29       P1  7948  0.32

> <Gold.Chemscore.Hbond.Weighted>
-6.0180

> <Gold.Chemscore.Metal.Weighted>
-0.0000

> <Gold.Chemscore.Lipo.Weighted>
-9.0186

> <Gold.Chemscore.Internal_Hbond.Weighted>
0.0000

> <Gold.Chemscore.DEClash.Weighted>
0.1798

> <Gold.Chemscore.DEInternal.Weighted>
1.3725

> <Gold.Chemscore.Rot.Weighted>
4.4199

> <Gold.Chemscore.Internal.Correction.Weighted>
   9.000000E+99

> <Gold.Protein.RotatedTorsions>
[ 6907 6896 6895 6894 ] final  -77.01 input  -60.11 | X-H torsion
[ 7974 7965 7964 7962 ] final  163.46 input  175.53 | X-H torsion
[ 8008 7997 7996 7995 ] final   -9.24 input   59.86 | X-H torsion
[ 10167 10162 10161 10158 ] final  -44.53 input  -65.29 | X-H torsion
[ 10718 10713 10712 10709 ] final   98.63 input   66.30 | X-H torsion
[ 10763 10752 10751 10750 ] final  -39.21 input  -60.55 | X-H torsion
[ 11005 11000 10999 10996 ] final -133.55 input  -57.11 | X-H torsion

> <Gold.Protein.ActiveResidues>
 VAL166  LYS551  ARG553  GLY616  TRP617  ASP618  TYR619  PRO620  LYS621  CYS622 
 ASP623  PHE694  ASN695  SER759  ASP760  ASP761  ALA762  ILE779  LEU786  VAL792 
 PHE793  MET794  SER795  GLU796  ALA797  LYS798  CYS799  TRP800  GLU811  SER814 

> <Gold.Protein.RotatedAtoms>
  150.7011  134.4486  159.5325 H   0  0  0  0  0  0  0  0  0  0  0  0  # atno 6907 bound_to 6896
  152.2183  134.8434  160.0498 H   0  0  0  0  0  0  0  0  0  0  0  0  # atno 6908 bound_to 6896
  151.9294  133.3572  159.3962 H   0  0  0  0  0  0  0  0  0  0  0  0  # atno 6909 bound_to 6896
  144.7588  139.8186  143.6340 H   0  0  0  0  0  0  0  0  0  0  0  0  # atno 7974 bound_to 7965
  154.5665  140.2360  155.8256 H   0  0  0  0  0  0  0  0  0  0  0  0  # atno 8008 bound_to 7997
  156.2072  140.3036  155.9612 H   0  0  0  0  0  0  0  0  0  0  0  0  # atno 8009 bound_to 7997
  155.2791  140.0421  157.3004 H   0  0  0  0  0  0  0  0  0  0  0  0  # atno 8010 bound_to 7997
  140.6893  143.2925  151.3508 H   0  0  0  0  0  0  0  0  0  0  0  0  # atno 10167 bound_to 10162
  157.6892  131.0646  150.4826 H   0  0  0  0  0  0  0  0  0  0  0  0  # atno 10718 bound_to 10713
  153.9256  135.6777  153.4746 H   0  0  0  0  0  0  0  0  0  0  0  0  # atno 10763 bound_to 10752
  153.1006  135.4830  154.8857 H   0  0  0  0  0  0  0  0  0  0  0  0  # atno 10764 bound_to 10752
  154.7455  135.3171  154.8609 H   0  0  0  0  0  0  0  0  0  0  0  0  # atno 10765 bound_to 10752
  140.9071  134.1616  157.4418 H   0  0  0  0  0  0  0  0  0  0  0  0  # atno 11005 bound_to 11000
  146.1630  139.4750  142.9976 LP  0  0  0  0  0  0  0  0  0  0  0  0  # atno 17320 bound_to 7965
  145.6687  141.0222  143.1669 LP  0  0  0  0  0  0  0  0  0  0  0  0  # atno 17321 bound_to 7965
  139.6281  144.0775  152.2452 LP  0  0  0  0  0  0  0  0  0  0  0  0  # atno 17342 bound_to 10162
  140.0241  144.6131  150.7542 LP  0  0  0  0  0  0  0  0  0  0  0  0  # atno 17343 bound_to 10162
  156.5157  130.4150  149.6277 LP  0  0  0  0  0  0  0  0  0  0  0  0  # atno 17370 bound_to 10713
  156.3200  130.7275  151.2185 LP  0  0  0  0  0  0  0  0  0  0  0  0  # atno 17371 bound_to 10713
  139.8751  134.9921  156.5580 LP  0  0  0  0  0  0  0  0  0  0  0  0  # atno 17394 bound_to 11000
  140.8158  133.8393  155.8850 LP  0  0  0  0  0  0  0  0  0  0  0  0  # atno 17395 bound_to 11000

$$$$
