AV-unprocessed.smi:1748|AV-procd|sdf|7037|dock7
  -GOLD-   22720 8253D 1   1.00000     0.00000
 Structure written by MMmdl.
 40 41  0  0  0  0  0  0  0  0  2 V2000
  144.4405  132.8643  151.7755 C   0  0  0  0  0  0  0  0  0  0  0  0
  143.4739  133.4906  152.7024 N   0  3  2  0  0  0  0  0  0  0  0  0
  142.0898  133.4868  152.1656 C   0  0  0  0  0  0  0  0  0  0  0  0
  141.0909  134.0253  153.2045 C   0  0  0  0  0  0  0  0  0  0  0  0
  141.5042  135.4191  153.7079 C   0  0  0  0  0  0  0  0  0  0  0  0
  142.9573  135.4146  154.2172 C   0  0  1  0  0  0  0  0  0  0  0  0
  143.0457  134.6502  155.4617 N   0  0  0  0  0  0  0  0  0  0  0  0
  143.4715  135.1298  156.6390 C   0  0  0  0  0  0  0  0  0  0  0  0
  143.8654  136.2854  156.7909 O   0  0  0  0  0  0  0  0  0  0  0  0
  143.4230  134.1788  157.5897 N   0  0  0  0  0  0  0  0  0  0  0  0
  143.7591  134.2599  158.9519 C   0  0  0  0  0  0  0  0  0  0  0  0
  145.0145  134.4497  159.4361 C   0  0  0  0  0  0  0  0  0  0  0  0
  145.2869  134.5376  160.8611 C   0  0  0  0  0  0  0  0  0  0  0  0
  146.7059  134.6685  161.3920 C   0  0  0  0  0  0  0  0  0  0  0  0
  147.0140  133.6020  162.1284 F   0  0  0  0  0  0  0  0  0  0  0  0
  147.5905  134.7571  160.3977 F   0  0  0  0  0  0  0  0  0  0  0  0
  146.8293  135.7515  162.1593 F   0  0  0  0  0  0  0  0  0  0  0  0
  144.2286  134.4134  161.6833 C   0  0  0  0  0  0  0  0  0  0  0  0
  142.9324  134.2392  161.1933 N   0  0  0  0  0  0  0  0  0  0  0  0
  142.6214  134.1537  159.8806 C   0  0  0  0  0  0  0  0  0  0  0  0
  141.4531  133.9959  159.5274 O   0  0  0  0  0  0  0  0  0  0  0  0
  143.8954  134.8493  153.1270 C   0  0  0  0  0  0  0  0  0  0  0  0
  142.1899  134.1705  161.8744 H   0  0  0  0  0  0  0  0  0  0  0  0
  144.5123  133.4285  150.8447 H   0  0  0  0  0  0  0  0  0  0  0  0
  144.1388  131.8443  151.5358 H   0  0  0  0  0  0  0  0  0  0  0  0
  145.4324  132.8194  152.2265 H   0  0  0  0  0  0  0  0  0  0  0  0
  142.0485  134.0906  151.2577 H   0  0  0  0  0  0  0  0  0  0  0  0
  141.8089  132.4710  151.8839 H   0  0  0  0  0  0  0  0  0  0  0  0
  140.0915  134.0692  152.7709 H   0  0  0  0  0  0  0  0  0  0  0  0
  141.0285  133.3318  154.0440 H   0  0  0  0  0  0  0  0  0  0  0  0
  141.4104  136.1375  152.8924 H   0  0  0  0  0  0  0  0  0  0  0  0
  140.8239  135.7561  154.4912 H   0  0  0  0  0  0  0  0  0  0  0  0
  143.2457  136.4451  154.4329 H   0  0  0  0  0  0  0  0  0  0  0  0
  142.7356  133.6898  155.4279 H   0  0  0  0  0  0  0  0  0  0  0  0
  143.1293  133.2603  157.2898 H   0  0  0  0  0  0  0  0  0  0  0  0
  145.8564  134.5640  158.7735 H   0  0  0  0  0  0  0  0  0  0  0  0
  144.2900  134.4312  162.7615 H   0  0  0  0  0  0  0  0  0  0  0  0
  144.9226  134.8172  153.4926 H   0  0  0  0  0  0  0  0  0  0  0  0
  143.8993  135.5122  152.2602 H   0  0  0  0  0  0  0  0  0  0  0  0
  143.4643  132.9190  153.5351 H   0  0  0  0  0  0  0  0  0  0  0  0
  1  2  1  0  0  0  0
  1 24  1  0  0  0  0
  1 25  1  0  0  0  0
  1 26  1  0  0  0  0
  2 22  1  0  0  0  0
  2  3  1  0  0  0  0
  2 40  1  0  0  0  0
  3  4  1  0  0  0  0
  3 27  1  0  0  0  0
  3 28  1  0  0  0  0
  4  5  1  0  0  0  0
  4 29  1  0  0  0  0
  4 30  1  0  0  0  0
  5  6  1  0  0  0  0
  5 31  1  0  0  0  0
  5 32  1  0  0  0  0
  6  7  1  0  0  0  0
  6 22  1  0  0  0  0
  6 33  1  0  0  0  0
  7  8  1  0  0  0  0
  7 34  1  0  0  0  0
  8  9  2  0  0  0  0
  8 10  1  0  0  0  0
 10 11  1  0  0  0  0
 10 35  1  0  0  0  0
 11 20  1  0  0  0  0
 11 12  2  0  0  0  0
 12 13  1  0  0  0  0
 12 36  1  0  0  0  0
 13 14  1  0  0  0  0
 13 18  2  0  0  0  0
 14 15  1  0  0  0  0
 14 16  1  0  0  0  0
 14 17  1  0  0  0  0
 18 19  1  0  0  0  0
 18 37  1  0  0  0  0
 19 23  1  0  0  0  0
 19 20  1  0  0  0  0
 20 21  2  0  0  0  0
 22 38  1  0  0  0  0
 22 39  1  0  0  0  0
M  CHG  1   2   1
M  END
> <s_m_source_file>
AV-unprocessed.smi

> <i_m_source_file_index>
1748

> <i_lp_mmshare_version>
43012

> <i_f3d_flags>
0

> <s_epik_input>
W0NIM11OMVtDSDJdW0NIMl1bQ0gyXVtDQEhdKFtDSDJdMSlbTkhdQyg9TylbTkhdYzJbY0hdYyhDKEYpKEYpRilbY0hdW25IXWMyPU8=

> <s_epik_cmdline>
J2VwaWtfcHl0aG9uJywgJy1waCcsICc3LjAnLCAnLXRuJywgJzgnLCAnLW1hJywgJzIwMCcsICctbWV0YWxfYmluZGluZycsICctaW1hZScsICc8aW5maWxlLm1hZT4nLCAnLW9tYWUnLCAnPG91dGZpbGUubWFlPic=

> <r_lp_tautomer_probability>
1

> <r_epik_Ionization_Penalty>
0.00746315

> <r_epik_Ionization_Penalty_Charging>
0.00744398

> <r_epik_Ionization_Penalty_Neutral>
1.91704e-05

> <r_epik_State_Penalty>
-0

> <r_epik_Charging_Adjusted_Penalty>
0.00744398

> <i_epik_Tot_Q>
1

> <i_epik_Tot_abs_Q>
1

> <r_epik_Metal_State_Penalty>
0.379332

> <b_epik_Metal_Only>
0

> <s_lp_Force_Field>
OPLS_2005

> <r_lp_Energy>
33.6429

> <b_lp_Chiralities_Consistent>
1

> <s_lp_Variant>
AV-unprocessed.smi:1748-2

> <Gold.Version>
5.8.1

> <Gold.Id.Protein>
6NUR|6NUR_protein|mol2

> <Gold.PLP.Fitness>
38.0358

> <Gold.PLP.PLP>
-28.0484

> <Gold.PLP.part.hbond>
-3.4506

> <Gold.PLP.part.metal>
0.0000

> <Gold.PLP.part.buried>
-1.8341

> <Gold.PLP.part.nonpolar>
-23.2889

> <Gold.PLP.part.repulsive>
0.0000

> <Gold.PLP.ligand.clash>
0.0000

> <Gold.PLP.ligand.torsion>
0.6679

> <Gold.PLP.Chemscore.Hbond>
3.7638

> <Gold.PLP.Chemscore.CHOScore>
0.0000

> <Gold.PLP.Chemscore.Metal>
0.0000

> <Gold.Chemscore.Hbonds>
donor molecule, donor type, donor heavy atom, donor atom, acceptor molecule, acceptor atom, score
      L1  H     2    40       P1 10957  2.00
      L1  H     7    34       P1 10957  1.00
      P1  H 11000 11005       L1    21  0.86

> <Gold.PLP.Chemscore.Internal.Correction>
0.0319

> <Gold.Rescore>
     Score         DG    S(hbond)    S(metal)    S(lipo)     H(rot)  DE(clash)    DE(int)     intcor
     16.00     -16.81       2.48        0.00      47.97       1.00       0.34       0.48       ----

> <Gold.Chemscore.Fitness>
15.9980

> <Gold.Chemscore.DG>
-16.8129

> <Gold.Chemscore.ZeroCoef>
-5.4800

> <Gold.Chemscore.Hbond>
2.4793

> <Gold.Chemscore.Metal>
0.0000

> <Gold.Chemscore.Lipo>
47.9675

> <Gold.Chemscore.Internal_Hbond>
0.0000

> <Gold.Chemscore.DEClash>
0.3383

> <Gold.Chemscore.DEInternal>
0.4766

> <Gold.Chemscore.Rot>
1.0000

> <Gold.Chemscore.Internal.Correction>
   9.000000E+99

> <Gold.Chemscore.Hbonds>
donor molecule, donor type, donor heavy atom, donor atom, acceptor molecule, acceptor atom, score
      L1  H     2    40       P1 10957  0.83
      L1  H     7    34       P1 10957  0.94
      P1  H 11000 11005       L1    21  0.81

> <Gold.Chemscore.Hbond.Weighted>
-8.2807

> <Gold.Chemscore.Metal.Weighted>
-0.0000

> <Gold.Chemscore.Lipo.Weighted>
-5.6122

> <Gold.Chemscore.Internal_Hbond.Weighted>
0.0000

> <Gold.Chemscore.DEClash.Weighted>
0.3383

> <Gold.Chemscore.DEInternal.Weighted>
0.4766

> <Gold.Chemscore.Rot.Weighted>
2.5600

> <Gold.Chemscore.Internal.Correction.Weighted>
   9.000000E+99

> <Gold.Protein.RotatedTorsions>
[ 6907 6896 6895 6894 ] final   54.73 input  -60.11 | X-H torsion
[ 7974 7965 7964 7962 ] final  135.16 input  175.53 | X-H torsion
[ 8008 7997 7996 7995 ] final  108.12 input   59.86 | X-H torsion
[ 10167 10162 10161 10158 ] final    3.44 input  -65.29 | X-H torsion
[ 10718 10713 10712 10709 ] final  108.29 input   66.30 | X-H torsion
[ 10763 10752 10751 10750 ] final  -75.73 input  -60.55 | X-H torsion
[ 11005 11000 10999 10996 ] final -135.49 input  -57.11 | X-H torsion

> <Gold.Protein.ActiveResidues>
 VAL166  LYS551  ARG553  GLY616  TRP617  ASP618  TYR619  PRO620  LYS621  CYS622 
 ASP623  PHE694  ASN695  SER759  ASP760  ASP761  ALA762  ILE779  LEU786  VAL792 
 PHE793  MET794  SER795  GLU796  ALA797  LYS798  CYS799  TRP800  GLU811  SER814 

> <Gold.Protein.RotatedAtoms>
  152.3468  134.7060  160.0247 H   0  0  0  0  0  0  0  0  0  0  0  0  # atno 6907 bound_to 6896
  151.7427  133.3317  159.3378 H   0  0  0  0  0  0  0  0  0  0  0  0  # atno 6908 bound_to 6896
  150.7514  134.6196  159.6174 H   0  0  0  0  0  0  0  0  0  0  0  0  # atno 6909 bound_to 6896
  144.9691  139.4625  143.5442 H   0  0  0  0  0  0  0  0  0  0  0  0  # atno 7974 bound_to 7965
  156.1878  140.3082  155.9272 H   0  0  0  0  0  0  0  0  0  0  0  0  # atno 8008 bound_to 7997
  155.3242  140.0457  157.3057 H   0  0  0  0  0  0  0  0  0  0  0  0  # atno 8009 bound_to 7997
  154.5416  140.2263  155.8641 H   0  0  0  0  0  0  0  0  0  0  0  0  # atno 8010 bound_to 7997
  140.6585  143.7364  150.7697 H   0  0  0  0  0  0  0  0  0  0  0  0  # atno 10167 bound_to 10162
  157.6592  131.0890  150.6283 H   0  0  0  0  0  0  0  0  0  0  0  0  # atno 10718 bound_to 10713
  154.4904  135.5821  153.6455 H   0  0  0  0  0  0  0  0  0  0  0  0  # atno 10763 bound_to 10752
  152.9861  135.6111  154.3132 H   0  0  0  0  0  0  0  0  0  0  0  0  # atno 10764 bound_to 10752
  154.3031  135.2846  155.2581 H   0  0  0  0  0  0  0  0  0  0  0  0  # atno 10765 bound_to 10752
  140.8893  134.1832  157.4539 H   0  0  0  0  0  0  0  0  0  0  0  0  # atno 11005 bound_to 11000
  146.3376  139.8891  142.8812 LP  0  0  0  0  0  0  0  0  0  0  0  0  # atno 17320 bound_to 7965
  145.2586  141.0069  143.3839 LP  0  0  0  0  0  0  0  0  0  0  0  0  # atno 17321 bound_to 7965
  140.1029  143.4771  152.2415 LP  0  0  0  0  0  0  0  0  0  0  0  0  # atno 17342 bound_to 10162
  139.5813  144.7512  151.3632 LP  0  0  0  0  0  0  0  0  0  0  0  0  # atno 17343 bound_to 10162
  156.6587  130.4506  149.5695 LP  0  0  0  0  0  0  0  0  0  0  0  0  # atno 17370 bound_to 10713
  156.2083  130.6663  151.1242 LP  0  0  0  0  0  0  0  0  0  0  0  0  # atno 17371 bound_to 10713
  139.8728  134.9851  156.5269 LP  0  0  0  0  0  0  0  0  0  0  0  0  # atno 17394 bound_to 11000
  140.8366  133.8237  155.9035 LP  0  0  0  0  0  0  0  0  0  0  0  0  # atno 17395 bound_to 11000

$$$$
