AV-unprocessed.smi:2416|AV-procd|sdf|9544|dock2
  -GOLD-   2272013173D 1   1.00000     0.00000
 Structure written by MMmdl.
 40 41  0  0  0  0  0  0  0  0  1 V2000
  150.5553  138.3756  154.6225 C   0  0  0  0  0  0  0  0  0  0  0  0
  149.6062  138.9209  153.7142 O   0  0  0  0  0  0  0  0  0  0  0  0
  148.7967  140.0097  154.1787 C   0  0  1  0  0  0  0  0  0  0  0  0
  149.6525  141.0095  154.9677 C   0  0  0  0  0  0  0  0  0  0  0  0
  147.8933  140.5225  153.0410 C   0  0  0  0  0  0  0  0  0  0  0  0
  146.8422  139.4869  153.4471 C   0  0  1  0  0  0  0  0  0  0  0  0
  146.9716  138.2620  152.6572 N   0  0  0  0  0  0  0  0  0  0  0  0
  145.9840  137.3802  152.4514 C   0  0  0  0  0  0  0  0  0  0  0  0
  144.8443  137.5240  152.8948 O   0  0  0  0  0  0  0  0  0  0  0  0
  146.4087  136.3372  151.7168 N   0  0  0  0  0  0  0  0  0  0  0  0
  145.6796  135.1816  151.3293 C   0  0  0  0  0  0  0  0  0  0  0  0
  146.4672  134.1090  150.8526 C   0  0  0  0  0  0  0  0  0  0  0  0
  145.8402  132.9140  150.4489 C   0  0  0  0  0  0  0  0  0  0  0  0
  144.4395  132.8243  150.5333 C   0  0  0  0  0  0  0  0  0  0  0  0
  143.7924  131.6954  150.1588 F   0  0  0  0  0  0  0  0  0  0  0  0
  143.7284  133.9378  151.0171 C   0  0  0  0  0  0  0  0  0  0  0  0
  144.3283  135.0835  151.4044 N   0  0  0  0  0  0  0  0  0  0  0  0
  147.5118  139.4207  154.8471 C   0  0  0  0  0  0  0  0  0  0  0  0
  147.6490  138.0510  155.5330 C   0  0  0  0  0  0  0  0  0  0  0  0
  146.8257  140.3221  155.8844 C   0  0  0  0  0  0  0  0  0  0  0  0
  151.1952  137.6745  154.0872 H   0  0  0  0  0  0  0  0  0  0  0  0
  150.0712  137.8192  155.4248 H   0  0  0  0  0  0  0  0  0  0  0  0
  151.1975  139.1379  155.0624 H   0  0  0  0  0  0  0  0  0  0  0  0
  149.0479  141.7951  155.4195 H   0  0  0  0  0  0  0  0  0  0  0  0
  150.3774  141.5171  154.3321 H   0  0  0  0  0  0  0  0  0  0  0  0
  150.1989  140.5149  155.7713 H   0  0  0  0  0  0  0  0  0  0  0  0
  147.5514  141.5448  153.2090 H   0  0  0  0  0  0  0  0  0  0  0  0
  148.2803  140.4099  152.0284 H   0  0  0  0  0  0  0  0  0  0  0  0
  145.8319  139.8998  153.4590 H   0  0  0  0  0  0  0  0  0  0  0  0
  147.8818  138.0659  152.2672 H   0  0  0  0  0  0  0  0  0  0  0  0
  147.3718  136.3638  151.4163 H   0  0  0  0  0  0  0  0  0  0  0  0
  147.5428  134.1954  150.7963 H   0  0  0  0  0  0  0  0  0  0  0  0
  146.4241  132.0825  150.0827 H   0  0  0  0  0  0  0  0  0  0  0  0
  142.6516  133.9092  151.0974 H   0  0  0  0  0  0  0  0  0  0  0  0
  146.6765  137.6506  155.8210 H   0  0  0  0  0  0  0  0  0  0  0  0
  148.2570  138.1175  156.4355 H   0  0  0  0  0  0  0  0  0  0  0  0
  148.1184  137.3040  154.8934 H   0  0  0  0  0  0  0  0  0  0  0  0
  145.8448  139.9340  156.1616 H   0  0  0  0  0  0  0  0  0  0  0  0
  146.6686  141.3329  155.5071 H   0  0  0  0  0  0  0  0  0  0  0  0
  147.4134  140.4059  156.7992 H   0  0  0  0  0  0  0  0  0  0  0  0
  1  2  1  0  0  0  0
  1 21  1  0  0  0  0
  1 22  1  0  0  0  0
  1 23  1  0  0  0  0
  2  3  1  0  0  0  0
  3 18  1  0  0  0  0
  3  4  1  0  0  0  0
  3  5  1  0  0  0  0
  4 24  1  0  0  0  0
  4 25  1  0  0  0  0
  4 26  1  0  0  0  0
  5  6  1  0  0  0  0
  5 27  1  0  0  0  0
  5 28  1  0  0  0  0
  6  7  1  0  0  0  0
  6 18  1  0  0  0  0
  6 29  1  0  0  0  0
  7  8  1  0  0  0  0
  7 30  1  0  0  0  0
  8  9  2  0  0  0  0
  8 10  1  0  0  0  0
 10 11  1  0  0  0  0
 10 31  1  0  0  0  0
 11 17  1  0  0  0  0
 11 12  2  0  0  0  0
 12 13  1  0  0  0  0
 12 32  1  0  0  0  0
 13 14  2  0  0  0  0
 13 33  1  0  0  0  0
 14 15  1  0  0  0  0
 14 16  1  0  0  0  0
 16 17  2  0  0  0  0
 16 34  1  0  0  0  0
 18 19  1  0  0  0  0
 18 20  1  0  0  0  0
 19 35  1  0  0  0  0
 19 36  1  0  0  0  0
 19 37  1  0  0  0  0
 20 38  1  0  0  0  0
 20 39  1  0  0  0  0
 20 40  1  0  0  0  0
M  END
> <s_m_source_file>
AV-unprocessed.smi

> <i_m_source_file_index>
2416

> <i_lp_mmshare_version>
43012

> <i_f3d_flags>
0

> <s_epik_input>
W0NIM11PW0NAQF0xKFtDSDNdKVtDSDJdW0NASF0oQzEoW0NIM10pW0NIM10pW05IXUMoPU8pW05IXWMyW2NIXVtjSF1jKEYpW2NIXW4y

> <s_epik_cmdline>
J2VwaWtfcHl0aG9uJywgJy1waCcsICc3LjAnLCAnLXRuJywgJzgnLCAnLW1hJywgJzIwMCcsICctbWV0YWxfYmluZGluZycsICctaW1hZScsICc8aW5maWxlLm1hZT4nLCAnLW9tYWUnLCAnPG91dGZpbGUubWFlPic=

> <r_lp_tautomer_probability>
1

> <r_epik_Ionization_Penalty>
3.67756e-05

> <r_epik_Ionization_Penalty_Charging>
0

> <r_epik_Ionization_Penalty_Neutral>
3.67756e-05

> <r_epik_State_Penalty>
-0

> <r_epik_Charging_Adjusted_Penalty>
0

> <i_epik_Tot_Q>
0

> <i_epik_Tot_abs_Q>
0

> <r_epik_Metal_State_Penalty>
-0

> <b_epik_Metal_Only>
0

> <s_lp_Force_Field>
OPLS_2005

> <r_lp_Energy>
27.553

> <b_lp_Chiralities_Consistent>
1

> <s_lp_Variant>
AV-unprocessed.smi:2416-1

> <Gold.Version>
5.8.1

> <Gold.Id.Protein>
6NUR|6NUR_protein|mol2

> <Gold.PLP.Fitness>
34.3382

> <Gold.PLP.PLP>
-27.0545

> <Gold.PLP.part.hbond>
-1.8616

> <Gold.PLP.part.metal>
0.0000

> <Gold.PLP.part.buried>
0.0624

> <Gold.PLP.part.nonpolar>
-27.4940

> <Gold.PLP.part.repulsive>
2.1840

> <Gold.PLP.ligand.clash>
0.0000

> <Gold.PLP.ligand.torsion>
0.5597

> <Gold.PLP.Chemscore.Hbond>
1.6721

> <Gold.PLP.Chemscore.CHOScore>
1.0000

> <Gold.PLP.Chemscore.Metal>
0.0000

> <Gold.Chemscore.Hbonds>
donor molecule, donor type, donor heavy atom, donor atom, acceptor molecule, acceptor atom, score
      L1  H     7    30       P1  7948  0.50
      L1  H    10    31       P1  7948  0.98
      L1  C    16    34       P1 10186  1.00

> <Gold.PLP.Chemscore.Internal.Correction>
0.3868

> <Gold.Rescore>
     Score         DG    S(hbond)    S(metal)    S(lipo)     H(rot)  DE(clash)    DE(int)     intcor
     12.63     -16.14       1.86        0.00      65.78       1.27       1.66       1.85       ----

> <Gold.Chemscore.Fitness>
12.6318

> <Gold.Chemscore.DG>
-16.1429

> <Gold.Chemscore.ZeroCoef>
-5.4800

> <Gold.Chemscore.Hbond>
1.8581

> <Gold.Chemscore.Metal>
0.0000

> <Gold.Chemscore.Lipo>
65.7779

> <Gold.Chemscore.Internal_Hbond>
0.0000

> <Gold.Chemscore.DEClash>
1.6598

> <Gold.Chemscore.DEInternal>
1.8513

> <Gold.Chemscore.Rot>
1.2653

> <Gold.Chemscore.Internal.Correction>
   9.000000E+99

> <Gold.Chemscore.Hbonds>
donor molecule, donor type, donor heavy atom, donor atom, acceptor molecule, acceptor atom, score
      L1  H     7    30       P1  7948  0.49
      L1  H    10    31       P1  7948  0.91

> <Gold.Chemscore.Hbond.Weighted>
-6.2061

> <Gold.Chemscore.Metal.Weighted>
-0.0000

> <Gold.Chemscore.Lipo.Weighted>
-7.6960

> <Gold.Chemscore.Internal_Hbond.Weighted>
0.0000

> <Gold.Chemscore.DEClash.Weighted>
1.6598

> <Gold.Chemscore.DEInternal.Weighted>
1.8513

> <Gold.Chemscore.Rot.Weighted>
3.2392

> <Gold.Chemscore.Internal.Correction.Weighted>
   9.000000E+99

> <Gold.Protein.RotatedTorsions>
[ 6907 6896 6895 6894 ] final   -9.40 input  -60.11 | X-H torsion
[ 7974 7965 7964 7962 ] final    7.21 input  175.53 | X-H torsion
[ 8008 7997 7996 7995 ] final -156.20 input   59.86 | X-H torsion
[ 10167 10162 10161 10158 ] final  169.48 input  -65.29 | X-H torsion
[ 10718 10713 10712 10709 ] final  -45.67 input   66.30 | X-H torsion
[ 10763 10752 10751 10750 ] final -154.55 input  -60.55 | X-H torsion
[ 11005 11000 10999 10996 ] final   -8.23 input  -57.11 | X-H torsion

> <Gold.Protein.ActiveResidues>
 VAL166  LYS551  ARG553  GLY616  TRP617  ASP618  TYR619  PRO620  LYS621  CYS622 
 ASP623  PHE694  ASN695  SER759  ASP760  ASP761  ALA762  ILE779  LEU786  VAL792 
 PHE793  MET794  SER795  GLU796  ALA797  LYS798  CYS799  TRP800  GLU811  SER814 

> <Gold.Protein.RotatedAtoms>
  151.4184  135.0994  159.9606 H   0  0  0  0  0  0  0  0  0  0  0  0  # atno 6907 bound_to 6896
  152.4996  133.8730  159.7318 H   0  0  0  0  0  0  0  0  0  0  0  0  # atno 6908 bound_to 6896
  150.9241  133.6788  159.2853 H   0  0  0  0  0  0  0  0  0  0  0  0  # atno 6909 bound_to 6896
  146.2428  140.0117  142.8406 H   0  0  0  0  0  0  0  0  0  0  0  0  # atno 7974 bound_to 7965
  155.7135  140.0781  157.2361 H   0  0  0  0  0  0  0  0  0  0  0  0  # atno 8008 bound_to 7997
  154.4055  140.1626  156.2376 H   0  0  0  0  0  0  0  0  0  0  0  0  # atno 8009 bound_to 7997
  155.9261  140.3394  155.6214 H   0  0  0  0  0  0  0  0  0  0  0  0  # atno 8010 bound_to 7997
  139.4993  144.3702  151.9733 H   0  0  0  0  0  0  0  0  0  0  0  0  # atno 10167 bound_to 10162
  156.2260  130.4169  149.8934 H   0  0  0  0  0  0  0  0  0  0  0  0  # atno 10718 bound_to 10713
  154.7850  135.3187  154.7906 H   0  0  0  0  0  0  0  0  0  0  0  0  # atno 10763 bound_to 10752
  153.8608  135.6853  153.4787 H   0  0  0  0  0  0  0  0  0  0  0  0  # atno 10764 bound_to 10752
  153.1499  135.4704  154.9560 H   0  0  0  0  0  0  0  0  0  0  0  0  # atno 10765 bound_to 10752
  140.7213  133.8826  155.8823 H   0  0  0  0  0  0  0  0  0  0  0  0  # atno 11005 bound_to 11000
  145.1322  140.9524  143.4538 LP  0  0  0  0  0  0  0  0  0  0  0  0  # atno 17320 bound_to 7965
  145.0377  139.3287  143.5992 LP  0  0  0  0  0  0  0  0  0  0  0  0  # atno 17321 bound_to 7965
  140.3138  144.3507  150.6027 LP  0  0  0  0  0  0  0  0  0  0  0  0  # atno 17342 bound_to 10162
  140.5778  143.2175  151.7484 LP  0  0  0  0  0  0  0  0  0  0  0  0  # atno 17343 bound_to 10162
  156.6564  130.8764  151.3540 LP  0  0  0  0  0  0  0  0  0  0  0  0  # atno 17370 bound_to 10713
  157.7110  130.9441  150.1090 LP  0  0  0  0  0  0  0  0  0  0  0  0  # atno 17371 bound_to 10713
  141.0001  134.1162  157.4325 LP  0  0  0  0  0  0  0  0  0  0  0  0  # atno 17394 bound_to 11000
  139.8847  135.0066  156.6389 LP  0  0  0  0  0  0  0  0  0  0  0  0  # atno 17395 bound_to 11000

$$$$
