AV-unprocessed.smi:2698|AV-procd|sdf|10420|dock4
  -GOLD-   2272014453D 1   1.00000     0.00000
 Structure written by MMmdl.
 33 33  0  0  0  0  0  0  0  0  2 V2000
  152.4682  143.1090  160.2903 C   0  0  0  0  0  0  0  0  0  0  0  0
  152.3983  141.6887  159.7095 C   0  0  0  0  0  0  0  0  0  0  0  0
  153.7949  141.0397  159.7141 C   0  0  0  0  0  0  0  0  0  0  0  0
  151.7352  141.7059  158.3123 C   0  0  0  0  0  0  0  0  0  0  0  0
  151.6374  140.3216  157.6644 C   0  0  0  0  0  0  0  0  0  0  0  0
  152.0842  139.3335  158.2473 O   0  0  0  0  0  0  0  0  0  0  0  0
  151.0548  140.2713  156.4555 N   0  0  0  0  0  0  0  0  0  0  0  0
  150.8283  139.0701  155.6514 C   0  0  1  0  0  0  0  0  0  0  0  0
  150.1085  139.3949  154.3223 C   0  0  0  0  0  0  0  0  0  0  0  0
  148.7928  140.1257  154.4484 C   0  0  0  0  0  0  0  0  0  0  0  0
  148.4981  141.4200  154.8172 C   0  0  0  0  0  0  0  0  0  0  0  0
  147.1186  141.6320  154.7468 N   0  0  0  0  0  0  0  0  0  0  0  0
  146.6332  140.4672  154.3332 C   0  0  0  0  0  0  0  0  0  0  0  0
  147.5755  139.5410  154.1406 N   0  0  0  0  0  0  0  0  0  0  0  0
  152.1509  138.3226  155.4483 C   0  0  0  0  0  0  0  0  0  0  0  0
  153.1320  138.9890  155.0486 O   0  0  0  0  0  0  0  0  0  0  0  0
  152.1600  137.0959  155.6915 O   0  5  0  0  0  0  0  0  0  0  0  0
  147.4310  138.5937  153.8216 H   0  0  0  0  0  0  0  0  0  0  0  0
  153.0938  143.7575  159.6763 H   0  0  0  0  0  0  0  0  0  0  0  0
  152.8835  143.1022  161.2985 H   0  0  0  0  0  0  0  0  0  0  0  0
  151.4773  143.5602  160.3490 H   0  0  0  0  0  0  0  0  0  0  0  0
  151.7632  141.1041  160.3768 H   0  0  0  0  0  0  0  0  0  0  0  0
  154.4687  141.5470  159.0228 H   0  0  0  0  0  0  0  0  0  0  0  0
  153.7559  139.9883  159.4308 H   0  0  0  0  0  0  0  0  0  0  0  0
  154.2436  141.0841  160.7066 H   0  0  0  0  0  0  0  0  0  0  0  0
  150.7306  142.1256  158.3854 H   0  0  0  0  0  0  0  0  0  0  0  0
  152.2883  142.3667  157.6437 H   0  0  0  0  0  0  0  0  0  0  0  0
  150.7390  141.1392  156.0471 H   0  0  0  0  0  0  0  0  0  0  0  0
  150.1790  138.3955  156.2136 H   0  0  0  0  0  0  0  0  0  0  0  0
  150.7617  139.9806  153.6737 H   0  0  0  0  0  0  0  0  0  0  0  0
  149.9143  138.4634  153.7890 H   0  0  0  0  0  0  0  0  0  0  0  0
  149.1689  142.2115  155.1174 H   0  0  0  0  0  0  0  0  0  0  0  0
  145.5815  140.2873  154.1655 H   0  0  0  0  0  0  0  0  0  0  0  0
  1  2  1  0  0  0  0
  1 19  1  0  0  0  0
  1 20  1  0  0  0  0
  1 21  1  0  0  0  0
  2  3  1  0  0  0  0
  2  4  1  0  0  0  0
  2 22  1  0  0  0  0
  3 23  1  0  0  0  0
  3 24  1  0  0  0  0
  3 25  1  0  0  0  0
  4  5  1  0  0  0  0
  4 26  1  0  0  0  0
  4 27  1  0  0  0  0
  5  6  2  0  0  0  0
  5  7  1  0  0  0  0
  7  8  1  0  0  0  0
  7 28  1  0  0  0  0
  8  9  1  0  0  0  0
  8 15  1  0  0  0  0
  8 29  1  0  0  0  0
  9 30  1  0  0  0  0
  9 31  1  0  0  0  0
  9 10  1  0  0  0  0
 10 11  2  0  0  0  0
 10 14  1  0  0  0  0
 11 32  1  0  0  0  0
 11 12  1  0  0  0  0
 12 13  2  0  0  0  0
 13 14  1  0  0  0  0
 13 33  1  0  0  0  0
 14 18  1  0  0  0  0
 15 16  2  0  0  0  0
 15 17  1  0  0  0  0
M  CHG  1  17  -1
M  END
> <s_m_source_file>
AV-unprocessed.smi

> <i_m_source_file_index>
2698

> <i_lp_mmshare_version>
43012

> <i_f3d_flags>
0

> <s_epik_input>
W0NIM11bQ0hdKFtDSDNdKVtDSDJdQyg9TylbTkhdW0NAQEhdKEMoPU8pW09IXSlbQ0gyXWMxW2NIXVtuSF1bY0hdbjE=

> <s_epik_cmdline>
J2VwaWtfcHl0aG9uJywgJy1waCcsICc3LjAnLCAnLXRuJywgJzgnLCAnLW1hJywgJzIwMCcsICctbWV0YWxfYmluZGluZycsICctaW1hZScsICc8aW5maWxlLm1hZT4nLCAnLW9tYWUnLCAnPG91dGZpbGUubWFlPic=

> <r_lp_tautomer_probability>
0.5

> <r_epik_Ionization_Penalty>
0.536153

> <r_epik_Ionization_Penalty_Charging>
0.536153

> <r_epik_Ionization_Penalty_Neutral>
4.95393e-08

> <r_epik_State_Penalty>
0.778213

> <r_epik_Charging_Adjusted_Penalty>
1.31437

> <i_epik_Tot_Q>
-1

> <i_epik_Tot_abs_Q>
1

> <r_epik_Metal_State_Penalty>
0.658344

> <b_epik_Metal_Only>
0

> <s_lp_Force_Field>
OPLS_2005

> <r_lp_Energy>
2.9569

> <b_lp_Chiralities_Consistent>
1

> <s_lp_Variant>
AV-unprocessed.smi:2698-4

> <Gold.Version>
5.8.1

> <Gold.Id.Protein>
6NUR|6NUR_protein|mol2

> <Gold.PLP.Fitness>
46.7296

> <Gold.PLP.PLP>
-29.6855

> <Gold.PLP.part.hbond>
-2.0000

> <Gold.PLP.part.metal>
0.0000

> <Gold.PLP.part.buried>
-4.2730

> <Gold.PLP.part.nonpolar>
-25.0275

> <Gold.PLP.part.repulsive>
0.2733

> <Gold.PLP.ligand.clash>
0.0000

> <Gold.PLP.ligand.torsion>
0.4147

> <Gold.PLP.Chemscore.Hbond>
3.9200

> <Gold.PLP.Chemscore.CHOScore>
1.9962

> <Gold.PLP.Chemscore.Metal>
0.0000

> <Gold.Chemscore.Hbonds>
donor molecule, donor type, donor heavy atom, donor atom, acceptor molecule, acceptor atom, score
      P1  H  7997  8009       L1    16  2.00
      P1  H 10752 10765       L1    17  1.86
      L1  C    11    32       P1  8028  0.89
      L1  C    13    33       P1 10175  0.96

> <Gold.PLP.Chemscore.Internal.Correction>
0.1250

> <Gold.Rescore>
     Score         DG    S(hbond)    S(metal)    S(lipo)     H(rot)  DE(clash)    DE(int)     intcor
     10.92     -11.71       1.87        0.00      65.74       3.01       0.00       0.79       ----

> <Gold.Chemscore.Fitness>
10.9240

> <Gold.Chemscore.DG>
-11.7144

> <Gold.Chemscore.ZeroCoef>
-5.4800

> <Gold.Chemscore.Hbond>
1.8741

> <Gold.Chemscore.Metal>
0.0000

> <Gold.Chemscore.Lipo>
65.7439

> <Gold.Chemscore.Internal_Hbond>
0.0000

> <Gold.Chemscore.DEClash>
0.0029

> <Gold.Chemscore.DEInternal>
0.7875

> <Gold.Chemscore.Rot>
3.0145

> <Gold.Chemscore.Internal.Correction>
   9.000000E+99

> <Gold.Chemscore.Hbonds>
donor molecule, donor type, donor heavy atom, donor atom, acceptor molecule, acceptor atom, score
      P1  H  7997  8009       L1    16  0.97
      P1  H 10752 10765       L1    17  0.88

> <Gold.Chemscore.Hbond.Weighted>
-6.2594

> <Gold.Chemscore.Metal.Weighted>
-0.0000

> <Gold.Chemscore.Lipo.Weighted>
-7.6920

> <Gold.Chemscore.Internal_Hbond.Weighted>
0.0000

> <Gold.Chemscore.DEClash.Weighted>
0.0029

> <Gold.Chemscore.DEInternal.Weighted>
0.7875

> <Gold.Chemscore.Rot.Weighted>
7.7171

> <Gold.Chemscore.Internal.Correction.Weighted>
   9.000000E+99

> <Gold.Protein.RotatedTorsions>
[ 6907 6896 6895 6894 ] final  135.76 input  -60.11 | X-H torsion
[ 7974 7965 7964 7962 ] final  179.65 input  175.53 | X-H torsion
[ 8008 7997 7996 7995 ] final -141.44 input   59.86 | X-H torsion
[ 10167 10162 10161 10158 ] final  169.16 input  -65.29 | X-H torsion
[ 10718 10713 10712 10709 ] final  -13.70 input   66.30 | X-H torsion
[ 10763 10752 10751 10750 ] final -166.03 input  -60.55 | X-H torsion
[ 11005 11000 10999 10996 ] final    9.15 input  -57.11 | X-H torsion

> <Gold.Protein.ActiveResidues>
 VAL166  LYS551  ARG553  GLY616  TRP617  ASP618  TYR619  PRO620  LYS621  CYS622 
 ASP623  PHE694  ASN695  SER759  ASP760  ASP761  ALA762  ILE779  LEU786  VAL792 
 PHE793  MET794  SER795  GLU796  ALA797  LYS798  CYS799  TRP800  GLU811  SER814 

> <Gold.Protein.RotatedAtoms>
  152.2969  133.5616  159.5592 H   0  0  0  0  0  0  0  0  0  0  0  0  # atno 6907 bound_to 6896
  150.7260  134.0348  159.3754 H   0  0  0  0  0  0  0  0  0  0  0  0  # atno 6908 bound_to 6896
  151.8251  135.0640  160.0481 H   0  0  0  0  0  0  0  0  0  0  0  0  # atno 6909 bound_to 6896
  144.7144  140.0580  143.6433 H   0  0  0  0  0  0  0  0  0  0  0  0  # atno 7974 bound_to 7965
  155.4778  140.0558  157.2971 H   0  0  0  0  0  0  0  0  0  0  0  0  # atno 8008 bound_to 7997
  154.4672  140.2024  156.0040 H   0  0  0  0  0  0  0  0  0  0  0  0  # atno 8009 bound_to 7997
  156.0995  140.3221  155.7927 H   0  0  0  0  0  0  0  0  0  0  0  0  # atno 8010 bound_to 7997
  139.4985  144.3736  151.9698 H   0  0  0  0  0  0  0  0  0  0  0  0  # atno 10167 bound_to 10162
  156.6265  130.4889  149.6145 H   0  0  0  0  0  0  0  0  0  0  0  0  # atno 10718 bound_to 10713
  154.6873  135.2964  154.9529 H   0  0  0  0  0  0  0  0  0  0  0  0  # atno 10763 bound_to 10752
  154.0504  135.6645  153.4804 H   0  0  0  0  0  0  0  0  0  0  0  0  # atno 10764 bound_to 10752
  153.0588  135.5128  154.7947 H   0  0  0  0  0  0  0  0  0  0  0  0  # atno 10765 bound_to 10752
  140.5290  134.0485  155.7867 H   0  0  0  0  0  0  0  0  0  0  0  0  # atno 11005 bound_to 11000
  145.9888  139.2998  143.0997 LP  0  0  0  0  0  0  0  0  0  0  0  0  # atno 17320 bound_to 7965
  145.8927  140.9293  143.0544 LP  0  0  0  0  0  0  0  0  0  0  0  0  # atno 17321 bound_to 7965
  140.3173  144.3469  150.6018 LP  0  0  0  0  0  0  0  0  0  0  0  0  # atno 17342 bound_to 10162
  140.5751  143.2177  151.7529 LP  0  0  0  0  0  0  0  0  0  0  0  0  # atno 17343 bound_to 10162
  156.2269  130.6771  151.1425 LP  0  0  0  0  0  0  0  0  0  0  0  0  # atno 17370 bound_to 10713
  157.7212  131.0680  150.6125 LP  0  0  0  0  0  0  0  0  0  0  0  0  # atno 17371 bound_to 10713
  141.1292  133.9331  157.2571 LP  0  0  0  0  0  0  0  0  0  0  0  0  # atno 17394 bound_to 11000
  139.9564  135.0164  156.9141 LP  0  0  0  0  0  0  0  0  0  0  0  0  # atno 17395 bound_to 11000

$$$$
