AV-unprocessed.smi:652|AV-procd|sdf|3197|dock4
  -GOLD-   22720 0123D 1   1.00000     0.00000
 Structure written by MMmdl.
 47 48  0  0  0  0  0  0  0  0  1 V2000
  152.3564  143.8343  160.8919 C   0  0  0  0  0  0  0  0  0  0  0  0
  152.5565  144.0914  159.3904 C   0  0  0  0  0  0  0  0  0  0  0  0
  151.7947  145.3375  158.9195 C   0  0  0  0  0  0  0  0  0  0  0  0
  152.1212  142.9359  158.6118 N   0  0  0  0  0  0  0  0  0  0  0  0
  150.8501  142.5319  158.4609 C   0  0  0  0  0  0  0  0  0  0  0  0
  149.8870  143.1232  158.9493 O   0  0  0  0  0  0  0  0  0  0  0  0
  150.6312  141.2616  157.6325 C   0  0  0  0  0  0  0  0  0  0  0  0
  151.1130  141.4008  156.1726 C   0  0  0  0  0  0  0  0  0  0  0  0
  150.5468  140.4423  155.2209 N   0  0  0  0  0  0  0  0  0  0  0  0
  149.1871  140.7884  154.8152 C   0  0  0  0  0  0  0  0  0  0  0  0
  148.6104  139.7671  153.8197 C   0  0  0  0  0  0  0  0  0  0  0  0
  148.6536  138.4613  154.3861 O   0  0  0  0  0  0  0  0  0  0  0  0
  149.9678  138.0666  154.7729 C   0  0  2  0  0  0  0  0  0  0  0  0
  149.9264  136.6301  155.3178 C   0  0  0  0  0  0  0  0  0  0  0  0
  149.5251  135.6623  154.3064 N   0  0  0  0  0  0  0  0  0  0  0  0
  149.6996  134.2888  154.5166 C   0  0  0  0  0  0  0  0  0  0  0  0
  149.2913  133.3107  153.5806 C   0  0  0  0  0  0  0  0  0  0  0  0
  149.5223  131.9630  153.9061 C   0  0  0  0  0  0  0  0  0  0  0  0
  150.1420  131.6929  155.1393 C   0  0  0  0  0  0  0  0  0  0  0  0
  150.5113  132.6699  155.9974 N   0  0  0  0  0  0  0  0  0  0  0  0
  150.2912  133.9527  155.6867 N   0  0  0  0  0  0  0  0  0  0  0  0
  150.5499  139.0914  155.7692 C   0  0  0  0  0  0  0  0  0  0  0  0
  152.6876  144.6893  161.4820 H   0  0  0  0  0  0  0  0  0  0  0  0
  152.9272  142.9668  161.2247 H   0  0  0  0  0  0  0  0  0  0  0  0
  151.3073  143.6535  161.1281 H   0  0  0  0  0  0  0  0  0  0  0  0
  153.6184  144.2652  159.2070 H   0  0  0  0  0  0  0  0  0  0  0  0
  152.1220  146.2247  159.4622 H   0  0  0  0  0  0  0  0  0  0  0  0
  150.7205  145.2301  159.0747 H   0  0  0  0  0  0  0  0  0  0  0  0
  151.9616  145.5218  157.8576 H   0  0  0  0  0  0  0  0  0  0  0  0
  152.8452  142.3880  158.1700 H   0  0  0  0  0  0  0  0  0  0  0  0
  151.1756  140.4486  158.1134 H   0  0  0  0  0  0  0  0  0  0  0  0
  149.5801  140.9717  157.6604 H   0  0  0  0  0  0  0  0  0  0  0  0
  150.8715  142.4116  155.8402 H   0  0  0  0  0  0  0  0  0  0  0  0
  152.2018  141.3386  156.1489 H   0  0  0  0  0  0  0  0  0  0  0  0
  148.5410  140.8431  155.6927 H   0  0  0  0  0  0  0  0  0  0  0  0
  149.1703  141.7739  154.3511 H   0  0  0  0  0  0  0  0  0  0  0  0
  147.5773  140.0162  153.5767 H   0  0  0  0  0  0  0  0  0  0  0  0
  149.1718  139.7834  152.8844 H   0  0  0  0  0  0  0  0  0  0  0  0
  150.5929  138.0601  153.8781 H   0  0  0  0  0  0  0  0  0  0  0  0
  150.9091  136.3568  155.7041 H   0  0  0  0  0  0  0  0  0  0  0  0
  149.2276  136.5835  156.1538 H   0  0  0  0  0  0  0  0  0  0  0  0
  149.2996  135.9957  153.3800 H   0  0  0  0  0  0  0  0  0  0  0  0
  148.8200  133.5666  152.6439 H   0  0  0  0  0  0  0  0  0  0  0  0
  149.2356  131.1662  153.2359 H   0  0  0  0  0  0  0  0  0  0  0  0
  150.3451  130.6771  155.4444 H   0  0  0  0  0  0  0  0  0  0  0  0
  151.5690  138.8020  156.0284 H   0  0  0  0  0  0  0  0  0  0  0  0
  149.9758  139.0735  156.6968 H   0  0  0  0  0  0  0  0  0  0  0  0
  1  2  1  0  0  0  0
  1 23  1  0  0  0  0
  1 24  1  0  0  0  0
  1 25  1  0  0  0  0
  2  3  1  0  0  0  0
  2  4  1  0  0  0  0
  2 26  1  0  0  0  0
  3 27  1  0  0  0  0
  3 28  1  0  0  0  0
  3 29  1  0  0  0  0
  4  5  1  0  0  0  0
  4 30  1  0  0  0  0
  5  6  2  0  0  0  0
  5  7  1  0  0  0  0
  7  8  1  0  0  0  0
  7 31  1  0  0  0  0
  7 32  1  0  0  0  0
  8  9  1  0  0  0  0
  8 33  1  0  0  0  0
  8 34  1  0  0  0  0
  9 22  1  0  0  0  0
  9 10  1  0  0  0  0
 10 11  1  0  0  0  0
 10 35  1  0  0  0  0
 10 36  1  0  0  0  0
 11 12  1  0  0  0  0
 11 37  1  0  0  0  0
 11 38  1  0  0  0  0
 12 13  1  0  0  0  0
 13 14  1  0  0  0  0
 13 22  1  0  0  0  0
 13 39  1  0  0  0  0
 14 15  1  0  0  0  0
 14 40  1  0  0  0  0
 14 41  1  0  0  0  0
 15 16  1  0  0  0  0
 15 42  1  0  0  0  0
 16 21  1  0  0  0  0
 16 17  2  0  0  0  0
 17 18  1  0  0  0  0
 17 43  1  0  0  0  0
 18 19  2  0  0  0  0
 18 44  1  0  0  0  0
 19 20  1  0  0  0  0
 19 45  1  0  0  0  0
 20 21  2  0  0  0  0
 22 46  1  0  0  0  0
 22 47  1  0  0  0  0
M  END
> <s_m_source_file>
AV-unprocessed.smi

> <i_m_source_file_index>
652

> <i_lp_mmshare_version>
43012

> <i_f3d_flags>
0

> <s_epik_input>
W0NIM11bQ0hdKFtDSDNdKVtOSF1DKD1PKVtDSDJdW0NIMl1OMVtDSDJdW0NIMl1PW0NASF0oW0NIMl0xKVtDSDJdW05IXWMyW2NIXVtjSF1bY0hdbm4y

> <s_epik_cmdline>
J2VwaWtfcHl0aG9uJywgJy1waCcsICc3LjAnLCAnLXRuJywgJzgnLCAnLW1hJywgJzIwMCcsICctbWV0YWxfYmluZGluZycsICctaW1hZScsICc8aW5maWxlLm1hZT4nLCAnLW9tYWUnLCAnPG91dGZpbGUubWFlPic=

> <r_lp_tautomer_probability>
0.999978

> <r_epik_Ionization_Penalty>
0.428793

> <r_epik_Ionization_Penalty_Charging>
0

> <r_epik_Ionization_Penalty_Neutral>
0.428793

> <r_epik_State_Penalty>
0.437051

> <r_epik_Charging_Adjusted_Penalty>
0.437051

> <i_epik_Tot_Q>
0

> <i_epik_Tot_abs_Q>
0

> <r_epik_Metal_State_Penalty>
0.432371

> <b_epik_Metal_Only>
0

> <s_lp_Force_Field>
OPLS_2005

> <r_lp_Energy>
25.2897

> <b_lp_Chiralities_Consistent>
1

> <s_lp_Variant>
AV-unprocessed.smi:652-6

> <Gold.Version>
5.8.1

> <Gold.Id.Protein>
6NUR|6NUR_protein|mol2

> <Gold.PLP.Fitness>
45.1436

> <Gold.PLP.PLP>
-39.9620

> <Gold.PLP.part.hbond>
-2.2122

> <Gold.PLP.part.metal>
0.0000

> <Gold.PLP.part.buried>
-3.8987

> <Gold.PLP.part.nonpolar>
-33.2592

> <Gold.PLP.part.repulsive>
0.4612

> <Gold.PLP.ligand.clash>
0.0000

> <Gold.PLP.ligand.torsion>
0.3910

> <Gold.PLP.Chemscore.Hbond>
1.9588

> <Gold.PLP.Chemscore.CHOScore>
0.0000

> <Gold.PLP.Chemscore.Metal>
0.0000

> <Gold.Chemscore.Hbonds>
donor molecule, donor type, donor heavy atom, donor atom, acceptor molecule, acceptor atom, score
      L1  H    15    42       P1  7948  1.00
      P1  H  7989  7998       L1     9  0.88

> <Gold.PLP.Chemscore.Internal.Correction>
0.0874

> <Gold.Rescore>
     Score         DG    S(hbond)    S(metal)    S(lipo)     H(rot)  DE(clash)    DE(int)     intcor
     13.03     -14.28       1.01        0.00      94.62       2.20       0.01       1.24       ----

> <Gold.Chemscore.Fitness>
13.0301

> <Gold.Chemscore.DG>
-14.2809

> <Gold.Chemscore.ZeroCoef>
-5.4800

> <Gold.Chemscore.Hbond>
1.0076

> <Gold.Chemscore.Metal>
0.0000

> <Gold.Chemscore.Lipo>
94.6228

> <Gold.Chemscore.Internal_Hbond>
0.0000

> <Gold.Chemscore.DEClash>
0.0073

> <Gold.Chemscore.DEInternal>
1.2434

> <Gold.Chemscore.Rot>
2.2013

> <Gold.Chemscore.Internal.Correction>
   9.000000E+99

> <Gold.Chemscore.Hbonds>
donor molecule, donor type, donor heavy atom, donor atom, acceptor molecule, acceptor atom, score
      L1  H    15    42       P1  7948  0.62
      P1  H  7989  7998       L1     9  0.08

> <Gold.Chemscore.Hbond.Weighted>
-3.3654

> <Gold.Chemscore.Metal.Weighted>
-0.0000

> <Gold.Chemscore.Lipo.Weighted>
-11.0709

> <Gold.Chemscore.Internal_Hbond.Weighted>
0.0000

> <Gold.Chemscore.DEClash.Weighted>
0.0073

> <Gold.Chemscore.DEInternal.Weighted>
1.2434

> <Gold.Chemscore.Rot.Weighted>
5.6354

> <Gold.Chemscore.Internal.Correction.Weighted>
   9.000000E+99

> <Gold.Protein.RotatedTorsions>
[ 6907 6896 6895 6894 ] final  -14.30 input  -60.11 | X-H torsion
[ 7974 7965 7964 7962 ] final  102.24 input  175.53 | X-H torsion
[ 8008 7997 7996 7995 ] final   53.64 input   59.86 | X-H torsion
[ 10167 10162 10161 10158 ] final   99.97 input  -65.29 | X-H torsion
[ 10718 10713 10712 10709 ] final   64.92 input   66.30 | X-H torsion
[ 10763 10752 10751 10750 ] final  162.93 input  -60.55 | X-H torsion
[ 11005 11000 10999 10996 ] final  -61.69 input  -57.11 | X-H torsion

> <Gold.Protein.ActiveResidues>
 VAL166  LYS551  ARG553  GLY616  TRP617  ASP618  TYR619  PRO620  LYS621  CYS622 
 ASP623  PHE694  ASN695  SER759  ASP760  ASP761  ALA762  ILE779  LEU786  VAL792 
 PHE793  MET794  SER795  GLU796  ALA797  LYS798  CYS799  TRP800  GLU811  SER814 

> <Gold.Protein.RotatedAtoms>
  151.3415  135.0864  159.9372 H   0  0  0  0  0  0  0  0  0  0  0  0  # atno 6907 bound_to 6896
  152.5210  133.9442  159.7651 H   0  0  0  0  0  0  0  0  0  0  0  0  # atno 6908 bound_to 6896
  150.9800  133.6202  159.2754 H   0  0  0  0  0  0  0  0  0  0  0  0  # atno 6909 bound_to 6896
  145.3617  139.2416  143.3503 H   0  0  0  0  0  0  0  0  0  0  0  0  # atno 7974 bound_to 7965
  155.4716  140.3465  155.4326 H   0  0  0  0  0  0  0  0  0  0  0  0  # atno 8008 bound_to 7997
  156.1097  140.1457  156.9385 H   0  0  0  0  0  0  0  0  0  0  0  0  # atno 8009 bound_to 7997
  154.4748  140.0889  156.7213 H   0  0  0  0  0  0  0  0  0  0  0  0  # atno 8010 bound_to 7997
  139.7569  144.6967  151.0349 H   0  0  0  0  0  0  0  0  0  0  0  0  # atno 10167 bound_to 10162
  157.6072  130.9186  149.9909 H   0  0  0  0  0  0  0  0  0  0  0  0  # atno 10718 bound_to 10713
  154.2859  135.2762  155.2676 H   0  0  0  0  0  0  0  0  0  0  0  0  # atno 10763 bound_to 10752
  154.5177  135.5765  153.6659 H   0  0  0  0  0  0  0  0  0  0  0  0  # atno 10764 bound_to 10752
  152.9922  135.6196  154.3021 H   0  0  0  0  0  0  0  0  0  0  0  0  # atno 10765 bound_to 10752
  141.1333  133.6632  156.5413 H   0  0  0  0  0  0  0  0  0  0  0  0  # atno 11005 bound_to 11000
  146.2924  140.4252  142.8734 LP  0  0  0  0  0  0  0  0  0  0  0  0  # atno 17320 bound_to 7965
  144.8642  140.7182  143.6088 LP  0  0  0  0  0  0  0  0  0  0  0  0  # atno 17321 bound_to 7965
  140.7803  143.4742  151.0104 LP  0  0  0  0  0  0  0  0  0  0  0  0  # atno 17342 bound_to 10162
  139.8429  143.7539  152.3180 LP  0  0  0  0  0  0  0  0  0  0  0  0  # atno 17343 bound_to 10162
  156.1162  130.3647  149.9964 LP  0  0  0  0  0  0  0  0  0  0  0  0  # atno 17370 bound_to 10713
  156.8053  130.9305  151.3645 LP  0  0  0  0  0  0  0  0  0  0  0  0  # atno 17371 bound_to 10713
  140.4137  134.7249  157.4851 LP  0  0  0  0  0  0  0  0  0  0  0  0  # atno 17394 bound_to 11000
  140.0409  134.6269  155.8982 LP  0  0  0  0  0  0  0  0  0  0  0  0  # atno 17395 bound_to 11000

$$$$
