AV-unprocessed.smi:897|AV-procd|sdf|4079|dock10
  -GOLD-   22720 1563D 1   1.00000     0.00000
 Structure written by MMmdl.
 35 37  0  0  0  0  0  0  0  0  1 V2000
  151.1676  144.3843  158.2139 C   0  0  0  0  0  0  0  0  0  0  0  0
  151.8637  143.2861  158.9898 C   0  0  0  0  0  0  0  0  0  0  0  0
  152.2747  143.4873  160.3205 C   0  0  0  0  0  0  0  0  0  0  0  0
  152.9200  142.4317  160.9960 C   0  0  0  0  0  0  0  0  0  0  0  0
  153.3738  142.6399  162.4329 C   0  0  0  0  0  0  0  0  0  0  0  0
  153.1255  141.2066  160.3090 C   0  0  0  0  0  0  0  0  0  0  0  0
  153.7859  140.0853  160.9754 C   0  0  0  0  0  0  0  0  0  0  0  0
  154.3083  139.1975  161.5025 N   0  0  0  0  0  0  0  0  0  0  0  0
  152.6714  141.1016  158.9651 C   0  0  0  0  0  0  0  0  0  0  0  0
  152.8550  139.9089  158.2404 N   0  0  0  0  0  0  0  0  0  0  0  0
  151.8628  139.4328  157.2822 C   0  0  2  0  0  0  0  0  0  0  0  0
  152.3047  138.1664  156.5373 C   0  0  0  0  0  0  0  0  0  0  0  0
  152.1992  138.6065  155.0721 C   0  0  1  0  0  0  0  0  0  0  0  0
  150.7443  138.8133  154.6293 C   0  0  0  0  0  0  0  0  0  0  0  0
  150.3821  140.1146  155.3445 C   0  0  0  0  0  0  0  0  0  0  0  0
  151.6719  140.4197  156.1180 C   0  0  2  0  0  0  0  0  0  0  0  0
  152.6327  139.9501  155.1857 O   0  0  0  0  0  0  0  0  0  0  0  0
  152.0568  142.1274  158.3285 N   0  0  0  0  0  0  0  0  0  0  0  0
  151.1374  145.3137  158.7835 H   0  0  0  0  0  0  0  0  0  0  0  0
  150.1427  144.0923  157.9825 H   0  0  0  0  0  0  0  0  0  0  0  0
  151.6903  144.5783  157.2769 H   0  0  0  0  0  0  0  0  0  0  0  0
  152.0990  144.4328  160.8126 H   0  0  0  0  0  0  0  0  0  0  0  0
  152.8710  141.9376  163.0983 H   0  0  0  0  0  0  0  0  0  0  0  0
  153.1486  143.6491  162.7783 H   0  0  0  0  0  0  0  0  0  0  0  0
  154.4502  142.4905  162.5199 H   0  0  0  0  0  0  0  0  0  0  0  0
  153.5822  139.2689  158.5262 H   0  0  0  0  0  0  0  0  0  0  0  0
  150.9121  139.2840  157.7963 H   0  0  0  0  0  0  0  0  0  0  0  0
  153.3356  137.8981  156.7744 H   0  0  0  0  0  0  0  0  0  0  0  0
  151.6727  137.3065  156.7612 H   0  0  0  0  0  0  0  0  0  0  0  0
  152.7906  138.0003  154.3855 H   0  0  0  0  0  0  0  0  0  0  0  0
  150.6801  138.9412  153.5482 H   0  0  0  0  0  0  0  0  0  0  0  0
  150.1028  137.9789  154.9148 H   0  0  0  0  0  0  0  0  0  0  0  0
  150.1707  140.9024  154.6205 H   0  0  0  0  0  0  0  0  0  0  0  0
  149.5162  140.0129  155.9997 H   0  0  0  0  0  0  0  0  0  0  0  0
  151.7775  141.4704  156.3912 H   0  0  0  0  0  0  0  0  0  0  0  0
  1  2  1  0  0  0  0
  1 19  1  0  0  0  0
  1 20  1  0  0  0  0
  1 21  1  0  0  0  0
  2 18  1  0  0  0  0
  2  3  2  0  0  0  0
  3  4  1  0  0  0  0
  3 22  1  0  0  0  0
  4  5  1  0  0  0  0
  4  6  2  0  0  0  0
  5 23  1  0  0  0  0
  5 24  1  0  0  0  0
  5 25  1  0  0  0  0
  6  7  1  0  0  0  0
  6  9  1  0  0  0  0
  7  8  3  0  0  0  0
  9 10  1  0  0  0  0
  9 18  2  0  0  0  0
 10 11  1  0  0  0  0
 10 26  1  0  0  0  0
 11 16  1  0  0  0  0
 11 12  1  0  0  0  0
 11 27  1  0  0  0  0
 12 13  1  0  0  0  0
 12 28  1  0  0  0  0
 12 29  1  0  0  0  0
 13 17  1  0  0  0  0
 13 14  1  0  0  0  0
 13 30  1  0  0  0  0
 14 15  1  0  0  0  0
 14 31  1  0  0  0  0
 14 32  1  0  0  0  0
 15 16  1  0  0  0  0
 15 33  1  0  0  0  0
 15 34  1  0  0  0  0
 16 17  1  0  0  0  0
 16 35  1  0  0  0  0
M  END
> <s_m_source_file>
AV-unprocessed.smi

> <i_m_source_file_index>
897

> <i_lp_mmshare_version>
43012

> <i_f3d_flags>
0

> <s_epik_input>
W0NIM11jMVtjSF1jKFtDSDNdKWMoQyNOKWMobjEpW05IXVtDQEhdKFtDSDJdW0NAQEhdMjMpW0NAQEhdKE8zKVtDSDJdW0NIMl0y

> <s_epik_cmdline>
J2VwaWtfcHl0aG9uJywgJy1waCcsICc3LjAnLCAnLXRuJywgJzgnLCAnLW1hJywgJzIwMCcsICctbWV0YWxfYmluZGluZycsICctaW1hZScsICc8aW5maWxlLm1hZT4nLCAnLW9tYWUnLCAnPG91dGZpbGUubWFlPic=

> <r_lp_tautomer_probability>
1

> <r_epik_Ionization_Penalty>
0.000502654

> <r_epik_Ionization_Penalty_Charging>
0

> <r_epik_Ionization_Penalty_Neutral>
0.000502654

> <r_epik_State_Penalty>
-0

> <r_epik_Charging_Adjusted_Penalty>
0

> <i_epik_Tot_Q>
0

> <i_epik_Tot_abs_Q>
0

> <r_epik_Metal_State_Penalty>
-0

> <b_epik_Metal_Only>
0

> <s_lp_Force_Field>
OPLS_2005

> <r_lp_Energy>
43.6406

> <b_lp_Chiralities_Consistent>
1

> <s_lp_Variant>
AV-unprocessed.smi:897-1

> <Gold.Version>
5.8.1

> <Gold.Id.Protein>
6NUR|6NUR_protein|mol2

> <Gold.PLP.Fitness>
44.6947

> <Gold.PLP.PLP>
-40.8632

> <Gold.PLP.part.hbond>
-2.0000

> <Gold.PLP.part.metal>
0.0000

> <Gold.PLP.part.buried>
-3.5924

> <Gold.PLP.part.nonpolar>
-35.8517

> <Gold.PLP.part.repulsive>
0.7411

> <Gold.PLP.ligand.clash>
0.0000

> <Gold.PLP.ligand.torsion>
0.2675

> <Gold.PLP.Chemscore.Hbond>
1.4488

> <Gold.PLP.Chemscore.CHOScore>
0.0000

> <Gold.PLP.Chemscore.Metal>
0.0000

> <Gold.Chemscore.Hbonds>
donor molecule, donor type, donor heavy atom, donor atom, acceptor molecule, acceptor atom, score
      P1  H  7989  7998       L1    17  0.28
      P1  H  7997  8008       L1    17  1.00

> <Gold.PLP.Chemscore.Internal.Correction>
0.0202

> <Gold.Rescore>
     Score         DG    S(hbond)    S(metal)    S(lipo)     H(rot)  DE(clash)    DE(int)     intcor
     16.46     -18.08       0.85        0.00     105.41       1.00       0.05       1.58       ----

> <Gold.Chemscore.Fitness>
16.4603

> <Gold.Chemscore.DG>
-18.0839

> <Gold.Chemscore.ZeroCoef>
-5.4800

> <Gold.Chemscore.Hbond>
0.8474

> <Gold.Chemscore.Metal>
0.0000

> <Gold.Chemscore.Lipo>
105.4143

> <Gold.Chemscore.Internal_Hbond>
0.0000

> <Gold.Chemscore.DEClash>
0.0451

> <Gold.Chemscore.DEInternal>
1.5785

> <Gold.Chemscore.Rot>
1.0000

> <Gold.Chemscore.Internal.Correction>
   9.000000E+99

> <Gold.Chemscore.Hbonds>
donor molecule, donor type, donor heavy atom, donor atom, acceptor molecule, acceptor atom, score
      P1  H  7989  7998       L1    17  0.01
      P1  H  7997  8008       L1    17  0.64

> <Gold.Chemscore.Hbond.Weighted>
-2.8304

> <Gold.Chemscore.Metal.Weighted>
-0.0000

> <Gold.Chemscore.Lipo.Weighted>
-12.3335

> <Gold.Chemscore.Internal_Hbond.Weighted>
0.0000

> <Gold.Chemscore.DEClash.Weighted>
0.0451

> <Gold.Chemscore.DEInternal.Weighted>
1.5785

> <Gold.Chemscore.Rot.Weighted>
2.5600

> <Gold.Chemscore.Internal.Correction.Weighted>
   9.000000E+99

> <Gold.Protein.RotatedTorsions>
[ 6907 6896 6895 6894 ] final   52.09 input  -60.11 | X-H torsion
[ 7974 7965 7964 7962 ] final   53.92 input  175.53 | X-H torsion
[ 8008 7997 7996 7995 ] final  -19.50 input   59.86 | X-H torsion
[ 10167 10162 10161 10158 ] final   63.78 input  -65.29 | X-H torsion
[ 10718 10713 10712 10709 ] final -166.77 input   66.30 | X-H torsion
[ 10763 10752 10751 10750 ] final   31.75 input  -60.55 | X-H torsion
[ 11005 11000 10999 10996 ] final  -74.35 input  -57.11 | X-H torsion

> <Gold.Protein.ActiveResidues>
 VAL166  LYS551  ARG553  GLY616  TRP617  ASP618  TYR619  PRO620  LYS621  CYS622 
 ASP623  PHE694  ASN695  SER759  ASP760  ASP761  ALA762  ILE779  LEU786  VAL792 
 PHE793  MET794  SER795  GLU796  ALA797  LYS798  CYS799  TRP800  GLU811  SER814 

> <Gold.Protein.RotatedAtoms>
  152.3196  134.7397  160.0316 H   0  0  0  0  0  0  0  0  0  0  0  0  # atno 6907 bound_to 6896
  151.7850  133.3348  159.3490 H   0  0  0  0  0  0  0  0  0  0  0  0  # atno 6908 bound_to 6896
  150.7363  134.5827  159.5991 H   0  0  0  0  0  0  0  0  0  0  0  0  # atno 6909 bound_to 6896
  145.9662  139.4106  143.0218 H   0  0  0  0  0  0  0  0  0  0  0  0  # atno 7974 bound_to 7965
  154.4832  140.2087  155.9714 H   0  0  0  0  0  0  0  0  0  0  0  0  # atno 8008 bound_to 7997
  156.1197  140.3215  155.8160 H   0  0  0  0  0  0  0  0  0  0  0  0  # atno 8009 bound_to 7997
  155.4489  140.0515  157.2994 H   0  0  0  0  0  0  0  0  0  0  0  0  # atno 8010 bound_to 7997
  140.1293  144.4658  150.6874 H   0  0  0  0  0  0  0  0  0  0  0  0  # atno 10167 bound_to 10162
  156.6727  130.9090  151.3046 H   0  0  0  0  0  0  0  0  0  0  0  0  # atno 10718 bound_to 10713
  153.0299  135.6431  154.1247 H   0  0  0  0  0  0  0  0  0  0  0  0  # atno 10763 bound_to 10752
  154.0971  135.2862  155.3261 H   0  0  0  0  0  0  0  0  0  0  0  0  # atno 10764 bound_to 10752
  154.6424  135.5455  153.7869 H   0  0  0  0  0  0  0  0  0  0  0  0  # atno 10765 bound_to 10752
  141.1634  133.6908  156.7350 H   0  0  0  0  0  0  0  0  0  0  0  0  # atno 11005 bound_to 11000
  145.7970  140.9788  143.1019 LP  0  0  0  0  0  0  0  0  0  0  0  0  # atno 17320 bound_to 7965
  144.6826  139.9754  143.7483 LP  0  0  0  0  0  0  0  0  0  0  0  0  # atno 17321 bound_to 7965
  140.6826  143.2334  151.5344 LP  0  0  0  0  0  0  0  0  0  0  0  0  # atno 17342 bound_to 10162
  139.5528  144.2353  152.1560 LP  0  0  0  0  0  0  0  0  0  0  0  0  # atno 17343 bound_to 10162
  157.7071  130.9398  150.0968 LP  0  0  0  0  0  0  0  0  0  0  0  0  # atno 17370 bound_to 10713
  156.1927  130.3655  149.8889 LP  0  0  0  0  0  0  0  0  0  0  0  0  # atno 17371 bound_to 10713
  140.2716  134.8387  157.3853 LP  0  0  0  0  0  0  0  0  0  0  0  0  # atno 17394 bound_to 11000
  140.1516  134.4843  155.7957 LP  0  0  0  0  0  0  0  0  0  0  0  0  # atno 17395 bound_to 11000

$$$$
