AV-unprocessed.smi:514|AV-procd|sdf|2778|dock1
  -GOLD-   2262023243D 1   1.00000     0.00000
 Structure written by MMmdl.
 45 47  0  0  0  0  0  0  0  0  3 V2000
  148.9266  132.0042  153.5339 C   0  0  0  0  0  0  0  0  0  0  0  0
  148.4755  133.3727  154.0490 C   0  0  0  0  0  0  0  0  0  0  0  0
  149.2576  133.7187  155.1794 O   0  0  0  0  0  0  0  0  0  0  0  0
  148.9503  135.0076  155.6828 C   0  0  0  0  0  0  0  0  0  0  0  0
  149.0604  136.0223  154.5332 C   0  0  0  0  0  0  0  0  0  0  0  0
  149.3413  137.3744  155.0088 N   0  0  0  0  0  0  0  0  0  0  0  0
  148.6634  138.5329  154.7586 C   0  0  0  0  0  0  0  0  0  0  0  0
  147.5031  138.6047  153.9731 N   0  0  0  0  0  0  0  0  0  0  0  0
  147.1650  139.7742  153.1600 C   0  0  0  0  0  0  0  0  0  0  0  0
  146.8090  139.3800  151.7152 C   0  0  0  0  0  0  0  0  0  0  0  0
  145.6996  138.4057  151.6999 N   0  3  0  0  0  0  0  0  0  0  0  0
  145.9588  137.2423  152.5711 C   0  0  0  0  0  0  0  0  0  0  0  0
  146.3460  137.7064  153.9878 C   0  0  0  0  0  0  0  0  0  0  0  0
  149.2225  139.6189  155.2981 N   0  0  0  0  0  0  0  0  0  0  0  0
  150.3306  139.1170  155.9594 C   0  0  0  0  0  0  0  0  0  0  0  0
  150.4297  137.7718  155.7950 C   0  0  0  0  0  0  0  0  0  0  0  0
  151.5306  136.9565  156.3578 C   0  0  0  0  0  0  0  0  0  0  0  0
  151.5908  135.7453  156.1579 O   0  0  0  0  0  0  0  0  0  0  0  0
  152.4148  137.7106  157.0845 N   0  5  0  0  0  0  0  0  0  0  0  0
  152.3468  139.0730  157.2816 C   0  0  0  0  0  0  0  0  0  0  0  0
  153.1862  139.6759  157.9519 O   0  0  0  0  0  0  0  0  0  0  0  0
  151.3226  139.7908  156.7225 N   0  0  0  0  0  0  0  0  0  0  0  0
  151.2302  141.2421  156.9055 C   0  0  0  0  0  0  0  0  0  0  0  0
  148.3441  131.7054  152.6623 H   0  0  0  0  0  0  0  0  0  0  0  0
  148.8012  131.2379  154.2990 H   0  0  0  0  0  0  0  0  0  0  0  0
  149.9778  132.0216  153.2450 H   0  0  0  0  0  0  0  0  0  0  0  0
  148.5934  134.1222  153.2651 H   0  0  0  0  0  0  0  0  0  0  0  0
  147.4189  133.3384  154.3185 H   0  0  0  0  0  0  0  0  0  0  0  0
  147.9472  135.0081  156.1096 H   0  0  0  0  0  0  0  0  0  0  0  0
  149.6352  135.2667  156.4902 H   0  0  0  0  0  0  0  0  0  0  0  0
  149.8437  135.7212  153.8381 H   0  0  0  0  0  0  0  0  0  0  0  0
  148.1526  136.0285  153.9354 H   0  0  0  0  0  0  0  0  0  0  0  0
  146.3335  140.3052  153.6252 H   0  0  0  0  0  0  0  0  0  0  0  0
  148.0024  140.4722  153.1402 H   0  0  0  0  0  0  0  0  0  0  0  0
  146.5231  140.2595  151.1380 H   0  0  0  0  0  0  0  0  0  0  0  0
  147.6766  138.9402  151.2214 H   0  0  0  0  0  0  0  0  0  0  0  0
  144.8677  138.8707  152.0340 H   0  0  0  0  0  0  0  0  0  0  0  0
  145.0691  136.6135  152.6050 H   0  0  0  0  0  0  0  0  0  0  0  0
  146.7570  136.6429  152.1325 H   0  0  0  0  0  0  0  0  0  0  0  0
  146.5203  136.8480  154.6287 H   0  0  0  0  0  0  0  0  0  0  0  0
  145.5059  138.2355  154.4402 H   0  0  0  0  0  0  0  0  0  0  0  0
  151.0945  141.4850  157.9602 H   0  0  0  0  0  0  0  0  0  0  0  0
  150.3979  141.6831  156.3579 H   0  0  0  0  0  0  0  0  0  0  0  0
  152.1407  141.7315  156.5568 H   0  0  0  0  0  0  0  0  0  0  0  0
  145.5416  138.0900  150.7537 H   0  0  0  0  0  0  0  0  0  0  0  0
  1  2  1  0  0  0  0
  1 24  1  0  0  0  0
  1 25  1  0  0  0  0
  1 26  1  0  0  0  0
  2  3  1  0  0  0  0
  2 27  1  0  0  0  0
  2 28  1  0  0  0  0
  3  4  1  0  0  0  0
  4  5  1  0  0  0  0
  4 29  1  0  0  0  0
  4 30  1  0  0  0  0
  5  6  1  0  0  0  0
  5 31  1  0  0  0  0
  5 32  1  0  0  0  0
  6 16  1  0  0  0  0
  6  7  1  0  0  0  0
  7  8  1  0  0  0  0
  7 14  2  0  0  0  0
  8 13  1  0  0  0  0
  8  9  1  0  0  0  0
  9 10  1  0  0  0  0
  9 33  1  0  0  0  0
  9 34  1  0  0  0  0
 10 11  1  0  0  0  0
 10 35  1  0  0  0  0
 10 36  1  0  0  0  0
 11 12  1  0  0  0  0
 11 37  1  0  0  0  0
 11 45  1  0  0  0  0
 12 13  1  0  0  0  0
 12 38  1  0  0  0  0
 12 39  1  0  0  0  0
 13 40  1  0  0  0  0
 13 41  1  0  0  0  0
 14 15  1  0  0  0  0
 15 22  1  0  0  0  0
 15 16  2  0  0  0  0
 16 17  1  0  0  0  0
 17 18  2  0  0  0  0
 17 19  1  0  0  0  0
 19 20  1  0  0  0  0
 20 21  2  0  0  0  0
 20 22  1  0  0  0  0
 22 23  1  0  0  0  0
 23 42  1  0  0  0  0
 23 43  1  0  0  0  0
 23 44  1  0  0  0  0
M  CHG  1  11   1
M  CHG  1  19  -1
M  END
> <s_m_source_file>
AV-unprocessed.smi

> <i_m_source_file_index>
514

> <i_lp_mmshare_version>
43012

> <i_f3d_flags>
0

> <s_epik_input>
W0NIM11uMWMoPU8pW25IXWMoPU8pYyhjMTIpbihbQ0gyXVtDSDJdT1tDSDJdW0NIM10pYyhuMilOM1tDSDJdW0NIMl1bTkhdW0NIMl1bQ0gyXTM=

> <s_epik_cmdline>
J2VwaWtfcHl0aG9uJywgJy1waCcsICc3LjAnLCAnLXRuJywgJzgnLCAnLW1hJywgJzIwMCcsICctbWV0YWxfYmluZGluZycsICctaW1hZScsICc8aW5maWxlLm1hZT4nLCAnLW9tYWUnLCAnPG91dGZpbGUubWFlPic=

> <r_epik_Ionization_Penalty>
5.92505

> <r_epik_Ionization_Penalty_Charging>
0.0655308

> <r_epik_Ionization_Penalty_Neutral>
5.85952

> <r_epik_State_Penalty>
5.86593

> <r_epik_Charging_Adjusted_Penalty>
5.93146

> <i_epik_Tot_Q>
0

> <i_epik_Tot_abs_Q>
2

> <r_epik_Metal_State_Penalty>
1.83024

> <b_epik_Metal_Only>
1

> <s_lp_Force_Field>
OPLS_2005

> <r_lp_Energy>
48.6867

> <b_lp_Chiralities_Consistent>
1

> <s_lp_Variant>
AV-unprocessed.smi:514-3

> <Gold.Version>
5.8.1

> <Gold.Id.Protein>
6NUR|6NUR_protein|mol2

> <Gold.PLP.Fitness>
37.1634

> <Gold.PLP.PLP>
-24.9833

> <Gold.PLP.part.hbond>
-4.0000

> <Gold.PLP.part.metal>
0.0000

> <Gold.PLP.part.buried>
1.1892

> <Gold.PLP.part.nonpolar>
-22.8345

> <Gold.PLP.part.repulsive>
0.1773

> <Gold.PLP.ligand.clash>
0.0000

> <Gold.PLP.ligand.torsion>
0.7146

> <Gold.PLP.Chemscore.Hbond>
4.4640

> <Gold.PLP.Chemscore.CHOScore>
0.0000

> <Gold.PLP.Chemscore.Metal>
0.0000

> <Gold.Chemscore.Hbonds>
donor molecule, donor type, donor heavy atom, donor atom, acceptor molecule, acceptor atom, score
      L1  H    11    37       P1 10175  2.00
      L1  H    11    45       P1 10171  0.40
      P1  H  7997  8008       L1    21  1.00
      P1  H 10752 10764       L1    18  1.00

> <Gold.PLP.Chemscore.Internal.Correction>
0.2174

> <Gold.Rescore>
     Score         DG    S(hbond)    S(metal)    S(lipo)     H(rot)  DE(clash)    DE(int)     intcor
     14.25     -18.07       3.16        0.00      55.11       1.72       1.81       2.00       ----

> <Gold.Chemscore.Fitness>
14.2467

> <Gold.Chemscore.DG>
-18.0660

> <Gold.Chemscore.ZeroCoef>
-5.4800

> <Gold.Chemscore.Hbond>
3.1572

> <Gold.Chemscore.Metal>
0.0000

> <Gold.Chemscore.Lipo>
55.1103

> <Gold.Chemscore.Internal_Hbond>
0.0000

> <Gold.Chemscore.DEClash>
1.8147

> <Gold.Chemscore.DEInternal>
2.0046

> <Gold.Chemscore.Rot>
1.7214

> <Gold.Chemscore.Internal.Correction>
   9.000000E+99

> <Gold.Chemscore.Hbonds>
donor molecule, donor type, donor heavy atom, donor atom, acceptor molecule, acceptor atom, score
      L1  H    11    37       P1 10175  0.93
      L1  H    11    45       P1 10171  0.39
      P1  H  7997  8008       L1    21  0.44
      P1  H 10752 10764       L1    18  0.55

> <Gold.Chemscore.Hbond.Weighted>
-10.5450

> <Gold.Chemscore.Metal.Weighted>
-0.0000

> <Gold.Chemscore.Lipo.Weighted>
-6.4479

> <Gold.Chemscore.Internal_Hbond.Weighted>
0.0000

> <Gold.Chemscore.DEClash.Weighted>
1.8147

> <Gold.Chemscore.DEInternal.Weighted>
2.0046

> <Gold.Chemscore.Rot.Weighted>
4.4069

> <Gold.Chemscore.Internal.Correction.Weighted>
   9.000000E+99

> <Gold.Protein.RotatedTorsions>
[ 6907 6896 6895 6894 ] final  159.08 input  -60.11 | X-H torsion
[ 7974 7965 7964 7962 ] final   47.77 input  175.53 | X-H torsion
[ 8008 7997 7996 7995 ] final  -68.44 input   59.86 | X-H torsion
[ 10167 10162 10161 10158 ] final    8.43 input  -65.29 | X-H torsion
[ 10718 10713 10712 10709 ] final  -61.02 input   66.30 | X-H torsion
[ 10763 10752 10751 10750 ] final  -35.80 input  -60.55 | X-H torsion
[ 11005 11000 10999 10996 ] final  -98.90 input  -57.11 | X-H torsion

> <Gold.Protein.ActiveResidues>
 VAL166  LYS551  ARG553  GLY616  TRP617  ASP618  TYR619  PRO620  LYS621  CYS622 
 ASP623  PHE694  ASN695  SER759  ASP760  ASP761  ALA762  ILE779  LEU786  VAL792 
 PHE793  MET794  SER795  GLU796  ALA797  LYS798  CYS799  TRP800  GLU811  SER814 

> <Gold.Protein.RotatedAtoms>
  151.9909  133.3790  159.4143 H   0  0  0  0  0  0  0  0  0  0  0  0  # atno 6907 bound_to 6896
  150.6922  134.3938  159.5097 H   0  0  0  0  0  0  0  0  0  0  0  0  # atno 6908 bound_to 6896
  152.1671  134.8864  160.0588 H   0  0  0  0  0  0  0  0  0  0  0  0  # atno 6909 bound_to 6896
  146.0266  139.4714  142.9863 H   0  0  0  0  0  0  0  0  0  0  0  0  # atno 7974 bound_to 7965
  154.4868  140.0873  156.7505 H   0  0  0  0  0  0  0  0  0  0  0  0  # atno 8008 bound_to 7997
  155.4329  140.3450  155.4264 H   0  0  0  0  0  0  0  0  0  0  0  0  # atno 8009 bound_to 7997
  156.1273  140.1491  156.9105 H   0  0  0  0  0  0  0  0  0  0  0  0  # atno 8010 bound_to 7997
  140.6314  143.7984  150.7301 H   0  0  0  0  0  0  0  0  0  0  0  0  # atno 10167 bound_to 10162
  156.0950  130.4194  150.0936 H   0  0  0  0  0  0  0  0  0  0  0  0  # atno 10718 bound_to 10713
  153.8692  135.6832  153.4776 H   0  0  0  0  0  0  0  0  0  0  0  0  # atno 10763 bound_to 10752
  153.1297  135.4703  154.9327 H   0  0  0  0  0  0  0  0  0  0  0  0  # atno 10764 bound_to 10752
  154.7722  135.3242  154.8116 H   0  0  0  0  0  0  0  0  0  0  0  0  # atno 10765 bound_to 10752
  141.1328  133.8281  157.0901 H   0  0  0  0  0  0  0  0  0  0  0  0  # atno 11005 bound_to 11000
  145.7107  141.0107  143.1455 LP  0  0  0  0  0  0  0  0  0  0  0  0  # atno 17320 bound_to 7965
  144.7012  139.8754  143.7443 LP  0  0  0  0  0  0  0  0  0  0  0  0  # atno 17321 bound_to 7965
  140.1596  143.4287  152.2076 LP  0  0  0  0  0  0  0  0  0  0  0  0  # atno 17342 bound_to 10162
  139.5528  144.7350  151.4383 LP  0  0  0  0  0  0  0  0  0  0  0  0  # atno 17343 bound_to 10162
  156.8937  130.9597  151.3585 LP  0  0  0  0  0  0  0  0  0  0  0  0  # atno 17370 bound_to 10713
  157.6109  130.8582  149.8950 LP  0  0  0  0  0  0  0  0  0  0  0  0  # atno 17371 bound_to 10713
  140.0397  134.9860  157.0939 LP  0  0  0  0  0  0  0  0  0  0  0  0  # atno 17394 bound_to 11000
  140.4154  134.1937  155.7163 LP  0  0  0  0  0  0  0  0  0  0  0  0  # atno 17395 bound_to 11000

$$$$
