AV-unprocessed.smi:1200|AV-procd|sdf|5025|dock10
  -GOLD-   22720 4 43D 1   1.00000     0.00000
 Structure written by MMmdl.
 42 43  0  0  0  0  0  0  0  0  3 V2000
  141.7150  138.0269  153.0451 C   0  0  0  0  0  0  0  0  0  0  0  0
  143.0651  138.3205  152.5792 N   0  5  0  0  0  0  0  0  0  0  0  0
  144.1812  138.0917  153.3219 C   0  0  0  0  0  0  0  0  0  0  0  0
  144.3158  137.5806  154.4386 O   0  0  0  0  0  0  0  0  0  0  0  0
  145.4430  138.5440  152.5779 C   0  0  0  0  0  0  0  0  0  0  0  0
  146.1942  139.5235  153.4013 N   0  3  2  0  0  0  0  0  0  0  0  0
  146.9302  140.5118  152.5731 C   0  0  0  0  0  0  0  0  0  0  0  0
  147.5691  141.6025  153.4493 C   0  0  0  0  0  0  0  0  0  0  0  0
  148.4992  140.9915  154.5099 C   0  0  1  0  0  0  0  0  0  0  0  0
  149.0140  142.0423  155.3833 N   0  0  0  0  0  0  0  0  0  0  0  0
  149.7757  141.8413  156.4684 C   0  0  0  0  0  0  0  0  0  0  0  0
  150.1443  140.7273  156.8380 O   0  0  0  0  0  0  0  0  0  0  0  0
  150.0759  143.0055  157.0701 N   0  0  0  0  0  0  0  0  0  0  0  0
  150.8314  143.2404  158.2523 C   0  0  0  0  0  0  0  0  0  0  0  0
  151.4109  142.2287  159.0575 C   0  0  0  0  0  0  0  0  0  0  0  0
  152.1258  142.6037  160.2115 C   0  0  0  0  0  0  0  0  0  0  0  0
  152.2318  143.9728  160.5231 C   0  0  0  0  0  0  0  0  0  0  0  0
  151.6779  144.9469  159.7717 N   0  0  0  0  0  0  0  0  0  0  0  0
  150.9946  144.5799  158.6665 C   0  0  0  0  0  0  0  0  0  0  0  0
  147.7294  139.9364  155.3248 C   0  0  0  0  0  0  0  0  0  0  0  0
  147.0836  138.8845  154.4084 C   0  0  0  0  0  0  0  0  0  0  0  0
  140.9628  138.2997  152.3054 H   0  0  0  0  0  0  0  0  0  0  0  0
  141.4620  138.5676  153.9575 H   0  0  0  0  0  0  0  0  0  0  0  0
  141.5702  136.9669  153.2556 H   0  0  0  0  0  0  0  0  0  0  0  0
  146.0888  137.7124  152.2870 H   0  0  0  0  0  0  0  0  0  0  0  0
  145.1098  139.0124  151.6508 H   0  0  0  0  0  0  0  0  0  0  0  0
  147.6952  139.9998  151.9870 H   0  0  0  0  0  0  0  0  0  0  0  0
  146.2467  140.9801  151.8637 H   0  0  0  0  0  0  0  0  0  0  0  0
  148.1246  142.3003  152.8212 H   0  0  0  0  0  0  0  0  0  0  0  0
  146.7816  142.1819  153.9341 H   0  0  0  0  0  0  0  0  0  0  0  0
  149.3324  140.5078  153.9958 H   0  0  0  0  0  0  0  0  0  0  0  0
  148.7628  142.9919  155.1501 H   0  0  0  0  0  0  0  0  0  0  0  0
  149.7387  143.8379  156.6089 H   0  0  0  0  0  0  0  0  0  0  0  0
  151.3187  141.1794  158.8283 H   0  0  0  0  0  0  0  0  0  0  0  0
  152.5798  141.8570  160.8459 H   0  0  0  0  0  0  0  0  0  0  0  0
  152.7721  144.2932  161.4016 H   0  0  0  0  0  0  0  0  0  0  0  0
  150.5634  145.3868  158.0918 H   0  0  0  0  0  0  0  0  0  0  0  0
  148.3985  139.4434  156.0312 H   0  0  0  0  0  0  0  0  0  0  0  0
  146.9539  140.4203  155.9209 H   0  0  0  0  0  0  0  0  0  0  0  0
  146.5185  138.1822  155.0217 H   0  0  0  0  0  0  0  0  0  0  0  0
  147.8556  138.3058  153.8990 H   0  0  0  0  0  0  0  0  0  0  0  0
  145.4947  140.0432  153.9123 H   0  0  0  0  0  0  0  0  0  0  0  0
  1  2  1  0  0  0  0
  1 22  1  0  0  0  0
  1 23  1  0  0  0  0
  1 24  1  0  0  0  0
  2  3  1  0  0  0  0
  3  4  2  0  0  0  0
  3  5  1  0  0  0  0
  5  6  1  0  0  0  0
  5 25  1  0  0  0  0
  5 26  1  0  0  0  0
  6 21  1  0  0  0  0
  6  7  1  0  0  0  0
  6 42  1  0  0  0  0
  7  8  1  0  0  0  0
  7 27  1  0  0  0  0
  7 28  1  0  0  0  0
  8  9  1  0  0  0  0
  8 29  1  0  0  0  0
  8 30  1  0  0  0  0
  9 10  1  0  0  0  0
  9 20  1  0  0  0  0
  9 31  1  0  0  0  0
 10 11  1  0  0  0  0
 10 32  1  0  0  0  0
 11 12  2  0  0  0  0
 11 13  1  0  0  0  0
 13 14  1  0  0  0  0
 13 33  1  0  0  0  0
 14 19  1  0  0  0  0
 14 15  2  0  0  0  0
 15 16  1  0  0  0  0
 15 34  1  0  0  0  0
 16 17  2  0  0  0  0
 16 35  1  0  0  0  0
 17 18  1  0  0  0  0
 17 36  1  0  0  0  0
 18 19  2  0  0  0  0
 19 37  1  0  0  0  0
 20 21  1  0  0  0  0
 20 38  1  0  0  0  0
 20 39  1  0  0  0  0
 21 40  1  0  0  0  0
 21 41  1  0  0  0  0
M  CHG  1   2  -1
M  CHG  1   6   1
M  END
> <s_m_source_file>
AV-unprocessed.smi

> <i_m_source_file_index>
1200

> <i_lp_mmshare_version>
43012

> <i_f3d_flags>
0

> <s_epik_input>
W0NIM11bTkhdQyg9TylbQ0gyXU4xW0NIMl1bQ0gyXVtDSF0oW0NIMl1bQ0gyXTEpW05IXUMoPU8pW05IXWMyW2NIXVtjSF1bY0hdbltjSF0y

> <s_epik_cmdline>
J2VwaWtfcHl0aG9uJywgJy1waCcsICc3LjAnLCAnLXRuJywgJzgnLCAnLW1hJywgJzIwMCcsICctbWV0YWxfYmluZGluZycsICctaW1hZScsICc8aW5maWxlLm1hZT4nLCAnLW9tYWUnLCAnPG91dGZpbGUubWFlPic=

> <r_epik_Ionization_Penalty>
6.14345

> <r_epik_Ionization_Penalty_Charging>
6.13946

> <r_epik_Ionization_Penalty_Neutral>
0.00398477

> <r_epik_State_Penalty>
6.94483

> <r_epik_Charging_Adjusted_Penalty>
13.0843

> <i_epik_Tot_Q>
0

> <i_epik_Tot_abs_Q>
2

> <r_epik_Metal_State_Penalty>
2.87819

> <b_epik_Metal_Only>
1

> <s_lp_Force_Field>
OPLS_2005

> <r_lp_Energy>
13.1486

> <b_lp_Chiralities_Consistent>
1

> <s_lp_Variant>
AV-unprocessed.smi:1200-4

> <Gold.Version>
5.8.1

> <Gold.Id.Protein>
6NUR|6NUR_protein|mol2

> <Gold.PLP.Fitness>
41.6343

> <Gold.PLP.PLP>
-34.4471

> <Gold.PLP.part.hbond>
-1.9775

> <Gold.PLP.part.metal>
0.0000

> <Gold.PLP.part.buried>
-5.2935

> <Gold.PLP.part.nonpolar>
-28.1933

> <Gold.PLP.part.repulsive>
0.7104

> <Gold.PLP.ligand.clash>
0.0000

> <Gold.PLP.ligand.torsion>
0.3651

> <Gold.PLP.Chemscore.Hbond>
1.7840

> <Gold.PLP.Chemscore.CHOScore>
0.8425

> <Gold.PLP.Chemscore.Metal>
0.0000

> <Gold.Chemscore.Hbonds>
donor molecule, donor type, donor heavy atom, donor atom, acceptor molecule, acceptor atom, score
      L1  H     6    42       P1 10175  0.07
      L1  H    10    32       P1  8028  0.93
      L1  H    13    33       P1  8028  1.00
      L1  C    19    37       P1  8029  0.21

> <Gold.PLP.Chemscore.Internal.Correction>
0.0379

> <Gold.Rescore>
     Score         DG    S(hbond)    S(metal)    S(lipo)     H(rot)  DE(clash)    DE(int)     intcor
     16.09     -19.35       1.94        0.00      98.86       1.63       0.36       2.89       ----

> <Gold.Chemscore.Fitness>
16.0870

> <Gold.Chemscore.DG>
-19.3459

> <Gold.Chemscore.ZeroCoef>
-5.4800

> <Gold.Chemscore.Hbond>
1.9394

> <Gold.Chemscore.Metal>
0.0000

> <Gold.Chemscore.Lipo>
98.8629

> <Gold.Chemscore.Internal_Hbond>
0.0000

> <Gold.Chemscore.DEClash>
0.3643

> <Gold.Chemscore.DEInternal>
2.8945

> <Gold.Chemscore.Rot>
1.6323

> <Gold.Chemscore.Internal.Correction>
   9.000000E+99

> <Gold.Chemscore.Hbonds>
donor molecule, donor type, donor heavy atom, donor atom, acceptor molecule, acceptor atom, score
      L1  H     6    42       P1 10175  0.04
      L1  H    10    32       P1  8028  0.90
      L1  H    13    33       P1  8028  0.94

> <Gold.Chemscore.Hbond.Weighted>
-6.4775

> <Gold.Chemscore.Metal.Weighted>
-0.0000

> <Gold.Chemscore.Lipo.Weighted>
-11.5670

> <Gold.Chemscore.Internal_Hbond.Weighted>
0.0000

> <Gold.Chemscore.DEClash.Weighted>
0.3643

> <Gold.Chemscore.DEInternal.Weighted>
2.8945

> <Gold.Chemscore.Rot.Weighted>
4.1786

> <Gold.Chemscore.Internal.Correction.Weighted>
   9.000000E+99

> <Gold.Protein.RotatedTorsions>
[ 6907 6896 6895 6894 ] final   80.95 input  -60.11 | X-H torsion
[ 7974 7965 7964 7962 ] final  -93.98 input  175.53 | X-H torsion
[ 8008 7997 7996 7995 ] final  -60.60 input   59.86 | X-H torsion
[ 10167 10162 10161 10158 ] final  131.07 input  -65.29 | X-H torsion
[ 10718 10713 10712 10709 ] final    4.49 input   66.30 | X-H torsion
[ 10763 10752 10751 10750 ] final    0.76 input  -60.55 | X-H torsion
[ 11005 11000 10999 10996 ] final -126.53 input  -57.11 | X-H torsion

> <Gold.Protein.ActiveResidues>
 VAL166  LYS551  ARG553  GLY616  TRP617  ASP618  TYR619  PRO620  LYS621  CYS622 
 ASP623  PHE694  ASN695  SER759  ASP760  ASP761  ALA762  ILE779  LEU786  VAL792 
 PHE793  MET794  SER795  GLU796  ALA797  LYS798  CYS799  TRP800  GLU811  SER814 

> <Gold.Protein.RotatedAtoms>
  152.5252  134.3279  159.9172 H   0  0  0  0  0  0  0  0  0  0  0  0  # atno 6907 bound_to 6896
  151.3229  133.4026  159.2663 H   0  0  0  0  0  0  0  0  0  0  0  0  # atno 6908 bound_to 6896
  150.9944  134.9289  159.7976 H   0  0  0  0  0  0  0  0  0  0  0  0  # atno 6909 bound_to 6896
  145.3793  140.9515  143.2403 H   0  0  0  0  0  0  0  0  0  0  0  0  # atno 7974 bound_to 7965
  154.4406  140.1036  156.6299 H   0  0  0  0  0  0  0  0  0  0  0  0  # atno 8008 bound_to 7997
  155.5616  140.3487  155.4474 H   0  0  0  0  0  0  0  0  0  0  0  0  # atno 8009 bound_to 7997
  156.0455  140.1292  157.0097 H   0  0  0  0  0  0  0  0  0  0  0  0  # atno 8010 bound_to 7997
  139.5401  144.6722  151.4654 H   0  0  0  0  0  0  0  0  0  0  0  0  # atno 10167 bound_to 10162
  156.8933  130.5695  149.5649 H   0  0  0  0  0  0  0  0  0  0  0  0  # atno 10718 bound_to 10713
  153.3166  135.6966  153.7068 H   0  0  0  0  0  0  0  0  0  0  0  0  # atno 10763 bound_to 10752
  153.5924  135.3477  155.2916 H   0  0  0  0  0  0  0  0  0  0  0  0  # atno 10764 bound_to 10752
  154.8588  135.4321  154.2318 H   0  0  0  0  0  0  0  0  0  0  0  0  # atno 10765 bound_to 10752
  140.9674  134.0853  157.3906 H   0  0  0  0  0  0  0  0  0  0  0  0  # atno 11005 bound_to 11000
  144.8519  139.5309  143.6852 LP  0  0  0  0  0  0  0  0  0  0  0  0  # atno 17320 bound_to 7965
  146.2849  139.6977  142.9202 LP  0  0  0  0  0  0  0  0  0  0  0  0  # atno 17321 bound_to 7965
  140.6626  143.8465  150.6905 LP  0  0  0  0  0  0  0  0  0  0  0  0  # atno 17342 bound_to 10162
  140.1865  143.4072  152.1895 LP  0  0  0  0  0  0  0  0  0  0  0  0  # atno 17343 bound_to 10162
  156.0618  130.5669  150.9208 LP  0  0  0  0  0  0  0  0  0  0  0  0  # atno 17370 bound_to 10713
  157.6070  131.0938  150.8861 LP  0  0  0  0  0  0  0  0  0  0  0  0  # atno 17371 bound_to 10713
  139.8899  135.0108  156.6708 LP  0  0  0  0  0  0  0  0  0  0  0  0  # atno 17394 bound_to 11000
  140.7379  133.9002  155.8257 LP  0  0  0  0  0  0  0  0  0  0  0  0  # atno 17395 bound_to 11000

$$$$
