AV-unprocessed.smi:92|AV-procd|sdf|842|dock2
  -GOLD-   2262017273D 1   1.00000     0.00000
 Structure written by MMmdl.
 61 64  0  0  0  0  0  0  0  0  2 V2000
  151.0283  143.2809  157.7502 C   0  0  0  0  0  0  0  0  0  0  0  0
  149.6471  142.6846  158.0587 C   0  0  0  0  0  0  0  0  0  0  0  0
  148.8037  142.5337  156.8457 N   0  3  1  0  0  0  0  0  0  0  0  0
  149.4345  141.6434  155.8376 C   0  0  0  0  0  0  0  0  0  0  0  0
  148.6125  141.5697  154.5366 C   0  0  0  0  0  0  0  0  0  0  0  0
  147.1125  141.2739  154.7451 C   0  0  1  0  0  0  0  0  0  0  0  0
  146.7991  139.8364  154.8372 N   0  0  0  0  0  0  0  0  0  0  0  0
  146.4058  139.1620  156.0730 C   0  0  0  0  0  0  0  0  0  0  0  0
  146.5303  139.1808  153.6783 C   0  0  0  0  0  0  0  0  0  0  0  0
  146.8422  139.7769  152.4972 N   0  0  0  0  0  0  0  0  0  0  0  0
  146.6071  139.1492  151.3416 C   0  0  0  0  0  0  0  0  0  0  0  0
  146.0690  137.9451  151.1412 N   0  0  0  0  0  0  0  0  0  0  0  0
  145.7367  137.3472  152.3212 C   0  0  0  0  0  0  0  0  0  0  0  0
  145.9353  137.8877  153.6234 C   0  0  0  0  0  0  0  0  0  0  0  0
  145.4773  136.9902  154.5815 N   0  0  0  0  0  0  0  0  0  0  0  0
  145.0494  135.9720  153.8862 C   0  0  0  0  0  0  0  0  0  0  0  0
  145.1394  136.1141  152.5201 N   0  0  0  0  0  0  0  0  0  0  0  0
  144.7816  135.1369  151.5331 C   0  0  0  0  0  0  0  0  0  0  0  0
  144.2088  133.7746  151.9347 C   0  0  0  0  0  0  0  0  0  0  0  0
  144.9731  133.0961  150.7764 C   0  0  0  0  0  0  0  0  0  0  0  0
  145.7188  131.8075  151.1555 C   0  0  0  0  0  0  0  0  0  0  0  0
  146.5727  131.3812  150.1131 O   0  0  0  0  0  0  0  0  0  0  0  0
  144.1788  132.7976  149.4849 C   0  0  0  0  0  0  0  0  0  0  0  0
  142.9769  132.0915  149.7164 O   0  0  0  0  0  0  0  0  0  0  0  0
  145.8557  134.3646  150.7595 C   0  0  0  0  0  0  0  0  0  0  0  0
  146.5315  142.1506  155.8816 C   0  0  1  0  0  0  0  0  0  0  0  0
  145.0470  141.8765  156.1775 C   0  0  0  0  0  0  0  0  0  0  0  0
  147.4061  142.1272  157.1503 C   0  0  0  0  0  0  0  0  0  0  0  0
  151.6497  143.2872  158.6458 H   0  0  0  0  0  0  0  0  0  0  0  0
  150.9640  144.3101  157.3984 H   0  0  0  0  0  0  0  0  0  0  0  0
  151.5497  142.6959  156.9921 H   0  0  0  0  0  0  0  0  0  0  0  0
  149.8063  141.7036  158.5085 H   0  0  0  0  0  0  0  0  0  0  0  0
  149.1255  143.2846  158.8057 H   0  0  0  0  0  0  0  0  0  0  0  0
  150.4266  142.0257  155.5943 H   0  0  0  0  0  0  0  0  0  0  0  0
  149.5965  140.6558  156.2639 H   0  0  0  0  0  0  0  0  0  0  0  0
  148.6961  142.5365  154.0385 H   0  0  0  0  0  0  0  0  0  0  0  0
  149.0520  140.8467  153.8485 H   0  0  0  0  0  0  0  0  0  0  0  0
  146.6196  141.6423  153.8454 H   0  0  0  0  0  0  0  0  0  0  0  0
  146.5901  138.0894  155.9995 H   0  0  0  0  0  0  0  0  0  0  0  0
  145.3441  139.3059  156.2725 H   0  0  0  0  0  0  0  0  0  0  0  0
  146.9639  139.5170  156.9329 H   0  0  0  0  0  0  0  0  0  0  0  0
  146.8904  139.6891  150.4500 H   0  0  0  0  0  0  0  0  0  0  0  0
  144.6477  135.0857  154.3557 H   0  0  0  0  0  0  0  0  0  0  0  0
  144.1060  135.6479  150.8464 H   0  0  0  0  0  0  0  0  0  0  0  0
  144.5581  133.4526  152.9174 H   0  0  0  0  0  0  0  0  0  0  0  0
  143.1224  133.7080  151.8678 H   0  0  0  0  0  0  0  0  0  0  0  0
  146.3081  131.9437  152.0629 H   0  0  0  0  0  0  0  0  0  0  0  0
  145.0185  130.9975  151.3619 H   0  0  0  0  0  0  0  0  0  0  0  0
  147.4656  131.4279  150.4197 H   0  0  0  0  0  0  0  0  0  0  0  0
  143.9237  133.7226  148.9669 H   0  0  0  0  0  0  0  0  0  0  0  0
  144.7732  132.2051  148.7888 H   0  0  0  0  0  0  0  0  0  0  0  0
  142.2780  132.7175  149.8305 H   0  0  0  0  0  0  0  0  0  0  0  0
  146.0678  134.7635  149.7668 H   0  0  0  0  0  0  0  0  0  0  0  0
  146.7765  134.2485  151.3337 H   0  0  0  0  0  0  0  0  0  0  0  0
  146.5717  143.1776  155.5146 H   0  0  0  0  0  0  0  0  0  0  0  0
  144.8953  140.8939  156.6236 H   0  0  0  0  0  0  0  0  0  0  0  0
  144.4505  141.9231  155.2659 H   0  0  0  0  0  0  0  0  0  0  0  0
  144.6443  142.6150  156.8712 H   0  0  0  0  0  0  0  0  0  0  0  0
  147.3987  141.1445  157.6208 H   0  0  0  0  0  0  0  0  0  0  0  0
  146.9752  142.8152  157.8765 H   0  0  0  0  0  0  0  0  0  0  0  0
  148.7541  143.4476  156.4178 H   0  0  0  0  0  0  0  0  0  0  0  0
  1  2  1  0  0  0  0
  1 29  1  0  0  0  0
  1 30  1  0  0  0  0
  1 31  1  0  0  0  0
  2  3  1  0  0  0  0
  2 32  1  0  0  0  0
  2 33  1  0  0  0  0
  3 28  1  0  0  0  0
  3  4  1  0  0  0  0
  3 61  1  0  0  0  0
  4  5  1  0  0  0  0
  4 34  1  0  0  0  0
  4 35  1  0  0  0  0
  5  6  1  0  0  0  0
  5 36  1  0  0  0  0
  5 37  1  0  0  0  0
  6  7  1  0  0  0  0
  6 26  1  0  0  0  0
  6 38  1  0  0  0  0
  7  8  1  0  0  0  0
  7  9  1  0  0  0  0
  8 39  1  0  0  0  0
  8 40  1  0  0  0  0
  8 41  1  0  0  0  0
  9 14  1  0  0  0  0
  9 10  2  0  0  0  0
 10 11  1  0  0  0  0
 11 12  2  0  0  0  0
 11 42  1  0  0  0  0
 12 13  1  0  0  0  0
 13 17  1  0  0  0  0
 13 14  2  0  0  0  0
 14 15  1  0  0  0  0
 15 16  2  0  0  0  0
 16 17  1  0  0  0  0
 16 43  1  0  0  0  0
 17 18  1  0  0  0  0
 18 25  1  0  0  0  0
 18 19  1  0  0  0  0
 18 44  1  0  0  0  0
 19 20  1  0  0  0  0
 19 45  1  0  0  0  0
 19 46  1  0  0  0  0
 20 21  1  0  0  0  0
 20 23  1  0  0  0  0
 20 25  1  0  0  0  0
 21 22  1  0  0  0  0
 21 47  1  0  0  0  0
 21 48  1  0  0  0  0
 22 49  1  0  0  0  0
 23 24  1  0  0  0  0
 23 50  1  0  0  0  0
 23 51  1  0  0  0  0
 24 52  1  0  0  0  0
 25 53  1  0  0  0  0
 25 54  1  0  0  0  0
 26 27  1  0  0  0  0
 26 28  1  0  0  0  0
 26 55  1  0  0  0  0
 27 56  1  0  0  0  0
 27 57  1  0  0  0  0
 27 58  1  0  0  0  0
 28 59  1  0  0  0  0
 28 60  1  0  0  0  0
M  CHG  1   3   1
M  END
> <s_m_source_file>
AV-unprocessed.smi

> <i_m_source_file_index>
92

> <i_lp_mmshare_version>
43012

> <i_f3d_flags>
0

> <s_epik_input>
W0NIM11bQ0gyXU4xW0NIMl1bQ0gyXVtDQEhdKFtDQEBIXShbQ0gzXSlbQ0gyXTEpTihbQ0gzXSljKG5bY0hdbjIpYyhjMjMpbltjSF1uM1tDSF0oW0NIMl00KVtDSDJdQzQoW0NIMl1bT0hdKVtDSDJdW09IXQ==

> <s_epik_cmdline>
J2VwaWtfcHl0aG9uJywgJy1waCcsICc3LjAnLCAnLXRuJywgJzgnLCAnLW1hJywgJzIwMCcsICctbWV0YWxfYmluZGluZycsICctaW1hZScsICc8aW5maWxlLm1hZT4nLCAnLW9tYWUnLCAnPG91dGZpbGUubWFlPic=

> <r_lp_tautomer_probability>
1

> <r_epik_Ionization_Penalty>
0.00235514

> <r_epik_Ionization_Penalty_Charging>
0.00137877

> <r_epik_Ionization_Penalty_Neutral>
0.000976366

> <r_epik_State_Penalty>
-0

> <r_epik_Charging_Adjusted_Penalty>
0.00137877

> <i_epik_Tot_Q>
1

> <i_epik_Tot_abs_Q>
1

> <r_epik_Metal_State_Penalty>
-0

> <b_epik_Metal_Only>
0

> <s_lp_Force_Field>
OPLS_2005

> <r_lp_Energy>
58.3953

> <b_lp_Chiralities_Consistent>
1

> <s_lp_Variant>
AV-unprocessed.smi:92-2

> <Gold.Version>
5.8.1

> <Gold.Id.Protein>
6NUR|6NUR_protein|mol2

> <Gold.PLP.Fitness>
55.8921

> <Gold.PLP.PLP>
-42.3568

> <Gold.PLP.part.hbond>
-4.7016

> <Gold.PLP.part.metal>
0.0000

> <Gold.PLP.part.buried>
-7.9171

> <Gold.PLP.part.nonpolar>
-34.2959

> <Gold.PLP.part.repulsive>
4.2995

> <Gold.PLP.ligand.clash>
0.0000

> <Gold.PLP.ligand.torsion>
1.0885

> <Gold.PLP.Chemscore.Hbond>
4.5358

> <Gold.PLP.Chemscore.CHOScore>
0.3690

> <Gold.PLP.Chemscore.Metal>
0.0000

> <Gold.Chemscore.Hbonds>
donor molecule, donor type, donor heavy atom, donor atom, acceptor molecule, acceptor atom, score
      L1  H     3    61       P1  8028  1.76
      L1  H    22    49       P1 10747  0.91
      L1  H    24    52       P1 10186  0.73
      P1  H 10785 10796       L1    24  0.60
      L1  C    11    42       P1  7957  0.15

> <Gold.PLP.Chemscore.Internal.Correction>
0.9981

> <Gold.Rescore>
     Score         DG    S(hbond)    S(metal)    S(lipo)     H(rot)  DE(clash)    DE(int)     intcor
     12.88     -17.61       3.06        0.00      86.93       3.22       2.20       2.52       ----

> <Gold.Chemscore.Fitness>
12.8838

> <Gold.Chemscore.DG>
-17.6091

> <Gold.Chemscore.ZeroCoef>
-5.4800

> <Gold.Chemscore.Hbond>
3.0559

> <Gold.Chemscore.Metal>
0.0000

> <Gold.Chemscore.Lipo>
86.9271

> <Gold.Chemscore.Internal_Hbond>
0.0000

> <Gold.Chemscore.DEClash>
2.2046

> <Gold.Chemscore.DEInternal>
2.5207

> <Gold.Chemscore.Rot>
3.2219

> <Gold.Chemscore.Internal.Correction>
   9.000000E+99

> <Gold.Chemscore.Hbonds>
donor molecule, donor type, donor heavy atom, donor atom, acceptor molecule, acceptor atom, score
      L1  H     3    61       P1  8028  0.75
      L1  H    22    49       P1 10747  0.89
      L1  H    24    52       P1 10186  0.73
      P1  H 10785 10796       L1    24  0.36

> <Gold.Chemscore.Hbond.Weighted>
-10.2068

> <Gold.Chemscore.Metal.Weighted>
-0.0000

> <Gold.Chemscore.Lipo.Weighted>
-10.1705

> <Gold.Chemscore.Internal_Hbond.Weighted>
0.0000

> <Gold.Chemscore.DEClash.Weighted>
2.2046

> <Gold.Chemscore.DEInternal.Weighted>
2.5207

> <Gold.Chemscore.Rot.Weighted>
8.2482

> <Gold.Chemscore.Internal.Correction.Weighted>
   9.000000E+99

> <Gold.Protein.RotatedTorsions>
[ 6907 6896 6895 6894 ] final -144.40 input  -60.11 | X-H torsion
[ 7974 7965 7964 7962 ] final   78.09 input  175.53 | X-H torsion
[ 8008 7997 7996 7995 ] final -119.64 input   59.86 | X-H torsion
[ 10167 10162 10161 10158 ] final  171.57 input  -65.29 | X-H torsion
[ 10718 10713 10712 10709 ] final  139.34 input   66.30 | X-H torsion
[ 10763 10752 10751 10750 ] final -131.36 input  -60.55 | X-H torsion
[ 11005 11000 10999 10996 ] final  141.38 input  -57.11 | X-H torsion

> <Gold.Protein.ActiveResidues>
 VAL166  LYS551  ARG553  GLY616  TRP617  ASP618  TYR619  PRO620  LYS621  CYS622 
 ASP623  PHE694  ASN695  SER759  ASP760  ASP761  ALA762  ILE779  LEU786  VAL792 
 PHE793  MET794  SER795  GLU796  ALA797  LYS798  CYS799  TRP800  GLU811  SER814 

> <Gold.Protein.RotatedAtoms>
  151.1136  133.5155  159.2604 H   0  0  0  0  0  0  0  0  0  0  0  0  # atno 6907 bound_to 6896
  151.1940  135.0414  159.8854 H   0  0  0  0  0  0  0  0  0  0  0  0  # atno 6908 bound_to 6896
  152.5451  134.0973  159.8356 H   0  0  0  0  0  0  0  0  0  0  0  0  # atno 6909 bound_to 6896
  145.6817  139.2526  143.1810 H   0  0  0  0  0  0  0  0  0  0  0  0  # atno 7974 bound_to 7965
  155.1190  140.0398  157.2745 H   0  0  0  0  0  0  0  0  0  0  0  0  # atno 8008 bound_to 7997
  154.6628  140.2595  155.7065 H   0  0  0  0  0  0  0  0  0  0  0  0  # atno 8009 bound_to 7997
  156.2626  140.2813  156.1107 H   0  0  0  0  0  0  0  0  0  0  0  0  # atno 8010 bound_to 7997
  139.5050  144.3471  151.9960 H   0  0  0  0  0  0  0  0  0  0  0  0  # atno 10167 bound_to 10162
  157.4154  131.1033  151.0410 H   0  0  0  0  0  0  0  0  0  0  0  0  # atno 10718 bound_to 10713
  154.8751  135.3832  154.4234 H   0  0  0  0  0  0  0  0  0  0  0  0  # atno 10763 bound_to 10752
  153.4935  135.7030  153.5876 H   0  0  0  0  0  0  0  0  0  0  0  0  # atno 10764 bound_to 10752
  153.4239  135.3895  155.2095 H   0  0  0  0  0  0  0  0  0  0  0  0  # atno 10765 bound_to 10752
  140.0397  134.9311  157.0820 H   0  0  0  0  0  0  0  0  0  0  0  0  # atno 11005 bound_to 11000
  146.0959  140.7602  142.9573 LP  0  0  0  0  0  0  0  0  0  0  0  0  # atno 17320 bound_to 7965
  144.7024  140.3710  143.7145 LP  0  0  0  0  0  0  0  0  0  0  0  0  # atno 17321 bound_to 7965
  140.2908  144.3755  150.6089 LP  0  0  0  0  0  0  0  0  0  0  0  0  # atno 17342 bound_to 10162
  140.5948  143.2167  151.7186 LP  0  0  0  0  0  0  0  0  0  0  0  0  # atno 17343 bound_to 10162
  157.1359  130.6122  149.5542 LP  0  0  0  0  0  0  0  0  0  0  0  0  # atno 17370 bound_to 10713
  155.9863  130.4898  150.7075 LP  0  0  0  0  0  0  0  0  0  0  0  0  # atno 17371 bound_to 10713
  140.4089  134.2002  155.7163 LP  0  0  0  0  0  0  0  0  0  0  0  0  # atno 17394 bound_to 11000
  141.1876  133.8277  157.1024 LP  0  0  0  0  0  0  0  0  0  0  0  0  # atno 17395 bound_to 11000

$$$$
