AV-unprocessed.smi:1601|AV-procd|sdf|6438|dock3
  -GOLD-   22720 7 83D 1   1.00000     0.00000
 Structure written by MMmdl.
 42 43  0  0  0  0  0  0  0  0  2 V2000
  150.8850  137.6932  154.1541 C   0  0  0  0  0  0  0  0  0  0  0  0
  150.3806  139.0120  154.7910 C   0  0  1  0  0  0  0  0  0  0  0  0
  151.5687  139.9559  155.1156 C   0  0  0  0  0  0  0  0  0  0  0  0
  151.4645  140.5737  156.4357 N   0  0  0  0  0  0  0  0  0  0  0  0
  152.2522  140.3048  157.4898 C   0  0  0  0  0  0  0  0  0  0  0  0
  153.1643  139.4779  157.4549 O   0  0  0  0  0  0  0  0  0  0  0  0
  151.9514  141.0884  158.7772 C   0  0  1  0  0  0  0  0  0  0  0  0
  152.8662  140.6863  159.9485 C   0  0  0  0  0  0  0  0  0  0  0  0
  152.0209  142.5227  158.5311 N   0  0  0  0  0  0  0  0  0  0  0  0
  152.7730  143.4809  159.1836 C   0  0  0  0  0  0  0  0  0  0  0  0
  152.4913  144.6854  158.6061 C   0  0  0  0  0  0  0  0  0  0  0  0
  151.5393  144.3627  157.5996 C   0  0  0  0  0  0  0  0  0  0  0  0
  151.2595  143.0702  157.5581 N   0  0  0  0  0  0  0  0  0  0  0  0
  149.3673  139.7281  153.9461 N   0  3  0  0  0  0  0  0  0  0  0  0
  148.1393  138.9515  153.6165 C   0  0  0  0  0  0  0  0  0  0  0  0
  147.1858  139.7669  152.7258 C   0  0  0  0  0  0  0  0  0  0  0  0
  146.8552  140.9905  153.3647 O   0  0  0  0  0  0  0  0  0  0  0  0
  148.0078  141.7911  153.5779 C   0  0  0  0  0  0  0  0  0  0  0  0
  148.9807  141.0509  154.5101 C   0  0  0  0  0  0  0  0  0  0  0  0
  151.6208  137.1936  154.7830 H   0  0  0  0  0  0  0  0  0  0  0  0
  151.3511  137.8719  153.1846 H   0  0  0  0  0  0  0  0  0  0  0  0
  150.0834  136.9667  154.0219 H   0  0  0  0  0  0  0  0  0  0  0  0
  149.8940  138.7376  155.7283 H   0  0  0  0  0  0  0  0  0  0  0  0
  152.5112  139.4164  155.0085 H   0  0  0  0  0  0  0  0  0  0  0  0
  151.6187  140.7826  154.4100 H   0  0  0  0  0  0  0  0  0  0  0  0
  150.7431  141.2704  156.5568 H   0  0  0  0  0  0  0  0  0  0  0  0
  150.9277  140.8439  159.0682 H   0  0  0  0  0  0  0  0  0  0  0  0
  152.8030  139.6165  160.1502 H   0  0  0  0  0  0  0  0  0  0  0  0
  152.5778  141.2078  160.8615 H   0  0  0  0  0  0  0  0  0  0  0  0
  153.9110  140.9273  159.7484 H   0  0  0  0  0  0  0  0  0  0  0  0
  153.4386  143.2273  159.9957 H   0  0  0  0  0  0  0  0  0  0  0  0
  152.9001  145.6504  158.8656 H   0  0  0  0  0  0  0  0  0  0  0  0
  151.0455  145.0247  156.9036 H   0  0  0  0  0  0  0  0  0  0  0  0
  148.3886  138.0410  153.0723 H   0  0  0  0  0  0  0  0  0  0  0  0
  147.6327  138.6574  154.5372 H   0  0  0  0  0  0  0  0  0  0  0  0
  147.6346  139.9610  151.7502 H   0  0  0  0  0  0  0  0  0  0  0  0
  146.2692  139.2047  152.5460 H   0  0  0  0  0  0  0  0  0  0  0  0
  148.4839  142.0334  152.6263 H   0  0  0  0  0  0  0  0  0  0  0  0
  147.7010  142.7347  154.0294 H   0  0  0  0  0  0  0  0  0  0  0  0
  148.5163  140.9086  155.4874 H   0  0  0  0  0  0  0  0  0  0  0  0
  149.8514  141.6849  154.6648 H   0  0  0  0  0  0  0  0  0  0  0  0
  149.8193  139.9087  153.0609 H   0  0  0  0  0  0  0  0  0  0  0  0
  1  2  1  0  0  0  0
  1 20  1  0  0  0  0
  1 21  1  0  0  0  0
  1 22  1  0  0  0  0
  2  3  1  0  0  0  0
  2 14  1  0  0  0  0
  2 23  1  0  0  0  0
  3  4  1  0  0  0  0
  3 24  1  0  0  0  0
  3 25  1  0  0  0  0
  4  5  1  0  0  0  0
  4 26  1  0  0  0  0
  5  6  2  0  0  0  0
  5  7  1  0  0  0  0
  7  8  1  0  0  0  0
  7  9  1  0  0  0  0
  7 27  1  0  0  0  0
  8 28  1  0  0  0  0
  8 29  1  0  0  0  0
  8 30  1  0  0  0  0
  9 13  1  0  0  0  0
  9 10  1  0  0  0  0
 10 11  2  0  0  0  0
 10 31  1  0  0  0  0
 11 12  1  0  0  0  0
 11 32  1  0  0  0  0
 12 13  2  0  0  0  0
 12 33  1  0  0  0  0
 14 19  1  0  0  0  0
 14 15  1  0  0  0  0
 14 42  1  0  0  0  0
 15 16  1  0  0  0  0
 15 34  1  0  0  0  0
 15 35  1  0  0  0  0
 16 17  1  0  0  0  0
 16 36  1  0  0  0  0
 16 37  1  0  0  0  0
 17 18  1  0  0  0  0
 18 19  1  0  0  0  0
 18 38  1  0  0  0  0
 18 39  1  0  0  0  0
 19 40  1  0  0  0  0
 19 41  1  0  0  0  0
M  CHG  1  14   1
M  END
> <s_m_source_file>
AV-unprocessed.smi

> <i_m_source_file_index>
1601

> <i_lp_mmshare_version>
43012

> <i_f3d_flags>
0

> <s_epik_input>
W0NIMl0xW0NIMl1PW0NIMl1bQ0gyXU4xW0NASF0oW0NIM10pW0NIMl1bTkhdQyg9TylbQ0BIXShbQ0gzXSluMltjSF1bY0hdW2NIXW4y

> <s_epik_cmdline>
J2VwaWtfcHl0aG9uJywgJy1waCcsICc3LjAnLCAnLXRuJywgJzgnLCAnLW1hJywgJzIwMCcsICctbWV0YWxfYmluZGluZycsICctaW1hZScsICc8aW5maWxlLm1hZT4nLCAnLW9tYWUnLCAnPG91dGZpbGUubWFlPic=

> <r_lp_tautomer_probability>
1

> <r_epik_Ionization_Penalty>
0.732551

> <r_epik_Ionization_Penalty_Charging>
0.732531

> <r_epik_Ionization_Penalty_Neutral>
2.04647e-05

> <r_epik_State_Penalty>
0.757939

> <r_epik_Charging_Adjusted_Penalty>
1.49047

> <i_epik_Tot_Q>
1

> <i_epik_Tot_abs_Q>
1

> <r_epik_Metal_State_Penalty>
0.757952

> <b_epik_Metal_Only>
0

> <s_lp_Force_Field>
OPLS_2005

> <r_lp_Energy>
25.2472

> <b_lp_Chiralities_Consistent>
1

> <s_lp_Variant>
AV-unprocessed.smi:1601-8

> <Gold.Version>
5.8.1

> <Gold.Id.Protein>
6NUR|6NUR_protein|mol2

> <Gold.PLP.Fitness>
47.0796

> <Gold.PLP.PLP>
-39.3648

> <Gold.PLP.part.hbond>
-1.9630

> <Gold.PLP.part.metal>
0.0000

> <Gold.PLP.part.buried>
0.1940

> <Gold.PLP.part.nonpolar>
-37.5079

> <Gold.PLP.part.repulsive>
0.5402

> <Gold.PLP.ligand.clash>
0.0000

> <Gold.PLP.ligand.torsion>
0.6959

> <Gold.PLP.Chemscore.Hbond>
1.9913

> <Gold.PLP.Chemscore.CHOScore>
1.0000

> <Gold.PLP.Chemscore.Metal>
0.0000

> <Gold.Chemscore.Hbonds>
donor molecule, donor type, donor heavy atom, donor atom, acceptor molecule, acceptor atom, score
      L1  H    14    42       P1  7957  0.94
      P1  H  7997  8008       L1     6  1.00
      L1  C    12    33       P1  8028  1.00

> <Gold.PLP.Chemscore.Internal.Correction>
0.1327

> <Gold.Rescore>
     Score         DG    S(hbond)    S(metal)    S(lipo)     H(rot)  DE(clash)    DE(int)     intcor
     15.70     -18.10       1.56        0.00     103.97       1.86       0.23       2.17       ----

> <Gold.Chemscore.Fitness>
15.6988

> <Gold.Chemscore.DG>
-18.1000

> <Gold.Chemscore.ZeroCoef>
-5.4800

> <Gold.Chemscore.Hbond>
1.5645

> <Gold.Chemscore.Metal>
0.0000

> <Gold.Chemscore.Lipo>
103.9665

> <Gold.Chemscore.Internal_Hbond>
0.0000

> <Gold.Chemscore.DEClash>
0.2346

> <Gold.Chemscore.DEInternal>
2.1665

> <Gold.Chemscore.Rot>
1.8631

> <Gold.Chemscore.Internal.Correction>
   9.000000E+99

> <Gold.Chemscore.Hbonds>
donor molecule, donor type, donor heavy atom, donor atom, acceptor molecule, acceptor atom, score
      L1  H    14    42       P1  7957  0.91
      P1  H  7997  8008       L1     6  0.63

> <Gold.Chemscore.Hbond.Weighted>
-5.2255

> <Gold.Chemscore.Metal.Weighted>
-0.0000

> <Gold.Chemscore.Lipo.Weighted>
-12.1641

> <Gold.Chemscore.Internal_Hbond.Weighted>
0.0000

> <Gold.Chemscore.DEClash.Weighted>
0.2346

> <Gold.Chemscore.DEInternal.Weighted>
2.1665

> <Gold.Chemscore.Rot.Weighted>
4.7697

> <Gold.Chemscore.Internal.Correction.Weighted>
   9.000000E+99

> <Gold.Protein.RotatedTorsions>
[ 6907 6896 6895 6894 ] final  -22.18 input  -60.11 | X-H torsion
[ 7974 7965 7964 7962 ] final    5.99 input  175.53 | X-H torsion
[ 8008 7997 7996 7995 ] final  -54.98 input   59.86 | X-H torsion
[ 10167 10162 10161 10158 ] final   -5.38 input  -65.29 | X-H torsion
[ 10718 10713 10712 10709 ] final   54.41 input   66.30 | X-H torsion
[ 10763 10752 10751 10750 ] final -140.81 input  -60.55 | X-H torsion
[ 11005 11000 10999 10996 ] final   16.05 input  -57.11 | X-H torsion

> <Gold.Protein.ActiveResidues>
 VAL166  LYS551  ARG553  GLY616  TRP617  ASP618  TYR619  PRO620  LYS621  CYS622 
 ASP623  PHE694  ASN695  SER759  ASP760  ASP761  ALA762  ILE779  LEU786  VAL792 
 PHE793  MET794  SER795  GLU796  ALA797  LYS798  CYS799  TRP800  GLU811  SER814 

> <Gold.Protein.RotatedAtoms>
  151.2224  135.0523  159.8954 H   0  0  0  0  0  0  0  0  0  0  0  0  # atno 6907 bound_to 6896
  152.5414  134.0626  159.8169 H   0  0  0  0  0  0  0  0  0  0  0  0  # atno 6908 bound_to 6896
  151.0794  133.5354  159.2653 H   0  0  0  0  0  0  0  0  0  0  0  0  # atno 6909 bound_to 6896
  146.2437  140.0301  142.8390 H   0  0  0  0  0  0  0  0  0  0  0  0  # atno 7974 bound_to 7965
  154.4180  140.1163  156.5403 H   0  0  0  0  0  0  0  0  0  0  0  0  # atno 8008 bound_to 7997
  155.6515  140.3496  155.4730 H   0  0  0  0  0  0  0  0  0  0  0  0  # atno 8009 bound_to 7997
  155.9789  140.1156  157.0735 H   0  0  0  0  0  0  0  0  0  0  0  0  # atno 8010 bound_to 7997
  140.6961  143.6315  150.8518 H   0  0  0  0  0  0  0  0  0  0  0  0  # atno 10167 bound_to 10162
  157.5254  130.8594  149.8615 H   0  0  0  0  0  0  0  0  0  0  0  0  # atno 10718 bound_to 10713
  154.8566  135.3542  154.5768 H   0  0  0  0  0  0  0  0  0  0  0  0  # atno 10763 bound_to 10752
  153.6379  135.6999  153.5256 H   0  0  0  0  0  0  0  0  0  0  0  0  # atno 10764 bound_to 10752
  153.2995  135.4210  155.1199 H   0  0  0  0  0  0  0  0  0  0  0  0  # atno 10765 bound_to 10752
  140.4515  134.1219  155.7703 H   0  0  0  0  0  0  0  0  0  0  0  0  # atno 11005 bound_to 11000
  145.1163  140.9435  143.4627 LP  0  0  0  0  0  0  0  0  0  0  0  0  # atno 17320 bound_to 7965
  145.0526  139.3169  143.5921 LP  0  0  0  0  0  0  0  0  0  0  0  0  # atno 17321 bound_to 7965
  140.0033  143.5721  152.2867 LP  0  0  0  0  0  0  0  0  0  0  0  0  # atno 17342 bound_to 10162
  139.6418  144.7655  151.2324 LP  0  0  0  0  0  0  0  0  0  0  0  0  # atno 17343 bound_to 10162
  156.0383  130.3745  150.1501 LP  0  0  0  0  0  0  0  0  0  0  0  0  # atno 17370 bound_to 10713
  156.9687  130.9828  151.3463 LP  0  0  0  0  0  0  0  0  0  0  0  0  # atno 17371 bound_to 10713
  141.1662  133.8698  157.1708 LP  0  0  0  0  0  0  0  0  0  0  0  0  # atno 17394 bound_to 11000
  140.0004  135.0030  157.0176 LP  0  0  0  0  0  0  0  0  0  0  0  0  # atno 17395 bound_to 11000

$$$$
