AV-unprocessed.smi:2198|AV-procd|sdf|8913|dock8
  -GOLD-   2272012133D 1   1.00000     0.00000
 Structure written by MMmdl.
 43 44  0  0  0  0  0  0  0  0  1 V2000
  146.3721  137.7959  152.5153 C   0  0  0  0  0  0  0  0  0  0  0  0
  147.1133  138.9607  153.1369 C   0  0  0  0  0  0  0  0  0  0  0  0
  146.5642  140.0952  153.4231 N   0  0  0  0  0  0  0  0  0  0  0  0
  147.3533  141.0995  154.0013 C   0  0  0  0  0  0  0  0  0  0  0  0
  146.6338  142.4020  154.3079 C   0  0  0  0  0  0  0  0  0  0  0  0
  148.6790  140.9052  154.2649 C   0  0  0  0  0  0  0  0  0  0  0  0
  149.5657  141.9783  154.8936 C   0  0  0  0  0  0  0  0  0  0  0  0
  149.9990  141.7032  156.3344 C   0  0  0  0  0  0  0  0  0  0  0  0
  149.9775  140.5538  156.7737 O   0  0  0  0  0  0  0  0  0  0  0  0
  150.3979  142.7635  157.0536 N   0  0  0  0  0  0  0  0  0  0  0  0
  150.8701  142.7192  158.4338 C   0  0  2  0  0  0  0  0  0  0  0  0
  151.3146  144.1196  158.8995 C   0  0  0  0  0  0  0  0  0  0  0  0
  151.8865  144.0776  160.3245 C   0  0  0  0  0  0  0  0  0  0  0  0
  153.0396  143.0675  160.4342 C   0  0  0  0  0  0  0  0  0  0  0  0
  152.6058  141.6613  159.9780 C   0  0  2  0  0  0  0  0  0  0  0  0
  153.7629  140.6571  160.0807 C   0  0  0  0  0  0  0  0  0  0  0  0
  152.0286  141.7107  158.5497 C   0  0  0  0  0  0  0  0  0  0  0  0
  149.2961  139.6066  153.9310 C   0  0  0  0  0  0  0  0  0  0  0  0
  150.4789  139.3263  154.1193 O   0  0  0  0  0  0  0  0  0  0  0  0
  148.4606  138.6986  153.3792 N   0  0  0  0  0  0  0  0  0  0  0  0
  148.8361  137.7945  153.1328 H   0  0  0  0  0  0  0  0  0  0  0  0
  145.9535  138.0879  151.5518 H   0  0  0  0  0  0  0  0  0  0  0  0
  145.5539  137.4830  153.1644 H   0  0  0  0  0  0  0  0  0  0  0  0
  147.0283  136.9389  152.3567 H   0  0  0  0  0  0  0  0  0  0  0  0
  146.6940  142.6356  155.3709 H   0  0  0  0  0  0  0  0  0  0  0  0
  145.5778  142.3431  154.0411 H   0  0  0  0  0  0  0  0  0  0  0  0
  147.0727  143.2253  153.7443 H   0  0  0  0  0  0  0  0  0  0  0  0
  150.4493  142.1109  154.2687 H   0  0  0  0  0  0  0  0  0  0  0  0
  149.0687  142.9487  154.8700 H   0  0  0  0  0  0  0  0  0  0  0  0
  150.3819  143.6692  156.6075 H   0  0  0  0  0  0  0  0  0  0  0  0
  150.0578  142.3748  159.0770 H   0  0  0  0  0  0  0  0  0  0  0  0
  152.0702  144.5138  158.2183 H   0  0  0  0  0  0  0  0  0  0  0  0
  150.4743  144.8139  158.8641 H   0  0  0  0  0  0  0  0  0  0  0  0
  152.2327  145.0699  160.6152 H   0  0  0  0  0  0  0  0  0  0  0  0
  151.0963  143.8084  161.0265 H   0  0  0  0  0  0  0  0  0  0  0  0
  153.8805  143.4094  159.8291 H   0  0  0  0  0  0  0  0  0  0  0  0
  153.3955  143.0321  161.4646 H   0  0  0  0  0  0  0  0  0  0  0  0
  151.8151  141.3200  160.6480 H   0  0  0  0  0  0  0  0  0  0  0  0
  154.5942  140.9429  159.4354 H   0  0  0  0  0  0  0  0  0  0  0  0
  153.4422  139.6570  159.7873 H   0  0  0  0  0  0  0  0  0  0  0  0
  154.1400  140.5951  161.1018 H   0  0  0  0  0  0  0  0  0  0  0  0
  151.6802  140.7183  158.2595 H   0  0  0  0  0  0  0  0  0  0  0  0
  152.8195  141.9770  157.8468 H   0  0  0  0  0  0  0  0  0  0  0  0
  1  2  1  0  0  0  0
  1 22  1  0  0  0  0
  1 23  1  0  0  0  0
  1 24  1  0  0  0  0
  2 20  1  0  0  0  0
  2  3  2  0  0  0  0
  3  4  1  0  0  0  0
  4  5  1  0  0  0  0
  4  6  2  0  0  0  0
  5 25  1  0  0  0  0
  5 26  1  0  0  0  0
  5 27  1  0  0  0  0
  6  7  1  0  0  0  0
  6 18  1  0  0  0  0
  7  8  1  0  0  0  0
  7 28  1  0  0  0  0
  7 29  1  0  0  0  0
  8  9  2  0  0  0  0
  8 10  1  0  0  0  0
 10 11  1  0  0  0  0
 10 30  1  0  0  0  0
 11 17  1  0  0  0  0
 11 12  1  0  0  0  0
 11 31  1  0  0  0  0
 12 13  1  0  0  0  0
 12 32  1  0  0  0  0
 12 33  1  0  0  0  0
 13 14  1  0  0  0  0
 13 34  1  0  0  0  0
 13 35  1  0  0  0  0
 14 15  1  0  0  0  0
 14 36  1  0  0  0  0
 14 37  1  0  0  0  0
 15 16  1  0  0  0  0
 15 17  1  0  0  0  0
 15 38  1  0  0  0  0
 16 39  1  0  0  0  0
 16 40  1  0  0  0  0
 16 41  1  0  0  0  0
 17 42  1  0  0  0  0
 17 43  1  0  0  0  0
 18 19  2  0  0  0  0
 18 20  1  0  0  0  0
 20 21  1  0  0  0  0
M  END
> <s_m_source_file>
AV-unprocessed.smi

> <i_m_source_file_index>
2198

> <i_lp_mmshare_version>
43012

> <i_f3d_flags>
0

> <s_epik_input>
W0NIM11jMW5jKFtDSDNdKWMoYyg9TylbbkhdMSlbQ0gyXUMoPU8pW05IXVtDQEBIXTJbQ0gyXVtDSDJdW0NIMl1bQ0BASF0oW0NIM10pW0NIMl0y

> <s_epik_cmdline>
J2VwaWtfcHl0aG9uJywgJy1waCcsICc3LjAnLCAnLXRuJywgJzgnLCAnLW1hJywgJzIwMCcsICctbWV0YWxfYmluZGluZycsICctaW1hZScsICc8aW5maWxlLm1hZT4nLCAnLW9tYWUnLCAnPG91dGZpbGUubWFlPic=

> <r_lp_tautomer_probability>
0.839158

> <r_epik_Ionization_Penalty>
0.000372587

> <r_epik_Ionization_Penalty_Charging>
0.000337977

> <r_epik_Ionization_Penalty_Neutral>
3.46101e-05

> <r_epik_State_Penalty>
0.09125

> <r_epik_Charging_Adjusted_Penalty>
0.091588

> <i_epik_Tot_Q>
0

> <i_epik_Tot_abs_Q>
0

> <r_epik_Metal_State_Penalty>
0.25197

> <b_epik_Metal_Only>
0

> <s_lp_Force_Field>
OPLS_2005

> <r_lp_Energy>
10.3768

> <b_lp_Chiralities_Consistent>
1

> <s_lp_Variant>
AV-unprocessed.smi:2198-3

> <Gold.Version>
5.8.1

> <Gold.Id.Protein>
6NUR|6NUR_protein|mol2

> <Gold.PLP.Fitness>
47.2621

> <Gold.PLP.PLP>
-40.1365

> <Gold.PLP.part.hbond>
-4.0000

> <Gold.PLP.part.metal>
0.0000

> <Gold.PLP.part.buried>
0.5143

> <Gold.PLP.part.nonpolar>
-38.4287

> <Gold.PLP.part.repulsive>
1.0571

> <Gold.PLP.ligand.clash>
0.0000

> <Gold.PLP.ligand.torsion>
0.4216

> <Gold.PLP.Chemscore.Hbond>
2.6552

> <Gold.PLP.Chemscore.CHOScore>
0.0000

> <Gold.PLP.Chemscore.Metal>
0.0000

> <Gold.Chemscore.Hbonds>
donor molecule, donor type, donor heavy atom, donor atom, acceptor molecule, acceptor atom, score
      L1  H    10    30       P1  8028  0.64
      L1  H    20    21       P1  7948  1.00
      P1  H  7989  7998       L1    19  1.00

> <Gold.PLP.Chemscore.Internal.Correction>
0.0033

> <Gold.Rescore>
     Score         DG    S(hbond)    S(metal)    S(lipo)     H(rot)  DE(clash)    DE(int)     intcor
     19.37     -22.77       2.60        0.00     105.86       1.48       1.76       1.64       ----

> <Gold.Chemscore.Fitness>
19.3680

> <Gold.Chemscore.DG>
-22.7670

> <Gold.Chemscore.ZeroCoef>
-5.4800

> <Gold.Chemscore.Hbond>
2.6018

> <Gold.Chemscore.Metal>
0.0000

> <Gold.Chemscore.Lipo>
105.8646

> <Gold.Chemscore.Internal_Hbond>
0.0000

> <Gold.Chemscore.DEClash>
1.7567

> <Gold.Chemscore.DEInternal>
1.6422

> <Gold.Chemscore.Rot>
1.4801

> <Gold.Chemscore.Internal.Correction>
   9.000000E+99

> <Gold.Chemscore.Hbonds>
donor molecule, donor type, donor heavy atom, donor atom, acceptor molecule, acceptor atom, score
      L1  H    10    30       P1  8028  0.60
      L1  H    20    21       P1  7948  0.91
      P1  H  7989  7998       L1    19  0.66

> <Gold.Chemscore.Hbond.Weighted>
-8.6900

> <Gold.Chemscore.Metal.Weighted>
-0.0000

> <Gold.Chemscore.Lipo.Weighted>
-12.3862

> <Gold.Chemscore.Internal_Hbond.Weighted>
0.0000

> <Gold.Chemscore.DEClash.Weighted>
1.7567

> <Gold.Chemscore.DEInternal.Weighted>
1.6422

> <Gold.Chemscore.Rot.Weighted>
3.7891

> <Gold.Chemscore.Internal.Correction.Weighted>
   9.000000E+99

> <Gold.Protein.RotatedTorsions>
[ 6907 6896 6895 6894 ] final  -51.67 input  -60.11 | X-H torsion
[ 7974 7965 7964 7962 ] final  133.32 input  175.53 | X-H torsion
[ 8008 7997 7996 7995 ] final  -72.59 input   59.86 | X-H torsion
[ 10167 10162 10161 10158 ] final  141.14 input  -65.29 | X-H torsion
[ 10718 10713 10712 10709 ] final  174.46 input   66.30 | X-H torsion
[ 10763 10752 10751 10750 ] final  154.10 input  -60.55 | X-H torsion
[ 11005 11000 10999 10996 ] final  116.05 input  -57.11 | X-H torsion

> <Gold.Protein.ActiveResidues>
 VAL166  LYS551  ARG553  GLY616  TRP617  ASP618  TYR619  PRO620  LYS621  CYS622 
 ASP623  PHE694  ASN695  SER759  ASP760  ASP761  ALA762  ILE779  LEU786  VAL792 
 PHE793  MET794  SER795  GLU796  ALA797  LYS798  CYS799  TRP800  GLU811  SER814 

> <Gold.Protein.RotatedAtoms>
  150.8590  134.7936  159.7067 H   0  0  0  0  0  0  0  0  0  0  0  0  # atno 6907 bound_to 6896
  152.4633  134.5131  159.9770 H   0  0  0  0  0  0  0  0  0  0  0  0  # atno 6908 bound_to 6896
  151.5239  133.3423  159.2942 H   0  0  0  0  0  0  0  0  0  0  0  0  # atno 6909 bound_to 6896
  144.9877  139.4438  143.5354 H   0  0  0  0  0  0  0  0  0  0  0  0  # atno 7974 bound_to 7965
  154.5179  140.0794  156.8115 H   0  0  0  0  0  0  0  0  0  0  0  0  # atno 8008 bound_to 7997
  155.3641  140.3419  155.4223 H   0  0  0  0  0  0  0  0  0  0  0  0  # atno 8009 bound_to 7997
  156.1648  140.1600  156.8538 H   0  0  0  0  0  0  0  0  0  0  0  0  # atno 8010 bound_to 7997
  139.5029  144.6190  151.6095 H   0  0  0  0  0  0  0  0  0  0  0  0  # atno 10167 bound_to 10162
  156.9493  131.0026  151.2952 H   0  0  0  0  0  0  0  0  0  0  0  0  # atno 10718 bound_to 10713
  154.1469  135.2817  155.3146 H   0  0  0  0  0  0  0  0  0  0  0  0  # atno 10763 bound_to 10752
  154.6246  135.5456  153.7616 H   0  0  0  0  0  0  0  0  0  0  0  0  # atno 10764 bound_to 10752
  153.0233  135.6447  154.1614 H   0  0  0  0  0  0  0  0  0  0  0  0  # atno 10765 bound_to 10752
  139.9029  134.9592  156.7138 H   0  0  0  0  0  0  0  0  0  0  0  0  # atno 11005 bound_to 11000
  146.3424  139.9190  142.8769 LP  0  0  0  0  0  0  0  0  0  0  0  0  # atno 17320 bound_to 7965
  145.2329  140.9980  143.3980 LP  0  0  0  0  0  0  0  0  0  0  0  0  # atno 17321 bound_to 7965
  140.5887  143.9818  150.6311 LP  0  0  0  0  0  0  0  0  0  0  0  0  # atno 17342 bound_to 10162
  140.2992  143.3272  152.0988 LP  0  0  0  0  0  0  0  0  0  0  0  0  # atno 17343 bound_to 10162
  157.5733  130.8325  149.8421 LP  0  0  0  0  0  0  0  0  0  0  0  0  # atno 17370 bound_to 10713
  156.0370  130.3749  150.1535 LP  0  0  0  0  0  0  0  0  0  0  0  0  # atno 17371 bound_to 10713
  140.7054  133.9269  155.8051 LP  0  0  0  0  0  0  0  0  0  0  0  0  # atno 17394 bound_to 11000
  141.0340  134.0716  157.3981 LP  0  0  0  0  0  0  0  0  0  0  0  0  # atno 17395 bound_to 11000

$$$$
