AV-unprocessed.smi:1326|AV-procd|sdf|5475|dock3
  -GOLD-   22720 5 43D 1   1.00000     0.00000
 Structure written by MMmdl.
 39 39  0  0  0  0  0  0  0  0  1 V2000
  151.0414  143.3844  157.6988 C   0  0  0  0  0  0  0  0  0  0  0  0
  151.0050  142.1030  156.8948 C   0  0  0  0  0  0  0  0  0  0  0  0
  149.9607  142.0458  155.9869 N   0  0  0  0  0  0  0  0  0  0  0  0
  149.8483  140.9136  155.1994 C   0  0  0  0  0  0  0  0  0  0  0  0
  148.6797  140.9337  154.2298 C   0  0  0  0  0  0  0  0  0  0  0  0
  150.7298  139.8878  155.3138 C   0  0  0  0  0  0  0  0  0  0  0  0
  150.6412  138.6226  154.4610 C   0  0  0  0  0  0  0  0  0  0  0  0
  150.4923  137.3090  155.2311 C   0  0  0  0  0  0  0  0  0  0  0  0
  150.5972  137.3000  156.4573 O   0  0  0  0  0  0  0  0  0  0  0  0
  150.2353  136.2113  154.5028 N   0  0  0  0  0  0  0  0  0  0  0  0
  150.0368  134.8722  155.0439 C   0  0  0  0  0  0  0  0  0  0  0  0
  148.7340  134.2453  154.5149 C   0  0  0  0  0  0  0  0  0  0  0  0
  148.9459  133.1741  153.4259 C   0  0  0  0  0  0  0  0  0  0  0  0
  147.6746  132.9140  152.6001 C   0  0  0  0  0  0  0  0  0  0  0  0
  149.4580  131.8653  154.0469 C   0  0  0  0  0  0  0  0  0  0  0  0
  151.8217  140.0034  156.3098 C   0  0  0  0  0  0  0  0  0  0  0  0
  152.6419  139.1011  156.4741 O   0  0  0  0  0  0  0  0  0  0  0  0
  151.8956  141.1763  157.0787 N   0  0  0  0  0  0  0  0  0  0  0  0
  149.2840  142.7860  155.8682 H   0  0  0  0  0  0  0  0  0  0  0  0
  151.8065  143.3364  158.4749 H   0  0  0  0  0  0  0  0  0  0  0  0
  150.0793  143.5602  158.1809 H   0  0  0  0  0  0  0  0  0  0  0  0
  151.2651  144.2318  157.0500 H   0  0  0  0  0  0  0  0  0  0  0  0
  148.0132  140.0920  154.4182 H   0  0  0  0  0  0  0  0  0  0  0  0
  149.0360  140.8688  153.2019 H   0  0  0  0  0  0  0  0  0  0  0  0
  148.0947  141.8494  154.3235 H   0  0  0  0  0  0  0  0  0  0  0  0
  151.5048  138.5377  153.8007 H   0  0  0  0  0  0  0  0  0  0  0  0
  149.7905  138.7216  153.7859 H   0  0  0  0  0  0  0  0  0  0  0  0
  150.1625  136.3135  153.5006 H   0  0  0  0  0  0  0  0  0  0  0  0
  150.8969  134.2710  154.7514 H   0  0  0  0  0  0  0  0  0  0  0  0
  150.0338  134.9018  156.1348 H   0  0  0  0  0  0  0  0  0  0  0  0
  148.2045  133.7902  155.3532 H   0  0  0  0  0  0  0  0  0  0  0  0
  148.0772  135.0295  154.1355 H   0  0  0  0  0  0  0  0  0  0  0  0
  149.7197  133.5321  152.7455 H   0  0  0  0  0  0  0  0  0  0  0  0
  146.8474  132.5954  153.2353 H   0  0  0  0  0  0  0  0  0  0  0  0
  147.8430  132.1324  151.8587 H   0  0  0  0  0  0  0  0  0  0  0  0
  147.3565  133.8042  152.0582 H   0  0  0  0  0  0  0  0  0  0  0  0
  148.7373  131.4545  154.7548 H   0  0  0  0  0  0  0  0  0  0  0  0
  150.3957  132.0224  154.5808 H   0  0  0  0  0  0  0  0  0  0  0  0
  149.6406  131.1101  153.2819 H   0  0  0  0  0  0  0  0  0  0  0  0
  1 20  1  0  0  0  0
  1 21  1  0  0  0  0
  1 22  1  0  0  0  0
  1  2  1  0  0  0  0
  2  3  1  0  0  0  0
  2 18  2  0  0  0  0
  3  4  1  0  0  0  0
  3 19  1  0  0  0  0
  4  6  2  0  0  0  0
  4  5  1  0  0  0  0
  5 23  1  0  0  0  0
  5 24  1  0  0  0  0
  5 25  1  0  0  0  0
  6 16  1  0  0  0  0
  6  7  1  0  0  0  0
  7  8  1  0  0  0  0
  7 26  1  0  0  0  0
  7 27  1  0  0  0  0
  8  9  2  0  0  0  0
  8 10  1  0  0  0  0
 10 11  1  0  0  0  0
 10 28  1  0  0  0  0
 11 12  1  0  0  0  0
 11 29  1  0  0  0  0
 11 30  1  0  0  0  0
 12 13  1  0  0  0  0
 12 31  1  0  0  0  0
 12 32  1  0  0  0  0
 13 14  1  0  0  0  0
 13 15  1  0  0  0  0
 13 33  1  0  0  0  0
 14 34  1  0  0  0  0
 14 35  1  0  0  0  0
 14 36  1  0  0  0  0
 15 37  1  0  0  0  0
 15 38  1  0  0  0  0
 15 39  1  0  0  0  0
 16 17  2  0  0  0  0
 16 18  1  0  0  0  0
M  END
> <s_m_source_file>
AV-unprocessed.smi

> <i_m_source_file_index>
1326

> <i_lp_mmshare_version>
43012

> <i_f3d_flags>
0

> <s_epik_input>
W0NIM11jMW5jKFtDSDNdKWMoYyg9TylbbkhdMSlbQ0gyXUMoPU8pW05IXVtDSDJdW0NIMl1bQ0hdKFtDSDNdKVtDSDNd

> <s_epik_cmdline>
J2VwaWtfcHl0aG9uJywgJy1waCcsICc3LjAnLCAnLXRuJywgJzgnLCAnLW1hJywgJzIwMCcsICctbWV0YWxfYmluZGluZycsICctaW1hZScsICc8aW5maWxlLm1hZT4nLCAnLW9tYWUnLCAnPG91dGZpbGUubWFlPic=

> <r_lp_tautomer_probability>
0.156392

> <r_epik_Ionization_Penalty>
0.0135605

> <r_epik_Ionization_Penalty_Charging>
0.013428

> <r_epik_Ionization_Penalty_Neutral>
0.000132491

> <r_epik_State_Penalty>
1.15342

> <r_epik_Charging_Adjusted_Penalty>
1.16684

> <i_epik_Tot_Q>
0

> <i_epik_Tot_abs_Q>
0

> <r_epik_Metal_State_Penalty>
1.31299

> <b_epik_Metal_Only>
0

> <s_lp_Force_Field>
OPLS_2005

> <r_lp_Energy>
9.03726

> <b_lp_Chiralities_Consistent>
1

> <s_lp_Variant>
AV-unprocessed.smi:1326-2

> <Gold.Version>
5.8.1

> <Gold.Id.Protein>
6NUR|6NUR_protein|mol2

> <Gold.PLP.Fitness>
41.5162

> <Gold.PLP.PLP>
-34.9820

> <Gold.PLP.part.hbond>
-3.5904

> <Gold.PLP.part.metal>
0.0000

> <Gold.PLP.part.buried>
-1.4381

> <Gold.PLP.part.nonpolar>
-31.1489

> <Gold.PLP.part.repulsive>
0.1856

> <Gold.PLP.ligand.clash>
0.0000

> <Gold.PLP.ligand.torsion>
0.5583

> <Gold.PLP.Chemscore.Hbond>
2.5288

> <Gold.PLP.Chemscore.CHOScore>
0.0000

> <Gold.PLP.Chemscore.Metal>
0.0000

> <Gold.Chemscore.Hbonds>
donor molecule, donor type, donor heavy atom, donor atom, acceptor molecule, acceptor atom, score
      L1  H     3    19       P1  8028  0.99
      L1  H    10    28       P1  7948  0.49
      P1  H  7997  8010       L1    17  1.00

> <Gold.PLP.Chemscore.Internal.Correction>
0.0643

> <Gold.Rescore>
     Score         DG    S(hbond)    S(metal)    S(lipo)     H(rot)  DE(clash)    DE(int)     intcor
     11.78     -14.00       1.65        0.00      67.18       1.89       1.62       0.60       ----

> <Gold.Chemscore.Fitness>
11.7770

> <Gold.Chemscore.DG>
-14.0032

> <Gold.Chemscore.ZeroCoef>
-5.4800

> <Gold.Chemscore.Hbond>
1.6484

> <Gold.Chemscore.Metal>
0.0000

> <Gold.Chemscore.Lipo>
67.1787

> <Gold.Chemscore.Internal_Hbond>
0.0000

> <Gold.Chemscore.DEClash>
1.6230

> <Gold.Chemscore.DEInternal>
0.6032

> <Gold.Chemscore.Rot>
1.8916

> <Gold.Chemscore.Internal.Correction>
   9.000000E+99

> <Gold.Chemscore.Hbonds>
donor molecule, donor type, donor heavy atom, donor atom, acceptor molecule, acceptor atom, score
      L1  H     3    19       P1  8028  0.92
      L1  H    10    28       P1  7948  0.02
      P1  H  7997  8010       L1    17  0.25

> <Gold.Chemscore.Hbond.Weighted>
-5.5057

> <Gold.Chemscore.Metal.Weighted>
-0.0000

> <Gold.Chemscore.Lipo.Weighted>
-7.8599

> <Gold.Chemscore.Internal_Hbond.Weighted>
0.0000

> <Gold.Chemscore.DEClash.Weighted>
1.6230

> <Gold.Chemscore.DEInternal.Weighted>
0.6032

> <Gold.Chemscore.Rot.Weighted>
4.8424

> <Gold.Chemscore.Internal.Correction.Weighted>
   9.000000E+99

> <Gold.Protein.RotatedTorsions>
[ 6907 6896 6895 6894 ] final  108.29 input  -60.11 | X-H torsion
[ 7974 7965 7964 7962 ] final  163.29 input  175.53 | X-H torsion
[ 8008 7997 7996 7995 ] final   81.91 input   59.86 | X-H torsion
[ 10167 10162 10161 10158 ] final  153.04 input  -65.29 | X-H torsion
[ 10718 10713 10712 10709 ] final -139.03 input   66.30 | X-H torsion
[ 10763 10752 10751 10750 ] final -172.33 input  -60.55 | X-H torsion
[ 11005 11000 10999 10996 ] final   29.28 input  -57.11 | X-H torsion

> <Gold.Protein.ActiveResidues>
 VAL166  LYS551  ARG553  GLY616  TRP617  ASP618  TYR619  PRO620  LYS621  CYS622 
 ASP623  PHE694  ASN695  SER759  ASP760  ASP761  ALA762  ILE779  LEU786  VAL792 
 PHE793  MET794  SER795  GLU796  ALA797  LYS798  CYS799  TRP800  GLU811  SER814 

> <Gold.Protein.RotatedAtoms>
  152.5118  133.9111  159.7487 H   0  0  0  0  0  0  0  0  0  0  0  0  # atno 6907 bound_to 6896
  150.9504  133.6547  159.2780 H   0  0  0  0  0  0  0  0  0  0  0  0  # atno 6908 bound_to 6896
  151.3828  135.0948  159.9554 H   0  0  0  0  0  0  0  0  0  0  0  0  # atno 6909 bound_to 6896
  144.7596  139.8162  143.6337 H   0  0  0  0  0  0  0  0  0  0  0  0  # atno 7974 bound_to 7965
  155.9035  140.3432  155.6044 H   0  0  0  0  0  0  0  0  0  0  0  0  # atno 8008 bound_to 7997
  155.7472  140.0815  157.2237 H   0  0  0  0  0  0  0  0  0  0  0  0  # atno 8009 bound_to 7997
  154.4046  140.1560  156.2670 H   0  0  0  0  0  0  0  0  0  0  0  0  # atno 8010 bound_to 7997
  139.4829  144.5307  151.7728 H   0  0  0  0  0  0  0  0  0  0  0  0  # atno 10167 bound_to 10162
  156.3061  130.7456  151.1520 H   0  0  0  0  0  0  0  0  0  0  0  0  # atno 10718 bound_to 10713
  154.6205  135.2874  155.0331 H   0  0  0  0  0  0  0  0  0  0  0  0  # atno 10763 bound_to 10752
  154.1528  135.6500  153.4971 H   0  0  0  0  0  0  0  0  0  0  0  0  # atno 10764 bound_to 10752
  153.0234  135.5360  154.6993 H   0  0  0  0  0  0  0  0  0  0  0  0  # atno 10765 bound_to 10752
  140.3066  134.2696  155.7742 H   0  0  0  0  0  0  0  0  0  0  0  0  # atno 11005 bound_to 11000
  146.1645  139.4772  142.9967 LP  0  0  0  0  0  0  0  0  0  0  0  0  # atno 17320 bound_to 7965
  145.6662  141.0228  143.1682 LP  0  0  0  0  0  0  0  0  0  0  0  0  # atno 17321 bound_to 7965
  140.4833  144.1418  150.5936 LP  0  0  0  0  0  0  0  0  0  0  0  0  # atno 17342 bound_to 10162
  140.4254  143.2592  151.9663 LP  0  0  0  0  0  0  0  0  0  0  0  0  # atno 17343 bound_to 10162
  157.7380  131.0546  150.5322 LP  0  0  0  0  0  0  0  0  0  0  0  0  # atno 17370 bound_to 10713
  156.5456  130.4219  149.6132 LP  0  0  0  0  0  0  0  0  0  0  0  0  # atno 17371 bound_to 10713
  141.2117  133.7681  156.9846 LP  0  0  0  0  0  0  0  0  0  0  0  0  # atno 17394 bound_to 11000
  140.1061  134.9505  157.1996 LP  0  0  0  0  0  0  0  0  0  0  0  0  # atno 17395 bound_to 11000

$$$$
