AV-unprocessed.smi:2078|AV-procd|sdf|8469|dock7
  -GOLD-   2272011173D 1   1.00000     0.00000
 Structure written by MMmdl.
 41 42  0  0  0  0  0  0  0  0  3 V2000
  151.1977  140.4820  157.5496 C   0  0  0  0  0  0  0  0  0  0  0  0
  151.6064  139.3540  156.6656 C   0  0  0  0  0  0  0  0  0  0  0  0
  150.9143  138.3233  156.0958 C   0  0  0  0  0  0  0  0  0  0  0  0
  151.9175  137.6157  155.3791 C   0  0  0  0  0  0  0  0  0  0  0  0
  151.7293  136.5167  154.6324 N   0  5  0  0  0  0  0  0  0  0  0  0
  150.7696  135.6237  154.9636 C   0  0  0  0  0  0  0  0  0  0  0  0
  150.1445  135.5792  156.0260 O   0  0  0  0  0  0  0  0  0  0  0  0
  150.5209  134.7204  154.0045 N   0  0  0  0  0  0  0  0  0  0  0  0
  149.5528  133.6342  154.0918 C   0  0  0  0  0  0  0  0  0  0  0  0
  148.1278  134.1718  154.3221 C   0  0  0  0  0  0  0  0  0  0  0  0
  147.3256  134.1947  153.0741 N   0  3  1  0  0  0  0  0  0  0  0  0
  147.4239  132.9179  152.3214 C   0  0  0  0  0  0  0  0  0  0  0  0
  146.7153  133.0202  150.9616 C   0  0  0  0  0  0  0  0  0  0  0  0
  145.2504  133.4459  151.1344 C   0  0  0  0  0  0  0  0  0  0  0  0
  145.1382  134.7359  151.9678 C   0  0  2  0  0  0  0  0  0  0  0  0
  145.5622  135.9911  151.1852 C   0  0  0  0  0  0  0  0  0  0  0  0
  145.9079  134.5902  153.2970 C   0  0  0  0  0  0  0  0  0  0  0  0
  153.1098  138.1762  155.4915 N   0  0  0  0  0  0  0  0  0  0  0  0
  152.9199  139.2896  156.3185 O   0  0  0  0  0  0  0  0  0  0  0  0
  150.7575  141.2895  156.9644 H   0  0  0  0  0  0  0  0  0  0  0  0
  152.0530  140.8840  158.0931 H   0  0  0  0  0  0  0  0  0  0  0  0
  150.4595  140.1518  158.2806 H   0  0  0  0  0  0  0  0  0  0  0  0
  149.8598  138.1075  156.1797 H   0  0  0  0  0  0  0  0  0  0  0  0
  151.0534  134.7943  153.1498 H   0  0  0  0  0  0  0  0  0  0  0  0
  149.6167  133.0274  153.1884 H   0  0  0  0  0  0  0  0  0  0  0  0
  149.8438  132.9882  154.9203 H   0  0  0  0  0  0  0  0  0  0  0  0
  147.6416  133.5243  155.0535 H   0  0  0  0  0  0  0  0  0  0  0  0
  148.1452  135.1701  154.7618 H   0  0  0  0  0  0  0  0  0  0  0  0
  148.4717  132.6639  152.1566 H   0  0  0  0  0  0  0  0  0  0  0  0
  146.9910  132.1107  152.9145 H   0  0  0  0  0  0  0  0  0  0  0  0
  147.2397  133.7344  150.3261 H   0  0  0  0  0  0  0  0  0  0  0  0
  146.7629  132.0608  150.4456 H   0  0  0  0  0  0  0  0  0  0  0  0
  144.7746  133.5741  150.1615 H   0  0  0  0  0  0  0  0  0  0  0  0
  144.7050  132.6458  151.6369 H   0  0  0  0  0  0  0  0  0  0  0  0
  144.0842  134.8706  152.2145 H   0  0  0  0  0  0  0  0  0  0  0  0
  146.6181  135.9674  150.9164 H   0  0  0  0  0  0  0  0  0  0  0  0
  145.3940  136.8930  151.7745 H   0  0  0  0  0  0  0  0  0  0  0  0
  144.9873  136.0918  150.2642 H   0  0  0  0  0  0  0  0  0  0  0  0
  145.4243  133.8373  153.9217 H   0  0  0  0  0  0  0  0  0  0  0  0
  145.8503  135.5278  153.8485 H   0  0  0  0  0  0  0  0  0  0  0  0
  147.7401  134.9019  152.4841 H   0  0  0  0  0  0  0  0  0  0  0  0
  1  2  1  0  0  0  0
  1 20  1  0  0  0  0
  1 21  1  0  0  0  0
  1 22  1  0  0  0  0
  2 19  1  0  0  0  0
  2  3  2  0  0  0  0
  3  4  1  0  0  0  0
  3 23  1  0  0  0  0
  4  5  1  0  0  0  0
  4 18  2  0  0  0  0
  5  6  1  0  0  0  0
  6  7  2  0  0  0  0
  6  8  1  0  0  0  0
  8  9  1  0  0  0  0
  8 24  1  0  0  0  0
  9 10  1  0  0  0  0
  9 25  1  0  0  0  0
  9 26  1  0  0  0  0
 10 11  1  0  0  0  0
 10 27  1  0  0  0  0
 10 28  1  0  0  0  0
 11 17  1  0  0  0  0
 11 12  1  0  0  0  0
 11 41  1  0  0  0  0
 12 13  1  0  0  0  0
 12 29  1  0  0  0  0
 12 30  1  0  0  0  0
 13 14  1  0  0  0  0
 13 31  1  0  0  0  0
 13 32  1  0  0  0  0
 14 15  1  0  0  0  0
 14 33  1  0  0  0  0
 14 34  1  0  0  0  0
 15 16  1  0  0  0  0
 15 17  1  0  0  0  0
 15 35  1  0  0  0  0
 16 36  1  0  0  0  0
 16 37  1  0  0  0  0
 16 38  1  0  0  0  0
 17 39  1  0  0  0  0
 17 40  1  0  0  0  0
 18 19  1  0  0  0  0
M  CHG  1   5  -1
M  CHG  1  11   1
M  END
> <s_m_source_file>
AV-unprocessed.smi

> <i_m_source_file_index>
2078

> <i_lp_mmshare_version>
43012

> <i_f3d_flags>
0

> <s_epik_input>
W0NIM11jMVtjSF1jKG5vMSlbTkhdQyg9TylbTkhdW0NIMl1bQ0gyXU4yW0NIMl1bQ0gyXVtDSDJdW0NAQEhdKFtDSDNdKVtDSDJdMg==

> <s_epik_cmdline>
J2VwaWtfcHl0aG9uJywgJy1waCcsICc3LjAnLCAnLXRuJywgJzgnLCAnLW1hJywgJzIwMCcsICctbWV0YWxfYmluZGluZycsICctaW1hZScsICc8aW5maWxlLm1hZT4nLCAnLW9tYWUnLCAnPG91dGZpbGUubWFlPic=

> <r_epik_Ionization_Penalty>
6.22434

> <r_epik_Ionization_Penalty_Charging>
6.22425

> <r_epik_Ionization_Penalty_Neutral>
9.37855e-05

> <r_epik_State_Penalty>
6.22423

> <r_epik_Charging_Adjusted_Penalty>
12.4485

> <i_epik_Tot_Q>
0

> <i_epik_Tot_abs_Q>
2

> <r_epik_Metal_State_Penalty>
2.16764

> <b_epik_Metal_Only>
1

> <s_lp_Force_Field>
OPLS_2005

> <r_lp_Energy>
5.82233

> <b_lp_Chiralities_Consistent>
1

> <s_lp_Variant>
AV-unprocessed.smi:2078-7

> <Gold.Version>
5.8.1

> <Gold.Id.Protein>
6NUR|6NUR_protein|mol2

> <Gold.PLP.Fitness>
42.8665

> <Gold.PLP.PLP>
-27.2469

> <Gold.PLP.part.hbond>
-5.5286

> <Gold.PLP.part.metal>
0.0000

> <Gold.PLP.part.buried>
-0.5640

> <Gold.PLP.part.nonpolar>
-21.5927

> <Gold.PLP.part.repulsive>
0.2769

> <Gold.PLP.ligand.clash>
0.0000

> <Gold.PLP.ligand.torsion>
0.5657

> <Gold.PLP.Chemscore.Hbond>
5.5616

> <Gold.PLP.Chemscore.CHOScore>
0.0000

> <Gold.PLP.Chemscore.Metal>
0.0000

> <Gold.Chemscore.Hbonds>
donor molecule, donor type, donor heavy atom, donor atom, acceptor molecule, acceptor atom, score
      L1  H     8    24       P1  7949  0.49
      L1  H    11    41       P1  7948  2.00
      P1  H  7997  8010       L1    19  1.00
      P1  H 10752 10763       L1     5  1.92

> <Gold.PLP.Chemscore.Internal.Correction>
0.0662

> <Gold.Rescore>
     Score         DG    S(hbond)    S(metal)    S(lipo)     H(rot)  DE(clash)    DE(int)     intcor
     15.32     -17.30       2.77        0.00      55.80       1.54       0.07       1.91       ----

> <Gold.Chemscore.Fitness>
15.3199

> <Gold.Chemscore.DG>
-17.3002

> <Gold.Chemscore.ZeroCoef>
-5.4800

> <Gold.Chemscore.Hbond>
2.7655

> <Gold.Chemscore.Metal>
0.0000

> <Gold.Chemscore.Lipo>
55.7959

> <Gold.Chemscore.Internal_Hbond>
0.0000

> <Gold.Chemscore.DEClash>
0.0698

> <Gold.Chemscore.DEInternal>
1.9105

> <Gold.Chemscore.Rot>
1.5409

> <Gold.Chemscore.Internal.Correction>
   9.000000E+99

> <Gold.Chemscore.Hbonds>
donor molecule, donor type, donor heavy atom, donor atom, acceptor molecule, acceptor atom, score
      L1  H     8    24       P1  7949  0.03
      L1  H    11    41       P1  7948  0.92
      P1  H  7997  8010       L1    19  0.77
      P1  H 10752 10763       L1     5  0.39

> <Gold.Chemscore.Hbond.Weighted>
-9.2367

> <Gold.Chemscore.Metal.Weighted>
-0.0000

> <Gold.Chemscore.Lipo.Weighted>
-6.5281

> <Gold.Chemscore.Internal_Hbond.Weighted>
0.0000

> <Gold.Chemscore.DEClash.Weighted>
0.0698

> <Gold.Chemscore.DEInternal.Weighted>
1.9105

> <Gold.Chemscore.Rot.Weighted>
3.9446

> <Gold.Chemscore.Internal.Correction.Weighted>
   9.000000E+99

> <Gold.Protein.RotatedTorsions>
[ 6907 6896 6895 6894 ] final  -30.48 input  -60.11 | X-H torsion
[ 7974 7965 7964 7962 ] final  -84.80 input  175.53 | X-H torsion
[ 8008 7997 7996 7995 ] final   56.94 input   59.86 | X-H torsion
[ 10167 10162 10161 10158 ] final  -50.74 input  -65.29 | X-H torsion
[ 10718 10713 10712 10709 ] final   79.71 input   66.30 | X-H torsion
[ 10763 10752 10751 10750 ] final   42.48 input  -60.55 | X-H torsion
[ 11005 11000 10999 10996 ] final  140.12 input  -57.11 | X-H torsion

> <Gold.Protein.ActiveResidues>
 VAL166  LYS551  ARG553  GLY616  TRP617  ASP618  TYR619  PRO620  LYS621  CYS622 
 ASP623  PHE694  ASN695  SER759  ASP760  ASP761  ALA762  ILE779  LEU786  VAL792 
 PHE793  MET794  SER795  GLU796  ALA797  LYS798  CYS799  TRP800  GLU811  SER814 

> <Gold.Protein.RotatedAtoms>
  151.1050  134.9994  159.8466 H   0  0  0  0  0  0  0  0  0  0  0  0  # atno 6907 bound_to 6896
  152.5439  134.1905  159.8682 H   0  0  0  0  0  0  0  0  0  0  0  0  # atno 6908 bound_to 6896
  151.1951  133.4600  159.2628 H   0  0  0  0  0  0  0  0  0  0  0  0  # atno 6909 bound_to 6896
  145.5018  140.9546  143.1755 H   0  0  0  0  0  0  0  0  0  0  0  0  # atno 7974 bound_to 7965
  155.5257  140.3481  155.4416 H   0  0  0  0  0  0  0  0  0  0  0  0  # atno 8008 bound_to 7997
  156.0753  140.1373  156.9806 H   0  0  0  0  0  0  0  0  0  0  0  0  # atno 8009 bound_to 7997
  154.4550  140.0957  156.6706 H   0  0  0  0  0  0  0  0  0  0  0  0  # atno 8010 bound_to 7997
  140.6623  143.2646  151.4403 H   0  0  0  0  0  0  0  0  0  0  0  0  # atno 10167 bound_to 10162
  157.6785  130.9926  150.1972 H   0  0  0  0  0  0  0  0  0  0  0  0  # atno 10718 bound_to 10713
  152.9882  135.6130  154.2957 H   0  0  0  0  0  0  0  0  0  0  0  0  # atno 10763 bound_to 10752
  154.2680  135.2780  155.2752 H   0  0  0  0  0  0  0  0  0  0  0  0  # atno 10764 bound_to 10752
  154.5147  135.5831  153.6690 H   0  0  0  0  0  0  0  0  0  0  0  0  # atno 10765 bound_to 10752
  140.0304  134.9354  157.0651 H   0  0  0  0  0  0  0  0  0  0  0  0  # atno 11005 bound_to 11000
  144.7775  139.6597  143.7168 LP  0  0  0  0  0  0  0  0  0  0  0  0  # atno 17320 bound_to 7965
  146.2221  139.5655  142.9611 LP  0  0  0  0  0  0  0  0  0  0  0  0  # atno 17321 bound_to 7965
  139.5860  144.1603  152.2029 LP  0  0  0  0  0  0  0  0  0  0  0  0  # atno 17342 bound_to 10162
  140.0943  144.5594  150.7033 LP  0  0  0  0  0  0  0  0  0  0  0  0  # atno 17343 bound_to 10162
  156.2671  130.3717  149.8070 LP  0  0  0  0  0  0  0  0  0  0  0  0  # atno 17370 bound_to 10713
  156.5798  130.8461  151.3380 LP  0  0  0  0  0  0  0  0  0  0  0  0  # atno 17371 bound_to 10713
  140.4235  134.1856  155.7165 LP  0  0  0  0  0  0  0  0  0  0  0  0  # atno 17394 bound_to 11000
  141.1828  133.8378  157.1198 LP  0  0  0  0  0  0  0  0  0  0  0  0  # atno 17395 bound_to 11000

$$$$
