AV-unprocessed.smi:2532|AV-procd|sdf|9971|dock9
  -GOLD-   2272014 13D 1   1.00000     0.00000
 Structure written by MMmdl.
 37 39  0  0  0  0  0  0  0  0  2 V2000
  152.8070  138.6101  156.5559 O   0  0  0  0  0  0  0  0  0  0  0  0
  152.1836  139.8786  156.5189 C   0  0  1  0  0  0  0  0  0  0  0  0
  150.7450  139.6938  156.0119 C   0  0  0  0  0  0  0  0  0  0  0  0
  150.7890  139.3127  154.6473 O   0  0  0  0  0  0  0  0  0  0  0  0
  149.5846  138.7097  154.2034 C   0  0  0  0  0  0  0  0  0  0  0  0
  148.5304  139.7695  154.1894 C   0  0  0  0  0  0  0  0  0  0  0  0
  148.7141  141.1223  154.3240 C   0  0  0  0  0  0  0  0  0  0  0  0
  147.5000  141.8663  154.2482 C   0  0  0  0  0  0  0  0  0  0  0  0
  146.4026  141.0728  154.0456 C   0  0  0  0  0  0  0  0  0  0  0  0
  146.8411  139.3897  153.9448 S   0  0  0  0  0  0  0  0  0  0  0  0
  152.2243  140.5083  157.9253 C   0  0  0  0  0  0  0  0  0  0  0  0
  151.6518  141.8622  157.9596 N   0  0  0  0  0  0  0  0  0  0  0  0
  150.9172  142.5164  157.0195 C   0  0  0  0  0  0  0  0  0  0  0  0
  150.6196  143.7500  157.5137 N   0  3  0  0  0  0  0  0  0  0  0  0
  151.1727  143.8874  158.7885 C   0  0  0  0  0  0  0  0  0  0  0  0
  151.1413  144.9519  159.6842 C   0  0  0  0  0  0  0  0  0  0  0  0
  151.8145  144.7678  160.9098 C   0  0  0  0  0  0  0  0  0  0  0  0
  152.4842  143.5629  161.2061 C   0  0  0  0  0  0  0  0  0  0  0  0
  152.5090  142.4903  160.2907 C   0  0  0  0  0  0  0  0  0  0  0  0
  151.8393  142.6786  159.0818 C   0  0  0  0  0  0  0  0  0  0  0  0
  152.2252  138.0062  156.9923 H   0  0  0  0  0  0  0  0  0  0  0  0
  152.7339  140.5212  155.8300 H   0  0  0  0  0  0  0  0  0  0  0  0
  150.2032  138.9634  156.6159 H   0  0  0  0  0  0  0  0  0  0  0  0
  150.2036  140.6385  156.0841 H   0  0  0  0  0  0  0  0  0  0  0  0
  149.7162  138.2898  153.2048 H   0  0  0  0  0  0  0  0  0  0  0  0
  149.2903  137.9005  154.8731 H   0  0  0  0  0  0  0  0  0  0  0  0
  149.6708  141.6001  154.4755 H   0  0  0  0  0  0  0  0  0  0  0  0
  147.4749  142.9421  154.3409 H   0  0  0  0  0  0  0  0  0  0  0  0
  145.3695  141.3717  153.9465 H   0  0  0  0  0  0  0  0  0  0  0  0
  151.6421  139.9010  158.6193 H   0  0  0  0  0  0  0  0  0  0  0  0
  153.2397  140.5329  158.3213 H   0  0  0  0  0  0  0  0  0  0  0  0
  150.6243  142.1275  156.0549 H   0  0  0  0  0  0  0  0  0  0  0  0
  150.6302  145.8765  159.4592 H   0  0  0  0  0  0  0  0  0  0  0  0
  151.8183  145.5674  161.6362 H   0  0  0  0  0  0  0  0  0  0  0  0
  152.9907  143.4586  162.1547 H   0  0  0  0  0  0  0  0  0  0  0  0
  153.0309  141.5749  160.5261 H   0  0  0  0  0  0  0  0  0  0  0  0
  150.0800  144.4457  157.0149 H   0  0  0  0  0  0  0  0  0  0  0  0
  1  2  1  0  0  0  0
  1 21  1  0  0  0  0
  2  3  1  0  0  0  0
  2 11  1  0  0  0  0
  2 22  1  0  0  0  0
  3  4  1  0  0  0  0
  3 23  1  0  0  0  0
  3 24  1  0  0  0  0
  4  5  1  0  0  0  0
  5  6  1  0  0  0  0
  5 25  1  0  0  0  0
  5 26  1  0  0  0  0
  6 10  1  0  0  0  0
  6  7  2  0  0  0  0
  7  8  1  0  0  0  0
  7 27  1  0  0  0  0
  8  9  2  0  0  0  0
  8 28  1  0  0  0  0
  9 10  1  0  0  0  0
  9 29  1  0  0  0  0
 11 12  1  0  0  0  0
 11 30  1  0  0  0  0
 11 31  1  0  0  0  0
 12 20  1  0  0  0  0
 12 13  1  0  0  0  0
 13 14  2  0  0  0  0
 13 32  1  0  0  0  0
 14 15  1  0  0  0  0
 14 37  1  0  0  0  0
 15 20  2  0  0  0  0
 15 16  1  0  0  0  0
 16 17  2  0  0  0  0
 16 33  1  0  0  0  0
 17 18  1  0  0  0  0
 17 34  1  0  0  0  0
 18 19  2  0  0  0  0
 18 35  1  0  0  0  0
 19 20  1  0  0  0  0
 19 36  1  0  0  0  0
M  CHG  1  14   1
M  END
> <s_m_source_file>
AV-unprocessed.smi

> <i_m_source_file_index>
2532

> <i_lp_mmshare_version>
43012

> <i_f3d_flags>
0

> <s_epik_input>
W2NIXTFbY0hdW2NIXVtjSF1jKGMxMiluKFtjSF1uMilbQ0gyXVtDQEhdKFtPSF0pW0NIMl1PW0NIMl1jM1tjSF1bY0hdW2NIXXMz

> <s_epik_cmdline>
J2VwaWtfcHl0aG9uJywgJy1waCcsICc3LjAnLCAnLXRuJywgJzgnLCAnLW1hJywgJzIwMCcsICctbWV0YWxfYmluZGluZycsICctaW1hZScsICc8aW5maWxlLm1hZT4nLCAnLW9tYWUnLCAnPG91dGZpbGUubWFlPic=

> <r_epik_Ionization_Penalty>
1.31758

> <r_epik_Ionization_Penalty_Charging>
1.31758

> <r_epik_Ionization_Penalty_Neutral>
1.26231e-06

> <r_epik_State_Penalty>
1.39289

> <r_epik_Charging_Adjusted_Penalty>
2.71047

> <i_epik_Tot_Q>
1

> <i_epik_Tot_abs_Q>
1

> <r_epik_Metal_State_Penalty>
5.42637

> <b_epik_Metal_Only>
0

> <s_lp_Force_Field>
OPLS_2005

> <r_lp_Energy>
15.1458

> <b_lp_Chiralities_Consistent>
1

> <s_lp_Variant>
AV-unprocessed.smi:2532-4

> <Gold.Version>
5.8.1

> <Gold.Id.Protein>
6NUR|6NUR_protein|mol2

> <Gold.PLP.Fitness>
56.6816

> <Gold.PLP.PLP>
-46.1639

> <Gold.PLP.part.hbond>
-2.9533

> <Gold.PLP.part.metal>
0.0000

> <Gold.PLP.part.buried>
-2.5046

> <Gold.PLP.part.nonpolar>
-41.7556

> <Gold.PLP.part.repulsive>
0.1184

> <Gold.PLP.ligand.clash>
0.0000

> <Gold.PLP.ligand.torsion>
0.3871

> <Gold.PLP.Chemscore.Hbond>
2.7600

> <Gold.PLP.Chemscore.CHOScore>
0.9807

> <Gold.PLP.Chemscore.Metal>
0.0000

> <Gold.Chemscore.Hbonds>
donor molecule, donor type, donor heavy atom, donor atom, acceptor molecule, acceptor atom, score
      L1  H    14    37       P1  8028  1.86
      P1  H  7989  7998       L1     4  0.81
      L1  C     9    29       P1 10175  0.99

> <Gold.PLP.Chemscore.Internal.Correction>
0.0696

> <Gold.Rescore>
     Score         DG    S(hbond)    S(metal)    S(lipo)     H(rot)  DE(clash)    DE(int)     intcor
     17.70     -18.89       1.59        0.00     123.19       2.46       0.46       0.73       ----

> <Gold.Chemscore.Fitness>
17.6969

> <Gold.Chemscore.DG>
-18.8904

> <Gold.Chemscore.ZeroCoef>
-5.4800

> <Gold.Chemscore.Hbond>
1.5858

> <Gold.Chemscore.Metal>
0.0000

> <Gold.Chemscore.Lipo>
123.1920

> <Gold.Chemscore.Internal_Hbond>
0.0000

> <Gold.Chemscore.DEClash>
0.4614

> <Gold.Chemscore.DEInternal>
0.7321

> <Gold.Chemscore.Rot>
2.4608

> <Gold.Chemscore.Internal.Correction>
   9.000000E+99

> <Gold.Chemscore.Hbonds>
donor molecule, donor type, donor heavy atom, donor atom, acceptor molecule, acceptor atom, score
      L1  H    14    37       P1  8028  0.64
      P1  H  7989  7998       L1     4  0.58

> <Gold.Chemscore.Hbond.Weighted>
-5.2966

> <Gold.Chemscore.Metal.Weighted>
-0.0000

> <Gold.Chemscore.Lipo.Weighted>
-14.4135

> <Gold.Chemscore.Internal_Hbond.Weighted>
0.0000

> <Gold.Chemscore.DEClash.Weighted>
0.4614

> <Gold.Chemscore.DEInternal.Weighted>
0.7321

> <Gold.Chemscore.Rot.Weighted>
6.2996

> <Gold.Chemscore.Internal.Correction.Weighted>
   9.000000E+99

> <Gold.Protein.RotatedTorsions>
[ 6907 6896 6895 6894 ] final  -56.25 input  -60.11 | X-H torsion
[ 7974 7965 7964 7962 ] final  -48.40 input  175.53 | X-H torsion
[ 8008 7997 7996 7995 ] final   -0.99 input   59.86 | X-H torsion
[ 10167 10162 10161 10158 ] final   79.57 input  -65.29 | X-H torsion
[ 10718 10713 10712 10709 ] final  109.57 input   66.30 | X-H torsion
[ 10763 10752 10751 10750 ] final -135.89 input  -60.55 | X-H torsion
[ 11005 11000 10999 10996 ] final   49.63 input  -57.11 | X-H torsion

> <Gold.Protein.ActiveResidues>
 VAL166  LYS551  ARG553  GLY616  TRP617  ASP618  TYR619  PRO620  LYS621  CYS622 
 ASP623  PHE694  ASN695  SER759  ASP760  ASP761  ALA762  ILE779  LEU786  VAL792 
 PHE793  MET794  SER795  GLU796  ALA797  LYS798  CYS799  TRP800  GLU811  SER814 

> <Gold.Protein.RotatedAtoms>
  150.8183  134.7377  159.6749 H   0  0  0  0  0  0  0  0  0  0  0  0  # atno 6907 bound_to 6896
  152.4301  134.5791  159.9952 H   0  0  0  0  0  0  0  0  0  0  0  0  # atno 6908 bound_to 6896
  151.5982  133.3322  159.3078 H   0  0  0  0  0  0  0  0  0  0  0  0  # atno 6909 bound_to 6896
  145.9516  140.7567  142.9502 H   0  0  0  0  0  0  0  0  0  0  0  0  # atno 7974 bound_to 7965
  154.6518  140.2570  155.7205 H   0  0  0  0  0  0  0  0  0  0  0  0  # atno 8008 bound_to 7997
  156.2578  140.2866  156.0876 H   0  0  0  0  0  0  0  0  0  0  0  0  # atno 8009 bound_to 7997
  155.1439  140.0381  157.2795 H   0  0  0  0  0  0  0  0  0  0  0  0  # atno 8010 bound_to 7997
  139.9590  144.5974  150.8090 H   0  0  0  0  0  0  0  0  0  0  0  0  # atno 10167 bound_to 10162
  157.6535  131.0916  150.6473 H   0  0  0  0  0  0  0  0  0  0  0  0  # atno 10718 bound_to 10713
  154.8694  135.3689  154.4972 H   0  0  0  0  0  0  0  0  0  0  0  0  # atno 10763 bound_to 10752
  153.5615  135.7023  153.5550 H   0  0  0  0  0  0  0  0  0  0  0  0  # atno 10764 bound_to 10752
  153.3623  135.4043  155.1691 H   0  0  0  0  0  0  0  0  0  0  0  0  # atno 10765 bound_to 10752
  140.1087  134.4984  155.8697 H   0  0  0  0  0  0  0  0  0  0  0  0  # atno 11005 bound_to 11000
  144.6797  140.2444  143.7339 LP  0  0  0  0  0  0  0  0  0  0  0  0  # atno 17320 bound_to 7965
  145.8163  139.2024  143.1964 LP  0  0  0  0  0  0  0  0  0  0  0  0  # atno 17321 bound_to 7965
  140.7559  143.3056  151.2971 LP  0  0  0  0  0  0  0  0  0  0  0  0  # atno 17342 bound_to 10162
  139.6569  144.0260  152.2666 LP  0  0  0  0  0  0  0  0  0  0  0  0  # atno 17343 bound_to 10162
  156.6782  130.4559  149.5636 LP  0  0  0  0  0  0  0  0  0  0  0  0  # atno 17370 bound_to 10713
  156.1948  130.6583  151.1102 LP  0  0  0  0  0  0  0  0  0  0  0  0  # atno 17371 bound_to 10713
  141.2125  133.6720  156.6662 LP  0  0  0  0  0  0  0  0  0  0  0  0  # atno 17394 bound_to 11000
  140.3121  134.8078  157.4184 LP  0  0  0  0  0  0  0  0  0  0  0  0  # atno 17395 bound_to 11000

$$$$
