AV-unprocessed.smi:102|AV-procd|sdf|953|dock6
  -GOLD-   2262017483D 1   1.00000     0.00000
 Structure written by MMmdl.
 44 45  0  0  0  0  0  0  0  0  1 V2000
  146.2731  135.4285  162.2307 C   0  0  0  0  0  0  0  0  0  0  0  0
  147.4416  136.1981  161.6279 C   0  0  0  0  0  0  0  0  0  0  0  0
  148.2629  136.7765  162.3396 O   0  0  0  0  0  0  0  0  0  0  0  0
  147.4495  136.1593  160.2864 O   0  0  0  0  0  0  0  0  0  0  0  0
  148.6844  136.2262  159.5926 C   0  0  0  0  0  0  0  0  0  0  0  0
  148.6614  137.4093  158.6149 C   0  0  2  0  0  0  0  0  0  0  0  0
  147.4806  137.3857  157.8162 O   0  0  0  0  0  0  0  0  0  0  0  0
  147.7320  137.9141  156.5477 C   0  0  1  0  0  0  0  0  0  0  0  0
  146.8242  139.1083  156.2963 N   0  0  0  0  0  0  0  0  0  0  0  0
  146.8945  140.2064  157.1442 C   0  0  0  0  0  0  0  0  0  0  0  0
  146.1395  141.3188  156.9840 C   0  0  0  0  0  0  0  0  0  0  0  0
  146.2624  142.3354  157.8541 F   0  0  0  0  0  0  0  0  0  0  0  0
  145.1966  141.4245  155.8756 C   0  0  0  0  0  0  0  0  0  0  0  0
  144.4662  142.3871  155.6494 O   0  0  0  0  0  0  0  0  0  0  0  0
  145.1695  140.3084  155.0358 N   0  0  0  0  0  0  0  0  0  0  0  0
  145.9442  139.1570  155.1881 C   0  0  0  0  0  0  0  0  0  0  0  0
  145.8304  138.2424  154.3767 O   0  0  0  0  0  0  0  0  0  0  0  0
  149.2517  138.1690  156.4098 C   0  0  1  0  0  0  0  0  0  0  0  0
  149.6262  139.5427  156.4329 O   0  0  0  0  0  0  0  0  0  0  0  0
  150.6024  139.9989  155.6266 C   0  0  0  0  0  0  0  0  0  0  0  0
  150.9998  141.4318  155.9530 C   0  0  0  0  0  0  0  0  0  0  0  0
  151.1321  139.3782  154.7051 O   0  0  0  0  0  0  0  0  0  0  0  0
  149.8265  137.4457  157.6196 C   0  0  2  0  0  0  0  0  0  0  0  0
  150.2419  136.1328  157.2538 O   0  0  0  0  0  0  0  0  0  0  0  0
  150.9555  135.9336  156.1310 C   0  0  0  0  0  0  0  0  0  0  0  0
  150.6936  134.5673  155.5114 C   0  0  0  0  0  0  0  0  0  0  0  0
  151.7380  136.7338  155.6185 O   0  0  0  0  0  0  0  0  0  0  0  0
  144.5361  140.3383  154.2501 H   0  0  0  0  0  0  0  0  0  0  0  0
  145.6619  134.9716  161.4518 H   0  0  0  0  0  0  0  0  0  0  0  0
  145.6426  136.0988  162.8148 H   0  0  0  0  0  0  0  0  0  0  0  0
  146.6401  134.6398  162.8877 H   0  0  0  0  0  0  0  0  0  0  0  0
  149.4869  136.3642  160.3186 H   0  0  0  0  0  0  0  0  0  0  0  0
  148.8770  135.2928  159.0613 H   0  0  0  0  0  0  0  0  0  0  0  0
  148.6841  138.3369  159.1851 H   0  0  0  0  0  0  0  0  0  0  0  0
  147.4086  137.1497  155.8405 H   0  0  0  0  0  0  0  0  0  0  0  0
  147.5732  140.1841  157.9846 H   0  0  0  0  0  0  0  0  0  0  0  0
  149.6046  137.7027  155.4884 H   0  0  0  0  0  0  0  0  0  0  0  0
  150.1129  142.0585  156.0505 H   0  0  0  0  0  0  0  0  0  0  0  0
  151.6287  141.8442  155.1639 H   0  0  0  0  0  0  0  0  0  0  0  0
  151.5542  141.4652  156.8909 H   0  0  0  0  0  0  0  0  0  0  0  0
  150.6705  137.9855  158.0532 H   0  0  0  0  0  0  0  0  0  0  0  0
  150.8153  133.7821  156.2577 H   0  0  0  0  0  0  0  0  0  0  0  0
  151.3906  134.3775  154.6948 H   0  0  0  0  0  0  0  0  0  0  0  0
  149.6784  134.5186  155.1179 H   0  0  0  0  0  0  0  0  0  0  0  0
  1  2  1  0  0  0  0
  1 29  1  0  0  0  0
  1 30  1  0  0  0  0
  1 31  1  0  0  0  0
  2  3  2  0  0  0  0
  2  4  1  0  0  0  0
  4  5  1  0  0  0  0
  5  6  1  0  0  0  0
  5 32  1  0  0  0  0
  5 33  1  0  0  0  0
  6 23  1  0  0  0  0
  6  7  1  0  0  0  0
  6 34  1  0  0  0  0
  7  8  1  0  0  0  0
  8  9  1  0  0  0  0
  8 18  1  0  0  0  0
  8 35  1  0  0  0  0
  9 16  1  0  0  0  0
  9 10  1  0  0  0  0
 10 11  2  0  0  0  0
 10 36  1  0  0  0  0
 11 12  1  0  0  0  0
 11 13  1  0  0  0  0
 13 14  2  0  0  0  0
 13 15  1  0  0  0  0
 15 28  1  0  0  0  0
 15 16  1  0  0  0  0
 16 17  2  0  0  0  0
 18 19  1  0  0  0  0
 18 23  1  0  0  0  0
 18 37  1  0  0  0  0
 19 20  1  0  0  0  0
 20 21  1  0  0  0  0
 20 22  2  0  0  0  0
 21 38  1  0  0  0  0
 21 39  1  0  0  0  0
 21 40  1  0  0  0  0
 23 24  1  0  0  0  0
 23 41  1  0  0  0  0
 24 25  1  0  0  0  0
 25 26  1  0  0  0  0
 25 27  2  0  0  0  0
 26 42  1  0  0  0  0
 26 43  1  0  0  0  0
 26 44  1  0  0  0  0
M  END
> <s_m_source_file>
AV-unprocessed.smi

> <i_m_source_file_index>
102

> <i_lp_mmshare_version>
43012

> <i_f3d_flags>
0

> <s_epik_input>
W0NIM11DKD1PKU9bQ0gyXVtDQEBIXTFPW0NASF0oW0NAQEhdKE9DKD1PKVtDSDNdKVtDQEhdMU9DKD1PKVtDSDNdKW4yW2NIXWMoRiljKD1PKVtuSF1jMj1P

> <s_epik_cmdline>
J2VwaWtfcHl0aG9uJywgJy1waCcsICc3LjAnLCAnLXRuJywgJzgnLCAnLW1hJywgJzIwMCcsICctbWV0YWxfYmluZGluZycsICctaW1hZScsICc8aW5maWxlLm1hZT4nLCAnLW9tYWUnLCAnPG91dGZpbGUubWFlPic=

> <r_lp_tautomer_probability>
0.999537

> <r_epik_Ionization_Penalty>
0.058267

> <r_epik_Ionization_Penalty_Charging>
0.058267

> <r_epik_Ionization_Penalty_Neutral>
6.57791e-16

> <r_epik_State_Penalty>
0.0503774

> <r_epik_Charging_Adjusted_Penalty>
0.108644

> <i_epik_Tot_Q>
0

> <i_epik_Tot_abs_Q>
0

> <r_epik_Metal_State_Penalty>
2.6644

> <b_epik_Metal_Only>
0

> <s_epik_Chemistry_Notes>
This compound has an ester and may undergo hydrolysis at high or low pH. This compound contains an acetal/aminal-like group ( X-CH(R)-Y where X, Y are N, S, or O) that may be acid/base labile, releasing an aldehyde.

> <s_lp_Force_Field>
OPLS_2005

> <r_lp_Energy>
10.5548

> <b_lp_Chiralities_Consistent>
1

> <s_lp_Variant>
AV-unprocessed.smi:102-9

> <Gold.Version>
5.8.1

> <Gold.Id.Protein>
6NUR|6NUR_protein|mol2

> <Gold.PLP.Fitness>
35.2008

> <Gold.PLP.PLP>
-27.0301

> <Gold.PLP.part.hbond>
-4.0000

> <Gold.PLP.part.metal>
0.0000

> <Gold.PLP.part.buried>
-6.4863

> <Gold.PLP.part.nonpolar>
-16.4895

> <Gold.PLP.part.repulsive>
0.3445

> <Gold.PLP.ligand.clash>
0.0000

> <Gold.PLP.ligand.torsion>
2.0139

> <Gold.PLP.Chemscore.Hbond>
4.0000

> <Gold.PLP.Chemscore.CHOScore>
0.0000

> <Gold.PLP.Chemscore.Metal>
0.0000

> <Gold.Chemscore.Hbonds>
donor molecule, donor type, donor heavy atom, donor atom, acceptor molecule, acceptor atom, score
      L1  H    15    28       P1 10175  1.00
      P1  H  6931  6943       L1     3  1.00
      P1  H  7989  7998       L1    22  1.00
      P1  H 10752 10763       L1    27  1.00

> <Gold.PLP.Chemscore.Internal.Correction>
0.1985

> <Gold.Rescore>
     Score         DG    S(hbond)    S(metal)    S(lipo)     H(rot)  DE(clash)    DE(int)     intcor
      6.80     -10.27       3.45        0.00      31.00       4.05       0.00       3.47       ----

> <Gold.Chemscore.Fitness>
6.8000

> <Gold.Chemscore.DG>
-10.2703

> <Gold.Chemscore.ZeroCoef>
-5.4800

> <Gold.Chemscore.Hbond>
3.4539

> <Gold.Chemscore.Metal>
0.0000

> <Gold.Chemscore.Lipo>
31.0023

> <Gold.Chemscore.Internal_Hbond>
0.0000

> <Gold.Chemscore.DEClash>
0.0048

> <Gold.Chemscore.DEInternal>
3.4655

> <Gold.Chemscore.Rot>
4.0520

> <Gold.Chemscore.Internal.Correction>
   9.000000E+99

> <Gold.Chemscore.Hbonds>
donor molecule, donor type, donor heavy atom, donor atom, acceptor molecule, acceptor atom, score
      L1  H    15    28       P1 10175  0.99
      P1  H  6931  6943       L1     3  0.99
      P1  H  7989  7998       L1    22  0.29
      P1  H 10752 10763       L1    27  0.30

> <Gold.Chemscore.Hbond.Weighted>
-11.5362

> <Gold.Chemscore.Metal.Weighted>
-0.0000

> <Gold.Chemscore.Lipo.Weighted>
-3.6273

> <Gold.Chemscore.Internal_Hbond.Weighted>
0.0000

> <Gold.Chemscore.DEClash.Weighted>
0.0048

> <Gold.Chemscore.DEInternal.Weighted>
3.4655

> <Gold.Chemscore.Rot.Weighted>
10.3732

> <Gold.Chemscore.Internal.Correction.Weighted>
   9.000000E+99

> <Gold.Protein.RotatedTorsions>
[ 6907 6896 6895 6894 ] final   50.45 input  -60.11 | X-H torsion
[ 7974 7965 7964 7962 ] final   -4.31 input  175.53 | X-H torsion
[ 8008 7997 7996 7995 ] final  104.32 input   59.86 | X-H torsion
[ 10167 10162 10161 10158 ] final   98.17 input  -65.29 | X-H torsion
[ 10718 10713 10712 10709 ] final    4.74 input   66.30 | X-H torsion
[ 10763 10752 10751 10750 ] final   76.31 input  -60.55 | X-H torsion
[ 11005 11000 10999 10996 ] final -178.90 input  -57.11 | X-H torsion

> <Gold.Protein.ActiveResidues>
 VAL166  LYS551  ARG553  GLY616  TRP617  ASP618  TYR619  PRO620  LYS621  CYS622 
 ASP623  PHE694  ASN695  SER759  ASP760  ASP761  ALA762  ILE779  LEU786  VAL792 
 PHE793  MET794  SER795  GLU796  ALA797  LYS798  CYS799  TRP800  GLU811  SER814 

> <Gold.Protein.RotatedAtoms>
  152.3020  134.7600  160.0355 H   0  0  0  0  0  0  0  0  0  0  0  0  # atno 6907 bound_to 6896
  151.8110  133.3376  159.3563 H   0  0  0  0  0  0  0  0  0  0  0  0  # atno 6908 bound_to 6896
  150.7278  134.5594  159.5879 H   0  0  0  0  0  0  0  0  0  0  0  0  # atno 6909 bound_to 6896
  146.2374  140.1851  142.8332 H   0  0  0  0  0  0  0  0  0  0  0  0  # atno 7974 bound_to 7965
  156.1562  140.3150  155.8730 H   0  0  0  0  0  0  0  0  0  0  0  0  # atno 8008 bound_to 7997
  155.3873  140.0491  157.3059 H   0  0  0  0  0  0  0  0  0  0  0  0  # atno 8009 bound_to 7997
  154.5103  140.2162  155.9180 H   0  0  0  0  0  0  0  0  0  0  0  0  # atno 8010 bound_to 7997
  139.7734  144.6914  151.0124 H   0  0  0  0  0  0  0  0  0  0  0  0  # atno 10167 bound_to 10162
  156.8971  130.5708  149.5648 H   0  0  0  0  0  0  0  0  0  0  0  0  # atno 10718 bound_to 10713
  153.0716  135.4956  154.8318 H   0  0  0  0  0  0  0  0  0  0  0  0  # atno 10763 bound_to 10752
  154.7031  135.3005  154.9314 H   0  0  0  0  0  0  0  0  0  0  0  0  # atno 10764 bound_to 10752
  154.0031  135.6764  153.4813 H   0  0  0  0  0  0  0  0  0  0  0  0  # atno 10765 bound_to 10752
  140.4246  134.6574  157.4681 H   0  0  0  0  0  0  0  0  0  0  0  0  # atno 11005 bound_to 11000
  144.9903  140.8540  143.5344 LP  0  0  0  0  0  0  0  0  0  0  0  0  # atno 17320 bound_to 7965
  145.1856  139.2328  143.5269 LP  0  0  0  0  0  0  0  0  0  0  0  0  # atno 17321 bound_to 7965
  140.7815  143.4563  151.0340 LP  0  0  0  0  0  0  0  0  0  0  0  0  # atno 17342 bound_to 10162
  139.8246  143.7773  152.3178 LP  0  0  0  0  0  0  0  0  0  0  0  0  # atno 17343 bound_to 10162
  156.0600  130.5655  150.9173 LP  0  0  0  0  0  0  0  0  0  0  0  0  # atno 17370 bound_to 10713
  157.6049  131.0939  150.8897 LP  0  0  0  0  0  0  0  0  0  0  0  0  # atno 17371 bound_to 10713
  140.0176  134.6595  155.9286 LP  0  0  0  0  0  0  0  0  0  0  0  0  # atno 17394 bound_to 11000
  141.1770  133.6541  156.4869 LP  0  0  0  0  0  0  0  0  0  0  0  0  # atno 17395 bound_to 11000

$$$$
