AV-unprocessed.smi:740|AV-procd|sdf|3548|dock10
  -GOLD-   22720 0543D 1   1.00000     0.00000
 Structure written by MMmdl.
 44 46  0  0  0  0  0  0  0  0  1 V2000
  151.4454  144.2165  158.5707 C   0  0  0  0  0  0  0  0  0  0  0  0
  152.2309  143.2127  159.3963 C   0  0  0  0  0  0  0  0  0  0  0  0
  152.7809  142.0785  158.7578 C   0  0  0  0  0  0  0  0  0  0  0  0
  153.5151  141.1198  159.4897 C   0  0  0  0  0  0  0  0  0  0  0  0
  154.1305  139.9511  159.0747 N   0  0  0  0  0  0  0  0  0  0  0  0
  154.6430  139.4992  160.2155 C   0  0  0  0  0  0  0  0  0  0  0  0
  154.4345  140.2389  161.3215 N   0  0  0  0  0  0  0  0  0  0  0  0
  154.8938  139.9423  162.6668 C   0  0  0  0  0  0  0  0  0  0  0  0
  156.1880  140.6976  163.0256 C   0  0  2  0  0  0  0  0  0  0  0  0
  157.1459  140.4619  162.0114 O   0  0  0  0  0  0  0  0  0  0  0  0
  156.7678  140.2281  164.3759 C   0  0  0  0  0  0  0  0  0  0  0  0
  156.0808  140.8513  165.5128 N   0  0  0  0  0  0  0  0  0  0  0  0
  155.7453  142.1476  165.5681 C   0  0  0  0  0  0  0  0  0  0  0  0
  155.9419  142.9889  164.6916 O   0  0  0  0  0  0  0  0  0  0  0  0
  155.0739  142.4821  166.8926 C   0  0  0  0  0  0  0  0  0  0  0  0
  155.0749  141.1388  167.6380 C   0  0  2  0  0  0  0  0  0  0  0  0
  155.8221  141.1763  168.9813 C   0  0  0  0  0  0  0  0  0  0  0  0
  155.7509  140.2024  166.6383 C   0  0  0  0  0  0  0  0  0  0  0  0
  155.9521  139.0110  166.8744 O   0  0  0  0  0  0  0  0  0  0  0  0
  153.6876  141.3295  160.8892 C   0  0  0  0  0  0  0  0  0  0  0  0
  153.1458  142.4545  161.5358 C   0  0  0  0  0  0  0  0  0  0  0  0
  152.4130  143.4014  160.7899 C   0  0  0  0  0  0  0  0  0  0  0  0
  151.8283  144.6105  161.4983 C   0  0  0  0  0  0  0  0  0  0  0  0
  151.4320  143.9411  157.5158 H   0  0  0  0  0  0  0  0  0  0  0  0
  151.8887  145.2092  158.6508 H   0  0  0  0  0  0  0  0  0  0  0  0
  150.4128  144.2688  158.9166 H   0  0  0  0  0  0  0  0  0  0  0  0
  152.6415  141.9337  157.6966 H   0  0  0  0  0  0  0  0  0  0  0  0
  155.2021  138.5754  160.2510 H   0  0  0  0  0  0  0  0  0  0  0  0
  154.0974  140.2126  163.3615 H   0  0  0  0  0  0  0  0  0  0  0  0
  155.0361  138.8651  162.7617 H   0  0  0  0  0  0  0  0  0  0  0  0
  155.9715  141.7664  163.0594 H   0  0  0  0  0  0  0  0  0  0  0  0
  157.3497  139.5393  161.9973 H   0  0  0  0  0  0  0  0  0  0  0  0
  156.6517  139.1464  164.4651 H   0  0  0  0  0  0  0  0  0  0  0  0
  157.8449  140.4017  164.4160 H   0  0  0  0  0  0  0  0  0  0  0  0
  155.6421  143.2518  167.4162 H   0  0  0  0  0  0  0  0  0  0  0  0
  154.0620  142.8518  166.7242 H   0  0  0  0  0  0  0  0  0  0  0  0
  154.0504  140.7989  167.7952 H   0  0  0  0  0  0  0  0  0  0  0  0
  155.8075  140.2012  169.4694 H   0  0  0  0  0  0  0  0  0  0  0  0
  155.3589  141.8903  169.6625 H   0  0  0  0  0  0  0  0  0  0  0  0
  156.8649  141.4694  168.8525 H   0  0  0  0  0  0  0  0  0  0  0  0
  153.2903  142.5851  162.5981 H   0  0  0  0  0  0  0  0  0  0  0  0
  152.0446  144.5881  162.5668 H   0  0  0  0  0  0  0  0  0  0  0  0
  150.7451  144.6381  161.3772 H   0  0  0  0  0  0  0  0  0  0  0  0
  152.2470  145.5309  161.0911 H   0  0  0  0  0  0  0  0  0  0  0  0
  1  2  1  0  0  0  0
  1 24  1  0  0  0  0
  1 25  1  0  0  0  0
  1 26  1  0  0  0  0
  2 22  1  0  0  0  0
  2  3  2  0  0  0  0
  3  4  1  0  0  0  0
  3 27  1  0  0  0  0
  4 20  2  0  0  0  0
  4  5  1  0  0  0  0
  5  6  2  0  0  0  0
  6  7  1  0  0  0  0
  6 28  1  0  0  0  0
  7  8  1  0  0  0  0
  7 20  1  0  0  0  0
  8  9  1  0  0  0  0
  8 29  1  0  0  0  0
  8 30  1  0  0  0  0
  9 10  1  0  0  0  0
  9 11  1  0  0  0  0
  9 31  1  0  0  0  0
 10 32  1  0  0  0  0
 11 12  1  0  0  0  0
 11 33  1  0  0  0  0
 11 34  1  0  0  0  0
 12 18  1  0  0  0  0
 12 13  1  0  0  0  0
 13 14  2  0  0  0  0
 13 15  1  0  0  0  0
 15 16  1  0  0  0  0
 15 35  1  0  0  0  0
 15 36  1  0  0  0  0
 16 17  1  0  0  0  0
 16 18  1  0  0  0  0
 16 37  1  0  0  0  0
 17 38  1  0  0  0  0
 17 39  1  0  0  0  0
 17 40  1  0  0  0  0
 18 19  2  0  0  0  0
 20 21  1  0  0  0  0
 21 22  2  0  0  0  0
 21 41  1  0  0  0  0
 22 23  1  0  0  0  0
 23 42  1  0  0  0  0
 23 43  1  0  0  0  0
 23 44  1  0  0  0  0
M  END
> <s_m_source_file>
AV-unprocessed.smi

> <i_m_source_file_index>
740

> <i_lp_mmshare_version>
43012

> <i_f3d_flags>
0

> <s_epik_input>
W0NIM11jKFtjSF0xKWMoW0NIM10pW2NIXWMoYzEyKW4oW2NIXW4yKVtDSDJdW0NASF0oW09IXSlbQ0gyXU4zQyg9TylbQ0gyXVtDQEBIXShbQ0gzXSlDMz1P

> <s_epik_cmdline>
J2VwaWtfcHl0aG9uJywgJy1waCcsICc3LjAnLCAnLXRuJywgJzgnLCAnLW1hJywgJzIwMCcsICctbWV0YWxfYmluZGluZycsICctaW1hZScsICc8aW5maWxlLm1hZT4nLCAnLW9tYWUnLCAnPG91dGZpbGUubWFlPic=

> <r_lp_tautomer_probability>
1

> <r_epik_Ionization_Penalty>
0.104021

> <r_epik_Ionization_Penalty_Charging>
0

> <r_epik_Ionization_Penalty_Neutral>
0.104021

> <r_epik_State_Penalty>
0.0939354

> <r_epik_Charging_Adjusted_Penalty>
0.0939354

> <i_epik_Tot_Q>
0

> <i_epik_Tot_abs_Q>
0

> <r_epik_Metal_State_Penalty>
0.000101783

> <b_epik_Metal_Only>
0

> <s_lp_Force_Field>
OPLS_2005

> <r_lp_Energy>
16.7866

> <b_lp_Chiralities_Consistent>
1

> <s_lp_Variant>
AV-unprocessed.smi:740-3

> <Gold.Version>
5.8.1

> <Gold.Id.Protein>
6NUR|6NUR_protein|mol2

> <Gold.PLP.Fitness>
48.3345

> <Gold.PLP.PLP>
-46.8929

> <Gold.PLP.part.hbond>
-4.0000

> <Gold.PLP.part.metal>
0.0000

> <Gold.PLP.part.buried>
0.5549

> <Gold.PLP.part.nonpolar>
-43.0974

> <Gold.PLP.part.repulsive>
0.1129

> <Gold.PLP.ligand.clash>
0.0000

> <Gold.PLP.ligand.torsion>
0.7857

> <Gold.PLP.Chemscore.Hbond>
1.0000

> <Gold.PLP.Chemscore.CHOScore>
0.0000

> <Gold.PLP.Chemscore.Metal>
0.0000

> <Gold.Chemscore.Hbonds>
donor molecule, donor type, donor heavy atom, donor atom, acceptor molecule, acceptor atom, score
      P1  H  7997  8009       L1     5  1.00

> <Gold.PLP.Chemscore.Internal.Correction>
0.0130

> <Gold.Rescore>
     Score         DG    S(hbond)    S(metal)    S(lipo)     H(rot)  DE(clash)    DE(int)     intcor
     12.47     -16.53       0.91        0.00     119.12       2.31       3.40       0.66       ----

> <Gold.Chemscore.Fitness>
12.4735

> <Gold.Chemscore.DG>
-16.5262

> <Gold.Chemscore.ZeroCoef>
-5.4800

> <Gold.Chemscore.Hbond>
0.9088

> <Gold.Chemscore.Metal>
0.0000

> <Gold.Chemscore.Lipo>
119.1153

> <Gold.Chemscore.Internal_Hbond>
0.0000

> <Gold.Chemscore.DEClash>
3.3963

> <Gold.Chemscore.DEInternal>
0.6564

> <Gold.Chemscore.Rot>
2.3147

> <Gold.Chemscore.Internal.Correction>
   9.000000E+99

> <Gold.Chemscore.Hbonds>
donor molecule, donor type, donor heavy atom, donor atom, acceptor molecule, acceptor atom, score
      P1  H  7997  8009       L1     5  0.84

> <Gold.Chemscore.Hbond.Weighted>
-3.0353

> <Gold.Chemscore.Metal.Weighted>
-0.0000

> <Gold.Chemscore.Lipo.Weighted>
-13.9365

> <Gold.Chemscore.Internal_Hbond.Weighted>
0.0000

> <Gold.Chemscore.DEClash.Weighted>
3.3963

> <Gold.Chemscore.DEInternal.Weighted>
0.6564

> <Gold.Chemscore.Rot.Weighted>
5.9256

> <Gold.Chemscore.Internal.Correction.Weighted>
   9.000000E+99

> <Gold.Protein.RotatedTorsions>
[ 6907 6896 6895 6894 ] final   70.14 input  -60.11 | X-H torsion
[ 7974 7965 7964 7962 ] final  114.09 input  175.53 | X-H torsion
[ 8008 7997 7996 7995 ] final  135.06 input   59.86 | X-H torsion
[ 10167 10162 10161 10158 ] final  176.05 input  -65.29 | X-H torsion
[ 10718 10713 10712 10709 ] final  163.75 input   66.30 | X-H torsion
[ 10763 10752 10751 10750 ] final -172.52 input  -60.55 | X-H torsion
[ 11005 11000 10999 10996 ] final -159.37 input  -57.11 | X-H torsion

> <Gold.Protein.ActiveResidues>
 VAL166  LYS551  ARG553  GLY616  TRP617  ASP618  TYR619  PRO620  LYS621  CYS622 
 ASP623  PHE694  ASN695  SER759  ASP760  ASP761  ALA762  ILE779  LEU786  VAL792 
 PHE793  MET794  SER795  GLU796  ALA797  LYS798  CYS799  TRP800  GLU811  SER814 

> <Gold.Protein.RotatedAtoms>
  152.4731  134.4912  159.9695 H   0  0  0  0  0  0  0  0  0  0  0  0  # atno 6907 bound_to 6896
  151.4934  133.3514  159.2865 H   0  0  0  0  0  0  0  0  0  0  0  0  # atno 6908 bound_to 6896
  150.8752  134.8161  159.7246 H   0  0  0  0  0  0  0  0  0  0  0  0  # atno 6909 bound_to 6896
  145.2087  139.2916  143.4279 H   0  0  0  0  0  0  0  0  0  0  0  0  # atno 7974 bound_to 7965
  156.3002  140.2480  156.3519 H   0  0  0  0  0  0  0  0  0  0  0  0  # atno 8008 bound_to 7997
  154.8957  140.0408  157.1884 H   0  0  0  0  0  0  0  0  0  0  0  0  # atno 8009 bound_to 7997
  154.8551  140.2912  155.5578 H   0  0  0  0  0  0  0  0  0  0  0  0  # atno 8010 bound_to 7997
  139.5200  144.2960  152.0421 H   0  0  0  0  0  0  0  0  0  0  0  0  # atno 10167 bound_to 10162
  157.1040  131.0450  151.2485 H   0  0  0  0  0  0  0  0  0  0  0  0  # atno 10718 bound_to 10713
  154.6184  135.2872  155.0354 H   0  0  0  0  0  0  0  0  0  0  0  0  # atno 10763 bound_to 10752
  154.1558  135.6496  153.4978 H   0  0  0  0  0  0  0  0  0  0  0  0  # atno 10764 bound_to 10752
  153.0225  135.5366  154.6964 H   0  0  0  0  0  0  0  0  0  0  0  0  # atno 10765 bound_to 10752
  140.6434  134.4527  157.5234 H   0  0  0  0  0  0  0  0  0  0  0  0  # atno 11005 bound_to 11000
  146.3402  140.2356  142.8594 LP  0  0  0  0  0  0  0  0  0  0  0  0  # atno 17320 bound_to 7965
  144.9876  140.8518  143.5359 LP  0  0  0  0  0  0  0  0  0  0  0  0  # atno 17321 bound_to 7965
  140.2409  144.4270  150.6260 LP  0  0  0  0  0  0  0  0  0  0  0  0  # atno 17342 bound_to 10162
  140.6291  143.2185  151.6534 LP  0  0  0  0  0  0  0  0  0  0  0  0  # atno 17343 bound_to 10162
  157.4616  130.7656  149.7241 LP  0  0  0  0  0  0  0  0  0  0  0  0  # atno 17370 bound_to 10713
  155.9866  130.3973  150.3203 LP  0  0  0  0  0  0  0  0  0  0  0  0  # atno 17371 bound_to 10713
  139.9072  134.8423  156.1662 LP  0  0  0  0  0  0  0  0  0  0  0  0  # atno 17394 bound_to 11000
  141.0590  133.6851  156.1916 LP  0  0  0  0  0  0  0  0  0  0  0  0  # atno 17395 bound_to 11000

$$$$
