AV-unprocessed.smi:224|AV-procd|sdf|1722|dock5
  -GOLD-   2262020203D 1   1.00000     0.00000
 Structure written by MMmdl.
 56 59  0  0  0  0  0  0  0  0  2 V2000
  145.8698  132.7105  150.1804 C   0  0  0  0  0  0  0  0  0  0  0  0
  144.7774  133.7650  150.4128 C   0  0  1  0  0  0  0  0  0  0  0  0
  144.1557  134.0273  149.1723 O   0  0  0  0  0  0  0  0  0  0  0  0
  143.6930  133.3014  151.4096 C   0  0  0  0  0  0  0  0  0  0  0  0
  144.0384  133.5821  152.8338 N   0  3  1  0  0  0  0  0  0  0  0  0
  145.5125  133.5400  153.0566 C   0  0  0  0  0  0  0  0  0  0  0  0
  145.8851  133.7753  154.5269 C   0  0  0  0  0  0  0  0  0  0  0  0
  145.3157  135.0292  154.9988 N   0  0  0  0  0  0  0  0  0  0  0  0
  146.0640  136.1498  154.8098 C   0  0  0  0  0  0  0  0  0  0  0  0
  145.8632  136.9173  153.7051 N   0  0  0  0  0  0  0  0  0  0  0  0
  146.5985  138.0131  153.4968 C   0  0  0  0  0  0  0  0  0  0  0  0
  147.5710  138.5203  154.2551 N   0  0  0  0  0  0  0  0  0  0  0  0
  147.7687  137.7684  155.3750 C   0  0  0  0  0  0  0  0  0  0  0  0
  147.0680  136.5789  155.7258 C   0  0  0  0  0  0  0  0  0  0  0  0
  147.5414  136.0972  156.9408 N   0  0  0  0  0  0  0  0  0  0  0  0
  148.4745  136.9435  157.2810 C   0  0  0  0  0  0  0  0  0  0  0  0
  148.6712  137.9846  156.4022 N   0  0  0  0  0  0  0  0  0  0  0  0
  149.6348  139.0678  156.5316 C   0  0  0  0  0  0  0  0  0  0  0  0
  150.8987  138.8834  155.6579 C   0  0  2  0  0  0  0  0  0  0  0  0
  150.6870  139.5004  154.3997 O   0  0  0  0  0  0  0  0  0  0  0  0
  151.2459  137.4191  155.4211 C   0  0  0  0  0  0  0  0  0  0  0  0
  152.7559  137.4585  155.2298 C   0  0  0  0  0  0  0  0  0  0  0  0
  153.1729  138.4141  156.1898 O   0  0  0  0  0  0  0  0  0  0  0  0
  152.1976  139.4503  156.2682 C   0  0  0  0  0  0  0  0  0  0  0  0
  143.8666  135.0963  154.8360 C   0  0  0  0  0  0  0  0  0  0  0  0
  143.4199  134.8360  153.3761 C   0  0  2  0  0  0  0  0  0  0  0  0
  141.8780  134.8134  153.3443 C   0  0  0  0  0  0  0  0  0  0  0  0
  146.4169  132.4977  151.0992 H   0  0  0  0  0  0  0  0  0  0  0  0
  146.5957  133.0540  149.4426 H   0  0  0  0  0  0  0  0  0  0  0  0
  145.4478  131.7719  149.8196 H   0  0  0  0  0  0  0  0  0  0  0  0
  145.2358  134.6989  150.7347 H   0  0  0  0  0  0  0  0  0  0  0  0
  143.2430  134.2223  149.3228 H   0  0  0  0  0  0  0  0  0  0  0  0
  142.7345  133.7689  151.1770 H   0  0  0  0  0  0  0  0  0  0  0  0
  143.5511  132.2364  151.2438 H   0  0  0  0  0  0  0  0  0  0  0  0
  145.9206  132.5765  152.7572 H   0  0  0  0  0  0  0  0  0  0  0  0
  145.9940  134.2938  152.4312 H   0  0  0  0  0  0  0  0  0  0  0  0
  145.4953  132.9646  155.1438 H   0  0  0  0  0  0  0  0  0  0  0  0
  146.9680  133.7473  154.6371 H   0  0  0  0  0  0  0  0  0  0  0  0
  146.3760  138.5622  152.5938 H   0  0  0  0  0  0  0  0  0  0  0  0
  149.0460  136.8311  158.1909 H   0  0  0  0  0  0  0  0  0  0  0  0
  149.1318  140.0006  156.2729 H   0  0  0  0  0  0  0  0  0  0  0  0
  149.9142  139.1548  157.5824 H   0  0  0  0  0  0  0  0  0  0  0  0
  149.7742  139.4115  154.1716 H   0  0  0  0  0  0  0  0  0  0  0  0
  151.0161  136.8273  156.3083 H   0  0  0  0  0  0  0  0  0  0  0  0
  150.7171  136.9723  154.5781 H   0  0  0  0  0  0  0  0  0  0  0  0
  153.2296  136.4906  155.3938 H   0  0  0  0  0  0  0  0  0  0  0  0
  153.0159  137.8063  154.2288 H   0  0  0  0  0  0  0  0  0  0  0  0
  152.5479  140.3412  155.7447 H   0  0  0  0  0  0  0  0  0  0  0  0
  152.0789  139.7141  157.3186 H   0  0  0  0  0  0  0  0  0  0  0  0
  143.4281  134.3416  155.4902 H   0  0  0  0  0  0  0  0  0  0  0  0
  143.4855  136.0540  155.1940 H   0  0  0  0  0  0  0  0  0  0  0  0
  143.7608  135.6657  152.7557 H   0  0  0  0  0  0  0  0  0  0  0  0
  141.4692  135.6648  153.8894 H   0  0  0  0  0  0  0  0  0  0  0  0
  141.4832  133.9088  153.8080 H   0  0  0  0  0  0  0  0  0  0  0  0
  141.4741  134.8845  152.3356 H   0  0  0  0  0  0  0  0  0  0  0  0
  143.6444  132.8270  153.3767 H   0  0  0  0  0  0  0  0  0  0  0  0
  1  2  1  0  0  0  0
  1 28  1  0  0  0  0
  1 29  1  0  0  0  0
  1 30  1  0  0  0  0
  2  3  1  0  0  0  0
  2  4  1  0  0  0  0
  2 31  1  0  0  0  0
  3 32  1  0  0  0  0
  4  5  1  0  0  0  0
  4 33  1  0  0  0  0
  4 34  1  0  0  0  0
  5 26  1  0  0  0  0
  5  6  1  0  0  0  0
  5 56  1  0  0  0  0
  6  7  1  0  0  0  0
  6 35  1  0  0  0  0
  6 36  1  0  0  0  0
  7  8  1  0  0  0  0
  7 37  1  0  0  0  0
  7 38  1  0  0  0  0
  8  9  1  0  0  0  0
  8 25  1  0  0  0  0
  9 14  1  0  0  0  0
  9 10  2  0  0  0  0
 10 11  1  0  0  0  0
 11 12  2  0  0  0  0
 11 39  1  0  0  0  0
 12 13  1  0  0  0  0
 13 17  1  0  0  0  0
 13 14  2  0  0  0  0
 14 15  1  0  0  0  0
 15 16  2  0  0  0  0
 16 17  1  0  0  0  0
 16 40  1  0  0  0  0
 17 18  1  0  0  0  0
 18 19  1  0  0  0  0
 18 41  1  0  0  0  0
 18 42  1  0  0  0  0
 19 24  1  0  0  0  0
 19 20  1  0  0  0  0
 19 21  1  0  0  0  0
 20 43  1  0  0  0  0
 21 22  1  0  0  0  0
 21 44  1  0  0  0  0
 21 45  1  0  0  0  0
 22 23  1  0  0  0  0
 22 46  1  0  0  0  0
 22 47  1  0  0  0  0
 23 24  1  0  0  0  0
 24 48  1  0  0  0  0
 24 49  1  0  0  0  0
 25 26  1  0  0  0  0
 25 50  1  0  0  0  0
 25 51  1  0  0  0  0
 26 27  1  0  0  0  0
 26 52  1  0  0  0  0
 27 53  1  0  0  0  0
 27 54  1  0  0  0  0
 27 55  1  0  0  0  0
M  CHG  1   5   1
M  END
> <s_m_source_file>
AV-unprocessed.smi

> <i_m_source_file_index>
224

> <i_lp_mmshare_version>
43012

> <i_f3d_flags>
0

> <s_epik_input>
W0NIM11bQ0BIXShbT0hdKVtDSDJdTjFbQ0gyXVtDSDJdTihbQ0gyXVtDQEhdMVtDSDNdKWMobltjSF1uMiljKGMyMyluW2NIXW4zW0NIMl1bQ0BAXTQoW09IXSlbQ0gyXVtDSDJdT1tDSDJdNA==

> <s_epik_cmdline>
J2VwaWtfcHl0aG9uJywgJy1waCcsICc3LjAnLCAnLXRuJywgJzgnLCAnLW1hJywgJzIwMCcsICctbWV0YWxfYmluZGluZycsICctaW1hZScsICc8aW5maWxlLm1hZT4nLCAnLW9tYWUnLCAnPG91dGZpbGUubWFlPic=

> <r_lp_tautomer_probability>
1

> <r_epik_Ionization_Penalty>
0.00516958

> <r_epik_Ionization_Penalty_Charging>
0.00509693

> <r_epik_Ionization_Penalty_Neutral>
7.26542e-05

> <r_epik_State_Penalty>
-0

> <r_epik_Charging_Adjusted_Penalty>
0.00509693

> <i_epik_Tot_Q>
1

> <i_epik_Tot_abs_Q>
1

> <r_epik_Metal_State_Penalty>
-0

> <b_epik_Metal_Only>
0

> <s_lp_Force_Field>
OPLS_2005

> <r_lp_Energy>
50.435

> <b_lp_Chiralities_Consistent>
1

> <s_lp_Variant>
AV-unprocessed.smi:224-16

> <Gold.Version>
5.8.1

> <Gold.Id.Protein>
6NUR|6NUR_protein|mol2

> <Gold.PLP.Fitness>
47.1990

> <Gold.PLP.PLP>
-34.9400

> <Gold.PLP.part.hbond>
-6.0000

> <Gold.PLP.part.metal>
0.0000

> <Gold.PLP.part.buried>
-6.1483

> <Gold.PLP.part.nonpolar>
-23.5828

> <Gold.PLP.part.repulsive>
0.3649

> <Gold.PLP.ligand.clash>
0.0000

> <Gold.PLP.ligand.torsion>
2.0935

> <Gold.PLP.Chemscore.Hbond>
4.7520

> <Gold.PLP.Chemscore.CHOScore>
0.5274

> <Gold.PLP.Chemscore.Metal>
0.0000

> <Gold.Chemscore.Hbonds>
donor molecule, donor type, donor heavy atom, donor atom, acceptor molecule, acceptor atom, score
      L1  H     3    32       P1 10186  0.46
      L1  H     5    56       P1 10957  2.00
      P1  H  7989  7998       L1    20  1.00

> <Gold.PLP.Chemscore.Internal.Correction>
0.6077

> <Gold.Rescore>
     Score         DG    S(hbond)    S(metal)    S(lipo)     H(rot)  DE(clash)    DE(int)     intcor
     15.08     -16.99       3.82        0.00      62.77       3.36       0.00       1.91       ----

> <Gold.Chemscore.Fitness>
15.0771

> <Gold.Chemscore.DG>
-16.9915

> <Gold.Chemscore.ZeroCoef>
-5.4800

> <Gold.Chemscore.Hbond>
3.8238

> <Gold.Chemscore.Metal>
0.0000

> <Gold.Chemscore.Lipo>
62.7723

> <Gold.Chemscore.Internal_Hbond>
0.0000

> <Gold.Chemscore.DEClash>
0.0004

> <Gold.Chemscore.DEInternal>
1.9140

> <Gold.Chemscore.Rot>
3.3611

> <Gold.Chemscore.Internal.Correction>
   9.000000E+99

> <Gold.Chemscore.Hbonds>
donor molecule, donor type, donor heavy atom, donor atom, acceptor molecule, acceptor atom, score
      L1  H     3    32       P1 10186  0.46
      L1  H     5    56       P1 10957  0.57
      P1  H  7989  7998       L1    20  0.93

> <Gold.Chemscore.Hbond.Weighted>
-12.7717

> <Gold.Chemscore.Metal.Weighted>
-0.0000

> <Gold.Chemscore.Lipo.Weighted>
-7.3444

> <Gold.Chemscore.Internal_Hbond.Weighted>
0.0000

> <Gold.Chemscore.DEClash.Weighted>
0.0004

> <Gold.Chemscore.DEInternal.Weighted>
1.9140

> <Gold.Chemscore.Rot.Weighted>
8.6045

> <Gold.Chemscore.Internal.Correction.Weighted>
   9.000000E+99

> <Gold.Protein.RotatedTorsions>
[ 6907 6896 6895 6894 ] final    9.27 input  -60.11 | X-H torsion
[ 7974 7965 7964 7962 ] final   64.31 input  175.53 | X-H torsion
[ 8008 7997 7996 7995 ] final -163.67 input   59.86 | X-H torsion
[ 10167 10162 10161 10158 ] final   57.85 input  -65.29 | X-H torsion
[ 10718 10713 10712 10709 ] final  139.90 input   66.30 | X-H torsion
[ 10763 10752 10751 10750 ] final   70.77 input  -60.55 | X-H torsion
[ 11005 11000 10999 10996 ] final   16.75 input  -57.11 | X-H torsion

> <Gold.Protein.ActiveResidues>
 VAL166  LYS551  ARG553  GLY616  TRP617  ASP618  TYR619  PRO620  LYS621  CYS622 
 ASP623  PHE694  ASN695  SER759  ASP760  ASP761  ALA762  ILE779  LEU786  VAL792 
 PHE793  MET794  SER795  GLU796  ALA797  LYS798  CYS799  TRP800  GLU811  SER814 

> <Gold.Protein.RotatedAtoms>
  151.7195  135.0897  160.0281 H   0  0  0  0  0  0  0  0  0  0  0  0  # atno 6907 bound_to 6896
  152.3611  133.6293  159.6024 H   0  0  0  0  0  0  0  0  0  0  0  0  # atno 6908 bound_to 6896
  150.7605  133.9339  159.3477 H   0  0  0  0  0  0  0  0  0  0  0  0  # atno 6909 bound_to 6896
  145.8517  139.3258  143.0871 H   0  0  0  0  0  0  0  0  0  0  0  0  # atno 7974 bound_to 7965
  155.8247  140.0925  157.1828 H   0  0  0  0  0  0  0  0  0  0  0  0  # atno 8008 bound_to 7997
  154.3979  140.1430  156.3602 H   0  0  0  0  0  0  0  0  0  0  0  0  # atno 8009 bound_to 7997
  155.8229  140.3445  155.5528 H   0  0  0  0  0  0  0  0  0  0  0  0  # atno 8010 bound_to 7997
  140.1936  144.4060  150.6560 H   0  0  0  0  0  0  0  0  0  0  0  0  # atno 10167 bound_to 10162
  157.4093  131.1026  151.0471 H   0  0  0  0  0  0  0  0  0  0  0  0  # atno 10718 bound_to 10713
  153.0360  135.5161  154.7492 H   0  0  0  0  0  0  0  0  0  0  0  0  # atno 10763 bound_to 10752
  154.6468  135.2919  155.0039 H   0  0  0  0  0  0  0  0  0  0  0  0  # atno 10764 bound_to 10752
  154.0937  135.6646  153.4909 H   0  0  0  0  0  0  0  0  0  0  0  0  # atno 10765 bound_to 10752
  140.4436  134.1296  155.7693 H   0  0  0  0  0  0  0  0  0  0  0  0  # atno 11005 bound_to 11000
  145.9349  140.9021  143.0337 LP  0  0  0  0  0  0  0  0  0  0  0  0  # atno 17320 bound_to 7965
  144.6729  140.1469  143.7433 LP  0  0  0  0  0  0  0  0  0  0  0  0  # atno 17321 bound_to 7965
  140.6439  143.2209  151.6229 LP  0  0  0  0  0  0  0  0  0  0  0  0  # atno 17342 bound_to 10162
  139.5246  144.3100  152.1001 LP  0  0  0  0  0  0  0  0  0  0  0  0  # atno 17343 bound_to 10162
  157.1441  130.6156  149.5563 LP  0  0  0  0  0  0  0  0  0  0  0  0  # atno 17370 bound_to 10713
  155.9846  130.4871  150.6990 LP  0  0  0  0  0  0  0  0  0  0  0  0  # atno 17371 bound_to 10713
  141.1695  133.8637  157.1614 LP  0  0  0  0  0  0  0  0  0  0  0  0  # atno 17394 bound_to 11000
  140.0053  135.0011  157.0280 LP  0  0  0  0  0  0  0  0  0  0  0  0  # atno 17395 bound_to 11000

$$$$
