AV-unprocessed.smi:1965|AV-procd|sdf|7947|dock6
  -GOLD-   2272010113D 1   1.00000     0.00000
 Structure written by MMmdl.
 36 38  0  0  0  0  0  0  0  0  3 V2000
  151.0910  140.8268  158.2011 O   0  0  0  0  0  0  0  0  0  0  0  0
  150.7600  141.9948  158.0020 C   0  0  0  0  0  0  0  0  0  0  0  0
  151.2435  143.0427  158.7184 N   0  5  0  0  0  0  0  0  0  0  0  0
  152.0310  142.8810  159.7979 C   0  0  0  0  0  0  0  0  0  0  0  0
  152.8627  141.8439  159.9494 N   0  0  0  0  0  0  0  0  0  0  0  0
  153.5818  141.8791  161.1457 C   0  0  0  0  0  0  0  0  0  0  0  0
  153.2905  142.9687  161.9229 C   0  0  0  0  0  0  0  0  0  0  0  0
  152.1027  143.9928  161.1680 S   0  0  0  0  0  0  0  0  0  0  0  0
  149.8720  142.2610  157.0261 N   0  0  0  0  0  0  0  0  0  0  0  0
  149.2639  141.2834  156.1321 C   0  0  1  0  0  0  0  0  0  0  0  0
  148.0223  141.7972  155.3869 C   0  0  0  0  0  0  0  0  0  0  0  0
  148.1144  141.1882  153.9739 C   0  0  0  0  0  0  0  0  0  0  0  0
  149.3220  140.3295  153.9560 N   0  3  2  0  0  0  0  0  0  0  0  0
  148.9897  138.8920  154.1551 C   0  0  0  0  0  0  0  0  0  0  0  0
  150.2423  138.0337  154.3764 C   0  0  0  0  0  0  0  0  0  0  0  0
  151.0275  138.5482  155.5855 C   0  0  0  0  0  0  0  0  0  0  0  0
  151.4158  140.0127  155.3565 C   0  0  0  0  0  0  0  0  0  0  0  0
  150.2115  140.9092  154.9908 C   0  0  2  0  0  0  0  0  0  0  0  0
  154.2806  141.0852  161.3634 H   0  0  0  0  0  0  0  0  0  0  0  0
  153.7024  143.2331  162.8851 H   0  0  0  0  0  0  0  0  0  0  0  0
  149.6125  143.2271  156.8908 H   0  0  0  0  0  0  0  0  0  0  0  0
  149.0016  140.3884  156.6990 H   0  0  0  0  0  0  0  0  0  0  0  0
  147.1069  141.4993  155.8995 H   0  0  0  0  0  0  0  0  0  0  0  0
  148.0207  142.8863  155.3211 H   0  0  0  0  0  0  0  0  0  0  0  0
  147.2102  140.6440  153.6971 H   0  0  0  0  0  0  0  0  0  0  0  0
  148.2474  141.9845  153.2407 H   0  0  0  0  0  0  0  0  0  0  0  0
  148.3206  138.7801  155.0099 H   0  0  0  0  0  0  0  0  0  0  0  0
  148.4433  138.5308  153.2832 H   0  0  0  0  0  0  0  0  0  0  0  0
  149.9567  136.9934  154.5348 H   0  0  0  0  0  0  0  0  0  0  0  0
  150.8712  138.0528  153.4854 H   0  0  0  0  0  0  0  0  0  0  0  0
  150.4271  138.4540  156.4910 H   0  0  0  0  0  0  0  0  0  0  0  0
  151.9216  137.9436  155.7403 H   0  0  0  0  0  0  0  0  0  0  0  0
  151.9279  140.4082  156.2345 H   0  0  0  0  0  0  0  0  0  0  0  0
  152.1413  140.0550  154.5430 H   0  0  0  0  0  0  0  0  0  0  0  0
  150.6102  141.8363  154.5729 H   0  0  0  0  0  0  0  0  0  0  0  0
  149.7771  140.4105  153.0581 H   0  0  0  0  0  0  0  0  0  0  0  0
  1  2  2  0  0  0  0
  2  3  1  0  0  0  0
  2  9  1  0  0  0  0
  3  4  1  0  0  0  0
  4  8  1  0  0  0  0
  4  5  2  0  0  0  0
  5  6  1  0  0  0  0
  6  7  2  0  0  0  0
  6 19  1  0  0  0  0
  7  8  1  0  0  0  0
  7 20  1  0  0  0  0
  9 10  1  0  0  0  0
  9 21  1  0  0  0  0
 10 18  1  0  0  0  0
 10 11  1  0  0  0  0
 10 22  1  0  0  0  0
 11 12  1  0  0  0  0
 11 23  1  0  0  0  0
 11 24  1  0  0  0  0
 12 13  1  0  0  0  0
 12 25  1  0  0  0  0
 12 26  1  0  0  0  0
 13 18  1  0  0  0  0
 13 14  1  0  0  0  0
 13 36  1  0  0  0  0
 14 15  1  0  0  0  0
 14 27  1  0  0  0  0
 14 28  1  0  0  0  0
 15 16  1  0  0  0  0
 15 29  1  0  0  0  0
 15 30  1  0  0  0  0
 16 17  1  0  0  0  0
 16 31  1  0  0  0  0
 16 32  1  0  0  0  0
 17 18  1  0  0  0  0
 17 33  1  0  0  0  0
 17 34  1  0  0  0  0
 18 35  1  0  0  0  0
M  CHG  1   3  -1
M  CHG  1  13   1
M  END
> <s_m_source_file>
AV-unprocessed.smi

> <i_m_source_file_index>
1965

> <i_lp_mmshare_version>
43012

> <i_f3d_flags>
0

> <s_epik_input>
czFbY0hdW2NIXW5jMVtOSF1DKD1PKVtOSF1bQ0BIXShbQ0gyXVtDSDJdMilbQ0BASF0oTjIzKVtDSDJdW0NIMl1bQ0gyXVtDSDJdMw==

> <s_epik_cmdline>
J2VwaWtfcHl0aG9uJywgJy1waCcsICc3LjAnLCAnLXRuJywgJzgnLCAnLW1hJywgJzIwMCcsICctbWV0YWxfYmluZGluZycsICctaW1hZScsICc8aW5maWxlLm1hZT4nLCAnLW9tYWUnLCAnPG91dGZpbGUubWFlPic=

> <r_lp_tautomer_probability>
1

> <r_epik_Ionization_Penalty>
7.4116

> <r_epik_Ionization_Penalty_Charging>
6.13869

> <r_epik_Ionization_Penalty_Neutral>
1.27291

> <r_epik_State_Penalty>
6.13761

> <r_epik_Charging_Adjusted_Penalty>
12.2763

> <i_epik_Tot_Q>
0

> <i_epik_Tot_abs_Q>
2

> <r_epik_Metal_State_Penalty>
2.08142

> <b_epik_Metal_Only>
1

> <s_lp_Force_Field>
OPLS_2005

> <r_lp_Energy>
29.0908

> <b_lp_Chiralities_Consistent>
1

> <s_lp_Variant>
AV-unprocessed.smi:1965-16

> <Gold.Version>
5.8.1

> <Gold.Id.Protein>
6NUR|6NUR_protein|mol2

> <Gold.PLP.Fitness>
40.0015

> <Gold.PLP.PLP>
-35.2744

> <Gold.PLP.part.hbond>
-2.0000

> <Gold.PLP.part.metal>
0.0000

> <Gold.PLP.part.buried>
-1.2474

> <Gold.PLP.part.nonpolar>
-31.3714

> <Gold.PLP.part.repulsive>
0.2502

> <Gold.PLP.ligand.clash>
0.0000

> <Gold.PLP.ligand.torsion>
0.4378

> <Gold.PLP.Chemscore.Hbond>
1.8640

> <Gold.PLP.Chemscore.CHOScore>
0.0000

> <Gold.PLP.Chemscore.Metal>
0.0000

> <Gold.Chemscore.Hbonds>
donor molecule, donor type, donor heavy atom, donor atom, acceptor molecule, acceptor atom, score
      L1  H     9    21       P1  8028  0.93
      L1  H    13    36       P1  7957  0.91

> <Gold.PLP.Chemscore.Internal.Correction>
0.0106

> <Gold.Rescore>
     Score         DG    S(hbond)    S(metal)    S(lipo)     H(rot)  DE(clash)    DE(int)     intcor
     16.77     -18.81       1.97        0.00      79.66       1.00       0.05       2.00       ----

> <Gold.Chemscore.Fitness>
16.7656

> <Gold.Chemscore.DG>
-18.8082

> <Gold.Chemscore.ZeroCoef>
-5.4800

> <Gold.Chemscore.Hbond>
1.9666

> <Gold.Chemscore.Metal>
0.0000

> <Gold.Chemscore.Lipo>
79.6571

> <Gold.Chemscore.Internal_Hbond>
0.0000

> <Gold.Chemscore.DEClash>
0.0456

> <Gold.Chemscore.DEInternal>
1.9970

> <Gold.Chemscore.Rot>
1.0000

> <Gold.Chemscore.Internal.Correction>
   9.000000E+99

> <Gold.Chemscore.Hbonds>
donor molecule, donor type, donor heavy atom, donor atom, acceptor molecule, acceptor atom, score
      L1  H     9    21       P1  8028  0.83
      L1  H    13    36       P1  7957  0.88

> <Gold.Chemscore.Hbond.Weighted>
-6.5684

> <Gold.Chemscore.Metal.Weighted>
-0.0000

> <Gold.Chemscore.Lipo.Weighted>
-9.3199

> <Gold.Chemscore.Internal_Hbond.Weighted>
0.0000

> <Gold.Chemscore.DEClash.Weighted>
0.0456

> <Gold.Chemscore.DEInternal.Weighted>
1.9970

> <Gold.Chemscore.Rot.Weighted>
2.5600

> <Gold.Chemscore.Internal.Correction.Weighted>
   9.000000E+99

> <Gold.Protein.RotatedTorsions>
[ 6907 6896 6895 6894 ] final  -99.43 input  -60.11 | X-H torsion
[ 7974 7965 7964 7962 ] final  -63.96 input  175.53 | X-H torsion
[ 8008 7997 7996 7995 ] final   20.65 input   59.86 | X-H torsion
[ 10167 10162 10161 10158 ] final  -84.72 input  -65.29 | X-H torsion
[ 10718 10713 10712 10709 ] final  143.93 input   66.30 | X-H torsion
[ 10763 10752 10751 10750 ] final  -32.37 input  -60.55 | X-H torsion
[ 11005 11000 10999 10996 ] final  -59.36 input  -57.11 | X-H torsion

> <Gold.Protein.ActiveResidues>
 VAL166  LYS551  ARG553  GLY616  TRP617  ASP618  TYR619  PRO620  LYS621  CYS622 
 ASP623  PHE694  ASN695  SER759  ASP760  ASP761  ALA762  ILE779  LEU786  VAL792 
 PHE793  MET794  SER795  GLU796  ALA797  LYS798  CYS799  TRP800  GLU811  SER814 

> <Gold.Protein.RotatedAtoms>
  150.7080  134.1041  159.3976 H   0  0  0  0  0  0  0  0  0  0  0  0  # atno 6907 bound_to 6896
  151.9028  135.0369  160.0517 H   0  0  0  0  0  0  0  0  0  0  0  0  # atno 6908 bound_to 6896
  152.2400  133.5092  159.5301 H   0  0  0  0  0  0  0  0  0  0  0  0  # atno 6909 bound_to 6896
  145.7726  140.8805  143.0372 H   0  0  0  0  0  0  0  0  0  0  0  0  # atno 7974 bound_to 7965
  154.9387  140.3050  155.5131 H   0  0  0  0  0  0  0  0  0  0  0  0  # atno 8008 bound_to 7997
  156.2998  140.2340  156.4391 H   0  0  0  0  0  0  0  0  0  0  0  0  # atno 8009 bound_to 7997
  154.8166  140.0425  157.1370 H   0  0  0  0  0  0  0  0  0  0  0  0  # atno 8010 bound_to 7997
  140.4105  143.2624  151.9024 H   0  0  0  0  0  0  0  0  0  0  0  0  # atno 10167 bound_to 10162
  157.3631  131.0968  151.0897 H   0  0  0  0  0  0  0  0  0  0  0  0  # atno 10718 bound_to 10713
  153.8127  135.6881  153.4838 H   0  0  0  0  0  0  0  0  0  0  0  0  # atno 10763 bound_to 10752
  153.1618  135.4577  154.9781 H   0  0  0  0  0  0  0  0  0  0  0  0  # atno 10764 bound_to 10752
  154.7961  135.3319  154.7606 H   0  0  0  0  0  0  0  0  0  0  0  0  # atno 10765 bound_to 10752
  141.1245  133.6616  156.5060 H   0  0  0  0  0  0  0  0  0  0  0  0  # atno 11005 bound_to 11000
  144.6810  139.9877  143.7484 LP  0  0  0  0  0  0  0  0  0  0  0  0  # atno 17320 bound_to 7965
  146.0154  139.3206  143.0845 LP  0  0  0  0  0  0  0  0  0  0  0  0  # atno 17321 bound_to 7965
  139.4782  144.5541  151.8340 LP  0  0  0  0  0  0  0  0  0  0  0  0  # atno 17342 bound_to 10162
  140.4643  144.1678  150.5910 LP  0  0  0  0  0  0  0  0  0  0  0  0  # atno 17343 bound_to 10162
  157.2029  130.6403  149.5745 LP  0  0  0  0  0  0  0  0  0  0  0  0  # atno 17370 bound_to 10713
  155.9741  130.4685  150.6362 LP  0  0  0  0  0  0  0  0  0  0  0  0  # atno 17371 bound_to 10713
  140.4407  134.7018  157.4990 LP  0  0  0  0  0  0  0  0  0  0  0  0  # atno 17394 bound_to 11000
  140.0231  134.6517  155.9211 LP  0  0  0  0  0  0  0  0  0  0  0  0  # atno 17395 bound_to 11000

$$$$
