AV-unprocessed.smi:2524|AV-procd|sdf|9922|dock9
  -GOLD-   2272013563D 1   1.00000     0.00000
 Structure written by MMmdl.
 36 37  0  0  0  0  0  0  0  0  1 V2000
  144.2875  134.0456  162.9990 C   0  0  0  0  0  0  0  0  0  0  0  0
  145.4049  133.6922  162.3465 C   0  0  0  0  0  0  0  0  0  0  0  0
  146.5516  134.6317  162.0375 C   0  0  0  0  0  0  0  0  0  0  0  0
  146.7169  134.8517  160.5295 C   0  0  0  0  0  0  0  0  0  0  0  0
  148.1069  136.0058  160.1795 S   0  0  0  0  0  0  0  0  0  0  0  0
  148.4923  136.6641  161.4372 O   0  0  0  0  0  0  0  0  0  0  0  0
  149.1213  135.3096  159.3739 O   0  0  0  0  0  0  0  0  0  0  0  0
  147.3587  137.1855  159.1724 N   0  0  0  0  0  0  0  0  0  0  0  0
  148.1955  138.2112  158.5477 C   0  0  0  0  0  0  0  0  0  0  0  0
  147.6708  138.5812  157.1676 C   0  0  0  0  0  0  0  0  0  0  0  0
  148.7810  139.0410  156.2624 C   0  0  0  0  0  0  0  0  0  0  0  0
  149.8232  139.8653  156.7396 C   0  0  0  0  0  0  0  0  0  0  0  0
  150.8450  140.2535  155.8507 C   0  0  0  0  0  0  0  0  0  0  0  0
  150.8826  139.8775  154.5549 N   0  0  0  0  0  0  0  0  0  0  0  0
  149.8860  139.0889  154.1003 C   0  0  0  0  0  0  0  0  0  0  0  0
  148.8194  138.6467  154.9081 C   0  0  0  0  0  0  0  0  0  0  0  0
  146.5512  137.7570  156.5665 C   0  0  0  0  0  0  0  0  0  0  0  0
  146.2828  139.1697  157.0179 C   0  0  0  0  0  0  0  0  0  0  0  0
  144.1385  135.0556  163.3526 H   0  0  0  0  0  0  0  0  0  0  0  0
  143.5048  133.3259  163.1880 H   0  0  0  0  0  0  0  0  0  0  0  0
  145.5174  132.6721  162.0087 H   0  0  0  0  0  0  0  0  0  0  0  0
  146.3878  135.5870  162.5376 H   0  0  0  0  0  0  0  0  0  0  0  0
  147.4659  134.2097  162.4555 H   0  0  0  0  0  0  0  0  0  0  0  0
  146.9165  133.9114  160.0155 H   0  0  0  0  0  0  0  0  0  0  0  0
  145.8094  135.2794  160.1021 H   0  0  0  0  0  0  0  0  0  0  0  0
  146.7366  136.7512  158.4910 H   0  0  0  0  0  0  0  0  0  0  0  0
  148.2161  139.1070  159.1691 H   0  0  0  0  0  0  0  0  0  0  0  0
  149.2192  137.8420  158.4787 H   0  0  0  0  0  0  0  0  0  0  0  0
  149.8443  140.1898  157.7693 H   0  0  0  0  0  0  0  0  0  0  0  0
  151.6549  140.8815  156.1913 H   0  0  0  0  0  0  0  0  0  0  0  0
  149.9398  138.7997  153.0613 H   0  0  0  0  0  0  0  0  0  0  0  0
  148.0484  138.0127  154.4956 H   0  0  0  0  0  0  0  0  0  0  0  0
  146.5705  137.5729  155.4941 H   0  0  0  0  0  0  0  0  0  0  0  0
  146.1175  136.9610  157.1683 H   0  0  0  0  0  0  0  0  0  0  0  0
  145.6771  139.2892  157.9139 H   0  0  0  0  0  0  0  0  0  0  0  0
  146.1239  139.9189  156.2449 H   0  0  0  0  0  0  0  0  0  0  0  0
  1  2  2  0  0  0  0
  1 19  1  0  0  0  0
  1 20  1  0  0  0  0
  2  3  1  0  0  0  0
  2 21  1  0  0  0  0
  3  4  1  0  0  0  0
  3 22  1  0  0  0  0
  3 23  1  0  0  0  0
  4  5  1  0  0  0  0
  4 24  1  0  0  0  0
  4 25  1  0  0  0  0
  5  6  2  0  0  0  0
  5  7  2  0  0  0  0
  5  8  1  0  0  0  0
  8  9  1  0  0  0  0
  8 26  1  0  0  0  0
  9 10  1  0  0  0  0
  9 27  1  0  0  0  0
  9 28  1  0  0  0  0
 10 18  1  0  0  0  0
 10 11  1  0  0  0  0
 10 17  1  0  0  0  0
 11 16  1  0  0  0  0
 11 12  2  0  0  0  0
 12 13  1  0  0  0  0
 12 29  1  0  0  0  0
 13 14  2  0  0  0  0
 13 30  1  0  0  0  0
 14 15  1  0  0  0  0
 15 16  2  0  0  0  0
 15 31  1  0  0  0  0
 16 32  1  0  0  0  0
 17 18  1  0  0  0  0
 17 33  1  0  0  0  0
 17 34  1  0  0  0  0
 18 35  1  0  0  0  0
 18 36  1  0  0  0  0
M  END
> <s_m_source_file>
AV-unprocessed.smi

> <i_m_source_file_index>
2524

> <i_lp_mmshare_version>
43012

> <i_f3d_flags>
0

> <s_epik_input>
W0NIMl09W0NIXVtDSDJdW0NIMl1TKD1PKSg9TylbTkhdW0NIMl1DMShbQ0gyXVtDSDJdMSljMltjSF1bY0hdbltjSF1bY0hdMg==

> <s_epik_cmdline>
J2VwaWtfcHl0aG9uJywgJy1waCcsICc3LjAnLCAnLXRuJywgJzgnLCAnLW1hJywgJzIwMCcsICctbWV0YWxfYmluZGluZycsICctaW1hZScsICc8aW5maWxlLm1hZT4nLCAnLW9tYWUnLCAnPG91dGZpbGUubWFlPic=

> <r_epik_Ionization_Penalty>
0.0344299

> <r_epik_Ionization_Penalty_Charging>
0

> <r_epik_Ionization_Penalty_Neutral>
0.0344299

> <r_epik_State_Penalty>
0.0286381

> <r_epik_Charging_Adjusted_Penalty>
0.0286381

> <i_epik_Tot_Q>
0

> <i_epik_Tot_abs_Q>
0

> <r_epik_Metal_State_Penalty>
0.0327794

> <b_epik_Metal_Only>
0

> <s_lp_Force_Field>
OPLS_2005

> <r_lp_Energy>
10.3721

> <b_lp_Chiralities_Consistent>
1

> <s_lp_Variant>
AV-unprocessed.smi:2524-1

> <Gold.Version>
5.8.1

> <Gold.Id.Protein>
6NUR|6NUR_protein|mol2

> <Gold.PLP.Fitness>
34.8461

> <Gold.PLP.PLP>
-22.1814

> <Gold.PLP.part.hbond>
-3.0000

> <Gold.PLP.part.metal>
0.0000

> <Gold.PLP.part.buried>
-1.4146

> <Gold.PLP.part.nonpolar>
-18.6854

> <Gold.PLP.part.repulsive>
0.1309

> <Gold.PLP.ligand.clash>
0.0000

> <Gold.PLP.ligand.torsion>
1.4102

> <Gold.PLP.Chemscore.Hbond>
3.0000

> <Gold.PLP.Chemscore.CHOScore>
1.6317

> <Gold.PLP.Chemscore.Metal>
0.0000

> <Gold.Chemscore.Hbonds>
donor molecule, donor type, donor heavy atom, donor atom, acceptor molecule, acceptor atom, score
      P1  H  6896  6908       L1     7  1.00
      P1  H  6931  6943       L1     6  1.00
      P1  H  7989  7998       L1    14  1.00
      L1  C    15    31       P1  7957  1.00

> <Gold.PLP.Chemscore.Internal.Correction>
1.5902

> <Gold.Rescore>
     Score         DG    S(hbond)    S(metal)    S(lipo)     H(rot)  DE(clash)    DE(int)     intcor
     15.37     -16.77       2.91        0.00      53.89       1.85       0.04       1.37       ----

> <Gold.Chemscore.Fitness>
15.3669

> <Gold.Chemscore.DG>
-16.7724

> <Gold.Chemscore.ZeroCoef>
-5.4800

> <Gold.Chemscore.Hbond>
2.9085

> <Gold.Chemscore.Metal>
0.0000

> <Gold.Chemscore.Lipo>
53.8895

> <Gold.Chemscore.Internal_Hbond>
0.0000

> <Gold.Chemscore.DEClash>
0.0354

> <Gold.Chemscore.DEInternal>
1.3701

> <Gold.Chemscore.Rot>
1.8465

> <Gold.Chemscore.Internal.Correction>
   9.000000E+99

> <Gold.Chemscore.Hbonds>
donor molecule, donor type, donor heavy atom, donor atom, acceptor molecule, acceptor atom, score
      P1  H  6896  6908       L1     7  1.00
      P1  H  6931  6943       L1     6  1.00
      P1  H  7989  7998       L1    14  0.91

> <Gold.Chemscore.Hbond.Weighted>
-9.7145

> <Gold.Chemscore.Metal.Weighted>
-0.0000

> <Gold.Chemscore.Lipo.Weighted>
-6.3051

> <Gold.Chemscore.Internal_Hbond.Weighted>
0.0000

> <Gold.Chemscore.DEClash.Weighted>
0.0354

> <Gold.Chemscore.DEInternal.Weighted>
1.3701

> <Gold.Chemscore.Rot.Weighted>
4.7272

> <Gold.Chemscore.Internal.Correction.Weighted>
   9.000000E+99

> <Gold.Protein.RotatedTorsions>
[ 6907 6896 6895 6894 ] final  172.34 input  -60.11 | X-H torsion
[ 7974 7965 7964 7962 ] final -123.17 input  175.53 | X-H torsion
[ 8008 7997 7996 7995 ] final    2.52 input   59.86 | X-H torsion
[ 10167 10162 10161 10158 ] final  -33.12 input  -65.29 | X-H torsion
[ 10718 10713 10712 10709 ] final -161.52 input   66.30 | X-H torsion
[ 10763 10752 10751 10750 ] final  -68.61 input  -60.55 | X-H torsion
[ 11005 11000 10999 10996 ] final  130.35 input  -57.11 | X-H torsion

> <Gold.Protein.ActiveResidues>
 VAL166  LYS551  ARG553  GLY616  TRP617  ASP618  TYR619  PRO620  LYS621  CYS622 
 ASP623  PHE694  ASN695  SER759  ASP760  ASP761  ALA762  ILE779  LEU786  VAL792 
 PHE793  MET794  SER795  GLU796  ALA797  LYS798  CYS799  TRP800  GLU811  SER814 

> <Gold.Protein.RotatedAtoms>
  151.7858  133.3354  159.3484 H   0  0  0  0  0  0  0  0  0  0  0  0  # atno 6907 bound_to 6896
  150.7409  134.5888  159.5986 H   0  0  0  0  0  0  0  0  0  0  0  0  # atno 6908 bound_to 6896
  152.3244  134.7340  160.0357 H   0  0  0  0  0  0  0  0  0  0  0  0  # atno 6909 bound_to 6896
  145.0216  140.7992  143.4378 H   0  0  0  0  0  0  0  0  0  0  0  0  # atno 7974 bound_to 7965
  154.6926  140.2656  155.6798 H   0  0  0  0  0  0  0  0  0  0  0  0  # atno 8008 bound_to 7997
  156.2737  140.2788  156.1432 H   0  0  0  0  0  0  0  0  0  0  0  0  # atno 8009 bound_to 7997
  155.0876  140.0373  157.2649 H   0  0  0  0  0  0  0  0  0  0  0  0  # atno 8010 bound_to 7997
  140.7210  143.3644  151.1900 H   0  0  0  0  0  0  0  0  0  0  0  0  # atno 10167 bound_to 10162
  156.5975  130.8796  151.2905 H   0  0  0  0  0  0  0  0  0  0  0  0  # atno 10718 bound_to 10713
  154.3915  135.6051  153.5846 H   0  0  0  0  0  0  0  0  0  0  0  0  # atno 10763 bound_to 10752
  152.9787  135.5885  154.4291 H   0  0  0  0  0  0  0  0  0  0  0  0  # atno 10764 bound_to 10752
  154.4076  135.2844  155.2035 H   0  0  0  0  0  0  0  0  0  0  0  0  # atno 10765 bound_to 10752
  139.9667  134.9588  156.9281 H   0  0  0  0  0  0  0  0  0  0  0  0  # atno 11005 bound_to 11000
  145.1889  139.2312  143.5253 LP  0  0  0  0  0  0  0  0  0  0  0  0  # atno 17320 bound_to 7965
  146.3486  140.1680  142.8590 LP  0  0  0  0  0  0  0  0  0  0  0  0  # atno 17321 bound_to 7965
  139.7203  143.9235  152.2982 LP  0  0  0  0  0  0  0  0  0  0  0  0  # atno 17342 bound_to 10162
  139.8989  144.6923  150.8687 LP  0  0  0  0  0  0  0  0  0  0  0  0  # atno 17343 bound_to 10162
  157.7288  130.9662  150.1759 LP  0  0  0  0  0  0  0  0  0  0  0  0  # atno 17370 bound_to 10713
  156.2497  130.3699  149.8245 LP  0  0  0  0  0  0  0  0  0  0  0  0  # atno 17371 bound_to 10713
  140.5381  134.0747  155.7334 LP  0  0  0  0  0  0  0  0  0  0  0  0  # atno 17394 bound_to 11000
  141.1347  133.9242  157.2460 LP  0  0  0  0  0  0  0  0  0  0  0  0  # atno 17395 bound_to 11000

$$$$
