AV-unprocessed.smi:2378|AV-procd|sdf|9450|dock3
  -GOLD-   2272013 83D 1   1.00000     0.00000
 Structure written by MMmdl.
 40 41  0  0  0  0  0  0  0  0  1 V2000
  151.4034  145.2785  160.8996 C   0  0  0  0  0  0  0  0  0  0  0  0
  151.7339  144.1372  159.9608 C   0  0  0  0  0  0  0  0  0  0  0  0
  152.6825  143.1596  160.3166 C   0  0  0  0  0  0  0  0  0  0  0  0
  152.9459  142.1253  159.3996 C   0  0  0  0  0  0  0  0  0  0  0  0
  152.3350  142.0276  158.2002 N   0  0  0  0  0  0  0  0  0  0  0  0
  151.4195  142.9635  157.8459 C   0  0  0  0  0  0  0  0  0  0  0  0
  150.7180  142.9535  156.6108 N   0  0  0  0  0  0  0  0  0  0  0  0
  150.7770  142.0377  155.6277 C   0  0  0  0  0  0  0  0  0  0  0  0
  151.4804  141.0270  155.6358 O   0  0  0  0  0  0  0  0  0  0  0  0
  149.9654  142.3648  154.6116 N   0  0  0  0  0  0  0  0  0  0  0  0
  149.8057  141.5932  153.3844 C   0  0  0  0  0  0  0  0  0  0  0  0
  148.6142  142.0981  152.5530 C   0  0  0  0  0  0  0  0  0  0  0  0
  147.5217  142.7549  153.4113 C   0  0  1  0  0  0  0  0  0  0  0  0
  146.5540  143.6015  152.5615 C   0  0  0  0  0  0  0  0  0  0  0  0
  145.4353  144.1798  153.4350 C   0  0  0  0  0  0  0  0  0  0  0  0
  144.7571  143.0510  154.2179 C   0  0  0  0  0  0  0  0  0  0  0  0
  145.8055  142.2241  154.9790 C   0  0  0  0  0  0  0  0  0  0  0  0
  146.7847  141.7275  154.0716 O   0  0  0  0  0  0  0  0  0  0  0  0
  151.0956  144.0355  158.7081 C   0  0  0  0  0  0  0  0  0  0  0  0
  151.8560  145.1281  161.8803 H   0  0  0  0  0  0  0  0  0  0  0  0
  150.3243  145.3603  161.0322 H   0  0  0  0  0  0  0  0  0  0  0  0
  151.7732  146.2202  160.4932 H   0  0  0  0  0  0  0  0  0  0  0  0
  153.1974  143.1968  161.2654 H   0  0  0  0  0  0  0  0  0  0  0  0
  153.6667  141.3561  159.6347 H   0  0  0  0  0  0  0  0  0  0  0  0
  150.1000  143.7364  156.4571 H   0  0  0  0  0  0  0  0  0  0  0  0
  149.4233  143.2128  154.6886 H   0  0  0  0  0  0  0  0  0  0  0  0
  150.7263  141.6249  152.7991 H   0  0  0  0  0  0  0  0  0  0  0  0
  149.6508  140.5502  153.6605 H   0  0  0  0  0  0  0  0  0  0  0  0
  148.9757  142.8210  151.8205 H   0  0  0  0  0  0  0  0  0  0  0  0
  148.1818  141.2744  151.9833 H   0  0  0  0  0  0  0  0  0  0  0  0
  147.9980  143.3927  154.1583 H   0  0  0  0  0  0  0  0  0  0  0  0
  147.0923  144.4087  152.0642 H   0  0  0  0  0  0  0  0  0  0  0  0
  146.1188  142.9846  151.7741 H   0  0  0  0  0  0  0  0  0  0  0  0
  145.8520  144.9106  154.1291 H   0  0  0  0  0  0  0  0  0  0  0  0
  144.7067  144.7090  152.8203 H   0  0  0  0  0  0  0  0  0  0  0  0
  144.0213  143.4605  154.9107 H   0  0  0  0  0  0  0  0  0  0  0  0
  144.2132  142.4033  153.5292 H   0  0  0  0  0  0  0  0  0  0  0  0
  146.2844  142.8220  155.7560 H   0  0  0  0  0  0  0  0  0  0  0  0
  145.3279  141.3801  155.4769 H   0  0  0  0  0  0  0  0  0  0  0  0
  150.3645  144.7748  158.4137 H   0  0  0  0  0  0  0  0  0  0  0  0
  1  2  1  0  0  0  0
  1 20  1  0  0  0  0
  1 21  1  0  0  0  0
  1 22  1  0  0  0  0
  2 19  1  0  0  0  0
  2  3  2  0  0  0  0
  3  4  1  0  0  0  0
  3 23  1  0  0  0  0
  4  5  2  0  0  0  0
  4 24  1  0  0  0  0
  5  6  1  0  0  0  0
  6  7  1  0  0  0  0
  6 19  2  0  0  0  0
  7  8  1  0  0  0  0
  7 25  1  0  0  0  0
  8  9  2  0  0  0  0
  8 10  1  0  0  0  0
 10 11  1  0  0  0  0
 10 26  1  0  0  0  0
 11 12  1  0  0  0  0
 11 27  1  0  0  0  0
 11 28  1  0  0  0  0
 12 13  1  0  0  0  0
 12 29  1  0  0  0  0
 12 30  1  0  0  0  0
 13 18  1  0  0  0  0
 13 14  1  0  0  0  0
 13 31  1  0  0  0  0
 14 15  1  0  0  0  0
 14 32  1  0  0  0  0
 14 33  1  0  0  0  0
 15 16  1  0  0  0  0
 15 34  1  0  0  0  0
 15 35  1  0  0  0  0
 16 17  1  0  0  0  0
 16 36  1  0  0  0  0
 16 37  1  0  0  0  0
 17 18  1  0  0  0  0
 17 38  1  0  0  0  0
 17 39  1  0  0  0  0
 19 40  1  0  0  0  0
M  END
> <s_m_source_file>
AV-unprocessed.smi

> <i_m_source_file_index>
2378

> <i_lp_mmshare_version>
43012

> <i_f3d_flags>
0

> <s_epik_input>
W0NIM11jMVtjSF1bY0hdbmMoW2NIXTEpW05IXUMoPU8pW05IXVtDSDJdW0NIMl1bQ0BASF0yW0NIMl1bQ0gyXVtDSDJdW0NIMl1PMg==

> <s_epik_cmdline>
J2VwaWtfcHl0aG9uJywgJy1waCcsICc3LjAnLCAnLXRuJywgJzgnLCAnLW1hJywgJzIwMCcsICctbWV0YWxfYmluZGluZycsICctaW1hZScsICc8aW5maWxlLm1hZT4nLCAnLW9tYWUnLCAnPG91dGZpbGUubWFlPic=

> <r_lp_tautomer_probability>
1

> <r_epik_Ionization_Penalty>
8.60919e-05

> <r_epik_Ionization_Penalty_Charging>
0

> <r_epik_Ionization_Penalty_Neutral>
8.60919e-05

> <r_epik_State_Penalty>
-0

> <r_epik_Charging_Adjusted_Penalty>
0

> <i_epik_Tot_Q>
0

> <i_epik_Tot_abs_Q>
0

> <r_epik_Metal_State_Penalty>
-0

> <b_epik_Metal_Only>
0

> <s_lp_Force_Field>
OPLS_2005

> <r_lp_Energy>
10.7522

> <b_lp_Chiralities_Consistent>
1

> <s_lp_Variant>
AV-unprocessed.smi:2378-2

> <Gold.Version>
5.8.1

> <Gold.Id.Protein>
6NUR|6NUR_protein|mol2

> <Gold.PLP.Fitness>
48.7684

> <Gold.PLP.PLP>
-43.5482

> <Gold.PLP.part.hbond>
-2.0000

> <Gold.PLP.part.metal>
0.0000

> <Gold.PLP.part.buried>
-7.8102

> <Gold.PLP.part.nonpolar>
-34.0539

> <Gold.PLP.part.repulsive>
0.3691

> <Gold.PLP.ligand.clash>
0.0000

> <Gold.PLP.ligand.torsion>
0.3964

> <Gold.PLP.Chemscore.Hbond>
2.0000

> <Gold.PLP.Chemscore.CHOScore>
0.0000

> <Gold.PLP.Chemscore.Metal>
0.0000

> <Gold.Chemscore.Hbonds>
donor molecule, donor type, donor heavy atom, donor atom, acceptor molecule, acceptor atom, score
      L1  H     7    25       P1  8028  1.00
      L1  H    10    26       P1  8028  1.00
      P1  H  7989  7998       L1     9  0.32

> <Gold.PLP.Chemscore.Internal.Correction>
0.0130

> <Gold.Rescore>
     Score         DG    S(hbond)    S(metal)    S(lipo)     H(rot)  DE(clash)    DE(int)     intcor
     17.95     -19.67       1.96        0.00      96.58       1.42       0.04       1.68       ----

> <Gold.Chemscore.Fitness>
17.9482

> <Gold.Chemscore.DG>
-19.6722

> <Gold.Chemscore.ZeroCoef>
-5.4800

> <Gold.Chemscore.Hbond>
1.9581

> <Gold.Chemscore.Metal>
0.0000

> <Gold.Chemscore.Lipo>
96.5787

> <Gold.Chemscore.Internal_Hbond>
0.0000

> <Gold.Chemscore.DEClash>
0.0424

> <Gold.Chemscore.DEInternal>
1.6817

> <Gold.Chemscore.Rot>
1.4248

> <Gold.Chemscore.Internal.Correction>
   9.000000E+99

> <Gold.Chemscore.Hbonds>
donor molecule, donor type, donor heavy atom, donor atom, acceptor molecule, acceptor atom, score
      L1  H     7    25       P1  8028  0.99
      L1  H    10    26       P1  8028  0.96
      P1  H  7989  7998       L1     9  0.04

> <Gold.Chemscore.Hbond.Weighted>
-6.5401

> <Gold.Chemscore.Metal.Weighted>
-0.0000

> <Gold.Chemscore.Lipo.Weighted>
-11.2997

> <Gold.Chemscore.Internal_Hbond.Weighted>
0.0000

> <Gold.Chemscore.DEClash.Weighted>
0.0424

> <Gold.Chemscore.DEInternal.Weighted>
1.6817

> <Gold.Chemscore.Rot.Weighted>
3.6476

> <Gold.Chemscore.Internal.Correction.Weighted>
   9.000000E+99

> <Gold.Protein.RotatedTorsions>
[ 6907 6896 6895 6894 ] final  131.85 input  -60.11 | X-H torsion
[ 7974 7965 7964 7962 ] final  164.37 input  175.53 | X-H torsion
[ 8008 7997 7996 7995 ] final  -74.45 input   59.86 | X-H torsion
[ 10167 10162 10161 10158 ] final  157.03 input  -65.29 | X-H torsion
[ 10718 10713 10712 10709 ] final -135.22 input   66.30 | X-H torsion
[ 10763 10752 10751 10750 ] final -130.87 input  -60.55 | X-H torsion
[ 11005 11000 10999 10996 ] final -145.55 input  -57.11 | X-H torsion

> <Gold.Protein.ActiveResidues>
 VAL166  LYS551  ARG553  GLY616  TRP617  ASP618  TYR619  PRO620  LYS621  CYS622 
 ASP623  PHE694  ASN695  SER759  ASP760  ASP761  ALA762  ILE779  LEU786  VAL792 
 PHE793  MET794  SER795  GLU796  ALA797  LYS798  CYS799  TRP800  GLU811  SER814 

> <Gold.Protein.RotatedAtoms>
  152.3384  133.6039  159.5858 H   0  0  0  0  0  0  0  0  0  0  0  0  # atno 6907 bound_to 6896
  150.7464  133.9760  159.3570 H   0  0  0  0  0  0  0  0  0  0  0  0  # atno 6908 bound_to 6896
  151.7627  135.0807  160.0399 H   0  0  0  0  0  0  0  0  0  0  0  0  # atno 6909 bound_to 6896
  144.7548  139.8316  143.6353 H   0  0  0  0  0  0  0  0  0  0  0  0  # atno 7974 bound_to 7965
  154.5332  140.0761  156.8381 H   0  0  0  0  0  0  0  0  0  0  0  0  # atno 8008 bound_to 7997
  155.3332  140.3403  155.4221 H   0  0  0  0  0  0  0  0  0  0  0  0  # atno 8009 bound_to 7997
  156.1802  140.1649  156.8275 H   0  0  0  0  0  0  0  0  0  0  0  0  # atno 8010 bound_to 7997
  139.4822  144.4955  151.8246 H   0  0  0  0  0  0  0  0  0  0  0  0  # atno 10167 bound_to 10162
  156.2639  130.7226  151.1169 H   0  0  0  0  0  0  0  0  0  0  0  0  # atno 10718 bound_to 10713
  154.8753  135.3848  154.4154 H   0  0  0  0  0  0  0  0  0  0  0  0  # atno 10763 bound_to 10752
  153.4863  135.7030  153.5914 H   0  0  0  0  0  0  0  0  0  0  0  0  # atno 10764 bound_to 10752
  153.4308  135.3879  155.2136 H   0  0  0  0  0  0  0  0  0  0  0  0  # atno 10765 bound_to 10752
  140.7910  134.2968  157.5013 H   0  0  0  0  0  0  0  0  0  0  0  0  # atno 11005 bound_to 11000
  146.1545  139.4638  143.0028 LP  0  0  0  0  0  0  0  0  0  0  0  0  # atno 17320 bound_to 7965
  145.6817  141.0189  143.1603 LP  0  0  0  0  0  0  0  0  0  0  0  0  # atno 17321 bound_to 7965
  140.4443  144.1943  150.5893 LP  0  0  0  0  0  0  0  0  0  0  0  0  # atno 17342 bound_to 10162
  140.4651  143.2434  151.9167 LP  0  0  0  0  0  0  0  0  0  0  0  0  # atno 17343 bound_to 10162
  157.7260  131.0649  150.5928 LP  0  0  0  0  0  0  0  0  0  0  0  0  # atno 17370 bound_to 10713
  156.6018  130.4356  149.5894 LP  0  0  0  0  0  0  0  0  0  0  0  0  # atno 17371 bound_to 10713
  139.8731  134.9375  156.3688 LP  0  0  0  0  0  0  0  0  0  0  0  0  # atno 17394 bound_to 11000
  140.9389  133.7528  156.0121 LP  0  0  0  0  0  0  0  0  0  0  0  0  # atno 17395 bound_to 11000

$$$$
