AV-unprocessed.smi:2020|AV-procd|sdf|8174|dock4
  -GOLD-   2272010423D 1   1.00000     0.00000
 Structure written by MMmdl.
 40 41  0  0  0  0  0  0  0  0  1 V2000
  151.6974  139.3204  157.5138 C   0  0  0  0  0  0  0  0  0  0  0  0
  150.9512  139.0116  156.2616 C   0  0  0  0  0  0  0  0  0  0  0  0
  149.6221  138.8952  156.2078 N   0  0  0  0  0  0  0  0  0  0  0  0
  149.1578  138.6087  154.9201 C   0  0  0  0  0  0  0  0  0  0  0  0
  147.6885  138.4484  154.6731 C   0  0  0  0  0  0  0  0  0  0  0  0
  147.2013  137.0211  154.9745 C   0  0  0  0  0  0  0  0  0  0  0  0
  147.2304  136.1785  153.7846 N   0  0  0  0  0  0  0  0  0  0  0  0
  146.3431  135.2137  153.5046 C   0  0  0  0  0  0  0  0  0  0  0  0
  145.3893  134.9227  154.2269 O   0  0  0  0  0  0  0  0  0  0  0  0
  146.6233  134.6018  152.3454 N   0  0  0  0  0  0  0  0  0  0  0  0
  145.8516  133.5085  151.7621 C   0  0  2  0  0  0  0  0  0  0  0  0
  146.4071  133.1289  150.3744 C   0  0  0  0  0  0  0  0  0  0  0  0
  145.5686  132.0197  149.7158 C   0  0  0  0  0  0  0  0  0  0  0  0
  144.0749  132.3868  149.6353 C   0  0  2  0  0  0  0  0  0  0  0  0
  143.8803  133.4216  148.6915 O   0  0  0  0  0  0  0  0  0  0  0  0
  143.5214  132.8144  151.0077 C   0  0  0  0  0  0  0  0  0  0  0  0
  144.3709  133.9183  151.6616 C   0  0  0  0  0  0  0  0  0  0  0  0
  150.1644  138.5084  153.9923 C   0  0  0  0  0  0  0  0  0  0  0  0
  151.7329  138.7734  154.7033 S   0  0  0  0  0  0  0  0  0  0  0  0
  151.2326  138.8212  158.3646 H   0  0  0  0  0  0  0  0  0  0  0  0
  151.6949  140.3957  157.6921 H   0  0  0  0  0  0  0  0  0  0  0  0
  152.7300  138.9806  157.4319 H   0  0  0  0  0  0  0  0  0  0  0  0
  147.1306  139.1581  155.2852 H   0  0  0  0  0  0  0  0  0  0  0  0
  147.4608  138.7050  153.6377 H   0  0  0  0  0  0  0  0  0  0  0  0
  147.8013  136.5693  155.7664 H   0  0  0  0  0  0  0  0  0  0  0  0
  146.1750  137.0500  155.3413 H   0  0  0  0  0  0  0  0  0  0  0  0
  147.9799  136.3424  153.1283 H   0  0  0  0  0  0  0  0  0  0  0  0
  147.4303  134.9150  151.8261 H   0  0  0  0  0  0  0  0  0  0  0  0
  145.9186  132.6396  152.4197 H   0  0  0  0  0  0  0  0  0  0  0  0
  146.4209  134.0082  149.7288 H   0  0  0  0  0  0  0  0  0  0  0  0
  147.4423  132.7967  150.4606 H   0  0  0  0  0  0  0  0  0  0  0  0
  145.9579  131.7945  148.7224 H   0  0  0  0  0  0  0  0  0  0  0  0
  145.6781  131.1041  150.2984 H   0  0  0  0  0  0  0  0  0  0  0  0
  143.5139  131.5223  149.2791 H   0  0  0  0  0  0  0  0  0  0  0  0
  144.7185  133.8118  148.4960 H   0  0  0  0  0  0  0  0  0  0  0  0
  142.4864  133.1446  150.9117 H   0  0  0  0  0  0  0  0  0  0  0  0
  143.5027  131.9467  151.6686 H   0  0  0  0  0  0  0  0  0  0  0  0
  143.9772  134.1408  152.6542 H   0  0  0  0  0  0  0  0  0  0  0  0
  144.2794  134.8381  151.0819 H   0  0  0  0  0  0  0  0  0  0  0  0
  150.0786  138.2971  152.9367 H   0  0  0  0  0  0  0  0  0  0  0  0
  1  2  1  0  0  0  0
  1 20  1  0  0  0  0
  1 21  1  0  0  0  0
  1 22  1  0  0  0  0
  2 19  1  0  0  0  0
  2  3  2  0  0  0  0
  3  4  1  0  0  0  0
  4  5  1  0  0  0  0
  4 18  2  0  0  0  0
  5  6  1  0  0  0  0
  5 23  1  0  0  0  0
  5 24  1  0  0  0  0
  6  7  1  0  0  0  0
  6 25  1  0  0  0  0
  6 26  1  0  0  0  0
  7  8  1  0  0  0  0
  7 27  1  0  0  0  0
  8  9  2  0  0  0  0
  8 10  1  0  0  0  0
 10 11  1  0  0  0  0
 10 28  1  0  0  0  0
 11 17  1  0  0  0  0
 11 12  1  0  0  0  0
 11 29  1  0  0  0  0
 12 13  1  0  0  0  0
 12 30  1  0  0  0  0
 12 31  1  0  0  0  0
 13 14  1  0  0  0  0
 13 32  1  0  0  0  0
 13 33  1  0  0  0  0
 14 15  1  0  0  0  0
 14 16  1  0  0  0  0
 14 34  1  0  0  0  0
 15 35  1  0  0  0  0
 16 17  1  0  0  0  0
 16 36  1  0  0  0  0
 16 37  1  0  0  0  0
 17 38  1  0  0  0  0
 17 39  1  0  0  0  0
 18 19  1  0  0  0  0
 18 40  1  0  0  0  0
M  END
> <s_m_source_file>
AV-unprocessed.smi

> <i_m_source_file_index>
2020

> <i_lp_mmshare_version>
43012

> <i_f3d_flags>
0

> <s_epik_input>
W0NIM11jMW5jKFtjSF1zMSlbQ0gyXVtDSDJdW05IXUMoPU8pW05IXVtDQEBIXTJbQ0gyXVtDSDJdW0NAQEhdKFtPSF0pW0NIMl1bQ0gyXTI=

> <s_epik_cmdline>
J2VwaWtfcHl0aG9uJywgJy1waCcsICc3LjAnLCAnLXRuJywgJzgnLCAnLW1hJywgJzIwMCcsICctbWV0YWxfYmluZGluZycsICctaW1hZScsICc8aW5maWxlLm1hZT4nLCAnLW9tYWUnLCAnPG91dGZpbGUubWFlPic=

> <r_epik_Ionization_Penalty>
0.00202099

> <r_epik_Ionization_Penalty_Charging>
0

> <r_epik_Ionization_Penalty_Neutral>
0.00202099

> <r_epik_State_Penalty>
0.00133629

> <r_epik_Charging_Adjusted_Penalty>
0.00133629

> <i_epik_Tot_Q>
0

> <i_epik_Tot_abs_Q>
0

> <r_epik_Metal_State_Penalty>
-0

> <b_epik_Metal_Only>
0

> <s_lp_Force_Field>
OPLS_2005

> <r_lp_Energy>
2.55027

> <b_lp_Chiralities_Consistent>
1

> <s_lp_Variant>
AV-unprocessed.smi:2020-2

> <Gold.Version>
5.8.1

> <Gold.Id.Protein>
6NUR|6NUR_protein|mol2

> <Gold.PLP.Fitness>
44.8665

> <Gold.PLP.PLP>
-32.0163

> <Gold.PLP.part.hbond>
-3.7907

> <Gold.PLP.part.metal>
0.0000

> <Gold.PLP.part.buried>
-4.7169

> <Gold.PLP.part.nonpolar>
-24.5208

> <Gold.PLP.part.repulsive>
0.0775

> <Gold.PLP.ligand.clash>
0.0000

> <Gold.PLP.ligand.torsion>
0.7642

> <Gold.PLP.Chemscore.Hbond>
2.8960

> <Gold.PLP.Chemscore.CHOScore>
1.8913

> <Gold.PLP.Chemscore.Metal>
0.0000

> <Gold.Chemscore.Hbonds>
donor molecule, donor type, donor heavy atom, donor atom, acceptor molecule, acceptor atom, score
      L1  H     7    27       P1  7948  1.00
      L1  H    10    28       P1  7948  0.90
      L1  H    15    35       P1  7921  1.00
      L1  C    18    40       P1  7948  0.95
      L1  C    18    40       P1  7957  0.91

> <Gold.PLP.Chemscore.Internal.Correction>
0.0168

> <Gold.Rescore>
     Score         DG    S(hbond)    S(metal)    S(lipo)     H(rot)  DE(clash)    DE(int)     intcor
     17.74     -19.10       2.81        0.00      82.16       2.10       0.01       1.35       ----

> <Gold.Chemscore.Fitness>
17.7368

> <Gold.Chemscore.DG>
-19.0995

> <Gold.Chemscore.ZeroCoef>
-5.4800

> <Gold.Chemscore.Hbond>
2.8090

> <Gold.Chemscore.Metal>
0.0000

> <Gold.Chemscore.Lipo>
82.1607

> <Gold.Chemscore.Internal_Hbond>
0.0000

> <Gold.Chemscore.DEClash>
0.0149

> <Gold.Chemscore.DEInternal>
1.3479

> <Gold.Chemscore.Rot>
2.0997

> <Gold.Chemscore.Internal.Correction>
   9.000000E+99

> <Gold.Chemscore.Hbonds>
donor molecule, donor type, donor heavy atom, donor atom, acceptor molecule, acceptor atom, score
      L1  H     7    27       P1  7948  0.98
      L1  H    10    28       P1  7948  0.71
      L1  H    15    35       P1  7921  0.99

> <Gold.Chemscore.Hbond.Weighted>
-9.3819

> <Gold.Chemscore.Metal.Weighted>
-0.0000

> <Gold.Chemscore.Lipo.Weighted>
-9.6128

> <Gold.Chemscore.Internal_Hbond.Weighted>
0.0000

> <Gold.Chemscore.DEClash.Weighted>
0.0149

> <Gold.Chemscore.DEInternal.Weighted>
1.3479

> <Gold.Chemscore.Rot.Weighted>
5.3752

> <Gold.Chemscore.Internal.Correction.Weighted>
   9.000000E+99

> <Gold.Protein.RotatedTorsions>
[ 6907 6896 6895 6894 ] final   78.82 input  -60.11 | X-H torsion
[ 7974 7965 7964 7962 ] final  161.40 input  175.53 | X-H torsion
[ 8008 7997 7996 7995 ] final  165.48 input   59.86 | X-H torsion
[ 10167 10162 10161 10158 ] final   60.66 input  -65.29 | X-H torsion
[ 10718 10713 10712 10709 ] final -128.97 input   66.30 | X-H torsion
[ 10763 10752 10751 10750 ] final  -86.99 input  -60.55 | X-H torsion
[ 11005 11000 10999 10996 ] final  -11.56 input  -57.11 | X-H torsion

> <Gold.Protein.ActiveResidues>
 VAL166  LYS551  ARG553  GLY616  TRP617  ASP618  TYR619  PRO620  LYS621  CYS622 
 ASP623  PHE694  ASN695  SER759  ASP760  ASP761  ALA762  ILE779  LEU786  VAL792 
 PHE793  MET794  SER795  GLU796  ALA797  LYS798  CYS799  TRP800  GLU811  SER814 

> <Gold.Protein.RotatedAtoms>
  152.5174  134.3606  159.9283 H   0  0  0  0  0  0  0  0  0  0  0  0  # atno 6907 bound_to 6896
  151.3558  133.3901  159.2692 H   0  0  0  0  0  0  0  0  0  0  0  0  # atno 6908 bound_to 6896
  150.9690  134.9085  159.7835 H   0  0  0  0  0  0  0  0  0  0  0  0  # atno 6909 bound_to 6896
  144.7688  139.7892  143.6305 H   0  0  0  0  0  0  0  0  0  0  0  0  # atno 7974 bound_to 7965
  156.1797  140.1669  156.8297 H   0  0  0  0  0  0  0  0  0  0  0  0  # atno 8008 bound_to 7997
  154.5346  140.0749  156.8438 H   0  0  0  0  0  0  0  0  0  0  0  0  # atno 8009 bound_to 7997
  155.3337  140.3380  155.4241 H   0  0  0  0  0  0  0  0  0  0  0  0  # atno 8010 bound_to 7997
  140.1632  144.4349  150.6698 H   0  0  0  0  0  0  0  0  0  0  0  0  # atno 10167 bound_to 10162
  156.2001  130.6852  151.0529 H   0  0  0  0  0  0  0  0  0  0  0  0  # atno 10718 bound_to 10713
  154.6287  135.5429  153.7655 H   0  0  0  0  0  0  0  0  0  0  0  0  # atno 10763 bound_to 10752
  153.0273  135.6430  154.1334 H   0  0  0  0  0  0  0  0  0  0  0  0  # atno 10764 bound_to 10752
  154.1265  135.2917  155.3176 H   0  0  0  0  0  0  0  0  0  0  0  0  # atno 10765 bound_to 10752
  140.7566  133.8549  155.9089 H   0  0  0  0  0  0  0  0  0  0  0  0  # atno 11005 bound_to 11000
  146.1817  139.5013  142.9862 LP  0  0  0  0  0  0  0  0  0  0  0  0  # atno 17320 bound_to 7965
  145.6388  141.0289  143.1823 LP  0  0  0  0  0  0  0  0  0  0  0  0  # atno 17321 bound_to 7965
  140.6629  143.2258  151.5812 LP  0  0  0  0  0  0  0  0  0  0  0  0  # atno 17342 bound_to 10162
  139.5371  144.2750  152.1275 LP  0  0  0  0  0  0  0  0  0  0  0  0  # atno 17343 bound_to 10162
  157.6981  131.0786  150.6907 LP  0  0  0  0  0  0  0  0  0  0  0  0  # atno 17370 bound_to 10713
  156.6964  130.4610  149.5585 LP  0  0  0  0  0  0  0  0  0  0  0  0  # atno 17371 bound_to 10713
  140.9702  134.1541  157.4583 LP  0  0  0  0  0  0  0  0  0  0  0  0  # atno 17394 bound_to 11000
  139.8778  134.9976  156.5854 LP  0  0  0  0  0  0  0  0  0  0  0  0  # atno 17395 bound_to 11000

$$$$
