AV-unprocessed.smi:2037|AV-procd|sdf|8278|dock2
  -GOLD-   2272010543D 1   1.00000     0.00000
 Structure written by MMmdl.
 38 39  0  0  0  0  0  0  0  0  3 V2000
  143.8156  132.1080  150.0367 C   0  0  0  0  0  0  0  0  0  0  0  0
  144.8451  132.5154  151.0998 C   0  0  2  0  0  0  0  0  0  0  0  0
  146.0699  133.2026  150.4744 C   0  0  0  0  0  0  0  0  0  0  0  0
  147.1021  133.5859  151.5481 C   0  0  0  0  0  0  0  0  0  0  0  0
  147.5256  132.4022  152.3409 N   0  3  1  0  0  0  0  0  0  0  0  0
  148.6088  132.7368  153.2996 C   0  0  0  0  0  0  0  0  0  0  0  0
  148.2610  133.9400  154.1900 C   0  0  0  0  0  0  0  0  0  0  0  0
  149.4172  134.8142  154.3276 N   0  0  0  0  0  0  0  0  0  0  0  0
  150.2782  134.8003  155.3531 C   0  0  0  0  0  0  0  0  0  0  0  0
  150.1189  133.9995  156.2771 O   0  0  0  0  0  0  0  0  0  0  0  0
  151.2677  135.7145  155.2414 N   0  5  0  0  0  0  0  0  0  0  0  0
  150.9705  137.0028  155.0048 C   0  0  0  0  0  0  0  0  0  0  0  0
  149.7155  137.4482  154.8784 N   0  0  0  0  0  0  0  0  0  0  0  0
  149.6354  138.8189  154.6258 C   0  0  0  0  0  0  0  0  0  0  0  0
  150.8587  139.4303  154.5512 C   0  0  0  0  0  0  0  0  0  0  0  0
  152.1557  138.2954  154.7956 S   0  0  0  0  0  0  0  0  0  0  0  0
  146.3623  131.7289  152.9784 C   0  0  0  0  0  0  0  0  0  0  0  0
  145.3158  131.3108  151.9312 C   0  0  0  0  0  0  0  0  0  0  0  0
  144.2385  131.3997  149.3236 H   0  0  0  0  0  0  0  0  0  0  0  0
  143.4662  132.9758  149.4765 H   0  0  0  0  0  0  0  0  0  0  0  0
  142.9433  131.6400  150.4941 H   0  0  0  0  0  0  0  0  0  0  0  0
  144.3624  133.2257  151.7730 H   0  0  0  0  0  0  0  0  0  0  0  0
  146.5345  132.5397  149.7427 H   0  0  0  0  0  0  0  0  0  0  0  0
  145.7600  134.0950  149.9295 H   0  0  0  0  0  0  0  0  0  0  0  0
  147.9700  134.0342  151.0624 H   0  0  0  0  0  0  0  0  0  0  0  0
  146.6869  134.3422  152.2160 H   0  0  0  0  0  0  0  0  0  0  0  0
  148.7877  131.8792  153.9501 H   0  0  0  0  0  0  0  0  0  0  0  0
  149.5402  132.9122  152.7583 H   0  0  0  0  0  0  0  0  0  0  0  0
  147.4367  134.5144  153.7668 H   0  0  0  0  0  0  0  0  0  0  0  0
  147.9484  133.6014  155.1789 H   0  0  0  0  0  0  0  0  0  0  0  0
  149.5834  135.4847  153.5914 H   0  0  0  0  0  0  0  0  0  0  0  0
  148.6641  139.2768  154.5119 H   0  0  0  0  0  0  0  0  0  0  0  0
  151.0754  140.4716  154.3671 H   0  0  0  0  0  0  0  0  0  0  0  0
  146.6852  130.8409  153.5199 H   0  0  0  0  0  0  0  0  0  0  0  0
  145.9105  132.3982  153.7122 H   0  0  0  0  0  0  0  0  0  0  0  0
  144.4648  130.8463  152.4303 H   0  0  0  0  0  0  0  0  0  0  0  0
  145.7410  130.5500  151.2748 H   0  0  0  0  0  0  0  0  0  0  0  0
  147.9215  131.7475  151.6815 H   0  0  0  0  0  0  0  0  0  0  0  0
  1  2  1  0  0  0  0
  1 19  1  0  0  0  0
  1 20  1  0  0  0  0
  1 21  1  0  0  0  0
  2 18  1  0  0  0  0
  2  3  1  0  0  0  0
  2 22  1  0  0  0  0
  3  4  1  0  0  0  0
  3 23  1  0  0  0  0
  3 24  1  0  0  0  0
  4  5  1  0  0  0  0
  4 25  1  0  0  0  0
  4 26  1  0  0  0  0
  5  6  1  0  0  0  0
  5 17  1  0  0  0  0
  5 38  1  0  0  0  0
  6  7  1  0  0  0  0
  6 27  1  0  0  0  0
  6 28  1  0  0  0  0
  7  8  1  0  0  0  0
  7 29  1  0  0  0  0
  7 30  1  0  0  0  0
  8  9  1  0  0  0  0
  8 31  1  0  0  0  0
  9 10  2  0  0  0  0
  9 11  1  0  0  0  0
 11 12  1  0  0  0  0
 12 16  1  0  0  0  0
 12 13  2  0  0  0  0
 13 14  1  0  0  0  0
 14 15  2  0  0  0  0
 14 32  1  0  0  0  0
 15 16  1  0  0  0  0
 15 33  1  0  0  0  0
 17 18  1  0  0  0  0
 17 34  1  0  0  0  0
 17 35  1  0  0  0  0
 18 36  1  0  0  0  0
 18 37  1  0  0  0  0
M  CHG  1   5   1
M  CHG  1  11  -1
M  END
> <s_m_source_file>
AV-unprocessed.smi

> <i_m_source_file_index>
2037

> <i_lp_mmshare_version>
43012

> <i_f3d_flags>
0

> <s_epik_input>
W0NIM11bQ0hdMVtDSDJdW0NIMl1OKFtDSDJdW0NIMl0xKVtDSDJdW0NIMl1bTkhdQyg9TylbTkhdYzJuW2NIXVtjSF1zMg==

> <s_epik_cmdline>
J2VwaWtfcHl0aG9uJywgJy1waCcsICc3LjAnLCAnLXRuJywgJzgnLCAnLW1hJywgJzIwMCcsICctbWV0YWxfYmluZGluZycsICctaW1hZScsICc8aW5maWxlLm1hZT4nLCAnLW9tYWUnLCAnPG91dGZpbGUubWFlPic=

> <r_lp_tautomer_probability>
0.999

> <r_epik_Ionization_Penalty>
6.22113

> <r_epik_Ionization_Penalty_Charging>
5.39005

> <r_epik_Ionization_Penalty_Neutral>
0.831074

> <r_epik_State_Penalty>
5.38997

> <r_epik_Charging_Adjusted_Penalty>
10.78

> <i_epik_Tot_Q>
0

> <i_epik_Tot_abs_Q>
2

> <r_epik_Metal_State_Penalty>
1.41601

> <b_epik_Metal_Only>
1

> <s_lp_Force_Field>
OPLS_2005

> <r_lp_Energy>
7.40316

> <b_lp_Chiralities_Consistent>
1

> <s_lp_Variant>
AV-unprocessed.smi:2037-3

> <Gold.Version>
5.8.1

> <Gold.Id.Protein>
6NUR|6NUR_protein|mol2

> <Gold.PLP.Fitness>
44.4083

> <Gold.PLP.PLP>
-34.8792

> <Gold.PLP.part.hbond>
-3.0000

> <Gold.PLP.part.metal>
0.0000

> <Gold.PLP.part.buried>
-3.5180

> <Gold.PLP.part.nonpolar>
-28.2733

> <Gold.PLP.part.repulsive>
0.3023

> <Gold.PLP.ligand.clash>
0.0000

> <Gold.PLP.ligand.torsion>
0.9934

> <Gold.PLP.Chemscore.Hbond>
3.8160

> <Gold.PLP.Chemscore.CHOScore>
0.0000

> <Gold.PLP.Chemscore.Metal>
0.0000

> <Gold.Chemscore.Hbonds>
donor molecule, donor type, donor heavy atom, donor atom, acceptor molecule, acceptor atom, score
      L1  H     5    38       P1 10747  1.00
      L1  H     8    31       P1  7948  0.76
      P1  H 10752 10764       L1    11  2.00

> <Gold.PLP.Chemscore.Internal.Correction>
0.0680

> <Gold.Rescore>
     Score         DG    S(hbond)    S(metal)    S(lipo)     H(rot)  DE(clash)    DE(int)     intcor
     16.36     -18.95       2.53        0.00      77.10       1.57       0.10       2.48       ----

> <Gold.Chemscore.Fitness>
16.3640

> <Gold.Chemscore.DG>
-18.9528

> <Gold.Chemscore.ZeroCoef>
-5.4800

> <Gold.Chemscore.Hbond>
2.5346

> <Gold.Chemscore.Metal>
0.0000

> <Gold.Chemscore.Lipo>
77.0962

> <Gold.Chemscore.Internal_Hbond>
0.0000

> <Gold.Chemscore.DEClash>
0.1047

> <Gold.Chemscore.DEInternal>
2.4842

> <Gold.Chemscore.Rot>
1.5676

> <Gold.Chemscore.Internal.Correction>
   9.000000E+99

> <Gold.Chemscore.Hbonds>
donor molecule, donor type, donor heavy atom, donor atom, acceptor molecule, acceptor atom, score
      L1  H     5    38       P1 10747  0.98
      L1  H     8    31       P1  7948  0.11
      P1  H 10752 10764       L1    11  0.45

> <Gold.Chemscore.Hbond.Weighted>
-8.4656

> <Gold.Chemscore.Metal.Weighted>
-0.0000

> <Gold.Chemscore.Lipo.Weighted>
-9.0203

> <Gold.Chemscore.Internal_Hbond.Weighted>
0.0000

> <Gold.Chemscore.DEClash.Weighted>
0.1047

> <Gold.Chemscore.DEInternal.Weighted>
2.4842

> <Gold.Chemscore.Rot.Weighted>
4.0130

> <Gold.Chemscore.Internal.Correction.Weighted>
   9.000000E+99

> <Gold.Protein.RotatedTorsions>
[ 6907 6896 6895 6894 ] final   98.30 input  -60.11 | X-H torsion
[ 7974 7965 7964 7962 ] final   14.02 input  175.53 | X-H torsion
[ 8008 7997 7996 7995 ] final   83.05 input   59.86 | X-H torsion
[ 10167 10162 10161 10158 ] final   69.01 input  -65.29 | X-H torsion
[ 10718 10713 10712 10709 ] final   81.48 input   66.30 | X-H torsion
[ 10763 10752 10751 10750 ] final  -54.11 input  -60.55 | X-H torsion
[ 11005 11000 10999 10996 ] final   91.47 input  -57.11 | X-H torsion

> <Gold.Protein.ActiveResidues>
 VAL166  LYS551  ARG553  GLY616  TRP617  ASP618  TYR619  PRO620  LYS621  CYS622 
 ASP623  PHE694  ASN695  SER759  ASP760  ASP761  ALA762  ILE779  LEU786  VAL792 
 PHE793  MET794  SER795  GLU796  ALA797  LYS798  CYS799  TRP800  GLU811  SER814 

> <Gold.Protein.RotatedAtoms>
  152.5411  134.0602  159.8148 H   0  0  0  0  0  0  0  0  0  0  0  0  # atno 6907 bound_to 6896
  151.0731  133.5442  159.2633 H   0  0  0  0  0  0  0  0  0  0  0  0  # atno 6908 bound_to 6896
  151.2298  135.0558  159.9037 H   0  0  0  0  0  0  0  0  0  0  0  0  # atno 6909 bound_to 6896
  146.2315  139.9103  142.8525 H   0  0  0  0  0  0  0  0  0  0  0  0  # atno 7974 bound_to 7965
  155.9187  140.3422  155.6156 H   0  0  0  0  0  0  0  0  0  0  0  0  # atno 8008 bound_to 7997
  155.7300  140.0794  157.2312 H   0  0  0  0  0  0  0  0  0  0  0  0  # atno 8009 bound_to 7997
  154.4066  140.1590  156.2485 H   0  0  0  0  0  0  0  0  0  0  0  0  # atno 8010 bound_to 7997
  140.0724  144.5141  150.7218 H   0  0  0  0  0  0  0  0  0  0  0  0  # atno 10167 bound_to 10162
  157.6834  131.0006  150.2233 H   0  0  0  0  0  0  0  0  0  0  0  0  # atno 10718 bound_to 10713
  154.1696  135.6461  153.5006 H   0  0  0  0  0  0  0  0  0  0  0  0  # atno 10763 bound_to 10752
  153.0088  135.5380  154.6626 H   0  0  0  0  0  0  0  0  0  0  0  0  # atno 10764 bound_to 10752
  154.5962  135.2939  155.0556 H   0  0  0  0  0  0  0  0  0  0  0  0  # atno 10765 bound_to 10752
  139.8838  134.8676  156.3433 H   0  0  0  0  0  0  0  0  0  0  0  0  # atno 11005 bound_to 11000
  145.2236  140.9945  143.4031 LP  0  0  0  0  0  0  0  0  0  0  0  0  # atno 17320 bound_to 7965
  144.9589  139.4001  143.6365 LP  0  0  0  0  0  0  0  0  0  0  0  0  # atno 17321 bound_to 7965
  140.7119  143.2512  151.4555 LP  0  0  0  0  0  0  0  0  0  0  0  0  # atno 17342 bound_to 10162
  139.5828  144.1672  152.1990 LP  0  0  0  0  0  0  0  0  0  0  0  0  # atno 17343 bound_to 10162
  156.2880  130.3742  149.7869 LP  0  0  0  0  0  0  0  0  0  0  0  0  # atno 17370 bound_to 10713
  156.5537  130.8353  151.3307 LP  0  0  0  0  0  0  0  0  0  0  0  0  # atno 17371 bound_to 10713
  140.9644  133.7368  156.0446 LP  0  0  0  0  0  0  0  0  0  0  0  0  # atno 17394 bound_to 11000
  140.7949  134.3575  157.5455 LP  0  0  0  0  0  0  0  0  0  0  0  0  # atno 17395 bound_to 11000

$$$$
