AV-unprocessed.smi:290|AV-procd|sdf|2235|dock4
  -GOLD-   2262022103D 1   1.00000     0.00000
 Structure written by MMmdl.
 59 62  0  0  0  0  0  0  0  0  2 V2000
  146.4420  141.7041  157.5063 C   0  0  0  0  0  0  0  0  0  0  0  0
  146.9152  142.2440  156.1488 C   0  0  2  0  0  0  0  0  0  0  0  0
  145.8943  142.1001  155.1648 O   0  0  0  0  0  0  0  0  0  0  0  0
  146.4741  141.8460  153.8881 C   0  0  0  0  0  0  0  0  0  0  0  0
  147.9808  141.9898  154.0820 C   0  0  0  0  0  0  0  0  0  0  0  0
  148.1692  141.5880  155.5398 C   0  0  1  0  0  0  0  0  0  0  0  0
  149.3397  142.2080  156.0369 O   0  0  0  0  0  0  0  0  0  0  0  0
  148.2528  140.0530  155.7667 C   0  0  0  0  0  0  0  0  0  0  0  0
  147.3843  139.2751  154.8972 N   0  0  0  0  0  0  0  0  0  0  0  0
  147.5490  139.0624  153.5475 C   0  0  0  0  0  0  0  0  0  0  0  0
  146.6301  138.3273  152.9837 N   0  0  0  0  0  0  0  0  0  0  0  0
  145.7529  138.0254  154.0191 C   0  0  0  0  0  0  0  0  0  0  0  0
  144.5454  137.2761  154.1193 C   0  0  0  0  0  0  0  0  0  0  0  0
  143.9469  136.6136  153.1043 N   0  0  0  0  0  0  0  0  0  0  0  0
  144.5916  136.6511  151.7930 C   0  0  0  0  0  0  0  0  0  0  0  0
  144.6765  135.2003  151.3044 C   0  0  0  0  0  0  0  0  0  0  0  0
  144.5450  134.3774  152.5923 C   0  0  2  0  0  0  0  0  0  0  0  0
  144.1382  132.9520  152.4162 N   0  3  1  0  0  0  0  0  0  0  0  0
  143.1539  132.7671  151.3191 C   0  0  0  0  0  0  0  0  0  0  0  0
  145.3117  132.0463  152.2698 C   0  0  0  0  0  0  0  0  0  0  0  0
  145.9074  132.0463  150.8503 C   0  0  0  0  0  0  0  0  0  0  0  0
  147.1354  132.7415  150.8345 O   0  0  0  0  0  0  0  0  0  0  0  0
  143.5658  135.2406  153.4162 C   0  0  2  0  0  0  0  0  0  0  0  0
  142.0798  135.0231  153.0721 C   0  0  0  0  0  0  0  0  0  0  0  0
  143.9589  137.1767  155.3367 N   0  0  0  0  0  0  0  0  0  0  0  0
  144.5013  137.7896  156.3931 C   0  0  0  0  0  0  0  0  0  0  0  0
  145.6112  138.5287  156.4506 N   0  0  0  0  0  0  0  0  0  0  0  0
  146.2145  138.6146  155.2302 C   0  0  0  0  0  0  0  0  0  0  0  0
  145.5172  134.3805  153.0871 H   0  0  0  0  0  0  0  0  0  0  0  0
  143.7034  135.0429  154.4807 H   0  0  0  0  0  0  0  0  0  0  0  0
  147.2319  141.7767  158.2543 H   0  0  0  0  0  0  0  0  0  0  0  0
  146.1310  140.6615  157.4412 H   0  0  0  0  0  0  0  0  0  0  0  0
  145.5878  142.2759  157.8698 H   0  0  0  0  0  0  0  0  0  0  0  0
  147.0924  143.3170  156.2467 H   0  0  0  0  0  0  0  0  0  0  0  0
  146.2207  140.8296  153.5856 H   0  0  0  0  0  0  0  0  0  0  0  0
  146.0877  142.5305  153.1327 H   0  0  0  0  0  0  0  0  0  0  0  0
  148.5643  141.4113  153.3671 H   0  0  0  0  0  0  0  0  0  0  0  0
  148.2527  143.0378  153.9433 H   0  0  0  0  0  0  0  0  0  0  0  0
  149.2207  143.1451  156.0017 H   0  0  0  0  0  0  0  0  0  0  0  0
  149.2741  139.7016  155.6161 H   0  0  0  0  0  0  0  0  0  0  0  0
  147.9988  139.8083  156.7989 H   0  0  0  0  0  0  0  0  0  0  0  0
  148.3836  139.4661  152.9928 H   0  0  0  0  0  0  0  0  0  0  0  0
  144.0020  137.2583  151.1056 H   0  0  0  0  0  0  0  0  0  0  0  0
  145.5838  137.0995  151.8405 H   0  0  0  0  0  0  0  0  0  0  0  0
  143.8438  134.9934  150.6309 H   0  0  0  0  0  0  0  0  0  0  0  0
  145.6036  135.0043  150.7649 H   0  0  0  0  0  0  0  0  0  0  0  0
  143.5640  133.1092  150.3680 H   0  0  0  0  0  0  0  0  0  0  0  0
  142.2331  133.3167  151.5119 H   0  0  0  0  0  0  0  0  0  0  0  0
  142.8645  131.7240  151.2047 H   0  0  0  0  0  0  0  0  0  0  0  0
  146.0750  132.3301  152.9956 H   0  0  0  0  0  0  0  0  0  0  0  0
  145.0375  131.0203  152.5141 H   0  0  0  0  0  0  0  0  0  0  0  0
  146.0482  131.0418  150.4542 H   0  0  0  0  0  0  0  0  0  0  0  0
  145.2242  132.5545  150.1695 H   0  0  0  0  0  0  0  0  0  0  0  0
  147.7817  132.2034  150.4024 H   0  0  0  0  0  0  0  0  0  0  0  0
  141.7531  134.0153  153.3241 H   0  0  0  0  0  0  0  0  0  0  0  0
  141.8758  135.1862  152.0138 H   0  0  0  0  0  0  0  0  0  0  0  0
  141.4507  135.7125  153.6360 H   0  0  0  0  0  0  0  0  0  0  0  0
  143.9711  137.6687  157.3264 H   0  0  0  0  0  0  0  0  0  0  0  0
  143.6739  132.6843  153.2727 H   0  0  0  0  0  0  0  0  0  0  0  0
  1  2  1  0  0  0  0
  1 31  1  0  0  0  0
  1 32  1  0  0  0  0
  1 33  1  0  0  0  0
  2  6  1  0  0  0  0
  2  3  1  0  0  0  0
  2 34  1  0  0  0  0
  3  4  1  0  0  0  0
  4  5  1  0  0  0  0
  4 35  1  0  0  0  0
  4 36  1  0  0  0  0
  5  6  1  0  0  0  0
  5 37  1  0  0  0  0
  5 38  1  0  0  0  0
  6  7  1  0  0  0  0
  6  8  1  0  0  0  0
  7 39  1  0  0  0  0
  8  9  1  0  0  0  0
  8 40  1  0  0  0  0
  8 41  1  0  0  0  0
  9 28  1  0  0  0  0
  9 10  1  0  0  0  0
 10 11  2  0  0  0  0
 10 42  1  0  0  0  0
 11 12  1  0  0  0  0
 12 28  2  0  0  0  0
 12 13  1  0  0  0  0
 13 14  1  0  0  0  0
 13 25  2  0  0  0  0
 14 23  1  0  0  0  0
 14 15  1  0  0  0  0
 15 16  1  0  0  0  0
 15 43  1  0  0  0  0
 15 44  1  0  0  0  0
 16 17  1  0  0  0  0
 16 45  1  0  0  0  0
 16 46  1  0  0  0  0
 17 29  1  0  0  0  0
 17 18  1  0  0  0  0
 17 23  1  0  0  0  0
 18 19  1  0  0  0  0
 18 20  1  0  0  0  0
 18 59  1  0  0  0  0
 19 47  1  0  0  0  0
 19 48  1  0  0  0  0
 19 49  1  0  0  0  0
 20 21  1  0  0  0  0
 20 50  1  0  0  0  0
 20 51  1  0  0  0  0
 21 22  1  0  0  0  0
 21 52  1  0  0  0  0
 21 53  1  0  0  0  0
 22 54  1  0  0  0  0
 23 30  1  0  0  0  0
 23 24  1  0  0  0  0
 24 55  1  0  0  0  0
 24 56  1  0  0  0  0
 24 57  1  0  0  0  0
 25 26  1  0  0  0  0
 26 27  2  0  0  0  0
 26 58  1  0  0  0  0
 27 28  1  0  0  0  0
M  CHG  1  18   1
M  END
> <s_m_source_file>
AV-unprocessed.smi

> <i_m_source_file_index>
290

> <i_lp_mmshare_version>
43012

> <i_f3d_flags>
0

> <s_epik_input>
W0NIMl0xW0NIMl1PW0NAQEhdKFtDSDNdKVtDQEBdMShbT0hdKVtDSDJdbihbY0hdbjIpYyhjMjMpbltjSF1uYzNONFtDSDJdW0NIMl1bQ0BIXShbQ0BIXTRbQ0gzXSlOKFtDSDNdKVtDSDJdW0NIMl1bT0hd

> <s_epik_cmdline>
J2VwaWtfcHl0aG9uJywgJy1waCcsICc3LjAnLCAnLXRuJywgJzgnLCAnLW1hJywgJzIwMCcsICctbWV0YWxfYmluZGluZycsICctaW1hZScsICc8aW5maWxlLm1hZT4nLCAnLW9tYWUnLCAnPG91dGZpbGUubWFlPic=

> <r_lp_tautomer_probability>
1

> <r_epik_Ionization_Penalty>
0.0036983

> <r_epik_Ionization_Penalty_Charging>
0.0032725

> <r_epik_Ionization_Penalty_Neutral>
0.000425798

> <r_epik_State_Penalty>
-0

> <r_epik_Charging_Adjusted_Penalty>
0.0032725

> <i_epik_Tot_Q>
1

> <i_epik_Tot_abs_Q>
1

> <r_epik_Metal_State_Penalty>
-0

> <b_epik_Metal_Only>
0

> <s_lp_Force_Field>
OPLS_2005

> <r_lp_Energy>
64.7341

> <b_lp_Chiralities_Consistent>
1

> <s_lp_Variant>
AV-unprocessed.smi:290-21

> <Gold.Version>
5.8.1

> <Gold.Id.Protein>
6NUR|6NUR_protein|mol2

> <Gold.PLP.Fitness>
43.5754

> <Gold.PLP.PLP>
-31.5248

> <Gold.PLP.part.hbond>
-3.0000

> <Gold.PLP.part.metal>
0.0000

> <Gold.PLP.part.buried>
-2.8206

> <Gold.PLP.part.nonpolar>
-26.0566

> <Gold.PLP.part.repulsive>
0.5510

> <Gold.PLP.ligand.clash>
0.0000

> <Gold.PLP.ligand.torsion>
1.6498

> <Gold.PLP.Chemscore.Hbond>
4.0000

> <Gold.PLP.Chemscore.CHOScore>
1.0000

> <Gold.PLP.Chemscore.Metal>
0.0000

> <Gold.Chemscore.Hbonds>
donor molecule, donor type, donor heavy atom, donor atom, acceptor molecule, acceptor atom, score
      L1  H     7    39       P1  8028  1.00
      L1  H    18    59       P1 10957  2.00
      L1  H    22    54       P1 10747  1.00
      L1  C    10    42       P1  7957  1.00

> <Gold.PLP.Chemscore.Internal.Correction>
0.3503

> <Gold.Rescore>
     Score         DG    S(hbond)    S(metal)    S(lipo)     H(rot)  DE(clash)    DE(int)     intcor
      8.30     -13.12       2.72        0.00      67.90       3.67       0.46       4.36       ----

> <Gold.Chemscore.Fitness>
8.3003

> <Gold.Chemscore.DG>
-13.1167

> <Gold.Chemscore.ZeroCoef>
-5.4800

> <Gold.Chemscore.Hbond>
2.7177

> <Gold.Chemscore.Metal>
0.0000

> <Gold.Chemscore.Lipo>
67.8977

> <Gold.Chemscore.Internal_Hbond>
0.0000

> <Gold.Chemscore.DEClash>
0.4601

> <Gold.Chemscore.DEInternal>
4.3563

> <Gold.Chemscore.Rot>
3.6658

> <Gold.Chemscore.Internal.Correction>
   9.000000E+99

> <Gold.Chemscore.Hbonds>
donor molecule, donor type, donor heavy atom, donor atom, acceptor molecule, acceptor atom, score
      L1  H     7    39       P1  8028  1.00
      L1  H    18    59       P1 10957  0.32
      L1  H    22    54       P1 10747  0.99

> <Gold.Chemscore.Hbond.Weighted>
-9.0770

> <Gold.Chemscore.Metal.Weighted>
-0.0000

> <Gold.Chemscore.Lipo.Weighted>
-7.9440

> <Gold.Chemscore.Internal_Hbond.Weighted>
0.0000

> <Gold.Chemscore.DEClash.Weighted>
0.4601

> <Gold.Chemscore.DEInternal.Weighted>
4.3563

> <Gold.Chemscore.Rot.Weighted>
9.3844

> <Gold.Chemscore.Internal.Correction.Weighted>
   9.000000E+99

> <Gold.Protein.RotatedTorsions>
[ 6907 6896 6895 6894 ] final  139.88 input  -60.11 | X-H torsion
[ 7974 7965 7964 7962 ] final -148.38 input  175.53 | X-H torsion
[ 8008 7997 7996 7995 ] final  174.49 input   59.86 | X-H torsion
[ 10167 10162 10161 10158 ] final   24.63 input  -65.29 | X-H torsion
[ 10718 10713 10712 10709 ] final -127.64 input   66.30 | X-H torsion
[ 10763 10752 10751 10750 ] final -141.31 input  -60.55 | X-H torsion
[ 11005 11000 10999 10996 ] final  125.34 input  -57.11 | X-H torsion

> <Gold.Protein.ActiveResidues>
 VAL166  LYS551  ARG553  GLY616  TRP617  ASP618  TYR619  PRO620  LYS621  CYS622 
 ASP623  PHE694  ASN695  SER759  ASP760  ASP761  ALA762  ILE779  LEU786  VAL792 
 PHE793  MET794  SER795  GLU796  ALA797  LYS798  CYS799  TRP800  GLU811  SER814 

> <Gold.Protein.RotatedAtoms>
  152.2497  133.5204  159.5317 H   0  0  0  0  0  0  0  0  0  0  0  0  # atno 6907 bound_to 6896
  150.7089  134.0977  159.3963 H   0  0  0  0  0  0  0  0  0  0  0  0  # atno 6908 bound_to 6896
  151.8897  135.0421  160.0547 H   0  0  0  0  0  0  0  0  0  0  0  0  # atno 6909 bound_to 6896
  144.8033  140.5204  143.5692 H   0  0  0  0  0  0  0  0  0  0  0  0  # atno 7974 bound_to 7965
  156.0969  140.1433  156.9519 H   0  0  0  0  0  0  0  0  0  0  0  0  # atno 8008 bound_to 7997
  154.4677  140.0920  156.7109 H   0  0  0  0  0  0  0  0  0  0  0  0  # atno 8009 bound_to 7997
  155.4826  140.3445  155.4344 H   0  0  0  0  0  0  0  0  0  0  0  0  # atno 8010 bound_to 7997
  140.5173  144.0062  150.6400 H   0  0  0  0  0  0  0  0  0  0  0  0  # atno 10167 bound_to 10162
  156.1876  130.6774  151.0384 H   0  0  0  0  0  0  0  0  0  0  0  0  # atno 10718 bound_to 10713
  154.8549  135.3528  154.5847 H   0  0  0  0  0  0  0  0  0  0  0  0  # atno 10763 bound_to 10752
  153.6457  135.6996  153.5231 H   0  0  0  0  0  0  0  0  0  0  0  0  # atno 10764 bound_to 10752
  153.2935  135.4228  155.1146 H   0  0  0  0  0  0  0  0  0  0  0  0  # atno 10765 bound_to 10752
  139.9402  134.9636  156.8544 H   0  0  0  0  0  0  0  0  0  0  0  0  # atno 11005 bound_to 11000
  145.5500  139.1476  143.3399 LP  0  0  0  0  0  0  0  0  0  0  0  0  # atno 17320 bound_to 7965
  146.2319  140.5638  142.8971 LP  0  0  0  0  0  0  0  0  0  0  0  0  # atno 17321 bound_to 7965
  140.3401  143.3025  152.0597 LP  0  0  0  0  0  0  0  0  0  0  0  0  # atno 17342 bound_to 10162
  139.4913  144.6449  151.6800 LP  0  0  0  0  0  0  0  0  0  0  0  0  # atno 17343 bound_to 10162
  157.6909  131.0810  150.7111 LP  0  0  0  0  0  0  0  0  0  0  0  0  # atno 17370 bound_to 10713
  156.7168  130.4668  149.5533 LP  0  0  0  0  0  0  0  0  0  0  0  0  # atno 17371 bound_to 10713
  140.5972  134.0206  155.7523 LP  0  0  0  0  0  0  0  0  0  0  0  0  # atno 17394 bound_to 11000
  141.1033  133.9734  157.3041 LP  0  0  0  0  0  0  0  0  0  0  0  0  # atno 17395 bound_to 11000

$$$$
