AV-unprocessed.smi:1285|AV-procd|sdf|5370|dock10
  -GOLD-   22720 4513D 1   1.00000     0.00000
 Structure written by MMmdl.
 46 47  0  0  0  0  0  0  0  0  1 V2000
  151.3312  145.2902  158.9606 C   0  0  0  0  0  0  0  0  0  0  0  0
  151.4879  144.4099  157.7068 C   0  0  0  0  0  0  0  0  0  0  0  0
  151.1413  142.8985  157.8951 C   0  0  2  0  0  0  0  0  0  0  0  0
  151.0011  142.3018  156.4686 C   0  0  0  0  0  0  0  0  0  0  0  0
  149.7587  142.7998  158.6187 C   0  0  0  0  0  0  0  0  0  0  0  0
  148.6077  142.9619  157.7305 N   0  0  0  0  0  0  0  0  0  0  0  0
  147.3446  142.5993  158.0073 C   0  0  0  0  0  0  0  0  0  0  0  0
  147.0125  142.0630  159.0650 O   0  0  0  0  0  0  0  0  0  0  0  0
  146.3005  142.8893  156.9188 C   0  0  1  0  0  0  0  0  0  0  0  0
  145.9312  141.6292  156.1095 C   0  0  0  0  0  0  0  0  0  0  0  0
  145.1337  143.5373  157.5057 N   0  0  0  0  0  0  0  0  0  0  0  0
  145.0524  144.6432  158.2493 C   0  0  0  0  0  0  0  0  0  0  0  0
  143.8260  144.9242  158.6666 N   0  0  0  0  0  0  0  0  0  0  0  0
  143.1521  143.8701  158.1180 C   0  0  0  0  0  0  0  0  0  0  0  0
  143.8890  143.0040  157.4228 N   0  0  0  0  0  0  0  0  0  0  0  0
  152.2161  142.1915  158.6483 N   0  0  0  0  0  0  0  0  0  0  0  0
  152.0661  140.7334  158.7327 C   0  0  0  0  0  0  0  0  0  0  0  0
  153.2833  140.0660  159.3951 C   0  0  0  0  0  0  0  0  0  0  0  0
  153.4928  140.6236  160.6869 O   0  0  0  0  0  0  0  0  0  0  0  0
  153.6990  142.0304  160.6449 C   0  0  0  0  0  0  0  0  0  0  0  0
  152.4831  142.7119  159.9948 C   0  0  0  0  0  0  0  0  0  0  0  0
  151.5834  146.3260  158.7326 H   0  0  0  0  0  0  0  0  0  0  0  0
  151.9897  144.9679  159.7665 H   0  0  0  0  0  0  0  0  0  0  0  0
  150.3087  145.2817  159.3383 H   0  0  0  0  0  0  0  0  0  0  0  0
  150.8906  144.8372  156.9015 H   0  0  0  0  0  0  0  0  0  0  0  0
  152.5179  144.5156  157.3642 H   0  0  0  0  0  0  0  0  0  0  0  0
  150.4085  142.9405  155.8131 H   0  0  0  0  0  0  0  0  0  0  0  0
  150.5068  141.3303  156.4797 H   0  0  0  0  0  0  0  0  0  0  0  0
  151.9717  142.1665  155.9906 H   0  0  0  0  0  0  0  0  0  0  0  0
  149.6671  141.8608  159.1645 H   0  0  0  0  0  0  0  0  0  0  0  0
  149.6675  143.5841  159.3694 H   0  0  0  0  0  0  0  0  0  0  0  0
  148.7881  143.3904  156.8344 H   0  0  0  0  0  0  0  0  0  0  0  0
  146.7414  143.6011  156.2185 H   0  0  0  0  0  0  0  0  0  0  0  0
  146.8143  141.1891  155.6447 H   0  0  0  0  0  0  0  0  0  0  0  0
  145.2305  141.8731  155.3106 H   0  0  0  0  0  0  0  0  0  0  0  0
  145.4692  140.8605  156.7301 H   0  0  0  0  0  0  0  0  0  0  0  0
  145.9094  145.2532  158.4946 H   0  0  0  0  0  0  0  0  0  0  0  0
  142.0878  143.7333  158.2407 H   0  0  0  0  0  0  0  0  0  0  0  0
  151.1748  140.4756  159.3045 H   0  0  0  0  0  0  0  0  0  0  0  0
  151.9453  140.2948  157.7439 H   0  0  0  0  0  0  0  0  0  0  0  0
  153.1198  138.9927  159.4930 H   0  0  0  0  0  0  0  0  0  0  0  0
  154.1770  140.1994  158.7834 H   0  0  0  0  0  0  0  0  0  0  0  0
  153.8417  142.3991  161.6607 H   0  0  0  0  0  0  0  0  0  0  0  0
  154.6112  142.2568  160.0904 H   0  0  0  0  0  0  0  0  0  0  0  0
  152.6751  143.7829  159.9700 H   0  0  0  0  0  0  0  0  0  0  0  0
  151.6159  142.5602  160.6375 H   0  0  0  0  0  0  0  0  0  0  0  0
  1  2  1  0  0  0  0
  1 22  1  0  0  0  0
  1 23  1  0  0  0  0
  1 24  1  0  0  0  0
  2  3  1  0  0  0  0
  2 25  1  0  0  0  0
  2 26  1  0  0  0  0
  3  4  1  0  0  0  0
  3  5  1  0  0  0  0
  3 16  1  0  0  0  0
  4 27  1  0  0  0  0
  4 28  1  0  0  0  0
  4 29  1  0  0  0  0
  5  6  1  0  0  0  0
  5 30  1  0  0  0  0
  5 31  1  0  0  0  0
  6  7  1  0  0  0  0
  6 32  1  0  0  0  0
  7  8  2  0  0  0  0
  7  9  1  0  0  0  0
  9 10  1  0  0  0  0
  9 11  1  0  0  0  0
  9 33  1  0  0  0  0
 10 34  1  0  0  0  0
 10 35  1  0  0  0  0
 10 36  1  0  0  0  0
 11 15  1  0  0  0  0
 11 12  1  0  0  0  0
 12 13  2  0  0  0  0
 12 37  1  0  0  0  0
 13 14  1  0  0  0  0
 14 15  2  0  0  0  0
 14 38  1  0  0  0  0
 16 21  1  0  0  0  0
 16 17  1  0  0  0  0
 17 18  1  0  0  0  0
 17 39  1  0  0  0  0
 17 40  1  0  0  0  0
 18 19  1  0  0  0  0
 18 41  1  0  0  0  0
 18 42  1  0  0  0  0
 19 20  1  0  0  0  0
 20 21  1  0  0  0  0
 20 43  1  0  0  0  0
 20 44  1  0  0  0  0
 21 45  1  0  0  0  0
 21 46  1  0  0  0  0
M  END
> <s_m_source_file>
AV-unprocessed.smi

> <i_m_source_file_index>
1285

> <i_lp_mmshare_version>
43012

> <i_f3d_flags>
0

> <s_epik_input>
W0NIMl0xW0NIMl1PW0NIMl1bQ0gyXU4xW0NAQF0oW0NIM10pKFtDSDJdW0NIM10pW0NIMl1bTkhdQyg9TylbQ0BIXShbQ0gzXSluMltjSF1uW2NIXW4y

> <s_epik_cmdline>
J2VwaWtfcHl0aG9uJywgJy1waCcsICc3LjAnLCAnLXRuJywgJzgnLCAnLW1hJywgJzIwMCcsICctbWV0YWxfYmluZGluZycsICctaW1hZScsICc8aW5maWxlLm1hZT4nLCAnLW9tYWUnLCAnPG91dGZpbGUubWFlPic=

> <r_lp_tautomer_probability>
1

> <r_epik_Ionization_Penalty>
0.285697

> <r_epik_Ionization_Penalty_Charging>
0

> <r_epik_Ionization_Penalty_Neutral>
0.285697

> <r_epik_State_Penalty>
0.278478

> <r_epik_Charging_Adjusted_Penalty>
0.278478

> <i_epik_Tot_Q>
0

> <i_epik_Tot_abs_Q>
0

> <r_epik_Metal_State_Penalty>
0.278477

> <b_epik_Metal_Only>
0

> <s_lp_Force_Field>
OPLS_2005

> <r_lp_Energy>
49.308

> <b_lp_Chiralities_Consistent>
1

> <s_lp_Variant>
AV-unprocessed.smi:1285-4

> <Gold.Version>
5.8.1

> <Gold.Id.Protein>
6NUR|6NUR_protein|mol2

> <Gold.PLP.Fitness>
40.1015

> <Gold.PLP.PLP>
-33.9910

> <Gold.PLP.part.hbond>
-2.8258

> <Gold.PLP.part.metal>
0.0000

> <Gold.PLP.part.buried>
-3.4478

> <Gold.PLP.part.nonpolar>
-26.5605

> <Gold.PLP.part.repulsive>
0.1538

> <Gold.PLP.ligand.clash>
0.0000

> <Gold.PLP.ligand.torsion>
1.0742

> <Gold.PLP.Chemscore.Hbond>
1.6880

> <Gold.PLP.Chemscore.CHOScore>
1.0000

> <Gold.PLP.Chemscore.Metal>
0.0000

> <Gold.Chemscore.Hbonds>
donor molecule, donor type, donor heavy atom, donor atom, acceptor molecule, acceptor atom, score
      L1  H     6    32       P1  8028  1.00
      P1  H  6934  6946       L1     8  0.67
      L1  C    12    37       P1  8029  1.00

> <Gold.PLP.Chemscore.Internal.Correction>
0.1948

> <Gold.Rescore>
     Score         DG    S(hbond)    S(metal)    S(lipo)     H(rot)  DE(clash)    DE(int)     intcor
     12.29     -13.62       1.38        0.00      88.83       2.68       0.11       1.22       ----

> <Gold.Chemscore.Fitness>
12.2854

> <Gold.Chemscore.DG>
-13.6218

> <Gold.Chemscore.ZeroCoef>
-5.4800

> <Gold.Chemscore.Hbond>
1.3818

> <Gold.Chemscore.Metal>
0.0000

> <Gold.Chemscore.Lipo>
88.8266

> <Gold.Chemscore.Internal_Hbond>
0.0000

> <Gold.Chemscore.DEClash>
0.1120

> <Gold.Chemscore.DEInternal>
1.2243

> <Gold.Chemscore.Rot>
2.6821

> <Gold.Chemscore.Internal.Correction>
   9.000000E+99

> <Gold.Chemscore.Hbonds>
donor molecule, donor type, donor heavy atom, donor atom, acceptor molecule, acceptor atom, score
      L1  H     6    32       P1  8028  0.64
      P1  H  6934  6946       L1     8  0.64

> <Gold.Chemscore.Hbond.Weighted>
-4.6152

> <Gold.Chemscore.Metal.Weighted>
-0.0000

> <Gold.Chemscore.Lipo.Weighted>
-10.3927

> <Gold.Chemscore.Internal_Hbond.Weighted>
0.0000

> <Gold.Chemscore.DEClash.Weighted>
0.1120

> <Gold.Chemscore.DEInternal.Weighted>
1.2243

> <Gold.Chemscore.Rot.Weighted>
6.8661

> <Gold.Chemscore.Internal.Correction.Weighted>
   9.000000E+99

> <Gold.Protein.RotatedTorsions>
[ 6907 6896 6895 6894 ] final -125.80 input  -60.11 | X-H torsion
[ 7974 7965 7964 7962 ] final -104.40 input  175.53 | X-H torsion
[ 8008 7997 7996 7995 ] final  120.26 input   59.86 | X-H torsion
[ 10167 10162 10161 10158 ] final   21.35 input  -65.29 | X-H torsion
[ 10718 10713 10712 10709 ] final   62.75 input   66.30 | X-H torsion
[ 10763 10752 10751 10750 ] final  -37.11 input  -60.55 | X-H torsion
[ 11005 11000 10999 10996 ] final -176.52 input  -57.11 | X-H torsion

> <Gold.Protein.ActiveResidues>
 VAL166  LYS551  ARG553  GLY616  TRP617  ASP618  TYR619  PRO620  LYS621  CYS622 
 ASP623  PHE694  ASN695  SER759  ASP760  ASP761  ALA762  ILE779  LEU786  VAL792 
 PHE793  MET794  SER795  GLU796  ALA797  LYS798  CYS799  TRP800  GLU811  SER814 

> <Gold.Protein.RotatedAtoms>
  150.8905  133.7250  159.2905 H   0  0  0  0  0  0  0  0  0  0  0  0  # atno 6907 bound_to 6896
  151.4802  135.1050  159.9785 H   0  0  0  0  0  0  0  0  0  0  0  0  # atno 6908 bound_to 6896
  152.4817  133.8223  159.7115 H   0  0  0  0  0  0  0  0  0  0  0  0  # atno 6909 bound_to 6896
  145.2436  140.9214  143.3136 H   0  0  0  0  0  0  0  0  0  0  0  0  # atno 7974 bound_to 7965
  156.2634  140.2835  156.1121 H   0  0  0  0  0  0  0  0  0  0  0  0  # atno 8008 bound_to 7997
  155.1246  140.0393  157.2776 H   0  0  0  0  0  0  0  0  0  0  0  0  # atno 8009 bound_to 7997
  154.6645  140.2574  155.7079 H   0  0  0  0  0  0  0  0  0  0  0  0  # atno 8010 bound_to 7997
  140.5433  143.9638  150.6532 H   0  0  0  0  0  0  0  0  0  0  0  0  # atno 10167 bound_to 10162
  157.5923  130.9067  149.9628 H   0  0  0  0  0  0  0  0  0  0  0  0  # atno 10718 bound_to 10713
  153.8909  135.6812  153.4760 H   0  0  0  0  0  0  0  0  0  0  0  0  # atno 10763 bound_to 10752
  153.1181  135.4752  154.9148 H   0  0  0  0  0  0  0  0  0  0  0  0  # atno 10764 bound_to 10752
  154.7623  135.3214  154.8308 H   0  0  0  0  0  0  0  0  0  0  0  0  # atno 10765 bound_to 10752
  140.4512  134.6342  157.4802 H   0  0  0  0  0  0  0  0  0  0  0  0  # atno 11005 bound_to 11000
  144.9567  139.4024  143.6376 LP  0  0  0  0  0  0  0  0  0  0  0  0  # atno 17320 bound_to 7965
  146.3322  139.8600  142.8858 LP  0  0  0  0  0  0  0  0  0  0  0  0  # atno 17321 bound_to 7965
  140.3044  143.3239  152.0940 LP  0  0  0  0  0  0  0  0  0  0  0  0  # atno 17342 bound_to 10162
  139.4997  144.6676  151.6319 LP  0  0  0  0  0  0  0  0  0  0  0  0  # atno 17343 bound_to 10162
  156.0980  130.3658  150.0271 LP  0  0  0  0  0  0  0  0  0  0  0  0  # atno 17370 bound_to 10713
  156.8391  130.9419  151.3633 LP  0  0  0  0  0  0  0  0  0  0  0  0  # atno 17371 bound_to 10713
  140.0006  134.6843  155.9537 LP  0  0  0  0  0  0  0  0  0  0  0  0  # atno 17394 bound_to 11000
  141.1663  133.6537  156.4492 LP  0  0  0  0  0  0  0  0  0  0  0  0  # atno 17395 bound_to 11000

$$$$
