AV-unprocessed.smi:310|AV-procd|sdf|2296|dock4
  -GOLD-   2262022193D 1   1.00000     0.00000
 Structure written by MMmdl.
 40 42  0  0  0  0  0  0  0  0  2 V2000
  150.9679  134.0229  155.9209 C   0  0  0  0  0  0  0  0  0  0  0  0
  150.7157  135.4827  155.7570 C   0  0  0  0  0  0  0  0  0  0  0  0
  149.5788  136.2084  155.5411 C   0  0  0  0  0  0  0  0  0  0  0  0
  150.0544  137.5467  155.4775 C   0  0  0  0  0  0  0  0  0  0  0  0
  149.3038  138.6427  155.2874 N   0  5  0  0  0  0  0  0  0  0  0  0
  149.8418  139.8734  155.4529 C   0  0  0  0  0  0  0  0  0  0  0  0
  150.6885  140.4035  154.7294 O   0  0  0  0  0  0  0  0  0  0  0  0
  149.3700  140.5300  156.5231 N   0  0  0  0  0  0  0  0  0  0  0  0
  149.7650  141.8688  156.9532 C   0  0  0  0  0  0  0  0  0  0  0  0
  151.3047  141.9789  157.0518 C   0  0  0  0  0  0  0  0  0  0  0  0
  151.7236  143.3112  157.6970 C   0  0  0  0  0  0  0  0  0  0  0  0
  151.0814  143.4228  159.0139 N   0  0  0  0  0  0  0  0  0  0  0  0
  151.7053  143.3524  160.2165 C   0  0  0  0  0  0  0  0  0  0  0  0
  151.1028  143.5241  161.2776 O   0  0  0  0  0  0  0  0  0  0  0  0
  153.1692  143.0278  160.2106 C   0  0  0  0  0  0  0  0  0  0  0  0
  153.6156  141.7131  159.5955 C   0  0  0  0  0  0  0  0  0  0  0  0
  153.6201  141.8825  161.0921 C   0  0  0  0  0  0  0  0  0  0  0  0
  149.6226  143.5239  158.8844 C   0  0  0  0  0  0  0  0  0  0  0  0
  149.0887  142.2028  158.3004 C   0  0  0  0  0  0  0  0  0  0  0  0
  151.3624  137.6273  155.6559 N   0  0  0  0  0  0  0  0  0  0  0  0
  151.7951  136.3071  155.8292 O   0  0  0  0  0  0  0  0  0  0  0  0
  150.4218  133.6322  156.7793 H   0  0  0  0  0  0  0  0  0  0  0  0
  152.0282  133.8209  156.0746 H   0  0  0  0  0  0  0  0  0  0  0  0
  150.6448  133.4749  155.0358 H   0  0  0  0  0  0  0  0  0  0  0  0
  148.5685  135.8418  155.4396 H   0  0  0  0  0  0  0  0  0  0  0  0
  148.6783  140.0569  157.0858 H   0  0  0  0  0  0  0  0  0  0  0  0
  149.4129  142.5979  156.2207 H   0  0  0  0  0  0  0  0  0  0  0  0
  151.6995  141.1524  157.6443 H   0  0  0  0  0  0  0  0  0  0  0  0
  151.7528  141.8906  156.0615 H   0  0  0  0  0  0  0  0  0  0  0  0
  152.8090  143.3966  157.7266 H   0  0  0  0  0  0  0  0  0  0  0  0
  151.3945  144.1408  157.0698 H   0  0  0  0  0  0  0  0  0  0  0  0
  153.8549  143.8620  160.0742 H   0  0  0  0  0  0  0  0  0  0  0  0
  152.8709  141.0385  159.1769 H   0  0  0  0  0  0  0  0  0  0  0  0
  154.5736  141.7117  159.0798 H   0  0  0  0  0  0  0  0  0  0  0  0
  154.5797  141.9936  161.5927 H   0  0  0  0  0  0  0  0  0  0  0  0
  152.8638  141.3421  161.6590 H   0  0  0  0  0  0  0  0  0  0  0  0
  149.1241  143.7358  159.8310 H   0  0  0  0  0  0  0  0  0  0  0  0
  149.3711  144.3555  158.2245 H   0  0  0  0  0  0  0  0  0  0  0  0
  148.0075  142.2622  158.1719 H   0  0  0  0  0  0  0  0  0  0  0  0
  149.2713  141.3987  159.0154 H   0  0  0  0  0  0  0  0  0  0  0  0
  1  2  1  0  0  0  0
  1 22  1  0  0  0  0
  1 23  1  0  0  0  0
  1 24  1  0  0  0  0
  2 21  1  0  0  0  0
  2  3  2  0  0  0  0
  3  4  1  0  0  0  0
  3 25  1  0  0  0  0
  4  5  1  0  0  0  0
  4 20  2  0  0  0  0
  5  6  1  0  0  0  0
  6  7  2  0  0  0  0
  6  8  1  0  0  0  0
  8  9  1  0  0  0  0
  8 26  1  0  0  0  0
  9 19  1  0  0  0  0
  9 10  1  0  0  0  0
  9 27  1  0  0  0  0
 10 11  1  0  0  0  0
 10 28  1  0  0  0  0
 10 29  1  0  0  0  0
 11 12  1  0  0  0  0
 11 30  1  0  0  0  0
 11 31  1  0  0  0  0
 12 13  1  0  0  0  0
 12 18  1  0  0  0  0
 13 14  2  0  0  0  0
 13 15  1  0  0  0  0
 15 17  1  0  0  0  0
 15 16  1  0  0  0  0
 15 32  1  0  0  0  0
 16 17  1  0  0  0  0
 16 33  1  0  0  0  0
 16 34  1  0  0  0  0
 17 35  1  0  0  0  0
 17 36  1  0  0  0  0
 18 19  1  0  0  0  0
 18 37  1  0  0  0  0
 18 38  1  0  0  0  0
 19 39  1  0  0  0  0
 19 40  1  0  0  0  0
 20 21  1  0  0  0  0
M  CHG  1   5  -1
M  END
> <s_m_source_file>
AV-unprocessed.smi

> <i_m_source_file_index>
310

> <i_lp_mmshare_version>
43012

> <i_f3d_flags>
0

> <s_epik_input>
W0NIM11jMVtjSF1jKG5vMSlbTkhdQyg9TylbTkhdW0NIXTJbQ0gyXVtDSDJdTihbQ0gyXVtDSDJdMilDKD1PKVtDSF0zW0NIMl1bQ0gyXTM=

> <s_epik_cmdline>
J2VwaWtfcHl0aG9uJywgJy1waCcsICc3LjAnLCAnLXRuJywgJzgnLCAnLW1hJywgJzIwMCcsICctbWV0YWxfYmluZGluZycsICctaW1hZScsICc8aW5maWxlLm1hZT4nLCAnLW9tYWUnLCAnPG91dGZpbGUubWFlPic=

> <r_lp_tautomer_probability>
1

> <r_epik_Ionization_Penalty>
6.54503

> <r_epik_Ionization_Penalty_Charging>
6.5449

> <r_epik_Ionization_Penalty_Neutral>
0.000132868

> <r_epik_State_Penalty>
6.54489

> <r_epik_Charging_Adjusted_Penalty>
13.0898

> <i_epik_Tot_Q>
-1

> <i_epik_Tot_abs_Q>
1

> <r_epik_Metal_State_Penalty>
2.47073

> <b_epik_Metal_Only>
1

> <s_lp_Force_Field>
OPLS_2005

> <r_lp_Energy>
23.2172

> <b_lp_Chiralities_Consistent>
1

> <s_lp_Variant>
AV-unprocessed.smi:310-2

> <Gold.Version>
5.8.1

> <Gold.Id.Protein>
6NUR|6NUR_protein|mol2

> <Gold.PLP.Fitness>
38.7489

> <Gold.PLP.PLP>
-33.9287

> <Gold.PLP.part.hbond>
-3.0000

> <Gold.PLP.part.metal>
0.0000

> <Gold.PLP.part.buried>
-6.0160

> <Gold.PLP.part.nonpolar>
-24.9268

> <Gold.PLP.part.repulsive>
0.4242

> <Gold.PLP.ligand.clash>
0.0000

> <Gold.PLP.ligand.torsion>
0.8183

> <Gold.PLP.Chemscore.Hbond>
2.1092

> <Gold.PLP.Chemscore.CHOScore>
0.0000

> <Gold.PLP.Chemscore.Metal>
0.0000

> <Gold.Chemscore.Hbonds>
donor molecule, donor type, donor heavy atom, donor atom, acceptor molecule, acceptor atom, score
      P1  H  6933  6945       L1    14  0.11
      P1  H  7989  7998       L1     7  1.00
      P1  H 10752 10764       L1    21  1.00

> <Gold.PLP.Chemscore.Internal.Correction>
0.1293

> <Gold.Rescore>
     Score         DG    S(hbond)    S(metal)    S(lipo)     H(rot)  DE(clash)    DE(int)     intcor
     16.18     -18.46       2.17        0.00      76.24       1.25       0.16       2.13       ----

> <Gold.Chemscore.Fitness>
16.1754

> <Gold.Chemscore.DG>
-18.4599

> <Gold.Chemscore.ZeroCoef>
-5.4800

> <Gold.Chemscore.Hbond>
2.1729

> <Gold.Chemscore.Metal>
0.0000

> <Gold.Chemscore.Lipo>
76.2434

> <Gold.Chemscore.Internal_Hbond>
0.0000

> <Gold.Chemscore.DEClash>
0.1552

> <Gold.Chemscore.DEInternal>
2.1293

> <Gold.Chemscore.Rot>
1.2493

> <Gold.Chemscore.Internal.Correction>
   9.000000E+99

> <Gold.Chemscore.Hbonds>
donor molecule, donor type, donor heavy atom, donor atom, acceptor molecule, acceptor atom, score
      P1  H  6933  6945       L1    14  0.11
      P1  H  7989  7998       L1     7  0.98
      P1  H 10752 10764       L1    21  0.64

> <Gold.Chemscore.Hbond.Weighted>
-7.2576

> <Gold.Chemscore.Metal.Weighted>
-0.0000

> <Gold.Chemscore.Lipo.Weighted>
-8.9205

> <Gold.Chemscore.Internal_Hbond.Weighted>
0.0000

> <Gold.Chemscore.DEClash.Weighted>
0.1552

> <Gold.Chemscore.DEInternal.Weighted>
2.1293

> <Gold.Chemscore.Rot.Weighted>
3.1981

> <Gold.Chemscore.Internal.Correction.Weighted>
   9.000000E+99

> <Gold.Protein.RotatedTorsions>
[ 6907 6896 6895 6894 ] final   90.57 input  -60.11 | X-H torsion
[ 7974 7965 7964 7962 ] final  164.92 input  175.53 | X-H torsion
[ 8008 7997 7996 7995 ] final -150.83 input   59.86 | X-H torsion
[ 10167 10162 10161 10158 ] final   38.49 input  -65.29 | X-H torsion
[ 10718 10713 10712 10709 ] final -166.06 input   66.30 | X-H torsion
[ 10763 10752 10751 10750 ] final  -23.56 input  -60.55 | X-H torsion
[ 11005 11000 10999 10996 ] final  -41.54 input  -57.11 | X-H torsion

> <Gold.Protein.ActiveResidues>
 VAL166  LYS551  ARG553  GLY616  TRP617  ASP618  TYR619  PRO620  LYS621  CYS622 
 ASP623  PHE694  ASN695  SER759  ASP760  ASP761  ALA762  ILE779  LEU786  VAL792 
 PHE793  MET794  SER795  GLU796  ALA797  LYS798  CYS799  TRP800  GLU811  SER814 

> <Gold.Protein.RotatedAtoms>
  152.5445  134.1790  159.8627 H   0  0  0  0  0  0  0  0  0  0  0  0  # atno 6907 bound_to 6896
  151.1794  133.4727  159.2601 H   0  0  0  0  0  0  0  0  0  0  0  0  # atno 6908 bound_to 6896
  151.1193  135.0082  159.8586 H   0  0  0  0  0  0  0  0  0  0  0  0  # atno 6909 bound_to 6896
  144.7524  139.8396  143.6361 H   0  0  0  0  0  0  0  0  0  0  0  0  # atno 7974 bound_to 7965
  155.6298  140.0690  157.2652 H   0  0  0  0  0  0  0  0  0  0  0  0  # atno 8008 bound_to 7997
  154.4208  140.1769  156.1509 H   0  0  0  0  0  0  0  0  0  0  0  0  # atno 8009 bound_to 7997
  155.9942  140.3342  155.6785 H   0  0  0  0  0  0  0  0  0  0  0  0  # atno 8010 bound_to 7997
  140.3931  144.1825  150.6131 H   0  0  0  0  0  0  0  0  0  0  0  0  # atno 10167 bound_to 10162
  156.6624  130.9051  151.3031 H   0  0  0  0  0  0  0  0  0  0  0  0  # atno 10718 bound_to 10713
  153.6698  135.6972  153.5151 H   0  0  0  0  0  0  0  0  0  0  0  0  # atno 10763 bound_to 10752
  153.2566  135.4258  155.0851 H   0  0  0  0  0  0  0  0  0  0  0  0  # atno 10764 bound_to 10752
  154.8429  135.3544  154.6242 H   0  0  0  0  0  0  0  0  0  0  0  0  # atno 10765 bound_to 10752
  141.0253  133.6844  156.2472 H   0  0  0  0  0  0  0  0  0  0  0  0  # atno 11005 bound_to 11000
  146.1492  139.4570  143.0059 LP  0  0  0  0  0  0  0  0  0  0  0  0  # atno 17320 bound_to 7965
  145.6896  141.0168  143.1562 LP  0  0  0  0  0  0  0  0  0  0  0  0  # atno 17321 bound_to 7965
  140.4819  143.2376  151.8943 LP  0  0  0  0  0  0  0  0  0  0  0  0  # atno 17342 bound_to 10162
  139.4788  144.5260  151.8734 LP  0  0  0  0  0  0  0  0  0  0  0  0  # atno 17343 bound_to 10162
  157.7105  130.9435  150.1073 LP  0  0  0  0  0  0  0  0  0  0  0  0  # atno 17370 bound_to 10713
  156.2000  130.3659  149.8800 LP  0  0  0  0  0  0  0  0  0  0  0  0  # atno 17371 bound_to 10713
  140.6502  134.5075  157.5577 LP  0  0  0  0  0  0  0  0  0  0  0  0  # atno 17394 bound_to 11000
  139.9172  134.8222  156.1328 LP  0  0  0  0  0  0  0  0  0  0  0  0  # atno 17395 bound_to 11000

$$$$
