AV-unprocessed.smi:2675|AV-procd|sdf|10362|dock10
  -GOLD-   2272014393D 1   1.00000     0.00000
 Structure written by MMmdl.
 36 37  0  0  0  0  0  0  0  0  1 V2000
  152.4137  143.8122  162.0762 C   0  0  0  0  0  0  0  0  0  0  0  0
  151.9438  144.0743  160.6790 C   0  0  0  0  0  0  0  0  0  0  0  0
  150.9808  145.0438  160.4093 N   0  0  0  0  0  0  0  0  0  0  0  0
  150.8276  144.9799  159.0943 C   0  0  0  0  0  0  0  0  0  0  0  0
  151.5917  144.0605  158.4880 N   0  0  0  0  0  0  0  0  0  0  0  0
  151.6135  143.7541  157.0659 C   0  0  0  0  0  0  0  0  0  0  0  0
  151.0284  142.3675  156.7942 C   0  0  0  0  0  0  0  0  0  0  0  0
  151.6029  141.3682  157.2232 O   0  0  0  0  0  0  0  0  0  0  0  0
  149.8740  142.3364  156.1050 N   0  0  0  0  0  0  0  0  0  0  0  0
  149.0200  141.1836  155.7957 C   0  0  1  0  0  0  0  0  0  0  0  0
  149.8241  140.3100  154.8186 C   0  0  0  0  0  0  0  0  0  0  0  0
  148.7330  140.3708  156.9942 C   0  0  0  0  0  0  0  0  0  0  0  0
  148.5094  139.7306  157.9324 N   0  0  0  0  0  0  0  0  0  0  0  0
  147.6816  141.5369  155.1421 C   0  0  0  0  0  0  0  0  0  0  0  0
  147.0524  140.6726  154.0705 C   0  0  0  0  0  0  0  0  0  0  0  0
  147.5407  142.0631  153.7302 C   0  0  0  0  0  0  0  0  0  0  0  0
  152.3315  143.4613  159.5064 C   0  0  0  0  0  0  0  0  0  0  0  0
  153.3237  142.3677  159.2719 C   0  0  0  0  0  0  0  0  0  0  0  0
  153.5019  143.8322  162.1355 H   0  0  0  0  0  0  0  0  0  0  0  0
  152.0806  142.8341  162.4235 H   0  0  0  0  0  0  0  0  0  0  0  0
  152.0335  144.5581  162.7748 H   0  0  0  0  0  0  0  0  0  0  0  0
  150.1332  145.6113  158.5594 H   0  0  0  0  0  0  0  0  0  0  0  0
  151.0398  144.5081  156.5255 H   0  0  0  0  0  0  0  0  0  0  0  0
  152.6408  143.8117  156.7041 H   0  0  0  0  0  0  0  0  0  0  0  0
  149.5121  143.2292  155.8032 H   0  0  0  0  0  0  0  0  0  0  0  0
  149.2757  139.4057  154.5520 H   0  0  0  0  0  0  0  0  0  0  0  0
  150.7738  139.9973  155.2546 H   0  0  0  0  0  0  0  0  0  0  0  0
  150.0442  140.8455  153.8940 H   0  0  0  0  0  0  0  0  0  0  0  0
  146.9813  141.9770  155.8502 H   0  0  0  0  0  0  0  0  0  0  0  0
  147.6234  139.8344  153.6761 H   0  0  0  0  0  0  0  0  0  0  0  0
  145.9769  140.5163  154.1213 H   0  0  0  0  0  0  0  0  0  0  0  0
  146.7871  142.8282  153.5561 H   0  0  0  0  0  0  0  0  0  0  0  0
  148.4233  142.1388  153.1017 H   0  0  0  0  0  0  0  0  0  0  0  0
  153.8087  142.0700  160.2016 H   0  0  0  0  0  0  0  0  0  0  0  0
  154.1009  142.6901  158.5788 H   0  0  0  0  0  0  0  0  0  0  0  0
  152.8397  141.4859  158.8523 H   0  0  0  0  0  0  0  0  0  0  0  0
  1  2  1  0  0  0  0
  1 19  1  0  0  0  0
  1 20  1  0  0  0  0
  1 21  1  0  0  0  0
  2 17  2  0  0  0  0
  2  3  1  0  0  0  0
  3  4  2  0  0  0  0
  4  5  1  0  0  0  0
  4 22  1  0  0  0  0
  5  6  1  0  0  0  0
  5 17  1  0  0  0  0
  6  7  1  0  0  0  0
  6 23  1  0  0  0  0
  6 24  1  0  0  0  0
  7  8  2  0  0  0  0
  7  9  1  0  0  0  0
  9 10  1  0  0  0  0
  9 25  1  0  0  0  0
 10 11  1  0  0  0  0
 10 12  1  0  0  0  0
 10 14  1  0  0  0  0
 11 26  1  0  0  0  0
 11 27  1  0  0  0  0
 11 28  1  0  0  0  0
 12 13  3  0  0  0  0
 14 16  1  0  0  0  0
 14 15  1  0  0  0  0
 14 29  1  0  0  0  0
 15 16  1  0  0  0  0
 15 30  1  0  0  0  0
 15 31  1  0  0  0  0
 16 32  1  0  0  0  0
 16 33  1  0  0  0  0
 17 18  1  0  0  0  0
 18 34  1  0  0  0  0
 18 35  1  0  0  0  0
 18 36  1  0  0  0  0
M  END
> <s_m_source_file>
AV-unprocessed.smi

> <i_m_source_file_index>
2675

> <i_lp_mmshare_version>
43012

> <i_f3d_flags>
0

> <s_epik_input>
W0NIM11jMW5bY0hdbihjMVtDSDNdKVtDSDJdQyg9TylbTkhdW0NAQF0oW0NIM10pKEMjTilbQ0hdMltDSDJdW0NIMl0y

> <s_epik_cmdline>
J2VwaWtfcHl0aG9uJywgJy1waCcsICc3LjAnLCAnLXRuJywgJzgnLCAnLW1hJywgJzIwMCcsICctbWV0YWxfYmluZGluZycsICctaW1hZScsICc8aW5maWxlLm1hZT4nLCAnLW9tYWUnLCAnPG91dGZpbGUubWFlPic=

> <r_lp_tautomer_probability>
1

> <r_epik_Ionization_Penalty>
0.876174

> <r_epik_Ionization_Penalty_Charging>
0.876172

> <r_epik_Ionization_Penalty_Neutral>
2.64295e-06

> <r_epik_State_Penalty>
0.913958

> <r_epik_Charging_Adjusted_Penalty>
1.79013

> <i_epik_Tot_Q>
0

> <i_epik_Tot_abs_Q>
0

> <r_epik_Metal_State_Penalty>
0.359336

> <b_epik_Metal_Only>
0

> <s_lp_Force_Field>
OPLS_2005

> <r_lp_Energy>
14.5701

> <b_lp_Chiralities_Consistent>
1

> <s_lp_Variant>
AV-unprocessed.smi:2675-3

> <Gold.Version>
5.8.1

> <Gold.Id.Protein>
6NUR|6NUR_protein|mol2

> <Gold.PLP.Fitness>
44.4070

> <Gold.PLP.PLP>
-39.2858

> <Gold.PLP.part.hbond>
-1.6505

> <Gold.PLP.part.metal>
0.0000

> <Gold.PLP.part.buried>
-5.8258

> <Gold.PLP.part.nonpolar>
-32.3174

> <Gold.PLP.part.repulsive>
0.3209

> <Gold.PLP.ligand.clash>
0.0000

> <Gold.PLP.ligand.torsion>
1.0162

> <Gold.PLP.Chemscore.Hbond>
1.0000

> <Gold.PLP.Chemscore.CHOScore>
0.8800

> <Gold.PLP.Chemscore.Metal>
0.0000

> <Gold.Chemscore.Hbonds>
donor molecule, donor type, donor heavy atom, donor atom, acceptor molecule, acceptor atom, score
      L1  H     9    25       P1  8028  1.00
      L1  C     4    22       P1  8029  0.87

> <Gold.PLP.Chemscore.Internal.Correction>
1.5135

> <Gold.Rescore>
     Score         DG    S(hbond)    S(metal)    S(lipo)     H(rot)  DE(clash)    DE(int)     intcor
     13.80     -15.15       1.00        0.00      92.22       1.74       0.20       1.15       ----

> <Gold.Chemscore.Fitness>
13.7952

> <Gold.Chemscore.DG>
-15.1473

> <Gold.Chemscore.ZeroCoef>
-5.4800

> <Gold.Chemscore.Hbond>
0.9999

> <Gold.Chemscore.Metal>
0.0000

> <Gold.Chemscore.Lipo>
92.2159

> <Gold.Chemscore.Internal_Hbond>
0.0000

> <Gold.Chemscore.DEClash>
0.1978

> <Gold.Chemscore.DEInternal>
1.1544

> <Gold.Chemscore.Rot>
1.7429

> <Gold.Chemscore.Internal.Correction>
   9.000000E+99

> <Gold.Chemscore.Hbonds>
donor molecule, donor type, donor heavy atom, donor atom, acceptor molecule, acceptor atom, score
      L1  H     9    25       P1  8028  0.99

> <Gold.Chemscore.Hbond.Weighted>
-3.3398

> <Gold.Chemscore.Metal.Weighted>
-0.0000

> <Gold.Chemscore.Lipo.Weighted>
-10.7893

> <Gold.Chemscore.Internal_Hbond.Weighted>
0.0000

> <Gold.Chemscore.DEClash.Weighted>
0.1978

> <Gold.Chemscore.DEInternal.Weighted>
1.1544

> <Gold.Chemscore.Rot.Weighted>
4.4617

> <Gold.Chemscore.Internal.Correction.Weighted>
   9.000000E+99

> <Gold.Protein.RotatedTorsions>
[ 6907 6896 6895 6894 ] final    6.73 input  -60.11 | X-H torsion
[ 7974 7965 7964 7962 ] final   74.88 input  175.53 | X-H torsion
[ 8008 7997 7996 7995 ] final  -34.57 input   59.86 | X-H torsion
[ 10167 10162 10161 10158 ] final   93.24 input  -65.29 | X-H torsion
[ 10718 10713 10712 10709 ] final  139.61 input   66.30 | X-H torsion
[ 10763 10752 10751 10750 ] final  -68.55 input  -60.55 | X-H torsion
[ 11005 11000 10999 10996 ] final  -64.03 input  -57.11 | X-H torsion

> <Gold.Protein.ActiveResidues>
 VAL166  LYS551  ARG553  GLY616  TRP617  ASP618  TYR619  PRO620  LYS621  CYS622 
 ASP623  PHE694  ASN695  SER759  ASP760  ASP761  ALA762  ILE779  LEU786  VAL792 
 PHE793  MET794  SER795  GLU796  ALA797  LYS798  CYS799  TRP800  GLU811  SER814 

> <Gold.Protein.RotatedAtoms>
  151.6785  135.0965  160.0211 H   0  0  0  0  0  0  0  0  0  0  0  0  # atno 6907 bound_to 6896
  152.3850  133.6594  159.6199 H   0  0  0  0  0  0  0  0  0  0  0  0  # atno 6908 bound_to 6896
  150.7777  133.8968  159.3370 H   0  0  0  0  0  0  0  0  0  0  0  0  # atno 6909 bound_to 6896
  145.7227  139.2654  143.1587 H   0  0  0  0  0  0  0  0  0  0  0  0  # atno 7974 bound_to 7965
  154.4117  140.1680  156.2071 H   0  0  0  0  0  0  0  0  0  0  0  0  # atno 8008 bound_to 7997
  155.9475  140.3403  155.6356 H   0  0  0  0  0  0  0  0  0  0  0  0  # atno 8009 bound_to 7997
  155.6912  140.0734  157.2438 H   0  0  0  0  0  0  0  0  0  0  0  0  # atno 8010 bound_to 7997
  139.8199  144.6736  150.9532 H   0  0  0  0  0  0  0  0  0  0  0  0  # atno 10167 bound_to 10162
  157.4124  131.1029  151.0440 H   0  0  0  0  0  0  0  0  0  0  0  0  # atno 10718 bound_to 10713
  154.3907  135.6053  153.5841 H   0  0  0  0  0  0  0  0  0  0  0  0  # atno 10763 bound_to 10752
  152.9787  135.5883  154.4301 H   0  0  0  0  0  0  0  0  0  0  0  0  # atno 10764 bound_to 10752
  154.4085  135.2844  155.2030 H   0  0  0  0  0  0  0  0  0  0  0  0  # atno 10765 bound_to 10752
  141.1412  133.6660  156.5771 H   0  0  0  0  0  0  0  0  0  0  0  0  # atno 11005 bound_to 11000
  146.0611  140.7969  142.9734 LP  0  0  0  0  0  0  0  0  0  0  0  0  # atno 17320 bound_to 7965
  144.6913  140.3198  143.7234 LP  0  0  0  0  0  0  0  0  0  0  0  0  # atno 17321 bound_to 7965
  140.7814  143.4102  151.1006 LP  0  0  0  0  0  0  0  0  0  0  0  0  # atno 17342 bound_to 10162
  139.7763  143.8421  152.3130 LP  0  0  0  0  0  0  0  0  0  0  0  0  # atno 17343 bound_to 10162
  157.1399  130.6138  149.5552 LP  0  0  0  0  0  0  0  0  0  0  0  0  # atno 17370 bound_to 10713
  155.9855  130.4885  150.7033 LP  0  0  0  0  0  0  0  0  0  0  0  0  # atno 17371 bound_to 10713
  140.3867  134.7476  157.4695 LP  0  0  0  0  0  0  0  0  0  0  0  0  # atno 17394 bound_to 11000
  140.0597  134.6013  155.8763 LP  0  0  0  0  0  0  0  0  0  0  0  0  # atno 17395 bound_to 11000

$$$$
