AV-unprocessed.smi:2902|AV-procd|sdf|11156|dock1
  -GOLD-   2272016 43D 1   1.00000     0.00000
 Structure written by MMmdl.
 47 48  0  0  0  0  0  0  0  0  1 V2000
  149.0769  134.0908  155.0572 C   0  0  0  0  0  0  0  0  0  0  0  0
  147.5695  134.0777  154.7758 C   0  0  0  0  0  0  0  0  0  0  0  0
  147.1513  135.1164  153.7183 C   0  0  1  0  0  0  0  0  0  0  0  0
  145.9119  134.6940  153.1514 O   0  0  0  0  0  0  0  0  0  0  0  0
  145.9929  133.8361  152.0164 C   0  0  0  0  0  0  0  0  0  0  0  0
  145.4790  134.4935  150.7318 C   0  0  0  0  0  0  0  0  0  0  0  0
  145.0231  133.3312  149.8414 C   0  0  0  0  0  0  0  0  0  0  0  0
  144.7990  132.1321  150.7761 C   0  0  0  0  0  0  0  0  0  0  0  0
  145.0486  132.6489  152.1960 C   0  0  0  0  0  0  0  0  0  0  0  0
  147.0119  136.5140  154.3402 C   0  0  0  0  0  0  0  0  0  0  0  0
  146.2112  136.7086  155.2549 O   0  0  0  0  0  0  0  0  0  0  0  0
  147.8043  137.4715  153.8315 N   0  0  0  0  0  0  0  0  0  0  0  0
  147.8861  138.8569  154.2967 C   0  0  2  0  0  0  0  0  0  0  0  0
  146.5423  139.5381  153.9884 C   0  0  0  0  0  0  0  0  0  0  0  0
  149.0998  139.5738  153.6428 C   0  0  1  0  0  0  0  0  0  0  0  0
  149.0111  141.1104  153.7221 C   0  0  0  0  0  0  0  0  0  0  0  0
  150.3607  139.1140  154.2149 N   0  0  0  0  0  0  0  0  0  0  0  0
  150.8293  137.8752  154.3806 C   0  0  0  0  0  0  0  0  0  0  0  0
  152.0035  137.8214  154.9931 N   0  0  0  0  0  0  0  0  0  0  0  0
  152.2163  139.1557  155.1944 C   0  0  0  0  0  0  0  0  0  0  0  0
  151.2622  139.9734  154.7500 N   0  0  0  0  0  0  0  0  0  0  0  0
  149.3363  133.3504  155.8141 H   0  0  0  0  0  0  0  0  0  0  0  0
  149.4014  135.0660  155.4209 H   0  0  0  0  0  0  0  0  0  0  0  0
  149.6487  133.8603  154.1581 H   0  0  0  0  0  0  0  0  0  0  0  0
  147.2727  133.0778  154.4554 H   0  0  0  0  0  0  0  0  0  0  0  0
  147.0396  134.2693  155.7106 H   0  0  0  0  0  0  0  0  0  0  0  0
  147.9177  135.1410  152.9409 H   0  0  0  0  0  0  0  0  0  0  0  0
  147.0047  133.4541  151.8656 H   0  0  0  0  0  0  0  0  0  0  0  0
  144.6228  135.1283  150.9644 H   0  0  0  0  0  0  0  0  0  0  0  0
  146.2271  135.1181  150.2439 H   0  0  0  0  0  0  0  0  0  0  0  0
  144.1177  133.5908  149.2915 H   0  0  0  0  0  0  0  0  0  0  0  0
  145.7929  133.0903  149.1072 H   0  0  0  0  0  0  0  0  0  0  0  0
  143.7985  131.7110  150.6723 H   0  0  0  0  0  0  0  0  0  0  0  0
  145.5126  131.3423  150.5377 H   0  0  0  0  0  0  0  0  0  0  0  0
  145.4569  131.8844  152.8577 H   0  0  0  0  0  0  0  0  0  0  0  0
  144.1064  132.9903  152.6274 H   0  0  0  0  0  0  0  0  0  0  0  0
  148.4198  137.2135  153.0740 H   0  0  0  0  0  0  0  0  0  0  0  0
  148.0149  138.8761  155.3805 H   0  0  0  0  0  0  0  0  0  0  0  0
  146.4920  140.5406  154.4124 H   0  0  0  0  0  0  0  0  0  0  0  0
  145.7117  138.9730  154.4128 H   0  0  0  0  0  0  0  0  0  0  0  0
  146.3739  139.6183  152.9141 H   0  0  0  0  0  0  0  0  0  0  0  0
  149.1210  139.3062  152.5852 H   0  0  0  0  0  0  0  0  0  0  0  0
  148.1728  141.4947  153.1417 H   0  0  0  0  0  0  0  0  0  0  0  0
  149.9132  141.5744  153.3220 H   0  0  0  0  0  0  0  0  0  0  0  0
  148.8896  141.4526  154.7503 H   0  0  0  0  0  0  0  0  0  0  0  0
  150.2942  136.9940  154.0585 H   0  0  0  0  0  0  0  0  0  0  0  0
  153.1002  139.5357  155.6853 H   0  0  0  0  0  0  0  0  0  0  0  0
  1  2  1  0  0  0  0
  1 22  1  0  0  0  0
  1 23  1  0  0  0  0
  1 24  1  0  0  0  0
  2  3  1  0  0  0  0
  2 25  1  0  0  0  0
  2 26  1  0  0  0  0
  3  4  1  0  0  0  0
  3 10  1  0  0  0  0
  3 27  1  0  0  0  0
  4  5  1  0  0  0  0
  5  9  1  0  0  0  0
  5  6  1  0  0  0  0
  5 28  1  0  0  0  0
  6  7  1  0  0  0  0
  6 29  1  0  0  0  0
  6 30  1  0  0  0  0
  7  8  1  0  0  0  0
  7 31  1  0  0  0  0
  7 32  1  0  0  0  0
  8  9  1  0  0  0  0
  8 33  1  0  0  0  0
  8 34  1  0  0  0  0
  9 35  1  0  0  0  0
  9 36  1  0  0  0  0
 10 11  2  0  0  0  0
 10 12  1  0  0  0  0
 12 13  1  0  0  0  0
 12 37  1  0  0  0  0
 13 14  1  0  0  0  0
 13 15  1  0  0  0  0
 13 38  1  0  0  0  0
 14 39  1  0  0  0  0
 14 40  1  0  0  0  0
 14 41  1  0  0  0  0
 15 16  1  0  0  0  0
 15 17  1  0  0  0  0
 15 42  1  0  0  0  0
 16 43  1  0  0  0  0
 16 44  1  0  0  0  0
 16 45  1  0  0  0  0
 17 21  1  0  0  0  0
 17 18  1  0  0  0  0
 18 19  2  0  0  0  0
 18 46  1  0  0  0  0
 19 20  1  0  0  0  0
 20 21  2  0  0  0  0
 20 47  1  0  0  0  0
M  END
> <s_m_source_file>
AV-unprocessed.smi

> <i_m_source_file_index>
2902

> <i_lp_mmshare_version>
43012

> <i_f3d_flags>
0

> <s_epik_input>
W0NIMl0xW0NIMl1bQ0gyXVtDSDJdW0NIXTFPW0NAQEhdKFtDSDJdW0NIM10pQyg9TylbTkhdW0NASF0oW0NIM10pW0NASF0oW0NIM10pbjJbY0hdbltjSF1uMg==

> <s_epik_cmdline>
J2VwaWtfcHl0aG9uJywgJy1waCcsICc3LjAnLCAnLXRuJywgJzgnLCAnLW1hJywgJzIwMCcsICctbWV0YWxfYmluZGluZycsICctaW1hZScsICc8aW5maWxlLm1hZT4nLCAnLW9tYWUnLCAnPG91dGZpbGUubWFlPic=

> <r_lp_tautomer_probability>
1

> <r_epik_Ionization_Penalty>
6.95617e-05

> <r_epik_Ionization_Penalty_Charging>
0

> <r_epik_Ionization_Penalty_Neutral>
6.95617e-05

> <r_epik_State_Penalty>
-0

> <r_epik_Charging_Adjusted_Penalty>
0

> <i_epik_Tot_Q>
0

> <i_epik_Tot_abs_Q>
0

> <r_epik_Metal_State_Penalty>
-0

> <b_epik_Metal_Only>
0

> <s_lp_Force_Field>
OPLS_2005

> <r_lp_Energy>
29.6491

> <b_lp_Chiralities_Consistent>
1

> <s_lp_Variant>
AV-unprocessed.smi:2902-6

> <Gold.Version>
5.8.1

> <Gold.Id.Protein>
6NUR|6NUR_protein|mol2

> <Gold.PLP.Fitness>
41.1849

> <Gold.PLP.PLP>
-33.5149

> <Gold.PLP.part.hbond>
-3.0000

> <Gold.PLP.part.metal>
0.0000

> <Gold.PLP.part.buried>
-2.8755

> <Gold.PLP.part.nonpolar>
-28.1941

> <Gold.PLP.part.repulsive>
0.2629

> <Gold.PLP.ligand.clash>
0.0000

> <Gold.PLP.ligand.torsion>
1.6803

> <Gold.PLP.Chemscore.Hbond>
2.7200

> <Gold.PLP.Chemscore.CHOScore>
0.8774

> <Gold.PLP.Chemscore.Metal>
0.0000

> <Gold.Chemscore.Hbonds>
donor molecule, donor type, donor heavy atom, donor atom, acceptor molecule, acceptor atom, score
      L1  H    12    37       P1  7948  1.00
      P1  H  7989  7998       L1    21  1.00
      L1  C    18    46       P1  7948  0.70
      L1  C    18    46       P1  7949  0.03

> <Gold.PLP.Chemscore.Internal.Correction>
0.2383

> <Gold.Rescore>
     Score         DG    S(hbond)    S(metal)    S(lipo)     H(rot)  DE(clash)    DE(int)     intcor
     11.65     -14.72       2.67        0.00      61.68       2.69       1.02       2.05       ----

> <Gold.Chemscore.Fitness>
11.6476

> <Gold.Chemscore.DG>
-14.7238

> <Gold.Chemscore.ZeroCoef>
-5.4800

> <Gold.Chemscore.Hbond>
2.6714

> <Gold.Chemscore.Metal>
0.0000

> <Gold.Chemscore.Lipo>
61.6801

> <Gold.Chemscore.Internal_Hbond>
0.0000

> <Gold.Chemscore.DEClash>
1.0240

> <Gold.Chemscore.DEInternal>
2.0521

> <Gold.Chemscore.Rot>
2.6935

> <Gold.Chemscore.Internal.Correction>
   9.000000E+99

> <Gold.Chemscore.Hbonds>
donor molecule, donor type, donor heavy atom, donor atom, acceptor molecule, acceptor atom, score
      L1  H    12    37       P1  7948  0.98
      P1  H  7989  7998       L1    21  0.31
      P1  H 10752 10765       L1    19  0.02

> <Gold.Chemscore.Hbond.Weighted>
-8.9226

> <Gold.Chemscore.Metal.Weighted>
-0.0000

> <Gold.Chemscore.Lipo.Weighted>
-7.2166

> <Gold.Chemscore.Internal_Hbond.Weighted>
0.0000

> <Gold.Chemscore.DEClash.Weighted>
1.0240

> <Gold.Chemscore.DEInternal.Weighted>
2.0521

> <Gold.Chemscore.Rot.Weighted>
6.8954

> <Gold.Chemscore.Internal.Correction.Weighted>
   9.000000E+99

> <Gold.Protein.RotatedTorsions>
[ 6907 6896 6895 6894 ] final  -57.23 input  -60.11 | X-H torsion
[ 7974 7965 7964 7962 ] final   10.95 input  175.53 | X-H torsion
[ 8008 7997 7996 7995 ] final -121.87 input   59.86 | X-H torsion
[ 10167 10162 10161 10158 ] final   92.67 input  -65.29 | X-H torsion
[ 10718 10713 10712 10709 ] final -166.03 input   66.30 | X-H torsion
[ 10763 10752 10751 10750 ] final  162.03 input  -60.55 | X-H torsion
[ 11005 11000 10999 10996 ] final  -92.03 input  -57.11 | X-H torsion

> <Gold.Protein.ActiveResidues>
 VAL166  LYS551  ARG553  GLY616  TRP617  ASP618  TYR619  PRO620  LYS621  CYS622 
 ASP623  PHE694  ASN695  SER759  ASP760  ASP761  ALA762  ILE779  LEU786  VAL792 
 PHE793  MET794  SER795  GLU796  ALA797  LYS798  CYS799  TRP800  GLU811  SER814 

> <Gold.Protein.RotatedAtoms>
  150.8102  134.7253  159.6680 H   0  0  0  0  0  0  0  0  0  0  0  0  # atno 6907 bound_to 6896
  152.4222  134.5930  159.9989 H   0  0  0  0  0  0  0  0  0  0  0  0  # atno 6908 bound_to 6896
  151.6142  133.3307  159.3110 H   0  0  0  0  0  0  0  0  0  0  0  0  # atno 6909 bound_to 6896
  146.2379  139.9557  142.8465 H   0  0  0  0  0  0  0  0  0  0  0  0  # atno 7974 bound_to 7965
  155.1551  140.0404  157.2830 H   0  0  0  0  0  0  0  0  0  0  0  0  # atno 8008 bound_to 7997
  154.6376  140.2539  155.7333 H   0  0  0  0  0  0  0  0  0  0  0  0  # atno 8009 bound_to 7997
  156.2516  140.2862  156.0756 H   0  0  0  0  0  0  0  0  0  0  0  0  # atno 8010 bound_to 7997
  139.8254  144.6712  150.9466 H   0  0  0  0  0  0  0  0  0  0  0  0  # atno 10167 bound_to 10162
  156.6620  130.9050  151.3030 H   0  0  0  0  0  0  0  0  0  0  0  0  # atno 10718 bound_to 10713
  154.2720  135.2765  155.2734 H   0  0  0  0  0  0  0  0  0  0  0  0  # atno 10763 bound_to 10752
  154.5293  135.5734  153.6749 H   0  0  0  0  0  0  0  0  0  0  0  0  # atno 10764 bound_to 10752
  152.9943  135.6224  154.2875 H   0  0  0  0  0  0  0  0  0  0  0  0  # atno 10765 bound_to 10752
  141.1531  133.7794  156.9963 H   0  0  0  0  0  0  0  0  0  0  0  0  # atno 11005 bound_to 11000
  145.1819  140.9771  143.4261 LP  0  0  0  0  0  0  0  0  0  0  0  0  # atno 17320 bound_to 7965
  144.9935  139.3667  143.6203 LP  0  0  0  0  0  0  0  0  0  0  0  0  # atno 17321 bound_to 7965
  140.7810  143.4051  151.1084 LP  0  0  0  0  0  0  0  0  0  0  0  0  # atno 17342 bound_to 10162
  139.7709  143.8496  152.3120 LP  0  0  0  0  0  0  0  0  0  0  0  0  # atno 17343 bound_to 10162
  157.7106  130.9436  150.1077 LP  0  0  0  0  0  0  0  0  0  0  0  0  # atno 17370 bound_to 10713
  156.2003  130.3660  149.8796 LP  0  0  0  0  0  0  0  0  0  0  0  0  # atno 17371 bound_to 10713
  140.0970  134.9558  157.1864 LP  0  0  0  0  0  0  0  0  0  0  0  0  # atno 17394 bound_to 11000
  140.3370  134.2747  155.7218 LP  0  0  0  0  0  0  0  0  0  0  0  0  # atno 17395 bound_to 11000

$$$$
