AV-unprocessed.smi:535|AV-procd|sdf|2860|dock2
  -GOLD-   2262023353D 1   1.00000     0.00000
 Structure written by MMmdl.
 45 47  0  0  0  0  0  0  0  0  2 V2000
  156.3963  140.4268  159.4626 C   0  0  0  0  0  0  0  0  0  0  0  0
  156.7181  140.4623  160.8416 O   0  0  0  0  0  0  0  0  0  0  0  0
  156.1611  139.3711  161.5540 C   0  0  0  0  0  0  0  0  0  0  0  0
  154.6502  139.5872  161.6942 C   0  0  0  0  0  0  0  0  0  0  0  0
  153.9725  139.4597  160.4058 N   0  0  0  0  0  0  0  0  0  0  0  0
  153.3398  140.4277  159.6862 C   0  0  0  0  0  0  0  0  0  0  0  0
  153.2711  141.7572  160.1101 N   0  0  0  0  0  0  0  0  0  0  0  0
  153.5434  142.2559  161.4579 C   0  0  0  0  0  0  0  0  0  0  0  0
  152.4039  143.1560  161.9664 C   0  0  0  0  0  0  0  0  0  0  0  0
  152.1903  144.3380  161.0114 C   0  0  0  0  0  0  0  0  0  0  0  0
  152.0138  143.8337  159.5683 C   0  0  1  0  0  0  0  0  0  0  0  0
  151.8911  144.9979  158.5762 C   0  0  0  0  0  0  0  0  0  0  0  0
  153.1749  142.8904  159.1909 C   0  0  0  0  0  0  0  0  0  0  0  0
  152.7448  139.9925  158.5740 N   0  0  0  0  0  0  0  0  0  0  0  0
  153.0347  138.6375  158.5727 C   0  0  0  0  0  0  0  0  0  0  0  0
  153.7576  138.2879  159.6707 C   0  0  0  0  0  0  0  0  0  0  0  0
  154.1690  136.8975  159.9724 C   0  0  0  0  0  0  0  0  0  0  0  0
  154.7878  136.6242  160.9985 O   0  0  0  0  0  0  0  0  0  0  0  0
  153.7709  136.0172  159.0002 N   0  5  0  0  0  0  0  0  0  0  0  0
  153.0486  136.3307  157.8693 C   0  0  0  0  0  0  0  0  0  0  0  0
  152.7276  135.4740  157.0446 O   0  0  0  0  0  0  0  0  0  0  0  0
  152.6683  137.6270  157.6424 N   0  0  0  0  0  0  0  0  0  0  0  0
  151.8910  137.9885  156.4535 C   0  0  0  0  0  0  0  0  0  0  0  0
  156.8479  141.2812  158.9587 H   0  0  0  0  0  0  0  0  0  0  0  0
  155.3175  140.4758  159.3081 H   0  0  0  0  0  0  0  0  0  0  0  0
  156.7769  139.5192  158.9923 H   0  0  0  0  0  0  0  0  0  0  0  0
  156.3605  138.4355  161.0288 H   0  0  0  0  0  0  0  0  0  0  0  0
  156.6213  139.3010  162.5412 H   0  0  0  0  0  0  0  0  0  0  0  0
  154.2393  138.8783  162.4046 H   0  0  0  0  0  0  0  0  0  0  0  0
  154.4376  140.5603  162.1315 H   0  0  0  0  0  0  0  0  0  0  0  0
  153.7219  141.4278  162.1428 H   0  0  0  0  0  0  0  0  0  0  0  0
  154.4758  142.8218  161.4382 H   0  0  0  0  0  0  0  0  0  0  0  0
  151.4809  142.5814  162.0492 H   0  0  0  0  0  0  0  0  0  0  0  0
  152.6331  143.5217  162.9674 H   0  0  0  0  0  0  0  0  0  0  0  0
  151.3215  144.9189  161.3224 H   0  0  0  0  0  0  0  0  0  0  0  0
  153.0502  145.0069  161.0659 H   0  0  0  0  0  0  0  0  0  0  0  0
  151.0864  143.2605  159.5210 H   0  0  0  0  0  0  0  0  0  0  0  0
  152.7944  145.6088  158.5687 H   0  0  0  0  0  0  0  0  0  0  0  0
  151.0528  145.6461  158.8328 H   0  0  0  0  0  0  0  0  0  0  0  0
  151.7276  144.6331  157.5620 H   0  0  0  0  0  0  0  0  0  0  0  0
  154.1220  143.4320  159.1844 H   0  0  0  0  0  0  0  0  0  0  0  0
  153.0246  142.5183  158.1766 H   0  0  0  0  0  0  0  0  0  0  0  0
  152.4277  137.7100  155.5456 H   0  0  0  0  0  0  0  0  0  0  0  0
  151.6855  139.0569  156.3930 H   0  0  0  0  0  0  0  0  0  0  0  0
  150.9307  137.4707  156.4549 H   0  0  0  0  0  0  0  0  0  0  0  0
  1  2  1  0  0  0  0
  1 24  1  0  0  0  0
  1 25  1  0  0  0  0
  1 26  1  0  0  0  0
  2  3  1  0  0  0  0
  3  4  1  0  0  0  0
  3 27  1  0  0  0  0
  3 28  1  0  0  0  0
  4  5  1  0  0  0  0
  4 29  1  0  0  0  0
  4 30  1  0  0  0  0
  5 16  1  0  0  0  0
  5  6  1  0  0  0  0
  6  7  1  0  0  0  0
  6 14  2  0  0  0  0
  7 13  1  0  0  0  0
  7  8  1  0  0  0  0
  8  9  1  0  0  0  0
  8 31  1  0  0  0  0
  8 32  1  0  0  0  0
  9 10  1  0  0  0  0
  9 33  1  0  0  0  0
  9 34  1  0  0  0  0
 10 11  1  0  0  0  0
 10 35  1  0  0  0  0
 10 36  1  0  0  0  0
 11 12  1  0  0  0  0
 11 13  1  0  0  0  0
 11 37  1  0  0  0  0
 12 38  1  0  0  0  0
 12 39  1  0  0  0  0
 12 40  1  0  0  0  0
 13 41  1  0  0  0  0
 13 42  1  0  0  0  0
 14 15  1  0  0  0  0
 15 22  1  0  0  0  0
 15 16  2  0  0  0  0
 16 17  1  0  0  0  0
 17 18  2  0  0  0  0
 17 19  1  0  0  0  0
 19 20  1  0  0  0  0
 20 21  2  0  0  0  0
 20 22  1  0  0  0  0
 22 23  1  0  0  0  0
 23 43  1  0  0  0  0
 23 44  1  0  0  0  0
 23 45  1  0  0  0  0
M  CHG  1  19  -1
M  END
> <s_m_source_file>
AV-unprocessed.smi

> <i_m_source_file_index>
535

> <i_lp_mmshare_version>
43012

> <i_f3d_flags>
0

> <s_epik_input>
W0NIM11uMWMoPU8pW25IXWMoPU8pYyhjMTIpbihbQ0gyXVtDSDJdT1tDSDNdKWMobjIpTjNbQ0gyXVtDSDJdW0NIMl1bQ0BASF0oW0NIM10pW0NIMl0z

> <s_epik_cmdline>
J2VwaWtfcHl0aG9uJywgJy1waCcsICc3LjAnLCAnLXRuJywgJzgnLCAnLW1hJywgJzIwMCcsICctbWV0YWxfYmluZGluZycsICctaW1hZScsICc8aW5maWxlLm1hZT4nLCAnLW9tYWUnLCAnPG91dGZpbGUubWFlPic=

> <r_lp_tautomer_probability>
1

> <r_epik_Ionization_Penalty>
5.11375

> <r_epik_Ionization_Penalty_Charging>
0.0788329

> <r_epik_Ionization_Penalty_Neutral>
5.03492

> <r_epik_State_Penalty>
5.02848

> <r_epik_Charging_Adjusted_Penalty>
5.10731

> <i_epik_Tot_Q>
-1

> <i_epik_Tot_abs_Q>
1

> <r_epik_Metal_State_Penalty>
1.14014

> <b_epik_Metal_Only>
1

> <s_lp_Force_Field>
OPLS_2005

> <r_lp_Energy>
43.1913

> <b_lp_Chiralities_Consistent>
1

> <s_lp_Variant>
AV-unprocessed.smi:535-3

> <Gold.Version>
5.8.1

> <Gold.Id.Protein>
6NUR|6NUR_protein|mol2

> <Gold.PLP.Fitness>
50.6796

> <Gold.PLP.PLP>
-45.0167

> <Gold.PLP.part.hbond>
-3.2973

> <Gold.PLP.part.metal>
0.0000

> <Gold.PLP.part.buried>
-6.3321

> <Gold.PLP.part.nonpolar>
-36.0142

> <Gold.PLP.part.repulsive>
0.0000

> <Gold.PLP.ligand.clash>
3.3177

> <Gold.PLP.ligand.torsion>
0.4050

> <Gold.PLP.Chemscore.Hbond>
3.0926

> <Gold.PLP.Chemscore.CHOScore>
0.0000

> <Gold.PLP.Chemscore.Metal>
0.0000

> <Gold.Chemscore.Hbonds>
donor molecule, donor type, donor heavy atom, donor atom, acceptor molecule, acceptor atom, score
      P1  H  6896  6908       L1    19  1.37
      P1  H  7997  8009       L1    14  0.01
      P1  H 10752 10765       L1    21  1.00

> <Gold.PLP.Chemscore.Internal.Correction>
0.5127

> <Gold.Rescore>
     Score         DG    S(hbond)    S(metal)    S(lipo)     H(rot)  DE(clash)    DE(int)     intcor
     15.78     -17.62       1.19        0.00     101.38       1.44       0.06       1.78       ----

> <Gold.Chemscore.Fitness>
15.7765

> <Gold.Chemscore.DG>
-17.6213

> <Gold.Chemscore.ZeroCoef>
-5.4800

> <Gold.Chemscore.Hbond>
1.1852

> <Gold.Chemscore.Metal>
0.0000

> <Gold.Chemscore.Lipo>
101.3842

> <Gold.Chemscore.Internal_Hbond>
0.0000

> <Gold.Chemscore.DEClash>
0.0641

> <Gold.Chemscore.DEInternal>
1.7808

> <Gold.Chemscore.Rot>
1.4372

> <Gold.Chemscore.Internal.Correction>
   9.000000E+99

> <Gold.Chemscore.Hbonds>
donor molecule, donor type, donor heavy atom, donor atom, acceptor molecule, acceptor atom, score
      P1  H  6896  6908       L1    19  0.06
      P1  H 10752 10765       L1    21  0.99

> <Gold.Chemscore.Hbond.Weighted>
-3.9587

> <Gold.Chemscore.Metal.Weighted>
-0.0000

> <Gold.Chemscore.Lipo.Weighted>
-11.8620

> <Gold.Chemscore.Internal_Hbond.Weighted>
0.0000

> <Gold.Chemscore.DEClash.Weighted>
0.0641

> <Gold.Chemscore.DEInternal.Weighted>
1.7808

> <Gold.Chemscore.Rot.Weighted>
3.6793

> <Gold.Chemscore.Internal.Correction.Weighted>
   9.000000E+99

> <Gold.Protein.RotatedTorsions>
[ 6907 6896 6895 6894 ] final  -72.02 input  -60.11 | X-H torsion
[ 7974 7965 7964 7962 ] final  -26.20 input  175.53 | X-H torsion
[ 8008 7997 7996 7995 ] final  158.61 input   59.86 | X-H torsion
[ 10167 10162 10161 10158 ] final -140.52 input  -65.29 | X-H torsion
[ 10718 10713 10712 10709 ] final    4.98 input   66.30 | X-H torsion
[ 10763 10752 10751 10750 ] final -126.71 input  -60.55 | X-H torsion
[ 11005 11000 10999 10996 ] final  -12.91 input  -57.11 | X-H torsion

> <Gold.Protein.ActiveResidues>
 VAL166  LYS551  ARG553  GLY616  TRP617  ASP618  TYR619  PRO620  LYS621  CYS622 
 ASP623  PHE694  ASN695  SER759  ASP760  ASP761  ALA762  ILE779  LEU786  VAL792 
 PHE793  MET794  SER795  GLU796  ALA797  LYS798  CYS799  TRP800  GLU811  SER814 

> <Gold.Protein.RotatedAtoms>
  150.7187  134.5224  159.5659 H   0  0  0  0  0  0  0  0  0  0  0  0  # atno 6907 bound_to 6896
  152.2776  134.7861  160.0411 H   0  0  0  0  0  0  0  0  0  0  0  0  # atno 6908 bound_to 6896
  151.8519  133.3406  159.3712 H   0  0  0  0  0  0  0  0  0  0  0  0  # atno 6909 bound_to 6896
  146.1441  140.4988  142.8639 H   0  0  0  0  0  0  0  0  0  0  0  0  # atno 7974 bound_to 7965
  156.2292  140.1853  156.7286 H   0  0  0  0  0  0  0  0  0  0  0  0  # atno 8008 bound_to 7997
  154.5993  140.0638  156.9374 H   0  0  0  0  0  0  0  0  0  0  0  0  # atno 8009 bound_to 7997
  155.2202  140.3307  155.4319 H   0  0  0  0  0  0  0  0  0  0  0  0  # atno 8010 bound_to 7997
  139.8274  143.7493  152.2666 H   0  0  0  0  0  0  0  0  0  0  0  0  # atno 10167 bound_to 10162
  156.9006  130.5720  149.5648 H   0  0  0  0  0  0  0  0  0  0  0  0  # atno 10718 bound_to 10713
  154.8747  135.3986  154.3476 H   0  0  0  0  0  0  0  0  0  0  0  0  # atno 10763 bound_to 10752
  153.4266  135.7024  153.6264 H   0  0  0  0  0  0  0  0  0  0  0  0  # atno 10764 bound_to 10752
  153.4903  135.3749  155.2458 H   0  0  0  0  0  0  0  0  0  0  0  0  # atno 10765 bound_to 10752
  140.7706  133.8442  155.9203 H   0  0  0  0  0  0  0  0  0  0  0  0  # atno 11005 bound_to 11000
  144.7826  140.5871  143.6595 LP  0  0  0  0  0  0  0  0  0  0  0  0  # atno 17320 bound_to 7965
  145.4978  139.1485  143.3674 LP  0  0  0  0  0  0  0  0  0  0  0  0  # atno 17321 bound_to 7965
  139.7689  144.7483  151.0253 LP  0  0  0  0  0  0  0  0  0  0  0  0  # atno 17342 bound_to 10162
  140.7809  143.4666  151.0203 LP  0  0  0  0  0  0  0  0  0  0  0  0  # atno 17343 bound_to 10162
  156.0584  130.5641  150.9140 LP  0  0  0  0  0  0  0  0  0  0  0  0  # atno 17370 bound_to 10713
  157.6028  131.0940  150.8930 LP  0  0  0  0  0  0  0  0  0  0  0  0  # atno 17371 bound_to 10713
  140.9577  134.1696  157.4678 LP  0  0  0  0  0  0  0  0  0  0  0  0  # atno 17394 bound_to 11000
  139.8756  134.9933  156.5639 LP  0  0  0  0  0  0  0  0  0  0  0  0  # atno 17395 bound_to 11000

$$$$
