AV-unprocessed.smi:1047|AV-procd|sdf|4585|dock2
  -GOLD-   22720 3 53D 1   1.00000     0.00000
 Structure written by MMmdl.
 58 60  0  0  0  0  0  0  0  0  4 V2000
  147.0044  130.5358  153.8977 C   0  0  0  0  0  0  0  0  0  0  0  0
  147.2397  131.9876  154.3388 C   0  0  0  0  0  0  0  0  0  0  0  0
  148.6302  132.4447  154.0747 N   0  3  2  0  0  0  0  0  0  0  0  0
  149.6405  131.8033  154.9507 C   0  0  0  0  0  0  0  0  0  0  0  0
  149.6468  132.4403  156.3518 C   0  0  0  0  0  0  0  0  0  0  0  0
  149.8740  133.8401  156.2350 O   0  0  0  0  0  0  0  0  0  0  0  0
  148.8508  134.5021  155.4976 C   0  0  1  0  0  0  0  0  0  0  0  0
  149.1682  136.0055  155.4891 C   0  0  0  0  0  0  0  0  0  0  0  0
  150.1415  136.3466  154.4318 N   0  3  0  0  0  0  0  0  0  0  0  0
  150.6782  137.7192  154.5291 C   0  0  0  0  0  0  0  0  0  0  0  0
  151.2611  137.9982  155.9247 C   0  0  1  0  0  0  0  0  0  0  0  0
  151.9667  136.8516  156.3576 O   0  0  0  0  0  0  0  0  0  0  0  0
  152.2070  139.2153  155.9154 C   0  0  0  0  0  0  0  0  0  0  0  0
  151.5084  140.4887  156.1457 N   0  0  0  0  0  0  0  0  0  0  0  0
  150.5992  141.1328  155.3638 C   0  0  0  0  0  0  0  0  0  0  0  0
  150.2535  142.2864  155.9993 N   0  3  0  0  0  0  0  0  0  0  0  0
  150.9533  142.3829  157.2035 C   0  0  0  0  0  0  0  0  0  0  0  0
  150.9411  143.3663  158.1853 C   0  0  0  0  0  0  0  0  0  0  0  0
  151.7772  143.1682  159.3071 C   0  0  0  0  0  0  0  0  0  0  0  0
  151.7894  144.2259  160.3978 C   0  0  0  0  0  0  0  0  0  0  0  0
  152.5884  142.0093  159.4171 C   0  0  0  0  0  0  0  0  0  0  0  0
  153.4810  141.8055  160.6296 C   0  0  0  0  0  0  0  0  0  0  0  0
  152.5873  141.0209  158.4067 C   0  0  0  0  0  0  0  0  0  0  0  0
  151.7598  141.2324  157.3059 C   0  0  0  0  0  0  0  0  0  0  0  0
  148.8147  133.9193  154.0667 C   0  0  0  0  0  0  0  0  0  0  0  0
  146.0122  130.2002  154.2001 H   0  0  0  0  0  0  0  0  0  0  0  0
  147.7314  129.8623  154.3526 H   0  0  0  0  0  0  0  0  0  0  0  0
  147.0662  130.4188  152.8162 H   0  0  0  0  0  0  0  0  0  0  0  0
  146.5132  132.6505  153.8696 H   0  0  0  0  0  0  0  0  0  0  0  0
  147.0495  132.0392  155.4115 H   0  0  0  0  0  0  0  0  0  0  0  0
  149.4726  130.7275  155.0131 H   0  0  0  0  0  0  0  0  0  0  0  0
  150.6221  131.9323  154.4927 H   0  0  0  0  0  0  0  0  0  0  0  0
  148.7112  132.2505  156.8796 H   0  0  0  0  0  0  0  0  0  0  0  0
  150.4433  132.0052  156.9556 H   0  0  0  0  0  0  0  0  0  0  0  0
  147.8882  134.3498  155.9885 H   0  0  0  0  0  0  0  0  0  0  0  0
  148.2538  136.5834  155.3476 H   0  0  0  0  0  0  0  0  0  0  0  0
  149.5876  136.2988  156.4524 H   0  0  0  0  0  0  0  0  0  0  0  0
  150.9126  135.6957  154.4735 H   0  0  0  0  0  0  0  0  0  0  0  0
  151.4378  137.8746  153.7610 H   0  0  0  0  0  0  0  0  0  0  0  0
  149.8683  138.4201  154.3221 H   0  0  0  0  0  0  0  0  0  0  0  0
  150.4487  138.1863  156.6282 H   0  0  0  0  0  0  0  0  0  0  0  0
  152.5770  137.1108  157.0315 H   0  0  0  0  0  0  0  0  0  0  0  0
  153.0063  139.1034  156.6485 H   0  0  0  0  0  0  0  0  0  0  0  0
  152.6972  139.2943  154.9442 H   0  0  0  0  0  0  0  0  0  0  0  0
  150.2226  140.7938  154.4093 H   0  0  0  0  0  0  0  0  0  0  0  0
  150.3200  144.2458  158.0956 H   0  0  0  0  0  0  0  0  0  0  0  0
  152.7929  144.6330  160.5251 H   0  0  0  0  0  0  0  0  0  0  0  0
  151.4641  143.8012  161.3478 H   0  0  0  0  0  0  0  0  0  0  0  0
  151.1225  145.0546  160.1577 H   0  0  0  0  0  0  0  0  0  0  0  0
  154.0222  140.8606  160.5729 H   0  0  0  0  0  0  0  0  0  0  0  0
  152.8886  141.7948  161.5448 H   0  0  0  0  0  0  0  0  0  0  0  0
  154.2166  142.6067  160.7021 H   0  0  0  0  0  0  0  0  0  0  0  0
  153.2044  140.1391  158.4952 H   0  0  0  0  0  0  0  0  0  0  0  0
  149.7609  134.1331  153.5674 H   0  0  0  0  0  0  0  0  0  0  0  0
  148.0450  134.4069  153.4695 H   0  0  0  0  0  0  0  0  0  0  0  0
  149.6872  136.2514  153.5342 H   0  0  0  0  0  0  0  0  0  0  0  0
  148.8362  132.1240  153.1389 H   0  0  0  0  0  0  0  0  0  0  0  0
  149.5916  142.9591  155.6334 H   0  0  0  0  0  0  0  0  0  0  0  0
  1  2  1  0  0  0  0
  1 26  1  0  0  0  0
  1 27  1  0  0  0  0
  1 28  1  0  0  0  0
  2  3  1  0  0  0  0
  2 29  1  0  0  0  0
  2 30  1  0  0  0  0
  3 25  1  0  0  0  0
  3  4  1  0  0  0  0
  3 57  1  0  0  0  0
  4  5  1  0  0  0  0
  4 31  1  0  0  0  0
  4 32  1  0  0  0  0
  5  6  1  0  0  0  0
  5 33  1  0  0  0  0
  5 34  1  0  0  0  0
  6  7  1  0  0  0  0
  7  8  1  0  0  0  0
  7 25  1  0  0  0  0
  7 35  1  0  0  0  0
  8  9  1  0  0  0  0
  8 36  1  0  0  0  0
  8 37  1  0  0  0  0
  9 10  1  0  0  0  0
  9 38  1  0  0  0  0
  9 56  1  0  0  0  0
 10 11  1  0  0  0  0
 10 39  1  0  0  0  0
 10 40  1  0  0  0  0
 11 12  1  0  0  0  0
 11 13  1  0  0  0  0
 11 41  1  0  0  0  0
 12 42  1  0  0  0  0
 13 14  1  0  0  0  0
 13 43  1  0  0  0  0
 13 44  1  0  0  0  0
 14 24  1  0  0  0  0
 14 15  1  0  0  0  0
 15 16  2  0  0  0  0
 15 45  1  0  0  0  0
 16 17  1  0  0  0  0
 16 58  1  0  0  0  0
 17 24  2  0  0  0  0
 17 18  1  0  0  0  0
 18 19  2  0  0  0  0
 18 46  1  0  0  0  0
 19 20  1  0  0  0  0
 19 21  1  0  0  0  0
 20 47  1  0  0  0  0
 20 48  1  0  0  0  0
 20 49  1  0  0  0  0
 21 22  1  0  0  0  0
 21 23  2  0  0  0  0
 22 50  1  0  0  0  0
 22 51  1  0  0  0  0
 22 52  1  0  0  0  0
 23 24  1  0  0  0  0
 23 53  1  0  0  0  0
 25 54  1  0  0  0  0
 25 55  1  0  0  0  0
M  CHG  1   3   1
M  CHG  1   9   1
M  CHG  1  16   1
M  END
> <s_m_source_file>
AV-unprocessed.smi

> <i_m_source_file_index>
1047

> <i_lp_mmshare_version>
43012

> <i_f3d_flags>
0

> <s_epik_input>
W0NIM11bQ0gyXU4xW0NIMl1bQ0gyXU9bQ0BIXShbQ0gyXTEpW0NIMl1bTkhdW0NIMl1bQ0BIXShbT0hdKVtDSDJdbihbY0hdbjIpYyhjMjMpW2NIXWMoW0NIM10pYyhbY0hdMylbQ0gzXQ==

> <s_epik_cmdline>
J2VwaWtfcHl0aG9uJywgJy1waCcsICc3LjAnLCAnLXRuJywgJzgnLCAnLW1hJywgJzIwMCcsICctbWV0YWxfYmluZGluZycsICctaW1hZScsICc8aW5maWxlLm1hZT4nLCAnLW9tYWUnLCAnPG91dGZpbGUubWFlPic=

> <r_epik_Ionization_Penalty>
1.6114

> <r_epik_Ionization_Penalty_Charging>
1.61139

> <r_epik_Ionization_Penalty_Neutral>
5.04732e-06

> <r_epik_State_Penalty>
1.63724

> <r_epik_Charging_Adjusted_Penalty>
3.24864

> <i_epik_Tot_Q>
3

> <i_epik_Tot_abs_Q>
3

> <r_epik_Metal_State_Penalty>
5.64594

> <b_epik_Metal_Only>
0

> <s_lp_Force_Field>
OPLS_2005

> <r_lp_Energy>
39.6477

> <b_lp_Chiralities_Consistent>
1

> <s_lp_Variant>
AV-unprocessed.smi:1047-26

> <Gold.Version>
5.8.1

> <Gold.Id.Protein>
6NUR|6NUR_protein|mol2

> <Gold.PLP.Fitness>
59.9791

> <Gold.PLP.PLP>
-46.6660

> <Gold.PLP.part.hbond>
-3.9284

> <Gold.PLP.part.metal>
0.0000

> <Gold.PLP.part.buried>
-3.9808

> <Gold.PLP.part.nonpolar>
-36.9144

> <Gold.PLP.part.repulsive>
0.1492

> <Gold.PLP.ligand.clash>
0.0000

> <Gold.PLP.ligand.torsion>
0.9450

> <Gold.PLP.Chemscore.Hbond>
5.0000

> <Gold.PLP.Chemscore.CHOScore>
0.0000

> <Gold.PLP.Chemscore.Metal>
0.0000

> <Gold.Chemscore.Hbonds>
donor molecule, donor type, donor heavy atom, donor atom, acceptor molecule, acceptor atom, score
      L1  H     9    56       P1  7948  2.00
      L1  H    16    58       P1  8028  1.95
      P1  H 10752 10764       L1    12  0.50

> <Gold.PLP.Chemscore.Internal.Correction>
0.2031

> <Gold.Rescore>
     Score         DG    S(hbond)    S(metal)    S(lipo)     H(rot)  DE(clash)    DE(int)     intcor
     19.41     -20.43       2.28        0.00     123.77       2.78       0.23       0.79       ----

> <Gold.Chemscore.Fitness>
19.4095

> <Gold.Chemscore.DG>
-20.4309

> <Gold.Chemscore.ZeroCoef>
-5.4800

> <Gold.Chemscore.Hbond>
2.2751

> <Gold.Chemscore.Metal>
0.0000

> <Gold.Chemscore.Lipo>
123.7717

> <Gold.Chemscore.Internal_Hbond>
0.0000

> <Gold.Chemscore.DEClash>
0.2276

> <Gold.Chemscore.DEInternal>
0.7938

> <Gold.Chemscore.Rot>
2.7848

> <Gold.Chemscore.Internal.Correction>
   9.000000E+99

> <Gold.Chemscore.Hbonds>
donor molecule, donor type, donor heavy atom, donor atom, acceptor molecule, acceptor atom, score
      L1  H     9    56       P1  7948  0.35
      L1  H    16    58       P1  8028  0.93
      P1  H 10752 10764       L1    12  0.25

> <Gold.Chemscore.Hbond.Weighted>
-7.5987

> <Gold.Chemscore.Metal.Weighted>
-0.0000

> <Gold.Chemscore.Lipo.Weighted>
-14.4813

> <Gold.Chemscore.Internal_Hbond.Weighted>
0.0000

> <Gold.Chemscore.DEClash.Weighted>
0.2276

> <Gold.Chemscore.DEInternal.Weighted>
0.7938

> <Gold.Chemscore.Rot.Weighted>
7.1291

> <Gold.Chemscore.Internal.Correction.Weighted>
   9.000000E+99

> <Gold.Protein.RotatedTorsions>
[ 6907 6896 6895 6894 ] final   59.01 input  -60.11 | X-H torsion
[ 7974 7965 7964 7962 ] final    8.53 input  175.53 | X-H torsion
[ 8008 7997 7996 7995 ] final -100.14 input   59.86 | X-H torsion
[ 10167 10162 10161 10158 ] final   33.36 input  -65.29 | X-H torsion
[ 10718 10713 10712 10709 ] final  -20.52 input   66.30 | X-H torsion
[ 10763 10752 10751 10750 ] final  -33.64 input  -60.55 | X-H torsion
[ 11005 11000 10999 10996 ] final   44.96 input  -57.11 | X-H torsion

> <Gold.Protein.ActiveResidues>
 VAL166  LYS551  ARG553  GLY616  TRP617  ASP618  TYR619  PRO620  LYS621  CYS622 
 ASP623  PHE694  ASN695  SER759  ASP760  ASP761  ALA762  ILE779  LEU786  VAL792 
 PHE793  MET794  SER795  GLU796  ALA797  LYS798  CYS799  TRP800  GLU811  SER814 

> <Gold.Protein.RotatedAtoms>
  152.3876  134.6493  160.0119 H   0  0  0  0  0  0  0  0  0  0  0  0  # atno 6907 bound_to 6896
  151.6736  133.3308  159.3210 H   0  0  0  0  0  0  0  0  0  0  0  0  # atno 6908 bound_to 6896
  150.7799  134.6777  159.6471 H   0  0  0  0  0  0  0  0  0  0  0  0  # atno 6909 bound_to 6896
  146.2415  139.9920  142.8425 H   0  0  0  0  0  0  0  0  0  0  0  0  # atno 7974 bound_to 7965
  154.8246  140.0443  157.1434 H   0  0  0  0  0  0  0  0  0  0  0  0  # atno 8008 bound_to 7997
  154.9221  140.3028  155.5190 H   0  0  0  0  0  0  0  0  0  0  0  0  # atno 8009 bound_to 7997
  156.2982  140.2338  156.4272 H   0  0  0  0  0  0  0  0  0  0  0  0  # atno 8010 bound_to 7997
  140.4415  144.1181  150.6175 H   0  0  0  0  0  0  0  0  0  0  0  0  # atno 10167 bound_to 10162
  156.5307  130.4654  149.6548 H   0  0  0  0  0  0  0  0  0  0  0  0  # atno 10718 bound_to 10713
  153.8336  135.6864  153.4811 H   0  0  0  0  0  0  0  0  0  0  0  0  # atno 10763 bound_to 10752
  153.1496  135.4623  154.9615 H   0  0  0  0  0  0  0  0  0  0  0  0  # atno 10764 bound_to 10752
  154.7876  135.3290  154.7796 H   0  0  0  0  0  0  0  0  0  0  0  0  # atno 10765 bound_to 10752
  140.1504  134.4469  155.8386 H   0  0  0  0  0  0  0  0  0  0  0  0  # atno 11005 bound_to 11000
  145.1495  140.9615  143.4441 LP  0  0  0  0  0  0  0  0  0  0  0  0  # atno 17320 bound_to 7965
  145.0219  139.3416  143.6068 LP  0  0  0  0  0  0  0  0  0  0  0  0  # atno 17321 bound_to 7965
  140.4313  143.2567  151.9592 LP  0  0  0  0  0  0  0  0  0  0  0  0  # atno 17342 bound_to 10162
  139.4790  144.5741  151.8040 LP  0  0  0  0  0  0  0  0  0  0  0  0  # atno 17343 bound_to 10162
  156.3062  130.7204  151.2087 LP  0  0  0  0  0  0  0  0  0  0  0  0  # atno 17370 bound_to 10713
  157.7422  131.0493  150.5041 LP  0  0  0  0  0  0  0  0  0  0  0  0  # atno 17371 bound_to 10713
  141.2198  133.6870  156.7410 LP  0  0  0  0  0  0  0  0  0  0  0  0  # atno 17394 bound_to 11000
  140.2612  134.8465  157.3760 LP  0  0  0  0  0  0  0  0  0  0  0  0  # atno 17395 bound_to 11000

$$$$
