AV-unprocessed.smi:1833|AV-procd|sdf|7468|dock10
  -GOLD-   22720 9163D 1   1.00000     0.00000
 Structure written by MMmdl.
 42 43  0  0  0  0  0  0  0  0  2 V2000
  144.2494  132.8482  149.3262 C   0  0  0  0  0  0  0  0  0  0  0  0
  145.5852  132.1157  149.1335 C   0  0  0  0  0  0  0  0  0  0  0  0
  146.2489  131.7872  150.4208 N   0  3  2  0  0  0  0  0  0  0  0  0
  145.3112  131.1543  151.3853 C   0  0  0  0  0  0  0  0  0  0  0  0
  146.0407  130.7012  152.6607 C   0  0  0  0  0  0  0  0  0  0  0  0
  146.7880  131.8704  153.3139 C   0  0  0  0  0  0  0  0  0  0  0  0
  147.7312  132.5252  152.2933 C   0  0  2  0  0  0  0  0  0  0  0  0
  148.3836  133.6870  152.8924 N   0  0  0  0  0  0  0  0  0  0  0  0
  149.0479  133.6968  154.0573 C   0  0  0  0  0  0  0  0  0  0  0  0
  149.2135  132.7064  154.7694 O   0  0  0  0  0  0  0  0  0  0  0  0
  149.5021  134.9211  154.3587 N   0  0  0  0  0  0  0  0  0  0  0  0
  150.2240  135.2676  155.5775 C   0  0  0  0  0  0  0  0  0  0  0  0
  150.0303  136.7478  155.9443 C   0  0  0  0  0  0  0  0  0  0  0  0
  151.1391  137.6113  155.4436 C   0  0  0  0  0  0  0  0  0  0  0  0
  152.2052  137.1375  154.7925 N   0  0  0  0  0  0  0  0  0  0  0  0
  153.1134  138.1427  154.4517 C   0  0  0  0  0  0  0  0  0  0  0  0
  152.7284  139.3918  154.8677 C   0  0  0  0  0  0  0  0  0  0  0  0
  151.2034  139.3502  155.7099 S   0  0  0  0  0  0  0  0  0  0  0  0
  146.9568  132.9459  151.0294 C   0  0  0  0  0  0  0  0  0  0  0  0
  143.8403  133.1554  148.3635 H   0  0  0  0  0  0  0  0  0  0  0  0
  144.3750  133.7462  149.9317 H   0  0  0  0  0  0  0  0  0  0  0  0
  143.5008  132.2185  149.8061 H   0  0  0  0  0  0  0  0  0  0  0  0
  145.4461  131.2103  148.5409 H   0  0  0  0  0  0  0  0  0  0  0  0
  146.2371  132.7676  148.5503 H   0  0  0  0  0  0  0  0  0  0  0  0
  144.5157  131.8579  151.6365 H   0  0  0  0  0  0  0  0  0  0  0  0
  144.8347  130.2891  150.9226 H   0  0  0  0  0  0  0  0  0  0  0  0
  145.3273  130.2748  153.3667 H   0  0  0  0  0  0  0  0  0  0  0  0
  146.7463  129.9059  152.4166 H   0  0  0  0  0  0  0  0  0  0  0  0
  146.0688  132.6024  153.6849 H   0  0  0  0  0  0  0  0  0  0  0  0
  147.3507  131.5168  154.1789 H   0  0  0  0  0  0  0  0  0  0  0  0
  148.4774  131.7838  152.0009 H   0  0  0  0  0  0  0  0  0  0  0  0
  148.3063  134.5591  152.3896 H   0  0  0  0  0  0  0  0  0  0  0  0
  149.3193  135.6733  153.7105 H   0  0  0  0  0  0  0  0  0  0  0  0
  149.9070  134.6239  156.3997 H   0  0  0  0  0  0  0  0  0  0  0  0
  151.2820  135.0620  155.4123 H   0  0  0  0  0  0  0  0  0  0  0  0
  149.0886  137.1166  155.5356 H   0  0  0  0  0  0  0  0  0  0  0  0
  149.9666  136.8648  157.0267 H   0  0  0  0  0  0  0  0  0  0  0  0
  154.0118  137.8791  153.9135 H   0  0  0  0  0  0  0  0  0  0  0  0
  153.2481  140.3288  154.7335 H   0  0  0  0  0  0  0  0  0  0  0  0
  147.6581  133.3743  150.3138 H   0  0  0  0  0  0  0  0  0  0  0  0
  146.2331  133.7273  151.2686 H   0  0  0  0  0  0  0  0  0  0  0  0
  146.9496  131.0904  150.2114 H   0  0  0  0  0  0  0  0  0  0  0  0
  1  2  1  0  0  0  0
  1 20  1  0  0  0  0
  1 21  1  0  0  0  0
  1 22  1  0  0  0  0
  2  3  1  0  0  0  0
  2 23  1  0  0  0  0
  2 24  1  0  0  0  0
  3 19  1  0  0  0  0
  3  4  1  0  0  0  0
  3 42  1  0  0  0  0
  4  5  1  0  0  0  0
  4 25  1  0  0  0  0
  4 26  1  0  0  0  0
  5  6  1  0  0  0  0
  5 27  1  0  0  0  0
  5 28  1  0  0  0  0
  6  7  1  0  0  0  0
  6 29  1  0  0  0  0
  6 30  1  0  0  0  0
  7  8  1  0  0  0  0
  7 19  1  0  0  0  0
  7 31  1  0  0  0  0
  8  9  1  0  0  0  0
  8 32  1  0  0  0  0
  9 10  2  0  0  0  0
  9 11  1  0  0  0  0
 11 12  1  0  0  0  0
 11 33  1  0  0  0  0
 12 13  1  0  0  0  0
 12 34  1  0  0  0  0
 12 35  1  0  0  0  0
 13 14  1  0  0  0  0
 13 36  1  0  0  0  0
 13 37  1  0  0  0  0
 14 18  1  0  0  0  0
 14 15  2  0  0  0  0
 15 16  1  0  0  0  0
 16 17  2  0  0  0  0
 16 38  1  0  0  0  0
 17 18  1  0  0  0  0
 17 39  1  0  0  0  0
 19 40  1  0  0  0  0
 19 41  1  0  0  0  0
M  CHG  1   3   1
M  END
> <s_m_source_file>
AV-unprocessed.smi

> <i_m_source_file_index>
1833

> <i_lp_mmshare_version>
43012

> <i_f3d_flags>
0

> <s_epik_input>
W0NIM11bQ0gyXU4xW0NIMl1bQ0gyXVtDSDJdW0NASF0oW0NIMl0xKVtOSF1DKD1PKVtOSF1bQ0gyXVtDSDJdYzJuW2NIXVtjSF1zMg==

> <s_epik_cmdline>
J2VwaWtfcHl0aG9uJywgJy1waCcsICc3LjAnLCAnLXRuJywgJzgnLCAnLW1hJywgJzIwMCcsICctbWV0YWxfYmluZGluZycsICctaW1hZScsICc8aW5maWxlLm1hZT4nLCAnLW9tYWUnLCAnPG91dGZpbGUubWFlPic=

> <r_lp_tautomer_probability>
1

> <r_epik_Ionization_Penalty>
0.00269629

> <r_epik_Ionization_Penalty_Charging>
0.00233899

> <r_epik_Ionization_Penalty_Neutral>
0.000357304

> <r_epik_State_Penalty>
-0

> <r_epik_Charging_Adjusted_Penalty>
0.00233899

> <i_epik_Tot_Q>
1

> <i_epik_Tot_abs_Q>
1

> <r_epik_Metal_State_Penalty>
-0

> <b_epik_Metal_Only>
0

> <s_lp_Force_Field>
OPLS_2005

> <r_lp_Energy>
7.34013

> <b_lp_Chiralities_Consistent>
1

> <s_lp_Variant>
AV-unprocessed.smi:1833-4

> <Gold.Version>
5.8.1

> <Gold.Id.Protein>
6NUR|6NUR_protein|mol2

> <Gold.PLP.Fitness>
43.7121

> <Gold.PLP.PLP>
-33.9679

> <Gold.PLP.part.hbond>
-4.0000

> <Gold.PLP.part.metal>
0.0000

> <Gold.PLP.part.buried>
0.3624

> <Gold.PLP.part.nonpolar>
-29.5149

> <Gold.PLP.part.repulsive>
0.2346

> <Gold.PLP.ligand.clash>
0.0000

> <Gold.PLP.ligand.torsion>
0.5951

> <Gold.PLP.Chemscore.Hbond>
3.6320

> <Gold.PLP.Chemscore.CHOScore>
0.0000

> <Gold.PLP.Chemscore.Metal>
0.0000

> <Gold.Chemscore.Hbonds>
donor molecule, donor type, donor heavy atom, donor atom, acceptor molecule, acceptor atom, score
      L1  H     3    42       P1 10747  0.82
      L1  H     8    32       P1  7948  0.85
      L1  H    11    33       P1  7948  0.94
      P1  H 10752 10765       L1    15  0.83

> <Gold.PLP.Chemscore.Internal.Correction>
0.0384

> <Gold.Rescore>
     Score         DG    S(hbond)    S(metal)    S(lipo)     H(rot)  DE(clash)    DE(int)     intcor
     17.41     -18.95       2.24        0.00      88.81       1.71       0.05       1.49       ----

> <Gold.Chemscore.Fitness>
17.4135

> <Gold.Chemscore.DG>
-18.9550

> <Gold.Chemscore.ZeroCoef>
-5.4800

> <Gold.Chemscore.Hbond>
2.2375

> <Gold.Chemscore.Metal>
0.0000

> <Gold.Chemscore.Lipo>
88.8144

> <Gold.Chemscore.Internal_Hbond>
0.0000

> <Gold.Chemscore.DEClash>
0.0534

> <Gold.Chemscore.DEInternal>
1.4880

> <Gold.Chemscore.Rot>
1.7147

> <Gold.Chemscore.Internal.Correction>
   9.000000E+99

> <Gold.Chemscore.Hbonds>
donor molecule, donor type, donor heavy atom, donor atom, acceptor molecule, acceptor atom, score
      L1  H     3    42       P1 10747  0.74
      L1  H     8    32       P1  7948  0.14
      L1  H    11    33       P1  7948  0.50
      P1  H 10752 10765       L1    15  0.54

> <Gold.Chemscore.Hbond.Weighted>
-7.4733

> <Gold.Chemscore.Metal.Weighted>
-0.0000

> <Gold.Chemscore.Lipo.Weighted>
-10.3913

> <Gold.Chemscore.Internal_Hbond.Weighted>
0.0000

> <Gold.Chemscore.DEClash.Weighted>
0.0534

> <Gold.Chemscore.DEInternal.Weighted>
1.4880

> <Gold.Chemscore.Rot.Weighted>
4.3896

> <Gold.Chemscore.Internal.Correction.Weighted>
   9.000000E+99

> <Gold.Protein.RotatedTorsions>
[ 6907 6896 6895 6894 ] final  -32.09 input  -60.11 | X-H torsion
[ 7974 7965 7964 7962 ] final -136.49 input  175.53 | X-H torsion
[ 8008 7997 7996 7995 ] final  176.10 input   59.86 | X-H torsion
[ 10167 10162 10161 10158 ] final -154.38 input  -65.29 | X-H torsion
[ 10718 10713 10712 10709 ] final  -11.71 input   66.30 | X-H torsion
[ 10763 10752 10751 10750 ] final  176.58 input  -60.55 | X-H torsion
[ 11005 11000 10999 10996 ] final  131.93 input  -57.11 | X-H torsion

> <Gold.Protein.ActiveResidues>
 VAL166  LYS551  ARG553  GLY616  TRP617  ASP618  TYR619  PRO620  LYS621  CYS622 
 ASP623  PHE694  ASN695  SER759  ASP760  ASP761  ALA762  ILE779  LEU786  VAL792 
 PHE793  MET794  SER795  GLU796  ALA797  LYS798  CYS799  TRP800  GLU811  SER814 

> <Gold.Protein.RotatedAtoms>
  151.0834  134.9872  159.8366 H   0  0  0  0  0  0  0  0  0  0  0  0  # atno 6907 bound_to 6896
  152.5422  134.2154  159.8776 H   0  0  0  0  0  0  0  0  0  0  0  0  # atno 6908 bound_to 6896
  151.2186  133.4471  159.2633 H   0  0  0  0  0  0  0  0  0  0  0  0  # atno 6909 bound_to 6896
  144.8922  140.6658  143.5138 H   0  0  0  0  0  0  0  0  0  0  0  0  # atno 7974 bound_to 7965
  156.0801  140.1392  156.9723 H   0  0  0  0  0  0  0  0  0  0  0  0  # atno 8008 bound_to 7997
  154.4580  140.0954  156.6862 H   0  0  0  0  0  0  0  0  0  0  0  0  # atno 8009 bound_to 7997
  155.5090  140.3453  155.4387 H   0  0  0  0  0  0  0  0  0  0  0  0  # atno 8010 bound_to 7997
  139.7019  143.9250  152.2432 H   0  0  0  0  0  0  0  0  0  0  0  0  # atno 10167 bound_to 10162
  156.6551  130.4966  149.6049 H   0  0  0  0  0  0  0  0  0  0  0  0  # atno 10718 bound_to 10713
  154.4830  135.2775  155.1556 H   0  0  0  0  0  0  0  0  0  0  0  0  # atno 10763 bound_to 10752
  154.3258  135.6200  153.5532 H   0  0  0  0  0  0  0  0  0  0  0  0  # atno 10764 bound_to 10752
  152.9877  135.5753  154.5235 H   0  0  0  0  0  0  0  0  0  0  0  0  # atno 10765 bound_to 10752
  139.9759  134.9563  156.9509 H   0  0  0  0  0  0  0  0  0  0  0  0  # atno 11005 bound_to 11000
  145.3763  139.1647  143.4305 LP  0  0  0  0  0  0  0  0  0  0  0  0  # atno 17320 bound_to 7965
  146.3060  140.3839  142.8687 LP  0  0  0  0  0  0  0  0  0  0  0  0  # atno 17321 bound_to 7965
  139.9095  144.6865  150.8578 LP  0  0  0  0  0  0  0  0  0  0  0  0  # atno 17342 bound_to 10162
  140.7711  143.3454  151.2122 LP  0  0  0  0  0  0  0  0  0  0  0  0  # atno 17343 bound_to 10162
  156.2054  130.6646  151.1212 LP  0  0  0  0  0  0  0  0  0  0  0  0  # atno 17370 bound_to 10713
  157.7128  131.0725  150.6438 LP  0  0  0  0  0  0  0  0  0  0  0  0  # atno 17371 bound_to 10713
  140.5195  134.0921  155.7289 LP  0  0  0  0  0  0  0  0  0  0  0  0  # atno 17394 bound_to 11000
  141.1436  133.9094  157.2268 LP  0  0  0  0  0  0  0  0  0  0  0  0  # atno 17395 bound_to 11000

$$$$
