AV-unprocessed.smi:1779|AV-procd|sdf|7182|dock2
  -GOLD-   22720 8423D 1   1.00000     0.00000
 Structure written by MMmdl.
 47 48  0  0  0  0  0  0  0  0  2 V2000
  152.3679  140.7488  158.9175 C   0  0  0  0  0  0  0  0  0  0  0  0
  151.9645  140.1596  157.5980 C   0  0  0  0  0  0  0  0  0  0  0  0
  150.7063  140.2663  156.9370 C   0  0  0  0  0  0  0  0  0  0  0  0
  150.9056  139.5445  155.7920 C   0  0  0  0  0  0  0  0  0  0  0  0
  150.0386  139.2985  154.7737 N   0  0  0  0  0  0  0  0  0  0  0  0
  148.7933  139.7739  154.5974 C   0  0  0  0  0  0  0  0  0  0  0  0
  148.2116  140.5526  155.3526 O   0  0  0  0  0  0  0  0  0  0  0  0
  148.2455  139.2903  153.4741 N   0  0  0  0  0  0  0  0  0  0  0  0
  146.8985  139.6010  153.0090 C   0  0  0  0  0  0  0  0  0  0  0  0
  146.3709  138.5098  152.0610 C   0  0  1  0  0  0  0  0  0  0  0  0
  147.4713  138.0186  151.3218 O   0  0  0  0  0  0  0  0  0  0  0  0
  145.7053  137.3396  152.8188 C   0  0  0  0  0  0  0  0  0  0  0  0
  145.9494  136.0215  152.1779 N   0  3  0  0  0  0  0  0  0  0  0  0
  146.0360  134.9202  153.1726 C   0  0  0  0  0  0  0  0  0  0  0  0
  146.4309  133.5934  152.5021 C   0  0  0  0  0  0  0  0  0  0  0  0
  145.4534  133.2336  151.3759 C   0  0  0  0  0  0  0  0  0  0  0  0
  145.3525  134.3959  150.3798 C   0  0  0  0  0  0  0  0  0  0  0  0
  144.9783  135.7045  151.0958 C   0  0  0  0  0  0  0  0  0  0  0  0
  152.1921  139.0531  155.7941 N   0  0  0  0  0  0  0  0  0  0  0  0
  152.8689  138.2376  154.8043 C   0  0  0  0  0  0  0  0  0  0  0  0
  152.8440  139.4381  156.9124 N   0  0  0  0  0  0  0  0  0  0  0  0
  151.5539  141.3259  159.3569 H   0  0  0  0  0  0  0  0  0  0  0  0
  153.2236  141.4148  158.8053 H   0  0  0  0  0  0  0  0  0  0  0  0
  152.6417  139.9686  159.6282 H   0  0  0  0  0  0  0  0  0  0  0  0
  149.8210  140.7888  157.2671 H   0  0  0  0  0  0  0  0  0  0  0  0
  150.3813  138.6706  154.0619 H   0  0  0  0  0  0  0  0  0  0  0  0
  148.7887  138.6486  152.9154 H   0  0  0  0  0  0  0  0  0  0  0  0
  146.2545  139.6800  153.8863 H   0  0  0  0  0  0  0  0  0  0  0  0
  146.8735  140.5720  152.5104 H   0  0  0  0  0  0  0  0  0  0  0  0
  145.6771  138.9696  151.3577 H   0  0  0  0  0  0  0  0  0  0  0  0
  147.8852  137.3231  151.8093 H   0  0  0  0  0  0  0  0  0  0  0  0
  146.0894  137.3317  153.8403 H   0  0  0  0  0  0  0  0  0  0  0  0
  144.6288  137.4941  152.9057 H   0  0  0  0  0  0  0  0  0  0  0  0
  146.7773  135.1673  153.9337 H   0  0  0  0  0  0  0  0  0  0  0  0
  145.0782  134.8146  153.6847 H   0  0  0  0  0  0  0  0  0  0  0  0
  147.4413  133.6730  152.0987 H   0  0  0  0  0  0  0  0  0  0  0  0
  146.4561  132.7936  153.2429 H   0  0  0  0  0  0  0  0  0  0  0  0
  145.7805  132.3265  150.8668 H   0  0  0  0  0  0  0  0  0  0  0  0
  144.4692  133.0199  151.7954 H   0  0  0  0  0  0  0  0  0  0  0  0
  146.3049  134.5202  149.8626 H   0  0  0  0  0  0  0  0  0  0  0  0
  144.6120  134.1653  149.6132 H   0  0  0  0  0  0  0  0  0  0  0  0
  143.9752  135.6253  151.5179 H   0  0  0  0  0  0  0  0  0  0  0  0
  144.9468  136.5094  150.3629 H   0  0  0  0  0  0  0  0  0  0  0  0
  152.2660  137.3577  154.5782 H   0  0  0  0  0  0  0  0  0  0  0  0
  153.8417  137.9121  155.1750 H   0  0  0  0  0  0  0  0  0  0  0  0
  153.0129  138.8164  153.8916 H   0  0  0  0  0  0  0  0  0  0  0  0
  146.8621  136.0791  151.7496 H   0  0  0  0  0  0  0  0  0  0  0  0
  1  2  1  0  0  0  0
  1 22  1  0  0  0  0
  1 23  1  0  0  0  0
  1 24  1  0  0  0  0
  2 21  2  0  0  0  0
  2  3  1  0  0  0  0
  3  4  2  0  0  0  0
  3 25  1  0  0  0  0
  4  5  1  0  0  0  0
  4 19  1  0  0  0  0
  5  6  1  0  0  0  0
  5 26  1  0  0  0  0
  6  7  2  0  0  0  0
  6  8  1  0  0  0  0
  8  9  1  0  0  0  0
  8 27  1  0  0  0  0
  9 10  1  0  0  0  0
  9 28  1  0  0  0  0
  9 29  1  0  0  0  0
 10 11  1  0  0  0  0
 10 12  1  0  0  0  0
 10 30  1  0  0  0  0
 11 31  1  0  0  0  0
 12 13  1  0  0  0  0
 12 32  1  0  0  0  0
 12 33  1  0  0  0  0
 13 18  1  0  0  0  0
 13 14  1  0  0  0  0
 13 47  1  0  0  0  0
 14 15  1  0  0  0  0
 14 34  1  0  0  0  0
 14 35  1  0  0  0  0
 15 16  1  0  0  0  0
 15 36  1  0  0  0  0
 15 37  1  0  0  0  0
 16 17  1  0  0  0  0
 16 38  1  0  0  0  0
 16 39  1  0  0  0  0
 17 18  1  0  0  0  0
 17 40  1  0  0  0  0
 17 41  1  0  0  0  0
 18 42  1  0  0  0  0
 18 43  1  0  0  0  0
 19 20  1  0  0  0  0
 19 21  1  0  0  0  0
 20 44  1  0  0  0  0
 20 45  1  0  0  0  0
 20 46  1  0  0  0  0
M  CHG  1  13   1
M  END
> <s_m_source_file>
AV-unprocessed.smi

> <i_m_source_file_index>
1779

> <i_lp_mmshare_version>
43012

> <i_f3d_flags>
0

> <s_epik_input>
W0NIM11jMVtjSF1jKG4objEpW0NIM10pW05IXUMoPU8pW05IXVtDSDJdW0NASF0oW09IXSlbQ0gyXU4yW0NIMl1bQ0gyXVtDSDJdW0NIMl1bQ0gyXTI=

> <s_epik_cmdline>
J2VwaWtfcHl0aG9uJywgJy1waCcsICc3LjAnLCAnLXRuJywgJzgnLCAnLW1hJywgJzIwMCcsICctbWV0YWxfYmluZGluZycsICctaW1hZScsICc8aW5maWxlLm1hZT4nLCAnLW9tYWUnLCAnPG91dGZpbGUubWFlPic=

> <r_lp_tautomer_probability>
1

> <r_epik_Ionization_Penalty>
0.00528203

> <r_epik_Ionization_Penalty_Charging>
0.00519125

> <r_epik_Ionization_Penalty_Neutral>
9.07781e-05

> <r_epik_State_Penalty>
0.0037836

> <r_epik_Charging_Adjusted_Penalty>
0.00897485

> <i_epik_Tot_Q>
1

> <i_epik_Tot_abs_Q>
1

> <r_epik_Metal_State_Penalty>
-0

> <b_epik_Metal_Only>
0

> <s_lp_Force_Field>
OPLS_2005

> <r_lp_Energy>
21.4604

> <b_lp_Chiralities_Consistent>
1

> <s_lp_Variant>
AV-unprocessed.smi:1779-2

> <Gold.Version>
5.8.1

> <Gold.Id.Protein>
6NUR|6NUR_protein|mol2

> <Gold.PLP.Fitness>
49.1962

> <Gold.PLP.PLP>
-36.8587

> <Gold.PLP.part.hbond>
-5.4955

> <Gold.PLP.part.metal>
0.0000

> <Gold.PLP.part.buried>
-3.9533

> <Gold.PLP.part.nonpolar>
-31.2561

> <Gold.PLP.part.repulsive>
0.2572

> <Gold.PLP.ligand.clash>
0.0000

> <Gold.PLP.ligand.torsion>
1.3015

> <Gold.PLP.Chemscore.Hbond>
4.9499

> <Gold.PLP.Chemscore.CHOScore>
0.0000

> <Gold.PLP.Chemscore.Metal>
0.0000

> <Gold.Chemscore.Hbonds>
donor molecule, donor type, donor heavy atom, donor atom, acceptor molecule, acceptor atom, score
      L1  H     8    27       P1  7957  0.01
      L1  H    11    31       P1  7948  0.86
      L1  H    13    47       P1  7948  1.82
      P1  H  7954  7966       L1    11  1.00
      P1  H  7997  8009       L1    21  1.00

> <Gold.PLP.Chemscore.Internal.Correction>
0.0907

> <Gold.Rescore>
     Score         DG    S(hbond)    S(metal)    S(lipo)     H(rot)  DE(clash)    DE(int)     intcor
     16.07     -18.66       3.25        0.00      71.41       2.36       0.00       2.59       ----

> <Gold.Chemscore.Fitness>
16.0651

> <Gold.Chemscore.DG>
-18.6626

> <Gold.Chemscore.ZeroCoef>
-5.4800

> <Gold.Chemscore.Hbond>
3.2517

> <Gold.Chemscore.Metal>
0.0000

> <Gold.Chemscore.Lipo>
71.4149

> <Gold.Chemscore.Internal_Hbond>
0.0000

> <Gold.Chemscore.DEClash>
0.0043

> <Gold.Chemscore.DEInternal>
2.5932

> <Gold.Chemscore.Rot>
2.3569

> <Gold.Chemscore.Internal.Correction>
   9.000000E+99

> <Gold.Chemscore.Hbonds>
donor molecule, donor type, donor heavy atom, donor atom, acceptor molecule, acceptor atom, score
      L1  H     8    27       P1  7957  0.02
      L1  H    11    31       P1  7948  0.79
      L1  H    13    47       P1  7948  0.84
      P1  H  7954  7966       L1    11  0.29
      P1  H  7997  8009       L1    21  0.92

> <Gold.Chemscore.Hbond.Weighted>
-10.8607

> <Gold.Chemscore.Metal.Weighted>
-0.0000

> <Gold.Chemscore.Lipo.Weighted>
-8.3555

> <Gold.Chemscore.Internal_Hbond.Weighted>
0.0000

> <Gold.Chemscore.DEClash.Weighted>
0.0043

> <Gold.Chemscore.DEInternal.Weighted>
2.5932

> <Gold.Chemscore.Rot.Weighted>
6.0337

> <Gold.Chemscore.Internal.Correction.Weighted>
   9.000000E+99

> <Gold.Protein.RotatedTorsions>
[ 6907 6896 6895 6894 ] final  -75.88 input  -60.11 | X-H torsion
[ 7974 7965 7964 7962 ] final   37.77 input  175.53 | X-H torsion
[ 8008 7997 7996 7995 ] final  167.07 input   59.86 | X-H torsion
[ 10167 10162 10161 10158 ] final   94.00 input  -65.29 | X-H torsion
[ 10718 10713 10712 10709 ] final  104.49 input   66.30 | X-H torsion
[ 10763 10752 10751 10750 ] final -107.60 input  -60.55 | X-H torsion
[ 11005 11000 10999 10996 ] final  129.39 input  -57.11 | X-H torsion

> <Gold.Protein.ActiveResidues>
 VAL166  LYS551  ARG553  GLY616  TRP617  ASP618  TYR619  PRO620  LYS621  CYS622 
 ASP623  PHE694  ASN695  SER759  ASP760  ASP761  ALA762  ILE779  LEU786  VAL792 
 PHE793  MET794  SER795  GLU796  ALA797  LYS798  CYS799  TRP800  GLU811  SER814 

> <Gold.Protein.RotatedAtoms>
  150.7044  134.4655  159.5400 H   0  0  0  0  0  0  0  0  0  0  0  0  # atno 6907 bound_to 6896
  152.2321  134.8309  160.0481 H   0  0  0  0  0  0  0  0  0  0  0  0  # atno 6908 bound_to 6896
  151.9121  133.3529  159.3904 H   0  0  0  0  0  0  0  0  0  0  0  0  # atno 6909 bound_to 6896
  146.1112  139.5853  142.9351 H   0  0  0  0  0  0  0  0  0  0  0  0  # atno 7974 bound_to 7965
  156.1665  140.1626  156.8522 H   0  0  0  0  0  0  0  0  0  0  0  0  # atno 8008 bound_to 7997
  154.5213  140.0777  156.8211 H   0  0  0  0  0  0  0  0  0  0  0  0  # atno 8009 bound_to 7997
  155.3601  140.3395  155.4243 H   0  0  0  0  0  0  0  0  0  0  0  0  # atno 8010 bound_to 7997
  139.8125  144.6767  150.9622 H   0  0  0  0  0  0  0  0  0  0  0  0  # atno 10167 bound_to 10162
  157.6738  131.0805  150.5714 H   0  0  0  0  0  0  0  0  0  0  0  0  # atno 10718 bound_to 10713
  154.8085  135.4669  154.0454 H   0  0  0  0  0  0  0  0  0  0  0  0  # atno 10763 bound_to 10752
  153.1904  135.6854  153.8367 H   0  0  0  0  0  0  0  0  0  0  0  0  # atno 10764 bound_to 10752
  153.7887  135.3246  155.3353 H   0  0  0  0  0  0  0  0  0  0  0  0  # atno 10765 bound_to 10752
  139.9613  134.9601  156.9141 H   0  0  0  0  0  0  0  0  0  0  0  0  # atno 11005 bound_to 11000
  145.5659  141.0399  143.2201 LP  0  0  0  0  0  0  0  0  0  0  0  0  # atno 17320 bound_to 7965
  144.7513  139.7186  143.7272 LP  0  0  0  0  0  0  0  0  0  0  0  0  # atno 17321 bound_to 7965
  140.7817  143.4171  151.0900 LP  0  0  0  0  0  0  0  0  0  0  0  0  # atno 17342 bound_to 10162
  139.7836  143.8319  152.3141 LP  0  0  0  0  0  0  0  0  0  0  0  0  # atno 17343 bound_to 10162
  156.6016  130.4356  149.5895 LP  0  0  0  0  0  0  0  0  0  0  0  0  # atno 17370 bound_to 10713
  156.2502  130.6902  151.1638 LP  0  0  0  0  0  0  0  0  0  0  0  0  # atno 17371 bound_to 10713
  140.5495  134.0641  155.7365 LP  0  0  0  0  0  0  0  0  0  0  0  0  # atno 17394 bound_to 11000
  141.1290  133.9334  157.2576 LP  0  0  0  0  0  0  0  0  0  0  0  0  # atno 17395 bound_to 11000

$$$$
