AV-unprocessed.smi:1209|AV-procd|sdf|5073|dock1
  -GOLD-   22720 4123D 1   1.00000     0.00000
 Structure written by MMmdl.
 49 51  0  0  0  0  0  0  0  0  2 V2000
  144.6087  135.2351  150.7284 C   0  0  0  0  0  0  0  0  0  0  0  0
  145.2417  136.2460  151.6222 C   0  0  0  0  0  0  0  0  0  0  0  0
  146.0459  137.3244  151.3862 C   0  0  0  0  0  0  0  0  0  0  0  0
  146.2884  137.8529  152.6840 C   0  0  0  0  0  0  0  0  0  0  0  0
  147.1192  139.0493  153.0608 C   0  0  0  0  0  0  0  0  0  0  0  0
  146.3020  140.1159  153.6955 N   0  3  1  0  0  0  0  0  0  0  0  0
  145.6546  139.6669  154.9540 C   0  0  0  0  0  0  0  0  0  0  0  0
  147.0595  141.3851  153.8607 C   0  0  0  0  0  0  0  0  0  0  0  0
  147.9527  141.3812  155.1176 C   0  0  2  0  0  0  0  0  0  0  0  0
  147.4949  142.3867  156.0024 O   0  0  0  0  0  0  0  0  0  0  0  0
  149.4327  141.6365  154.7702 C   0  0  0  0  0  0  0  0  0  0  0  0
  150.3399  141.0650  155.7497 N   0  0  0  0  0  0  0  0  0  0  0  0
  150.7885  139.7958  155.7924 C   0  0  0  0  0  0  0  0  0  0  0  0
  151.6128  139.4741  156.7847 N   0  0  0  0  0  0  0  0  0  0  0  0
  151.7126  140.6755  157.4653 C   0  0  0  0  0  0  0  0  0  0  0  0
  152.4394  141.0125  158.6280 C   0  0  0  0  0  0  0  0  0  0  0  0
  152.3928  142.3215  159.1580 C   0  0  0  0  0  0  0  0  0  0  0  0
  153.1868  142.6382  160.4131 C   0  0  0  0  0  0  0  0  0  0  0  0
  151.6119  143.3188  158.5203 C   0  0  0  0  0  0  0  0  0  0  0  0
  151.5483  144.7322  159.0713 C   0  0  0  0  0  0  0  0  0  0  0  0
  150.8792  142.9992  157.3580 C   0  0  0  0  0  0  0  0  0  0  0  0
  150.9312  141.6920  156.8418 C   0  0  0  0  0  0  0  0  0  0  0  0
  145.6819  137.1453  153.6232 N   0  0  0  0  0  0  0  0  0  0  0  0
  145.0065  136.1192  152.9536 O   0  0  0  0  0  0  0  0  0  0  0  0
  145.0111  135.3026  149.7174 H   0  0  0  0  0  0  0  0  0  0  0  0
  143.5307  135.3881  150.6744 H   0  0  0  0  0  0  0  0  0  0  0  0
  144.7899  134.2250  151.0962 H   0  0  0  0  0  0  0  0  0  0  0  0
  146.4067  137.6782  150.4316 H   0  0  0  0  0  0  0  0  0  0  0  0
  147.9372  138.7685  153.7268 H   0  0  0  0  0  0  0  0  0  0  0  0
  147.5853  139.4363  152.1538 H   0  0  0  0  0  0  0  0  0  0  0  0
  146.4013  139.3735  155.6930 H   0  0  0  0  0  0  0  0  0  0  0  0
  144.9986  138.8144  154.7790 H   0  0  0  0  0  0  0  0  0  0  0  0
  145.0381  140.4504  155.3924 H   0  0  0  0  0  0  0  0  0  0  0  0
  147.6565  141.5650  152.9653 H   0  0  0  0  0  0  0  0  0  0  0  0
  146.3721  142.2289  153.9380 H   0  0  0  0  0  0  0  0  0  0  0  0
  147.8808  140.4230  155.6311 H   0  0  0  0  0  0  0  0  0  0  0  0
  148.0773  143.1292  155.9473 H   0  0  0  0  0  0  0  0  0  0  0  0
  149.6695  141.2051  153.7966 H   0  0  0  0  0  0  0  0  0  0  0  0
  149.6317  142.7061  154.6914 H   0  0  0  0  0  0  0  0  0  0  0  0
  150.4907  139.0654  155.0543 H   0  0  0  0  0  0  0  0  0  0  0  0
  153.0347  140.2527  159.1127 H   0  0  0  0  0  0  0  0  0  0  0  0
  153.9412  143.3975  160.2064 H   0  0  0  0  0  0  0  0  0  0  0  0
  153.6976  141.7538  160.7947 H   0  0  0  0  0  0  0  0  0  0  0  0
  152.5288  143.0081  161.1993 H   0  0  0  0  0  0  0  0  0  0  0  0
  150.9406  145.3794  158.4384 H   0  0  0  0  0  0  0  0  0  0  0  0
  152.5471  145.1656  159.1296 H   0  0  0  0  0  0  0  0  0  0  0  0
  151.1108  144.7328  160.0698 H   0  0  0  0  0  0  0  0  0  0  0  0
  150.2791  143.7495  156.8654 H   0  0  0  0  0  0  0  0  0  0  0  0
  145.5613  140.3220  153.0397 H   0  0  0  0  0  0  0  0  0  0  0  0
  1  2  1  0  0  0  0
  1 25  1  0  0  0  0
  1 26  1  0  0  0  0
  1 27  1  0  0  0  0
  2 24  1  0  0  0  0
  2  3  2  0  0  0  0
  3  4  1  0  0  0  0
  3 28  1  0  0  0  0
  4  5  1  0  0  0  0
  4 23  2  0  0  0  0
  5  6  1  0  0  0  0
  5 29  1  0  0  0  0
  5 30  1  0  0  0  0
  6  7  1  0  0  0  0
  6  8  1  0  0  0  0
  6 49  1  0  0  0  0
  7 31  1  0  0  0  0
  7 32  1  0  0  0  0
  7 33  1  0  0  0  0
  8  9  1  0  0  0  0
  8 34  1  0  0  0  0
  8 35  1  0  0  0  0
  9 10  1  0  0  0  0
  9 11  1  0  0  0  0
  9 36  1  0  0  0  0
 10 37  1  0  0  0  0
 11 12  1  0  0  0  0
 11 38  1  0  0  0  0
 11 39  1  0  0  0  0
 12 22  1  0  0  0  0
 12 13  1  0  0  0  0
 13 14  2  0  0  0  0
 13 40  1  0  0  0  0
 14 15  1  0  0  0  0
 15 22  2  0  0  0  0
 15 16  1  0  0  0  0
 16 17  2  0  0  0  0
 16 41  1  0  0  0  0
 17 18  1  0  0  0  0
 17 19  1  0  0  0  0
 18 42  1  0  0  0  0
 18 43  1  0  0  0  0
 18 44  1  0  0  0  0
 19 20  1  0  0  0  0
 19 21  2  0  0  0  0
 20 45  1  0  0  0  0
 20 46  1  0  0  0  0
 20 47  1  0  0  0  0
 21 22  1  0  0  0  0
 21 48  1  0  0  0  0
 23 24  1  0  0  0  0
M  CHG  1   6   1
M  END
> <s_m_source_file>
AV-unprocessed.smi

> <i_m_source_file_index>
1209

> <i_lp_mmshare_version>
43012

> <i_f3d_flags>
0

> <s_epik_input>
W0NIM11jMVtjSF1jKG5vMSlbQ0gyXU4oW0NIM10pW0NIMl1bQ0BIXShbT0hdKVtDSDJdbihbY0hdbjIpYyhjMjMpW2NIXWMoW0NIM10pYyhbY0hdMylbQ0gzXQ==

> <s_epik_cmdline>
J2VwaWtfcHl0aG9uJywgJy1waCcsICc3LjAnLCAnLXRuJywgJzgnLCAnLW1hJywgJzIwMCcsICctbWV0YWxfYmluZGluZycsICctaW1hZScsICc8aW5maWxlLm1hZT4nLCAnLW9tYWUnLCAnPG91dGZpbGUubWFlPic=

> <r_epik_Ionization_Penalty>
2.05249

> <r_epik_Ionization_Penalty_Charging>
1.96618

> <r_epik_Ionization_Penalty_Neutral>
0.0863156

> <r_epik_State_Penalty>
2.19215

> <r_epik_Charging_Adjusted_Penalty>
4.15833

> <i_epik_Tot_Q>
1

> <i_epik_Tot_abs_Q>
1

> <r_epik_Metal_State_Penalty>
2.17654

> <b_epik_Metal_Only>
0

> <s_lp_Force_Field>
OPLS_2005

> <r_lp_Energy>
10.2768

> <b_lp_Chiralities_Consistent>
1

> <s_lp_Variant>
AV-unprocessed.smi:1209-5

> <Gold.Version>
5.8.1

> <Gold.Id.Protein>
6NUR|6NUR_protein|mol2

> <Gold.PLP.Fitness>
53.9698

> <Gold.PLP.PLP>
-47.8534

> <Gold.PLP.part.hbond>
-2.0000

> <Gold.PLP.part.metal>
0.0000

> <Gold.PLP.part.buried>
1.4913

> <Gold.PLP.part.nonpolar>
-46.9136

> <Gold.PLP.part.repulsive>
0.2618

> <Gold.PLP.ligand.clash>
0.0000

> <Gold.PLP.ligand.torsion>
1.5716

> <Gold.PLP.Chemscore.Hbond>
3.0000

> <Gold.PLP.Chemscore.CHOScore>
0.0000

> <Gold.PLP.Chemscore.Metal>
0.0000

> <Gold.Chemscore.Hbonds>
donor molecule, donor type, donor heavy atom, donor atom, acceptor molecule, acceptor atom, score
      L1  H     6    49       P1 10175  2.00
      L1  H    10    37       P1  8028  1.00

> <Gold.PLP.Chemscore.Internal.Correction>
0.2597

> <Gold.Rescore>
     Score         DG    S(hbond)    S(metal)    S(lipo)     H(rot)  DE(clash)    DE(int)     intcor
     17.22     -20.37       1.70        0.00     134.21       2.53       0.37       2.78       ----

> <Gold.Chemscore.Fitness>
17.2175

> <Gold.Chemscore.DG>
-20.3672

> <Gold.Chemscore.ZeroCoef>
-5.4800

> <Gold.Chemscore.Hbond>
1.6974

> <Gold.Chemscore.Metal>
0.0000

> <Gold.Chemscore.Lipo>
134.2137

> <Gold.Chemscore.Internal_Hbond>
0.0000

> <Gold.Chemscore.DEClash>
0.3672

> <Gold.Chemscore.DEInternal>
2.7825

> <Gold.Chemscore.Rot>
2.5332

> <Gold.Chemscore.Internal.Correction>
   9.000000E+99

> <Gold.Chemscore.Hbonds>
donor molecule, donor type, donor heavy atom, donor atom, acceptor molecule, acceptor atom, score
      L1  H     6    49       P1 10175  0.92
      L1  H    10    37       P1  8028  0.65

> <Gold.Chemscore.Hbond.Weighted>
-5.6693

> <Gold.Chemscore.Metal.Weighted>
-0.0000

> <Gold.Chemscore.Lipo.Weighted>
-15.7030

> <Gold.Chemscore.Internal_Hbond.Weighted>
0.0000

> <Gold.Chemscore.DEClash.Weighted>
0.3672

> <Gold.Chemscore.DEInternal.Weighted>
2.7825

> <Gold.Chemscore.Rot.Weighted>
6.4851

> <Gold.Chemscore.Internal.Correction.Weighted>
   9.000000E+99

> <Gold.Protein.RotatedTorsions>
[ 6907 6896 6895 6894 ] final -177.49 input  -60.11 | X-H torsion
[ 7974 7965 7964 7962 ] final  174.23 input  175.53 | X-H torsion
[ 8008 7997 7996 7995 ] final  -41.71 input   59.86 | X-H torsion
[ 10167 10162 10161 10158 ] final   35.44 input  -65.29 | X-H torsion
[ 10718 10713 10712 10709 ] final  107.68 input   66.30 | X-H torsion
[ 10763 10752 10751 10750 ] final   34.24 input  -60.55 | X-H torsion
[ 11005 11000 10999 10996 ] final  -81.52 input  -57.11 | X-H torsion

> <Gold.Protein.ActiveResidues>
 VAL166  LYS551  ARG553  GLY616  TRP617  ASP618  TYR619  PRO620  LYS621  CYS622 
 ASP623  PHE694  ASN695  SER759  ASP760  ASP761  ALA762  ILE779  LEU786  VAL792 
 PHE793  MET794  SER795  GLU796  ALA797  LYS798  CYS799  TRP800  GLU811  SER814 

> <Gold.Protein.RotatedAtoms>
  151.6218  133.3338  159.3089 H   0  0  0  0  0  0  0  0  0  0  0  0  # atno 6907 bound_to 6896
  150.8102  134.7256  159.6692 H   0  0  0  0  0  0  0  0  0  0  0  0  # atno 6908 bound_to 6896
  152.4198  134.5980  160.0044 H   0  0  0  0  0  0  0  0  0  0  0  0  # atno 6909 bound_to 6896
  144.7226  139.9766  143.6438 H   0  0  0  0  0  0  0  0  0  0  0  0  # atno 7974 bound_to 7965
  154.4002  140.1492  156.3235 H   0  0  0  0  0  0  0  0  0  0  0  0  # atno 8008 bound_to 7997
  155.8508  140.3458  155.5671 H   0  0  0  0  0  0  0  0  0  0  0  0  # atno 8009 bound_to 7997
  155.7986  140.0867  157.1960 H   0  0  0  0  0  0  0  0  0  0  0  0  # atno 8010 bound_to 7997
  140.4222  144.1444  150.6149 H   0  0  0  0  0  0  0  0  0  0  0  0  # atno 10167 bound_to 10162
  157.6618  131.0878  150.6192 H   0  0  0  0  0  0  0  0  0  0  0  0  # atno 10718 bound_to 10713
  153.0173  135.6365  154.1638 H   0  0  0  0  0  0  0  0  0  0  0  0  # atno 10763 bound_to 10752
  154.1376  135.2836  155.3171 H   0  0  0  0  0  0  0  0  0  0  0  0  # atno 10764 bound_to 10752
  154.6148  135.5544  153.7573 H   0  0  0  0  0  0  0  0  0  0  0  0  # atno 10765 bound_to 10752
  141.1666  133.7200  156.8435 H   0  0  0  0  0  0  0  0  0  0  0  0  # atno 11005 bound_to 11000
  146.0521  139.3521  143.0633 LP  0  0  0  0  0  0  0  0  0  0  0  0  # atno 17320 bound_to 7965
  145.8202  140.9683  143.0903 LP  0  0  0  0  0  0  0  0  0  0  0  0  # atno 17321 bound_to 7965
  140.4521  143.2482  151.9333 LP  0  0  0  0  0  0  0  0  0  0  0  0  # atno 17342 bound_to 10162
  139.4783  144.5551  151.8325 LP  0  0  0  0  0  0  0  0  0  0  0  0  # atno 17343 bound_to 10162
  156.6495  130.4481  149.5724 LP  0  0  0  0  0  0  0  0  0  0  0  0  # atno 17370 bound_to 10713
  156.2148  130.6701  151.1308 LP  0  0  0  0  0  0  0  0  0  0  0  0  # atno 17371 bound_to 10713
  140.1966  134.8927  157.3121 LP  0  0  0  0  0  0  0  0  0  0  0  0  # atno 17394 bound_to 11000
  140.2232  134.3998  155.7556 LP  0  0  0  0  0  0  0  0  0  0  0  0  # atno 17395 bound_to 11000

$$$$
