AV-unprocessed.smi:2271|AV-procd|sdf|9161|dock3
  -GOLD-   2272012373D 1   1.00000     0.00000
 Structure written by MMmdl.
 46 47  0  0  0  0  0  0  0  0  2 V2000
  153.4689  141.1053  160.2410 C   0  0  0  0  0  0  0  0  0  0  0  0
  152.7442  142.2855  159.6291 C   0  0  0  0  0  0  0  0  0  0  0  0
  152.8948  143.5824  160.1578 C   0  0  0  0  0  0  0  0  0  0  0  0
  152.1955  144.6350  159.5407 C   0  0  0  0  0  0  0  0  0  0  0  0
  151.3807  144.3498  158.4283 C   0  0  0  0  0  0  0  0  0  0  0  0
  151.2837  143.0199  157.9607 C   0  0  0  0  0  0  0  0  0  0  0  0
  150.4395  142.8371  156.8331 N   0  0  0  0  0  0  0  0  0  0  0  0
  150.1490  141.6917  156.1916 C   0  0  0  0  0  0  0  0  0  0  0  0
  150.5616  140.5747  156.5060 O   0  0  0  0  0  0  0  0  0  0  0  0
  149.3463  141.9128  155.1397 N   0  0  0  0  0  0  0  0  0  0  0  0
  148.8426  140.8876  154.2295 C   0  0  0  0  0  0  0  0  0  0  0  0
  147.4527  141.2415  153.6480 C   0  0  2  0  0  0  0  0  0  0  0  0
  146.3237  141.0137  154.6704 C   0  0  0  0  0  0  0  0  0  0  0  0
  146.0190  139.5186  154.8817 C   0  0  0  0  0  0  0  0  0  0  0  0
  145.6995  138.8413  153.5984 N   0  3  2  0  0  0  0  0  0  0  0  0
  145.2907  137.4272  153.7983 C   0  0  0  0  0  0  0  0  0  0  0  0
  144.4473  136.8801  152.6335 C   0  0  0  0  0  0  0  0  0  0  0  0
  143.4138  137.7879  152.3152 O   0  0  0  0  0  0  0  0  0  0  0  0
  146.7925  139.0041  152.6039 C   0  0  0  0  0  0  0  0  0  0  0  0
  147.0904  140.4918  152.3492 C   0  0  0  0  0  0  0  0  0  0  0  0
  151.9632  142.0116  158.5620 N   0  0  0  0  0  0  0  0  0  0  0  0
  153.9699  141.3863  161.1677 H   0  0  0  0  0  0  0  0  0  0  0  0
  154.2197  140.7234  159.5490 H   0  0  0  0  0  0  0  0  0  0  0  0
  152.7670  140.3015  160.4655 H   0  0  0  0  0  0  0  0  0  0  0  0
  153.5287  143.7690  161.0122 H   0  0  0  0  0  0  0  0  0  0  0  0
  152.2825  145.6448  159.9134 H   0  0  0  0  0  0  0  0  0  0  0  0
  150.8379  145.1476  157.9422 H   0  0  0  0  0  0  0  0  0  0  0  0
  150.0169  143.6776  156.4676 H   0  0  0  0  0  0  0  0  0  0  0  0
  149.0566  142.8625  154.9561 H   0  0  0  0  0  0  0  0  0  0  0  0
  149.5649  140.6876  153.4373 H   0  0  0  0  0  0  0  0  0  0  0  0
  148.7693  139.9619  154.8008 H   0  0  0  0  0  0  0  0  0  0  0  0
  147.4726  142.3075  153.4167 H   0  0  0  0  0  0  0  0  0  0  0  0
  146.5747  141.4828  155.6223 H   0  0  0  0  0  0  0  0  0  0  0  0
  145.4185  141.5116  154.3198 H   0  0  0  0  0  0  0  0  0  0  0  0
  146.8614  139.0181  155.3607 H   0  0  0  0  0  0  0  0  0  0  0  0
  145.1725  139.4250  155.5630 H   0  0  0  0  0  0  0  0  0  0  0  0
  146.1788  136.8110  153.9456 H   0  0  0  0  0  0  0  0  0  0  0  0
  144.7042  137.3384  154.7141 H   0  0  0  0  0  0  0  0  0  0  0  0
  145.0462  136.6772  151.7466 H   0  0  0  0  0  0  0  0  0  0  0  0
  143.9903  135.9338  152.9247 H   0  0  0  0  0  0  0  0  0  0  0  0
  143.4829  138.0146  151.3997 H   0  0  0  0  0  0  0  0  0  0  0  0
  147.6870  138.4880  152.9542 H   0  0  0  0  0  0  0  0  0  0  0  0
  146.5173  138.5398  151.6581 H   0  0  0  0  0  0  0  0  0  0  0  0
  146.2066  140.9543  151.9075 H   0  0  0  0  0  0  0  0  0  0  0  0
  147.8762  140.5961  151.6020 H   0  0  0  0  0  0  0  0  0  0  0  0
  144.8894  139.3160  153.2253 H   0  0  0  0  0  0  0  0  0  0  0  0
  1  2  1  0  0  0  0
  1 22  1  0  0  0  0
  1 23  1  0  0  0  0
  1 24  1  0  0  0  0
  2 21  1  0  0  0  0
  2  3  2  0  0  0  0
  3  4  1  0  0  0  0
  3 25  1  0  0  0  0
  4  5  2  0  0  0  0
  4 26  1  0  0  0  0
  5  6  1  0  0  0  0
  5 27  1  0  0  0  0
  6  7  1  0  0  0  0
  6 21  2  0  0  0  0
  7  8  1  0  0  0  0
  7 28  1  0  0  0  0
  8  9  2  0  0  0  0
  8 10  1  0  0  0  0
 10 11  1  0  0  0  0
 10 29  1  0  0  0  0
 11 12  1  0  0  0  0
 11 30  1  0  0  0  0
 11 31  1  0  0  0  0
 12 20  1  0  0  0  0
 12 13  1  0  0  0  0
 12 32  1  0  0  0  0
 13 14  1  0  0  0  0
 13 33  1  0  0  0  0
 13 34  1  0  0  0  0
 14 15  1  0  0  0  0
 14 35  1  0  0  0  0
 14 36  1  0  0  0  0
 15 16  1  0  0  0  0
 15 19  1  0  0  0  0
 15 46  1  0  0  0  0
 16 17  1  0  0  0  0
 16 37  1  0  0  0  0
 16 38  1  0  0  0  0
 17 18  1  0  0  0  0
 17 39  1  0  0  0  0
 17 40  1  0  0  0  0
 18 41  1  0  0  0  0
 19 20  1  0  0  0  0
 19 42  1  0  0  0  0
 19 43  1  0  0  0  0
 20 44  1  0  0  0  0
 20 45  1  0  0  0  0
M  CHG  1  15   1
M  END
> <s_m_source_file>
AV-unprocessed.smi

> <i_m_source_file_index>
2271

> <i_lp_mmshare_version>
43012

> <i_f3d_flags>
0

> <s_epik_input>
W0NIM11jMVtjSF1bY0hdW2NIXWMobjEpW05IXUMoPU8pW05IXVtDSDJdW0NIXTJbQ0gyXVtDSDJdTihbQ0gyXVtDSDJdMilbQ0gyXVtDSDJdW09IXQ==

> <s_epik_cmdline>
J2VwaWtfcHl0aG9uJywgJy1waCcsICc3LjAnLCAnLXRuJywgJzgnLCAnLW1hJywgJzIwMCcsICctbWV0YWxfYmluZGluZycsICctaW1hZScsICc8aW5maWxlLm1hZT4nLCAnLW9tYWUnLCAnPG91dGZpbGUubWFlPic=

> <r_epik_Ionization_Penalty>
0.00184663

> <r_epik_Ionization_Penalty_Charging>
0.00177223

> <r_epik_Ionization_Penalty_Neutral>
7.44064e-05

> <r_epik_State_Penalty>
0.00120075

> <r_epik_Charging_Adjusted_Penalty>
0.00297297

> <i_epik_Tot_Q>
1

> <i_epik_Tot_abs_Q>
1

> <r_epik_Metal_State_Penalty>
-0

> <b_epik_Metal_Only>
0

> <s_lp_Force_Field>
OPLS_2005

> <r_lp_Energy>
20.3482

> <b_lp_Chiralities_Consistent>
1

> <s_lp_Variant>
AV-unprocessed.smi:2271-2

> <Gold.Version>
5.8.1

> <Gold.Id.Protein>
6NUR|6NUR_protein|mol2

> <Gold.PLP.Fitness>
58.3157

> <Gold.PLP.PLP>
-44.4433

> <Gold.PLP.part.hbond>
-5.0000

> <Gold.PLP.part.metal>
0.0000

> <Gold.PLP.part.buried>
-4.6152

> <Gold.PLP.part.nonpolar>
-35.8849

> <Gold.PLP.part.repulsive>
0.2551

> <Gold.PLP.ligand.clash>
0.0000

> <Gold.PLP.ligand.torsion>
0.5553

> <Gold.PLP.Chemscore.Hbond>
4.9600

> <Gold.PLP.Chemscore.CHOScore>
0.0000

> <Gold.PLP.Chemscore.Metal>
0.0000

> <Gold.Chemscore.Hbonds>
donor molecule, donor type, donor heavy atom, donor atom, acceptor molecule, acceptor atom, score
      L1  H     7    28       P1  8028  1.00
      L1  H    10    29       P1  8028  0.96
      L1  H    15    46       P1 10175  2.00
      L1  H    18    41       P1 10171  1.00

> <Gold.PLP.Chemscore.Internal.Correction>
0.1030

> <Gold.Rescore>
     Score         DG    S(hbond)    S(metal)    S(lipo)     H(rot)  DE(clash)    DE(int)     intcor
     21.59     -24.83       3.92        0.00     105.87       2.39       1.46       1.78       ----

> <Gold.Chemscore.Fitness>
21.5900

> <Gold.Chemscore.DG>
-24.8315

> <Gold.Chemscore.ZeroCoef>
-5.4800

> <Gold.Chemscore.Hbond>
3.9197

> <Gold.Chemscore.Metal>
0.0000

> <Gold.Chemscore.Lipo>
105.8737

> <Gold.Chemscore.Internal_Hbond>
0.0000

> <Gold.Chemscore.DEClash>
1.4573

> <Gold.Chemscore.DEInternal>
1.7842

> <Gold.Chemscore.Rot>
2.3935

> <Gold.Chemscore.Internal.Correction>
   9.000000E+99

> <Gold.Chemscore.Hbonds>
donor molecule, donor type, donor heavy atom, donor atom, acceptor molecule, acceptor atom, score
      L1  H     7    28       P1  8028  1.00
      L1  H    10    29       P1  8028  0.90
      L1  H    15    46       P1 10175  1.00
      L1  H    18    41       P1 10171  0.85

> <Gold.Chemscore.Hbond.Weighted>
-13.0917

> <Gold.Chemscore.Metal.Weighted>
-0.0000

> <Gold.Chemscore.Lipo.Weighted>
-12.3872

> <Gold.Chemscore.Internal_Hbond.Weighted>
0.0000

> <Gold.Chemscore.DEClash.Weighted>
1.4573

> <Gold.Chemscore.DEInternal.Weighted>
1.7842

> <Gold.Chemscore.Rot.Weighted>
6.1274

> <Gold.Chemscore.Internal.Correction.Weighted>
   9.000000E+99

> <Gold.Protein.RotatedTorsions>
[ 6907 6896 6895 6894 ] final  173.09 input  -60.11 | X-H torsion
[ 7974 7965 7964 7962 ] final -141.30 input  175.53 | X-H torsion
[ 8008 7997 7996 7995 ] final  122.29 input   59.86 | X-H torsion
[ 10167 10162 10161 10158 ] final    5.53 input  -65.29 | X-H torsion
[ 10718 10713 10712 10709 ] final   55.72 input   66.30 | X-H torsion
[ 10763 10752 10751 10750 ] final  154.22 input  -60.55 | X-H torsion
[ 11005 11000 10999 10996 ] final  -12.45 input  -57.11 | X-H torsion

> <Gold.Protein.ActiveResidues>
 VAL166  LYS551  ARG553  GLY616  TRP617  ASP618  TYR619  PRO620  LYS621  CYS622 
 ASP623  PHE694  ASN695  SER759  ASP760  ASP761  ALA762  ILE779  LEU786  VAL792 
 PHE793  MET794  SER795  GLU796  ALA797  LYS798  CYS799  TRP800  GLU811  SER814 

> <Gold.Protein.RotatedAtoms>
  151.7739  133.3343  159.3451 H   0  0  0  0  0  0  0  0  0  0  0  0  # atno 6907 bound_to 6896
  150.7451  134.5993  159.6037 H   0  0  0  0  0  0  0  0  0  0  0  0  # atno 6908 bound_to 6896
  152.3322  134.7246  160.0338 H   0  0  0  0  0  0  0  0  0  0  0  0  # atno 6909 bound_to 6896
  144.8530  140.6096  143.5378 H   0  0  0  0  0  0  0  0  0  0  0  0  # atno 7974 bound_to 7965
  156.2721  140.2789  156.1443 H   0  0  0  0  0  0  0  0  0  0  0  0  # atno 8008 bound_to 7997
  155.0920  140.0388  157.2689 H   0  0  0  0  0  0  0  0  0  0  0  0  # atno 8009 bound_to 7997
  154.6882  140.2623  155.6845 H   0  0  0  0  0  0  0  0  0  0  0  0  # atno 8010 bound_to 7997
  140.6477  143.7621  150.7525 H   0  0  0  0  0  0  0  0  0  0  0  0  # atno 10167 bound_to 10162
  157.5369  130.8670  149.8767 H   0  0  0  0  0  0  0  0  0  0  0  0  # atno 10718 bound_to 10713
  154.1488  135.2816  155.3141 H   0  0  0  0  0  0  0  0  0  0  0  0  # atno 10763 bound_to 10752
  154.6233  135.5460  153.7602 H   0  0  0  0  0  0  0  0  0  0  0  0  # atno 10764 bound_to 10752
  153.0227  135.6444  154.1633 H   0  0  0  0  0  0  0  0  0  0  0  0  # atno 10765 bound_to 10752
  140.7659  133.8478  155.9164 H   0  0  0  0  0  0  0  0  0  0  0  0  # atno 11005 bound_to 11000
  145.4462  139.1529  143.3943 LP  0  0  0  0  0  0  0  0  0  0  0  0  # atno 17320 bound_to 7965
  146.2800  140.4586  142.8780 LP  0  0  0  0  0  0  0  0  0  0  0  0  # atno 17321 bound_to 7965
  140.1266  143.4564  152.2280 LP  0  0  0  0  0  0  0  0  0  0  0  0  # atno 17342 bound_to 10162
  139.5689  144.7451  151.3945 LP  0  0  0  0  0  0  0  0  0  0  0  0  # atno 17343 bound_to 10162
  156.0466  130.3726  150.1303 LP  0  0  0  0  0  0  0  0  0  0  0  0  # atno 17370 bound_to 10713
  156.9485  130.9767  151.3503 LP  0  0  0  0  0  0  0  0  0  0  0  0  # atno 17371 bound_to 10713
  140.9620  134.1643  157.4646 LP  0  0  0  0  0  0  0  0  0  0  0  0  # atno 17394 bound_to 11000
  139.8763  134.9948  156.5711 LP  0  0  0  0  0  0  0  0  0  0  0  0  # atno 17395 bound_to 11000

$$$$
