AV-unprocessed.smi:1288|AV-procd|sdf|5383|dock4
  -GOLD-   22720 4533D 1   1.00000     0.00000
 Structure written by MMmdl.
 43 45  0  0  0  0  0  0  0  0  2 V2000
  148.6835  141.6961  156.2243 C   0  0  0  0  0  0  0  0  0  0  0  0
  149.7690  141.8154  157.2409 C   0  0  0  0  0  0  0  0  0  0  0  0
  150.4344  142.9573  157.5735 N   0  3  0  0  0  0  0  0  0  0  0  0
  151.3790  142.6821  158.5633 C   0  0  0  0  0  0  0  0  0  0  0  0
  152.2846  143.5142  159.2144 C   0  0  0  0  0  0  0  0  0  0  0  0
  153.1111  142.9130  160.1861 C   0  0  0  0  0  0  0  0  0  0  0  0
  153.0186  141.5369  160.4787 C   0  0  0  0  0  0  0  0  0  0  0  0
  152.0983  140.7030  159.8102 C   0  0  0  0  0  0  0  0  0  0  0  0
  151.2856  141.3041  158.8487 C   0  0  0  0  0  0  0  0  0  0  0  0
  150.2826  140.8098  158.0053 N   0  0  0  0  0  0  0  0  0  0  0  0
  149.9356  139.3795  158.0416 C   0  0  0  0  0  0  0  0  0  0  0  0
  151.1565  138.4556  157.8602 C   0  0  2  0  0  0  0  0  0  0  0  0
  151.8964  138.8720  156.7297 O   0  0  0  0  0  0  0  0  0  0  0  0
  150.7367  136.9927  157.6495 C   0  0  0  0  0  0  0  0  0  0  0  0
  149.9885  136.5599  158.7734 O   0  0  0  0  0  0  0  0  0  0  0  0
  148.6855  136.1191  158.4301 C   0  0  0  0  0  0  0  0  0  0  0  0
  148.0389  135.3683  159.5773 C   0  0  0  0  0  0  0  0  0  0  0  0
  147.7938  136.0230  160.8030 C   0  0  0  0  0  0  0  0  0  0  0  0
  147.1897  135.3278  161.8688 C   0  0  0  0  0  0  0  0  0  0  0  0
  146.8285  133.9758  161.7133 C   0  0  0  0  0  0  0  0  0  0  0  0
  147.0710  133.3191  160.4912 C   0  0  0  0  0  0  0  0  0  0  0  0
  147.6744  134.0129  159.4239 C   0  0  0  0  0  0  0  0  0  0  0  0
  147.9012  133.3731  158.2513 F   0  0  0  0  0  0  0  0  0  0  0  0
  148.4216  142.6767  155.8260 H   0  0  0  0  0  0  0  0  0  0  0  0
  147.7926  141.2559  156.6726 H   0  0  0  0  0  0  0  0  0  0  0  0
  149.0091  141.0620  155.3994 H   0  0  0  0  0  0  0  0  0  0  0  0
  152.3559  144.5691  158.9936 H   0  0  0  0  0  0  0  0  0  0  0  0
  153.8286  143.5201  160.7192 H   0  0  0  0  0  0  0  0  0  0  0  0
  153.6653  141.1116  161.2326 H   0  0  0  0  0  0  0  0  0  0  0  0
  152.0318  139.6518  160.0479 H   0  0  0  0  0  0  0  0  0  0  0  0
  149.4680  139.1884  159.0082 H   0  0  0  0  0  0  0  0  0  0  0  0
  149.1701  139.1743  157.2931 H   0  0  0  0  0  0  0  0  0  0  0  0
  151.7918  138.5302  158.7435 H   0  0  0  0  0  0  0  0  0  0  0  0
  152.0070  138.1278  156.1573 H   0  0  0  0  0  0  0  0  0  0  0  0
  150.1005  136.9175  156.7661 H   0  0  0  0  0  0  0  0  0  0  0  0
  151.6049  136.3539  157.4774 H   0  0  0  0  0  0  0  0  0  0  0  0
  148.0576  136.9722  158.1676 H   0  0  0  0  0  0  0  0  0  0  0  0
  148.7305  135.4744  157.5506 H   0  0  0  0  0  0  0  0  0  0  0  0
  148.0663  137.0607  160.9295 H   0  0  0  0  0  0  0  0  0  0  0  0
  147.0025  135.8324  162.8053 H   0  0  0  0  0  0  0  0  0  0  0  0
  146.3653  133.4427  162.5303 H   0  0  0  0  0  0  0  0  0  0  0  0
  146.7928  132.2825  160.3720 H   0  0  0  0  0  0  0  0  0  0  0  0
  150.2535  143.8597  157.1528 H   0  0  0  0  0  0  0  0  0  0  0  0
  1  2  1  0  0  0  0
  1 24  1  0  0  0  0
  1 25  1  0  0  0  0
  1 26  1  0  0  0  0
  2 10  1  0  0  0  0
  2  3  2  0  0  0  0
  3  4  1  0  0  0  0
  3 43  1  0  0  0  0
  4  9  2  0  0  0  0
  4  5  1  0  0  0  0
  5  6  2  0  0  0  0
  5 27  1  0  0  0  0
  6  7  1  0  0  0  0
  6 28  1  0  0  0  0
  7  8  2  0  0  0  0
  7 29  1  0  0  0  0
  8  9  1  0  0  0  0
  8 30  1  0  0  0  0
  9 10  1  0  0  0  0
 10 11  1  0  0  0  0
 11 12  1  0  0  0  0
 11 31  1  0  0  0  0
 11 32  1  0  0  0  0
 12 13  1  0  0  0  0
 12 14  1  0  0  0  0
 12 33  1  0  0  0  0
 13 34  1  0  0  0  0
 14 15  1  0  0  0  0
 14 35  1  0  0  0  0
 14 36  1  0  0  0  0
 15 16  1  0  0  0  0
 16 17  1  0  0  0  0
 16 37  1  0  0  0  0
 16 38  1  0  0  0  0
 17 22  1  0  0  0  0
 17 18  2  0  0  0  0
 18 19  1  0  0  0  0
 18 39  1  0  0  0  0
 19 20  2  0  0  0  0
 19 40  1  0  0  0  0
 20 21  1  0  0  0  0
 20 41  1  0  0  0  0
 21 22  2  0  0  0  0
 21 42  1  0  0  0  0
 22 23  1  0  0  0  0
M  CHG  1   3   1
M  END
> <s_m_source_file>
AV-unprocessed.smi

> <i_m_source_file_index>
1288

> <i_lp_mmshare_version>
43012

> <i_f3d_flags>
0

> <s_epik_input>
W2NIXTFbY0hdW2NIXVtjSF1jKGMxMiluKGMobjIpW0NIM10pW0NIMl1bQ0BIXShbT0hdKVtDSDJdT1tDSDJdYzNbY0hdW2NIXVtjSF1bY0hdYzNG

> <s_epik_cmdline>
J2VwaWtfcHl0aG9uJywgJy1waCcsICc3LjAnLCAnLXRuJywgJzgnLCAnLW1hJywgJzIwMCcsICctbWV0YWxfYmluZGluZycsICctaW1hZScsICc8aW5maWxlLm1hZT4nLCAnLW9tYWUnLCAnPG91dGZpbGUubWFlPic=

> <r_epik_Ionization_Penalty>
0.952

> <r_epik_Ionization_Penalty_Charging>
0.951999

> <r_epik_Ionization_Penalty_Neutral>
1.07667e-06

> <r_epik_State_Penalty>
0.996343

> <r_epik_Charging_Adjusted_Penalty>
1.94834

> <i_epik_Tot_Q>
1

> <i_epik_Tot_abs_Q>
1

> <r_epik_Metal_State_Penalty>
4.96724

> <b_epik_Metal_Only>
0

> <s_lp_Force_Field>
OPLS_2005

> <r_lp_Energy>
19.7378

> <b_lp_Chiralities_Consistent>
1

> <s_lp_Variant>
AV-unprocessed.smi:1288-3

> <Gold.Version>
5.8.1

> <Gold.Id.Protein>
6NUR|6NUR_protein|mol2

> <Gold.PLP.Fitness>
56.1486

> <Gold.PLP.PLP>
-48.0632

> <Gold.PLP.part.hbond>
-2.0000

> <Gold.PLP.part.metal>
0.0000

> <Gold.PLP.part.buried>
-5.3856

> <Gold.PLP.part.nonpolar>
-41.4273

> <Gold.PLP.part.repulsive>
0.0258

> <Gold.PLP.ligand.clash>
0.0000

> <Gold.PLP.ligand.torsion>
0.5229

> <Gold.PLP.Chemscore.Hbond>
3.0000

> <Gold.PLP.Chemscore.CHOScore>
0.0000

> <Gold.PLP.Chemscore.Metal>
0.0000

> <Gold.Chemscore.Hbonds>
donor molecule, donor type, donor heavy atom, donor atom, acceptor molecule, acceptor atom, score
      L1  H     3    43       P1  8028  0.97
      P1  H  6896  6909       L1    15  0.76

> <Gold.PLP.Chemscore.Internal.Correction>
0.1312

> <Gold.Rescore>
     Score         DG    S(hbond)    S(metal)    S(lipo)     H(rot)  DE(clash)    DE(int)     intcor
     17.59     -18.04       1.58        0.00     114.25       2.38       0.00       0.45       ----

> <Gold.Chemscore.Fitness>
17.5856

> <Gold.Chemscore.DG>
-18.0400

> <Gold.Chemscore.ZeroCoef>
-5.4800

> <Gold.Chemscore.Hbond>
1.5830

> <Gold.Chemscore.Metal>
0.0000

> <Gold.Chemscore.Lipo>
114.2533

> <Gold.Chemscore.Internal_Hbond>
0.0000

> <Gold.Chemscore.DEClash>
0.0015

> <Gold.Chemscore.DEInternal>
0.4529

> <Gold.Chemscore.Rot>
2.3809

> <Gold.Chemscore.Internal.Correction>
   9.000000E+99

> <Gold.Chemscore.Hbonds>
donor molecule, donor type, donor heavy atom, donor atom, acceptor molecule, acceptor atom, score
      L1  H     3    43       P1  8028  0.47
      P1  H  6896  6909       L1    15  0.43

> <Gold.Chemscore.Hbond.Weighted>
-5.2874

> <Gold.Chemscore.Metal.Weighted>
-0.0000

> <Gold.Chemscore.Lipo.Weighted>
-13.3676

> <Gold.Chemscore.Internal_Hbond.Weighted>
0.0000

> <Gold.Chemscore.DEClash.Weighted>
0.0015

> <Gold.Chemscore.DEInternal.Weighted>
0.4529

> <Gold.Chemscore.Rot.Weighted>
6.0951

> <Gold.Chemscore.Internal.Correction.Weighted>
   9.000000E+99

> <Gold.Protein.RotatedTorsions>
[ 6907 6896 6895 6894 ] final   88.92 input  -60.11 | X-H torsion
[ 7974 7965 7964 7962 ] final  -70.20 input  175.53 | X-H torsion
[ 8008 7997 7996 7995 ] final  -97.31 input   59.86 | X-H torsion
[ 10167 10162 10161 10158 ] final  126.97 input  -65.29 | X-H torsion
[ 10718 10713 10712 10709 ] final -103.77 input   66.30 | X-H torsion
[ 10763 10752 10751 10750 ] final  147.30 input  -60.55 | X-H torsion
[ 11005 11000 10999 10996 ] final -168.09 input  -57.11 | X-H torsion

> <Gold.Protein.ActiveResidues>
 VAL166  LYS551  ARG553  GLY616  TRP617  ASP618  TYR619  PRO620  LYS621  CYS622 
 ASP623  PHE694  ASN695  SER759  ASP760  ASP761  ALA762  ILE779  LEU786  VAL792 
 PHE793  MET794  SER795  GLU796  ALA797  LYS798  CYS799  TRP800  GLU811  SER814 

> <Gold.Protein.RotatedAtoms>
  152.5430  134.2047  159.8725 H   0  0  0  0  0  0  0  0  0  0  0  0  # atno 6907 bound_to 6896
  151.2033  133.4591  159.2604 H   0  0  0  0  0  0  0  0  0  0  0  0  # atno 6908 bound_to 6896
  151.0968  134.9961  159.8485 H   0  0  0  0  0  0  0  0  0  0  0  0  # atno 6909 bound_to 6896
  145.6940  140.9142  143.0766 H   0  0  0  0  0  0  0  0  0  0  0  0  # atno 7974 bound_to 7965
  154.7861  140.0464  157.1165 H   0  0  0  0  0  0  0  0  0  0  0  0  # atno 8008 bound_to 7997
  154.9647  140.3082  155.4995 H   0  0  0  0  0  0  0  0  0  0  0  0  # atno 8009 bound_to 7997
  156.2943  140.2264  156.4735 H   0  0  0  0  0  0  0  0  0  0  0  0  # atno 8010 bound_to 7997
  139.5603  144.6877  151.4063 H   0  0  0  0  0  0  0  0  0  0  0  0  # atno 10167 bound_to 10162
  156.0278  130.5483  150.7301 H   0  0  0  0  0  0  0  0  0  0  0  0  # atno 10718 bound_to 10713
  154.0360  135.2893  155.3362 H   0  0  0  0  0  0  0  0  0  0  0  0  # atno 10763 bound_to 10752
  154.6958  135.5208  153.8460 H   0  0  0  0  0  0  0  0  0  0  0  0  # atno 10764 bound_to 10752
  153.0620  135.6617  154.0569 H   0  0  0  0  0  0  0  0  0  0  0  0  # atno 10765 bound_to 10752
  140.5459  134.5477  157.5111 H   0  0  0  0  0  0  0  0  0  0  0  0  # atno 11005 bound_to 11000
  144.6988  139.8859  143.7450 LP  0  0  0  0  0  0  0  0  0  0  0  0  # atno 17320 bound_to 7965
  146.0857  139.3845  143.0437 LP  0  0  0  0  0  0  0  0  0  0  0  0  # atno 17321 bound_to 7965
  140.6881  143.7925  150.7216 LP  0  0  0  0  0  0  0  0  0  0  0  0  # atno 17342 bound_to 10162
  140.1399  143.4450  152.2200 LP  0  0  0  0  0  0  0  0  0  0  0  0  # atno 17343 bound_to 10162
  157.4895  131.0909  151.0443 LP  0  0  0  0  0  0  0  0  0  0  0  0  # atno 17370 bound_to 10713
  157.0854  130.5920  149.5428 LP  0  0  0  0  0  0  0  0  0  0  0  0  # atno 17371 bound_to 10713
  139.9480  134.7667  156.0515 LP  0  0  0  0  0  0  0  0  0  0  0  0  # atno 17394 bound_to 11000
  141.1200  133.6616  156.3191 LP  0  0  0  0  0  0  0  0  0  0  0  0  # atno 17395 bound_to 11000

$$$$
