AV-unprocessed.smi:2744|AV-procd|sdf|10569|dock3
  -GOLD-   2272015 23D 1   1.00000     0.00000
 Structure written by MMmdl.
 40 41  0  0  0  0  0  0  0  0  1 V2000
  152.1457  143.2087  161.0686 C   0  0  0  0  0  0  0  0  0  0  0  0
  152.5913  142.9048  159.6287 C   0  0  0  0  0  0  0  0  0  0  0  0
  151.4802  142.3875  158.6781 C   0  0  2  0  0  0  0  0  0  0  0  0
  150.2670  143.3353  158.6265 C   0  0  0  0  0  0  0  0  0  0  0  0
  151.0233  141.1461  159.1813 O   0  0  0  0  0  0  0  0  0  0  0  0
  152.0083  142.1593  157.2377 C   0  0  0  0  0  0  0  0  0  0  0  0
  151.0989  141.4240  156.3718 N   0  0  0  0  0  0  0  0  0  0  0  0
  149.7795  141.7255  156.1153 C   0  0  0  0  0  0  0  0  0  0  0  0
  149.1690  140.9107  155.2984 N   0  0  0  0  0  0  0  0  0  0  0  0
  150.1388  139.9697  154.9772 C   0  0  0  0  0  0  0  0  0  0  0  0
  150.1547  138.8169  154.1501 C   0  0  0  0  0  0  0  0  0  0  0  0
  149.0523  138.4368  153.4660 N   0  0  0  0  0  0  0  0  0  0  0  0
  147.7661  139.0993  153.6640 C   0  0  0  0  0  0  0  0  0  0  0  0
  147.1933  138.7984  155.0590 C   0  0  0  0  0  0  0  0  0  0  0  0
  146.7847  138.6741  152.5642 C   0  0  0  0  0  0  0  0  0  0  0  0
  151.3122  138.1083  154.0761 N   0  0  0  0  0  0  0  0  0  0  0  0
  152.3864  138.5054  154.7655 C   0  0  0  0  0  0  0  0  0  0  0  0
  152.5173  139.5600  155.5738 N   0  0  0  0  0  0  0  0  0  0  0  0
  151.3566  140.2727  155.6482 C   0  0  0  0  0  0  0  0  0  0  0  0
  153.0007  143.5000  161.6789 H   0  0  0  0  0  0  0  0  0  0  0  0
  151.6893  142.3374  161.5392 H   0  0  0  0  0  0  0  0  0  0  0  0
  151.4296  144.0292  161.1061 H   0  0  0  0  0  0  0  0  0  0  0  0
  153.0330  143.8080  159.2061 H   0  0  0  0  0  0  0  0  0  0  0  0
  153.3991  142.1743  159.6811 H   0  0  0  0  0  0  0  0  0  0  0  0
  150.5634  144.3355  158.3092 H   0  0  0  0  0  0  0  0  0  0  0  0
  149.7762  143.4261  159.5957 H   0  0  0  0  0  0  0  0  0  0  0  0
  149.5150  142.9773  157.9225 H   0  0  0  0  0  0  0  0  0  0  0  0
  151.7689  140.6498  159.4828 H   0  0  0  0  0  0  0  0  0  0  0  0
  152.2338  143.1135  156.7591 H   0  0  0  0  0  0  0  0  0  0  0  0
  152.9513  141.6119  157.2734 H   0  0  0  0  0  0  0  0  0  0  0  0
  149.2833  142.5807  156.5507 H   0  0  0  0  0  0  0  0  0  0  0  0
  149.0423  137.6380  152.8481 H   0  0  0  0  0  0  0  0  0  0  0  0
  147.9057  140.1770  153.5704 H   0  0  0  0  0  0  0  0  0  0  0  0
  146.2394  139.3052  155.2067 H   0  0  0  0  0  0  0  0  0  0  0  0
  147.8643  139.1336  155.8500 H   0  0  0  0  0  0  0  0  0  0  0  0
  147.0267  137.7294  155.1962 H   0  0  0  0  0  0  0  0  0  0  0  0
  145.8260  139.1816  152.6763 H   0  0  0  0  0  0  0  0  0  0  0  0
  146.5979  137.5998  152.5906 H   0  0  0  0  0  0  0  0  0  0  0  0
  147.1728  138.9209  151.5755 H   0  0  0  0  0  0  0  0  0  0  0  0
  153.2668  137.8901  154.6534 H   0  0  0  0  0  0  0  0  0  0  0  0
  1  2  1  0  0  0  0
  1 20  1  0  0  0  0
  1 21  1  0  0  0  0
  1 22  1  0  0  0  0
  2  3  1  0  0  0  0
  2 23  1  0  0  0  0
  2 24  1  0  0  0  0
  3  4  1  0  0  0  0
  3  5  1  0  0  0  0
  3  6  1  0  0  0  0
  4 25  1  0  0  0  0
  4 26  1  0  0  0  0
  4 27  1  0  0  0  0
  5 28  1  0  0  0  0
  6  7  1  0  0  0  0
  6 29  1  0  0  0  0
  6 30  1  0  0  0  0
  7 19  1  0  0  0  0
  7  8  1  0  0  0  0
  8  9  2  0  0  0  0
  8 31  1  0  0  0  0
  9 10  1  0  0  0  0
 10 19  2  0  0  0  0
 10 11  1  0  0  0  0
 11 12  1  0  0  0  0
 11 16  2  0  0  0  0
 12 13  1  0  0  0  0
 12 32  1  0  0  0  0
 13 14  1  0  0  0  0
 13 15  1  0  0  0  0
 13 33  1  0  0  0  0
 14 34  1  0  0  0  0
 14 35  1  0  0  0  0
 14 36  1  0  0  0  0
 15 37  1  0  0  0  0
 15 38  1  0  0  0  0
 15 39  1  0  0  0  0
 16 17  1  0  0  0  0
 17 18  2  0  0  0  0
 17 40  1  0  0  0  0
 18 19  1  0  0  0  0
M  END
> <s_m_source_file>
AV-unprocessed.smi

> <i_m_source_file_index>
2744

> <i_lp_mmshare_version>
43012

> <i_f3d_flags>
0

> <s_epik_input>
W0NIM11bQ0gyXVtDQEBdKFtDSDNdKShbT0hdKVtDSDJdbihbY0hdbjEpYyhjMTIpbltjSF1uYzJbTkhdW0NIXShbQ0gzXSlbQ0gzXQ==

> <s_epik_cmdline>
J2VwaWtfcHl0aG9uJywgJy1waCcsICc3LjAnLCAnLXRuJywgJzgnLCAnLW1hJywgJzIwMCcsICctbWV0YWxfYmluZGluZycsICctaW1hZScsICc8aW5maWxlLm1hZT4nLCAnLW9tYWUnLCAnPG91dGZpbGUubWFlPic=

> <r_lp_tautomer_probability>
1

> <r_epik_Ionization_Penalty>
0.00217876

> <r_epik_Ionization_Penalty_Charging>
0

> <r_epik_Ionization_Penalty_Neutral>
0.00217876

> <r_epik_State_Penalty>
-0

> <r_epik_Charging_Adjusted_Penalty>
0

> <i_epik_Tot_Q>
0

> <i_epik_Tot_abs_Q>
0

> <r_epik_Metal_State_Penalty>
-0

> <b_epik_Metal_Only>
0

> <s_lp_Force_Field>
OPLS_2005

> <r_lp_Energy>
9.28896

> <b_lp_Chiralities_Consistent>
1

> <s_lp_Variant>
AV-unprocessed.smi:2744-2

> <Gold.Version>
5.8.1

> <Gold.Id.Protein>
6NUR|6NUR_protein|mol2

> <Gold.PLP.Fitness>
43.1766

> <Gold.PLP.PLP>
-34.5928

> <Gold.PLP.part.hbond>
-3.4269

> <Gold.PLP.part.metal>
0.0000

> <Gold.PLP.part.buried>
-3.8023

> <Gold.PLP.part.nonpolar>
-26.4849

> <Gold.PLP.part.repulsive>
0.3773

> <Gold.PLP.ligand.clash>
0.0000

> <Gold.PLP.ligand.torsion>
0.2340

> <Gold.PLP.Chemscore.Hbond>
2.0000

> <Gold.PLP.Chemscore.CHOScore>
1.0000

> <Gold.PLP.Chemscore.Metal>
0.0000

> <Gold.Chemscore.Hbonds>
donor molecule, donor type, donor heavy atom, donor atom, acceptor molecule, acceptor atom, score
      L1  H    12    32       P1  7948  1.00
      P1  H  7997  8010       L1    18  1.00
      L1  C     8    31       P1  8028  1.00

> <Gold.PLP.Chemscore.Internal.Correction>
0.0518

> <Gold.Rescore>
     Score         DG    S(hbond)    S(metal)    S(lipo)     H(rot)  DE(clash)    DE(int)     intcor
     10.84     -14.18       1.96        0.00      70.46       2.38       1.47       1.87       ----

> <Gold.Chemscore.Fitness>
10.8383

> <Gold.Chemscore.DG>
-14.1791

> <Gold.Chemscore.ZeroCoef>
-5.4800

> <Gold.Chemscore.Hbond>
1.9605

> <Gold.Chemscore.Metal>
0.0000

> <Gold.Chemscore.Lipo>
70.4633

> <Gold.Chemscore.Internal_Hbond>
0.0000

> <Gold.Chemscore.DEClash>
1.4695

> <Gold.Chemscore.DEInternal>
1.8712

> <Gold.Chemscore.Rot>
2.3802

> <Gold.Chemscore.Internal.Correction>
   9.000000E+99

> <Gold.Chemscore.Hbonds>
donor molecule, donor type, donor heavy atom, donor atom, acceptor molecule, acceptor atom, score
      L1  H    12    32       P1  7948  1.00
      P1  H  7997  8010       L1    18  0.91

> <Gold.Chemscore.Hbond.Weighted>
-6.5482

> <Gold.Chemscore.Metal.Weighted>
-0.0000

> <Gold.Chemscore.Lipo.Weighted>
-8.2442

> <Gold.Chemscore.Internal_Hbond.Weighted>
0.0000

> <Gold.Chemscore.DEClash.Weighted>
1.4695

> <Gold.Chemscore.DEInternal.Weighted>
1.8712

> <Gold.Chemscore.Rot.Weighted>
6.0933

> <Gold.Chemscore.Internal.Correction.Weighted>
   9.000000E+99

> <Gold.Protein.RotatedTorsions>
[ 6907 6896 6895 6894 ] final  -50.39 input  -60.11 | X-H torsion
[ 7974 7965 7964 7962 ] final   13.44 input  175.53 | X-H torsion
[ 8008 7997 7996 7995 ] final   90.44 input   59.86 | X-H torsion
[ 10167 10162 10161 10158 ] final  124.39 input  -65.29 | X-H torsion
[ 10718 10713 10712 10709 ] final   14.74 input   66.30 | X-H torsion
[ 10763 10752 10751 10750 ] final   13.07 input  -60.55 | X-H torsion
[ 11005 11000 10999 10996 ] final  -11.34 input  -57.11 | X-H torsion

> <Gold.Protein.ActiveResidues>
 VAL166  LYS551  ARG553  GLY616  TRP617  ASP618  TYR619  PRO620  LYS621  CYS622 
 ASP623  PHE694  ASN695  SER759  ASP760  ASP761  ALA762  ILE779  LEU786  VAL792 
 PHE793  MET794  SER795  GLU796  ALA797  LYS798  CYS799  TRP800  GLU811  SER814 

> <Gold.Protein.RotatedAtoms>
  150.8712  134.8086  159.7156 H   0  0  0  0  0  0  0  0  0  0  0  0  # atno 6907 bound_to 6896
  152.4716  134.4943  159.9715 H   0  0  0  0  0  0  0  0  0  0  0  0  # atno 6908 bound_to 6896
  151.5032  133.3461  159.2908 H   0  0  0  0  0  0  0  0  0  0  0  0  # atno 6909 bound_to 6896
  146.2329  139.9188  142.8513 H   0  0  0  0  0  0  0  0  0  0  0  0  # atno 7974 bound_to 7965
  156.0120  140.3349  155.6950 H   0  0  0  0  0  0  0  0  0  0  0  0  # atno 8008 bound_to 7997
  155.6145  140.0668  157.2714 H   0  0  0  0  0  0  0  0  0  0  0  0  # atno 8009 bound_to 7997
  154.4284  140.1787  156.1294 H   0  0  0  0  0  0  0  0  0  0  0  0  # atno 8010 bound_to 7997
  139.5744  144.6956  151.3691 H   0  0  0  0  0  0  0  0  0  0  0  0  # atno 10167 bound_to 10162
  157.0435  130.6240  149.5755 H   0  0  0  0  0  0  0  0  0  0  0  0  # atno 10718 bound_to 10713
  153.1758  135.6820  153.8545 H   0  0  0  0  0  0  0  0  0  0  0  0  # atno 10763 bound_to 10752
  153.7893  135.3171  155.3377 H   0  0  0  0  0  0  0  0  0  0  0  0  # atno 10764 bound_to 10752
  154.8028  135.4767  154.0411 H   0  0  0  0  0  0  0  0  0  0  0  0  # atno 10765 bound_to 10752
  140.7543  133.8567  155.9071 H   0  0  0  0  0  0  0  0  0  0  0  0  # atno 11005 bound_to 11000
  145.2157  140.9914  143.4074 LP  0  0  0  0  0  0  0  0  0  0  0  0  # atno 17320 bound_to 7965
  144.9653  139.3937  143.6336 LP  0  0  0  0  0  0  0  0  0  0  0  0  # atno 17321 bound_to 7965
  140.7028  143.7590  150.7431 LP  0  0  0  0  0  0  0  0  0  0  0  0  # atno 17342 bound_to 10162
  140.1105  143.4703  152.2373 LP  0  0  0  0  0  0  0  0  0  0  0  0  # atno 17343 bound_to 10162
  156.0030  130.5113  150.7732 LP  0  0  0  0  0  0  0  0  0  0  0  0  # atno 17370 bound_to 10713
  157.5086  131.0924  151.0226 LP  0  0  0  0  0  0  0  0  0  0  0  0  # atno 17371 bound_to 10713
  140.9722  134.1516  157.4566 LP  0  0  0  0  0  0  0  0  0  0  0  0  # atno 17394 bound_to 11000
  139.8782  134.9982  156.5889 LP  0  0  0  0  0  0  0  0  0  0  0  0  # atno 17395 bound_to 11000

$$$$
