AV-unprocessed.smi:2168|AV-procd|sdf|8819|dock2
  -GOLD-   2272012 13D 1   1.00000     0.00000
 Structure written by MMmdl.
 47 48  0  0  0  0  0  0  0  0  2 V2000
  149.1550  133.1914  153.3731 C   0  0  0  0  0  0  0  0  0  0  0  0
  149.6930  133.5071  154.7765 C   0  0  0  0  0  0  0  0  0  0  0  0
  149.1384  134.7544  155.3364 N   0  0  0  0  0  0  0  0  0  0  0  0
  147.6839  134.7836  155.5882 C   0  0  0  0  0  0  0  0  0  0  0  0
  146.8545  134.9292  154.3021 C   0  0  0  0  0  0  0  0  0  0  0  0
  150.1857  135.9195  156.0883 S   0  0  0  0  0  0  0  0  0  0  0  0
  150.2085  135.6866  157.5404 O   0  0  0  0  0  0  0  0  0  0  0  0
  151.4350  136.0060  155.3162 O   0  0  0  0  0  0  0  0  0  0  0  0
  149.2713  137.3517  155.7991 N   0  0  0  0  0  0  0  0  0  0  0  0
  149.8539  138.4297  155.0043 C   0  0  0  0  0  0  0  0  0  0  0  0
  150.2235  139.6335  155.8494 C   0  0  0  0  0  0  0  0  0  0  0  0
  151.1206  139.5082  156.9303 C   0  0  0  0  0  0  0  0  0  0  0  0
  151.4647  140.6505  157.6822 C   0  0  0  0  0  0  0  0  0  0  0  0
  150.9103  141.9101  157.3472 C   0  0  0  0  0  0  0  0  0  0  0  0
  151.2268  143.0883  158.0576 N   0  0  0  0  0  0  0  0  0  0  0  0
  152.3800  143.0091  158.9507 C   0  0  0  0  0  0  0  0  0  0  0  0
  152.8037  144.4165  159.4040 C   0  0  0  0  0  0  0  0  0  0  0  0
  151.6929  145.0890  159.9869 O   0  0  0  0  0  0  0  0  0  0  0  0
  150.6297  145.2599  159.0566 C   0  0  0  0  0  0  0  0  0  0  0  0
  150.1234  143.8840  158.5919 C   0  0  0  0  0  0  0  0  0  0  0  0
  150.0531  141.9748  156.2975 N   0  3  0  0  0  0  0  0  0  0  0  0
  149.6938  140.9061  155.5547 C   0  0  0  0  0  0  0  0  0  0  0  0
  149.5515  132.2396  153.0195 H   0  0  0  0  0  0  0  0  0  0  0  0
  149.4492  133.9510  152.6494 H   0  0  0  0  0  0  0  0  0  0  0  0
  148.0682  133.1147  153.3639 H   0  0  0  0  0  0  0  0  0  0  0  0
  149.4726  132.6778  155.4482 H   0  0  0  0  0  0  0  0  0  0  0  0
  150.7801  133.5860  154.7439 H   0  0  0  0  0  0  0  0  0  0  0  0
  147.4012  133.8631  156.0995 H   0  0  0  0  0  0  0  0  0  0  0  0
  147.4457  135.5964  156.2752 H   0  0  0  0  0  0  0  0  0  0  0  0
  145.7957  135.0283  154.5413 H   0  0  0  0  0  0  0  0  0  0  0  0
  146.9567  134.0558  153.6588 H   0  0  0  0  0  0  0  0  0  0  0  0
  147.1440  135.8061  153.7245 H   0  0  0  0  0  0  0  0  0  0  0  0
  148.7445  137.6694  156.6126 H   0  0  0  0  0  0  0  0  0  0  0  0
  150.7569  138.0571  154.5204 H   0  0  0  0  0  0  0  0  0  0  0  0
  149.1612  138.7089  154.2092 H   0  0  0  0  0  0  0  0  0  0  0  0
  151.5529  138.5492  157.1766 H   0  0  0  0  0  0  0  0  0  0  0  0
  152.1688  140.5474  158.4940 H   0  0  0  0  0  0  0  0  0  0  0  0
  152.1121  142.4038  159.8175 H   0  0  0  0  0  0  0  0  0  0  0  0
  153.2294  142.5230  158.4736 H   0  0  0  0  0  0  0  0  0  0  0  0
  153.6034  144.3477  160.1414 H   0  0  0  0  0  0  0  0  0  0  0  0
  153.1941  144.9945  158.5648 H   0  0  0  0  0  0  0  0  0  0  0  0
  149.8231  145.8143  159.5362 H   0  0  0  0  0  0  0  0  0  0  0  0
  150.9663  145.8580  158.2081 H   0  0  0  0  0  0  0  0  0  0  0  0
  149.3538  144.0243  157.8319 H   0  0  0  0  0  0  0  0  0  0  0  0
  149.6662  143.3524  159.4275 H   0  0  0  0  0  0  0  0  0  0  0  0
  149.0073  141.1029  154.7440 H   0  0  0  0  0  0  0  0  0  0  0  0
  149.6567  142.8826  156.0540 H   0  0  0  0  0  0  0  0  0  0  0  0
  1  2  1  0  0  0  0
  1 23  1  0  0  0  0
  1 24  1  0  0  0  0
  1 25  1  0  0  0  0
  2  3  1  0  0  0  0
  2 26  1  0  0  0  0
  2 27  1  0  0  0  0
  3  4  1  0  0  0  0
  3  6  1  0  0  0  0
  4  5  1  0  0  0  0
  4 28  1  0  0  0  0
  4 29  1  0  0  0  0
  5 30  1  0  0  0  0
  5 31  1  0  0  0  0
  5 32  1  0  0  0  0
  6  7  2  0  0  0  0
  6  8  2  0  0  0  0
  6  9  1  0  0  0  0
  9 10  1  0  0  0  0
  9 33  1  0  0  0  0
 10 11  1  0  0  0  0
 10 34  1  0  0  0  0
 10 35  1  0  0  0  0
 11 22  1  0  0  0  0
 11 12  2  0  0  0  0
 12 13  1  0  0  0  0
 12 36  1  0  0  0  0
 13 14  2  0  0  0  0
 13 37  1  0  0  0  0
 14 15  1  0  0  0  0
 14 21  1  0  0  0  0
 15 20  1  0  0  0  0
 15 16  1  0  0  0  0
 16 17  1  0  0  0  0
 16 38  1  0  0  0  0
 16 39  1  0  0  0  0
 17 18  1  0  0  0  0
 17 40  1  0  0  0  0
 17 41  1  0  0  0  0
 18 19  1  0  0  0  0
 19 20  1  0  0  0  0
 19 42  1  0  0  0  0
 19 43  1  0  0  0  0
 20 44  1  0  0  0  0
 20 45  1  0  0  0  0
 21 22  2  0  0  0  0
 21 47  1  0  0  0  0
 22 46  1  0  0  0  0
M  CHG  1  21   1
M  END
> <s_m_source_file>
AV-unprocessed.smi

> <i_m_source_file_index>
2168

> <i_lp_mmshare_version>
43012

> <i_f3d_flags>
0

> <s_epik_input>
W0NIM11bQ0gyXU4oW0NIMl1bQ0gzXSlTKD1PKSg9TylbTkhdW0NIMl1jMVtjSF1bY0hdYyhuW2NIXTEpTjJbQ0gyXVtDSDJdT1tDSDJdW0NIMl0y

> <s_epik_cmdline>
J2VwaWtfcHl0aG9uJywgJy1waCcsICc3LjAnLCAnLXRuJywgJzgnLCAnLW1hJywgJzIwMCcsICctbWV0YWxfYmluZGluZycsICctaW1hZScsICc8aW5maWxlLm1hZT4nLCAnLW9tYWUnLCAnPG91dGZpbGUubWFlPic=

> <r_lp_tautomer_probability>
0.999994

> <r_epik_Ionization_Penalty>
2.66893

> <r_epik_Ionization_Penalty_Charging>
2.61323

> <r_epik_Ionization_Penalty_Neutral>
0.0557011

> <r_epik_State_Penalty>
2.68492

> <r_epik_Charging_Adjusted_Penalty>
5.29815

> <i_epik_Tot_Q>
1

> <i_epik_Tot_abs_Q>
1

> <r_epik_Metal_State_Penalty>
5.63236

> <b_epik_Metal_Only>
0

> <s_lp_Force_Field>
OPLS_2005

> <r_lp_Energy>
21.5493

> <b_lp_Chiralities_Consistent>
1

> <s_lp_Variant>
AV-unprocessed.smi:2168-2

> <Gold.Version>
5.8.1

> <Gold.Id.Protein>
6NUR|6NUR_protein|mol2

> <Gold.PLP.Fitness>
41.5977

> <Gold.PLP.PLP>
-33.0405

> <Gold.PLP.part.hbond>
-2.6362

> <Gold.PLP.part.metal>
0.0000

> <Gold.PLP.part.buried>
-6.7249

> <Gold.PLP.part.nonpolar>
-25.3355

> <Gold.PLP.part.repulsive>
0.3952

> <Gold.PLP.ligand.clash>
0.0000

> <Gold.PLP.ligand.torsion>
1.9377

> <Gold.PLP.Chemscore.Hbond>
3.1677

> <Gold.PLP.Chemscore.CHOScore>
0.0000

> <Gold.PLP.Chemscore.Metal>
0.0000

> <Gold.Chemscore.Hbonds>
donor molecule, donor type, donor heavy atom, donor atom, acceptor molecule, acceptor atom, score
      L1  H    21    47       P1  8028  1.98
      P1  H  6896  6907       L1     7  0.20
      P1  H 10752 10764       L1     8  1.00

> <Gold.PLP.Chemscore.Internal.Correction>
2.9295

> <Gold.Rescore>
     Score         DG    S(hbond)    S(metal)    S(lipo)     H(rot)  DE(clash)    DE(int)     intcor
     16.99     -19.01       2.77        0.00      80.30       1.99       0.11       1.92       ----

> <Gold.Chemscore.Fitness>
16.9851

> <Gold.Chemscore.DG>
-19.0133

> <Gold.Chemscore.ZeroCoef>
-5.4800

> <Gold.Chemscore.Hbond>
2.7666

> <Gold.Chemscore.Metal>
0.0000

> <Gold.Chemscore.Lipo>
80.3025

> <Gold.Chemscore.Internal_Hbond>
0.0000

> <Gold.Chemscore.DEClash>
0.1075

> <Gold.Chemscore.DEInternal>
1.9207

> <Gold.Chemscore.Rot>
1.9932

> <Gold.Chemscore.Internal.Correction>
   9.000000E+99

> <Gold.Chemscore.Hbonds>
donor molecule, donor type, donor heavy atom, donor atom, acceptor molecule, acceptor atom, score
      L1  H    21    47       P1  8028  0.92
      P1  H  6896  6907       L1     7  0.19
      P1  H 10752 10764       L1     8  1.00

> <Gold.Chemscore.Hbond.Weighted>
-9.2404

> <Gold.Chemscore.Metal.Weighted>
-0.0000

> <Gold.Chemscore.Lipo.Weighted>
-9.3954

> <Gold.Chemscore.Internal_Hbond.Weighted>
0.0000

> <Gold.Chemscore.DEClash.Weighted>
0.1075

> <Gold.Chemscore.DEInternal.Weighted>
1.9207

> <Gold.Chemscore.Rot.Weighted>
5.1025

> <Gold.Chemscore.Internal.Correction.Weighted>
   9.000000E+99

> <Gold.Protein.RotatedTorsions>
[ 6907 6896 6895 6894 ] final  -69.56 input  -60.11 | X-H torsion
[ 7974 7965 7964 7962 ] final -147.43 input  175.53 | X-H torsion
[ 8008 7997 7996 7995 ] final    8.25 input   59.86 | X-H torsion
[ 10167 10162 10161 10158 ] final -168.09 input  -65.29 | X-H torsion
[ 10718 10713 10712 10709 ] final -125.51 input   66.30 | X-H torsion
[ 10763 10752 10751 10750 ] final  -40.98 input  -60.55 | X-H torsion
[ 11005 11000 10999 10996 ] final  -22.45 input  -57.11 | X-H torsion

> <Gold.Protein.ActiveResidues>
 VAL166  LYS551  ARG553  GLY616  TRP617  ASP618  TYR619  PRO620  LYS621  CYS622 
 ASP623  PHE694  ASN695  SER759  ASP760  ASP761  ALA762  ILE779  LEU786  VAL792 
 PHE793  MET794  SER795  GLU796  ALA797  LYS798  CYS799  TRP800  GLU811  SER814 

> <Gold.Protein.RotatedAtoms>
  150.7300  134.5580  159.5827 H   0  0  0  0  0  0  0  0  0  0  0  0  # atno 6907 bound_to 6896
  152.3050  134.7563  160.0358 H   0  0  0  0  0  0  0  0  0  0  0  0  # atno 6908 bound_to 6896
  151.8130  133.3348  159.3598 H   0  0  0  0  0  0  0  0  0  0  0  0  # atno 6909 bound_to 6896
  144.8094  140.5328  143.5653 H   0  0  0  0  0  0  0  0  0  0  0  0  # atno 7974 bound_to 7965
  154.7644  140.2790  155.6188 H   0  0  0  0  0  0  0  0  0  0  0  0  # atno 8008 bound_to 7997
  156.2922  140.2653  156.2358 H   0  0  0  0  0  0  0  0  0  0  0  0  # atno 8009 bound_to 7997
  154.9977  140.0373  157.2336 H   0  0  0  0  0  0  0  0  0  0  0  0  # atno 8010 bound_to 7997
  139.6007  144.1017  152.1739 H   0  0  0  0  0  0  0  0  0  0  0  0  # atno 10167 bound_to 10162
  156.1682  130.6649  151.0143 H   0  0  0  0  0  0  0  0  0  0  0  0  # atno 10718 bound_to 10713
  153.9550  135.6746  153.4744 H   0  0  0  0  0  0  0  0  0  0  0  0  # atno 10763 bound_to 10752
  153.0866  135.4896  154.8605 H   0  0  0  0  0  0  0  0  0  0  0  0  # atno 10764 bound_to 10752
  154.7304  135.3137  154.8860 H   0  0  0  0  0  0  0  0  0  0  0  0  # atno 10765 bound_to 10752
  140.8658  133.7755  156.0128 H   0  0  0  0  0  0  0  0  0  0  0  0  # atno 11005 bound_to 11000
  145.5360  139.1475  143.3473 LP  0  0  0  0  0  0  0  0  0  0  0  0  # atno 17320 bound_to 7965
  146.2390  140.5500  142.8942 LP  0  0  0  0  0  0  0  0  0  0  0  0  # atno 17321 bound_to 7965
  140.0612  144.5855  150.7261 LP  0  0  0  0  0  0  0  0  0  0  0  0  # atno 17342 bound_to 10162
  140.7247  143.2624  151.4160 LP  0  0  0  0  0  0  0  0  0  0  0  0  # atno 17343 bound_to 10162
  157.6783  131.0844  150.7436 LP  0  0  0  0  0  0  0  0  0  0  0  0  # atno 17370 bound_to 10713
  156.7496  130.4764  149.5459 LP  0  0  0  0  0  0  0  0  0  0  0  0  # atno 17371 bound_to 10713
  140.8630  134.2817  157.5226 LP  0  0  0  0  0  0  0  0  0  0  0  0  # atno 17394 bound_to 11000
  139.8709  134.9528  156.4126 LP  0  0  0  0  0  0  0  0  0  0  0  0  # atno 17395 bound_to 11000

$$$$
