AV-unprocessed.smi:910|AV-procd|sdf|4120|dock3
  -GOLD-   22720 2 23D 1   1.00000     0.00000
 Structure written by MMmdl.
 46 47  0  0  0  0  0  0  0  0  1 V2000
  145.6246  133.9963  162.4153 C   0  0  0  0  0  0  0  0  0  0  0  0
  146.6882  134.4991  161.4637 C   0  0  0  0  0  0  0  0  0  0  0  0
  147.0354  135.8212  161.3977 N   0  0  0  0  0  0  0  0  0  0  0  0
  148.0326  135.9607  160.4448 C   0  0  0  0  0  0  0  0  0  0  0  0
  148.6322  137.0518  160.0804 N   0  0  0  0  0  0  0  0  0  0  0  0
  149.6244  136.9963  159.1126 C   0  0  0  0  0  0  0  0  0  0  0  0
  149.9375  136.0476  158.3862 O   0  0  0  0  0  0  0  0  0  0  0  0
  150.2474  138.1809  159.0252 N   0  0  0  0  0  0  0  0  0  0  0  0
  151.3167  138.5118  158.0886 C   0  0  0  0  0  0  0  0  0  0  0  0
  151.0877  139.8797  157.4301 C   0  0  0  0  0  0  0  0  0  0  0  0
  152.1363  140.7543  157.8200 O   0  0  0  0  0  0  0  0  0  0  0  0
  151.7233  141.8566  158.6176 C   0  0  2  0  0  0  0  0  0  0  0  0
  151.2571  143.0115  157.7065 C   0  0  0  0  0  0  0  0  0  0  0  0
  150.9363  144.2754  158.5176 C   0  0  0  0  0  0  0  0  0  0  0  0
  152.1381  144.7023  159.3720 C   0  0  0  0  0  0  0  0  0  0  0  0
  152.5976  143.5582  160.2882 C   0  0  0  0  0  0  0  0  0  0  0  0
  152.9273  142.2818  159.4882 C   0  0  1  0  0  0  0  0  0  0  0  0
  153.3747  141.1509  160.4296 C   0  0  0  0  0  0  0  0  0  0  0  0
  148.2689  134.7011  159.9434 O   0  0  0  0  0  0  0  0  0  0  0  0
  147.4358  133.8358  160.5848 C   0  0  0  0  0  0  0  0  0  0  0  0
  147.4965  132.3689  160.2230 C   0  0  0  0  0  0  0  0  0  0  0  0
  146.0477  133.2589  163.0977 H   0  0  0  0  0  0  0  0  0  0  0  0
  144.8126  133.5266  161.8599 H   0  0  0  0  0  0  0  0  0  0  0  0
  145.2099  134.8135  163.0060 H   0  0  0  0  0  0  0  0  0  0  0  0
  146.6118  136.5382  161.9687 H   0  0  0  0  0  0  0  0  0  0  0  0
  149.9412  138.9198  159.6415 H   0  0  0  0  0  0  0  0  0  0  0  0
  152.2618  138.5152  158.6320 H   0  0  0  0  0  0  0  0  0  0  0  0
  151.3996  137.7341  157.3277 H   0  0  0  0  0  0  0  0  0  0  0  0
  151.0723  139.7676  156.3459 H   0  0  0  0  0  0  0  0  0  0  0  0
  150.1189  140.2833  157.7284 H   0  0  0  0  0  0  0  0  0  0  0  0
  150.9081  141.5610  159.2811 H   0  0  0  0  0  0  0  0  0  0  0  0
  152.0358  143.2374  156.9766 H   0  0  0  0  0  0  0  0  0  0  0  0
  150.3762  142.7181  157.1361 H   0  0  0  0  0  0  0  0  0  0  0  0
  150.6501  145.0856  157.8463 H   0  0  0  0  0  0  0  0  0  0  0  0
  150.0765  144.0880  159.1620 H   0  0  0  0  0  0  0  0  0  0  0  0
  152.9612  145.0050  158.7231 H   0  0  0  0  0  0  0  0  0  0  0  0
  151.8774  145.5759  159.9700 H   0  0  0  0  0  0  0  0  0  0  0  0
  153.4713  143.8774  160.8573 H   0  0  0  0  0  0  0  0  0  0  0  0
  151.8164  143.3438  161.0188 H   0  0  0  0  0  0  0  0  0  0  0  0
  153.7622  142.5106  158.8238 H   0  0  0  0  0  0  0  0  0  0  0  0
  152.5754  140.8650  161.1141 H   0  0  0  0  0  0  0  0  0  0  0  0
  154.2328  141.4565  161.0289 H   0  0  0  0  0  0  0  0  0  0  0  0
  153.6677  140.2605  159.8723 H   0  0  0  0  0  0  0  0  0  0  0  0
  146.6062  131.8464  160.5733 H   0  0  0  0  0  0  0  0  0  0  0  0
  148.3723  131.9056  160.6773 H   0  0  0  0  0  0  0  0  0  0  0  0
  147.5634  132.2490  159.1416 H   0  0  0  0  0  0  0  0  0  0  0  0
  1 22  1  0  0  0  0
  1 23  1  0  0  0  0
  1 24  1  0  0  0  0
  1  2  1  0  0  0  0
  2  3  1  0  0  0  0
  2 20  2  0  0  0  0
  3 25  1  0  0  0  0
  3  4  1  0  0  0  0
  4 19  1  0  0  0  0
  4  5  2  0  0  0  0
  5  6  1  0  0  0  0
  6  8  1  0  0  0  0
  6  7  2  0  0  0  0
  8  9  1  0  0  0  0
  8 26  1  0  0  0  0
  9 10  1  0  0  0  0
  9 27  1  0  0  0  0
  9 28  1  0  0  0  0
 10 11  1  0  0  0  0
 10 29  1  0  0  0  0
 10 30  1  0  0  0  0
 11 12  1  0  0  0  0
 12 17  1  0  0  0  0
 12 13  1  0  0  0  0
 12 31  1  0  0  0  0
 13 14  1  0  0  0  0
 13 32  1  0  0  0  0
 13 33  1  0  0  0  0
 14 15  1  0  0  0  0
 14 34  1  0  0  0  0
 14 35  1  0  0  0  0
 15 16  1  0  0  0  0
 15 36  1  0  0  0  0
 15 37  1  0  0  0  0
 16 17  1  0  0  0  0
 16 38  1  0  0  0  0
 16 39  1  0  0  0  0
 17 18  1  0  0  0  0
 17 40  1  0  0  0  0
 18 41  1  0  0  0  0
 18 42  1  0  0  0  0
 18 43  1  0  0  0  0
 19 20  1  0  0  0  0
 20 21  1  0  0  0  0
 21 44  1  0  0  0  0
 21 45  1  0  0  0  0
 21 46  1  0  0  0  0
M  END
> <s_m_source_file>
AV-unprocessed.smi

> <i_m_source_file_index>
910

> <i_lp_mmshare_version>
43012

> <i_f3d_flags>
0

> <s_epik_input>
W0NIM11jMW5jKG9jMVtDSDNdKVtOSF1DKD1PKVtOSF1bQ0gyXVtDSDJdT1tDQEBIXTJbQ0gyXVtDSDJdW0NIMl1bQ0gyXVtDQEhdMltDSDNd

> <s_epik_cmdline>
J2VwaWtfcHl0aG9uJywgJy1waCcsICc3LjAnLCAnLXRuJywgJzgnLCAnLW1hJywgJzIwMCcsICctbWV0YWxfYmluZGluZycsICctaW1hZScsICc8aW5maWxlLm1hZT4nLCAnLW9tYWUnLCAnPG91dGZpbGUubWFlPic=

> <r_lp_tautomer_probability>
0.107061

> <r_epik_Ionization_Penalty>
0.727192

> <r_epik_Ionization_Penalty_Charging>
0.726719

> <r_epik_Ionization_Penalty_Neutral>
0.000473387

> <r_epik_State_Penalty>
2.53712

> <r_epik_Charging_Adjusted_Penalty>
3.26383

> <i_epik_Tot_Q>
0

> <i_epik_Tot_abs_Q>
0

> <r_epik_Metal_State_Penalty>
3.71015

> <b_epik_Metal_Only>
0

> <s_lp_Force_Field>
OPLS_2005

> <r_lp_Energy>
30.8071

> <b_lp_Chiralities_Consistent>
1

> <s_lp_Variant>
AV-unprocessed.smi:910-5

> <Gold.Version>
5.8.1

> <Gold.Id.Protein>
6NUR|6NUR_protein|mol2

> <Gold.PLP.Fitness>
44.6624

> <Gold.PLP.PLP>
-41.8261

> <Gold.PLP.part.hbond>
-2.9142

> <Gold.PLP.part.metal>
0.0000

> <Gold.PLP.part.buried>
-5.9695

> <Gold.PLP.part.nonpolar>
-35.9498

> <Gold.PLP.part.repulsive>
0.7986

> <Gold.PLP.ligand.clash>
0.0000

> <Gold.PLP.ligand.torsion>
1.1530

> <Gold.PLP.Chemscore.Hbond>
1.6965

> <Gold.PLP.Chemscore.CHOScore>
0.0000

> <Gold.PLP.Chemscore.Metal>
0.0000

> <Gold.Chemscore.Hbonds>
donor molecule, donor type, donor heavy atom, donor atom, acceptor molecule, acceptor atom, score
      P1  H  6896  6909       L1     7  0.99
      P1  H  6931  6943       L1     5  0.35

> <Gold.PLP.Chemscore.Internal.Correction>
0.0527

> <Gold.Rescore>
     Score         DG    S(hbond)    S(metal)    S(lipo)     H(rot)  DE(clash)    DE(int)     intcor
     16.32     -19.54       1.44        0.00     115.27       1.66       0.53       2.69       ----

> <Gold.Chemscore.Fitness>
16.3184

> <Gold.Chemscore.DG>
-19.5352

> <Gold.Chemscore.ZeroCoef>
-5.4800

> <Gold.Chemscore.Hbond>
1.4408

> <Gold.Chemscore.Metal>
0.0000

> <Gold.Chemscore.Lipo>
115.2697

> <Gold.Chemscore.Internal_Hbond>
0.0000

> <Gold.Chemscore.DEClash>
0.5316

> <Gold.Chemscore.DEInternal>
2.6852

> <Gold.Chemscore.Rot>
1.6576

> <Gold.Chemscore.Internal.Correction>
   9.000000E+99

> <Gold.Chemscore.Hbonds>
donor molecule, donor type, donor heavy atom, donor atom, acceptor molecule, acceptor atom, score
      P1  H  6896  6909       L1     7  0.55
      P1  H  6931  6943       L1     5  0.23

> <Gold.Chemscore.Hbond.Weighted>
-4.8122

> <Gold.Chemscore.Metal.Weighted>
-0.0000

> <Gold.Chemscore.Lipo.Weighted>
-13.4866

> <Gold.Chemscore.Internal_Hbond.Weighted>
0.0000

> <Gold.Chemscore.DEClash.Weighted>
0.5316

> <Gold.Chemscore.DEInternal.Weighted>
2.6852

> <Gold.Chemscore.Rot.Weighted>
4.2436

> <Gold.Chemscore.Internal.Correction.Weighted>
   9.000000E+99

> <Gold.Protein.RotatedTorsions>
[ 6907 6896 6895 6894 ] final   52.08 input  -60.11 | X-H torsion
[ 7974 7965 7964 7962 ] final  -86.69 input  175.53 | X-H torsion
[ 8008 7997 7996 7995 ] final  124.36 input   59.86 | X-H torsion
[ 10167 10162 10161 10158 ] final  135.42 input  -65.29 | X-H torsion
[ 10718 10713 10712 10709 ] final   13.23 input   66.30 | X-H torsion
[ 10763 10752 10751 10750 ] final   27.27 input  -60.55 | X-H torsion
[ 11005 11000 10999 10996 ] final  159.74 input  -57.11 | X-H torsion

> <Gold.Protein.ActiveResidues>
 VAL166  LYS551  ARG553  GLY616  TRP617  ASP618  TYR619  PRO620  LYS621  CYS622 
 ASP623  PHE694  ASN695  SER759  ASP760  ASP761  ALA762  ILE779  LEU786  VAL792 
 PHE793  MET794  SER795  GLU796  ALA797  LYS798  CYS799  TRP800  GLU811  SER814 

> <Gold.Protein.RotatedAtoms>
  152.3195  134.7398  160.0316 H   0  0  0  0  0  0  0  0  0  0  0  0  # atno 6907 bound_to 6896
  151.7851  133.3348  159.3491 H   0  0  0  0  0  0  0  0  0  0  0  0  # atno 6908 bound_to 6896
  150.7362  134.5825  159.5990 H   0  0  0  0  0  0  0  0  0  0  0  0  # atno 6909 bound_to 6896
  145.4765  140.9558  143.1888 H   0  0  0  0  0  0  0  0  0  0  0  0  # atno 7974 bound_to 7965
  156.2798  140.2741  156.1775 H   0  0  0  0  0  0  0  0  0  0  0  0  # atno 8008 bound_to 7997
  155.0591  140.0386  157.2588 H   0  0  0  0  0  0  0  0  0  0  0  0  # atno 8009 bound_to 7997
  154.7132  140.2673  155.6615 H   0  0  0  0  0  0  0  0  0  0  0  0  # atno 8010 bound_to 7997
  139.5218  144.6518  151.5280 H   0  0  0  0  0  0  0  0  0  0  0  0  # atno 10167 bound_to 10162
  157.0217  130.6157  149.5722 H   0  0  0  0  0  0  0  0  0  0  0  0  # atno 10718 bound_to 10713
  153.0567  135.6541  154.0561 H   0  0  0  0  0  0  0  0  0  0  0  0  # atno 10763 bound_to 10752
  154.0238  135.2917  155.3379 H   0  0  0  0  0  0  0  0  0  0  0  0  # atno 10764 bound_to 10752
  154.6885  135.5292  153.8427 H   0  0  0  0  0  0  0  0  0  0  0  0  # atno 10765 bound_to 10752
  140.1991  134.8351  157.2998 H   0  0  0  0  0  0  0  0  0  0  0  0  # atno 11005 bound_to 11000
  144.7914  139.6321  143.7111 LP  0  0  0  0  0  0  0  0  0  0  0  0  # atno 17320 bound_to 7965
  146.2366  139.5918  142.9519 LP  0  0  0  0  0  0  0  0  0  0  0  0  # atno 17321 bound_to 7965
  140.6326  143.9047  150.6619 LP  0  0  0  0  0  0  0  0  0  0  0  0  # atno 17342 bound_to 10162
  140.2356  143.3703  152.1530 LP  0  0  0  0  0  0  0  0  0  0  0  0  # atno 17343 bound_to 10162
  156.0100  130.5191  150.7957 LP  0  0  0  0  0  0  0  0  0  0  0  0  # atno 17370 bound_to 10713
  157.5245  131.0933  151.0036 LP  0  0  0  0  0  0  0  0  0  0  0  0  # atno 17371 bound_to 10713
  140.2074  134.4180  155.7630 LP  0  0  0  0  0  0  0  0  0  0  0  0  # atno 17394 bound_to 11000
  141.2227  133.7101  156.8282 LP  0  0  0  0  0  0  0  0  0  0  0  0  # atno 17395 bound_to 11000

$$$$
