AV-unprocessed.smi:3248|AV-procd|sdf|12416|dock7
  -GOLD-   2272018303D 1   1.00000     0.00000
 Structure written by MMmdl.
 38 39  0  0  0  0  0  0  0  0  1 V2000
  152.5521  138.8976  159.7476 C   0  0  0  0  0  0  0  0  0  0  0  0
  151.9129  140.2727  159.5137 C   0  0  1  0  0  0  0  0  0  0  0  0
  152.7742  141.4053  160.1105 C   0  0  0  0  0  0  0  0  0  0  0  0
  152.2386  142.7239  159.8198 N   0  0  0  0  0  0  0  0  0  0  0  0
  152.0416  143.7781  160.6863 C   0  0  0  0  0  0  0  0  0  0  0  0
  151.4979  144.8011  159.9640 C   0  0  0  0  0  0  0  0  0  0  0  0
  151.4004  144.2710  158.6472 C   0  0  0  0  0  0  0  0  0  0  0  0
  151.8470  143.0285  158.5631 N   0  0  0  0  0  0  0  0  0  0  0  0
  151.7246  140.4749  158.0779 N   0  0  0  0  0  0  0  0  0  0  0  0
  151.2198  139.5762  157.2145 C   0  0  0  0  0  0  0  0  0  0  0  0
  150.9690  138.4146  157.5355 O   0  0  0  0  0  0  0  0  0  0  0  0
  151.1183  140.0519  155.9497 N   0  0  0  0  0  0  0  0  0  0  0  0
  150.5318  141.3759  155.6948 C   0  0  0  0  0  0  0  0  0  0  0  0
  149.0290  141.1941  155.4048 C   0  0  0  0  0  0  0  0  0  0  0  0
  148.8525  140.3233  154.2900 O   0  0  0  0  0  0  0  0  0  0  0  0
  149.4525  139.0423  154.4724 C   0  0  0  0  0  0  0  0  0  0  0  0
  150.9606  139.2193  154.7413 C   0  0  2  0  0  0  0  0  0  0  0  0
  151.7250  137.8789  154.7570 C   0  0  0  0  0  0  0  0  0  0  0  0
  152.6818  138.7024  160.8125 H   0  0  0  0  0  0  0  0  0  0  0  0
  153.5322  138.8282  159.2746 H   0  0  0  0  0  0  0  0  0  0  0  0
  151.9284  138.1004  159.3416 H   0  0  0  0  0  0  0  0  0  0  0  0
  150.9469  140.2689  160.0215 H   0  0  0  0  0  0  0  0  0  0  0  0
  152.8306  141.3005  161.1947 H   0  0  0  0  0  0  0  0  0  0  0  0
  153.7988  141.3447  159.7392 H   0  0  0  0  0  0  0  0  0  0  0  0
  152.2957  143.7099  161.7339 H   0  0  0  0  0  0  0  0  0  0  0  0
  151.2111  145.7785  160.3218 H   0  0  0  0  0  0  0  0  0  0  0  0
  151.0199  144.7482  157.7562 H   0  0  0  0  0  0  0  0  0  0  0  0
  151.9468  141.3918  157.7186 H   0  0  0  0  0  0  0  0  0  0  0  0
  150.6578  142.0699  156.5267 H   0  0  0  0  0  0  0  0  0  0  0  0
  151.0277  141.8425  154.8428 H   0  0  0  0  0  0  0  0  0  0  0  0
  148.5104  140.7895  156.2751 H   0  0  0  0  0  0  0  0  0  0  0  0
  148.5688  142.1557  155.1783 H   0  0  0  0  0  0  0  0  0  0  0  0
  148.9639  138.5115  155.2911 H   0  0  0  0  0  0  0  0  0  0  0  0
  149.2927  138.4538  153.5687 H   0  0  0  0  0  0  0  0  0  0  0  0
  151.3840  139.7833  153.9081 H   0  0  0  0  0  0  0  0  0  0  0  0
  151.7240  137.4298  153.7635 H   0  0  0  0  0  0  0  0  0  0  0  0
  151.2767  137.1492  155.4306 H   0  0  0  0  0  0  0  0  0  0  0  0
  152.7660  138.0196  155.0486 H   0  0  0  0  0  0  0  0  0  0  0  0
  1  2  1  0  0  0  0
  1 19  1  0  0  0  0
  1 20  1  0  0  0  0
  1 21  1  0  0  0  0
  2  3  1  0  0  0  0
  2  9  1  0  0  0  0
  2 22  1  0  0  0  0
  3  4  1  0  0  0  0
  3 23  1  0  0  0  0
  3 24  1  0  0  0  0
  4  8  1  0  0  0  0
  4  5  1  0  0  0  0
  5  6  2  0  0  0  0
  5 25  1  0  0  0  0
  6  7  1  0  0  0  0
  6 26  1  0  0  0  0
  7  8  2  0  0  0  0
  7 27  1  0  0  0  0
  9 10  1  0  0  0  0
  9 28  1  0  0  0  0
 10 11  2  0  0  0  0
 10 12  1  0  0  0  0
 12 17  1  0  0  0  0
 12 13  1  0  0  0  0
 13 14  1  0  0  0  0
 13 29  1  0  0  0  0
 13 30  1  0  0  0  0
 14 15  1  0  0  0  0
 14 31  1  0  0  0  0
 14 32  1  0  0  0  0
 15 16  1  0  0  0  0
 16 17  1  0  0  0  0
 16 33  1  0  0  0  0
 16 34  1  0  0  0  0
 17 18  1  0  0  0  0
 17 35  1  0  0  0  0
 18 36  1  0  0  0  0
 18 37  1  0  0  0  0
 18 38  1  0  0  0  0
M  END
> <s_m_source_file>
AV-unprocessed.smi

> <i_m_source_file_index>
3248

> <i_lp_mmshare_version>
43012

> <i_f3d_flags>
0

> <s_epik_input>
bjFbY0hdW2NIXVtjSF1uMVtDSDJdW0NAQEhdKFtDSDNdKVtOSF1DKD1PKU4yW0NIMl1bQ0gyXU9bQ0gyXVtDQEhdMltDSDNd

> <s_epik_cmdline>
J2VwaWtfcHl0aG9uJywgJy1waCcsICc3LjAnLCAnLXRuJywgJzgnLCAnLW1hJywgJzIwMCcsICctbWV0YWxfYmluZGluZycsICctaW1hZScsICc8aW5maWxlLm1hZT4nLCAnLW9tYWUnLCAnPG91dGZpbGUubWFlPic=

> <r_lp_tautomer_probability>
1

> <r_epik_Ionization_Penalty>
4.45233e-05

> <r_epik_Ionization_Penalty_Charging>
0

> <r_epik_Ionization_Penalty_Neutral>
4.45233e-05

> <r_epik_State_Penalty>
-0

> <r_epik_Charging_Adjusted_Penalty>
0

> <i_epik_Tot_Q>
0

> <i_epik_Tot_abs_Q>
0

> <r_epik_Metal_State_Penalty>
-0

> <b_epik_Metal_Only>
0

> <s_lp_Force_Field>
OPLS_2005

> <r_lp_Energy>
30.7838

> <b_lp_Chiralities_Consistent>
1

> <s_lp_Variant>
AV-unprocessed.smi:3248-4

> <Gold.Version>
5.8.1

> <Gold.Id.Protein>
6NUR|6NUR_protein|mol2

> <Gold.PLP.Fitness>
43.4914

> <Gold.PLP.PLP>
-41.4187

> <Gold.PLP.part.hbond>
0.0000

> <Gold.PLP.part.metal>
0.0000

> <Gold.PLP.part.buried>
-4.7550

> <Gold.PLP.part.nonpolar>
-36.3967

> <Gold.PLP.part.repulsive>
0.2483

> <Gold.PLP.ligand.clash>
0.0000

> <Gold.PLP.ligand.torsion>
0.7248

> <Gold.PLP.Chemscore.Hbond>
0.0000

> <Gold.PLP.Chemscore.CHOScore>
1.0000

> <Gold.PLP.Chemscore.Metal>
0.0000

> <Gold.PLP.Chemscore.Internal.Correction>
0.5224

> <Gold.Rescore>
     Score         DG    S(hbond)    S(metal)    S(lipo)     H(rot)  DE(clash)    DE(int)     intcor
      9.81     -13.12       0.00        0.00      96.33       1.42       0.06       3.25       ----

> <Gold.Chemscore.Fitness>
9.8131

> <Gold.Chemscore.DG>
-13.1175

> <Gold.Chemscore.ZeroCoef>
-5.4800

> <Gold.Chemscore.Hbond>
0.0000

> <Gold.Chemscore.Metal>
0.0000

> <Gold.Chemscore.Lipo>
96.3289

> <Gold.Chemscore.Internal_Hbond>
0.0000

> <Gold.Chemscore.DEClash>
0.0580

> <Gold.Chemscore.DEInternal>
3.2464

> <Gold.Chemscore.Rot>
1.4191

> <Gold.Chemscore.Internal.Correction>
   9.000000E+99

> <Gold.Chemscore.Hbond.Weighted>
-0.0000

> <Gold.Chemscore.Metal.Weighted>
-0.0000

> <Gold.Chemscore.Lipo.Weighted>
-11.2705

> <Gold.Chemscore.Internal_Hbond.Weighted>
0.0000

> <Gold.Chemscore.DEClash.Weighted>
0.0580

> <Gold.Chemscore.DEInternal.Weighted>
3.2464

> <Gold.Chemscore.Rot.Weighted>
3.6330

> <Gold.Chemscore.Internal.Correction.Weighted>
   9.000000E+99

> <Gold.Protein.RotatedTorsions>
[ 6907 6896 6895 6894 ] final  -57.83 input  -60.11 | X-H torsion
[ 7974 7965 7964 7962 ] final   27.51 input  175.53 | X-H torsion
[ 8008 7997 7996 7995 ] final  -84.31 input   59.86 | X-H torsion
[ 10167 10162 10161 10158 ] final  167.73 input  -65.29 | X-H torsion
[ 10718 10713 10712 10709 ] final   51.33 input   66.30 | X-H torsion
[ 10763 10752 10751 10750 ] final  -80.99 input  -60.55 | X-H torsion
[ 11005 11000 10999 10996 ] final  -14.63 input  -57.11 | X-H torsion

> <Gold.Protein.ActiveResidues>
 VAL166  LYS551  ARG553  GLY616  TRP617  ASP618  TYR619  PRO620  LYS621  CYS622 
 ASP623  PHE694  ASN695  SER759  ASP760  ASP761  ALA762  ILE779  LEU786  VAL792 
 PHE793  MET794  SER795  GLU796  ALA797  LYS798  CYS799  TRP800  GLU811  SER814 

> <Gold.Protein.RotatedAtoms>
  150.8054  134.7176  159.6639 H   0  0  0  0  0  0  0  0  0  0  0  0  # atno 6907 bound_to 6896
  152.4174  134.6014  160.0011 H   0  0  0  0  0  0  0  0  0  0  0  0  # atno 6908 bound_to 6896
  151.6240  133.3300  159.3130 H   0  0  0  0  0  0  0  0  0  0  0  0  # atno 6909 bound_to 6896
  146.1780  139.7181  142.8921 H   0  0  0  0  0  0  0  0  0  0  0  0  # atno 7974 bound_to 7965
  154.6284  140.0607  156.9702 H   0  0  0  0  0  0  0  0  0  0  0  0  # atno 8008 bound_to 7997
  155.1705  140.3290  155.4375 H   0  0  0  0  0  0  0  0  0  0  0  0  # atno 8009 bound_to 7997
  156.2470  140.1915  156.6807 H   0  0  0  0  0  0  0  0  0  0  0  0  # atno 8010 bound_to 7997
  139.4952  144.3890  151.9538 H   0  0  0  0  0  0  0  0  0  0  0  0  # atno 10167 bound_to 10162
  157.4970  130.8413  149.8270 H   0  0  0  0  0  0  0  0  0  0  0  0  # atno 10718 bound_to 10713
  154.5580  135.5642  153.6982 H   0  0  0  0  0  0  0  0  0  0  0  0  # atno 10763 bound_to 10752
  153.0009  135.6267  154.2283 H   0  0  0  0  0  0  0  0  0  0  0  0  # atno 10764 bound_to 10752
  154.2220  135.2869  155.2901 H   0  0  0  0  0  0  0  0  0  0  0  0  # atno 10765 bound_to 10752
  140.7884  133.8307  155.9356 H   0  0  0  0  0  0  0  0  0  0  0  0  # atno 11005 bound_to 11000
  145.4157  141.0401  143.2992 LP  0  0  0  0  0  0  0  0  0  0  0  0  # atno 17320 bound_to 7965
  144.8268  139.5697  143.6962 LP  0  0  0  0  0  0  0  0  0  0  0  0  # atno 17321 bound_to 7965
  140.3328  144.3296  150.5983 LP  0  0  0  0  0  0  0  0  0  0  0  0  # atno 17342 bound_to 10162
  140.5631  143.2189  151.7731 LP  0  0  0  0  0  0  0  0  0  0  0  0  # atno 17343 bound_to 10162
  156.0206  130.3797  150.1973 LP  0  0  0  0  0  0  0  0  0  0  0  0  # atno 17370 bound_to 10713
  157.0162  130.9966  151.3352 LP  0  0  0  0  0  0  0  0  0  0  0  0  # atno 17371 bound_to 10713
  140.9414  134.1896  157.4795 LP  0  0  0  0  0  0  0  0  0  0  0  0  # atno 17394 bound_to 11000
  139.8734  134.9873  156.5363 LP  0  0  0  0  0  0  0  0  0  0  0  0  # atno 17395 bound_to 11000

$$$$
