AV-unprocessed.smi:848|AV-procd|sdf|3941|dock3
  -GOLD-   22720 1403D 1   1.00000     0.00000
 Structure written by MMmdl.
 47 49  0  0  0  0  0  0  0  0  2 V2000
  151.8640  145.3959  158.8459 C   0  0  0  0  0  0  0  0  0  0  0  0
  152.1586  143.9119  158.9219 C   0  0  0  0  0  0  0  0  0  0  0  0
  152.9241  143.3925  159.9847 C   0  0  0  0  0  0  0  0  0  0  0  0
  153.1966  142.0125  160.0498 C   0  0  0  0  0  0  0  0  0  0  0  0
  154.0204  141.4618  161.1957 C   0  0  0  0  0  0  0  0  0  0  0  0
  152.7013  141.1536  159.0474 C   0  0  0  0  0  0  0  0  0  0  0  0
  151.9339  141.6569  157.9769 C   0  0  0  0  0  0  0  0  0  0  0  0
  151.4936  140.7451  157.0412 O   0  0  0  0  0  0  0  0  0  0  0  0
  150.3208  141.0537  156.2993 C   0  0  0  0  0  0  0  0  0  0  0  0
  150.0533  139.9248  155.2930 C   0  0  2  0  0  0  0  0  0  0  0  0
  150.0729  140.4732  153.9900 O   0  0  0  0  0  0  0  0  0  0  0  0
  148.7109  139.2096  155.5484 C   0  0  0  0  0  0  0  0  0  0  0  0
  147.5496  140.0137  155.1350 N   0  0  0  0  0  0  0  0  0  0  0  0
  146.7889  139.9343  154.0054 C   0  0  0  0  0  0  0  0  0  0  0  0
  146.9550  138.9692  152.8785 C   0  0  0  0  0  0  0  0  0  0  0  0
  146.9933  139.6131  151.6244 O   0  0  0  0  0  0  0  0  0  0  0  0
  145.8293  140.8976  154.0953 N   0  3  0  0  0  0  0  0  0  0  0  0
  145.9778  141.6021  155.2905 C   0  0  0  0  0  0  0  0  0  0  0  0
  145.2475  142.6624  155.8186 C   0  0  0  0  0  0  0  0  0  0  0  0
  145.6653  143.1568  157.0715 C   0  0  0  0  0  0  0  0  0  0  0  0
  146.7680  142.5988  157.7500 C   0  0  0  0  0  0  0  0  0  0  0  0
  147.4993  141.5224  157.2058 C   0  0  0  0  0  0  0  0  0  0  0  0
  147.0810  141.0394  155.9655 C   0  0  0  0  0  0  0  0  0  0  0  0
  151.6648  143.0478  157.9231 C   0  0  0  0  0  0  0  0  0  0  0  0
  152.3082  145.9340  159.6838 H   0  0  0  0  0  0  0  0  0  0  0  0
  150.7877  145.5687  158.8625 H   0  0  0  0  0  0  0  0  0  0  0  0
  152.2648  145.8138  157.9222 H   0  0  0  0  0  0  0  0  0  0  0  0
  153.3044  144.0511  160.7523 H   0  0  0  0  0  0  0  0  0  0  0  0
  154.1440  140.3814  161.1157 H   0  0  0  0  0  0  0  0  0  0  0  0
  153.5357  141.6796  162.1477 H   0  0  0  0  0  0  0  0  0  0  0  0
  155.0105  141.9184  161.2025 H   0  0  0  0  0  0  0  0  0  0  0  0
  152.9103  140.0948  159.0957 H   0  0  0  0  0  0  0  0  0  0  0  0
  149.4643  141.1754  156.9647 H   0  0  0  0  0  0  0  0  0  0  0  0
  150.4688  141.9918  155.7610 H   0  0  0  0  0  0  0  0  0  0  0  0
  150.8675  139.2018  155.3508 H   0  0  0  0  0  0  0  0  0  0  0  0
  149.6081  141.2957  154.0036 H   0  0  0  0  0  0  0  0  0  0  0  0
  148.6715  138.2783  154.9822 H   0  0  0  0  0  0  0  0  0  0  0  0
  148.6034  138.9274  156.5956 H   0  0  0  0  0  0  0  0  0  0  0  0
  147.8775  138.4048  153.0170 H   0  0  0  0  0  0  0  0  0  0  0  0
  146.1360  138.2500  152.8859 H   0  0  0  0  0  0  0  0  0  0  0  0
  147.8632  139.5231  151.2660 H   0  0  0  0  0  0  0  0  0  0  0  0
  144.4025  143.0917  155.3004 H   0  0  0  0  0  0  0  0  0  0  0  0
  145.1302  143.9814  157.5203 H   0  0  0  0  0  0  0  0  0  0  0  0
  147.0599  143.0049  158.7076 H   0  0  0  0  0  0  0  0  0  0  0  0
  148.3435  141.1065  157.7349 H   0  0  0  0  0  0  0  0  0  0  0  0
  151.0820  143.4770  157.1221 H   0  0  0  0  0  0  0  0  0  0  0  0
  145.1228  141.0564  153.3887 H   0  0  0  0  0  0  0  0  0  0  0  0
  1  2  1  0  0  0  0
  1 25  1  0  0  0  0
  1 26  1  0  0  0  0
  1 27  1  0  0  0  0
  2 24  1  0  0  0  0
  2  3  2  0  0  0  0
  3  4  1  0  0  0  0
  3 28  1  0  0  0  0
  4  5  1  0  0  0  0
  4  6  2  0  0  0  0
  5 29  1  0  0  0  0
  5 30  1  0  0  0  0
  5 31  1  0  0  0  0
  6  7  1  0  0  0  0
  6 32  1  0  0  0  0
  7  8  1  0  0  0  0
  7 24  2  0  0  0  0
  8  9  1  0  0  0  0
  9 10  1  0  0  0  0
  9 33  1  0  0  0  0
  9 34  1  0  0  0  0
 10 11  1  0  0  0  0
 10 12  1  0  0  0  0
 10 35  1  0  0  0  0
 11 36  1  0  0  0  0
 12 13  1  0  0  0  0
 12 37  1  0  0  0  0
 12 38  1  0  0  0  0
 13 23  1  0  0  0  0
 13 14  1  0  0  0  0
 14 15  1  0  0  0  0
 14 17  2  0  0  0  0
 15 16  1  0  0  0  0
 15 39  1  0  0  0  0
 15 40  1  0  0  0  0
 16 41  1  0  0  0  0
 17 18  1  0  0  0  0
 17 47  1  0  0  0  0
 18 23  2  0  0  0  0
 18 19  1  0  0  0  0
 19 20  2  0  0  0  0
 19 42  1  0  0  0  0
 20 21  1  0  0  0  0
 20 43  1  0  0  0  0
 21 22  2  0  0  0  0
 21 44  1  0  0  0  0
 22 23  1  0  0  0  0
 22 45  1  0  0  0  0
 24 46  1  0  0  0  0
M  CHG  1  17   1
M  END
> <s_m_source_file>
AV-unprocessed.smi

> <i_m_source_file_index>
848

> <i_lp_mmshare_version>
43012

> <i_f3d_flags>
0

> <s_epik_input>
W0NIM11jMVtjSF1jKFtDSDNdKVtjSF1jKFtjSF0xKU9bQ0gyXVtDQEhdKFtPSF0pW0NIMl1uKGMobjIpW0NIMl1bT0hdKWMoYzIzKVtjSF1bY0hdW2NIXVtjSF0z

> <s_epik_cmdline>
J2VwaWtfcHl0aG9uJywgJy1waCcsICc3LjAnLCAnLXRuJywgJzgnLCAnLW1hJywgJzIwMCcsICctbWV0YWxfYmluZGluZycsICctaW1hZScsICc8aW5maWxlLm1hZT4nLCAnLW9tYWUnLCAnPG91dGZpbGUubWFlPic=

> <r_lp_tautomer_probability>
1

> <r_epik_Ionization_Penalty>
1.43292

> <r_epik_Ionization_Penalty_Charging>
1.43206

> <r_epik_Ionization_Penalty_Neutral>
0.000858184

> <r_epik_State_Penalty>
1.51673

> <r_epik_Charging_Adjusted_Penalty>
2.94879

> <i_epik_Tot_Q>
1

> <i_epik_Tot_abs_Q>
1

> <r_epik_Metal_State_Penalty>
5.56186

> <b_epik_Metal_Only>
0

> <s_lp_Force_Field>
OPLS_2005

> <r_lp_Energy>
18.3298

> <b_lp_Chiralities_Consistent>
1

> <s_lp_Variant>
AV-unprocessed.smi:848-3

> <Gold.Version>
5.8.1

> <Gold.Id.Protein>
6NUR|6NUR_protein|mol2

> <Gold.PLP.Fitness>
55.1693

> <Gold.PLP.PLP>
-46.8987

> <Gold.PLP.part.hbond>
-3.8332

> <Gold.PLP.part.metal>
0.0000

> <Gold.PLP.part.buried>
-7.4495

> <Gold.PLP.part.nonpolar>
-36.1987

> <Gold.PLP.part.repulsive>
0.0000

> <Gold.PLP.ligand.clash>
0.0000

> <Gold.PLP.ligand.torsion>
1.5505

> <Gold.PLP.Chemscore.Hbond>
3.7680

> <Gold.PLP.Chemscore.CHOScore>
0.0000

> <Gold.PLP.Chemscore.Metal>
0.0000

> <Gold.Chemscore.Hbonds>
donor molecule, donor type, donor heavy atom, donor atom, acceptor molecule, acceptor atom, score
      L1  H    16    41       P1  7957  1.00
      L1  H    17    47       P1 10175  2.00
      P1  H  7989  7998       L1    11  0.75

> <Gold.PLP.Chemscore.Internal.Correction>
0.0677

> <Gold.Rescore>
     Score         DG    S(hbond)    S(metal)    S(lipo)     H(rot)  DE(clash)    DE(int)     intcor
     17.31     -19.95       2.54        0.00     117.83       3.05       0.01       2.63       ----

> <Gold.Chemscore.Fitness>
17.3065

> <Gold.Chemscore.DG>
-19.9479

> <Gold.Chemscore.ZeroCoef>
-5.4800

> <Gold.Chemscore.Hbond>
2.5400

> <Gold.Chemscore.Metal>
0.0000

> <Gold.Chemscore.Lipo>
117.8291

> <Gold.Chemscore.Internal_Hbond>
0.0000

> <Gold.Chemscore.DEClash>
0.0089

> <Gold.Chemscore.DEInternal>
2.6325

> <Gold.Chemscore.Rot>
3.0476

> <Gold.Chemscore.Internal.Correction>
   9.000000E+99

> <Gold.Chemscore.Hbonds>
donor molecule, donor type, donor heavy atom, donor atom, acceptor molecule, acceptor atom, score
      L1  H    16    41       P1  7957  0.90
      L1  H    17    47       P1 10175  0.48
      P1  H  7989  7998       L1    11  0.28

> <Gold.Chemscore.Hbond.Weighted>
-8.4837

> <Gold.Chemscore.Metal.Weighted>
-0.0000

> <Gold.Chemscore.Lipo.Weighted>
-13.7860

> <Gold.Chemscore.Internal_Hbond.Weighted>
0.0000

> <Gold.Chemscore.DEClash.Weighted>
0.0089

> <Gold.Chemscore.DEInternal.Weighted>
2.6325

> <Gold.Chemscore.Rot.Weighted>
7.8018

> <Gold.Chemscore.Internal.Correction.Weighted>
   9.000000E+99

> <Gold.Protein.RotatedTorsions>
[ 6907 6896 6895 6894 ] final  -90.79 input  -60.11 | X-H torsion
[ 7974 7965 7964 7962 ] final  135.71 input  175.53 | X-H torsion
[ 8008 7997 7996 7995 ] final  -89.26 input   59.86 | X-H torsion
[ 10167 10162 10161 10158 ] final   92.41 input  -65.29 | X-H torsion
[ 10718 10713 10712 10709 ] final  -71.57 input   66.30 | X-H torsion
[ 10763 10752 10751 10750 ] final   89.98 input  -60.55 | X-H torsion
[ 11005 11000 10999 10996 ] final  163.08 input  -57.11 | X-H torsion

> <Gold.Protein.ActiveResidues>
 VAL166  LYS551  ARG553  GLY616  TRP617  ASP618  TYR619  PRO620  LYS621  CYS622 
 ASP623  PHE694  ASN695  SER759  ASP760  ASP761  ALA762  ILE779  LEU786  VAL792 
 PHE793  MET794  SER795  GLU796  ALA797  LYS798  CYS799  TRP800  GLU811  SER814 

> <Gold.Protein.RotatedAtoms>
  150.6885  134.2377  159.4459 H   0  0  0  0  0  0  0  0  0  0  0  0  # atno 6907 bound_to 6896
  152.0324  134.9757  160.0582 H   0  0  0  0  0  0  0  0  0  0  0  0  # atno 6908 bound_to 6896
  152.1292  133.4363  159.4749 H   0  0  0  0  0  0  0  0  0  0  0  0  # atno 6909 bound_to 6896
  144.9637  139.4682  143.5467 H   0  0  0  0  0  0  0  0  0  0  0  0  # atno 7974 bound_to 7965
  154.6844  140.0544  157.0300 H   0  0  0  0  0  0  0  0  0  0  0  0  # atno 8008 bound_to 7997
  155.0905  140.3219  155.4556 H   0  0  0  0  0  0  0  0  0  0  0  0  # atno 8009 bound_to 7997
  156.2706  140.2049  156.6032 H   0  0  0  0  0  0  0  0  0  0  0  0  # atno 8010 bound_to 7997
  139.8280  144.6700  150.9435 H   0  0  0  0  0  0  0  0  0  0  0  0  # atno 10167 bound_to 10162
  156.0357  130.4354  150.2463 H   0  0  0  0  0  0  0  0  0  0  0  0  # atno 10718 bound_to 10713
  153.1927  135.4450  155.0170 H   0  0  0  0  0  0  0  0  0  0  0  0  # atno 10763 bound_to 10752
  154.8100  135.3290  154.7332 H   0  0  0  0  0  0  0  0  0  0  0  0  # atno 10764 bound_to 10752
  153.7785  135.6979  153.4948 H   0  0  0  0  0  0  0  0  0  0  0  0  # atno 10765 bound_to 10752
  140.2322  134.8115  157.3328 H   0  0  0  0  0  0  0  0  0  0  0  0  # atno 11005 bound_to 11000
  146.3361  139.8803  142.8825 LP  0  0  0  0  0  0  0  0  0  0  0  0  # atno 17320 bound_to 7965
  145.2662  141.0093  143.3798 LP  0  0  0  0  0  0  0  0  0  0  0  0  # atno 17321 bound_to 7965
  140.7809  143.4028  151.1120 LP  0  0  0  0  0  0  0  0  0  0  0  0  # atno 17342 bound_to 10162
  139.7684  143.8531  152.3115 LP  0  0  0  0  0  0  0  0  0  0  0  0  # atno 17343 bound_to 10162
  157.0563  131.0077  151.3237 LP  0  0  0  0  0  0  0  0  0  0  0  0  # atno 17370 bound_to 10713
  157.5103  130.7935  149.7698 LP  0  0  0  0  0  0  0  0  0  0  0  0  # atno 17371 bound_to 10713
  140.1738  134.4575  155.7814 LP  0  0  0  0  0  0  0  0  0  0  0  0  # atno 17394 bound_to 11000
  141.2217  133.6953  156.7753 LP  0  0  0  0  0  0  0  0  0  0  0  0  # atno 17395 bound_to 11000

$$$$
