AV-unprocessed.smi:52|AV-procd|sdf|507|dock3
  -GOLD-   2262016383D 1   1.00000     0.00000
 Structure written by MMmdl.
 27 28  0  0  0  0  0  0  0  0  3 V2000
  151.0374  135.6960  155.2511 O   0  0  0  0  0  0  0  0  0  0  0  0
  150.7460  136.5889  156.0770 C   0  0  0  0  0  0  0  0  0  0  0  0
  150.5238  136.3300  157.2803 O   0  5  0  0  0  0  0  0  0  0  0  0
  150.6570  137.9976  155.6138 C   0  0  0  0  0  0  0  0  0  0  0  0
  150.6727  138.4382  154.3144 C   0  0  0  0  0  0  0  0  0  0  0  0
  150.5586  139.8021  154.3003 O   0  0  0  0  0  0  0  0  0  0  0  0
  150.4805  140.1443  155.6147 C   0  0  0  0  0  0  0  0  0  0  0  0
  150.3195  141.5829  155.9800 C   0  0  0  0  0  0  0  0  0  0  0  0
  148.9221  141.9023  155.6002 N   0  3  2  0  0  0  0  0  0  0  0  0
  147.8984  141.1680  156.3824 C   0  0  0  0  0  0  0  0  0  0  0  0
  146.8793  140.6157  155.3780 C   0  0  0  0  0  0  0  0  0  0  0  0
  147.0947  141.4650  154.1297 C   0  0  2  0  0  0  0  0  0  0  0  0
  146.6926  140.7908  152.9560 O   0  0  0  0  0  0  0  0  0  0  0  0
  148.5974  141.7301  154.1647 C   0  0  0  0  0  0  0  0  0  0  0  0
  150.5361  139.1051  156.4438 N   0  0  0  0  0  0  0  0  0  0  0  0
  146.5479  142.4048  154.2201 H   0  0  0  0  0  0  0  0  0  0  0  0
  150.7496  137.9425  153.3579 H   0  0  0  0  0  0  0  0  0  0  0  0
  150.5052  141.7427  157.0430 H   0  0  0  0  0  0  0  0  0  0  0  0
  151.0283  142.1798  155.4049 H   0  0  0  0  0  0  0  0  0  0  0  0
  148.3289  140.3616  156.9782 H   0  0  0  0  0  0  0  0  0  0  0  0
  147.4238  141.8689  157.0698 H   0  0  0  0  0  0  0  0  0  0  0  0
  147.1144  139.5712  155.1656 H   0  0  0  0  0  0  0  0  0  0  0  0
  145.8539  140.6573  155.7471 H   0  0  0  0  0  0  0  0  0  0  0  0
  145.7846  140.9918  152.7858 H   0  0  0  0  0  0  0  0  0  0  0  0
  148.8809  142.6023  153.5745 H   0  0  0  0  0  0  0  0  0  0  0  0
  149.1369  140.8667  153.7702 H   0  0  0  0  0  0  0  0  0  0  0  0
  148.7789  142.8799  155.8101 H   0  0  0  0  0  0  0  0  0  0  0  0
  1  2  2  0  0  0  0
  2  3  1  0  0  0  0
  2  4  1  0  0  0  0
  4 15  1  0  0  0  0
  4  5  2  0  0  0  0
  5  6  1  0  0  0  0
  5 17  1  0  0  0  0
  6  7  1  0  0  0  0
  7  8  1  0  0  0  0
  7 15  2  0  0  0  0
  8  9  1  0  0  0  0
  8 18  1  0  0  0  0
  8 19  1  0  0  0  0
  9 14  1  0  0  0  0
  9 10  1  0  0  0  0
  9 27  1  0  0  0  0
 10 11  1  0  0  0  0
 10 20  1  0  0  0  0
 10 21  1  0  0  0  0
 11 12  1  0  0  0  0
 11 22  1  0  0  0  0
 11 23  1  0  0  0  0
 12 16  1  0  0  0  0
 12 13  1  0  0  0  0
 12 14  1  0  0  0  0
 13 24  1  0  0  0  0
 14 25  1  0  0  0  0
 14 26  1  0  0  0  0
M  CHG  1   3  -1
M  CHG  1   9   1
M  END
> <s_m_source_file>
AV-unprocessed.smi

> <i_m_source_file_index>
52

> <i_lp_mmshare_version>
43012

> <i_f3d_flags>
0

> <s_epik_input>
Tz1DKFtPSF0pYzFbY0hdb2MobjEpW0NIMl1OMltDSDJdW0NIMl1bQ0BIXShbT0hdKVtDSDJdMg==

> <s_epik_cmdline>
J2VwaWtfcHl0aG9uJywgJy1waCcsICc3LjAnLCAnLXRuJywgJzgnLCAnLW1hJywgJzIwMCcsICctbWV0YWxfYmluZGluZycsICctaW1hZScsICc8aW5maWxlLm1hZT4nLCAnLW9tYWUnLCAnPG91dGZpbGUubWFlPic=

> <r_epik_Ionization_Penalty>
0.0376014

> <r_epik_Ionization_Penalty_Charging>
0.0376013

> <r_epik_Ionization_Penalty_Neutral>
1.78687e-08

> <r_epik_State_Penalty>
0.0314164

> <r_epik_Charging_Adjusted_Penalty>
0.0690177

> <i_epik_Tot_Q>
0

> <i_epik_Tot_abs_Q>
2

> <r_epik_Metal_State_Penalty>
0.0314164

> <b_epik_Metal_Only>
0

> <s_lp_Force_Field>
OPLS_2005

> <r_lp_Energy>
21.1951

> <b_lp_Chiralities_Consistent>
1

> <s_lp_Variant>
AV-unprocessed.smi:52-1

> <Gold.Version>
5.8.1

> <Gold.Id.Protein>
6NUR|6NUR_protein|mol2

> <Gold.PLP.Fitness>
43.0399

> <Gold.PLP.PLP>
-22.2505

> <Gold.PLP.part.hbond>
-4.0000

> <Gold.PLP.part.metal>
0.0000

> <Gold.PLP.part.buried>
-3.4759

> <Gold.PLP.part.nonpolar>
-15.7242

> <Gold.PLP.part.repulsive>
0.8117

> <Gold.PLP.ligand.clash>
0.0000

> <Gold.PLP.ligand.torsion>
0.1997

> <Gold.PLP.Chemscore.Hbond>
6.0000

> <Gold.PLP.Chemscore.CHOScore>
1.0586

> <Gold.PLP.Chemscore.Metal>
0.0000

> <Gold.Chemscore.Hbonds>
donor molecule, donor type, donor heavy atom, donor atom, acceptor molecule, acceptor atom, score
      L1  H     9    27       P1  8028  2.00
      L1  H    13    24       P1 10175  0.62
      P1  H  7989  7998       L1     6  1.00
      P1  H 10752 10765       L1     1  2.00
      L1  C     5    17       P1  7948  0.13
      L1  C     5    17       P1  7949  0.41

> <Gold.PLP.Chemscore.Internal.Correction>
0.0130

> <Gold.Rescore>
     Score         DG    S(hbond)    S(metal)    S(lipo)     H(rot)  DE(clash)    DE(int)     intcor
     15.62     -17.43       3.75        0.00      38.61       1.99       0.02       1.80       ----

> <Gold.Chemscore.Fitness>
15.6171

> <Gold.Chemscore.DG>
-17.4336

> <Gold.Chemscore.ZeroCoef>
-5.4800

> <Gold.Chemscore.Hbond>
3.7530

> <Gold.Chemscore.Metal>
0.0000

> <Gold.Chemscore.Lipo>
38.6123

> <Gold.Chemscore.Internal_Hbond>
0.0000

> <Gold.Chemscore.DEClash>
0.0214

> <Gold.Chemscore.DEInternal>
1.7951

> <Gold.Chemscore.Rot>
1.9919

> <Gold.Chemscore.Internal.Correction>
   9.000000E+99

> <Gold.Chemscore.Hbonds>
donor molecule, donor type, donor heavy atom, donor atom, acceptor molecule, acceptor atom, score
      L1  H     9    27       P1  8028  1.00
      L1  H    13    24       P1 10175  0.14
      P1  H  7989  7998       L1     6  0.74
      P1  H 10752 10765       L1     1  0.92

> <Gold.Chemscore.Hbond.Weighted>
-12.5351

> <Gold.Chemscore.Metal.Weighted>
-0.0000

> <Gold.Chemscore.Lipo.Weighted>
-4.5176

> <Gold.Chemscore.Internal_Hbond.Weighted>
0.0000

> <Gold.Chemscore.DEClash.Weighted>
0.0214

> <Gold.Chemscore.DEInternal.Weighted>
1.7951

> <Gold.Chemscore.Rot.Weighted>
5.0991

> <Gold.Chemscore.Internal.Correction.Weighted>
   9.000000E+99

> <Gold.Protein.RotatedTorsions>
[ 6907 6896 6895 6894 ] final  -67.85 input  -60.11 | X-H torsion
[ 7974 7965 7964 7962 ] final  -14.07 input  175.53 | X-H torsion
[ 8008 7997 7996 7995 ] final   63.74 input   59.86 | X-H torsion
[ 10167 10162 10161 10158 ] final   76.96 input  -65.29 | X-H torsion
[ 10718 10713 10712 10709 ] final   61.70 input   66.30 | X-H torsion
[ 10763 10752 10751 10750 ] final -178.28 input  -60.55 | X-H torsion
[ 11005 11000 10999 10996 ] final  -12.78 input  -57.11 | X-H torsion

> <Gold.Protein.ActiveResidues>
 VAL166  LYS551  ARG553  GLY616  TRP617  ASP618  TYR619  PRO620  LYS621  CYS622 
 ASP623  PHE694  ASN695  SER759  ASP760  ASP761  ALA762  ILE779  LEU786  VAL792 
 PHE793  MET794  SER795  GLU796  ALA797  LYS798  CYS799  TRP800  GLU811  SER814 

> <Gold.Protein.RotatedAtoms>
  150.7387  134.5822  159.5944 H   0  0  0  0  0  0  0  0  0  0  0  0  # atno 6907 bound_to 6896
  152.3233  134.7350  160.0317 H   0  0  0  0  0  0  0  0  0  0  0  0  # atno 6908 bound_to 6896
  151.7858  133.3318  159.3521 H   0  0  0  0  0  0  0  0  0  0  0  0  # atno 6909 bound_to 6896
  146.2089  140.3296  142.8398 H   0  0  0  0  0  0  0  0  0  0  0  0  # atno 7974 bound_to 7965
  155.6350  140.3496  155.4695 H   0  0  0  0  0  0  0  0  0  0  0  0  # atno 8008 bound_to 7997
  155.9972  140.1206  157.0605 H   0  0  0  0  0  0  0  0  0  0  0  0  # atno 8009 bound_to 7997
  154.4237  140.1107  156.5633 H   0  0  0  0  0  0  0  0  0  0  0  0  # atno 8010 bound_to 7997
  139.9866  144.5787  150.7854 H   0  0  0  0  0  0  0  0  0  0  0  0  # atno 10167 bound_to 10162
  157.5847  130.9009  149.9494 H   0  0  0  0  0  0  0  0  0  0  0  0  # atno 10718 bound_to 10713
  154.5497  135.2812  155.1020 H   0  0  0  0  0  0  0  0  0  0  0  0  # atno 10763 bound_to 10752
  154.2471  135.6346  153.5231 H   0  0  0  0  0  0  0  0  0  0  0  0  # atno 10764 bound_to 10752
  152.9999  135.5574  154.6059 H   0  0  0  0  0  0  0  0  0  0  0  0  # atno 10765 bound_to 10752
  140.7693  133.8452  155.9193 H   0  0  0  0  0  0  0  0  0  0  0  0  # atno 11005 bound_to 11000
  144.8862  140.7465  143.5955 LP  0  0  0  0  0  0  0  0  0  0  0  0  # atno 17320 bound_to 7965
  145.3217  139.1786  143.4584 LP  0  0  0  0  0  0  0  0  0  0  0  0  # atno 17321 bound_to 7965
  140.7470  143.2899  151.3359 LP  0  0  0  0  0  0  0  0  0  0  0  0  # atno 17342 bound_to 10162
  139.6370  144.0611  152.2524 LP  0  0  0  0  0  0  0  0  0  0  0  0  # atno 17343 bound_to 10162
  156.0895  130.3664  150.0421 LP  0  0  0  0  0  0  0  0  0  0  0  0  # atno 17370 bound_to 10713
  156.8555  130.9473  151.3622 LP  0  0  0  0  0  0  0  0  0  0  0  0  # atno 17371 bound_to 10713
  140.9589  134.1681  157.4669 LP  0  0  0  0  0  0  0  0  0  0  0  0  # atno 17394 bound_to 11000
  139.8758  134.9937  156.5659 LP  0  0  0  0  0  0  0  0  0  0  0  0  # atno 17395 bound_to 11000

$$$$
