AV-unprocessed.smi:2267|AV-procd|sdf|9148|dock8
  -GOLD-   2272012353D 1   1.00000     0.00000
 Structure written by MMmdl.
 41 42  0  0  0  0  0  0  0  0  1 V2000
  151.7354  145.0795  159.0256 C   0  0  0  0  0  0  0  0  0  0  0  0
  151.8064  143.5813  158.8134 C   0  0  0  0  0  0  0  0  0  0  0  0
  152.3290  142.7445  159.8196 C   0  0  0  0  0  0  0  0  0  0  0  0
  152.3897  141.3539  159.6148 C   0  0  0  0  0  0  0  0  0  0  0  0
  151.9290  140.7991  158.4058 C   0  0  0  0  0  0  0  0  0  0  0  0
  151.4029  141.6214  157.3885 C   0  0  0  0  0  0  0  0  0  0  0  0
  150.9758  140.9946  156.2373 O   0  0  0  0  0  0  0  0  0  0  0  0
  151.5269  139.7241  155.9163 C   0  0  0  0  0  0  0  0  0  0  0  0
  150.7346  139.1197  154.7444 C   0  0  2  0  0  0  0  0  0  0  0  0
  150.2122  140.1986  153.9938 O   0  0  0  0  0  0  0  0  0  0  0  0
  149.5449  138.2626  155.2338 C   0  0  0  0  0  0  0  0  0  0  0  0
  149.9124  136.8462  155.4024 N   0  0  0  0  0  0  0  0  0  0  0  0
  151.1757  136.5932  155.9618 C   0  0  0  0  0  0  0  0  0  0  0  0
  151.6046  135.3890  156.1548 N   0  0  0  0  0  0  0  0  0  0  0  0
  150.8015  134.2988  155.8077 C   0  0  0  0  0  0  0  0  0  0  0  0
  151.4014  132.9301  156.0773 C   0  0  0  0  0  0  0  0  0  0  0  0
  149.5645  134.4755  155.2682 C   0  0  0  0  0  0  0  0  0  0  0  0
  148.6447  133.3265  154.8738 C   0  0  0  0  0  0  0  0  0  0  0  0
  149.0621  135.8408  155.0442 C   0  0  0  0  0  0  0  0  0  0  0  0
  147.9498  136.0742  154.5671 O   0  0  0  0  0  0  0  0  0  0  0  0
  151.3443  143.0220  157.6040 C   0  0  0  0  0  0  0  0  0  0  0  0
  152.3160  145.3849  159.8965 H   0  0  0  0  0  0  0  0  0  0  0  0
  150.7013  145.3891  159.1774 H   0  0  0  0  0  0  0  0  0  0  0  0
  152.1282  145.6064  158.1556 H   0  0  0  0  0  0  0  0  0  0  0  0
  152.6838  143.1642  160.7496 H   0  0  0  0  0  0  0  0  0  0  0  0
  152.7900  140.7116  160.3853 H   0  0  0  0  0  0  0  0  0  0  0  0
  151.9800  139.7304  158.2572 H   0  0  0  0  0  0  0  0  0  0  0  0
  152.5652  139.8736  155.6155 H   0  0  0  0  0  0  0  0  0  0  0  0
  151.5222  139.0513  156.7759 H   0  0  0  0  0  0  0  0  0  0  0  0
  151.4042  138.5237  154.1228 H   0  0  0  0  0  0  0  0  0  0  0  0
  149.9022  139.8670  153.1651 H   0  0  0  0  0  0  0  0  0  0  0  0
  149.1962  138.6377  156.1978 H   0  0  0  0  0  0  0  0  0  0  0  0
  148.6836  138.3892  154.5742 H   0  0  0  0  0  0  0  0  0  0  0  0
  151.7603  137.4775  156.2215 H   0  0  0  0  0  0  0  0  0  0  0  0
  151.4800  132.3572  155.1528 H   0  0  0  0  0  0  0  0  0  0  0  0
  150.7820  132.3742  156.7818 H   0  0  0  0  0  0  0  0  0  0  0  0
  152.4015  133.0124  156.5049 H   0  0  0  0  0  0  0  0  0  0  0  0
  147.7126  133.3820  155.4369 H   0  0  0  0  0  0  0  0  0  0  0  0
  149.0798  132.3454  155.0564 H   0  0  0  0  0  0  0  0  0  0  0  0
  148.4035  133.3855  153.8120 H   0  0  0  0  0  0  0  0  0  0  0  0
  150.9474  143.6892  156.8542 H   0  0  0  0  0  0  0  0  0  0  0  0
  1  2  1  0  0  0  0
  1 22  1  0  0  0  0
  1 23  1  0  0  0  0
  1 24  1  0  0  0  0
  2 21  1  0  0  0  0
  2  3  2  0  0  0  0
  3  4  1  0  0  0  0
  3 25  1  0  0  0  0
  4  5  2  0  0  0  0
  4 26  1  0  0  0  0
  5  6  1  0  0  0  0
  5 27  1  0  0  0  0
  6  7  1  0  0  0  0
  6 21  2  0  0  0  0
  7  8  1  0  0  0  0
  8  9  1  0  0  0  0
  8 28  1  0  0  0  0
  8 29  1  0  0  0  0
  9 10  1  0  0  0  0
  9 11  1  0  0  0  0
  9 30  1  0  0  0  0
 10 31  1  0  0  0  0
 11 12  1  0  0  0  0
 11 32  1  0  0  0  0
 11 33  1  0  0  0  0
 12 19  1  0  0  0  0
 12 13  1  0  0  0  0
 13 14  2  0  0  0  0
 13 34  1  0  0  0  0
 14 15  1  0  0  0  0
 15 16  1  0  0  0  0
 15 17  2  0  0  0  0
 16 35  1  0  0  0  0
 16 36  1  0  0  0  0
 16 37  1  0  0  0  0
 17 18  1  0  0  0  0
 17 19  1  0  0  0  0
 18 38  1  0  0  0  0
 18 39  1  0  0  0  0
 18 40  1  0  0  0  0
 19 20  2  0  0  0  0
 21 41  1  0  0  0  0
M  END
> <s_m_source_file>
AV-unprocessed.smi

> <i_m_source_file_index>
2267

> <i_lp_mmshare_version>
43012

> <i_f3d_flags>
0

> <s_epik_input>
W0NIM11jMVtjSF1bY0hdW2NIXWMoW2NIXTEpT1tDSDJdW0NASF0oW09IXSlbQ0gyXW4yW2NIXW5jKFtDSDNdKWMoW0NIM10pYzI9Tw==

> <s_epik_cmdline>
J2VwaWtfcHl0aG9uJywgJy1waCcsICc3LjAnLCAnLXRuJywgJzgnLCAnLW1hJywgJzIwMCcsICctbWV0YWxfYmluZGluZycsICctaW1hZScsICc8aW5maWxlLm1hZT4nLCAnLW9tYWUnLCAnPG91dGZpbGUubWFlPic=

> <r_lp_tautomer_probability>
1

> <r_epik_Ionization_Penalty>
3.72236e-05

> <r_epik_Ionization_Penalty_Charging>
8.38864e-08

> <r_epik_Ionization_Penalty_Neutral>
3.71397e-05

> <r_epik_State_Penalty>
-0

> <r_epik_Charging_Adjusted_Penalty>
8.38864e-08

> <i_epik_Tot_Q>
0

> <i_epik_Tot_abs_Q>
0

> <r_epik_Metal_State_Penalty>
-0

> <b_epik_Metal_Only>
0

> <s_lp_Force_Field>
OPLS_2005

> <r_lp_Energy>
23.9214

> <b_lp_Chiralities_Consistent>
1

> <s_lp_Variant>
AV-unprocessed.smi:2267-1

> <Gold.Version>
5.8.1

> <Gold.Id.Protein>
6NUR|6NUR_protein|mol2

> <Gold.PLP.Fitness>
45.5190

> <Gold.PLP.PLP>
-40.0989

> <Gold.PLP.part.hbond>
-3.0000

> <Gold.PLP.part.metal>
0.0000

> <Gold.PLP.part.buried>
-6.7611

> <Gold.PLP.part.nonpolar>
-31.3831

> <Gold.PLP.part.repulsive>
0.9010

> <Gold.PLP.ligand.clash>
0.3129

> <Gold.PLP.ligand.torsion>
1.4224

> <Gold.PLP.Chemscore.Hbond>
2.8453

> <Gold.PLP.Chemscore.CHOScore>
0.0000

> <Gold.PLP.Chemscore.Metal>
0.0000

> <Gold.Chemscore.Hbonds>
donor molecule, donor type, donor heavy atom, donor atom, acceptor molecule, acceptor atom, score
      L1  H    10    31       P1  7957  1.00
      P1  H  7989  7998       L1    10  0.82
      P1  H 10752 10763       L1    14  1.00

> <Gold.PLP.Chemscore.Internal.Correction>
0.0419

> <Gold.Rescore>
     Score         DG    S(hbond)    S(metal)    S(lipo)     H(rot)  DE(clash)    DE(int)     intcor
     15.77     -17.14       1.47        0.00     109.15       2.35       0.03       1.33       ----

> <Gold.Chemscore.Fitness>
15.7747

> <Gold.Chemscore.DG>
-17.1395

> <Gold.Chemscore.ZeroCoef>
-5.4800

> <Gold.Chemscore.Hbond>
1.4678

> <Gold.Chemscore.Metal>
0.0000

> <Gold.Chemscore.Lipo>
109.1510

> <Gold.Chemscore.Internal_Hbond>
0.0000

> <Gold.Chemscore.DEClash>
0.0300

> <Gold.Chemscore.DEInternal>
1.3348

> <Gold.Chemscore.Rot>
2.3490

> <Gold.Chemscore.Internal.Correction>
   9.000000E+99

> <Gold.Chemscore.Hbonds>
donor molecule, donor type, donor heavy atom, donor atom, acceptor molecule, acceptor atom, score
      L1  H    10    31       P1  7957  0.90
      P1  H  7989  7998       L1    10  0.04
      P1  H 10752 10763       L1    14  0.20

> <Gold.Chemscore.Hbond.Weighted>
-4.9024

> <Gold.Chemscore.Metal.Weighted>
-0.0000

> <Gold.Chemscore.Lipo.Weighted>
-12.7707

> <Gold.Chemscore.Internal_Hbond.Weighted>
0.0000

> <Gold.Chemscore.DEClash.Weighted>
0.0300

> <Gold.Chemscore.DEInternal.Weighted>
1.3348

> <Gold.Chemscore.Rot.Weighted>
6.0136

> <Gold.Chemscore.Internal.Correction.Weighted>
   9.000000E+99

> <Gold.Protein.RotatedTorsions>
[ 6907 6896 6895 6894 ] final    4.04 input  -60.11 | X-H torsion
[ 7974 7965 7964 7962 ] final  110.26 input  175.53 | X-H torsion
[ 8008 7997 7996 7995 ] final  148.86 input   59.86 | X-H torsion
[ 10167 10162 10161 10158 ] final  -49.23 input  -65.29 | X-H torsion
[ 10718 10713 10712 10709 ] final   -3.42 input   66.30 | X-H torsion
[ 10763 10752 10751 10750 ] final   92.73 input  -60.55 | X-H torsion
[ 11005 11000 10999 10996 ] final  -12.04 input  -57.11 | X-H torsion

> <Gold.Protein.ActiveResidues>
 VAL166  LYS551  ARG553  GLY616  TRP617  ASP618  TYR619  PRO620  LYS621  CYS622 
 ASP623  PHE694  ASN695  SER759  ASP760  ASP761  ALA762  ILE779  LEU786  VAL792 
 PHE793  MET794  SER795  GLU796  ALA797  LYS798  CYS799  TRP800  GLU811  SER814 

> <Gold.Protein.RotatedAtoms>
  151.6348  135.1019  160.0128 H   0  0  0  0  0  0  0  0  0  0  0  0  # atno 6907 bound_to 6896
  152.4086  133.6924  159.6387 H   0  0  0  0  0  0  0  0  0  0  0  0  # atno 6908 bound_to 6896
  150.7978  133.8581  159.3265 H   0  0  0  0  0  0  0  0  0  0  0  0  # atno 6909 bound_to 6896
  145.2572  139.2716  143.4036 H   0  0  0  0  0  0  0  0  0  0  0  0  # atno 7974 bound_to 7965
  156.2776  140.2117  156.5765 H   0  0  0  0  0  0  0  0  0  0  0  0  # atno 8008 bound_to 7997
  154.7093  140.0513  157.0557 H   0  0  0  0  0  0  0  0  0  0  0  0  # atno 8009 bound_to 7997
  155.0627  140.3168  155.4658 H   0  0  0  0  0  0  0  0  0  0  0  0  # atno 8010 bound_to 7997
  140.6694  143.2706  151.4185 H   0  0  0  0  0  0  0  0  0  0  0  0  # atno 10167 bound_to 10162
  156.7763  130.5316  149.5758 H   0  0  0  0  0  0  0  0  0  0  0  0  # atno 10718 bound_to 10713
  153.2224  135.4351  155.0504 H   0  0  0  0  0  0  0  0  0  0  0  0  # atno 10763 bound_to 10752
  154.8256  135.3359  154.6907 H   0  0  0  0  0  0  0  0  0  0  0  0  # atno 10764 bound_to 10752
  153.7339  135.7009  153.5039 H   0  0  0  0  0  0  0  0  0  0  0  0  # atno 10765 bound_to 10752
  140.7615  133.8511  155.9129 H   0  0  0  0  0  0  0  0  0  0  0  0  # atno 11005 bound_to 11000
  146.3285  140.2979  142.8619 LP  0  0  0  0  0  0  0  0  0  0  0  0  # atno 17320 bound_to 7965
  144.9450  140.8119  143.5607 LP  0  0  0  0  0  0  0  0  0  0  0  0  # atno 17321 bound_to 7965
  139.5957  144.1404  152.2140 LP  0  0  0  0  0  0  0  0  0  0  0  0  # atno 17342 bound_to 10162
  140.0772  144.5731  150.7148 LP  0  0  0  0  0  0  0  0  0  0  0  0  # atno 17343 bound_to 10162
  156.1246  130.6134  151.0244 LP  0  0  0  0  0  0  0  0  0  0  0  0  # atno 17370 bound_to 10713
  157.6667  131.0870  150.7711 LP  0  0  0  0  0  0  0  0  0  0  0  0  # atno 17371 bound_to 10713
  140.9658  134.1595  157.4617 LP  0  0  0  0  0  0  0  0  0  0  0  0  # atno 17394 bound_to 11000
  139.8770  134.9961  156.5778 LP  0  0  0  0  0  0  0  0  0  0  0  0  # atno 17395 bound_to 11000

$$$$
