AV-unprocessed.smi:2245|AV-procd|sdf|9080|dock4
  -GOLD-   2272012283D 1   1.00000     0.00000
 Structure written by MMmdl.
 45 46  0  0  0  0  0  0  0  0  2 V2000
  152.2478  144.8699  160.7426 C   0  0  0  0  0  0  0  0  0  0  0  0
  152.0763  143.6568  159.8527 C   0  0  0  0  0  0  0  0  0  0  0  0
  152.8609  142.5045  160.0480 C   0  0  0  0  0  0  0  0  0  0  0  0
  152.6591  141.4088  159.1859 C   0  0  0  0  0  0  0  0  0  0  0  0
  153.4653  140.1366  159.3409 C   0  0  0  0  0  0  0  0  0  0  0  0
  151.7520  141.4155  158.1857 N   0  0  0  0  0  0  0  0  0  0  0  0
  150.9916  142.5209  157.9875 C   0  0  0  0  0  0  0  0  0  0  0  0
  150.0138  142.6305  156.9633 N   0  0  0  0  0  0  0  0  0  0  0  0
  149.1792  141.6803  156.5068 C   0  0  0  0  0  0  0  0  0  0  0  0
  149.1156  140.5240  156.9257 O   0  0  0  0  0  0  0  0  0  0  0  0
  148.4100  142.1459  155.5121 N   0  0  0  0  0  0  0  0  0  0  0  0
  147.4144  141.3621  154.7882 C   0  0  0  0  0  0  0  0  0  0  0  0
  146.1283  142.1664  154.5160 C   0  0  2  0  0  0  0  0  0  0  0  0
  146.2448  143.2100  153.4083 C   0  0  0  0  0  0  0  0  0  0  0  0
  145.0620  144.1286  153.6983 C   0  0  0  0  0  0  0  0  0  0  0  0
  144.9535  144.1826  155.1738 N   0  3  1  0  0  0  0  0  0  0  0  0
  143.5815  144.3927  155.6990 C   0  0  0  0  0  0  0  0  0  0  0  0
  143.1073  145.8519  155.5737 C   0  0  0  0  0  0  0  0  0  0  0  0
  141.9148  145.9710  156.1550 F   0  0  0  0  0  0  0  0  0  0  0  0
  143.9652  146.6667  156.1879 F   0  0  0  0  0  0  0  0  0  0  0  0
  142.9906  146.2162  154.2971 F   0  0  0  0  0  0  0  0  0  0  0  0
  145.6361  142.9831  155.7183 C   0  0  0  0  0  0  0  0  0  0  0  0
  151.1303  143.6630  158.8078 C   0  0  0  0  0  0  0  0  0  0  0  0
  152.6895  144.5932  161.7003 H   0  0  0  0  0  0  0  0  0  0  0  0
  151.2851  145.3431  160.9383 H   0  0  0  0  0  0  0  0  0  0  0  0
  152.8990  145.5998  160.2615 H   0  0  0  0  0  0  0  0  0  0  0  0
  153.5971  142.4617  160.8372 H   0  0  0  0  0  0  0  0  0  0  0  0
  154.2482  140.2528  160.0909 H   0  0  0  0  0  0  0  0  0  0  0  0
  153.9381  139.8676  158.3957 H   0  0  0  0  0  0  0  0  0  0  0  0
  152.8178  139.3149  159.6478 H   0  0  0  0  0  0  0  0  0  0  0  0
  149.9502  143.5352  156.5209 H   0  0  0  0  0  0  0  0  0  0  0  0
  148.5227  143.1099  155.2338 H   0  0  0  0  0  0  0  0  0  0  0  0
  147.8401  141.0005  153.8507 H   0  0  0  0  0  0  0  0  0  0  0  0
  147.1850  140.4778  155.3833 H   0  0  0  0  0  0  0  0  0  0  0  0
  145.3286  141.4770  154.2394 H   0  0  0  0  0  0  0  0  0  0  0  0
  147.1807  143.7633  153.5017 H   0  0  0  0  0  0  0  0  0  0  0  0
  146.2051  142.7757  152.4087 H   0  0  0  0  0  0  0  0  0  0  0  0
  145.1940  145.1216  153.2680 H   0  0  0  0  0  0  0  0  0  0  0  0
  144.1561  143.6933  153.2727 H   0  0  0  0  0  0  0  0  0  0  0  0
  142.8821  143.7146  155.2075 H   0  0  0  0  0  0  0  0  0  0  0  0
  143.5804  144.1261  156.7570 H   0  0  0  0  0  0  0  0  0  0  0  0
  144.9896  142.3818  156.3595 H   0  0  0  0  0  0  0  0  0  0  0  0
  146.4737  143.3240  156.3280 H   0  0  0  0  0  0  0  0  0  0  0  0
  150.5190  144.5376  158.6382 H   0  0  0  0  0  0  0  0  0  0  0  0
  145.5065  144.9721  155.4760 H   0  0  0  0  0  0  0  0  0  0  0  0
  1  2  1  0  0  0  0
  1 24  1  0  0  0  0
  1 25  1  0  0  0  0
  1 26  1  0  0  0  0
  2 23  1  0  0  0  0
  2  3  2  0  0  0  0
  3  4  1  0  0  0  0
  3 27  1  0  0  0  0
  4  5  1  0  0  0  0
  4  6  2  0  0  0  0
  5 28  1  0  0  0  0
  5 29  1  0  0  0  0
  5 30  1  0  0  0  0
  6  7  1  0  0  0  0
  7  8  1  0  0  0  0
  7 23  2  0  0  0  0
  8  9  1  0  0  0  0
  8 31  1  0  0  0  0
  9 10  2  0  0  0  0
  9 11  1  0  0  0  0
 11 12  1  0  0  0  0
 11 32  1  0  0  0  0
 12 13  1  0  0  0  0
 12 33  1  0  0  0  0
 12 34  1  0  0  0  0
 13 22  1  0  0  0  0
 13 14  1  0  0  0  0
 13 35  1  0  0  0  0
 14 15  1  0  0  0  0
 14 36  1  0  0  0  0
 14 37  1  0  0  0  0
 15 16  1  0  0  0  0
 15 38  1  0  0  0  0
 15 39  1  0  0  0  0
 16 17  1  0  0  0  0
 16 22  1  0  0  0  0
 16 45  1  0  0  0  0
 17 18  1  0  0  0  0
 17 40  1  0  0  0  0
 17 41  1  0  0  0  0
 18 19  1  0  0  0  0
 18 20  1  0  0  0  0
 18 21  1  0  0  0  0
 22 42  1  0  0  0  0
 22 43  1  0  0  0  0
 23 44  1  0  0  0  0
M  CHG  1  16   1
M  END
> <s_m_source_file>
AV-unprocessed.smi

> <i_m_source_file_index>
2245

> <i_lp_mmshare_version>
43012

> <i_f3d_flags>
0

> <s_epik_input>
W0NIM11jMVtjSF1jKFtDSDNdKW5jKFtjSF0xKVtOSF1DKD1PKVtOSF1bQ0gyXVtDQEBIXTJbQ0gyXVtDSDJdTihbQ0gyXTIpW0NIMl1DKEYpKEYpRg==

> <s_epik_cmdline>
J2VwaWtfcHl0aG9uJywgJy1waCcsICc3LjAnLCAnLXRuJywgJzgnLCAnLW1hJywgJzIwMCcsICctbWV0YWxfYmluZGluZycsICctaW1hZScsICc8aW5maWxlLm1hZT4nLCAnLW9tYWUnLCAnPG91dGZpbGUubWFlPic=

> <r_epik_Ionization_Penalty>
0.628315

> <r_epik_Ionization_Penalty_Charging>
0.628113

> <r_epik_Ionization_Penalty_Neutral>
0.000202271

> <r_epik_State_Penalty>
0.644725

> <r_epik_Charging_Adjusted_Penalty>
1.27284

> <i_epik_Tot_Q>
1

> <i_epik_Tot_abs_Q>
1

> <r_epik_Metal_State_Penalty>
0.644752

> <b_epik_Metal_Only>
0

> <s_lp_Force_Field>
OPLS_2005

> <r_lp_Energy>
28.8046

> <b_lp_Chiralities_Consistent>
1

> <s_lp_Variant>
AV-unprocessed.smi:2245-5

> <Gold.Version>
5.8.1

> <Gold.Id.Protein>
6NUR|6NUR_protein|mol2

> <Gold.PLP.Fitness>
48.1128

> <Gold.PLP.PLP>
-43.2261

> <Gold.PLP.part.hbond>
-2.0000

> <Gold.PLP.part.metal>
0.0000

> <Gold.PLP.part.buried>
-5.9169

> <Gold.PLP.part.nonpolar>
-35.6787

> <Gold.PLP.part.repulsive>
0.1892

> <Gold.PLP.ligand.clash>
0.0000

> <Gold.PLP.ligand.torsion>
0.7212

> <Gold.PLP.Chemscore.Hbond>
1.9760

> <Gold.PLP.Chemscore.CHOScore>
0.0000

> <Gold.PLP.Chemscore.Metal>
0.0000

> <Gold.Chemscore.Hbonds>
donor molecule, donor type, donor heavy atom, donor atom, acceptor molecule, acceptor atom, score
      L1  H     8    31       P1  8028  0.94
      L1  H    11    32       P1  8028  1.00

> <Gold.PLP.Chemscore.Internal.Correction>
0.4012

> <Gold.Rescore>
     Score         DG    S(hbond)    S(metal)    S(lipo)     H(rot)  DE(clash)    DE(int)     intcor
     16.37     -19.07       1.90        0.00      97.35       1.61       0.19       2.51       ----

> <Gold.Chemscore.Fitness>
16.3715

> <Gold.Chemscore.DG>
-19.0693

> <Gold.Chemscore.ZeroCoef>
-5.4800

> <Gold.Chemscore.Hbond>
1.8959

> <Gold.Chemscore.Metal>
0.0000

> <Gold.Chemscore.Lipo>
97.3469

> <Gold.Chemscore.Internal_Hbond>
0.0000

> <Gold.Chemscore.DEClash>
0.1854

> <Gold.Chemscore.DEInternal>
2.5124

> <Gold.Chemscore.Rot>
1.6143

> <Gold.Chemscore.Internal.Correction>
   9.000000E+99

> <Gold.Chemscore.Hbonds>
donor molecule, donor type, donor heavy atom, donor atom, acceptor molecule, acceptor atom, score
      L1  H     8    31       P1  8028  0.91
      L1  H    11    32       P1  8028  0.94

> <Gold.Chemscore.Hbond.Weighted>
-6.3322

> <Gold.Chemscore.Metal.Weighted>
-0.0000

> <Gold.Chemscore.Lipo.Weighted>
-11.3896

> <Gold.Chemscore.Internal_Hbond.Weighted>
0.0000

> <Gold.Chemscore.DEClash.Weighted>
0.1854

> <Gold.Chemscore.DEInternal.Weighted>
2.5124

> <Gold.Chemscore.Rot.Weighted>
4.1325

> <Gold.Chemscore.Internal.Correction.Weighted>
   9.000000E+99

> <Gold.Protein.RotatedTorsions>
[ 6907 6896 6895 6894 ] final -154.80 input  -60.11 | X-H torsion
[ 7974 7965 7964 7962 ] final   89.07 input  175.53 | X-H torsion
[ 8008 7997 7996 7995 ] final  168.12 input   59.86 | X-H torsion
[ 10167 10162 10161 10158 ] final  -28.06 input  -65.29 | X-H torsion
[ 10718 10713 10712 10709 ] final  -66.50 input   66.30 | X-H torsion
[ 10763 10752 10751 10750 ] final  173.32 input  -60.55 | X-H torsion
[ 11005 11000 10999 10996 ] final   54.41 input  -57.11 | X-H torsion

> <Gold.Protein.ActiveResidues>
 VAL166  LYS551  ARG553  GLY616  TRP617  ASP618  TYR619  PRO620  LYS621  CYS622 
 ASP623  PHE694  ASN695  SER759  ASP760  ASP761  ALA762  ILE779  LEU786  VAL792 
 PHE793  MET794  SER795  GLU796  ALA797  LYS798  CYS799  TRP800  GLU811  SER814 

> <Gold.Protein.RotatedAtoms>
  151.2629  133.4293  159.2616 H   0  0  0  0  0  0  0  0  0  0  0  0  # atno 6907 bound_to 6896
  151.0514  134.9675  159.8223 H   0  0  0  0  0  0  0  0  0  0  0  0  # atno 6908 bound_to 6896
  152.5383  134.2584  159.8978 H   0  0  0  0  0  0  0  0  0  0  0  0  # atno 6909 bound_to 6896
  145.5373  139.2286  143.2585 H   0  0  0  0  0  0  0  0  0  0  0  0  # atno 7974 bound_to 7965
  156.1574  140.1599  156.8669 H   0  0  0  0  0  0  0  0  0  0  0  0  # atno 8008 bound_to 7997
  154.5128  140.0797  156.8059 H   0  0  0  0  0  0  0  0  0  0  0  0  # atno 8009 bound_to 7997
  155.3775  140.3403  155.4248 H   0  0  0  0  0  0  0  0  0  0  0  0  # atno 8010 bound_to 7997
  140.7273  143.4041  151.1215 H   0  0  0  0  0  0  0  0  0  0  0  0  # atno 10167 bound_to 10162
  156.0609  130.4263  150.1717 H   0  0  0  0  0  0  0  0  0  0  0  0  # atno 10718 bound_to 10713
  154.4383  135.2761  155.1865 H   0  0  0  0  0  0  0  0  0  0  0  0  # atno 10763 bound_to 10752
  154.3742  135.6102  153.5759 H   0  0  0  0  0  0  0  0  0  0  0  0  # atno 10764 bound_to 10752
  152.9839  135.5864  154.4707 H   0  0  0  0  0  0  0  0  0  0  0  0  # atno 10765 bound_to 10752
  140.0689  134.5498  155.9069 H   0  0  0  0  0  0  0  0  0  0  0  0  # atno 11005 bound_to 11000
  146.2004  140.6192  142.9105 LP  0  0  0  0  0  0  0  0  0  0  0  0  # atno 17320 bound_to 7965
  144.7595  140.5388  143.6745 LP  0  0  0  0  0  0  0  0  0  0  0  0  # atno 17321 bound_to 7965
  139.7665  143.8557  152.3111 LP  0  0  0  0  0  0  0  0  0  0  0  0  # atno 17342 bound_to 10162
  139.8461  144.7187  150.9271 LP  0  0  0  0  0  0  0  0  0  0  0  0  # atno 17343 bound_to 10162
  156.9786  130.9857  151.3442 LP  0  0  0  0  0  0  0  0  0  0  0  0  # atno 17370 bound_to 10713
  157.5617  130.8250  149.8274 LP  0  0  0  0  0  0  0  0  0  0  0  0  # atno 17371 bound_to 10713
  141.2004  133.6612  156.5893 LP  0  0  0  0  0  0  0  0  0  0  0  0  # atno 17394 bound_to 11000
  140.3657  134.7649  157.4565 LP  0  0  0  0  0  0  0  0  0  0  0  0  # atno 17395 bound_to 11000

$$$$
