AV-unprocessed.smi:398|AV-procd|sdf|2489|dock10
  -GOLD-   2262022433D 1   1.00000     0.00000
 Structure written by MMmdl.
 34 36  0  0  0  0  0  0  0  0  1 V2000
  150.9143  140.5133  155.3880 N   0  0  0  0  0  0  0  0  0  0  0  0
  151.3279  140.8657  156.4099 C   0  0  0  0  0  0  0  0  0  0  0  0
  151.8318  141.2730  157.6796 C   0  0  0  0  0  0  0  0  0  0  0  0
  151.4486  142.4291  158.2596 C   0  0  0  0  0  0  0  0  0  0  0  0
  151.9191  142.8325  159.4903 N   0  0  0  0  0  0  0  0  0  0  0  0
  151.6242  144.1354  160.0164 C   0  0  0  0  0  0  0  0  0  0  0  0
  150.5873  145.0114  159.3403 C   0  0  0  0  0  0  0  0  0  0  0  0
  152.0517  145.3597  159.2361 C   0  0  0  0  0  0  0  0  0  0  0  0
  152.8990  142.0684  160.1609 C   0  0  0  0  0  0  0  0  0  0  0  0
  153.4042  142.4626  161.2150 O   0  0  0  0  0  0  0  0  0  0  0  0
  153.2944  140.8397  159.5784 N   0  0  0  0  0  0  0  0  0  0  0  0
  154.3081  140.0165  160.2740 C   0  0  0  0  0  0  0  0  0  0  0  0
  153.7810  138.6462  160.7282 C   0  0  0  0  0  0  0  0  0  0  0  0
  152.8703  138.0827  160.1187 O   0  0  0  0  0  0  0  0  0  0  0  0
  154.3781  138.1226  161.8086 N   0  0  0  0  0  0  0  0  0  0  0  0
  154.0547  136.8686  162.4085 C   0  0  0  0  0  0  0  0  0  0  0  0
  153.6883  136.8669  163.8768 C   0  0  0  0  0  0  0  0  0  0  0  0
  155.0152  136.3123  163.4375 C   0  0  0  0  0  0  0  0  0  0  0  0
  152.7924  140.3861  158.3317 C   0  0  0  0  0  0  0  0  0  0  0  0
  153.1685  139.3173  157.8472 O   0  0  0  0  0  0  0  0  0  0  0  0
  150.7412  143.0627  157.7437 H   0  0  0  0  0  0  0  0  0  0  0  0
  151.6825  144.2219  161.0999 H   0  0  0  0  0  0  0  0  0  0  0  0
  150.1020  144.6355  158.4415 H   0  0  0  0  0  0  0  0  0  0  0  0
  149.9649  145.6348  159.9790 H   0  0  0  0  0  0  0  0  0  0  0  0
  152.4049  146.2179  159.8042 H   0  0  0  0  0  0  0  0  0  0  0  0
  152.5306  145.2120  158.2700 H   0  0  0  0  0  0  0  0  0  0  0  0
  155.1837  139.8543  159.6435 H   0  0  0  0  0  0  0  0  0  0  0  0
  154.7037  140.5455  161.1430 H   0  0  0  0  0  0  0  0  0  0  0  0
  155.1182  138.6550  162.2424 H   0  0  0  0  0  0  0  0  0  0  0  0
  153.5426  136.1343  161.7878 H   0  0  0  0  0  0  0  0  0  0  0  0
  153.6931  137.8186  164.4051 H   0  0  0  0  0  0  0  0  0  0  0  0
  152.9308  136.1575  164.2041 H   0  0  0  0  0  0  0  0  0  0  0  0
  155.1433  135.2323  163.4712 H   0  0  0  0  0  0  0  0  0  0  0  0
  155.9046  136.8941  163.6725 H   0  0  0  0  0  0  0  0  0  0  0  0
  1  2  3  0  0  0  0
  2  3  1  0  0  0  0
  3 19  1  0  0  0  0
  3  4  2  0  0  0  0
  4  5  1  0  0  0  0
  4 21  1  0  0  0  0
  5  6  1  0  0  0  0
  5  9  1  0  0  0  0
  6  8  1  0  0  0  0
  6  7  1  0  0  0  0
  6 22  1  0  0  0  0
  7  8  1  0  0  0  0
  7 23  1  0  0  0  0
  7 24  1  0  0  0  0
  8 25  1  0  0  0  0
  8 26  1  0  0  0  0
  9 10  2  0  0  0  0
  9 11  1  0  0  0  0
 11 12  1  0  0  0  0
 11 19  1  0  0  0  0
 12 13  1  0  0  0  0
 12 27  1  0  0  0  0
 12 28  1  0  0  0  0
 13 14  2  0  0  0  0
 13 15  1  0  0  0  0
 15 16  1  0  0  0  0
 15 29  1  0  0  0  0
 16 18  1  0  0  0  0
 16 17  1  0  0  0  0
 16 30  1  0  0  0  0
 17 18  1  0  0  0  0
 17 31  1  0  0  0  0
 17 32  1  0  0  0  0
 18 33  1  0  0  0  0
 18 34  1  0  0  0  0
 19 20  2  0  0  0  0
M  END
> <s_m_source_file>
AV-unprocessed.smi

> <i_m_source_file_index>
398

> <i_lp_mmshare_version>
43012

> <i_f3d_flags>
0

> <s_epik_input>
TiNDYzFbY0hdbihbQ0hdMltDSDJdW0NIMl0yKWMoPU8pbihjMT1PKVtDSDJdQyg9TylbTkhdW0NIXTNbQ0gyXVtDSDJdMw==

> <s_epik_cmdline>
J2VwaWtfcHl0aG9uJywgJy1waCcsICc3LjAnLCAnLXRuJywgJzgnLCAnLW1hJywgJzIwMCcsICctbWV0YWxfYmluZGluZycsICctaW1hZScsICc8aW5maWxlLm1hZT4nLCAnLW9tYWUnLCAnPG91dGZpbGUubWFlPic=

> <r_lp_tautomer_probability>
1

> <r_epik_Ionization_Penalty>
2.07526e-08

> <r_epik_Ionization_Penalty_Charging>
8.22213e-11

> <r_epik_Ionization_Penalty_Neutral>
2.06703e-08

> <r_epik_State_Penalty>
-0

> <r_epik_Charging_Adjusted_Penalty>
8.22213e-11

> <i_epik_Tot_Q>
0

> <i_epik_Tot_abs_Q>
0

> <r_epik_Metal_State_Penalty>
-0

> <b_epik_Metal_Only>
0

> <s_lp_Force_Field>
OPLS_2005

> <r_lp_Energy>
41.1586

> <b_lp_Chiralities_Consistent>
1

> <s_lp_Variant>
AV-unprocessed.smi:398-1

> <Gold.Version>
5.8.1

> <Gold.Id.Protein>
6NUR|6NUR_protein|mol2

> <Gold.PLP.Fitness>
48.1476

> <Gold.PLP.PLP>
-43.9170

> <Gold.PLP.part.hbond>
-2.0000

> <Gold.PLP.part.metal>
0.0000

> <Gold.PLP.part.buried>
-5.9345

> <Gold.PLP.part.nonpolar>
-35.5825

> <Gold.PLP.part.repulsive>
0.0574

> <Gold.PLP.ligand.clash>
0.0000

> <Gold.PLP.ligand.torsion>
0.5705

> <Gold.PLP.Chemscore.Hbond>
1.7100

> <Gold.PLP.Chemscore.CHOScore>
0.0000

> <Gold.PLP.Chemscore.Metal>
0.0000

> <Gold.Chemscore.Hbonds>
donor molecule, donor type, donor heavy atom, donor atom, acceptor molecule, acceptor atom, score
      P1  H  7989  7998       L1     1  0.92
      P1  H  7997  8009       L1    20  0.75

> <Gold.PLP.Chemscore.Internal.Correction>
0.2416

> <Gold.Rescore>
     Score         DG    S(hbond)    S(metal)    S(lipo)     H(rot)  DE(clash)    DE(int)     intcor
     10.47     -13.52       0.99        0.00      81.14       1.87       0.06       2.98       ----

> <Gold.Chemscore.Fitness>
10.4731

> <Gold.Chemscore.DG>
-13.5187

> <Gold.Chemscore.ZeroCoef>
-5.4800

> <Gold.Chemscore.Hbond>
0.9942

> <Gold.Chemscore.Metal>
0.0000

> <Gold.Chemscore.Lipo>
81.1417

> <Gold.Chemscore.Internal_Hbond>
0.0000

> <Gold.Chemscore.DEClash>
0.0650

> <Gold.Chemscore.DEInternal>
2.9807

> <Gold.Chemscore.Rot>
1.8654

> <Gold.Chemscore.Internal.Correction>
   9.000000E+99

> <Gold.Chemscore.Hbonds>
donor molecule, donor type, donor heavy atom, donor atom, acceptor molecule, acceptor atom, score
      P1  H  7989  7998       L1     1  0.84
      P1  H  7997  8009       L1    20  0.09

> <Gold.Chemscore.Hbond.Weighted>
-3.3206

> <Gold.Chemscore.Metal.Weighted>
-0.0000

> <Gold.Chemscore.Lipo.Weighted>
-9.4936

> <Gold.Chemscore.Internal_Hbond.Weighted>
0.0000

> <Gold.Chemscore.DEClash.Weighted>
0.0650

> <Gold.Chemscore.DEInternal.Weighted>
2.9807

> <Gold.Chemscore.Rot.Weighted>
4.7755

> <Gold.Chemscore.Internal.Correction.Weighted>
   9.000000E+99

> <Gold.Protein.RotatedTorsions>
[ 6907 6896 6895 6894 ] final    6.78 input  -60.11 | X-H torsion
[ 7974 7965 7964 7962 ] final  -33.03 input  175.53 | X-H torsion
[ 8008 7997 7996 7995 ] final  166.37 input   59.86 | X-H torsion
[ 10167 10162 10161 10158 ] final   63.71 input  -65.29 | X-H torsion
[ 10718 10713 10712 10709 ] final  -78.21 input   66.30 | X-H torsion
[ 10763 10752 10751 10750 ] final  110.77 input  -60.55 | X-H torsion
[ 11005 11000 10999 10996 ] final  -44.72 input  -57.11 | X-H torsion

> <Gold.Protein.ActiveResidues>
 VAL166  LYS551  ARG553  GLY616  TRP617  ASP618  TYR619  PRO620  LYS621  CYS622 
 ASP623  PHE694  ASN695  SER759  ASP760  ASP761  ALA762  ILE779  LEU786  VAL792 
 PHE793  MET794  SER795  GLU796  ALA797  LYS798  CYS799  TRP800  GLU811  SER814 

> <Gold.Protein.RotatedAtoms>
  151.6792  135.0964  160.0212 H   0  0  0  0  0  0  0  0  0  0  0  0  # atno 6907 bound_to 6896
  152.3846  133.6589  159.6197 H   0  0  0  0  0  0  0  0  0  0  0  0  # atno 6908 bound_to 6896
  150.7774  133.8974  159.3372 H   0  0  0  0  0  0  0  0  0  0  0  0  # atno 6909 bound_to 6896
  146.0943  140.5866  142.8850 H   0  0  0  0  0  0  0  0  0  0  0  0  # atno 7974 bound_to 7965
  156.1724  140.1645  156.8423 H   0  0  0  0  0  0  0  0  0  0  0  0  # atno 8008 bound_to 7997
  154.5271  140.0765  156.8312 H   0  0  0  0  0  0  0  0  0  0  0  0  # atno 8009 bound_to 7997
  155.3484  140.3388  155.4241 H   0  0  0  0  0  0  0  0  0  0  0  0  # atno 8010 bound_to 7997
  140.1301  144.4651  150.6870 H   0  0  0  0  0  0  0  0  0  0  0  0  # atno 10167 bound_to 10162
  156.0123  130.4512  150.3462 H   0  0  0  0  0  0  0  0  0  0  0  0  # atno 10718 bound_to 10713
  153.4537  135.3738  155.2298 H   0  0  0  0  0  0  0  0  0  0  0  0  # atno 10763 bound_to 10752
  154.8756  135.3892  154.4008 H   0  0  0  0  0  0  0  0  0  0  0  0  # atno 10764 bound_to 10752
  153.4571  135.7086  153.6137 H   0  0  0  0  0  0  0  0  0  0  0  0  # atno 10765 bound_to 10752
  141.0469  133.6758  156.2912 H   0  0  0  0  0  0  0  0  0  0  0  0  # atno 11005 bound_to 11000
  144.7383  140.4872  143.6887 LP  0  0  0  0  0  0  0  0  0  0  0  0  # atno 17320 bound_to 7965
  145.5979  139.1501  143.3145 LP  0  0  0  0  0  0  0  0  0  0  0  0  # atno 17321 bound_to 7965
  140.6822  143.2332  151.5354 LP  0  0  0  0  0  0  0  0  0  0  0  0  # atno 17342 bound_to 10162
  139.5524  144.2361  152.1554 LP  0  0  0  0  0  0  0  0  0  0  0  0  # atno 17343 bound_to 10162
  157.1556  131.0332  151.2865 LP  0  0  0  0  0  0  0  0  0  0  0  0  # atno 17370 bound_to 10713
  157.4355  130.7514  149.7025 LP  0  0  0  0  0  0  0  0  0  0  0  0  # atno 17371 bound_to 10713
  140.6130  134.5439  157.5536 LP  0  0  0  0  0  0  0  0  0  0  0  0  # atno 17394 bound_to 11000
  139.9319  134.7948  156.0909 LP  0  0  0  0  0  0  0  0  0  0  0  0  # atno 17395 bound_to 11000

$$$$
