AV-unprocessed.smi:37|AV-procd|sdf|315|dock8
  -GOLD-   2262016133D 1   1.00000     0.00000
 Structure written by MMmdl.
 44 45  0  0  0  0  0  0  0  0  1 V2000
  147.5243  135.8566  163.1078 C   0  0  0  0  0  0  0  0  0  0  0  0
  147.2188  135.3914  161.6776 C   0  0  0  0  0  0  0  0  0  0  0  0
  147.8500  136.3037  160.6283 C   0  0  0  0  0  0  0  0  0  0  0  0
  147.6023  137.5094  160.5940 O   0  0  0  0  0  0  0  0  0  0  0  0
  148.6648  135.6433  159.7907 O   0  0  0  0  0  0  0  0  0  0  0  0
  149.2112  136.3166  158.6693 C   0  0  0  0  0  0  0  0  0  0  0  0
  149.1370  135.3948  157.4410 C   0  0  2  0  0  0  0  0  0  0  0  0
  149.8973  134.2187  157.7427 O   0  0  0  0  0  0  0  0  0  0  0  0
  150.8455  133.9567  156.7513 C   0  0  1  0  0  0  0  0  0  0  0  0
  150.2939  132.9646  155.7409 N   0  0  0  0  0  0  0  0  0  0  0  0
  149.4359  133.3345  154.7099 C   0  0  0  0  0  0  0  0  0  0  0  0
  148.9307  132.4506  153.8168 C   0  0  0  0  0  0  0  0  0  0  0  0
  148.1085  132.8852  152.8466 F   0  0  0  0  0  0  0  0  0  0  0  0
  149.2622  131.0319  153.9015 C   0  0  0  0  0  0  0  0  0  0  0  0
  148.8594  130.1581  153.1363 O   0  0  0  0  0  0  0  0  0  0  0  0
  150.1063  130.7008  154.9644 N   0  0  0  0  0  0  0  0  0  0  0  0
  150.6302  131.6003  155.8940 C   0  0  0  0  0  0  0  0  0  0  0  0
  151.3539  131.1930  156.8018 O   0  0  0  0  0  0  0  0  0  0  0  0
  151.1327  135.3066  156.0927 C   0  0  2  0  0  0  0  0  0  0  0  0
  152.4777  136.2936  157.1885 Br  0  0  0  0  0  0  0  0  0  0  0  0
  149.7659  135.9729  156.1602 C   0  0  2  0  0  0  0  0  0  0  0  0
  149.8399  137.3938  156.1435 O   0  0  0  0  0  0  0  0  0  0  0  0
  150.4452  138.0329  155.1266 C   0  0  0  0  0  0  0  0  0  0  0  0
  150.9094  137.5062  154.1154 O   0  0  0  0  0  0  0  0  0  0  0  0
  150.5178  139.5420  155.3447 C   0  0  0  0  0  0  0  0  0  0  0  0
  149.2670  140.0823  156.0514 C   0  0  0  0  0  0  0  0  0  0  0  0
  150.3538  129.7278  155.0710 H   0  0  0  0  0  0  0  0  0  0  0  0
  147.0107  135.2270  163.8343 H   0  0  0  0  0  0  0  0  0  0  0  0
  147.1949  136.8835  163.2701 H   0  0  0  0  0  0  0  0  0  0  0  0
  148.5918  135.8063  163.3251 H   0  0  0  0  0  0  0  0  0  0  0  0
  147.5833  134.3748  161.5285 H   0  0  0  0  0  0  0  0  0  0  0  0
  146.1403  135.3676  161.5195 H   0  0  0  0  0  0  0  0  0  0  0  0
  148.6329  137.2254  158.4984 H   0  0  0  0  0  0  0  0  0  0  0  0
  150.2414  136.6134  158.8677 H   0  0  0  0  0  0  0  0  0  0  0  0
  148.0956  135.1366  157.2465 H   0  0  0  0  0  0  0  0  0  0  0  0
  151.7225  133.4670  157.1789 H   0  0  0  0  0  0  0  0  0  0  0  0
  149.1359  134.3638  154.5922 H   0  0  0  0  0  0  0  0  0  0  0  0
  151.5241  135.2162  155.0797 H   0  0  0  0  0  0  0  0  0  0  0  0
  149.1667  135.6195  155.3192 H   0  0  0  0  0  0  0  0  0  0  0  0
  151.4053  139.7713  155.9349 H   0  0  0  0  0  0  0  0  0  0  0  0
  150.6435  140.0325  154.3792 H   0  0  0  0  0  0  0  0  0  0  0  0
  149.3592  141.1536  156.2294 H   0  0  0  0  0  0  0  0  0  0  0  0
  149.1167  139.5982  157.0170 H   0  0  0  0  0  0  0  0  0  0  0  0
  148.3692  139.9244  155.4527 H   0  0  0  0  0  0  0  0  0  0  0  0
  1  2  1  0  0  0  0
  1 28  1  0  0  0  0
  1 29  1  0  0  0  0
  1 30  1  0  0  0  0
  2  3  1  0  0  0  0
  2 31  1  0  0  0  0
  2 32  1  0  0  0  0
  3  4  2  0  0  0  0
  3  5  1  0  0  0  0
  5  6  1  0  0  0  0
  6  7  1  0  0  0  0
  6 33  1  0  0  0  0
  6 34  1  0  0  0  0
  7 21  1  0  0  0  0
  7  8  1  0  0  0  0
  7 35  1  0  0  0  0
  8  9  1  0  0  0  0
  9 10  1  0  0  0  0
  9 19  1  0  0  0  0
  9 36  1  0  0  0  0
 10 17  1  0  0  0  0
 10 11  1  0  0  0  0
 11 12  2  0  0  0  0
 11 37  1  0  0  0  0
 12 13  1  0  0  0  0
 12 14  1  0  0  0  0
 14 15  2  0  0  0  0
 14 16  1  0  0  0  0
 16 27  1  0  0  0  0
 16 17  1  0  0  0  0
 17 18  2  0  0  0  0
 19 20  1  0  0  0  0
 19 21  1  0  0  0  0
 19 38  1  0  0  0  0
 21 22  1  0  0  0  0
 21 39  1  0  0  0  0
 22 23  1  0  0  0  0
 23 24  2  0  0  0  0
 23 25  1  0  0  0  0
 25 26  1  0  0  0  0
 25 40  1  0  0  0  0
 25 41  1  0  0  0  0
 26 42  1  0  0  0  0
 26 43  1  0  0  0  0
 26 44  1  0  0  0  0
M  END
> <s_m_source_file>
AV-unprocessed.smi

> <i_m_source_file_index>
37

> <i_lp_mmshare_version>
43012

> <i_f3d_flags>
0

> <s_epik_input>
W0NIM11bQ0gyXUMoPU8pT1tDSDJdW0NAQEhdMU9bQ0BASF0objJbY0hdYyhGKWMoPU8pW25IXWMyPU8pW0NAQEhdKEJyKVtDQEhdMU9DKD1PKVtDSDJdW0NIM10=

> <s_epik_cmdline>
J2VwaWtfcHl0aG9uJywgJy1waCcsICc3LjAnLCAnLXRuJywgJzgnLCAnLW1hJywgJzIwMCcsICctbWV0YWxfYmluZGluZycsICctaW1hZScsICc8aW5maWxlLm1hZT4nLCAnLW9tYWUnLCAnPG91dGZpbGUubWFlPic=

> <r_lp_tautomer_probability>
0.999537

> <r_epik_Ionization_Penalty>
0.104106

> <r_epik_Ionization_Penalty_Charging>
0.104106

> <r_epik_Ionization_Penalty_Neutral>
3.94675e-16

> <r_epik_State_Penalty>
0.0940182

> <r_epik_Charging_Adjusted_Penalty>
0.198124

> <i_epik_Tot_Q>
0

> <i_epik_Tot_abs_Q>
0

> <r_epik_Metal_State_Penalty>
3.05314

> <b_epik_Metal_Only>
0

> <s_epik_Chemistry_Notes>
This compound has an ester and may undergo hydrolysis at high or low pH. This compound contains an acetal/aminal-like group ( X-CH(R)-Y where X, Y are N, S, or O) that may be acid/base labile, releasing an aldehyde.

> <s_lp_Force_Field>
OPLS_2005

> <r_lp_Energy>
24.3846

> <b_lp_Chiralities_Consistent>
1

> <s_lp_Variant>
AV-unprocessed.smi:37-13

> <Gold.Version>
5.8.1

> <Gold.Id.Protein>
6NUR|6NUR_protein|mol2

> <Gold.PLP.Fitness>
40.2260

> <Gold.PLP.PLP>
-35.1391

> <Gold.PLP.part.hbond>
-3.3267

> <Gold.PLP.part.metal>
0.0000

> <Gold.PLP.part.buried>
-4.0123

> <Gold.PLP.part.nonpolar>
-31.3108

> <Gold.PLP.part.repulsive>
2.8369

> <Gold.PLP.ligand.clash>
0.0000

> <Gold.PLP.ligand.torsion>
1.3793

> <Gold.PLP.Chemscore.Hbond>
2.5520

> <Gold.PLP.Chemscore.CHOScore>
0.0000

> <Gold.PLP.Chemscore.Metal>
0.0000

> <Gold.Chemscore.Hbonds>
donor molecule, donor type, donor heavy atom, donor atom, acceptor molecule, acceptor atom, score
      P1  H  6896  6907       L1     8  1.00
      P1  H  6931  6943       L1     4  0.57
      P1  H  6934  6947       L1     4  0.93

> <Gold.PLP.Chemscore.Internal.Correction>
0.1896

> <Gold.Rescore>
     Score         DG    S(hbond)    S(metal)    S(lipo)     H(rot)  DE(clash)    DE(int)     intcor
      6.54     -10.87       2.20        0.00      56.01       3.33       1.68       2.65       ----

> <Gold.Chemscore.Fitness>
6.5385

> <Gold.Chemscore.DG>
-10.8698

> <Gold.Chemscore.ZeroCoef>
-5.4800

> <Gold.Chemscore.Hbond>
2.2043

> <Gold.Chemscore.Metal>
0.0000

> <Gold.Chemscore.Lipo>
56.0096

> <Gold.Chemscore.Internal_Hbond>
0.0000

> <Gold.Chemscore.DEClash>
1.6848

> <Gold.Chemscore.DEInternal>
2.6466

> <Gold.Chemscore.Rot>
3.3303

> <Gold.Chemscore.Internal.Correction>
   9.000000E+99

> <Gold.Chemscore.Hbonds>
donor molecule, donor type, donor heavy atom, donor atom, acceptor molecule, acceptor atom, score
      P1  H  6896  6907       L1     8  0.47
      P1  H  6931  6943       L1     4  0.19
      P1  H  6934  6947       L1     4  0.88

> <Gold.Chemscore.Hbond.Weighted>
-7.3622

> <Gold.Chemscore.Metal.Weighted>
-0.0000

> <Gold.Chemscore.Lipo.Weighted>
-6.5531

> <Gold.Chemscore.Internal_Hbond.Weighted>
0.0000

> <Gold.Chemscore.DEClash.Weighted>
1.6848

> <Gold.Chemscore.DEInternal.Weighted>
2.6466

> <Gold.Chemscore.Rot.Weighted>
8.5256

> <Gold.Chemscore.Internal.Correction.Weighted>
   9.000000E+99

> <Gold.Protein.RotatedTorsions>
[ 6907 6896 6895 6894 ] final -112.20 input  -60.11 | X-H torsion
[ 7974 7965 7964 7962 ] final  -10.40 input  175.53 | X-H torsion
[ 8008 7997 7996 7995 ] final -115.88 input   59.86 | X-H torsion
[ 10167 10162 10161 10158 ] final  105.87 input  -65.29 | X-H torsion
[ 10718 10713 10712 10709 ] final  -48.94 input   66.30 | X-H torsion
[ 10763 10752 10751 10750 ] final    0.45 input  -60.55 | X-H torsion
[ 11005 11000 10999 10996 ] final  -47.95 input  -57.11 | X-H torsion

> <Gold.Protein.ActiveResidues>
 VAL166  LYS551  ARG553  GLY616  TRP617  ASP618  TYR619  PRO620  LYS621  CYS622 
 ASP623  PHE694  ASN695  SER759  ASP760  ASP761  ALA762  ILE779  LEU786  VAL792 
 PHE793  MET794  SER795  GLU796  ALA797  LYS798  CYS799  TRP800  GLU811  SER814 

> <Gold.Protein.RotatedAtoms>
  150.7742  133.9124  159.3373 H   0  0  0  0  0  0  0  0  0  0  0  0  # atno 6907 bound_to 6896
  151.7003  135.0929  160.0259 H   0  0  0  0  0  0  0  0  0  0  0  0  # atno 6908 bound_to 6896
  152.3772  133.6459  159.6168 H   0  0  0  0  0  0  0  0  0  0  0  0  # atno 6909 bound_to 6896
  146.2222  140.2759  142.8359 H   0  0  0  0  0  0  0  0  0  0  0  0  # atno 7974 bound_to 7965
  155.0590  140.0393  157.2570 H   0  0  0  0  0  0  0  0  0  0  0  0  # atno 8008 bound_to 7997
  154.7075  140.2686  155.6636 H   0  0  0  0  0  0  0  0  0  0  0  0  # atno 8009 bound_to 7997
  156.2779  140.2728  156.1706 H   0  0  0  0  0  0  0  0  0  0  0  0  # atno 8010 bound_to 7997
  139.7056  144.7087  151.1111 H   0  0  0  0  0  0  0  0  0  0  0  0  # atno 10167 bound_to 10162
  156.1940  130.4154  149.9332 H   0  0  0  0  0  0  0  0  0  0  0  0  # atno 10718 bound_to 10713
  153.3205  135.6969  153.7034 H   0  0  0  0  0  0  0  0  0  0  0  0  # atno 10763 bound_to 10752
  153.5876  135.3486  155.2899 H   0  0  0  0  0  0  0  0  0  0  0  0  # atno 10764 bound_to 10752
  154.8596  135.4310  154.2368 H   0  0  0  0  0  0  0  0  0  0  0  0  # atno 10765 bound_to 10752
  141.0672  133.6690  156.3371 H   0  0  0  0  0  0  0  0  0  0  0  0  # atno 11005 bound_to 11000
  144.9233  140.7893  143.5734 LP  0  0  0  0  0  0  0  0  0  0  0  0  # atno 17320 bound_to 7965
  145.2697  139.1959  143.4848 LP  0  0  0  0  0  0  0  0  0  0  0  0  # atno 17321 bound_to 7965
  140.7721  143.5363  150.9365 LP  0  0  0  0  0  0  0  0  0  0  0  0  # atno 17342 bound_to 10162
  139.9046  143.6794  152.3125 LP  0  0  0  0  0  0  0  0  0  0  0  0  # atno 17343 bound_to 10162
  156.7063  130.8953  151.3605 LP  0  0  0  0  0  0  0  0  0  0  0  0  # atno 17370 bound_to 10713
  157.6946  130.9269  150.0609 LP  0  0  0  0  0  0  0  0  0  0  0  0  # atno 17371 bound_to 10713
  140.5749  134.5803  157.5466 LP  0  0  0  0  0  0  0  0  0  0  0  0  # atno 17394 bound_to 11000
  139.9487  134.7655  156.0499 LP  0  0  0  0  0  0  0  0  0  0  0  0  # atno 17395 bound_to 11000

$$$$
