AV-unprocessed.smi:654|AV-procd|sdf|3212|dock3
  -GOLD-   22720 0153D 1   1.00000     0.00000
 Structure written by MMmdl.
 47 49  0  0  0  0  0  0  0  0  1 V2000
  146.6963  137.7907  159.8661 O   0  0  0  0  0  0  0  0  0  0  0  0
  147.2856  136.8442  160.3896 C   0  0  0  0  0  0  0  0  0  0  0  0
  148.3514  136.2631  159.8143 N   0  0  0  0  0  0  0  0  0  0  0  0
  148.9907  136.7059  158.5796 C   0  0  0  0  0  0  0  0  0  0  0  0
  150.1748  137.6569  158.8413 C   0  0  0  0  0  0  0  0  0  0  0  0
  150.7934  138.2085  157.5679 C   0  0  0  0  0  0  0  0  0  0  0  0
  150.3047  137.8246  156.3024 C   0  0  0  0  0  0  0  0  0  0  0  0
  150.9221  138.3476  155.1498 C   0  0  0  0  0  0  0  0  0  0  0  0
  152.0040  139.2360  155.3129 C   0  0  0  0  0  0  0  0  0  0  0  0
  152.4799  139.6115  156.5196 N   0  0  0  0  0  0  0  0  0  0  0  0
  151.8816  139.1065  157.6195 C   0  0  0  0  0  0  0  0  0  0  0  0
  146.9102  136.2958  161.5736 N   0  0  0  0  0  0  0  0  0  0  0  0
  147.6542  135.2799  162.3340 C   0  0  0  0  0  0  0  0  0  0  0  0
  146.9611  133.9228  162.1595 C   0  0  0  0  0  0  0  0  0  0  0  0
  145.2755  133.9652  162.8430 S   0  0  0  0  0  0  0  0  0  0  0  0
  144.5964  135.4789  162.0608 C   0  0  0  0  0  0  0  0  0  0  0  0
  144.2643  135.2200  160.5659 C   0  0  0  0  0  0  0  0  0  0  0  0
  143.0961  134.2395  160.3595 C   0  0  0  0  0  0  0  0  0  0  0  0
  141.8375  134.7047  161.1030 C   0  0  0  0  0  0  0  0  0  0  0  0
  142.1307  134.9140  162.5941 C   0  0  0  0  0  0  0  0  0  0  0  0
  143.2992  135.8953  162.7993 C   0  0  0  0  0  0  0  0  0  0  0  0
  145.6310  136.6264  162.2185 C   0  0  0  0  0  0  0  0  0  0  0  0
  148.7776  135.4829  160.2923 H   0  0  0  0  0  0  0  0  0  0  0  0
  149.3479  135.8150  158.0624 H   0  0  0  0  0  0  0  0  0  0  0  0
  148.2617  137.1746  157.9167 H   0  0  0  0  0  0  0  0  0  0  0  0
  149.8487  138.4880  159.4674 H   0  0  0  0  0  0  0  0  0  0  0  0
  150.9451  137.1356  159.4113 H   0  0  0  0  0  0  0  0  0  0  0  0
  149.4756  137.1377  156.2154 H   0  0  0  0  0  0  0  0  0  0  0  0
  150.5760  138.0736  154.1642 H   0  0  0  0  0  0  0  0  0  0  0  0
  152.5010  139.6556  154.4507 H   0  0  0  0  0  0  0  0  0  0  0  0
  152.2910  139.4203  158.5686 H   0  0  0  0  0  0  0  0  0  0  0  0
  148.7021  135.2024  162.0437 H   0  0  0  0  0  0  0  0  0  0  0  0
  147.6787  135.5515  163.3903 H   0  0  0  0  0  0  0  0  0  0  0  0
  146.9198  133.6451  161.1059 H   0  0  0  0  0  0  0  0  0  0  0  0
  147.5231  133.1417  162.6715 H   0  0  0  0  0  0  0  0  0  0  0  0
  144.0098  136.1666  160.0871 H   0  0  0  0  0  0  0  0  0  0  0  0
  145.1369  134.8434  160.0330 H   0  0  0  0  0  0  0  0  0  0  0  0
  142.8808  134.1447  159.2950 H   0  0  0  0  0  0  0  0  0  0  0  0
  143.3789  133.2439  160.7027 H   0  0  0  0  0  0  0  0  0  0  0  0
  141.4771  135.6368  160.6660 H   0  0  0  0  0  0  0  0  0  0  0  0
  141.0381  133.9737  160.9783 H   0  0  0  0  0  0  0  0  0  0  0  0
  141.2395  135.2935  163.0947 H   0  0  0  0  0  0  0  0  0  0  0  0
  142.3569  133.9557  163.0628 H   0  0  0  0  0  0  0  0  0  0  0  0
  143.4957  136.0071  163.8662 H   0  0  0  0  0  0  0  0  0  0  0  0
  142.9840  136.8795  162.4491 H   0  0  0  0  0  0  0  0  0  0  0  0
  145.8053  136.8265  163.2770 H   0  0  0  0  0  0  0  0  0  0  0  0
  145.2153  137.5566  161.8279 H   0  0  0  0  0  0  0  0  0  0  0  0
  1  2  2  0  0  0  0
  2  3  1  0  0  0  0
  2 12  1  0  0  0  0
  3  4  1  0  0  0  0
  3 23  1  0  0  0  0
  4  5  1  0  0  0  0
  4 24  1  0  0  0  0
  4 25  1  0  0  0  0
  5  6  1  0  0  0  0
  5 26  1  0  0  0  0
  5 27  1  0  0  0  0
  6 11  1  0  0  0  0
  6  7  2  0  0  0  0
  7  8  1  0  0  0  0
  7 28  1  0  0  0  0
  8  9  2  0  0  0  0
  8 29  1  0  0  0  0
  9 10  1  0  0  0  0
  9 30  1  0  0  0  0
 10 11  2  0  0  0  0
 11 31  1  0  0  0  0
 12 22  1  0  0  0  0
 12 13  1  0  0  0  0
 13 14  1  0  0  0  0
 13 32  1  0  0  0  0
 13 33  1  0  0  0  0
 14 15  1  0  0  0  0
 14 34  1  0  0  0  0
 14 35  1  0  0  0  0
 15 16  1  0  0  0  0
 16 21  1  0  0  0  0
 16 17  1  0  0  0  0
 16 22  1  0  0  0  0
 17 18  1  0  0  0  0
 17 36  1  0  0  0  0
 17 37  1  0  0  0  0
 18 19  1  0  0  0  0
 18 38  1  0  0  0  0
 18 39  1  0  0  0  0
 19 20  1  0  0  0  0
 19 40  1  0  0  0  0
 19 41  1  0  0  0  0
 20 21  1  0  0  0  0
 20 42  1  0  0  0  0
 20 43  1  0  0  0  0
 21 44  1  0  0  0  0
 21 45  1  0  0  0  0
 22 46  1  0  0  0  0
 22 47  1  0  0  0  0
M  END
> <s_m_source_file>
AV-unprocessed.smi

> <i_m_source_file_index>
654

> <i_lp_mmshare_version>
43012

> <i_f3d_flags>
0

> <s_epik_input>
W2NIXTFuW2NIXVtjSF1bY0hdYzFbQ0gyXVtDSDJdW05IXUMoPU8pTihbQ0gyXTIpW0NIMl1bQ0gyXVNDMjNbQ0gyXVtDSDJdW0NIMl1bQ0gyXVtDSDJdMw==

> <s_epik_cmdline>
J2VwaWtfcHl0aG9uJywgJy1waCcsICc3LjAnLCAnLXRuJywgJzgnLCAnLW1hJywgJzIwMCcsICctbWV0YWxfYmluZGluZycsICctaW1hZScsICc8aW5maWxlLm1hZT4nLCAnLW9tYWUnLCAnPG91dGZpbGUubWFlPic=

> <r_epik_Ionization_Penalty>
0.0144586

> <r_epik_Ionization_Penalty_Charging>
0

> <r_epik_Ionization_Penalty_Neutral>
0.0144586

> <r_epik_State_Penalty>
0.0112665

> <r_epik_Charging_Adjusted_Penalty>
0.0112665

> <i_epik_Tot_Q>
0

> <i_epik_Tot_abs_Q>
0

> <r_epik_Metal_State_Penalty>
0.0109983

> <b_epik_Metal_Only>
0

> <s_lp_Force_Field>
OPLS_2005

> <r_lp_Energy>
31.4252

> <b_lp_Chiralities_Consistent>
1

> <s_lp_Variant>
AV-unprocessed.smi:654-1

> <Gold.Version>
5.8.1

> <Gold.Id.Protein>
6NUR|6NUR_protein|mol2

> <Gold.PLP.Fitness>
41.3953

> <Gold.PLP.PLP>
-35.8374

> <Gold.PLP.part.hbond>
-2.0000

> <Gold.PLP.part.metal>
0.0000

> <Gold.PLP.part.buried>
-4.7986

> <Gold.PLP.part.nonpolar>
-28.7444

> <Gold.PLP.part.repulsive>
0.1822

> <Gold.PLP.ligand.clash>
0.0000

> <Gold.PLP.ligand.torsion>
0.2304

> <Gold.PLP.Chemscore.Hbond>
2.0000

> <Gold.PLP.Chemscore.CHOScore>
0.0000

> <Gold.PLP.Chemscore.Metal>
0.0000

> <Gold.Chemscore.Hbonds>
donor molecule, donor type, donor heavy atom, donor atom, acceptor molecule, acceptor atom, score
      P1  H  6934  6947       L1     1  1.00
      P1  H  7997  8008       L1    10  1.00

> <Gold.PLP.Chemscore.Internal.Correction>
0.0188

> <Gold.Rescore>
     Score         DG    S(hbond)    S(metal)    S(lipo)     H(rot)  DE(clash)    DE(int)     intcor
     19.44     -19.74       1.93        0.00      93.53       1.23       0.05       0.25       ----

> <Gold.Chemscore.Fitness>
19.4418

> <Gold.Chemscore.DG>
-19.7397

> <Gold.Chemscore.ZeroCoef>
-5.4800

> <Gold.Chemscore.Hbond>
1.9339

> <Gold.Chemscore.Metal>
0.0000

> <Gold.Chemscore.Lipo>
93.5311

> <Gold.Chemscore.Internal_Hbond>
0.0000

> <Gold.Chemscore.DEClash>
0.0482

> <Gold.Chemscore.DEInternal>
0.2497

> <Gold.Chemscore.Rot>
1.2276

> <Gold.Chemscore.Internal.Correction>
   9.000000E+99

> <Gold.Chemscore.Hbonds>
donor molecule, donor type, donor heavy atom, donor atom, acceptor molecule, acceptor atom, score
      P1  H  6934  6947       L1     1  0.24
      P1  H  7997  8008       L1    10  0.86

> <Gold.Chemscore.Hbond.Weighted>
-6.4593

> <Gold.Chemscore.Metal.Weighted>
-0.0000

> <Gold.Chemscore.Lipo.Weighted>
-10.9431

> <Gold.Chemscore.Internal_Hbond.Weighted>
0.0000

> <Gold.Chemscore.DEClash.Weighted>
0.0482

> <Gold.Chemscore.DEInternal.Weighted>
0.2497

> <Gold.Chemscore.Rot.Weighted>
3.1427

> <Gold.Chemscore.Internal.Correction.Weighted>
   9.000000E+99

> <Gold.Protein.RotatedTorsions>
[ 6907 6896 6895 6894 ] final   20.32 input  -60.11 | X-H torsion
[ 7974 7965 7964 7962 ] final  -16.98 input  175.53 | X-H torsion
[ 8008 7997 7996 7995 ] final  -54.08 input   59.86 | X-H torsion
[ 10167 10162 10161 10158 ] final  100.22 input  -65.29 | X-H torsion
[ 10718 10713 10712 10709 ] final  -47.81 input   66.30 | X-H torsion
[ 10763 10752 10751 10750 ] final  -63.56 input  -60.55 | X-H torsion
[ 11005 11000 10999 10996 ] final  118.81 input  -57.11 | X-H torsion

> <Gold.Protein.ActiveResidues>
 VAL166  LYS551  ARG553  GLY616  TRP617  ASP618  TYR619  PRO620  LYS621  CYS622 
 ASP623  PHE694  ASN695  SER759  ASP760  ASP761  ALA762  ILE779  LEU786  VAL792 
 PHE793  MET794  SER795  GLU796  ALA797  LYS798  CYS799  TRP800  GLU811  SER814 

> <Gold.Protein.RotatedAtoms>
  151.8945  135.0403  160.0500 H   0  0  0  0  0  0  0  0  0  0  0  0  # atno 6907 bound_to 6896
  152.2409  133.5130  159.5278 H   0  0  0  0  0  0  0  0  0  0  0  0  # atno 6908 bound_to 6896
  150.7053  134.1007  159.4007 H   0  0  0  0  0  0  0  0  0  0  0  0  # atno 6909 bound_to 6896
  146.1963  140.3713  142.8439 H   0  0  0  0  0  0  0  0  0  0  0  0  # atno 7974 bound_to 7965
  154.4152  140.1185  156.5257 H   0  0  0  0  0  0  0  0  0  0  0  0  # atno 8008 bound_to 7997
  155.6657  140.3496  155.4780 H   0  0  0  0  0  0  0  0  0  0  0  0  # atno 8009 bound_to 7997
  155.9676  140.1135  157.0831 H   0  0  0  0  0  0  0  0  0  0  0  0  # atno 8010 bound_to 7997
  139.7547  144.6973  151.0380 H   0  0  0  0  0  0  0  0  0  0  0  0  # atno 10167 bound_to 10162
  156.2048  130.4158  149.9192 H   0  0  0  0  0  0  0  0  0  0  0  0  # atno 10718 bound_to 10713
  154.3169  135.6204  153.5490 H   0  0  0  0  0  0  0  0  0  0  0  0  # atno 10763 bound_to 10752
  152.9824  135.5714  154.5114 H   0  0  0  0  0  0  0  0  0  0  0  0  # atno 10764 bound_to 10752
  154.4775  135.2862  155.1573 H   0  0  0  0  0  0  0  0  0  0  0  0  # atno 10765 bound_to 10752
  139.9123  134.9623  156.7560 H   0  0  0  0  0  0  0  0  0  0  0  0  # atno 11005 bound_to 11000
  144.8587  140.7107  143.6121 LP  0  0  0  0  0  0  0  0  0  0  0  0  # atno 17320 bound_to 7965
  145.3634  139.1676  143.4371 LP  0  0  0  0  0  0  0  0  0  0  0  0  # atno 17321 bound_to 7965
  140.7801  143.4767  151.0073 LP  0  0  0  0  0  0  0  0  0  0  0  0  # atno 17342 bound_to 10162
  139.8454  143.7508  152.3179 LP  0  0  0  0  0  0  0  0  0  0  0  0  # atno 17343 bound_to 10162
  156.6890  130.8888  151.3586 LP  0  0  0  0  0  0  0  0  0  0  0  0  # atno 17370 bound_to 10713
  157.7006  130.9329  150.0774 LP  0  0  0  0  0  0  0  0  0  0  0  0  # atno 17371 bound_to 10713
  140.6735  133.9538  155.7870 LP  0  0  0  0  0  0  0  0  0  0  0  0  # atno 17394 bound_to 11000
  141.0560  134.0415  157.3721 LP  0  0  0  0  0  0  0  0  0  0  0  0  # atno 17395 bound_to 11000

$$$$
