AV-unprocessed.smi:1254|AV-procd|sdf|5272|dock10
  -GOLD-   22720 4393D 1   1.00000     0.00000
 Structure written by MMmdl.
 46 47  0  0  0  0  0  0  0  0  2 V2000
  153.7427  141.5182  160.5409 C   0  0  0  0  0  0  0  0  0  0  0  0
  152.9192  142.2216  159.5171 C   0  0  0  0  0  0  0  0  0  0  0  0
  152.0484  141.7799  158.5613 C   0  0  0  0  0  0  0  0  0  0  0  0
  151.6223  142.9820  157.9368 C   0  0  0  0  0  0  0  0  0  0  0  0
  150.6903  142.9566  156.8683 N   0  0  0  0  0  0  0  0  0  0  0  0
  150.2389  141.8801  156.2029 C   0  0  0  0  0  0  0  0  0  0  0  0
  150.5594  140.7143  156.4363 O   0  0  0  0  0  0  0  0  0  0  0  0
  149.3843  142.2283  155.2302 N   0  0  0  0  0  0  0  0  0  0  0  0
  148.7272  141.2930  154.3234 C   0  0  0  0  0  0  0  0  0  0  0  0
  147.2580  141.6751  154.0676 C   0  0  1  0  0  0  0  0  0  0  0  0
  146.3466  141.2822  155.2460 C   0  0  0  0  0  0  0  0  0  0  0  0
  144.9503  141.7130  154.9866 N   0  3  1  0  0  0  0  0  0  0  0  0
  143.9944  141.3226  156.0547 C   0  0  0  0  0  0  0  0  0  0  0  0
  142.5158  141.5016  155.6466 C   0  0  0  0  0  0  0  0  0  0  0  0
  142.0747  142.9734  155.7154 C   0  0  0  0  0  0  0  0  0  0  0  0
  141.6060  140.6290  156.5238 C   0  0  0  0  0  0  0  0  0  0  0  0
  144.9054  143.1650  154.6924 C   0  0  0  0  0  0  0  0  0  0  0  0
  145.8696  143.5129  153.5467 C   0  0  0  0  0  0  0  0  0  0  0  0
  147.1829  143.0853  153.8841 O   0  0  0  0  0  0  0  0  0  0  0  0
  152.1811  144.0605  158.4645 N   0  0  0  0  0  0  0  0  0  0  0  0
  153.0163  143.5783  159.4792 O   0  0  0  0  0  0  0  0  0  0  0  0
  153.3399  140.5270  160.7499 H   0  0  0  0  0  0  0  0  0  0  0  0
  153.7633  142.0778  161.4762 H   0  0  0  0  0  0  0  0  0  0  0  0
  154.7693  141.4000  160.1938 H   0  0  0  0  0  0  0  0  0  0  0  0
  151.7650  140.7605  158.3465 H   0  0  0  0  0  0  0  0  0  0  0  0
  150.3367  143.8550  156.5748 H   0  0  0  0  0  0  0  0  0  0  0  0
  149.1751  143.2080  155.1046 H   0  0  0  0  0  0  0  0  0  0  0  0
  149.2781  141.2538  153.3823 H   0  0  0  0  0  0  0  0  0  0  0  0
  148.7854  140.2945  154.7575 H   0  0  0  0  0  0  0  0  0  0  0  0
  146.9053  141.1730  153.1646 H   0  0  0  0  0  0  0  0  0  0  0  0
  146.3900  140.2028  155.3852 H   0  0  0  0  0  0  0  0  0  0  0  0
  146.7058  141.7384  156.1699 H   0  0  0  0  0  0  0  0  0  0  0  0
  144.1891  140.2900  156.3490 H   0  0  0  0  0  0  0  0  0  0  0  0
  144.1789  141.9306  156.9418 H   0  0  0  0  0  0  0  0  0  0  0  0
  142.3821  141.1583  154.6212 H   0  0  0  0  0  0  0  0  0  0  0  0
  142.1903  143.3758  156.7223 H   0  0  0  0  0  0  0  0  0  0  0  0
  141.0266  143.0819  155.4338 H   0  0  0  0  0  0  0  0  0  0  0  0
  142.6572  143.5980  155.0380 H   0  0  0  0  0  0  0  0  0  0  0  0
  141.6717  140.9168  157.5737 H   0  0  0  0  0  0  0  0  0  0  0  0
  141.8792  139.5759  156.4495 H   0  0  0  0  0  0  0  0  0  0  0  0
  140.5625  140.7178  156.2199 H   0  0  0  0  0  0  0  0  0  0  0  0
  143.8914  143.4576  154.4172 H   0  0  0  0  0  0  0  0  0  0  0  0
  145.1707  143.7281  155.5888 H   0  0  0  0  0  0  0  0  0  0  0  0
  145.5503  143.0491  152.6120 H   0  0  0  0  0  0  0  0  0  0  0  0
  145.8808  144.5899  153.3790 H   0  0  0  0  0  0  0  0  0  0  0  0
  144.6478  141.2446  154.1441 H   0  0  0  0  0  0  0  0  0  0  0  0
  1  2  1  0  0  0  0
  1 22  1  0  0  0  0
  1 23  1  0  0  0  0
  1 24  1  0  0  0  0
  2 21  1  0  0  0  0
  2  3  2  0  0  0  0
  3  4  1  0  0  0  0
  3 25  1  0  0  0  0
  4  5  1  0  0  0  0
  4 20  2  0  0  0  0
  5  6  1  0  0  0  0
  5 26  1  0  0  0  0
  6  7  2  0  0  0  0
  6  8  1  0  0  0  0
  8  9  1  0  0  0  0
  8 27  1  0  0  0  0
  9 10  1  0  0  0  0
  9 28  1  0  0  0  0
  9 29  1  0  0  0  0
 10 19  1  0  0  0  0
 10 11  1  0  0  0  0
 10 30  1  0  0  0  0
 11 12  1  0  0  0  0
 11 31  1  0  0  0  0
 11 32  1  0  0  0  0
 12 13  1  0  0  0  0
 12 17  1  0  0  0  0
 12 46  1  0  0  0  0
 13 14  1  0  0  0  0
 13 33  1  0  0  0  0
 13 34  1  0  0  0  0
 14 15  1  0  0  0  0
 14 16  1  0  0  0  0
 14 35  1  0  0  0  0
 15 36  1  0  0  0  0
 15 37  1  0  0  0  0
 15 38  1  0  0  0  0
 16 39  1  0  0  0  0
 16 40  1  0  0  0  0
 16 41  1  0  0  0  0
 17 18  1  0  0  0  0
 17 42  1  0  0  0  0
 17 43  1  0  0  0  0
 18 19  1  0  0  0  0
 18 44  1  0  0  0  0
 18 45  1  0  0  0  0
 20 21  1  0  0  0  0
M  CHG  1  12   1
M  END
> <s_m_source_file>
AV-unprocessed.smi

> <i_m_source_file_index>
1254

> <i_lp_mmshare_version>
43012

> <i_f3d_flags>
0

> <s_epik_input>
W0NIM11jMVtjSF1jKG5vMSlbTkhdQyg9TylbTkhdW0NIMl1bQ0BASF0yW0NIMl1OKFtDSDJdW0NIMl1PMilbQ0gyXVtDSF0oW0NIM10pW0NIM10=

> <s_epik_cmdline>
J2VwaWtfcHl0aG9uJywgJy1waCcsICc3LjAnLCAnLXRuJywgJzgnLCAnLW1hJywgJzIwMCcsICctbWV0YWxfYmluZGluZycsICctaW1hZScsICc8aW5maWxlLm1hZT4nLCAnLW9tYWUnLCAnPG91dGZpbGUubWFlPic=

> <r_epik_Ionization_Penalty>
0.0986825

> <r_epik_Ionization_Penalty_Charging>
0.0986478

> <r_epik_Ionization_Penalty_Neutral>
3.46838e-05

> <r_epik_State_Penalty>
0.0887259

> <r_epik_Charging_Adjusted_Penalty>
0.187374

> <i_epik_Tot_Q>
1

> <i_epik_Tot_abs_Q>
1

> <r_epik_Metal_State_Penalty>
0.103424

> <b_epik_Metal_Only>
0

> <s_lp_Force_Field>
OPLS_2005

> <r_lp_Energy>
13.7393

> <b_lp_Chiralities_Consistent>
1

> <s_lp_Variant>
AV-unprocessed.smi:1254-4

> <Gold.Version>
5.8.1

> <Gold.Id.Protein>
6NUR|6NUR_protein|mol2

> <Gold.PLP.Fitness>
46.1527

> <Gold.PLP.PLP>
-34.5748

> <Gold.PLP.part.hbond>
-4.0805

> <Gold.PLP.part.metal>
0.0000

> <Gold.PLP.part.buried>
-5.9862

> <Gold.PLP.part.nonpolar>
-25.9875

> <Gold.PLP.part.repulsive>
1.8036

> <Gold.PLP.ligand.clash>
0.0000

> <Gold.PLP.ligand.torsion>
0.5282

> <Gold.PLP.Chemscore.Hbond>
4.2023

> <Gold.PLP.Chemscore.CHOScore>
0.0000

> <Gold.PLP.Chemscore.Metal>
0.0000

> <Gold.Chemscore.Hbonds>
donor molecule, donor type, donor heavy atom, donor atom, acceptor molecule, acceptor atom, score
      L1  H     5    26       P1  8028  0.90
      L1  H     8    27       P1  8028  1.00
      L1  H    12    46       P1 10175  1.89
      P1  H  8022  8030       L1    19  0.31

> <Gold.PLP.Chemscore.Internal.Correction>
0.0275

> <Gold.Rescore>
     Score         DG    S(hbond)    S(metal)    S(lipo)     H(rot)  DE(clash)    DE(int)     intcor
     15.33     -18.25       2.88        0.00      64.88       1.73       0.94       1.97       ----

> <Gold.Chemscore.Fitness>
15.3319

> <Gold.Chemscore.DG>
-18.2476

> <Gold.Chemscore.ZeroCoef>
-5.4800

> <Gold.Chemscore.Hbond>
2.8752

> <Gold.Chemscore.Metal>
0.0000

> <Gold.Chemscore.Lipo>
64.8786

> <Gold.Chemscore.Internal_Hbond>
0.0000

> <Gold.Chemscore.DEClash>
0.9434

> <Gold.Chemscore.DEInternal>
1.9723

> <Gold.Chemscore.Rot>
1.7291

> <Gold.Chemscore.Internal.Correction>
   9.000000E+99

> <Gold.Chemscore.Hbonds>
donor molecule, donor type, donor heavy atom, donor atom, acceptor molecule, acceptor atom, score
      L1  H     5    26       P1  8028  0.88
      L1  H     8    27       P1  8028  0.97
      L1  H    12    46       P1 10175  0.59
      P1  H  8022  8030       L1    19  0.20

> <Gold.Chemscore.Hbond.Weighted>
-9.6033

> <Gold.Chemscore.Metal.Weighted>
-0.0000

> <Gold.Chemscore.Lipo.Weighted>
-7.5908

> <Gold.Chemscore.Internal_Hbond.Weighted>
0.0000

> <Gold.Chemscore.DEClash.Weighted>
0.9434

> <Gold.Chemscore.DEInternal.Weighted>
1.9723

> <Gold.Chemscore.Rot.Weighted>
4.4265

> <Gold.Chemscore.Internal.Correction.Weighted>
   9.000000E+99

> <Gold.Protein.RotatedTorsions>
[ 6907 6896 6895 6894 ] final    5.71 input  -60.11 | X-H torsion
[ 7974 7965 7964 7962 ] final   53.02 input  175.53 | X-H torsion
[ 8008 7997 7996 7995 ] final -166.05 input   59.86 | X-H torsion
[ 10167 10162 10161 10158 ] final  167.46 input  -65.29 | X-H torsion
[ 10718 10713 10712 10709 ] final  170.32 input   66.30 | X-H torsion
[ 10763 10752 10751 10750 ] final -163.36 input  -60.55 | X-H torsion
[ 11005 11000 10999 10996 ] final    7.35 input  -57.11 | X-H torsion

> <Gold.Protein.ActiveResidues>
 VAL166  LYS551  ARG553  GLY616  TRP617  ASP618  TYR619  PRO620  LYS621  CYS622 
 ASP623  PHE694  ASN695  SER759  ASP760  ASP761  ALA762  ILE779  LEU786  VAL792 
 PHE793  MET794  SER795  GLU796  ALA797  LYS798  CYS799  TRP800  GLU811  SER814 

> <Gold.Protein.RotatedAtoms>
  151.6618  135.0988  160.0180 H   0  0  0  0  0  0  0  0  0  0  0  0  # atno 6907 bound_to 6896
  152.3942  133.6718  159.6271 H   0  0  0  0  0  0  0  0  0  0  0  0  # atno 6908 bound_to 6896
  150.7852  133.8819  159.3329 H   0  0  0  0  0  0  0  0  0  0  0  0  # atno 6909 bound_to 6896
  145.9754  139.4190  143.0164 H   0  0  0  0  0  0  0  0  0  0  0  0  # atno 7974 bound_to 7965
  155.8584  140.0974  157.1629 H   0  0  0  0  0  0  0  0  0  0  0  0  # atno 8008 bound_to 7997
  154.3989  140.1370  156.3993 H   0  0  0  0  0  0  0  0  0  0  0  0  # atno 8009 bound_to 7997
  155.7884  140.3456  155.5338 H   0  0  0  0  0  0  0  0  0  0  0  0  # atno 8010 bound_to 7997
  139.4946  144.3919  151.9507 H   0  0  0  0  0  0  0  0  0  0  0  0  # atno 10167 bound_to 10162
  157.0099  131.0201  151.2806 H   0  0  0  0  0  0  0  0  0  0  0  0  # atno 10718 bound_to 10713
  154.7129  135.3010  154.9169 H   0  0  0  0  0  0  0  0  0  0  0  0  # atno 10763 bound_to 10752
  154.0065  135.6700  153.4766 H   0  0  0  0  0  0  0  0  0  0  0  0  # atno 10764 bound_to 10752
  153.0770  135.5029  154.8338 H   0  0  0  0  0  0  0  0  0  0  0  0  # atno 10765 bound_to 10752
  140.5492  134.0299  155.7931 H   0  0  0  0  0  0  0  0  0  0  0  0  # atno 11005 bound_to 11000
  145.7846  140.9841  143.1081 LP  0  0  0  0  0  0  0  0  0  0  0  0  # atno 17320 bound_to 7965
  144.6847  139.9606  143.7480 LP  0  0  0  0  0  0  0  0  0  0  0  0  # atno 17321 bound_to 7965
  140.3357  144.3263  150.5977 LP  0  0  0  0  0  0  0  0  0  0  0  0  # atno 17342 bound_to 10162
  140.5608  143.2192  151.7769 LP  0  0  0  0  0  0  0  0  0  0  0  0  # atno 17343 bound_to 10162
  157.5328  130.8069  149.7937 LP  0  0  0  0  0  0  0  0  0  0  0  0  # atno 17370 bound_to 10713
  156.0140  130.3821  150.2171 LP  0  0  0  0  0  0  0  0  0  0  0  0  # atno 17371 bound_to 10713
  141.1181  133.9506  157.2783 LP  0  0  0  0  0  0  0  0  0  0  0  0  # atno 17394 bound_to 11000
  139.9464  135.0183  156.8863 LP  0  0  0  0  0  0  0  0  0  0  0  0  # atno 17395 bound_to 11000

$$$$
