AV-unprocessed.smi:1|AV-procd|sdf|8|dock10
  -GOLD-   2262015 93D 1   1.00000     0.00000
 Structure written by MMmdl.
 57 62  0  0  0  0  0  0  0  0  1 V2000
  152.7553  140.0006  158.4460 O   0  0  0  0  0  0  0  0  0  0  0  0
  152.0682  140.9292  158.0190 C   0  0  0  0  0  0  0  0  0  0  0  0
  151.1809  140.7747  156.8797 N   0  0  0  0  0  0  0  0  0  0  0  0
  151.0140  139.6879  156.0902 C   0  0  0  0  0  0  0  0  0  0  0  0
  151.0201  139.7647  154.7342 N   0  0  0  0  0  0  0  0  0  0  0  0
  150.8497  138.6634  153.9997 C   0  0  0  0  0  0  0  0  0  0  0  0
  150.6606  137.4088  154.4120 N   0  0  0  0  0  0  0  0  0  0  0  0
  150.6575  137.3153  155.7746 C   0  0  0  0  0  0  0  0  0  0  0  0
  150.8243  138.4079  156.6731 C   0  0  0  0  0  0  0  0  0  0  0  0
  150.7567  137.9578  157.9837 N   0  0  0  0  0  0  0  0  0  0  0  0
  150.5597  136.6738  157.8647 C   0  0  0  0  0  0  0  0  0  0  0  0
  150.5002  136.1945  156.5741 N   0  0  0  0  0  0  0  0  0  0  0  0
  150.2840  134.7615  156.1701 C   0  0  1  0  0  0  0  0  0  0  0  0
  149.8700  134.0084  157.2683 O   0  0  0  0  0  0  0  0  0  0  0  0
  148.4649  133.7958  157.2071 C   0  0  2  0  0  0  0  0  0  0  0  0
  148.0730  132.5860  158.0592 C   0  0  0  0  0  0  0  0  0  0  0  0
  147.6786  133.0463  159.3406 O   0  0  0  0  0  0  0  0  0  0  0  0
  146.4963  132.6703  159.8628 C   0  0  0  0  0  0  0  0  0  0  0  0
  145.9481  131.5960  159.6081 O   0  0  0  0  0  0  0  0  0  0  0  0
  145.9168  133.6955  160.7781 C   0  0  0  0  0  0  0  0  0  0  0  0
  146.6894  134.8249  161.1360 C   0  0  0  0  0  0  0  0  0  0  0  0
  146.1665  135.8062  162.0011 C   0  0  0  0  0  0  0  0  0  0  0  0
  144.8646  135.6706  162.5175 C   0  0  0  0  0  0  0  0  0  0  0  0
  144.0849  134.5529  162.1666 C   0  0  0  0  0  0  0  0  0  0  0  0
  144.6065  133.5713  161.3017 C   0  0  0  0  0  0  0  0  0  0  0  0
  148.2207  133.6092  155.7115 C   0  0  1  0  0  0  0  0  0  0  0  0
  146.8945  133.9469  155.3445 O   0  0  0  0  0  0  0  0  0  0  0  0
  146.8527  135.5558  154.8957 S   0  0  0  0  0  0  0  0  0  0  0  0
  146.3605  135.6342  153.5119 O   0  0  0  0  0  0  0  0  0  0  0  0
  146.2541  136.3280  155.9951 O   0  0  0  0  0  0  0  0  0  0  0  0
  148.4948  135.8539  154.8857 O   0  0  0  0  0  0  0  0  0  0  0  0
  149.1864  134.6307  155.0936 C   0  0  1  0  0  0  0  0  0  0  0  0
  152.0395  142.2665  158.7004 C   0  0  0  0  0  0  0  0  0  0  0  0
  152.3024  142.3587  160.0856 C   0  0  0  0  0  0  0  0  0  0  0  0
  152.2945  143.6101  160.7314 C   0  0  0  0  0  0  0  0  0  0  0  0
  152.0306  144.7811  159.9963 C   0  0  0  0  0  0  0  0  0  0  0  0
  151.7790  144.7001  158.6137 C   0  0  0  0  0  0  0  0  0  0  0  0
  151.7868  143.4490  157.9666 C   0  0  0  0  0  0  0  0  0  0  0  0
  150.6339  141.5865  156.6327 H   0  0  0  0  0  0  0  0  0  0  0  0
  150.8694  138.8102  152.9302 H   0  0  0  0  0  0  0  0  0  0  0  0
  150.4607  136.0289  158.7259 H   0  0  0  0  0  0  0  0  0  0  0  0
  151.2664  134.4274  155.8344 H   0  0  0  0  0  0  0  0  0  0  0  0
  147.9439  134.6891  157.5537 H   0  0  0  0  0  0  0  0  0  0  0  0
  147.2375  132.0628  157.5922 H   0  0  0  0  0  0  0  0  0  0  0  0
  148.9030  131.8831  158.1411 H   0  0  0  0  0  0  0  0  0  0  0  0
  147.6920  134.9494  160.7526 H   0  0  0  0  0  0  0  0  0  0  0  0
  146.7662  136.6638  162.2683 H   0  0  0  0  0  0  0  0  0  0  0  0
  144.4638  136.4232  163.1805 H   0  0  0  0  0  0  0  0  0  0  0  0
  143.0844  134.4477  162.5597 H   0  0  0  0  0  0  0  0  0  0  0  0
  143.9818  132.7284  161.0475 H   0  0  0  0  0  0  0  0  0  0  0  0
  148.4755  132.5971  155.3944 H   0  0  0  0  0  0  0  0  0  0  0  0
  149.6124  134.2810  154.1529 H   0  0  0  0  0  0  0  0  0  0  0  0
  152.5078  141.4691  160.6639 H   0  0  0  0  0  0  0  0  0  0  0  0
  152.4921  143.6710  161.7916 H   0  0  0  0  0  0  0  0  0  0  0  0
  152.0248  145.7407  160.4917 H   0  0  0  0  0  0  0  0  0  0  0  0
  151.5825  145.5988  158.0479 H   0  0  0  0  0  0  0  0  0  0  0  0
  151.6002  143.4114  156.9031 H   0  0  0  0  0  0  0  0  0  0  0  0
  1  2  2  0  0  0  0
  2  3  1  0  0  0  0
  2 33  1  0  0  0  0
  3  4  1  0  0  0  0
  3 39  1  0  0  0  0
  4  9  1  0  0  0  0
  4  5  2  0  0  0  0
  5  6  1  0  0  0  0
  6  7  2  0  0  0  0
  6 40  1  0  0  0  0
  7  8  1  0  0  0  0
  8 12  1  0  0  0  0
  8  9  2  0  0  0  0
  9 10  1  0  0  0  0
 10 11  2  0  0  0  0
 11 12  1  0  0  0  0
 11 41  1  0  0  0  0
 12 13  1  0  0  0  0
 13 32  1  0  0  0  0
 13 14  1  0  0  0  0
 13 42  1  0  0  0  0
 14 15  1  0  0  0  0
 15 16  1  0  0  0  0
 15 26  1  0  0  0  0
 15 43  1  0  0  0  0
 16 17  1  0  0  0  0
 16 44  1  0  0  0  0
 16 45  1  0  0  0  0
 17 18  1  0  0  0  0
 18 19  2  0  0  0  0
 18 20  1  0  0  0  0
 20 25  1  0  0  0  0
 20 21  2  0  0  0  0
 21 22  1  0  0  0  0
 21 46  1  0  0  0  0
 22 23  2  0  0  0  0
 22 47  1  0  0  0  0
 23 24  1  0  0  0  0
 23 48  1  0  0  0  0
 24 25  2  0  0  0  0
 24 49  1  0  0  0  0
 25 50  1  0  0  0  0
 26 32  1  0  0  0  0
 26 27  1  0  0  0  0
 26 51  1  0  0  0  0
 27 28  1  0  0  0  0
 28 29  2  0  0  0  0
 28 30  2  0  0  0  0
 28 31  1  0  0  0  0
 31 32  1  0  0  0  0
 32 52  1  0  0  0  0
 33 38  1  0  0  0  0
 33 34  2  0  0  0  0
 34 35  1  0  0  0  0
 34 53  1  0  0  0  0
 35 36  2  0  0  0  0
 35 54  1  0  0  0  0
 36 37  1  0  0  0  0
 36 55  1  0  0  0  0
 37 38  2  0  0  0  0
 37 56  1  0  0  0  0
 38 57  1  0  0  0  0
M  END
> <s_m_source_file>
AV-unprocessed.smi

> <i_m_source_file_index>
1

> <i_lp_mmshare_version>
43012

> <i_f3d_flags>
0

> <s_epik_input>
W2NIXTFbY0hdW2NIXVtjSF1bY0hdYzFDKD1PKVtOSF1jKG5bY0hdbjIpYyhjMjMpbltjSF1uM1tDQEBIXShbQ0BIXShbQ0BIXTQ1KU9TKE81KSg9Tyk9TylPW0NASF00W0NIMl1PQyg9TyljNltjSF1bY0hdW2NIXVtjSF1bY0hdNg==

> <s_epik_cmdline>
J2VwaWtfcHl0aG9uJywgJy1waCcsICc3LjAnLCAnLXRuJywgJzgnLCAnLW1hJywgJzIwMCcsICctbWV0YWxfYmluZGluZycsICctaW1hZScsICc8aW5maWxlLm1hZT4nLCAnLW9tYWUnLCAnPG91dGZpbGUubWFlPic=

> <r_lp_tautomer_probability>
1

> <r_epik_Ionization_Penalty>
0.00195722

> <r_epik_Ionization_Penalty_Charging>
0

> <r_epik_Ionization_Penalty_Neutral>
0.00195722

> <r_epik_State_Penalty>
0.00633741

> <r_epik_Charging_Adjusted_Penalty>
0.00633741

> <i_epik_Tot_Q>
0

> <i_epik_Tot_abs_Q>
0

> <r_epik_Metal_State_Penalty>
0.341185

> <b_epik_Metal_Only>
0

> <s_epik_Chemistry_Notes>
This compound has an ester and may undergo hydrolysis at high or low pH. This compound contains an acetal/aminal-like group ( X-CH(R)-Y where X, Y are N, S, or O) that may be acid/base labile, releasing an aldehyde.

> <s_lp_Force_Field>
OPLS_2005

> <r_lp_Energy>
42.577

> <b_lp_Chiralities_Consistent>
1

> <s_lp_Variant>
AV-unprocessed.smi:1-8

> <Gold.Version>
5.8.1

> <Gold.Id.Protein>
6NUR|6NUR_protein|mol2

> <Gold.PLP.Fitness>
60.8435

> <Gold.PLP.PLP>
-54.3993

> <Gold.PLP.part.hbond>
-3.3466

> <Gold.PLP.part.metal>
0.0000

> <Gold.PLP.part.buried>
-8.9914

> <Gold.PLP.part.nonpolar>
-44.3357

> <Gold.PLP.part.repulsive>
0.6237

> <Gold.PLP.ligand.clash>
0.0000

> <Gold.PLP.ligand.torsion>
2.2491

> <Gold.PLP.Chemscore.Hbond>
2.6992

> <Gold.PLP.Chemscore.CHOScore>
0.9064

> <Gold.PLP.Chemscore.Metal>
0.0000

> <Gold.Chemscore.Hbonds>
donor molecule, donor type, donor heavy atom, donor atom, acceptor molecule, acceptor atom, score
      P1  H  6896  6907       L1    14  0.39
      P1  H  7989  7998       L1     5  1.00
      P1  H  7997  8010       L1     1  0.29
      L1  C     6    40       P1  7957  0.87

> <Gold.PLP.Chemscore.Internal.Correction>
0.1258

> <Gold.Rescore>
     Score         DG    S(hbond)    S(metal)    S(lipo)     H(rot)  DE(clash)    DE(int)     intcor
     15.97     -22.45       2.07        0.00     132.78       2.13       0.29       6.20       ----

> <Gold.Chemscore.Fitness>
15.9659

> <Gold.Chemscore.DG>
-22.4548

> <Gold.Chemscore.ZeroCoef>
-5.4800

> <Gold.Chemscore.Hbond>
2.0660

> <Gold.Chemscore.Metal>
0.0000

> <Gold.Chemscore.Lipo>
132.7835

> <Gold.Chemscore.Internal_Hbond>
0.0000

> <Gold.Chemscore.DEClash>
0.2937

> <Gold.Chemscore.DEInternal>
6.1953

> <Gold.Chemscore.Rot>
2.1333

> <Gold.Chemscore.Internal.Correction>
   9.000000E+99

> <Gold.Chemscore.Hbonds>
donor molecule, donor type, donor heavy atom, donor atom, acceptor molecule, acceptor atom, score
      P1  H  6896  6907       L1    14  0.37
      P1  H  7989  7998       L1     5  0.26
      P1  H  7997  8010       L1     1  0.08

> <Gold.Chemscore.Hbond.Weighted>
-6.9005

> <Gold.Chemscore.Metal.Weighted>
-0.0000

> <Gold.Chemscore.Lipo.Weighted>
-15.5357

> <Gold.Chemscore.Internal_Hbond.Weighted>
0.0000

> <Gold.Chemscore.DEClash.Weighted>
0.2937

> <Gold.Chemscore.DEInternal.Weighted>
6.1953

> <Gold.Chemscore.Rot.Weighted>
5.4614

> <Gold.Chemscore.Internal.Correction.Weighted>
   9.000000E+99

> <Gold.Protein.RotatedTorsions>
[ 6907 6896 6895 6894 ] final -133.01 input  -60.11 | X-H torsion
[ 7974 7965 7964 7962 ] final  131.68 input  175.53 | X-H torsion
[ 8008 7997 7996 7995 ] final   39.17 input   59.86 | X-H torsion
[ 10167 10162 10161 10158 ] final  124.56 input  -65.29 | X-H torsion
[ 10718 10713 10712 10709 ] final  -92.60 input   66.30 | X-H torsion
[ 10763 10752 10751 10750 ] final -138.47 input  -60.55 | X-H torsion
[ 11005 11000 10999 10996 ] final  117.53 input  -57.11 | X-H torsion

> <Gold.Protein.ActiveResidues>
 VAL166  LYS551  ARG553  GLY616  TRP617  ASP618  TYR619  PRO620  LYS621  CYS622 
 ASP623  PHE694  ASN695  SER759  ASP760  ASP761  ALA762  ILE779  LEU786  VAL792 
 PHE793  MET794  SER795  GLU796  ALA797  LYS798  CYS799  TRP800  GLU811  SER814 

> <Gold.Protein.RotatedAtoms>
  150.9690  133.6364  159.2740 H   0  0  0  0  0  0  0  0  0  0  0  0  # atno 6907 bound_to 6896
  151.3659  135.0912  159.9459 H   0  0  0  0  0  0  0  0  0  0  0  0  # atno 6908 bound_to 6896
  152.5176  133.9254  159.7609 H   0  0  0  0  0  0  0  0  0  0  0  0  # atno 6909 bound_to 6896
  145.0047  139.4277  143.5274 H   0  0  0  0  0  0  0  0  0  0  0  0  # atno 7974 bound_to 7965
  155.2323  140.3339  155.4302 H   0  0  0  0  0  0  0  0  0  0  0  0  # atno 8008 bound_to 7997
  156.2290  140.1842  156.7337 H   0  0  0  0  0  0  0  0  0  0  0  0  # atno 8009 bound_to 7997
  154.5946  140.0632  156.9271 H   0  0  0  0  0  0  0  0  0  0  0  0  # atno 8010 bound_to 7997
  139.5735  144.6951  151.3716 H   0  0  0  0  0  0  0  0  0  0  0  0  # atno 10167 bound_to 10162
  156.0004  130.4993  150.5650 H   0  0  0  0  0  0  0  0  0  0  0  0  # atno 10718 bound_to 10713
  154.8636  135.3611  154.5390 H   0  0  0  0  0  0  0  0  0  0  0  0  # atno 10763 bound_to 10752
  153.6012  135.7012  153.5388 H   0  0  0  0  0  0  0  0  0  0  0  0  # atno 10764 bound_to 10752
  153.3289  135.4130  155.1440 H   0  0  0  0  0  0  0  0  0  0  0  0  # atno 10765 bound_to 10752
  139.9078  134.9611  156.7365 H   0  0  0  0  0  0  0  0  0  0  0  0  # atno 11005 bound_to 11000
  146.3459  139.9457  142.8735 LP  0  0  0  0  0  0  0  0  0  0  0  0  # atno 17320 bound_to 7965
  145.2104  140.9893  143.4104 LP  0  0  0  0  0  0  0  0  0  0  0  0  # atno 17321 bound_to 7965
  140.7018  143.7612  150.7416 LP  0  0  0  0  0  0  0  0  0  0  0  0  # atno 17342 bound_to 10162
  140.1125  143.4686  152.2362 LP  0  0  0  0  0  0  0  0  0  0  0  0  # atno 17343 bound_to 10162
  157.3553  131.0740  151.1680 LP  0  0  0  0  0  0  0  0  0  0  0  0  # atno 17370 bound_to 10713
  157.2483  130.6602  149.5920 LP  0  0  0  0  0  0  0  0  0  0  0  0  # atno 17371 bound_to 10713
  140.6884  133.9412  155.7951 LP  0  0  0  0  0  0  0  0  0  0  0  0  # atno 17394 bound_to 11000
  141.0460  134.0554  157.3844 LP  0  0  0  0  0  0  0  0  0  0  0  0  # atno 17395 bound_to 11000

$$$$
