AV-unprocessed.smi:108|AV-procd|sdf|1029|dock1
  -GOLD-   2262018 33D 1   1.00000     0.00000
 Structure written by MMmdl.
 59 62  0  0  0  0  0  0  0  0  1 V2000
  145.1443  131.8340  157.6110 O   0  0  0  0  0  0  0  0  0  0  0  0
  146.2005  132.0717  158.2012 C   0  0  0  0  0  0  0  0  0  0  0  0
  147.4993  132.2381  157.3823 C   0  0  0  0  0  0  0  0  0  0  0  0
  147.4229  131.6460  156.0285 N   0  0  0  0  0  0  0  0  0  0  0  0
  148.2970  130.5793  155.7055 C   0  0  0  0  0  0  0  0  0  0  0  0
  149.0862  130.1249  156.5353 O   0  0  0  0  0  0  0  0  0  0  0  0
  148.2063  130.0875  154.3364 C   0  0  0  0  0  0  0  0  0  0  0  0
  149.0297  129.1078  153.9255 F   0  0  0  0  0  0  0  0  0  0  0  0
  147.3207  130.6137  153.4659 C   0  0  0  0  0  0  0  0  0  0  0  0
  146.4355  131.6220  153.8064 N   0  0  0  0  0  0  0  0  0  0  0  0
  145.5258  132.2686  152.7810 C   0  0  2  0  0  0  0  0  0  0  0  0
  144.9421  131.2905  151.7464 C   0  0  0  0  0  0  0  0  0  0  0  0
  145.7819  131.5800  150.5177 C   0  0  0  0  0  0  0  0  0  0  0  0
  146.0785  133.0641  150.6938 C   0  0  0  0  0  0  0  0  0  0  0  0
  146.2814  133.2208  152.0926 O   0  0  0  0  0  0  0  0  0  0  0  0
  146.5144  132.2000  155.0942 C   0  0  0  0  0  0  0  0  0  0  0  0
  145.8120  133.1676  155.3970 O   0  0  0  0  0  0  0  0  0  0  0  0
  146.2560  132.1839  159.5521 N   0  0  0  0  0  0  0  0  0  0  0  0
  145.0523  131.9836  160.3771 C   0  0  0  0  0  0  0  0  0  0  0  0
  144.7375  130.4932  160.6312 C   0  0  0  0  0  0  0  0  0  0  0  0
  143.4043  130.0465  160.0552 C   0  0  0  0  0  0  0  0  0  0  0  0
  143.3578  129.0199  159.0875 C   0  0  0  0  0  0  0  0  0  0  0  0
  142.1204  128.5895  158.5713 C   0  0  0  0  0  0  0  0  0  0  0  0
  140.9255  129.1859  159.0182 C   0  0  0  0  0  0  0  0  0  0  0  0
  140.9685  130.2128  159.9811 C   0  0  0  0  0  0  0  0  0  0  0  0
  142.2057  130.6427  160.4992 C   0  0  0  0  0  0  0  0  0  0  0  0
  147.4870  132.5034  160.2963 C   0  0  0  0  0  0  0  0  0  0  0  0
  147.4405  133.7976  161.1014 C   0  0  0  0  0  0  0  0  0  0  0  0
  147.3588  133.7954  162.5132 C   0  0  0  0  0  0  0  0  0  0  0  0
  147.3139  135.0100  163.2245 C   0  0  0  0  0  0  0  0  0  0  0  0
  147.3577  136.2350  162.5324 C   0  0  0  0  0  0  0  0  0  0  0  0
  147.4497  136.2444  161.1276 C   0  0  0  0  0  0  0  0  0  0  0  0
  147.4925  135.0299  160.4161 C   0  0  0  0  0  0  0  0  0  0  0  0
  147.7506  133.2973  157.3207 H   0  0  0  0  0  0  0  0  0  0  0  0
  148.3282  131.7956  157.9358 H   0  0  0  0  0  0  0  0  0  0  0  0
  147.3272  130.2197  152.4625 H   0  0  0  0  0  0  0  0  0  0  0  0
  144.7222  132.7417  153.3479 H   0  0  0  0  0  0  0  0  0  0  0  0
  144.9457  130.2522  152.0777 H   0  0  0  0  0  0  0  0  0  0  0  0
  143.9066  131.5770  151.5579 H   0  0  0  0  0  0  0  0  0  0  0  0
  146.7096  131.0082  150.5365 H   0  0  0  0  0  0  0  0  0  0  0  0
  145.2644  131.3575  149.5842 H   0  0  0  0  0  0  0  0  0  0  0  0
  146.9471  133.3926  150.1227 H   0  0  0  0  0  0  0  0  0  0  0  0
  145.2205  133.6649  150.3884 H   0  0  0  0  0  0  0  0  0  0  0  0
  145.1693  132.4894  161.3363 H   0  0  0  0  0  0  0  0  0  0  0  0
  144.1930  132.4688  159.9109 H   0  0  0  0  0  0  0  0  0  0  0  0
  145.5312  129.8753  160.2100 H   0  0  0  0  0  0  0  0  0  0  0  0
  144.7427  130.2906  161.7029 H   0  0  0  0  0  0  0  0  0  0  0  0
  144.2700  128.5518  158.7460 H   0  0  0  0  0  0  0  0  0  0  0  0
  142.0887  127.8005  157.8344 H   0  0  0  0  0  0  0  0  0  0  0  0
  139.9763  128.8554  158.6229 H   0  0  0  0  0  0  0  0  0  0  0  0
  140.0519  130.6693  160.3245 H   0  0  0  0  0  0  0  0  0  0  0  0
  142.2326  131.4262  161.2424 H   0  0  0  0  0  0  0  0  0  0  0  0
  147.7323  131.6988  160.9902 H   0  0  0  0  0  0  0  0  0  0  0  0
  148.3370  132.5301  159.6143 H   0  0  0  0  0  0  0  0  0  0  0  0
  147.3276  132.8672  163.0642 H   0  0  0  0  0  0  0  0  0  0  0  0
  147.2458  135.0013  164.3023 H   0  0  0  0  0  0  0  0  0  0  0  0
  147.3227  137.1661  163.0786 H   0  0  0  0  0  0  0  0  0  0  0  0
  147.4870  137.1834  160.5954 H   0  0  0  0  0  0  0  0  0  0  0  0
  147.5627  135.0469  159.3382 H   0  0  0  0  0  0  0  0  0  0  0  0
  1  2  2  0  0  0  0
  2  3  1  0  0  0  0
  2 18  1  0  0  0  0
  3  4  1  0  0  0  0
  3 34  1  0  0  0  0
  3 35  1  0  0  0  0
  4 16  1  0  0  0  0
  4  5  1  0  0  0  0
  5  6  2  0  0  0  0
  5  7  1  0  0  0  0
  7  8  1  0  0  0  0
  7  9  2  0  0  0  0
  9 10  1  0  0  0  0
  9 36  1  0  0  0  0
 10 11  1  0  0  0  0
 10 16  1  0  0  0  0
 11 15  1  0  0  0  0
 11 12  1  0  0  0  0
 11 37  1  0  0  0  0
 12 13  1  0  0  0  0
 12 38  1  0  0  0  0
 12 39  1  0  0  0  0
 13 14  1  0  0  0  0
 13 40  1  0  0  0  0
 13 41  1  0  0  0  0
 14 15  1  0  0  0  0
 14 42  1  0  0  0  0
 14 43  1  0  0  0  0
 16 17  2  0  0  0  0
 18 19  1  0  0  0  0
 18 27  1  0  0  0  0
 19 20  1  0  0  0  0
 19 44  1  0  0  0  0
 19 45  1  0  0  0  0
 20 21  1  0  0  0  0
 20 46  1  0  0  0  0
 20 47  1  0  0  0  0
 21 26  1  0  0  0  0
 21 22  2  0  0  0  0
 22 23  1  0  0  0  0
 22 48  1  0  0  0  0
 23 24  2  0  0  0  0
 23 49  1  0  0  0  0
 24 25  1  0  0  0  0
 24 50  1  0  0  0  0
 25 26  2  0  0  0  0
 25 51  1  0  0  0  0
 26 52  1  0  0  0  0
 27 28  1  0  0  0  0
 27 53  1  0  0  0  0
 27 54  1  0  0  0  0
 28 33  1  0  0  0  0
 28 29  2  0  0  0  0
 29 30  1  0  0  0  0
 29 55  1  0  0  0  0
 30 31  2  0  0  0  0
 30 56  1  0  0  0  0
 31 32  1  0  0  0  0
 31 57  1  0  0  0  0
 32 33  2  0  0  0  0
 32 58  1  0  0  0  0
 33 59  1  0  0  0  0
M  END
> <s_m_source_file>
AV-unprocessed.smi

> <i_m_source_file_index>
108

> <i_lp_mmshare_version>
43012

> <i_f3d_flags>
0

> <s_epik_input>
W2NIXTFbY0hdW2NIXVtjSF1bY0hdYzFbQ0gyXVtDSDJdTihbQ0gyXWMyW2NIXVtjSF1bY0hdW2NIXVtjSF0yKUMoPU8pW0NIMl1uM2MoPU8pYyhGKVtjSF1uKGMzPU8pW0NAQEhdNFtDSDJdW0NIMl1bQ0gyXU80

> <s_epik_cmdline>
J2VwaWtfcHl0aG9uJywgJy1waCcsICc3LjAnLCAnLXRuJywgJzgnLCAnLW1hJywgJzIwMCcsICctbWV0YWxfYmluZGluZycsICctaW1hZScsICc8aW5maWxlLm1hZT4nLCAnLW9tYWUnLCAnPG91dGZpbGUubWFlPic=

> <r_lp_tautomer_probability>
1

> <r_epik_Ionization_Penalty>
5.46209e-09

> <r_epik_Ionization_Penalty_Charging>
4.22697e-09

> <r_epik_Ionization_Penalty_Neutral>
1.23512e-09

> <r_epik_State_Penalty>
-0

> <r_epik_Charging_Adjusted_Penalty>
4.22697e-09

> <i_epik_Tot_Q>
0

> <i_epik_Tot_abs_Q>
0

> <r_epik_Metal_State_Penalty>
-0

> <b_epik_Metal_Only>
0

> <s_epik_Chemistry_Notes>
This compound contains an acetal/aminal-like group ( X-CH(R)-Y where X, Y are N, S, or O) that may be acid/base labile, releasing an aldehyde.

> <s_lp_Force_Field>
OPLS_2005

> <r_lp_Energy>
39.1501

> <b_lp_Chiralities_Consistent>
1

> <s_lp_Variant>
AV-unprocessed.smi:108-1

> <Gold.Version>
5.8.1

> <Gold.Id.Protein>
6NUR|6NUR_protein|mol2

> <Gold.PLP.Fitness>
51.1063

> <Gold.PLP.PLP>
-50.7636

> <Gold.PLP.part.hbond>
0.0000

> <Gold.PLP.part.metal>
0.0000

> <Gold.PLP.part.buried>
-6.8409

> <Gold.PLP.part.nonpolar>
-43.2673

> <Gold.PLP.part.repulsive>
0.3514

> <Gold.PLP.ligand.clash>
0.0000

> <Gold.PLP.ligand.torsion>
1.7938

> <Gold.PLP.Chemscore.Hbond>
0.0000

> <Gold.PLP.Chemscore.CHOScore>
1.0000

> <Gold.PLP.Chemscore.Metal>
0.0000

> <Gold.Chemscore.Hbonds>
donor molecule, donor type, donor heavy atom, donor atom, acceptor molecule, acceptor atom, score
      L1  C     9    36       P1 10747  0.33

> <Gold.PLP.Chemscore.Internal.Correction>
0.9304

> <Gold.Rescore>
     Score         DG    S(hbond)    S(metal)    S(lipo)     H(rot)  DE(clash)    DE(int)     intcor
     10.87     -15.30       0.00        0.00     133.75       2.28       0.02       4.41       ----

> <Gold.Chemscore.Fitness>
10.8739

> <Gold.Chemscore.DG>
-15.3033

> <Gold.Chemscore.ZeroCoef>
-5.4800

> <Gold.Chemscore.Hbond>
0.0000

> <Gold.Chemscore.Metal>
0.0000

> <Gold.Chemscore.Lipo>
133.7497

> <Gold.Chemscore.Internal_Hbond>
0.0000

> <Gold.Chemscore.DEClash>
0.0212

> <Gold.Chemscore.DEInternal>
4.4081

> <Gold.Chemscore.Rot>
2.2756

> <Gold.Chemscore.Internal.Correction>
   9.000000E+99

> <Gold.Chemscore.Hbond.Weighted>
-0.0000

> <Gold.Chemscore.Metal.Weighted>
-0.0000

> <Gold.Chemscore.Lipo.Weighted>
-15.6487

> <Gold.Chemscore.Internal_Hbond.Weighted>
0.0000

> <Gold.Chemscore.DEClash.Weighted>
0.0212

> <Gold.Chemscore.DEInternal.Weighted>
4.4081

> <Gold.Chemscore.Rot.Weighted>
5.8255

> <Gold.Chemscore.Internal.Correction.Weighted>
   9.000000E+99

> <Gold.Protein.RotatedTorsions>
[ 6907 6896 6895 6894 ] final   79.36 input  -60.11 | X-H torsion
[ 7974 7965 7964 7962 ] final   19.96 input  175.53 | X-H torsion
[ 8008 7997 7996 7995 ] final -110.57 input   59.86 | X-H torsion
[ 10167 10162 10161 10158 ] final  170.94 input  -65.29 | X-H torsion
[ 10718 10713 10712 10709 ] final   38.26 input   66.30 | X-H torsion
[ 10763 10752 10751 10750 ] final  131.38 input  -60.55 | X-H torsion
[ 11005 11000 10999 10996 ] final -104.24 input  -57.11 | X-H torsion

> <Gold.Protein.ActiveResidues>
 VAL166  LYS551  ARG553  GLY616  TRP617  ASP618  TYR619  PRO620  LYS621  CYS622 
 ASP623  PHE694  ASN695  SER759  ASP760  ASP761  ALA762  ILE779  LEU786  VAL792 
 PHE793  MET794  SER795  GLU796  ALA797  LYS798  CYS799  TRP800  GLU811  SER814 

> <Gold.Protein.RotatedAtoms>
  152.5195  134.3522  159.9254 H   0  0  0  0  0  0  0  0  0  0  0  0  # atno 6907 bound_to 6896
  151.3473  133.3932  159.2684 H   0  0  0  0  0  0  0  0  0  0  0  0  # atno 6908 bound_to 6896
  150.9755  134.9138  159.7871 H   0  0  0  0  0  0  0  0  0  0  0  0  # atno 6909 bound_to 6896
  146.2129  139.8238  142.8674 H   0  0  0  0  0  0  0  0  0  0  0  0  # atno 7974 bound_to 7965
  154.9766  140.0397  157.2258 H   0  0  0  0  0  0  0  0  0  0  0  0  # atno 8008 bound_to 7997
  154.7752  140.2809  155.6084 H   0  0  0  0  0  0  0  0  0  0  0  0  # atno 8009 bound_to 7997
  156.2927  140.2602  156.2565 H   0  0  0  0  0  0  0  0  0  0  0  0  # atno 8010 bound_to 7997
  139.5032  144.3541  151.9893 H   0  0  0  0  0  0  0  0  0  0  0  0  # atno 10167 bound_to 10162
  157.3567  130.7627  149.7018 H   0  0  0  0  0  0  0  0  0  0  0  0  # atno 10718 bound_to 10713
  153.7735  135.3178  155.3355 H   0  0  0  0  0  0  0  0  0  0  0  0  # atno 10763 bound_to 10752
  154.8188  135.4618  154.0721 H   0  0  0  0  0  0  0  0  0  0  0  0  # atno 10764 bound_to 10752
  153.1988  135.6919  153.8342 H   0  0  0  0  0  0  0  0  0  0  0  0  # atno 10765 bound_to 10752
  141.1109  133.8707  157.1586 H   0  0  0  0  0  0  0  0  0  0  0  0  # atno 11005 bound_to 11000
  145.3069  141.0209  143.3577 LP  0  0  0  0  0  0  0  0  0  0  0  0  # atno 17320 bound_to 7965
  144.8965  139.4706  143.6653 LP  0  0  0  0  0  0  0  0  0  0  0  0  # atno 17321 bound_to 7965
  140.2977  144.3682  150.6069 LP  0  0  0  0  0  0  0  0  0  0  0  0  # atno 17342 bound_to 10162
  140.5897  143.2168  151.7275 LP  0  0  0  0  0  0  0  0  0  0  0  0  # atno 17343 bound_to 10162
  155.9730  130.4125  150.4036 LP  0  0  0  0  0  0  0  0  0  0  0  0  # atno 17370 bound_to 10713
  157.2107  131.0459  151.2601 LP  0  0  0  0  0  0  0  0  0  0  0  0  # atno 17371 bound_to 10713
  140.0003  135.0030  157.0175 LP  0  0  0  0  0  0  0  0  0  0  0  0  # atno 17394 bound_to 11000
  140.4777  134.1322  155.7212 LP  0  0  0  0  0  0  0  0  0  0  0  0  # atno 17395 bound_to 11000

$$$$
