AV-unprocessed.smi:1610|AV-procd|sdf|6470|dock9
  -GOLD-   22720 7123D 1   1.00000     0.00000
 Structure written by MMmdl.
 44 45  0  0  0  0  0  0  0  0  1 V2000
  148.0490  134.6279  156.1020 C   0  0  0  0  0  0  0  0  0  0  0  0
  149.2720  135.2216  157.3410 S   0  0  0  0  0  0  0  0  0  0  0  0
  149.1217  136.6767  157.4961 O   0  0  0  0  0  0  0  0  0  0  0  0
  149.2068  134.3379  158.5145 O   0  0  0  0  0  0  0  0  0  0  0  0
  150.7820  134.9274  156.5603 N   0  0  0  0  0  0  0  0  0  0  0  0
  151.5613  136.0235  155.9818 C   0  0  0  0  0  0  0  0  0  0  0  0
  151.9266  137.0523  157.0714 C   0  0  0  0  0  0  0  0  0  0  0  0
  152.5962  138.2924  156.4513 C   0  0  0  0  0  0  0  0  0  0  0  0
  151.6980  138.8605  155.4301 N   0  0  0  0  0  0  0  0  0  0  0  0
  150.9627  139.9953  155.5484 C   0  0  0  0  0  0  0  0  0  0  0  0
  150.2709  140.4490  154.6354 O   0  0  0  0  0  0  0  0  0  0  0  0
  151.0683  140.6147  156.7365 N   0  0  0  0  0  0  0  0  0  0  0  0
  150.3900  141.8526  157.1017 C   0  0  0  0  0  0  0  0  0  0  0  0
  151.3324  143.0629  157.0017 C   0  0  0  0  0  0  0  0  0  0  0  0
  151.5171  143.7539  158.3379 C   0  0  0  0  0  0  0  0  0  0  0  0
  152.3324  143.1855  159.3381 C   0  0  0  0  0  0  0  0  0  0  0  0
  152.4726  143.8629  160.5646 C   0  0  0  0  0  0  0  0  0  0  0  0
  151.7888  145.0827  160.7388 C   0  0  0  0  0  0  0  0  0  0  0  0
  151.0043  145.6356  159.7886 N   0  0  0  0  0  0  0  0  0  0  0  0
  150.8753  144.9796  158.6152 C   0  0  0  0  0  0  0  0  0  0  0  0
  151.5082  137.9285  154.3106 C   0  0  0  0  0  0  0  0  0  0  0  0
  150.7802  136.6724  154.8223 C   0  0  0  0  0  0  0  0  0  0  0  0
  147.0428  134.7445  156.5042 H   0  0  0  0  0  0  0  0  0  0  0  0
  148.2311  133.5759  155.8837 H   0  0  0  0  0  0  0  0  0  0  0  0
  148.1392  135.2114  155.1862 H   0  0  0  0  0  0  0  0  0  0  0  0
  150.8463  134.0324  156.0756 H   0  0  0  0  0  0  0  0  0  0  0  0
  152.4876  135.6175  155.5733 H   0  0  0  0  0  0  0  0  0  0  0  0
  151.0286  137.3607  157.6089 H   0  0  0  0  0  0  0  0  0  0  0  0
  152.5903  136.5997  157.8088 H   0  0  0  0  0  0  0  0  0  0  0  0
  152.8718  138.9928  157.2396 H   0  0  0  0  0  0  0  0  0  0  0  0
  153.5371  138.0072  155.9787 H   0  0  0  0  0  0  0  0  0  0  0  0
  151.6627  140.1961  157.4370 H   0  0  0  0  0  0  0  0  0  0  0  0
  149.5418  141.9845  156.4294 H   0  0  0  0  0  0  0  0  0  0  0  0
  149.9780  141.7693  158.1089 H   0  0  0  0  0  0  0  0  0  0  0  0
  152.3102  142.7532  156.6302 H   0  0  0  0  0  0  0  0  0  0  0  0
  150.9432  143.7820  156.2797 H   0  0  0  0  0  0  0  0  0  0  0  0
  152.8405  142.2472  159.1704 H   0  0  0  0  0  0  0  0  0  0  0  0
  153.0887  143.4573  161.3533 H   0  0  0  0  0  0  0  0  0  0  0  0
  151.8738  145.6282  161.6669 H   0  0  0  0  0  0  0  0  0  0  0  0
  150.2396  145.4461  157.8770 H   0  0  0  0  0  0  0  0  0  0  0  0
  150.9523  138.3703  153.4825 H   0  0  0  0  0  0  0  0  0  0  0  0
  152.4804  137.6552  153.8983 H   0  0  0  0  0  0  0  0  0  0  0  0
  150.6526  135.9570  154.0090 H   0  0  0  0  0  0  0  0  0  0  0  0
  149.7778  136.9474  155.1546 H   0  0  0  0  0  0  0  0  0  0  0  0
  1  2  1  0  0  0  0
  1 23  1  0  0  0  0
  1 24  1  0  0  0  0
  1 25  1  0  0  0  0
  2  3  2  0  0  0  0
  2  4  2  0  0  0  0
  2  5  1  0  0  0  0
  5  6  1  0  0  0  0
  5 26  1  0  0  0  0
  6 22  1  0  0  0  0
  6  7  1  0  0  0  0
  6 27  1  0  0  0  0
  7  8  1  0  0  0  0
  7 28  1  0  0  0  0
  7 29  1  0  0  0  0
  8  9  1  0  0  0  0
  8 30  1  0  0  0  0
  8 31  1  0  0  0  0
  9 10  1  0  0  0  0
  9 21  1  0  0  0  0
 10 11  2  0  0  0  0
 10 12  1  0  0  0  0
 12 13  1  0  0  0  0
 12 32  1  0  0  0  0
 13 14  1  0  0  0  0
 13 33  1  0  0  0  0
 13 34  1  0  0  0  0
 14 15  1  0  0  0  0
 14 35  1  0  0  0  0
 14 36  1  0  0  0  0
 15 20  1  0  0  0  0
 15 16  2  0  0  0  0
 16 17  1  0  0  0  0
 16 37  1  0  0  0  0
 17 18  2  0  0  0  0
 17 38  1  0  0  0  0
 18 19  1  0  0  0  0
 18 39  1  0  0  0  0
 19 20  2  0  0  0  0
 20 40  1  0  0  0  0
 21 22  1  0  0  0  0
 21 41  1  0  0  0  0
 21 42  1  0  0  0  0
 22 43  1  0  0  0  0
 22 44  1  0  0  0  0
M  END
> <s_m_source_file>
AV-unprocessed.smi

> <i_m_source_file_index>
1610

> <i_lp_mmshare_version>
43012

> <i_f3d_flags>
0

> <s_epik_input>
W0NIM11TKD1PKSg9TylbTkhdW0NIXTFbQ0gyXVtDSDJdTihbQ0gyXVtDSDJdMSlDKD1PKVtOSF1bQ0gyXVtDSDJdYzJbY0hdW2NIXVtjSF1uW2NIXTI=

> <s_epik_cmdline>
J2VwaWtfcHl0aG9uJywgJy1waCcsICc3LjAnLCAnLXRuJywgJzgnLCAnLW1hJywgJzIwMCcsICctbWV0YWxfYmluZGluZycsICctaW1hZScsICc8aW5maWxlLm1hZT4nLCAnLW9tYWUnLCAnPG91dGZpbGUubWFlPic=

> <r_epik_Ionization_Penalty>
0.0145188

> <r_epik_Ionization_Penalty_Charging>
0

> <r_epik_Ionization_Penalty_Neutral>
0.0145188

> <r_epik_State_Penalty>
0.0113046

> <r_epik_Charging_Adjusted_Penalty>
0.0113046

> <i_epik_Tot_Q>
0

> <i_epik_Tot_abs_Q>
0

> <r_epik_Metal_State_Penalty>
0.0179141

> <b_epik_Metal_Only>
0

> <s_lp_Force_Field>
OPLS_2005

> <r_lp_Energy>
22.3117

> <b_lp_Chiralities_Consistent>
1

> <s_lp_Variant>
AV-unprocessed.smi:1610-1

> <Gold.Version>
5.8.1

> <Gold.Id.Protein>
6NUR|6NUR_protein|mol2

> <Gold.PLP.Fitness>
44.1439

> <Gold.PLP.PLP>
-37.5250

> <Gold.PLP.part.hbond>
-3.6707

> <Gold.PLP.part.metal>
0.0000

> <Gold.PLP.part.buried>
-4.3455

> <Gold.PLP.part.nonpolar>
-31.0389

> <Gold.PLP.part.repulsive>
0.5226

> <Gold.PLP.ligand.clash>
0.0000

> <Gold.PLP.ligand.torsion>
1.2587

> <Gold.PLP.Chemscore.Hbond>
1.9600

> <Gold.PLP.Chemscore.CHOScore>
0.7212

> <Gold.PLP.Chemscore.Metal>
0.0000

> <Gold.Chemscore.Hbonds>
donor molecule, donor type, donor heavy atom, donor atom, acceptor molecule, acceptor atom, score
      P1  H  6896  6909       L1     4  1.00
      P1  H  7989  7998       L1    11  0.88
      L1  C    20    40       P1  8028  0.16
      L1  C    20    40       P1  8029  0.65

> <Gold.PLP.Chemscore.Internal.Correction>
1.0928

> <Gold.Rescore>
     Score         DG    S(hbond)    S(metal)    S(lipo)     H(rot)  DE(clash)    DE(int)     intcor
     15.48     -18.23       1.42        0.00     106.38       1.73       0.16       2.60       ----

> <Gold.Chemscore.Fitness>
15.4816

> <Gold.Chemscore.DG>
-18.2331

> <Gold.Chemscore.ZeroCoef>
-5.4800

> <Gold.Chemscore.Hbond>
1.4161

> <Gold.Chemscore.Metal>
0.0000

> <Gold.Chemscore.Lipo>
106.3755

> <Gold.Chemscore.Internal_Hbond>
0.0000

> <Gold.Chemscore.DEClash>
0.1561

> <Gold.Chemscore.DEInternal>
2.5954

> <Gold.Chemscore.Rot>
1.7276

> <Gold.Chemscore.Internal.Correction>
   9.000000E+99

> <Gold.Chemscore.Hbonds>
donor molecule, donor type, donor heavy atom, donor atom, acceptor molecule, acceptor atom, score
      P1  H  6896  6909       L1     4  0.94
      P1  H  7989  7998       L1    11  0.17

> <Gold.Chemscore.Hbond.Weighted>
-4.7298

> <Gold.Chemscore.Metal.Weighted>
-0.0000

> <Gold.Chemscore.Lipo.Weighted>
-12.4459

> <Gold.Chemscore.Internal_Hbond.Weighted>
0.0000

> <Gold.Chemscore.DEClash.Weighted>
0.1561

> <Gold.Chemscore.DEInternal.Weighted>
2.5954

> <Gold.Chemscore.Rot.Weighted>
4.4226

> <Gold.Chemscore.Internal.Correction.Weighted>
   9.000000E+99

> <Gold.Protein.RotatedTorsions>
[ 6907 6896 6895 6894 ] final   16.67 input  -60.11 | X-H torsion
[ 7974 7965 7964 7962 ] final    5.24 input  175.53 | X-H torsion
[ 8008 7997 7996 7995 ] final -149.52 input   59.86 | X-H torsion
[ 10167 10162 10161 10158 ] final  130.30 input  -65.29 | X-H torsion
[ 10718 10713 10712 10709 ] final  130.00 input   66.30 | X-H torsion
[ 10763 10752 10751 10750 ] final  129.12 input  -60.55 | X-H torsion
[ 11005 11000 10999 10996 ] final  -35.00 input  -57.11 | X-H torsion

> <Gold.Protein.ActiveResidues>
 VAL166  LYS551  ARG553  GLY616  TRP617  ASP618  TYR619  PRO620  LYS621  CYS622 
 ASP623  PHE694  ASN695  SER759  ASP760  ASP761  ALA762  ILE779  LEU786  VAL792 
 PHE793  MET794  SER795  GLU796  ALA797  LYS798  CYS799  TRP800  GLU811  SER814 

> <Gold.Protein.RotatedAtoms>
  151.8375  135.0601  160.0443 H   0  0  0  0  0  0  0  0  0  0  0  0  # atno 6907 bound_to 6896
  152.2834  133.5487  159.5520 H   0  0  0  0  0  0  0  0  0  0  0  0  # atno 6908 bound_to 6896
  150.7199  134.0448  159.3820 H   0  0  0  0  0  0  0  0  0  0  0  0  # atno 6909 bound_to 6896
  146.2441  140.0414  142.8382 H   0  0  0  0  0  0  0  0  0  0  0  0  # atno 7974 bound_to 7965
  155.6089  140.0669  157.2712 H   0  0  0  0  0  0  0  0  0  0  0  0  # atno 8008 bound_to 7997
  154.4259  140.1805  156.1299 H   0  0  0  0  0  0  0  0  0  0  0  0  # atno 8009 bound_to 7997
  156.0100  140.3327  155.6935 H   0  0  0  0  0  0  0  0  0  0  0  0  # atno 8010 bound_to 7997
  139.5436  144.6753  151.4544 H   0  0  0  0  0  0  0  0  0  0  0  0  # atno 10167 bound_to 10162
  157.5102  131.1096  150.9303 H   0  0  0  0  0  0  0  0  0  0  0  0  # atno 10718 bound_to 10713
  153.7366  135.3230  155.3296 H   0  0  0  0  0  0  0  0  0  0  0  0  # atno 10763 bound_to 10752
  154.8309  135.4534  154.1069 H   0  0  0  0  0  0  0  0  0  0  0  0  # atno 10764 bound_to 10752
  153.2231  135.6950  153.8058 H   0  0  0  0  0  0  0  0  0  0  0  0  # atno 10765 bound_to 10752
  140.9761  133.7082  156.1605 H   0  0  0  0  0  0  0  0  0  0  0  0  # atno 11005 bound_to 11000
  145.1065  140.9379  143.4681 LP  0  0  0  0  0  0  0  0  0  0  0  0  # atno 17320 bound_to 7965
  145.0619  139.3099  143.5876 LP  0  0  0  0  0  0  0  0  0  0  0  0  # atno 17321 bound_to 7965
  140.6676  143.8364  150.6960 LP  0  0  0  0  0  0  0  0  0  0  0  0  # atno 17342 bound_to 10162
  140.1778  143.4140  152.1955 LP  0  0  0  0  0  0  0  0  0  0  0  0  # atno 17343 bound_to 10162
  156.9946  130.5576  149.5306 LP  0  0  0  0  0  0  0  0  0  0  0  0  # atno 17370 bound_to 10713
  156.0284  130.5377  150.8469 LP  0  0  0  0  0  0  0  0  0  0  0  0  # atno 17371 bound_to 10713
  140.7256  134.4310  157.5571 LP  0  0  0  0  0  0  0  0  0  0  0  0  # atno 17394 bound_to 11000
  139.8931  134.8738  156.2238 LP  0  0  0  0  0  0  0  0  0  0  0  0  # atno 17395 bound_to 11000

$$$$
