AV-unprocessed.smi:2106|AV-procd|sdf|8597|dock10
  -GOLD-   2272011333D 1   1.00000     0.00000
 Structure written by MMmdl.
 48 49  0  0  0  0  0  0  0  0  2 V2000
  151.5178  143.7054  157.7679 C   0  0  0  0  0  0  0  0  0  0  0  0
  152.0056  143.4297  159.1595 C   0  0  0  0  0  0  0  0  0  0  0  0
  151.6948  144.1318  160.3574 C   0  0  0  0  0  0  0  0  0  0  0  0
  152.3939  143.4711  161.3278 C   0  0  0  0  0  0  0  0  0  0  0  0
  152.4767  143.7279  162.7969 C   0  0  0  0  0  0  0  0  0  0  0  0
  153.0722  142.4400  160.7016 N   0  0  0  0  0  0  0  0  0  0  0  0
  153.9484  141.4323  161.2777 C   0  0  0  0  0  0  0  0  0  0  0  0
  154.0274  140.1963  160.3807 C   0  0  0  0  0  0  0  0  0  0  0  0
  154.2119  140.3229  159.1703 O   0  0  0  0  0  0  0  0  0  0  0  0
  153.8908  139.0061  160.9856 N   0  0  0  0  0  0  0  0  0  0  0  0
  153.9768  137.7132  160.3174 C   0  0  0  0  0  0  0  0  0  0  0  0
  153.8141  136.5440  161.3090 C   0  0  0  0  0  0  0  0  0  0  0  0
  154.8631  136.5364  162.3589 N   0  3  1  0  0  0  0  0  0  0  0  0
  156.2154  136.7776  161.8016 C   0  0  0  0  0  0  0  0  0  0  0  0
  157.2951  136.7026  162.8990 C   0  0  2  0  0  0  0  0  0  0  0  0
  157.5898  135.2691  163.3754 C   0  0  0  0  0  0  0  0  0  0  0  0
  156.9614  137.5742  163.9793 O   0  0  0  0  0  0  0  0  0  0  0  0
  155.6801  137.3449  164.5593 C   0  0  1  0  0  0  0  0  0  0  0  0
  155.4859  138.3574  165.6935 C   0  0  0  0  0  0  0  0  0  0  0  0
  154.5953  137.4757  163.4750 C   0  0  0  0  0  0  0  0  0  0  0  0
  152.8312  142.4183  159.3721 N   0  0  0  0  0  0  0  0  0  0  0  0
  150.8793  144.5887  157.7421 H   0  0  0  0  0  0  0  0  0  0  0  0
  150.9382  142.8666  157.3820 H   0  0  0  0  0  0  0  0  0  0  0  0
  152.3507  143.8788  157.0859 H   0  0  0  0  0  0  0  0  0  0  0  0
  151.0530  144.9909  160.4849 H   0  0  0  0  0  0  0  0  0  0  0  0
  151.8390  144.5649  163.0822 H   0  0  0  0  0  0  0  0  0  0  0  0
  153.4978  143.9695  163.0924 H   0  0  0  0  0  0  0  0  0  0  0  0
  152.1549  142.8552  163.3649 H   0  0  0  0  0  0  0  0  0  0  0  0
  154.9428  141.8576  161.4247 H   0  0  0  0  0  0  0  0  0  0  0  0
  153.5764  141.1538  162.2643 H   0  0  0  0  0  0  0  0  0  0  0  0
  153.7500  138.9982  161.9859 H   0  0  0  0  0  0  0  0  0  0  0  0
  153.2266  137.6784  159.5272 H   0  0  0  0  0  0  0  0  0  0  0  0
  154.9482  137.6507  159.8265 H   0  0  0  0  0  0  0  0  0  0  0  0
  152.8366  136.6389  161.7845 H   0  0  0  0  0  0  0  0  0  0  0  0
  153.8126  135.5832  160.7922 H   0  0  0  0  0  0  0  0  0  0  0  0
  156.4351  136.0542  161.0152 H   0  0  0  0  0  0  0  0  0  0  0  0
  156.2349  137.7644  161.3360 H   0  0  0  0  0  0  0  0  0  0  0  0
  158.2230  137.0892  162.4765 H   0  0  0  0  0  0  0  0  0  0  0  0
  157.9709  134.6602  162.5553 H   0  0  0  0  0  0  0  0  0  0  0  0
  156.7024  134.7694  163.7628 H   0  0  0  0  0  0  0  0  0  0  0  0
  158.3450  135.2692  164.1619 H   0  0  0  0  0  0  0  0  0  0  0  0
  155.6455  136.3453  164.9929 H   0  0  0  0  0  0  0  0  0  0  0  0
  154.5202  138.2216  166.1814 H   0  0  0  0  0  0  0  0  0  0  0  0
  155.5323  139.3816  165.3225 H   0  0  0  0  0  0  0  0  0  0  0  0
  156.2592  138.2436  166.4536 H   0  0  0  0  0  0  0  0  0  0  0  0
  154.5626  138.4974  163.0924 H   0  0  0  0  0  0  0  0  0  0  0  0
  153.6223  137.2726  163.9204 H   0  0  0  0  0  0  0  0  0  0  0  0
  154.8766  135.6048  162.7490 H   0  0  0  0  0  0  0  0  0  0  0  0
  1  2  1  0  0  0  0
  1 22  1  0  0  0  0
  1 23  1  0  0  0  0
  1 24  1  0  0  0  0
  2 21  2  0  0  0  0
  2  3  1  0  0  0  0
  3  4  2  0  0  0  0
  3 25  1  0  0  0  0
  4  5  1  0  0  0  0
  4  6  1  0  0  0  0
  5 26  1  0  0  0  0
  5 27  1  0  0  0  0
  5 28  1  0  0  0  0
  6  7  1  0  0  0  0
  6 21  1  0  0  0  0
  7  8  1  0  0  0  0
  7 29  1  0  0  0  0
  7 30  1  0  0  0  0
  8  9  2  0  0  0  0
  8 10  1  0  0  0  0
 10 11  1  0  0  0  0
 10 31  1  0  0  0  0
 11 12  1  0  0  0  0
 11 32  1  0  0  0  0
 11 33  1  0  0  0  0
 12 13  1  0  0  0  0
 12 34  1  0  0  0  0
 12 35  1  0  0  0  0
 13 20  1  0  0  0  0
 13 14  1  0  0  0  0
 13 48  1  0  0  0  0
 14 15  1  0  0  0  0
 14 36  1  0  0  0  0
 14 37  1  0  0  0  0
 15 16  1  0  0  0  0
 15 17  1  0  0  0  0
 15 38  1  0  0  0  0
 16 39  1  0  0  0  0
 16 40  1  0  0  0  0
 16 41  1  0  0  0  0
 17 18  1  0  0  0  0
 18 19  1  0  0  0  0
 18 20  1  0  0  0  0
 18 42  1  0  0  0  0
 19 43  1  0  0  0  0
 19 44  1  0  0  0  0
 19 45  1  0  0  0  0
 20 46  1  0  0  0  0
 20 47  1  0  0  0  0
M  CHG  1  13   1
M  END
> <s_m_source_file>
AV-unprocessed.smi

> <i_m_source_file_index>
2106

> <i_lp_mmshare_version>
43012

> <i_f3d_flags>
0

> <s_epik_input>
W0NIM11jMVtjSF1jKFtDSDNdKW4objEpW0NIMl1DKD1PKVtOSF1bQ0gyXVtDSDJdTjJbQ0gyXVtDQEBIXShbQ0gzXSlPW0NAQEhdKFtDSDNdKVtDSDJdMg==

> <s_epik_cmdline>
J2VwaWtfcHl0aG9uJywgJy1waCcsICc3LjAnLCAnLXRuJywgJzgnLCAnLW1hJywgJzIwMCcsICctbWV0YWxfYmluZGluZycsICctaW1hZScsICc8aW5maWxlLm1hZT4nLCAnLW9tYWUnLCAnPG91dGZpbGUubWFlPic=

> <r_lp_tautomer_probability>
1

> <r_epik_Ionization_Penalty>
0.748586

> <r_epik_Ionization_Penalty_Charging>
0.748396

> <r_epik_Ionization_Penalty_Neutral>
0.000189656

> <r_epik_State_Penalty>
0.775162

> <r_epik_Charging_Adjusted_Penalty>
1.52356

> <i_epik_Tot_Q>
1

> <i_epik_Tot_abs_Q>
1

> <r_epik_Metal_State_Penalty>
0.775295

> <b_epik_Metal_Only>
0

> <s_lp_Force_Field>
OPLS_2005

> <r_lp_Energy>
15.7435

> <b_lp_Chiralities_Consistent>
1

> <s_lp_Variant>
AV-unprocessed.smi:2106-5

> <Gold.Version>
5.8.1

> <Gold.Id.Protein>
6NUR|6NUR_protein|mol2

> <Gold.PLP.Fitness>
40.0049

> <Gold.PLP.PLP>
-38.7478

> <Gold.PLP.part.hbond>
-1.0000

> <Gold.PLP.part.metal>
0.0000

> <Gold.PLP.part.buried>
-1.8435

> <Gold.PLP.part.nonpolar>
-35.7207

> <Gold.PLP.part.repulsive>
0.0304

> <Gold.PLP.ligand.clash>
0.0000

> <Gold.PLP.ligand.torsion>
0.6289

> <Gold.PLP.Chemscore.Hbond>
0.8320

> <Gold.PLP.Chemscore.CHOScore>
0.0000

> <Gold.PLP.Chemscore.Metal>
0.0000

> <Gold.Chemscore.Hbonds>
donor molecule, donor type, donor heavy atom, donor atom, acceptor molecule, acceptor atom, score
      P1  H  7997  8009       L1     9  0.77

> <Gold.PLP.Chemscore.Internal.Correction>
0.0190

> <Gold.Rescore>
     Score         DG    S(hbond)    S(metal)    S(lipo)     H(rot)  DE(clash)    DE(int)     intcor
     13.49     -16.17       0.91        0.00     103.42       1.73       0.23       2.45       ----

> <Gold.Chemscore.Fitness>
13.4933

> <Gold.Chemscore.DG>
-16.1694

> <Gold.Chemscore.ZeroCoef>
-5.4800

> <Gold.Chemscore.Hbond>
0.9050

> <Gold.Chemscore.Metal>
0.0000

> <Gold.Chemscore.Lipo>
103.4158

> <Gold.Chemscore.Internal_Hbond>
0.0000

> <Gold.Chemscore.DEClash>
0.2265

> <Gold.Chemscore.DEInternal>
2.4497

> <Gold.Chemscore.Rot>
1.7316

> <Gold.Chemscore.Internal.Correction>
   9.000000E+99

> <Gold.Chemscore.Hbonds>
donor molecule, donor type, donor heavy atom, donor atom, acceptor molecule, acceptor atom, score
      P1  H  7997  8009       L1     9  0.73

> <Gold.Chemscore.Hbond.Weighted>
-3.0228

> <Gold.Chemscore.Metal.Weighted>
-0.0000

> <Gold.Chemscore.Lipo.Weighted>
-12.0996

> <Gold.Chemscore.Internal_Hbond.Weighted>
0.0000

> <Gold.Chemscore.DEClash.Weighted>
0.2265

> <Gold.Chemscore.DEInternal.Weighted>
2.4497

> <Gold.Chemscore.Rot.Weighted>
4.4330

> <Gold.Chemscore.Internal.Correction.Weighted>
   9.000000E+99

> <Gold.Protein.RotatedTorsions>
[ 6907 6896 6895 6894 ] final   87.99 input  -60.11 | X-H torsion
[ 7974 7965 7964 7962 ] final  114.76 input  175.53 | X-H torsion
[ 8008 7997 7996 7995 ] final  118.98 input   59.86 | X-H torsion
[ 10167 10162 10161 10158 ] final   33.02 input  -65.29 | X-H torsion
[ 10718 10713 10712 10709 ] final -122.36 input   66.30 | X-H torsion
[ 10763 10752 10751 10750 ] final  178.53 input  -60.55 | X-H torsion
[ 11005 11000 10999 10996 ] final  139.94 input  -57.11 | X-H torsion

> <Gold.Protein.ActiveResidues>
 VAL166  LYS551  ARG553  GLY616  TRP617  ASP618  TYR619  PRO620  LYS621  CYS622 
 ASP623  PHE694  ASN695  SER759  ASP760  ASP761  ALA762  ILE779  LEU786  VAL792 
 PHE793  MET794  SER795  GLU796  ALA797  LYS798  CYS799  TRP800  GLU811  SER814 

> <Gold.Protein.RotatedAtoms>
  152.5419  134.2191  159.8780 H   0  0  0  0  0  0  0  0  0  0  0  0  # atno 6907 bound_to 6896
  151.2169  133.4517  159.2607 H   0  0  0  0  0  0  0  0  0  0  0  0  # atno 6908 bound_to 6896
  151.0843  134.9890  159.8427 H   0  0  0  0  0  0  0  0  0  0  0  0  # atno 6909 bound_to 6896
  145.2004  139.2955  143.4321 H   0  0  0  0  0  0  0  0  0  0  0  0  # atno 7974 bound_to 7965
  156.2573  140.2863  156.0919 H   0  0  0  0  0  0  0  0  0  0  0  0  # atno 8008 bound_to 7997
  155.1453  140.0396  157.2826 H   0  0  0  0  0  0  0  0  0  0  0  0  # atno 8009 bound_to 7997
  154.6500  140.2542  155.7231 H   0  0  0  0  0  0  0  0  0  0  0  0  # atno 8010 bound_to 7997
  140.4445  144.1139  150.6180 H   0  0  0  0  0  0  0  0  0  0  0  0  # atno 10167 bound_to 10162
  156.1412  130.6467  150.9774 H   0  0  0  0  0  0  0  0  0  0  0  0  # atno 10718 bound_to 10713
  154.5088  135.2787  155.1360 H   0  0  0  0  0  0  0  0  0  0  0  0  # atno 10763 bound_to 10752
  154.2963  135.6257  153.5410 H   0  0  0  0  0  0  0  0  0  0  0  0  # atno 10764 bound_to 10752
  152.9915  135.5686  154.5549 H   0  0  0  0  0  0  0  0  0  0  0  0  # atno 10765 bound_to 10752
  140.0291  134.9360  157.0627 H   0  0  0  0  0  0  0  0  0  0  0  0  # atno 11005 bound_to 11000
  146.3419  140.2247  142.8592 LP  0  0  0  0  0  0  0  0  0  0  0  0  # atno 17320 bound_to 7965
  144.9953  140.8584  143.5314 LP  0  0  0  0  0  0  0  0  0  0  0  0  # atno 17321 bound_to 7965
  140.4279  143.2581  151.9632 LP  0  0  0  0  0  0  0  0  0  0  0  0  # atno 17342 bound_to 10162
  139.4792  144.5771  151.7994 LP  0  0  0  0  0  0  0  0  0  0  0  0  # atno 17343 bound_to 10162
  157.6577  131.0886  150.7909 LP  0  0  0  0  0  0  0  0  0  0  0  0  # atno 17370 bound_to 10713
  156.7984  130.4913  149.5373 LP  0  0  0  0  0  0  0  0  0  0  0  0  # atno 17371 bound_to 10713
  140.4256  134.1835  155.7166 LP  0  0  0  0  0  0  0  0  0  0  0  0  # atno 17394 bound_to 11000
  141.1820  133.8393  157.1223 LP  0  0  0  0  0  0  0  0  0  0  0  0  # atno 17395 bound_to 11000

$$$$
