AV-unprocessed.smi:3129|AV-procd|sdf|11924|dock1
  -GOLD-   2272017303D 1   1.00000     0.00000
 Structure written by MMmdl.
 39 39  0  0  0  0  0  0  0  0  1 V2000
  145.5626  135.1896  151.1556 C   0  0  0  0  0  0  0  0  0  0  0  0
  146.2058  133.8020  151.2964 C   0  0  0  0  0  0  0  0  0  0  0  0
  145.3549  132.7397  150.5786 C   0  0  0  0  0  0  0  0  0  0  0  0
  146.4538  133.4675  152.7823 C   0  0  0  0  0  0  0  0  0  0  0  0
  147.6358  134.1395  153.3145 N   0  0  0  0  0  0  0  0  0  0  0  0
  148.1946  133.9077  154.5130 C   0  0  0  0  0  0  0  0  0  0  0  0
  147.7567  133.0842  155.3171 O   0  0  0  0  0  0  0  0  0  0  0  0
  149.4282  134.7542  154.8697 C   0  0  2  0  0  0  0  0  0  0  0  0
  149.8875  134.4623  156.3074 C   0  0  0  0  0  0  0  0  0  0  0  0
  149.2125  136.2025  154.7000 N   0  0  0  0  0  0  0  0  0  0  0  0
  150.3606  137.0271  155.0600 C   0  0  0  0  0  0  0  0  0  0  0  0
  150.4720  138.2040  154.0813 C   0  0  0  0  0  0  0  0  0  0  0  0
  150.3092  139.4749  154.7599 N   0  0  0  0  0  0  0  0  0  0  0  0
  149.4704  140.5195  154.4332 C   0  0  0  0  0  0  0  0  0  0  0  0
  149.6719  141.5057  155.3560 C   0  0  0  0  0  0  0  0  0  0  0  0
  150.6671  140.9645  156.2172 C   0  0  0  0  0  0  0  0  0  0  0  0
  151.0479  139.7495  155.8567 N   0  0  0  0  0  0  0  0  0  0  0  0
  144.5822  135.2220  151.6320 H   0  0  0  0  0  0  0  0  0  0  0  0
  145.4321  135.4584  150.1069 H   0  0  0  0  0  0  0  0  0  0  0  0
  146.1821  135.9598  151.6161 H   0  0  0  0  0  0  0  0  0  0  0  0
  147.1741  133.8419  150.7955 H   0  0  0  0  0  0  0  0  0  0  0  0
  144.3872  132.6141  151.0651 H   0  0  0  0  0  0  0  0  0  0  0  0
  145.8499  131.7688  150.5653 H   0  0  0  0  0  0  0  0  0  0  0  0
  145.1717  133.0194  149.5409 H   0  0  0  0  0  0  0  0  0  0  0  0
  145.6018  133.7967  153.3779 H   0  0  0  0  0  0  0  0  0  0  0  0
  146.5180  132.3871  152.9232 H   0  0  0  0  0  0  0  0  0  0  0  0
  148.0608  134.8415  152.7260 H   0  0  0  0  0  0  0  0  0  0  0  0
  150.2429  134.4603  154.2052 H   0  0  0  0  0  0  0  0  0  0  0  0
  150.0690  133.3971  156.4569 H   0  0  0  0  0  0  0  0  0  0  0  0
  149.1452  134.7799  157.0409 H   0  0  0  0  0  0  0  0  0  0  0  0
  150.8176  134.9850  156.5330 H   0  0  0  0  0  0  0  0  0  0  0  0
  148.9100  136.4253  153.7623 H   0  0  0  0  0  0  0  0  0  0  0  0
  150.2423  137.3979  156.0792 H   0  0  0  0  0  0  0  0  0  0  0  0
  151.2799  136.4415  155.0263 H   0  0  0  0  0  0  0  0  0  0  0  0
  151.4445  138.1995  153.5869 H   0  0  0  0  0  0  0  0  0  0  0  0
  149.7171  138.1262  153.2971 H   0  0  0  0  0  0  0  0  0  0  0  0
  148.8090  140.4751  153.5805 H   0  0  0  0  0  0  0  0  0  0  0  0
  149.1835  142.4675  155.4075 H   0  0  0  0  0  0  0  0  0  0  0  0
  151.1217  141.4156  157.0868 H   0  0  0  0  0  0  0  0  0  0  0  0
  1  2  1  0  0  0  0
  1 18  1  0  0  0  0
  1 19  1  0  0  0  0
  1 20  1  0  0  0  0
  2  3  1  0  0  0  0
  2  4  1  0  0  0  0
  2 21  1  0  0  0  0
  3 22  1  0  0  0  0
  3 23  1  0  0  0  0
  3 24  1  0  0  0  0
  4  5  1  0  0  0  0
  4 25  1  0  0  0  0
  4 26  1  0  0  0  0
  5  6  1  0  0  0  0
  5 27  1  0  0  0  0
  6  7  2  0  0  0  0
  6  8  1  0  0  0  0
  8  9  1  0  0  0  0
  8 10  1  0  0  0  0
  8 28  1  0  0  0  0
  9 29  1  0  0  0  0
  9 30  1  0  0  0  0
  9 31  1  0  0  0  0
 10 11  1  0  0  0  0
 10 32  1  0  0  0  0
 11 12  1  0  0  0  0
 11 33  1  0  0  0  0
 11 34  1  0  0  0  0
 12 13  1  0  0  0  0
 12 35  1  0  0  0  0
 12 36  1  0  0  0  0
 13 17  1  0  0  0  0
 13 14  1  0  0  0  0
 14 15  2  0  0  0  0
 14 37  1  0  0  0  0
 15 16  1  0  0  0  0
 15 38  1  0  0  0  0
 16 17  2  0  0  0  0
 16 39  1  0  0  0  0
M  END
> <s_m_source_file>
AV-unprocessed.smi

> <i_m_source_file_index>
3129

> <i_lp_mmshare_version>
43012

> <i_f3d_flags>
0

> <s_epik_input>
W0NIM11bQ0hdKFtDSDNdKVtDSDJdW05IXUMoPU8pW0NASF0oW0NIM10pW05IXVtDSDJdW0NIMl1uMVtjSF1bY0hdW2NIXW4x

> <s_epik_cmdline>
J2VwaWtfcHl0aG9uJywgJy1waCcsICc3LjAnLCAnLXRuJywgJzgnLCAnLW1hJywgJzIwMCcsICctbWV0YWxfYmluZGluZycsICctaW1hZScsICc8aW5maWxlLm1hZT4nLCAnLW9tYWUnLCAnPG91dGZpbGUubWFlPic=

> <r_lp_tautomer_probability>
1

> <r_epik_Ionization_Penalty>
0.724007

> <r_epik_Ionization_Penalty_Charging>
0

> <r_epik_Ionization_Penalty_Neutral>
0.724007

> <r_epik_State_Penalty>
0.74758

> <r_epik_Charging_Adjusted_Penalty>
0.74758

> <i_epik_Tot_Q>
0

> <i_epik_Tot_abs_Q>
0

> <r_epik_Metal_State_Penalty>
0.746851

> <b_epik_Metal_Only>
0

> <s_lp_Force_Field>
OPLS_2005

> <r_lp_Energy>
5.79034

> <b_lp_Chiralities_Consistent>
1

> <s_lp_Variant>
AV-unprocessed.smi:3129-3

> <Gold.Version>
5.8.1

> <Gold.Id.Protein>
6NUR|6NUR_protein|mol2

> <Gold.PLP.Fitness>
40.5202

> <Gold.PLP.PLP>
-33.6723

> <Gold.PLP.part.hbond>
-2.0000

> <Gold.PLP.part.metal>
0.0000

> <Gold.PLP.part.buried>
-2.7659

> <Gold.PLP.part.nonpolar>
-28.7523

> <Gold.PLP.part.repulsive>
0.0153

> <Gold.PLP.ligand.clash>
0.0000

> <Gold.PLP.ligand.torsion>
1.0297

> <Gold.PLP.Chemscore.Hbond>
2.0000

> <Gold.PLP.Chemscore.CHOScore>
0.8901

> <Gold.PLP.Chemscore.Metal>
0.0000

> <Gold.Chemscore.Hbonds>
donor molecule, donor type, donor heavy atom, donor atom, acceptor molecule, acceptor atom, score
      L1  H     5    27       P1  7948  1.00
      L1  H    10    32       P1  7948  1.00
      L1  C    14    37       P1  7957  0.76

> <Gold.PLP.Chemscore.Internal.Correction>
0.2371

> <Gold.Rescore>
     Score         DG    S(hbond)    S(metal)    S(lipo)     H(rot)  DE(clash)    DE(int)     intcor
     13.23     -14.55       1.87        0.00      70.92       2.13       0.04       1.28       ----

> <Gold.Chemscore.Fitness>
13.2265

> <Gold.Chemscore.DG>
-14.5498

> <Gold.Chemscore.ZeroCoef>
-5.4800

> <Gold.Chemscore.Hbond>
1.8671

> <Gold.Chemscore.Metal>
0.0000

> <Gold.Chemscore.Lipo>
70.9226

> <Gold.Chemscore.Internal_Hbond>
0.0000

> <Gold.Chemscore.DEClash>
0.0418

> <Gold.Chemscore.DEInternal>
1.2814

> <Gold.Chemscore.Rot>
2.1345

> <Gold.Chemscore.Internal.Correction>
   9.000000E+99

> <Gold.Chemscore.Hbonds>
donor molecule, donor type, donor heavy atom, donor atom, acceptor molecule, acceptor atom, score
      L1  H     5    27       P1  7948  0.82
      L1  H    10    32       P1  7948  0.96

> <Gold.Chemscore.Hbond.Weighted>
-6.2361

> <Gold.Chemscore.Metal.Weighted>
-0.0000

> <Gold.Chemscore.Lipo.Weighted>
-8.2979

> <Gold.Chemscore.Internal_Hbond.Weighted>
0.0000

> <Gold.Chemscore.DEClash.Weighted>
0.0418

> <Gold.Chemscore.DEInternal.Weighted>
1.2814

> <Gold.Chemscore.Rot.Weighted>
5.4642

> <Gold.Chemscore.Internal.Correction.Weighted>
   9.000000E+99

> <Gold.Protein.RotatedTorsions>
[ 6907 6896 6895 6894 ] final   91.53 input  -60.11 | X-H torsion
[ 7974 7965 7964 7962 ] final   12.91 input  175.53 | X-H torsion
[ 8008 7997 7996 7995 ] final  163.41 input   59.86 | X-H torsion
[ 10167 10162 10161 10158 ] final -121.00 input  -65.29 | X-H torsion
[ 10718 10713 10712 10709 ] final -108.15 input   66.30 | X-H torsion
[ 10763 10752 10751 10750 ] final   -2.59 input  -60.55 | X-H torsion
[ 11005 11000 10999 10996 ] final   12.09 input  -57.11 | X-H torsion

> <Gold.Protein.ActiveResidues>
 VAL166  LYS551  ARG553  GLY616  TRP617  ASP618  TYR619  PRO620  LYS621  CYS622 
 ASP623  PHE694  ASN695  SER759  ASP760  ASP761  ALA762  ILE779  LEU786  VAL792 
 PHE793  MET794  SER795  GLU796  ALA797  LYS798  CYS799  TRP800  GLU811  SER814 

> <Gold.Protein.RotatedAtoms>
  152.5450  134.1642  159.8570 H   0  0  0  0  0  0  0  0  0  0  0  0  # atno 6907 bound_to 6896
  151.1658  133.4809  159.2601 H   0  0  0  0  0  0  0  0  0  0  0  0  # atno 6908 bound_to 6896
  151.1326  135.0149  159.8644 H   0  0  0  0  0  0  0  0  0  0  0  0  # atno 6909 bound_to 6896
  146.2341  139.9266  142.8502 H   0  0  0  0  0  0  0  0  0  0  0  0  # atno 7974 bound_to 7965
  156.1959  140.1724  156.7999 H   0  0  0  0  0  0  0  0  0  0  0  0  # atno 8008 bound_to 7997
  154.5529  140.0714  156.8728 H   0  0  0  0  0  0  0  0  0  0  0  0  # atno 8009 bound_to 7997
  155.2994  140.3360  155.4251 H   0  0  0  0  0  0  0  0  0  0  0  0  # atno 8010 bound_to 7997
  140.0297  143.5260  152.2182 H   0  0  0  0  0  0  0  0  0  0  0  0  # atno 10167 bound_to 10162
  156.0471  130.5698  150.7920 H   0  0  0  0  0  0  0  0  0  0  0  0  # atno 10718 bound_to 10713
  153.3601  135.6990  153.6719 H   0  0  0  0  0  0  0  0  0  0  0  0  # atno 10763 bound_to 10752
  153.5411  135.3572  155.2719 H   0  0  0  0  0  0  0  0  0  0  0  0  # atno 10764 bound_to 10752
  154.8667  135.4204  154.2856 H   0  0  0  0  0  0  0  0  0  0  0  0  # atno 10765 bound_to 10752
  140.4959  134.0794  155.7782 H   0  0  0  0  0  0  0  0  0  0  0  0  # atno 11005 bound_to 11000
  145.2085  140.9885  143.4114 LP  0  0  0  0  0  0  0  0  0  0  0  0  # atno 17320 bound_to 7965
  144.9712  139.3878  143.6308 LP  0  0  0  0  0  0  0  0  0  0  0  0  # atno 17321 bound_to 7965
  139.6084  144.7602  151.3008 LP  0  0  0  0  0  0  0  0  0  0  0  0  # atno 17342 bound_to 10162
  140.7307  143.6872  150.7952 LP  0  0  0  0  0  0  0  0  0  0  0  0  # atno 17343 bound_to 10162
  157.5358  131.0938  150.9894 LP  0  0  0  0  0  0  0  0  0  0  0  0  # atno 17370 bound_to 10713
  157.0189  130.5666  149.5329 LP  0  0  0  0  0  0  0  0  0  0  0  0  # atno 17371 bound_to 10713
  141.1460  133.9053  157.2213 LP  0  0  0  0  0  0  0  0  0  0  0  0  # atno 17394 bound_to 11000
  139.9742  135.0119  156.9588 LP  0  0  0  0  0  0  0  0  0  0  0  0  # atno 17395 bound_to 11000

$$$$
