AV-unprocessed.smi:2248|AV-procd|sdf|9094|dock2
  -GOLD-   2272012293D 1   1.00000     0.00000
 Structure written by MMmdl.
 35 36  0  0  0  0  0  0  0  0  1 V2000
  153.7154  141.4050  160.3928 C   0  0  0  0  0  0  0  0  0  0  0  0
  152.8081  142.5014  159.8754 C   0  0  0  0  0  0  0  0  0  0  0  0
  152.7626  143.7611  160.5040 C   0  0  0  0  0  0  0  0  0  0  0  0
  151.9005  144.7364  159.9720 C   0  0  0  0  0  0  0  0  0  0  0  0
  151.1258  144.4149  158.8406 C   0  0  0  0  0  0  0  0  0  0  0  0
  151.2318  143.1269  158.2688 C   0  0  0  0  0  0  0  0  0  0  0  0
  150.4099  142.9025  157.1327 N   0  0  0  0  0  0  0  0  0  0  0  0
  150.3035  141.7851  156.3920 C   0  0  0  0  0  0  0  0  0  0  0  0
  150.9286  140.7411  156.5809 O   0  0  0  0  0  0  0  0  0  0  0  0
  149.4145  141.9427  155.4010 N   0  0  0  0  0  0  0  0  0  0  0  0
  149.0644  140.9156  154.4262 C   0  0  2  0  0  0  0  0  0  0  0  0
  148.0058  141.4209  153.4848 C   0  0  0  0  0  0  0  0  0  0  0  0
  146.9295  140.6386  153.4543 C   0  0  0  0  0  0  0  0  0  0  0  0
  147.0426  139.4511  154.3759 C   0  0  2  0  0  0  0  0  0  0  0  0
  145.8678  139.3458  155.3635 C   0  0  0  0  0  0  0  0  0  0  0  0
  144.6604  139.0946  154.6753 O   0  0  0  0  0  0  0  0  0  0  0  0
  148.4084  139.6682  155.0754 C   0  0  0  0  0  0  0  0  0  0  0  0
  152.0659  142.1931  158.7903 N   0  0  0  0  0  0  0  0  0  0  0  0
  149.9410  140.6355  153.8398 H   0  0  0  0  0  0  0  0  0  0  0  0
  147.0889  138.5514  153.7607 H   0  0  0  0  0  0  0  0  0  0  0  0
  154.0972  141.6451  161.3853 H   0  0  0  0  0  0  0  0  0  0  0  0
  154.5646  141.2713  159.7223 H   0  0  0  0  0  0  0  0  0  0  0  0
  153.1759  140.4595  160.4573 H   0  0  0  0  0  0  0  0  0  0  0  0
  153.3706  143.9768  161.3703 H   0  0  0  0  0  0  0  0  0  0  0  0
  151.8343  145.7154  160.4228 H   0  0  0  0  0  0  0  0  0  0  0  0
  150.4590  145.1532  158.4195 H   0  0  0  0  0  0  0  0  0  0  0  0
  149.8340  143.6826  156.8532 H   0  0  0  0  0  0  0  0  0  0  0  0
  148.9441  142.8317  155.3156 H   0  0  0  0  0  0  0  0  0  0  0  0
  148.1382  142.3171  152.8966 H   0  0  0  0  0  0  0  0  0  0  0  0
  146.0586  140.8070  152.8380 H   0  0  0  0  0  0  0  0  0  0  0  0
  146.0389  138.5315  156.0682 H   0  0  0  0  0  0  0  0  0  0  0  0
  145.7655  140.2619  155.9462 H   0  0  0  0  0  0  0  0  0  0  0  0
  144.5898  139.7062  153.9581 H   0  0  0  0  0  0  0  0  0  0  0  0
  149.0476  138.7920  154.9607 H   0  0  0  0  0  0  0  0  0  0  0  0
  148.2703  139.8126  156.1482 H   0  0  0  0  0  0  0  0  0  0  0  0
  1  2  1  0  0  0  0
  1 21  1  0  0  0  0
  1 22  1  0  0  0  0
  1 23  1  0  0  0  0
  2 18  1  0  0  0  0
  2  3  2  0  0  0  0
  3  4  1  0  0  0  0
  3 24  1  0  0  0  0
  4  5  2  0  0  0  0
  4 25  1  0  0  0  0
  5  6  1  0  0  0  0
  5 26  1  0  0  0  0
  6  7  1  0  0  0  0
  6 18  2  0  0  0  0
  7  8  1  0  0  0  0
  7 27  1  0  0  0  0
  8  9  2  0  0  0  0
  8 10  1  0  0  0  0
 10 11  1  0  0  0  0
 10 28  1  0  0  0  0
 11 19  1  0  0  0  0
 11 17  1  0  0  0  0
 11 12  1  0  0  0  0
 12 13  2  0  0  0  0
 12 29  1  0  0  0  0
 13 14  1  0  0  0  0
 13 30  1  0  0  0  0
 14 20  1  0  0  0  0
 14 15  1  0  0  0  0
 14 17  1  0  0  0  0
 15 16  1  0  0  0  0
 15 31  1  0  0  0  0
 15 32  1  0  0  0  0
 16 33  1  0  0  0  0
 17 34  1  0  0  0  0
 17 35  1  0  0  0  0
M  END
> <s_m_source_file>
AV-unprocessed.smi

> <i_m_source_file_index>
2248

> <i_lp_mmshare_version>
43012

> <i_f3d_flags>
0

> <s_epik_input>
W0NIM11jMVtjSF1bY0hdW2NIXWMobjEpW05IXUMoPU8pW05IXVtDQEBIXTJbQ0hdPVtDSF1bQ0BASF0oW0NIMl0yKVtDSDJdW09IXQ==

> <s_epik_cmdline>
J2VwaWtfcHl0aG9uJywgJy1waCcsICc3LjAnLCAnLXRuJywgJzgnLCAnLW1hJywgJzIwMCcsICctbWV0YWxfYmluZGluZycsICctaW1hZScsICc8aW5maWxlLm1hZT4nLCAnLW9tYWUnLCAnPG91dGZpbGUubWFlPic=

> <r_lp_tautomer_probability>
1

> <r_epik_Ionization_Penalty>
8.36606e-05

> <r_epik_Ionization_Penalty_Charging>
0

> <r_epik_Ionization_Penalty_Neutral>
8.36606e-05

> <r_epik_State_Penalty>
-0

> <r_epik_Charging_Adjusted_Penalty>
0

> <i_epik_Tot_Q>
0

> <i_epik_Tot_abs_Q>
0

> <r_epik_Metal_State_Penalty>
-0

> <b_epik_Metal_Only>
0

> <s_lp_Force_Field>
OPLS_2005

> <r_lp_Energy>
17.2686

> <b_lp_Chiralities_Consistent>
1

> <s_lp_Variant>
AV-unprocessed.smi:2248-1

> <Gold.Version>
5.8.1

> <Gold.Id.Protein>
6NUR|6NUR_protein|mol2

> <Gold.PLP.Fitness>
44.6805

> <Gold.PLP.PLP>
-35.6960

> <Gold.PLP.part.hbond>
-3.0000

> <Gold.PLP.part.metal>
0.0000

> <Gold.PLP.part.buried>
-4.9179

> <Gold.PLP.part.nonpolar>
-27.9846

> <Gold.PLP.part.repulsive>
0.1968

> <Gold.PLP.ligand.clash>
0.0000

> <Gold.PLP.ligand.torsion>
0.0144

> <Gold.PLP.Chemscore.Hbond>
3.0000

> <Gold.PLP.Chemscore.CHOScore>
0.0000

> <Gold.PLP.Chemscore.Metal>
0.0000

> <Gold.Chemscore.Hbonds>
donor molecule, donor type, donor heavy atom, donor atom, acceptor molecule, acceptor atom, score
      L1  H     7    27       P1  8028  1.00
      L1  H    10    28       P1  8028  1.00
      L1  H    16    33       P1 10175  1.00

> <Gold.PLP.Chemscore.Internal.Correction>
0.0133

> <Gold.Rescore>
     Score         DG    S(hbond)    S(metal)    S(lipo)     H(rot)  DE(clash)    DE(int)     intcor
     19.55     -20.96       2.92        0.00      88.68       1.82       0.06       1.35       ----

> <Gold.Chemscore.Fitness>
19.5535

> <Gold.Chemscore.DG>
-20.9621

> <Gold.Chemscore.ZeroCoef>
-5.4800

> <Gold.Chemscore.Hbond>
2.9227

> <Gold.Chemscore.Metal>
0.0000

> <Gold.Chemscore.Lipo>
88.6772

> <Gold.Chemscore.Internal_Hbond>
0.0000

> <Gold.Chemscore.DEClash>
0.0574

> <Gold.Chemscore.DEInternal>
1.3512

> <Gold.Chemscore.Rot>
1.8184

> <Gold.Chemscore.Internal.Correction>
   9.000000E+99

> <Gold.Chemscore.Hbonds>
donor molecule, donor type, donor heavy atom, donor atom, acceptor molecule, acceptor atom, score
      L1  H     7    27       P1  8028  0.97
      L1  H    10    28       P1  8028  0.95
      L1  H    16    33       P1 10175  0.96

> <Gold.Chemscore.Hbond.Weighted>
-9.7620

> <Gold.Chemscore.Metal.Weighted>
-0.0000

> <Gold.Chemscore.Lipo.Weighted>
-10.3752

> <Gold.Chemscore.Internal_Hbond.Weighted>
0.0000

> <Gold.Chemscore.DEClash.Weighted>
0.0574

> <Gold.Chemscore.DEInternal.Weighted>
1.3512

> <Gold.Chemscore.Rot.Weighted>
4.6551

> <Gold.Chemscore.Internal.Correction.Weighted>
   9.000000E+99

> <Gold.Protein.RotatedTorsions>
[ 6907 6896 6895 6894 ] final  130.44 input  -60.11 | X-H torsion
[ 7974 7965 7964 7962 ] final   81.09 input  175.53 | X-H torsion
[ 8008 7997 7996 7995 ] final  -54.75 input   59.86 | X-H torsion
[ 10167 10162 10161 10158 ] final  154.35 input  -65.29 | X-H torsion
[ 10718 10713 10712 10709 ] final  177.24 input   66.30 | X-H torsion
[ 10763 10752 10751 10750 ] final  155.56 input  -60.55 | X-H torsion
[ 11005 11000 10999 10996 ] final  -62.05 input  -57.11 | X-H torsion

> <Gold.Protein.ActiveResidues>
 VAL166  LYS551  ARG553  GLY616  TRP617  ASP618  TYR619  PRO620  LYS621  CYS622 
 ASP623  PHE694  ASN695  SER759  ASP760  ASP761  ALA762  ILE779  LEU786  VAL792 
 PHE793  MET794  SER795  GLU796  ALA797  LYS798  CYS799  TRP800  GLU811  SER814 

> <Gold.Protein.RotatedAtoms>
  152.3525  133.6197  159.5955 H   0  0  0  0  0  0  0  0  0  0  0  0  # atno 6907 bound_to 6896
  150.7547  133.9551  159.3507 H   0  0  0  0  0  0  0  0  0  0  0  0  # atno 6908 bound_to 6896
  151.7401  135.0857  160.0365 H   0  0  0  0  0  0  0  0  0  0  0  0  # atno 6909 bound_to 6896
  145.6427  139.2429  143.2021 H   0  0  0  0  0  0  0  0  0  0  0  0  # atno 7974 bound_to 7965
  154.4173  140.1169  156.5366 H   0  0  0  0  0  0  0  0  0  0  0  0  # atno 8008 bound_to 7997
  155.6550  140.3496  155.4743 H   0  0  0  0  0  0  0  0  0  0  0  0  # atno 8009 bound_to 7997
  155.9760  140.1151  157.0759 H   0  0  0  0  0  0  0  0  0  0  0  0  # atno 8010 bound_to 7997
  139.4823  144.5194  151.7900 H   0  0  0  0  0  0  0  0  0  0  0  0  # atno 10167 bound_to 10162
  156.9082  130.9901  151.3025 H   0  0  0  0  0  0  0  0  0  0  0  0  # atno 10718 bound_to 10713
  154.1703  135.2805  155.3083 H   0  0  0  0  0  0  0  0  0  0  0  0  # atno 10763 bound_to 10752
  154.6080  135.5508  153.7447 H   0  0  0  0  0  0  0  0  0  0  0  0  # atno 10764 bound_to 10752
  153.0166  135.6408  154.1843 H   0  0  0  0  0  0  0  0  0  0  0  0  # atno 10765 bound_to 10752
  141.1346  133.6636  156.5468 H   0  0  0  0  0  0  0  0  0  0  0  0  # atno 11005 bound_to 11000
  146.1267  140.7238  142.9431 LP  0  0  0  0  0  0  0  0  0  0  0  0  # atno 17320 bound_to 7965
  144.7151  140.4181  143.7050 LP  0  0  0  0  0  0  0  0  0  0  0  0  # atno 17321 bound_to 7965
  140.4706  144.1592  150.5917 LP  0  0  0  0  0  0  0  0  0  0  0  0  # atno 17342 bound_to 10162
  140.4386  143.2536  151.9503 LP  0  0  0  0  0  0  0  0  0  0  0  0  # atno 17343 bound_to 10162
  157.5984  130.8494  149.8764 LP  0  0  0  0  0  0  0  0  0  0  0  0  # atno 17370 bound_to 10713
  156.0549  130.3710  150.1115 LP  0  0  0  0  0  0  0  0  0  0  0  0  # atno 17371 bound_to 10713
  140.4096  134.7284  157.4828 LP  0  0  0  0  0  0  0  0  0  0  0  0  # atno 17394 bound_to 11000
  140.0437  134.6230  155.8948 LP  0  0  0  0  0  0  0  0  0  0  0  0  # atno 17395 bound_to 11000

$$$$
