AV-unprocessed.smi:1641|AV-procd|sdf|6565|dock1
  -GOLD-   22720 7253D 1   1.00000     0.00000
 Structure written by MMmdl.
 40 41  0  0  0  0  0  0  0  0  2 V2000
  145.3674  131.7941  151.4180 C   0  0  0  0  0  0  0  0  0  0  0  0
  144.9144  133.2137  151.4310 C   0  0  0  0  0  0  0  0  0  0  0  0
  143.6526  133.5696  151.1784 N   0  0  0  0  0  0  0  0  0  0  0  0
  143.4730  134.9436  151.2492 N   0  0  0  0  0  0  0  0  0  0  0  0
  144.5998  135.6071  151.5444 C   0  0  0  0  0  0  0  0  0  0  0  0
  144.6352  136.9445  151.6657 N   0  5  0  0  0  0  0  0  0  0  0  0
  145.4074  137.5189  152.6162 C   0  0  0  0  0  0  0  0  0  0  0  0
  145.8974  136.9575  153.5988 O   0  0  0  0  0  0  0  0  0  0  0  0
  145.6249  138.8256  152.4168 N   0  0  0  0  0  0  0  0  0  0  0  0
  146.4203  139.6890  153.2790 C   0  0  0  0  0  0  0  0  0  0  0  0
  147.8060  139.0676  153.5161 C   0  0  0  0  0  0  0  0  0  0  0  0
  148.4928  139.5294  154.7214 N   0  0  0  0  0  0  0  0  0  0  0  0
  149.0343  140.8789  154.5738 C   0  0  0  0  0  0  0  0  0  0  0  0
  149.7966  141.3576  155.8261 C   0  0  1  0  0  0  0  0  0  0  0  0
  148.8708  141.7318  156.9959 C   0  0  0  0  0  0  0  0  0  0  0  0
  150.7762  140.3924  156.2138 O   0  0  0  0  0  0  0  0  0  0  0  0
  150.2866  139.0622  156.3749 C   0  0  2  0  0  0  0  0  0  0  0  0
  151.4729  138.1544  156.7164 C   0  0  0  0  0  0  0  0  0  0  0  0
  149.5742  138.6225  155.0837 C   0  0  0  0  0  0  0  0  0  0  0  0
  145.9942  134.5531  151.7811 S   0  0  0  0  0  0  0  0  0  0  0  0
  145.2448  131.3718  150.4205 H   0  0  0  0  0  0  0  0  0  0  0  0
  144.7798  131.2071  152.1243 H   0  0  0  0  0  0  0  0  0  0  0  0
  146.4186  131.7276  151.6987 H   0  0  0  0  0  0  0  0  0  0  0  0
  145.2069  139.2489  151.6014 H   0  0  0  0  0  0  0  0  0  0  0  0
  146.5011  140.6668  152.8040 H   0  0  0  0  0  0  0  0  0  0  0  0
  145.9093  139.8295  154.2331 H   0  0  0  0  0  0  0  0  0  0  0  0
  147.6729  137.9866  153.5817 H   0  0  0  0  0  0  0  0  0  0  0  0
  148.4386  139.2386  152.6437 H   0  0  0  0  0  0  0  0  0  0  0  0
  149.7123  140.9037  153.7192 H   0  0  0  0  0  0  0  0  0  0  0  0
  148.2379  141.5893  154.3540 H   0  0  0  0  0  0  0  0  0  0  0  0
  150.3471  142.2596  155.5573 H   0  0  0  0  0  0  0  0  0  0  0  0
  148.2064  142.5501  156.7171 H   0  0  0  0  0  0  0  0  0  0  0  0
  149.4490  142.0557  157.8612 H   0  0  0  0  0  0  0  0  0  0  0  0
  148.2436  140.8963  157.3060 H   0  0  0  0  0  0  0  0  0  0  0  0
  149.5828  139.0335  157.2073 H   0  0  0  0  0  0  0  0  0  0  0  0
  151.1483  137.1244  156.8658 H   0  0  0  0  0  0  0  0  0  0  0  0
  151.9642  138.4840  157.6321 H   0  0  0  0  0  0  0  0  0  0  0  0
  152.2166  138.1592  155.9191 H   0  0  0  0  0  0  0  0  0  0  0  0
  149.1794  137.6148  155.2197 H   0  0  0  0  0  0  0  0  0  0  0  0
  150.2971  138.5660  154.2682 H   0  0  0  0  0  0  0  0  0  0  0  0
  1  2  1  0  0  0  0
  1 21  1  0  0  0  0
  1 22  1  0  0  0  0
  1 23  1  0  0  0  0
  2 20  1  0  0  0  0
  2  3  2  0  0  0  0
  3  4  1  0  0  0  0
  4  5  2  0  0  0  0
  5  6  1  0  0  0  0
  5 20  1  0  0  0  0
  6  7  1  0  0  0  0
  7  8  2  0  0  0  0
  7  9  1  0  0  0  0
  9 10  1  0  0  0  0
  9 24  1  0  0  0  0
 10 11  1  0  0  0  0
 10 25  1  0  0  0  0
 10 26  1  0  0  0  0
 11 12  1  0  0  0  0
 11 27  1  0  0  0  0
 11 28  1  0  0  0  0
 12 19  1  0  0  0  0
 12 13  1  0  0  0  0
 13 14  1  0  0  0  0
 13 29  1  0  0  0  0
 13 30  1  0  0  0  0
 14 15  1  0  0  0  0
 14 16  1  0  0  0  0
 14 31  1  0  0  0  0
 15 32  1  0  0  0  0
 15 33  1  0  0  0  0
 15 34  1  0  0  0  0
 16 17  1  0  0  0  0
 17 18  1  0  0  0  0
 17 19  1  0  0  0  0
 17 35  1  0  0  0  0
 18 36  1  0  0  0  0
 18 37  1  0  0  0  0
 18 38  1  0  0  0  0
 19 39  1  0  0  0  0
 19 40  1  0  0  0  0
M  CHG  1   6  -1
M  END
> <s_m_source_file>
AV-unprocessed.smi

> <i_m_source_file_index>
1641

> <i_lp_mmshare_version>
43012

> <i_f3d_flags>
0

> <s_epik_input>
W0NIM11jMW5uYyhzMSlbTkhdQyg9TylbTkhdW0NIMl1bQ0gyXU4yW0NIMl1bQ0BASF0oW0NIM10pT1tDQEBIXShbQ0gzXSlbQ0gyXTI=

> <s_epik_cmdline>
J2VwaWtfcHl0aG9uJywgJy1waCcsICc3LjAnLCAnLXRuJywgJzgnLCAnLW1hJywgJzIwMCcsICctbWV0YWxfYmluZGluZycsICctaW1hZScsICc8aW5maWxlLm1hZT4nLCAnLW9tYWUnLCAnPG91dGZpbGUubWFlPic=

> <r_lp_tautomer_probability>
1

> <r_epik_Ionization_Penalty>
3.81681

> <r_epik_Ionization_Penalty_Charging>
3.36369

> <r_epik_Ionization_Penalty_Neutral>
0.45313

> <r_epik_State_Penalty>
3.571

> <r_epik_Charging_Adjusted_Penalty>
6.93469

> <i_epik_Tot_Q>
-1

> <i_epik_Tot_abs_Q>
1

> <r_epik_Metal_State_Penalty>
0.710322

> <b_epik_Metal_Only>
1

> <s_lp_Force_Field>
OPLS_2005

> <r_lp_Energy>
20.315

> <b_lp_Chiralities_Consistent>
1

> <s_lp_Variant>
AV-unprocessed.smi:1641-10

> <Gold.Version>
5.8.1

> <Gold.Id.Protein>
6NUR|6NUR_protein|mol2

> <Gold.PLP.Fitness>
36.7292

> <Gold.PLP.PLP>
-32.0718

> <Gold.PLP.part.hbond>
-2.0000

> <Gold.PLP.part.metal>
0.0000

> <Gold.PLP.part.buried>
-4.6367

> <Gold.PLP.part.nonpolar>
-26.1995

> <Gold.PLP.part.repulsive>
1.2441

> <Gold.PLP.ligand.clash>
0.0000

> <Gold.PLP.ligand.torsion>
0.6071

> <Gold.PLP.Chemscore.Hbond>
1.9120

> <Gold.PLP.Chemscore.CHOScore>
0.0000

> <Gold.PLP.Chemscore.Metal>
0.0000

> <Gold.Chemscore.Hbonds>
donor molecule, donor type, donor heavy atom, donor atom, acceptor molecule, acceptor atom, score
      L1  H     9    24       P1 10171  0.24

> <Gold.PLP.Chemscore.Internal.Correction>
0.1355

> <Gold.Rescore>
     Score         DG    S(hbond)    S(metal)    S(lipo)     H(rot)  DE(clash)    DE(int)     intcor
     11.40     -13.63       1.04        0.00      74.34       1.57       0.11       2.12       ----

> <Gold.Chemscore.Fitness>
11.4038

> <Gold.Chemscore.DG>
-13.6341

> <Gold.Chemscore.ZeroCoef>
-5.4800

> <Gold.Chemscore.Hbond>
1.0395

> <Gold.Chemscore.Metal>
0.0000

> <Gold.Chemscore.Lipo>
74.3414

> <Gold.Chemscore.Internal_Hbond>
0.0000

> <Gold.Chemscore.DEClash>
0.1137

> <Gold.Chemscore.DEInternal>
2.1167

> <Gold.Chemscore.Rot>
1.5686

> <Gold.Chemscore.Internal.Correction>
   9.000000E+99

> <Gold.Chemscore.Hbonds>
donor molecule, donor type, donor heavy atom, donor atom, acceptor molecule, acceptor atom, score
      L1  H     9    24       P1 10171  0.24

> <Gold.Chemscore.Hbond.Weighted>
-3.4719

> <Gold.Chemscore.Metal.Weighted>
-0.0000

> <Gold.Chemscore.Lipo.Weighted>
-8.6979

> <Gold.Chemscore.Internal_Hbond.Weighted>
0.0000

> <Gold.Chemscore.DEClash.Weighted>
0.1137

> <Gold.Chemscore.DEInternal.Weighted>
2.1167

> <Gold.Chemscore.Rot.Weighted>
4.0157

> <Gold.Chemscore.Internal.Correction.Weighted>
   9.000000E+99

> <Gold.Protein.RotatedTorsions>
[ 6907 6896 6895 6894 ] final  175.49 input  -60.11 | X-H torsion
[ 7974 7965 7964 7962 ] final -172.98 input  175.53 | X-H torsion
[ 8008 7997 7996 7995 ] final -178.65 input   59.86 | X-H torsion
[ 10167 10162 10161 10158 ] final -117.59 input  -65.29 | X-H torsion
[ 10718 10713 10712 10709 ] final  -65.07 input   66.30 | X-H torsion
[ 10763 10752 10751 10750 ] final  102.58 input  -60.55 | X-H torsion
[ 11005 11000 10999 10996 ] final   99.57 input  -57.11 | X-H torsion

> <Gold.Protein.ActiveResidues>
 VAL166  LYS551  ARG553  GLY616  TRP617  ASP618  TYR619  PRO620  LYS621  CYS622 
 ASP623  PHE694  ASN695  SER759  ASP760  ASP761  ALA762  ILE779  LEU786  VAL792 
 PHE793  MET794  SER795  GLU796  ALA797  LYS798  CYS799  TRP800  GLU811  SER814 

> <Gold.Protein.RotatedAtoms>
  151.7354  133.3319  159.3351 H   0  0  0  0  0  0  0  0  0  0  0  0  # atno 6907 bound_to 6896
  150.7595  134.6326  159.6204 H   0  0  0  0  0  0  0  0  0  0  0  0  # atno 6908 bound_to 6896
  152.3565  134.6935  160.0272 H   0  0  0  0  0  0  0  0  0  0  0  0  # atno 6909 bound_to 6896
  144.7141  140.1691  143.6369 H   0  0  0  0  0  0  0  0  0  0  0  0  # atno 7974 bound_to 7965
  156.0213  140.1262  157.0354 H   0  0  0  0  0  0  0  0  0  0  0  0  # atno 8008 bound_to 7997
  154.4313  140.1068  156.6038 H   0  0  0  0  0  0  0  0  0  0  0  0  # atno 8009 bound_to 7997
  155.5940  140.3469  155.4577 H   0  0  0  0  0  0  0  0  0  0  0  0  # atno 8010 bound_to 7997
  140.0667  143.4916  152.2002 H   0  0  0  0  0  0  0  0  0  0  0  0  # atno 10167 bound_to 10162
  156.0691  130.4242  150.1511 H   0  0  0  0  0  0  0  0  0  0  0  0  # atno 10718 bound_to 10713
  153.3414  135.4006  155.1575 H   0  0  0  0  0  0  0  0  0  0  0  0  # atno 10763 bound_to 10752
  154.8644  135.3634  154.5341 H   0  0  0  0  0  0  0  0  0  0  0  0  # atno 10764 bound_to 10752
  153.5786  135.7077  153.5533 H   0  0  0  0  0  0  0  0  0  0  0  0  # atno 10765 bound_to 10752
  139.8771  134.9101  156.4625 H   0  0  0  0  0  0  0  0  0  0  0  0  # atno 11005 bound_to 11000
  145.8960  139.2403  143.1522 LP  0  0  0  0  0  0  0  0  0  0  0  0  # atno 17320 bound_to 7965
  145.9857  140.8645  143.0092 LP  0  0  0  0  0  0  0  0  0  0  0  0  # atno 17321 bound_to 7965
  139.5861  144.7531  151.3517 LP  0  0  0  0  0  0  0  0  0  0  0  0  # atno 17342 bound_to 10162
  140.7146  143.7301  150.7630 LP  0  0  0  0  0  0  0  0  0  0  0  0  # atno 17343 bound_to 10162
  156.9565  130.9791  151.3488 LP  0  0  0  0  0  0  0  0  0  0  0  0  # atno 17370 bound_to 10713
  157.5751  130.8337  149.8445 LP  0  0  0  0  0  0  0  0  0  0  0  0  # atno 17371 bound_to 10713
  140.8853  133.7887  155.9512 LP  0  0  0  0  0  0  0  0  0  0  0  0  # atno 17394 bound_to 11000
  140.8811  134.2611  157.5144 LP  0  0  0  0  0  0  0  0  0  0  0  0  # atno 17395 bound_to 11000

$$$$
