AV-unprocessed.smi:1278|AV-procd|sdf|5351|dock6
  -GOLD-   22720 4483D 1   1.00000     0.00000
 Structure written by MMmdl.
 38 39  0  0  0  0  0  0  0  0  3 V2000
  144.4484  133.9995  150.2054 C   0  0  0  0  0  0  0  0  0  0  0  0
  145.3271  132.8528  150.7244 C   0  0  2  0  0  0  0  0  0  0  0  0
  144.4924  131.8008  151.4742 C   0  0  0  0  0  0  0  0  0  0  0  0
  145.3987  130.6825  152.0037 C   0  0  0  0  0  0  0  0  0  0  0  0
  146.5301  131.2563  152.8715 C   0  0  0  0  0  0  0  0  0  0  0  0
  147.3216  132.2649  152.1210 N   0  3  2  0  0  0  0  0  0  0  0  0
  148.4986  132.7375  152.8910 C   0  0  0  0  0  0  0  0  0  0  0  0
  148.1024  133.6573  154.0615 C   0  0  0  0  0  0  0  0  0  0  0  0
  149.0872  134.7139  154.2586 N   0  0  0  0  0  0  0  0  0  0  0  0
  149.9081  134.8285  155.3121 C   0  0  0  0  0  0  0  0  0  0  0  0
  149.8528  134.0021  156.2261 O   0  0  0  0  0  0  0  0  0  0  0  0
  150.7433  135.8886  155.2376 N   0  5  0  0  0  0  0  0  0  0  0  0
  150.2561  137.1089  154.9600 C   0  0  0  0  0  0  0  0  0  0  0  0
  148.9496  137.3966  154.9908 N   0  0  0  0  0  0  0  0  0  0  0  0
  148.6665  138.7265  154.6739 C   0  0  0  0  0  0  0  0  0  0  0  0
  149.7841  139.4702  154.4018 C   0  0  0  0  0  0  0  0  0  0  0  0
  151.2345  138.5179  154.5408 S   0  0  0  0  0  0  0  0  0  0  0  0
  146.4628  133.3755  151.6274 C   0  0  0  0  0  0  0  0  0  0  0  0
  143.9652  134.5319  151.0255 H   0  0  0  0  0  0  0  0  0  0  0  0
  143.6658  133.6267  149.5438 H   0  0  0  0  0  0  0  0  0  0  0  0
  145.0386  134.7225  149.6416 H   0  0  0  0  0  0  0  0  0  0  0  0
  145.7814  132.3695  149.8580 H   0  0  0  0  0  0  0  0  0  0  0  0
  143.9632  132.2682  152.3058 H   0  0  0  0  0  0  0  0  0  0  0  0
  143.7307  131.3810  150.8160 H   0  0  0  0  0  0  0  0  0  0  0  0
  144.8107  129.9693  152.5818 H   0  0  0  0  0  0  0  0  0  0  0  0
  145.8238  130.1267  151.1668 H   0  0  0  0  0  0  0  0  0  0  0  0
  146.1202  131.7120  153.7744 H   0  0  0  0  0  0  0  0  0  0  0  0
  147.1793  130.4414  153.1939 H   0  0  0  0  0  0  0  0  0  0  0  0
  149.0756  131.8789  153.2383 H   0  0  0  0  0  0  0  0  0  0  0  0
  149.1594  133.3025  152.2320 H   0  0  0  0  0  0  0  0  0  0  0  0
  147.1398  134.1265  153.8561 H   0  0  0  0  0  0  0  0  0  0  0  0
  147.9837  133.1015  154.9918 H   0  0  0  0  0  0  0  0  0  0  0  0
  149.1625  135.4142  153.5351 H   0  0  0  0  0  0  0  0  0  0  0  0
  147.6389  139.0582  154.6654 H   0  0  0  0  0  0  0  0  0  0  0  0
  149.8437  140.5137  154.1322 H   0  0  0  0  0  0  0  0  0  0  0  0
  147.0621  134.0894  151.0633 H   0  0  0  0  0  0  0  0  0  0  0  0
  146.0489  133.9193  152.4785 H   0  0  0  0  0  0  0  0  0  0  0  0
  147.6866  131.7888  151.3086 H   0  0  0  0  0  0  0  0  0  0  0  0
  1  2  1  0  0  0  0
  1 19  1  0  0  0  0
  1 20  1  0  0  0  0
  1 21  1  0  0  0  0
  2 18  1  0  0  0  0
  2  3  1  0  0  0  0
  2 22  1  0  0  0  0
  3  4  1  0  0  0  0
  3 23  1  0  0  0  0
  3 24  1  0  0  0  0
  4  5  1  0  0  0  0
  4 25  1  0  0  0  0
  4 26  1  0  0  0  0
  5  6  1  0  0  0  0
  5 27  1  0  0  0  0
  5 28  1  0  0  0  0
  6  7  1  0  0  0  0
  6 18  1  0  0  0  0
  6 38  1  0  0  0  0
  7  8  1  0  0  0  0
  7 29  1  0  0  0  0
  7 30  1  0  0  0  0
  8  9  1  0  0  0  0
  8 31  1  0  0  0  0
  8 32  1  0  0  0  0
  9 10  1  0  0  0  0
  9 33  1  0  0  0  0
 10 11  2  0  0  0  0
 10 12  1  0  0  0  0
 12 13  1  0  0  0  0
 13 17  1  0  0  0  0
 13 14  2  0  0  0  0
 14 15  1  0  0  0  0
 15 16  2  0  0  0  0
 15 34  1  0  0  0  0
 16 17  1  0  0  0  0
 16 35  1  0  0  0  0
 18 36  1  0  0  0  0
 18 37  1  0  0  0  0
M  CHG  1   6   1
M  CHG  1  12  -1
M  END
> <s_m_source_file>
AV-unprocessed.smi

> <i_m_source_file_index>
1278

> <i_lp_mmshare_version>
43012

> <i_f3d_flags>
0

> <s_epik_input>
W0NIM11bQ0BASF0xW0NIMl1bQ0gyXVtDSDJdTihbQ0gyXTEpW0NIMl1bQ0gyXVtOSF1DKD1PKVtOSF1jMm5bY0hdW2NIXXMy

> <s_epik_cmdline>
J2VwaWtfcHl0aG9uJywgJy1waCcsICc3LjAnLCAnLXRuJywgJzgnLCAnLW1hJywgJzIwMCcsICctbWV0YWxfYmluZGluZycsICctaW1hZScsICc8aW5maWxlLm1hZT4nLCAnLW9tYWUnLCAnPG91dGZpbGUubWFlPic=

> <r_lp_tautomer_probability>
0.999

> <r_epik_Ionization_Penalty>
6.22019

> <r_epik_Ionization_Penalty_Charging>
5.38911

> <r_epik_Ionization_Penalty_Neutral>
0.831074

> <r_epik_State_Penalty>
5.38904

> <r_epik_Charging_Adjusted_Penalty>
10.7782

> <i_epik_Tot_Q>
0

> <i_epik_Tot_abs_Q>
2

> <r_epik_Metal_State_Penalty>
1.41502

> <b_epik_Metal_Only>
1

> <s_lp_Force_Field>
OPLS_2005

> <r_lp_Energy>
5.98005

> <b_lp_Chiralities_Consistent>
1

> <s_lp_Variant>
AV-unprocessed.smi:1278-5

> <Gold.Version>
5.8.1

> <Gold.Id.Protein>
6NUR|6NUR_protein|mol2

> <Gold.PLP.Fitness>
42.6742

> <Gold.PLP.PLP>
-32.5292

> <Gold.PLP.part.hbond>
-3.0000

> <Gold.PLP.part.metal>
0.0000

> <Gold.PLP.part.buried>
-4.7831

> <Gold.PLP.part.nonpolar>
-26.1194

> <Gold.PLP.part.repulsive>
0.3051

> <Gold.PLP.ligand.clash>
0.0000

> <Gold.PLP.ligand.torsion>
0.7952

> <Gold.PLP.Chemscore.Hbond>
3.9000

> <Gold.PLP.Chemscore.CHOScore>
0.0000

> <Gold.PLP.Chemscore.Metal>
0.0000

> <Gold.Chemscore.Hbonds>
donor molecule, donor type, donor heavy atom, donor atom, acceptor molecule, acceptor atom, score
      L1  H     6    38       P1 10747  1.00
      L1  H     9    33       P1  7948  1.00
      P1  H 10752 10764       L1    12  0.65

> <Gold.PLP.Chemscore.Internal.Correction>
0.0354

> <Gold.Rescore>
     Score         DG    S(hbond)    S(metal)    S(lipo)     H(rot)  DE(clash)    DE(int)     intcor
     15.35     -17.77       2.35        0.00      72.20       1.57       0.17       2.25       ----

> <Gold.Chemscore.Fitness>
15.3544

> <Gold.Chemscore.DG>
-17.7689

> <Gold.Chemscore.ZeroCoef>
-5.4800

> <Gold.Chemscore.Hbond>
2.3516

> <Gold.Chemscore.Metal>
0.0000

> <Gold.Chemscore.Lipo>
72.2019

> <Gold.Chemscore.Internal_Hbond>
0.0000

> <Gold.Chemscore.DEClash>
0.1685

> <Gold.Chemscore.DEInternal>
2.2460

> <Gold.Chemscore.Rot>
1.5676

> <Gold.Chemscore.Internal.Correction>
   9.000000E+99

> <Gold.Chemscore.Hbonds>
donor molecule, donor type, donor heavy atom, donor atom, acceptor molecule, acceptor atom, score
      L1  H     6    38       P1 10747  0.98
      L1  H     9    33       P1  7948  0.45
      P1  H 10752 10764       L1    12  0.28

> <Gold.Chemscore.Hbond.Weighted>
-7.8543

> <Gold.Chemscore.Metal.Weighted>
-0.0000

> <Gold.Chemscore.Lipo.Weighted>
-8.4476

> <Gold.Chemscore.Internal_Hbond.Weighted>
0.0000

> <Gold.Chemscore.DEClash.Weighted>
0.1685

> <Gold.Chemscore.DEInternal.Weighted>
2.2460

> <Gold.Chemscore.Rot.Weighted>
4.0130

> <Gold.Chemscore.Internal.Correction.Weighted>
   9.000000E+99

> <Gold.Protein.RotatedTorsions>
[ 6907 6896 6895 6894 ] final   67.07 input  -60.11 | X-H torsion
[ 7974 7965 7964 7962 ] final -112.54 input  175.53 | X-H torsion
[ 8008 7997 7996 7995 ] final  -93.88 input   59.86 | X-H torsion
[ 10167 10162 10161 10158 ] final -108.58 input  -65.29 | X-H torsion
[ 10718 10713 10712 10709 ] final -101.91 input   66.30 | X-H torsion
[ 10763 10752 10751 10750 ] final  -60.67 input  -60.55 | X-H torsion
[ 11005 11000 10999 10996 ] final  -66.63 input  -57.11 | X-H torsion

> <Gold.Protein.ActiveResidues>
 VAL166  LYS551  ARG553  GLY616  TRP617  ASP618  TYR619  PRO620  LYS621  CYS622 
 ASP623  PHE694  ASN695  SER759  ASP760  ASP761  ALA762  ILE779  LEU786  VAL792 
 PHE793  MET794  SER795  GLU796  ALA797  LYS798  CYS799  TRP800  GLU811  SER814 

> <Gold.Protein.RotatedAtoms>
  152.4526  134.5361  159.9825 H   0  0  0  0  0  0  0  0  0  0  0  0  # atno 6907 bound_to 6896
  151.5430  133.3424  159.2947 H   0  0  0  0  0  0  0  0  0  0  0  0  # atno 6908 bound_to 6896
  150.8459  134.7799  159.7033 H   0  0  0  0  0  0  0  0  0  0  0  0  # atno 6909 bound_to 6896
  145.1428  140.8787  143.3692 H   0  0  0  0  0  0  0  0  0  0  0  0  # atno 7974 bound_to 7965
  154.7413  140.0494  157.0813 H   0  0  0  0  0  0  0  0  0  0  0  0  # atno 8008 bound_to 7997
  155.0175  140.3143  155.4787 H   0  0  0  0  0  0  0  0  0  0  0  0  # atno 8009 bound_to 7997
  156.2865  140.2173  156.5291 H   0  0  0  0  0  0  0  0  0  0  0  0  # atno 8010 bound_to 7997
  140.1646  143.4092  152.1400 H   0  0  0  0  0  0  0  0  0  0  0  0  # atno 10167 bound_to 10162
  156.0210  130.5395  150.7032 H   0  0  0  0  0  0  0  0  0  0  0  0  # atno 10718 bound_to 10713
  154.2727  135.6287  153.5316 H   0  0  0  0  0  0  0  0  0  0  0  0  # atno 10763 bound_to 10752
  152.9877  135.5614  154.5582 H   0  0  0  0  0  0  0  0  0  0  0  0  # atno 10764 bound_to 10752
  154.5155  135.2879  155.1282 H   0  0  0  0  0  0  0  0  0  0  0  0  # atno 10765 bound_to 10752
  141.1487  133.6703  156.6169 H   0  0  0  0  0  0  0  0  0  0  0  0  # atno 11005 bound_to 11000
  145.0514  139.3179  143.5927 LP  0  0  0  0  0  0  0  0  0  0  0  0  # atno 17320 bound_to 7965
  146.3503  139.9923  142.8684 LP  0  0  0  0  0  0  0  0  0  0  0  0  # atno 17321 bound_to 7965
  139.5365  144.7215  151.4874 LP  0  0  0  0  0  0  0  0  0  0  0  0  # atno 17342 bound_to 10162
  140.6621  143.8476  150.6900 LP  0  0  0  0  0  0  0  0  0  0  0  0  # atno 17343 bound_to 10162
  157.4687  131.0891  151.0666 LP  0  0  0  0  0  0  0  0  0  0  0  0  # atno 17370 bound_to 10713
  157.1133  130.6031  149.5487 LP  0  0  0  0  0  0  0  0  0  0  0  0  # atno 17371 bound_to 10713
  140.3571  134.7719  157.4508 LP  0  0  0  0  0  0  0  0  0  0  0  0  # atno 17394 bound_to 11000
  140.0815  134.5725  155.8536 LP  0  0  0  0  0  0  0  0  0  0  0  0  # atno 17395 bound_to 11000

$$$$
