AV-unprocessed.smi:2103|AV-procd|sdf|8582|dock4
  -GOLD-   2272011313D 1   1.00000     0.00000
 Structure written by MMmdl.
 38 39  0  0  0  0  0  0  0  0  1 V2000
  154.0596  140.1397  160.5788 C   0  0  0  0  0  0  0  0  0  0  0  0
  153.3370  141.3764  160.3663 N   0  0  0  0  0  0  0  0  0  0  0  0
  153.2747  142.3266  161.4145 C   0  0  0  0  0  0  0  0  0  0  0  0
  153.8082  142.1446  162.5092 O   0  0  0  0  0  0  0  0  0  0  0  0
  152.5209  143.5320  161.0910 C   0  0  0  0  0  0  0  0  0  0  0  0
  151.9407  143.6846  159.8805 C   0  0  0  0  0  0  0  0  0  0  0  0
  152.0083  142.7351  158.8773 N   0  0  0  0  0  0  0  0  0  0  0  0
  151.3469  142.9908  157.5908 C   0  0  0  0  0  0  0  0  0  0  0  0
  150.3985  141.8661  157.1509 C   0  0  0  0  0  0  0  0  0  0  0  0
  150.2724  140.8395  157.8203 O   0  0  0  0  0  0  0  0  0  0  0  0
  149.7393  142.0791  156.0021 N   0  0  0  0  0  0  0  0  0  0  0  0
  148.7813  141.1620  155.3919 C   0  0  0  0  0  0  0  0  0  0  0  0
  149.4790  139.8680  154.9205 C   0  0  0  0  0  0  0  0  0  0  0  0
  148.4966  138.9294  154.2012 C   0  0  0  0  0  0  0  0  0  0  0  0
  147.8027  139.6390  153.0282 C   0  0  0  0  0  0  0  0  0  0  0  0
  147.0999  140.9230  153.4955 C   0  0  0  0  0  0  0  0  0  0  0  0
  148.0811  141.8643  154.2127 C   0  0  0  0  0  0  0  0  0  0  0  0
  152.7182  141.5371  159.1071 C   0  0  0  0  0  0  0  0  0  0  0  0
  152.7879  140.6689  158.2333 O   0  0  0  0  0  0  0  0  0  0  0  0
  154.6357  140.1732  161.5031 H   0  0  0  0  0  0  0  0  0  0  0  0
  154.7454  140.0076  159.7398 H   0  0  0  0  0  0  0  0  0  0  0  0
  153.3179  139.3403  160.6177 H   0  0  0  0  0  0  0  0  0  0  0  0
  152.4262  144.3132  161.8310 H   0  0  0  0  0  0  0  0  0  0  0  0
  151.3961  144.5979  159.6892 H   0  0  0  0  0  0  0  0  0  0  0  0
  150.7926  143.9301  157.6322 H   0  0  0  0  0  0  0  0  0  0  0  0
  152.0989  143.1289  156.8125 H   0  0  0  0  0  0  0  0  0  0  0  0
  149.9078  142.9480  155.5161 H   0  0  0  0  0  0  0  0  0  0  0  0
  148.0221  140.9044  156.1331 H   0  0  0  0  0  0  0  0  0  0  0  0
  150.3012  140.1154  154.2476 H   0  0  0  0  0  0  0  0  0  0  0  0
  149.9220  139.3452  155.7687 H   0  0  0  0  0  0  0  0  0  0  0  0
  149.0238  138.0453  153.8414 H   0  0  0  0  0  0  0  0  0  0  0  0
  147.7467  138.5752  154.9096 H   0  0  0  0  0  0  0  0  0  0  0  0
  148.5390  139.8836  152.2616 H   0  0  0  0  0  0  0  0  0  0  0  0
  147.0810  138.9680  152.5615 H   0  0  0  0  0  0  0  0  0  0  0  0
  146.6527  141.4326  152.6416 H   0  0  0  0  0  0  0  0  0  0  0  0
  146.2800  140.6682  154.1682 H   0  0  0  0  0  0  0  0  0  0  0  0
  147.5487  142.7484  154.5656 H   0  0  0  0  0  0  0  0  0  0  0  0
  148.8262  142.2176  153.4982 H   0  0  0  0  0  0  0  0  0  0  0  0
  1  2  1  0  0  0  0
  1 20  1  0  0  0  0
  1 21  1  0  0  0  0
  1 22  1  0  0  0  0
  2 18  1  0  0  0  0
  2  3  1  0  0  0  0
  3  4  2  0  0  0  0
  3  5  1  0  0  0  0
  5  6  2  0  0  0  0
  5 23  1  0  0  0  0
  6  7  1  0  0  0  0
  6 24  1  0  0  0  0
  7  8  1  0  0  0  0
  7 18  1  0  0  0  0
  8  9  1  0  0  0  0
  8 25  1  0  0  0  0
  8 26  1  0  0  0  0
  9 10  2  0  0  0  0
  9 11  1  0  0  0  0
 11 12  1  0  0  0  0
 11 27  1  0  0  0  0
 12 17  1  0  0  0  0
 12 13  1  0  0  0  0
 12 28  1  0  0  0  0
 13 14  1  0  0  0  0
 13 29  1  0  0  0  0
 13 30  1  0  0  0  0
 14 15  1  0  0  0  0
 14 31  1  0  0  0  0
 14 32  1  0  0  0  0
 15 16  1  0  0  0  0
 15 33  1  0  0  0  0
 15 34  1  0  0  0  0
 16 17  1  0  0  0  0
 16 35  1  0  0  0  0
 16 36  1  0  0  0  0
 17 37  1  0  0  0  0
 17 38  1  0  0  0  0
 18 19  2  0  0  0  0
M  END
> <s_m_source_file>
AV-unprocessed.smi

> <i_m_source_file_index>
2103

> <i_lp_mmshare_version>
43012

> <i_f3d_flags>
0

> <s_epik_input>
W0NIM11uMWMoPU8pW2NIXVtjSF1uKGMxPU8pW0NIMl1DKD1PKVtOSF1bQ0hdMltDSDJdW0NIMl1bQ0gyXVtDSDJdW0NIMl0y

> <s_epik_cmdline>
J2VwaWtfcHl0aG9uJywgJy1waCcsICc3LjAnLCAnLXRuJywgJzgnLCAnLW1hJywgJzIwMCcsICctbWV0YWxfYmluZGluZycsICctaW1hZScsICc8aW5maWxlLm1hZT4nLCAnLW9tYWUnLCAnPG91dGZpbGUubWFlPic=

> <r_lp_tautomer_probability>
1

> <r_epik_Ionization_Penalty>
3.18221e-08

> <r_epik_Ionization_Penalty_Charging>
1.27752e-08

> <r_epik_Ionization_Penalty_Neutral>
1.90469e-08

> <r_epik_State_Penalty>
-0

> <r_epik_Charging_Adjusted_Penalty>
1.27752e-08

> <i_epik_Tot_Q>
0

> <i_epik_Tot_abs_Q>
0

> <r_epik_Metal_State_Penalty>
-0

> <b_epik_Metal_Only>
0

> <s_lp_Force_Field>
OPLS_2005

> <r_lp_Energy>
16.4869

> <b_lp_Chiralities_Consistent>
1

> <s_lp_Variant>
AV-unprocessed.smi:2103-1

> <Gold.Version>
5.8.1

> <Gold.Id.Protein>
6NUR|6NUR_protein|mol2

> <Gold.PLP.Fitness>
44.0706

> <Gold.PLP.PLP>
-40.5274

> <Gold.PLP.part.hbond>
-3.0000

> <Gold.PLP.part.metal>
0.0000

> <Gold.PLP.part.buried>
0.8470

> <Gold.PLP.part.nonpolar>
-37.5509

> <Gold.PLP.part.repulsive>
0.1532

> <Gold.PLP.ligand.clash>
0.0000

> <Gold.PLP.ligand.torsion>
0.1164

> <Gold.PLP.Chemscore.Hbond>
1.2570

> <Gold.PLP.Chemscore.CHOScore>
0.0000

> <Gold.PLP.Chemscore.Metal>
0.0000

> <Gold.Chemscore.Hbonds>
donor molecule, donor type, donor heavy atom, donor atom, acceptor molecule, acceptor atom, score
      L1  H    11    27       P1  8028  0.57
      P1  H  7997  8010       L1    19  0.33

> <Gold.PLP.Chemscore.Internal.Correction>
0.0050

> <Gold.Rescore>
     Score         DG    S(hbond)    S(metal)    S(lipo)     H(rot)  DE(clash)    DE(int)     intcor
     10.06     -15.81       1.38        0.00      82.49       1.54       1.65       4.10       ----

> <Gold.Chemscore.Fitness>
10.0603

> <Gold.Chemscore.DG>
-15.8115

> <Gold.Chemscore.ZeroCoef>
-5.4800

> <Gold.Chemscore.Hbond>
1.3827

> <Gold.Chemscore.Metal>
0.0000

> <Gold.Chemscore.Lipo>
82.4900

> <Gold.Chemscore.Internal_Hbond>
0.0000

> <Gold.Chemscore.DEClash>
1.6463

> <Gold.Chemscore.DEInternal>
4.1049

> <Gold.Chemscore.Rot>
1.5383

> <Gold.Chemscore.Internal.Correction>
   9.000000E+99

> <Gold.Chemscore.Hbonds>
donor molecule, donor type, donor heavy atom, donor atom, acceptor molecule, acceptor atom, score
      L1  H    11    27       P1  8028  0.53
      P1  H  7997  8010       L1    19  0.33

> <Gold.Chemscore.Hbond.Weighted>
-4.6182

> <Gold.Chemscore.Metal.Weighted>
-0.0000

> <Gold.Chemscore.Lipo.Weighted>
-9.6513

> <Gold.Chemscore.Internal_Hbond.Weighted>
0.0000

> <Gold.Chemscore.DEClash.Weighted>
1.6463

> <Gold.Chemscore.DEInternal.Weighted>
4.1049

> <Gold.Chemscore.Rot.Weighted>
3.9380

> <Gold.Chemscore.Internal.Correction.Weighted>
   9.000000E+99

> <Gold.Protein.RotatedTorsions>
[ 6907 6896 6895 6894 ] final  115.52 input  -60.11 | X-H torsion
[ 7974 7965 7964 7962 ] final    3.49 input  175.53 | X-H torsion
[ 8008 7997 7996 7995 ] final   48.82 input   59.86 | X-H torsion
[ 10167 10162 10161 10158 ] final  -81.89 input  -65.29 | X-H torsion
[ 10718 10713 10712 10709 ] final   -2.31 input   66.30 | X-H torsion
[ 10763 10752 10751 10750 ] final  157.02 input  -60.55 | X-H torsion
[ 11005 11000 10999 10996 ] final   34.99 input  -57.11 | X-H torsion

> <Gold.Protein.ActiveResidues>
 VAL166  LYS551  ARG553  GLY616  TRP617  ASP618  TYR619  PRO620  LYS621  CYS622 
 ASP623  PHE694  ASN695  SER759  ASP760  ASP761  ALA762  ILE779  LEU786  VAL792 
 PHE793  MET794  SER795  GLU796  ALA797  LYS798  CYS799  TRP800  GLU811  SER814 

> <Gold.Protein.RotatedAtoms>
  152.4736  133.8086  159.6991 H   0  0  0  0  0  0  0  0  0  0  0  0  # atno 6907 bound_to 6896
  150.8739  133.7456  159.2959 H   0  0  0  0  0  0  0  0  0  0  0  0  # atno 6908 bound_to 6896
  151.4982  135.1064  159.9874 H   0  0  0  0  0  0  0  0  0  0  0  0  # atno 6909 bound_to 6896
  146.2445  140.0677  142.8364 H   0  0  0  0  0  0  0  0  0  0  0  0  # atno 7974 bound_to 7965
  155.3919  140.3434  155.4252 H   0  0  0  0  0  0  0  0  0  0  0  0  # atno 8008 bound_to 7997
  156.1552  140.1583  156.8736 H   0  0  0  0  0  0  0  0  0  0  0  0  # atno 8009 bound_to 7997
  154.5089  140.0795  156.7931 H   0  0  0  0  0  0  0  0  0  0  0  0  # atno 8010 bound_to 7997
  140.4370  143.2528  151.8679 H   0  0  0  0  0  0  0  0  0  0  0  0  # atno 10167 bound_to 10162
  156.7927  130.5367  149.5733 H   0  0  0  0  0  0  0  0  0  0  0  0  # atno 10718 bound_to 10713
  154.1936  135.2793  155.3014 H   0  0  0  0  0  0  0  0  0  0  0  0  # atno 10763 bound_to 10752
  154.5910  135.5560  153.7281 H   0  0  0  0  0  0  0  0  0  0  0  0  # atno 10764 bound_to 10752
  153.0106  135.6368  154.2074 H   0  0  0  0  0  0  0  0  0  0  0  0  # atno 10765 bound_to 10752
  140.2472  134.3345  155.7903 H   0  0  0  0  0  0  0  0  0  0  0  0  # atno 11005 bound_to 11000
  145.0843  140.9242  143.4806 LP  0  0  0  0  0  0  0  0  0  0  0  0  # atno 17320 bound_to 7965
  145.0837  139.2941  143.5770 LP  0  0  0  0  0  0  0  0  0  0  0  0  # atno 17321 bound_to 7965
  139.4787  144.5271  151.8719 LP  0  0  0  0  0  0  0  0  0  0  0  0  # atno 17342 bound_to 10162
  140.4362  144.2049  150.5889 LP  0  0  0  0  0  0  0  0  0  0  0  0  # atno 17343 bound_to 10162
  156.1149  130.6067  151.0105 LP  0  0  0  0  0  0  0  0  0  0  0  0  # atno 17370 bound_to 10713
  157.6593  131.0884  150.7876 LP  0  0  0  0  0  0  0  0  0  0  0  0  # atno 17371 bound_to 10713
  141.2205  133.7333  156.8980 LP  0  0  0  0  0  0  0  0  0  0  0  0  # atno 17394 bound_to 11000
  140.1594  134.9176  157.2695 LP  0  0  0  0  0  0  0  0  0  0  0  0  # atno 17395 bound_to 11000

$$$$
