AV-unprocessed.smi:2217|AV-procd|sdf|8968|dock9
  -GOLD-   2272012183D 1   1.00000     0.00000
 Structure written by MMmdl.
 45 48  0  0  0  0  0  0  0  0  1 V2000
  151.5098  145.8452  159.9953 C   0  0  0  0  0  0  0  0  0  0  0  0
  152.0926  144.4789  160.2900 C   0  0  0  0  0  0  0  0  0  0  0  0
  152.0574  143.9395  161.5893 C   0  0  0  0  0  0  0  0  0  0  0  0
  152.6106  142.6635  161.8097 C   0  0  0  0  0  0  0  0  0  0  0  0
  153.1861  141.9544  160.7312 C   0  0  0  0  0  0  0  0  0  0  0  0
  153.7068  140.6727  161.0790 N   0  0  0  0  0  0  0  0  0  0  0  0
  154.2660  139.7002  160.3276 C   0  0  0  0  0  0  0  0  0  0  0  0
  154.4042  139.8369  159.1133 O   0  0  0  0  0  0  0  0  0  0  0  0
  154.6573  138.5961  160.9817 N   0  0  0  0  0  0  0  0  0  0  0  0
  155.3493  137.4649  160.3783 C   0  0  2  0  0  0  0  0  0  0  0  0
  154.4608  136.6906  159.4049 C   0  0  1  0  0  0  0  0  0  0  0  0
  154.4647  136.4865  157.9321 C   0  0  0  0  0  0  0  0  0  0  0  0
  154.2701  134.9475  157.9270 C   0  0  0  0  0  0  0  0  0  0  0  0
  154.4423  134.5204  159.2997 O   0  0  0  0  0  0  0  0  0  0  0  0
  155.2888  135.5047  159.8583 C   0  0  2  0  0  0  0  0  0  0  0  0
  155.3067  136.1562  161.2563 C   0  0  0  0  0  0  0  0  0  0  0  0
  156.5341  135.8797  162.1358 C   0  0  0  0  0  0  0  0  0  0  0  0
  156.0531  135.4351  163.5190 C   0  0  0  0  0  0  0  0  0  0  0  0
  154.6329  135.9716  163.6256 C   0  0  0  0  0  0  0  0  0  0  0  0
  154.1099  135.8954  162.1952 C   0  0  0  0  0  0  0  0  0  0  0  0
  153.2098  142.4841  159.4814 N   0  0  0  0  0  0  0  0  0  0  0  0
  152.6801  143.7071  159.2697 C   0  0  0  0  0  0  0  0  0  0  0  0
  151.5323  146.4779  160.8830 H   0  0  0  0  0  0  0  0  0  0  0  0
  150.4749  145.7490  159.6666 H   0  0  0  0  0  0  0  0  0  0  0  0
  152.0756  146.3453  159.2087 H   0  0  0  0  0  0  0  0  0  0  0  0
  151.6145  144.4908  162.4060 H   0  0  0  0  0  0  0  0  0  0  0  0
  152.5901  142.2364  162.8020 H   0  0  0  0  0  0  0  0  0  0  0  0
  153.6021  140.4340  162.0542 H   0  0  0  0  0  0  0  0  0  0  0  0
  154.5029  138.5597  161.9797 H   0  0  0  0  0  0  0  0  0  0  0  0
  156.3353  137.7060  159.9698 H   0  0  0  0  0  0  0  0  0  0  0  0
  153.4321  136.6497  159.7766 H   0  0  0  0  0  0  0  0  0  0  0  0
  153.6532  137.0132  157.4292 H   0  0  0  0  0  0  0  0  0  0  0  0
  155.4141  136.7797  157.4821 H   0  0  0  0  0  0  0  0  0  0  0  0
  153.2769  134.6633  157.5783 H   0  0  0  0  0  0  0  0  0  0  0  0
  155.0067  134.4655  157.2829 H   0  0  0  0  0  0  0  0  0  0  0  0
  156.2870  135.4587  159.4076 H   0  0  0  0  0  0  0  0  0  0  0  0
  157.1886  135.1249  161.6989 H   0  0  0  0  0  0  0  0  0  0  0  0
  157.1341  136.7841  162.2376 H   0  0  0  0  0  0  0  0  0  0  0  0
  156.0334  134.3454  163.5646 H   0  0  0  0  0  0  0  0  0  0  0  0
  156.6982  135.7897  164.3234 H   0  0  0  0  0  0  0  0  0  0  0  0
  154.0199  135.4119  164.3319 H   0  0  0  0  0  0  0  0  0  0  0  0
  154.6564  137.0124  163.9516 H   0  0  0  0  0  0  0  0  0  0  0  0
  153.2820  136.5905  162.0543 H   0  0  0  0  0  0  0  0  0  0  0  0
  153.7102  134.8969  162.0137 H   0  0  0  0  0  0  0  0  0  0  0  0
  152.7270  144.0776  158.2560 H   0  0  0  0  0  0  0  0  0  0  0  0
  1  2  1  0  0  0  0
  1 23  1  0  0  0  0
  1 24  1  0  0  0  0
  1 25  1  0  0  0  0
  2 22  1  0  0  0  0
  2  3  2  0  0  0  0
  3  4  1  0  0  0  0
  3 26  1  0  0  0  0
  4  5  2  0  0  0  0
  4 27  1  0  0  0  0
  5  6  1  0  0  0  0
  5 21  1  0  0  0  0
  6  7  1  0  0  0  0
  6 28  1  0  0  0  0
  7  8  2  0  0  0  0
  7  9  1  0  0  0  0
  9 10  1  0  0  0  0
  9 29  1  0  0  0  0
 10 16  1  0  0  0  0
 10 11  1  0  0  0  0
 10 30  1  0  0  0  0
 11 15  1  0  0  0  0
 11 12  1  0  0  0  0
 11 31  1  0  0  0  0
 12 13  1  0  0  0  0
 12 32  1  0  0  0  0
 12 33  1  0  0  0  0
 13 14  1  0  0  0  0
 13 34  1  0  0  0  0
 13 35  1  0  0  0  0
 14 15  1  0  0  0  0
 15 16  1  0  0  0  0
 15 36  1  0  0  0  0
 16 20  1  0  0  0  0
 16 17  1  0  0  0  0
 17 18  1  0  0  0  0
 17 37  1  0  0  0  0
 17 38  1  0  0  0  0
 18 19  1  0  0  0  0
 18 39  1  0  0  0  0
 18 40  1  0  0  0  0
 19 20  1  0  0  0  0
 19 41  1  0  0  0  0
 19 42  1  0  0  0  0
 20 43  1  0  0  0  0
 20 44  1  0  0  0  0
 21 22  2  0  0  0  0
 22 45  1  0  0  0  0
M  END
> <s_m_source_file>
AV-unprocessed.smi

> <i_m_source_file_index>
2217

> <i_lp_mmshare_version>
43012

> <i_f3d_flags>
0

> <s_epik_input>
W0NIM11jMVtjSF1bY0hdYyhuW2NIXTEpW05IXUMoPU8pW05IXVtDQEBIXTJbQ0BASF0oW0NIMl1bQ0gyXU8zKVtDQEhdM0MyNFtDSDJdW0NIMl1bQ0gyXVtDSDJdNA==

> <s_epik_cmdline>
J2VwaWtfcHl0aG9uJywgJy1waCcsICc3LjAnLCAnLXRuJywgJzgnLCAnLW1hJywgJzIwMCcsICctbWV0YWxfYmluZGluZycsICctaW1hZScsICc8aW5maWxlLm1hZT4nLCAnLW9tYWUnLCAnPG91dGZpbGUubWFlPic=

> <r_lp_tautomer_probability>
1

> <r_epik_Ionization_Penalty>
6.14796e-05

> <r_epik_Ionization_Penalty_Charging>
0

> <r_epik_Ionization_Penalty_Neutral>
6.14796e-05

> <r_epik_State_Penalty>
-0

> <r_epik_Charging_Adjusted_Penalty>
0

> <i_epik_Tot_Q>
0

> <i_epik_Tot_abs_Q>
0

> <r_epik_Metal_State_Penalty>
-0

> <b_epik_Metal_Only>
0

> <s_lp_Force_Field>
OPLS_2005

> <r_lp_Energy>
79.4862

> <b_lp_Chiralities_Consistent>
1

> <s_lp_Variant>
AV-unprocessed.smi:2217-1

> <Gold.Version>
5.8.1

> <Gold.Id.Protein>
6NUR|6NUR_protein|mol2

> <Gold.PLP.Fitness>
43.6023

> <Gold.PLP.PLP>
-37.6165

> <Gold.PLP.part.hbond>
-2.0000

> <Gold.PLP.part.metal>
0.0000

> <Gold.PLP.part.buried>
-4.0547

> <Gold.PLP.part.nonpolar>
-30.6025

> <Gold.PLP.part.repulsive>
0.0284

> <Gold.PLP.ligand.clash>
0.0000

> <Gold.PLP.ligand.torsion>
0.1478

> <Gold.PLP.Chemscore.Hbond>
2.0000

> <Gold.PLP.Chemscore.CHOScore>
0.0000

> <Gold.PLP.Chemscore.Metal>
0.0000

> <Gold.Chemscore.Hbonds>
donor molecule, donor type, donor heavy atom, donor atom, acceptor molecule, acceptor atom, score
      P1  H  6896  6909       L1    14  1.00
      P1  H  7997  8009       L1     8  1.00

> <Gold.PLP.Chemscore.Internal.Correction>
0.2814

> <Gold.Rescore>
     Score         DG    S(hbond)    S(metal)    S(lipo)     H(rot)  DE(clash)    DE(int)     intcor
     19.19     -20.62       1.77        0.00     100.74       1.00       0.07       1.36       ----

> <Gold.Chemscore.Fitness>
19.1908

> <Gold.Chemscore.DG>
-20.6205

> <Gold.Chemscore.ZeroCoef>
-5.4800

> <Gold.Chemscore.Hbond>
1.7706

> <Gold.Chemscore.Metal>
0.0000

> <Gold.Chemscore.Lipo>
100.7414

> <Gold.Chemscore.Internal_Hbond>
0.0000

> <Gold.Chemscore.DEClash>
0.0669

> <Gold.Chemscore.DEInternal>
1.3628

> <Gold.Chemscore.Rot>
1.0000

> <Gold.Chemscore.Internal.Correction>
   9.000000E+99

> <Gold.Chemscore.Hbonds>
donor molecule, donor type, donor heavy atom, donor atom, acceptor molecule, acceptor atom, score
      P1  H  6896  6909       L1    14  0.34
      P1  H  7997  8009       L1     8  0.99

> <Gold.Chemscore.Hbond.Weighted>
-5.9137

> <Gold.Chemscore.Metal.Weighted>
-0.0000

> <Gold.Chemscore.Lipo.Weighted>
-11.7867

> <Gold.Chemscore.Internal_Hbond.Weighted>
0.0000

> <Gold.Chemscore.DEClash.Weighted>
0.0669

> <Gold.Chemscore.DEInternal.Weighted>
1.3628

> <Gold.Chemscore.Rot.Weighted>
2.5600

> <Gold.Chemscore.Internal.Correction.Weighted>
   9.000000E+99

> <Gold.Protein.RotatedTorsions>
[ 6907 6896 6895 6894 ] final -155.11 input  -60.11 | X-H torsion
[ 7974 7965 7964 7962 ] final -156.82 input  175.53 | X-H torsion
[ 8008 7997 7996 7995 ] final  125.81 input   59.86 | X-H torsion
[ 10167 10162 10161 10158 ] final  -17.22 input  -65.29 | X-H torsion
[ 10718 10713 10712 10709 ] final  -59.40 input   66.30 | X-H torsion
[ 10763 10752 10751 10750 ] final  -11.96 input  -60.55 | X-H torsion
[ 11005 11000 10999 10996 ] final  -39.93 input  -57.11 | X-H torsion

> <Gold.Protein.ActiveResidues>
 VAL166  LYS551  ARG553  GLY616  TRP617  ASP618  TYR619  PRO620  LYS621  CYS622 
 ASP623  PHE694  ASN695  SER759  ASP760  ASP761  ALA762  ILE779  LEU786  VAL792 
 PHE793  MET794  SER795  GLU796  ALA797  LYS798  CYS799  TRP800  GLU811  SER814 

> <Gold.Protein.RotatedAtoms>
  151.2676  133.4271  159.2619 H   0  0  0  0  0  0  0  0  0  0  0  0  # atno 6907 bound_to 6896
  151.0474  134.9650  159.8204 H   0  0  0  0  0  0  0  0  0  0  0  0  # atno 6908 bound_to 6896
  152.5376  134.2632  159.8996 H   0  0  0  0  0  0  0  0  0  0  0  0  # atno 6909 bound_to 6896
  144.7576  140.4056  143.6001 H   0  0  0  0  0  0  0  0  0  0  0  0  # atno 7974 bound_to 7965
  156.2845  140.2707  156.2009 H   0  0  0  0  0  0  0  0  0  0  0  0  # atno 8008 bound_to 7997
  155.0362  140.0386  157.2510 H   0  0  0  0  0  0  0  0  0  0  0  0  # atno 8009 bound_to 7997
  154.7313  140.2707  155.6459 H   0  0  0  0  0  0  0  0  0  0  0  0  # atno 8010 bound_to 7997
  140.7244  143.5037  150.9837 H   0  0  0  0  0  0  0  0  0  0  0  0  # atno 10167 bound_to 10162
  156.1064  130.4180  150.0710 H   0  0  0  0  0  0  0  0  0  0  0  0  # atno 10718 bound_to 10713
  153.4914  135.7017  153.5882 H   0  0  0  0  0  0  0  0  0  0  0  0  # atno 10763 bound_to 10752
  153.4053  135.3862  155.2015 H   0  0  0  0  0  0  0  0  0  0  0  0  # atno 10764 bound_to 10752
  154.8716  135.3891  154.4375 H   0  0  0  0  0  0  0  0  0  0  0  0  # atno 10765 bound_to 10752
  141.0138  133.6895  156.2253 H   0  0  0  0  0  0  0  0  0  0  0  0  # atno 11005 bound_to 11000
  145.6728  139.1602  143.2745 LP  0  0  0  0  0  0  0  0  0  0  0  0  # atno 17320 bound_to 7965
  146.1603  140.6797  142.9280 LP  0  0  0  0  0  0  0  0  0  0  0  0  # atno 17321 bound_to 7965
  139.8748  143.7147  152.3163 LP  0  0  0  0  0  0  0  0  0  0  0  0  # atno 17342 bound_to 10162
  139.7408  144.7560  151.0655 LP  0  0  0  0  0  0  0  0  0  0  0  0  # atno 17343 bound_to 10162
  156.8684  130.9516  151.3611 LP  0  0  0  0  0  0  0  0  0  0  0  0  # atno 17370 bound_to 10713
  157.6241  130.8678  149.9160 LP  0  0  0  0  0  0  0  0  0  0  0  0  # atno 17371 bound_to 10713
  140.6689  134.4889  157.5586 LP  0  0  0  0  0  0  0  0  0  0  0  0  # atno 17394 bound_to 11000
  139.9105  134.8355  156.1546 LP  0  0  0  0  0  0  0  0  0  0  0  0  # atno 17395 bound_to 11000

$$$$
