AV-unprocessed.smi:2772|AV-procd|sdf|10674|dock7
  -GOLD-   2272015123D 1   1.00000     0.00000
 Structure written by MMmdl.
 56 58  0  0  0  0  0  0  0  0  4 V2000
  146.1963  129.6179  151.8291 C   0  0  0  0  0  0  0  0  0  0  0  0
  147.1793  130.5340  152.5269 C   0  0  0  0  0  0  0  0  0  0  0  0
  148.0817  130.0705  153.5069 C   0  0  0  0  0  0  0  0  0  0  0  0
  148.9654  130.9854  154.1164 C   0  0  0  0  0  0  0  0  0  0  0  0
  148.9302  132.3482  153.7463 C   0  0  0  0  0  0  0  0  0  0  0  0
  149.8457  133.2316  154.3831 N   0  0  0  0  0  0  0  0  0  0  0  0
  149.6622  134.5169  154.7342 C   0  0  0  0  0  0  0  0  0  0  0  0
  148.6221  135.1541  154.5720 O   0  0  0  0  0  0  0  0  0  0  0  0
  150.7624  135.0274  155.3081 N   0  0  0  0  0  0  0  0  0  0  0  0
  150.9017  136.3910  155.8164 C   0  0  2  0  0  0  0  0  0  0  0  0
  149.6713  136.7810  156.6403 C   0  0  0  0  0  0  0  0  0  0  0  0
  149.7691  138.2353  157.1318 C   0  0  0  0  0  0  0  0  0  0  0  0
  149.9530  139.2091  156.0132 N   0  3  1  0  0  0  0  0  0  0  0  0
  149.9955  140.6419  156.4719 C   0  0  2  0  0  0  0  0  0  0  0  0
  148.7711  141.0714  157.3196 C   0  0  0  0  0  0  0  0  0  0  0  0
  147.4786  141.1159  156.4829 C   0  0  0  0  0  0  0  0  0  0  0  0
  147.6218  142.0407  155.3303 N   0  3  2  0  0  0  0  0  0  0  0  0
  146.3726  142.1674  154.5488 C   0  0  0  0  0  0  0  0  0  0  0  0
  148.7917  141.7063  154.4799 C   0  0  0  0  0  0  0  0  0  0  0  0
  150.0862  141.6667  155.3134 C   0  0  0  0  0  0  0  0  0  0  0  0
  151.1272  138.8287  155.1703 C   0  0  0  0  0  0  0  0  0  0  0  0
  151.0438  137.3813  154.6571 C   0  0  0  0  0  0  0  0  0  0  0  0
  148.0104  132.7491  152.7449 C   0  0  0  0  0  0  0  0  0  0  0  0
  147.1817  131.8411  152.1850 N   0  3  0  0  0  0  0  0  0  0  0  0
  146.2746  128.5972  152.2044 H   0  0  0  0  0  0  0  0  0  0  0  0
  146.3876  129.6022  150.7557 H   0  0  0  0  0  0  0  0  0  0  0  0
  145.1746  129.9626  151.9918 H   0  0  0  0  0  0  0  0  0  0  0  0
  148.0991  129.0282  153.7910 H   0  0  0  0  0  0  0  0  0  0  0  0
  149.6603  130.6395  154.8680 H   0  0  0  0  0  0  0  0  0  0  0  0
  150.7306  132.8220  154.6455 H   0  0  0  0  0  0  0  0  0  0  0  0
  151.5675  134.4252  155.4013 H   0  0  0  0  0  0  0  0  0  0  0  0
  151.7841  136.4751  156.4537 H   0  0  0  0  0  0  0  0  0  0  0  0
  148.7666  136.6588  156.0426 H   0  0  0  0  0  0  0  0  0  0  0  0
  149.5687  136.1121  157.4960 H   0  0  0  0  0  0  0  0  0  0  0  0
  148.8492  138.4353  157.6762 H   0  0  0  0  0  0  0  0  0  0  0  0
  150.5913  138.3365  157.8419 H   0  0  0  0  0  0  0  0  0  0  0  0
  150.8879  140.7495  157.0910 H   0  0  0  0  0  0  0  0  0  0  0  0
  148.6380  140.4586  158.2089 H   0  0  0  0  0  0  0  0  0  0  0  0
  148.9563  142.0715  157.7147 H   0  0  0  0  0  0  0  0  0  0  0  0
  147.2217  140.1172  156.1266 H   0  0  0  0  0  0  0  0  0  0  0  0
  146.6514  141.4499  157.1107 H   0  0  0  0  0  0  0  0  0  0  0  0
  146.0919  141.2139  154.0997 H   0  0  0  0  0  0  0  0  0  0  0  0
  146.4901  142.9005  153.7500 H   0  0  0  0  0  0  0  0  0  0  0  0
  145.5524  142.5002  155.1860 H   0  0  0  0  0  0  0  0  0  0  0  0
  148.6281  140.7477  153.9850 H   0  0  0  0  0  0  0  0  0  0  0  0
  148.8899  142.4553  153.6930 H   0  0  0  0  0  0  0  0  0  0  0  0
  150.2496  142.6585  155.7382 H   0  0  0  0  0  0  0  0  0  0  0  0
  150.9527  141.5078  154.6751 H   0  0  0  0  0  0  0  0  0  0  0  0
  151.1985  139.4624  154.2894 H   0  0  0  0  0  0  0  0  0  0  0  0
  152.0462  138.9701  155.7413 H   0  0  0  0  0  0  0  0  0  0  0  0
  151.9366  137.1476  154.0753 H   0  0  0  0  0  0  0  0  0  0  0  0
  150.1968  137.2843  153.9758 H   0  0  0  0  0  0  0  0  0  0  0  0
  147.9058  133.7511  152.3580 H   0  0  0  0  0  0  0  0  0  0  0  0
  149.1389  139.1171  155.4231 H   0  0  0  0  0  0  0  0  0  0  0  0
  147.8049  142.9552  155.7192 H   0  0  0  0  0  0  0  0  0  0  0  0
  146.5280  132.1578  151.4684 H   0  0  0  0  0  0  0  0  0  0  0  0
  1  2  1  0  0  0  0
  1 25  1  0  0  0  0
  1 26  1  0  0  0  0
  1 27  1  0  0  0  0
  2 24  1  0  0  0  0
  2  3  2  0  0  0  0
  3  4  1  0  0  0  0
  3 28  1  0  0  0  0
  4  5  2  0  0  0  0
  4 29  1  0  0  0  0
  5  6  1  0  0  0  0
  5 23  1  0  0  0  0
  6  7  1  0  0  0  0
  6 30  1  0  0  0  0
  7  8  2  0  0  0  0
  7  9  1  0  0  0  0
  9 10  1  0  0  0  0
  9 31  1  0  0  0  0
 10 22  1  0  0  0  0
 10 11  1  0  0  0  0
 10 32  1  0  0  0  0
 11 12  1  0  0  0  0
 11 33  1  0  0  0  0
 11 34  1  0  0  0  0
 12 13  1  0  0  0  0
 12 35  1  0  0  0  0
 12 36  1  0  0  0  0
 13 14  1  0  0  0  0
 13 21  1  0  0  0  0
 13 54  1  0  0  0  0
 14 20  1  0  0  0  0
 14 15  1  0  0  0  0
 14 37  1  0  0  0  0
 15 16  1  0  0  0  0
 15 38  1  0  0  0  0
 15 39  1  0  0  0  0
 16 17  1  0  0  0  0
 16 40  1  0  0  0  0
 16 41  1  0  0  0  0
 17 18  1  0  0  0  0
 17 19  1  0  0  0  0
 17 55  1  0  0  0  0
 18 42  1  0  0  0  0
 18 43  1  0  0  0  0
 18 44  1  0  0  0  0
 19 20  1  0  0  0  0
 19 45  1  0  0  0  0
 19 46  1  0  0  0  0
 20 47  1  0  0  0  0
 20 48  1  0  0  0  0
 21 22  1  0  0  0  0
 21 49  1  0  0  0  0
 21 50  1  0  0  0  0
 22 51  1  0  0  0  0
 22 52  1  0  0  0  0
 23 24  2  0  0  0  0
 23 53  1  0  0  0  0
 24 56  1  0  0  0  0
M  CHG  1  13   1
M  CHG  1  17   1
M  CHG  1  24   1
M  END
> <s_m_source_file>
AV-unprocessed.smi

> <i_m_source_file_index>
2772

> <i_lp_mmshare_version>
43012

> <i_f3d_flags>
0

> <s_epik_input>
W0NIM11jMVtjSF1bY0hdYyhbY0hdbjEpW05IXUMoPU8pW05IXVtDSF0yW0NIMl1bQ0gyXU4oW0NIMl1bQ0gyXTIpW0NIXTNbQ0gyXVtDSDJdTihbQ0gzXSlbQ0gyXVtDSDJdMw==

> <s_epik_cmdline>
J2VwaWtfcHl0aG9uJywgJy1waCcsICc3LjAnLCAnLXRuJywgJzgnLCAnLW1hJywgJzIwMCcsICctbWV0YWxfYmluZGluZycsICctaW1hZScsICc8aW5maWxlLm1hZT4nLCAnLW9tYWUnLCAnPG91dGZpbGUubWFlPic=

> <r_epik_Ionization_Penalty>
2.34117

> <r_epik_Ionization_Penalty_Charging>
2.34115

> <r_epik_Ionization_Penalty_Neutral>
2.22786e-05

> <r_epik_State_Penalty>
2.43944

> <r_epik_Charging_Adjusted_Penalty>
4.78059

> <i_epik_Tot_Q>
3

> <i_epik_Tot_abs_Q>
3

> <r_epik_Metal_State_Penalty>
2.45906

> <b_epik_Metal_Only>
0

> <s_lp_Force_Field>
OPLS_2005

> <r_lp_Energy>
56.0688

> <b_lp_Chiralities_Consistent>
1

> <s_lp_Variant>
AV-unprocessed.smi:2772-11

> <Gold.Version>
5.8.1

> <Gold.Id.Protein>
6NUR|6NUR_protein|mol2

> <Gold.PLP.Fitness>
41.2811

> <Gold.PLP.PLP>
-36.1492

> <Gold.PLP.part.hbond>
-2.0000

> <Gold.PLP.part.metal>
0.0000

> <Gold.PLP.part.buried>
-3.7124

> <Gold.PLP.part.nonpolar>
-30.6044

> <Gold.PLP.part.repulsive>
1.0209

> <Gold.PLP.ligand.clash>
0.0000

> <Gold.PLP.ligand.torsion>
0.4475

> <Gold.PLP.Chemscore.Hbond>
2.0000

> <Gold.PLP.Chemscore.CHOScore>
0.0000

> <Gold.PLP.Chemscore.Metal>
0.0000

> <Gold.Chemscore.Hbonds>
donor molecule, donor type, donor heavy atom, donor atom, acceptor molecule, acceptor atom, score
      L1  H    17    55       P1  8028  1.90

> <Gold.PLP.Chemscore.Internal.Correction>
0.0269

> <Gold.Rescore>
     Score         DG    S(hbond)    S(metal)    S(lipo)     H(rot)  DE(clash)    DE(int)     intcor
     13.33     -15.64       0.86        0.00      89.12       1.22       0.05       2.26       ----

> <Gold.Chemscore.Fitness>
13.3319

> <Gold.Chemscore.DG>
-15.6443

> <Gold.Chemscore.ZeroCoef>
-5.4800

> <Gold.Chemscore.Hbond>
0.8582

> <Gold.Chemscore.Metal>
0.0000

> <Gold.Chemscore.Lipo>
89.1164

> <Gold.Chemscore.Internal_Hbond>
0.0000

> <Gold.Chemscore.DEClash>
0.0488

> <Gold.Chemscore.DEInternal>
2.2635

> <Gold.Chemscore.Rot>
1.2222

> <Gold.Chemscore.Internal.Correction>
   9.000000E+99

> <Gold.Chemscore.Hbonds>
donor molecule, donor type, donor heavy atom, donor atom, acceptor molecule, acceptor atom, score
      L1  H    17    55       P1  8028  0.47

> <Gold.Chemscore.Hbond.Weighted>
-2.8665

> <Gold.Chemscore.Metal.Weighted>
-0.0000

> <Gold.Chemscore.Lipo.Weighted>
-10.4266

> <Gold.Chemscore.Internal_Hbond.Weighted>
0.0000

> <Gold.Chemscore.DEClash.Weighted>
0.0488

> <Gold.Chemscore.DEInternal.Weighted>
2.2635

> <Gold.Chemscore.Rot.Weighted>
3.1289

> <Gold.Chemscore.Internal.Correction.Weighted>
   9.000000E+99

> <Gold.Protein.RotatedTorsions>
[ 6907 6896 6895 6894 ] final  105.27 input  -60.11 | X-H torsion
[ 7974 7965 7964 7962 ] final  -27.86 input  175.53 | X-H torsion
[ 8008 7997 7996 7995 ] final -103.16 input   59.86 | X-H torsion
[ 10167 10162 10161 10158 ] final    0.70 input  -65.29 | X-H torsion
[ 10718 10713 10712 10709 ] final  -44.88 input   66.30 | X-H torsion
[ 10763 10752 10751 10750 ] final   51.66 input  -60.55 | X-H torsion
[ 11005 11000 10999 10996 ] final  -62.85 input  -57.11 | X-H torsion

> <Gold.Protein.ActiveResidues>
 VAL166  LYS551  ARG553  GLY616  TRP617  ASP618  TYR619  PRO620  LYS621  CYS622 
 ASP623  PHE694  ASN695  SER759  ASP760  ASP761  ALA762  ILE779  LEU786  VAL792 
 PHE793  MET794  SER795  GLU796  ALA797  LYS798  CYS799  TRP800  GLU811  SER814 

> <Gold.Protein.RotatedAtoms>
  152.5236  133.9553  159.7691 H   0  0  0  0  0  0  0  0  0  0  0  0  # atno 6907 bound_to 6896
  150.9855  133.6194  159.2723 H   0  0  0  0  0  0  0  0  0  0  0  0  # atno 6908 bound_to 6896
  151.3356  135.0858  159.9406 H   0  0  0  0  0  0  0  0  0  0  0  0  # atno 6909 bound_to 6896
  146.1328  140.5208  142.8686 H   0  0  0  0  0  0  0  0  0  0  0  0  # atno 7974 bound_to 7965
  154.8669  140.0424  157.1700 H   0  0  0  0  0  0  0  0  0  0  0  0  # atno 8008 bound_to 7997
  154.8780  140.2968  155.5421 H   0  0  0  0  0  0  0  0  0  0  0  0  # atno 8009 bound_to 7997
  156.2999  140.2416  156.3779 H   0  0  0  0  0  0  0  0  0  0  0  0  # atno 8010 bound_to 7997
  140.6716  143.7031  150.7936 H   0  0  0  0  0  0  0  0  0  0  0  0  # atno 10167 bound_to 10162
  156.2340  130.4174  149.8840 H   0  0  0  0  0  0  0  0  0  0  0  0  # atno 10718 bound_to 10713
  152.9786  135.5838  154.4451 H   0  0  0  0  0  0  0  0  0  0  0  0  # atno 10763 bound_to 10752
  154.4047  135.2769  155.2076 H   0  0  0  0  0  0  0  0  0  0  0  0  # atno 10764 bound_to 10752
  154.3892  135.6129  153.5888 H   0  0  0  0  0  0  0  0  0  0  0  0  # atno 10765 bound_to 10752
  141.1374  133.6645  156.5591 H   0  0  0  0  0  0  0  0  0  0  0  0  # atno 11005 bound_to 11000
  144.7708  140.5634  143.6671 LP  0  0  0  0  0  0  0  0  0  0  0  0  # atno 17320 bound_to 7965
  145.5222  139.1476  143.3546 LP  0  0  0  0  0  0  0  0  0  0  0  0  # atno 17321 bound_to 7965
  140.0718  143.5054  152.2576 LP  0  0  0  0  0  0  0  0  0  0  0  0  # atno 17342 bound_to 10162
  139.5988  144.7576  151.3222 LP  0  0  0  0  0  0  0  0  0  0  0  0  # atno 17343 bound_to 10162
  156.6445  130.8718  151.3520 LP  0  0  0  0  0  0  0  0  0  0  0  0  # atno 17370 bound_to 10713
  157.7146  130.9481  150.1209 LP  0  0  0  0  0  0  0  0  0  0  0  0  # atno 17371 bound_to 10713
  140.4003  134.7363  157.4775 LP  0  0  0  0  0  0  0  0  0  0  0  0  # atno 17394 bound_to 11000
  140.0501  134.6143  155.8872 LP  0  0  0  0  0  0  0  0  0  0  0  0  # atno 17395 bound_to 11000

$$$$
