AV-unprocessed.smi:1732|AV-procd|sdf|6977|dock1
  -GOLD-   22720 8193D 1   1.00000     0.00000
 Structure written by MMmdl.
 35 36  0  0  0  0  0  0  0  0  2 V2000
  151.4950  138.8762  158.8772 O   0  0  0  0  0  0  0  0  0  0  0  0
  152.3885  139.6635  159.1871 C   0  0  0  0  0  0  0  0  0  0  0  0
  152.3285  141.0994  158.6736 C   0  0  0  0  0  0  0  0  0  0  0  0
  152.4001  141.9777  159.7865 O   0  0  0  0  0  0  0  0  0  0  0  0
  152.4733  143.3494  159.4272 C   0  0  0  0  0  0  0  0  0  0  0  0
  152.2727  144.2345  160.6564 C   0  0  0  0  0  0  0  0  0  0  0  0
  151.8102  145.5851  160.0985 C   0  0  0  0  0  0  0  0  0  0  0  0
  151.2035  145.2949  158.7163 C   0  0  0  0  0  0  0  0  0  0  0  0
  151.3403  143.7844  158.4936 C   0  0  0  0  0  0  0  0  0  0  0  0
  153.4401  139.3804  159.9805 N   0  0  0  0  0  0  0  0  0  0  0  0
  153.7957  138.1642  160.5876 C   0  0  0  0  0  0  0  0  0  0  0  0
  154.1458  138.0250  161.8963 C   0  0  0  0  0  0  0  0  0  0  0  0
  154.4896  136.7338  162.4788 C   0  0  0  0  0  0  0  0  0  0  0  0
  154.9720  136.5516  163.9070 C   0  0  0  0  0  0  0  0  0  0  0  0
  155.2560  135.2729  164.1550 F   0  0  0  0  0  0  0  0  0  0  0  0
  156.0647  137.2785  164.1412 F   0  0  0  0  0  0  0  0  0  0  0  0
  154.0238  136.9385  164.7591 F   0  0  0  0  0  0  0  0  0  0  0  0
  154.4242  135.7081  161.5559 C   0  0  0  0  0  0  0  0  0  0  0  0
  154.0622  135.7560  160.2550 N   0  5  0  0  0  0  0  0  0  0  0  0
  153.7385  136.9680  159.7217 C   0  0  0  0  0  0  0  0  0  0  0  0
  153.4024  137.0842  158.5426 O   0  0  0  0  0  0  0  0  0  0  0  0
  153.1597  141.2827  157.9907 H   0  0  0  0  0  0  0  0  0  0  0  0
  151.4028  141.2455  158.1151 H   0  0  0  0  0  0  0  0  0  0  0  0
  153.4414  143.5827  158.9793 H   0  0  0  0  0  0  0  0  0  0  0  0
  151.4862  143.8159  161.2862 H   0  0  0  0  0  0  0  0  0  0  0  0
  153.1737  144.3171  161.2650 H   0  0  0  0  0  0  0  0  0  0  0  0
  151.0951  146.0671  160.7659 H   0  0  0  0  0  0  0  0  0  0  0  0
  152.6620  146.2582  159.9926 H   0  0  0  0  0  0  0  0  0  0  0  0
  150.1620  145.6115  158.6540 H   0  0  0  0  0  0  0  0  0  0  0  0
  151.7558  145.8397  157.9499 H   0  0  0  0  0  0  0  0  0  0  0  0
  151.5318  143.5327  157.4502 H   0  0  0  0  0  0  0  0  0  0  0  0
  150.4137  143.2896  158.7884 H   0  0  0  0  0  0  0  0  0  0  0  0
  154.0475  140.1538  160.2103 H   0  0  0  0  0  0  0  0  0  0  0  0
  154.1574  138.8762  162.5571 H   0  0  0  0  0  0  0  0  0  0  0  0
  154.7074  134.6967  161.9181 H   0  0  0  0  0  0  0  0  0  0  0  0
  1  2  2  0  0  0  0
  2  3  1  0  0  0  0
  2 10  1  0  0  0  0
  3  4  1  0  0  0  0
  3 22  1  0  0  0  0
  3 23  1  0  0  0  0
  4  5  1  0  0  0  0
  5  9  1  0  0  0  0
  5  6  1  0  0  0  0
  5 24  1  0  0  0  0
  6  7  1  0  0  0  0
  6 25  1  0  0  0  0
  6 26  1  0  0  0  0
  7  8  1  0  0  0  0
  7 27  1  0  0  0  0
  7 28  1  0  0  0  0
  8  9  1  0  0  0  0
  8 29  1  0  0  0  0
  8 30  1  0  0  0  0
  9 31  1  0  0  0  0
  9 32  1  0  0  0  0
 10 11  1  0  0  0  0
 10 33  1  0  0  0  0
 11 20  1  0  0  0  0
 11 12  2  0  0  0  0
 12 13  1  0  0  0  0
 12 34  1  0  0  0  0
 13 14  1  0  0  0  0
 13 18  2  0  0  0  0
 14 15  1  0  0  0  0
 14 16  1  0  0  0  0
 14 17  1  0  0  0  0
 18 19  1  0  0  0  0
 18 35  1  0  0  0  0
 19 20  1  0  0  0  0
 20 21  2  0  0  0  0
M  CHG  1  19  -1
M  END
> <s_m_source_file>
AV-unprocessed.smi

> <i_m_source_file_index>
1732

> <i_lp_mmshare_version>
43012

> <i_f3d_flags>
0

> <s_epik_input>
W0NIMl0xW0NIMl1bQ0gyXVtDSDJdW0NIXTFPW0NIMl1DKD1PKVtOSF1jMltjSF1jKEMoRikoRilGKVtjSF1bbkhdYzI9Tw==

> <s_epik_cmdline>
J2VwaWtfcHl0aG9uJywgJy1waCcsICc3LjAnLCAnLXRuJywgJzgnLCAnLW1hJywgJzIwMCcsICctbWV0YWxfYmluZGluZycsICctaW1hZScsICc8aW5maWxlLm1hZT4nLCAnLW9tYWUnLCAnPG91dGZpbGUubWFlPic=

> <r_epik_Ionization_Penalty>
2.40879

> <r_epik_Ionization_Penalty_Charging>
0.039975

> <r_epik_Ionization_Penalty_Neutral>
2.36882

> <r_epik_State_Penalty>
2.52443

> <r_epik_Charging_Adjusted_Penalty>
2.5644

> <i_epik_Tot_Q>
-1

> <i_epik_Tot_abs_Q>
1

> <r_epik_Metal_State_Penalty>
0.506326

> <b_epik_Metal_Only>
0

> <s_lp_Force_Field>
OPLS_2005

> <r_lp_Energy>
39.1091

> <b_lp_Chiralities_Consistent>
1

> <s_lp_Variant>
AV-unprocessed.smi:1732-2

> <Gold.Version>
5.8.1

> <Gold.Id.Protein>
6NUR|6NUR_protein|mol2

> <Gold.PLP.Fitness>
48.6052

> <Gold.PLP.PLP>
-43.5311

> <Gold.PLP.part.hbond>
-1.0000

> <Gold.PLP.part.metal>
0.0000

> <Gold.PLP.part.buried>
-5.2363

> <Gold.PLP.part.nonpolar>
-37.1520

> <Gold.PLP.part.repulsive>
0.0733

> <Gold.PLP.ligand.clash>
0.0000

> <Gold.PLP.ligand.torsion>
0.4976

> <Gold.PLP.Chemscore.Hbond>
2.0000

> <Gold.PLP.Chemscore.CHOScore>
0.0000

> <Gold.PLP.Chemscore.Metal>
0.0000

> <Gold.Chemscore.Hbonds>
donor molecule, donor type, donor heavy atom, donor atom, acceptor molecule, acceptor atom, score
      P1  H  6896  6907       L1    19  2.00

> <Gold.PLP.Chemscore.Internal.Correction>
0.0693

> <Gold.Rescore>
     Score         DG    S(hbond)    S(metal)    S(lipo)     H(rot)  DE(clash)    DE(int)     intcor
     12.00     -15.60       0.55        0.00     105.41       1.58       0.17       3.43       ----

> <Gold.Chemscore.Fitness>
11.9989

> <Gold.Chemscore.DG>
-15.5989

> <Gold.Chemscore.ZeroCoef>
-5.4800

> <Gold.Chemscore.Hbond>
0.5468

> <Gold.Chemscore.Metal>
0.0000

> <Gold.Chemscore.Lipo>
105.4070

> <Gold.Chemscore.Internal_Hbond>
0.0000

> <Gold.Chemscore.DEClash>
0.1694

> <Gold.Chemscore.DEInternal>
3.4306

> <Gold.Chemscore.Rot>
1.5781

> <Gold.Chemscore.Internal.Correction>
   9.000000E+99

> <Gold.Chemscore.Hbonds>
donor molecule, donor type, donor heavy atom, donor atom, acceptor molecule, acceptor atom, score
      P1  H  6896  6907       L1    19  0.38

> <Gold.Chemscore.Hbond.Weighted>
-1.8262

> <Gold.Chemscore.Metal.Weighted>
-0.0000

> <Gold.Chemscore.Lipo.Weighted>
-12.3326

> <Gold.Chemscore.Internal_Hbond.Weighted>
0.0000

> <Gold.Chemscore.DEClash.Weighted>
0.1694

> <Gold.Chemscore.DEInternal.Weighted>
3.4306

> <Gold.Chemscore.Rot.Weighted>
4.0399

> <Gold.Chemscore.Internal.Correction.Weighted>
   9.000000E+99

> <Gold.Protein.RotatedTorsions>
[ 6907 6896 6895 6894 ] final   63.23 input  -60.11 | X-H torsion
[ 7974 7965 7964 7962 ] final   -0.69 input  175.53 | X-H torsion
[ 8008 7997 7996 7995 ] final   18.82 input   59.86 | X-H torsion
[ 10167 10162 10161 10158 ] final   77.27 input  -65.29 | X-H torsion
[ 10718 10713 10712 10709 ] final   26.49 input   66.30 | X-H torsion
[ 10763 10752 10751 10750 ] final   -2.61 input  -60.55 | X-H torsion
[ 11005 11000 10999 10996 ] final  170.21 input  -57.11 | X-H torsion

> <Gold.Protein.ActiveResidues>
 VAL166  LYS551  ARG553  GLY616  TRP617  ASP618  TYR619  PRO620  LYS621  CYS622 
 ASP623  PHE694  ASN695  SER759  ASP760  ASP761  ALA762  ILE779  LEU786  VAL792 
 PHE793  MET794  SER795  GLU796  ALA797  LYS798  CYS799  TRP800  GLU811  SER814 

> <Gold.Protein.RotatedAtoms>
  152.4237  134.5909  159.9973 H   0  0  0  0  0  0  0  0  0  0  0  0  # atno 6907 bound_to 6896
  151.6051  133.3347  159.3063 H   0  0  0  0  0  0  0  0  0  0  0  0  # atno 6908 bound_to 6896
  150.8125  134.7326  159.6766 H   0  0  0  0  0  0  0  0  0  0  0  0  # atno 6909 bound_to 6896
  146.2425  140.1308  142.8338 H   0  0  0  0  0  0  0  0  0  0  0  0  # atno 7974 bound_to 7965
  154.9116  140.3015  155.5263 H   0  0  0  0  0  0  0  0  0  0  0  0  # atno 8008 bound_to 7997
  156.3014  140.2388  156.4091 H   0  0  0  0  0  0  0  0  0  0  0  0  # atno 8009 bound_to 7997
  154.8420  140.0413  157.1536 H   0  0  0  0  0  0  0  0  0  0  0  0  # atno 8010 bound_to 7997
  139.9833  144.5810  150.7881 H   0  0  0  0  0  0  0  0  0  0  0  0  # atno 10167 bound_to 10162
  157.2076  130.6919  149.6214 H   0  0  0  0  0  0  0  0  0  0  0  0  # atno 10718 bound_to 10713
  153.3603  135.6990  153.6717 H   0  0  0  0  0  0  0  0  0  0  0  0  # atno 10763 bound_to 10752
  153.5408  135.3573  155.2718 H   0  0  0  0  0  0  0  0  0  0  0  0  # atno 10764 bound_to 10752
  154.8667  135.4203  154.2859 H   0  0  0  0  0  0  0  0  0  0  0  0  # atno 10765 bound_to 10752
  140.3059  134.7557  157.3953 H   0  0  0  0  0  0  0  0  0  0  0  0  # atno 11005 bound_to 11000
  145.0328  140.8884  143.5099 LP  0  0  0  0  0  0  0  0  0  0  0  0  # atno 17320 bound_to 7965
  145.1375  139.2593  143.5507 LP  0  0  0  0  0  0  0  0  0  0  0  0  # atno 17321 bound_to 7965
  140.7481  143.2917  151.3313 LP  0  0  0  0  0  0  0  0  0  0  0  0  # atno 17342 bound_to 10162
  139.6394  144.0569  152.2542 LP  0  0  0  0  0  0  0  0  0  0  0  0  # atno 17343 bound_to 10162
  155.9694  130.4562  150.5916 LP  0  0  0  0  0  0  0  0  0  0  0  0  # atno 17370 bound_to 10713
  157.3705  131.0765  151.1562 LP  0  0  0  0  0  0  0  0  0  0  0  0  # atno 17371 bound_to 10713
  140.1067  134.5399  155.8302 LP  0  0  0  0  0  0  0  0  0  0  0  0  # atno 17394 bound_to 11000
  141.2118  133.6711  156.6613 LP  0  0  0  0  0  0  0  0  0  0  0  0  # atno 17395 bound_to 11000

$$$$
