AV-unprocessed.smi:2928|AV-procd|sdf|11236|dock1
  -GOLD-   2272016133D 1   1.00000     0.00000
 Structure written by MMmdl.
 56 59  0  0  0  0  0  0  0  0  3 V2000
  147.2599  141.8898  154.1427 C   0  0  0  0  0  0  0  0  0  0  0  0
  148.2603  141.7665  155.2296 N   0  3  2  0  0  0  0  0  0  0  0  0
  149.5580  141.1776  154.8188 C   0  0  1  0  0  0  0  0  0  0  0  0
  150.6201  141.5093  155.8932 C   0  0  0  0  0  0  0  0  0  0  0  0
  150.2085  141.1023  157.3226 C   0  0  0  0  0  0  0  0  0  0  0  0
  148.7313  141.4280  157.6257 C   0  0  0  0  0  0  0  0  0  0  0  0
  147.7663  141.1036  156.4609 C   0  0  2  0  0  0  0  0  0  0  0  0
  147.5171  139.5924  156.2251 C   0  0  0  0  0  0  0  0  0  0  0  0
  148.7048  138.8356  155.5878 C   0  0  1  0  0  0  0  0  0  0  0  0
  148.2240  137.5735  155.0290 N   0  0  0  0  0  0  0  0  0  0  0  0
  148.9529  136.4541  154.9086 C   0  0  0  0  0  0  0  0  0  0  0  0
  150.1333  136.3695  155.2469 O   0  0  0  0  0  0  0  0  0  0  0  0
  148.2373  135.4600  154.3568 N   0  0  0  0  0  0  0  0  0  0  0  0
  148.6750  134.1399  154.0534 C   0  0  0  0  0  0  0  0  0  0  0  0
  149.6005  133.4669  154.8919 C   0  0  0  0  0  0  0  0  0  0  0  0
  149.9618  132.1353  154.6135 C   0  0  0  0  0  0  0  0  0  0  0  0
  149.3795  131.4892  153.5099 C   0  0  0  0  0  0  0  0  0  0  0  0
  148.4934  132.1520  152.7383 N   0  3  0  0  0  0  0  0  0  0  0  0
  148.1169  133.4389  152.9451 C   0  0  0  0  0  0  0  0  0  0  0  0
  147.1894  134.0093  152.0437 N   0  0  0  0  0  0  0  0  0  0  0  0
  145.9844  134.6640  152.5400 C   0  0  0  0  0  0  0  0  0  0  0  0
  145.0842  134.8147  151.3169 C   0  0  0  0  0  0  0  0  0  0  0  0
  145.3964  133.5509  150.5212 C   0  0  0  0  0  0  0  0  0  0  0  0
  146.8804  133.2978  150.8071 C   0  0  0  0  0  0  0  0  0  0  0  0
  149.4141  139.6699  154.4922 C   0  0  0  0  0  0  0  0  0  0  0  0
  146.9459  140.9205  153.7564 H   0  0  0  0  0  0  0  0  0  0  0  0
  147.6701  142.4662  153.3130 H   0  0  0  0  0  0  0  0  0  0  0  0
  146.3732  142.4136  154.5002 H   0  0  0  0  0  0  0  0  0  0  0  0
  149.8776  141.6798  153.9045 H   0  0  0  0  0  0  0  0  0  0  0  0
  151.5779  141.0557  155.6363 H   0  0  0  0  0  0  0  0  0  0  0  0
  150.7896  142.5868  155.8829 H   0  0  0  0  0  0  0  0  0  0  0  0
  150.4070  140.0468  157.4879 H   0  0  0  0  0  0  0  0  0  0  0  0
  150.8476  141.6139  158.0428 H   0  0  0  0  0  0  0  0  0  0  0  0
  148.4151  140.9188  158.5367 H   0  0  0  0  0  0  0  0  0  0  0  0
  148.6568  142.4948  157.8408 H   0  0  0  0  0  0  0  0  0  0  0  0
  146.8072  141.5541  156.7204 H   0  0  0  0  0  0  0  0  0  0  0  0
  147.2337  139.1116  157.1623 H   0  0  0  0  0  0  0  0  0  0  0  0
  146.6447  139.4925  155.5778 H   0  0  0  0  0  0  0  0  0  0  0  0
  149.4160  138.5896  156.3726 H   0  0  0  0  0  0  0  0  0  0  0  0
  147.2622  137.5491  154.7231 H   0  0  0  0  0  0  0  0  0  0  0  0
  147.3121  135.6998  154.0315 H   0  0  0  0  0  0  0  0  0  0  0  0
  150.0233  133.9470  155.7617 H   0  0  0  0  0  0  0  0  0  0  0  0
  150.6657  131.6143  155.2462 H   0  0  0  0  0  0  0  0  0  0  0  0
  149.5902  130.4687  153.2240 H   0  0  0  0  0  0  0  0  0  0  0  0
  145.4882  134.0399  153.2847 H   0  0  0  0  0  0  0  0  0  0  0  0
  146.2139  135.6284  152.9944 H   0  0  0  0  0  0  0  0  0  0  0  0
  144.0288  134.9095  151.5741 H   0  0  0  0  0  0  0  0  0  0  0  0
  145.3757  135.6964  150.7445 H   0  0  0  0  0  0  0  0  0  0  0  0
  144.8016  132.7212  150.9054 H   0  0  0  0  0  0  0  0  0  0  0  0
  145.1816  133.6532  149.4572 H   0  0  0  0  0  0  0  0  0  0  0  0
  147.4900  133.7103  150.0028 H   0  0  0  0  0  0  0  0  0  0  0  0
  147.0924  132.2301  150.8821 H   0  0  0  0  0  0  0  0  0  0  0  0
  148.8532  139.5781  153.5611 H   0  0  0  0  0  0  0  0  0  0  0  0
  150.3946  139.2433  154.2775 H   0  0  0  0  0  0  0  0  0  0  0  0
  148.4662  142.7188  155.4972 H   0  0  0  0  0  0  0  0  0  0  0  0
  148.0877  131.6555  151.9450 H   0  0  0  0  0  0  0  0  0  0  0  0
  1  2  1  0  0  0  0
  1 26  1  0  0  0  0
  1 27  1  0  0  0  0
  1 28  1  0  0  0  0
  2  7  1  0  0  0  0
  2  3  1  0  0  0  0
  2 55  1  0  0  0  0
  3 25  1  0  0  0  0
  3  4  1  0  0  0  0
  3 29  1  0  0  0  0
  4  5  1  0  0  0  0
  4 30  1  0  0  0  0
  4 31  1  0  0  0  0
  5  6  1  0  0  0  0
  5 32  1  0  0  0  0
  5 33  1  0  0  0  0
  6  7  1  0  0  0  0
  6 34  1  0  0  0  0
  6 35  1  0  0  0  0
  7  8  1  0  0  0  0
  7 36  1  0  0  0  0
  8  9  1  0  0  0  0
  8 37  1  0  0  0  0
  8 38  1  0  0  0  0
  9 10  1  0  0  0  0
  9 25  1  0  0  0  0
  9 39  1  0  0  0  0
 10 11  1  0  0  0  0
 10 40  1  0  0  0  0
 11 12  2  0  0  0  0
 11 13  1  0  0  0  0
 13 14  1  0  0  0  0
 13 41  1  0  0  0  0
 14 19  1  0  0  0  0
 14 15  2  0  0  0  0
 15 16  1  0  0  0  0
 15 42  1  0  0  0  0
 16 17  2  0  0  0  0
 16 43  1  0  0  0  0
 17 18  1  0  0  0  0
 17 44  1  0  0  0  0
 18 19  2  0  0  0  0
 18 56  1  0  0  0  0
 19 20  1  0  0  0  0
 20 24  1  0  0  0  0
 20 21  1  0  0  0  0
 21 22  1  0  0  0  0
 21 45  1  0  0  0  0
 21 46  1  0  0  0  0
 22 23  1  0  0  0  0
 22 47  1  0  0  0  0
 22 48  1  0  0  0  0
 23 24  1  0  0  0  0
 23 49  1  0  0  0  0
 23 50  1  0  0  0  0
 24 51  1  0  0  0  0
 24 52  1  0  0  0  0
 25 53  1  0  0  0  0
 25 54  1  0  0  0  0
M  CHG  1   2   1
M  CHG  1  18   1
M  END
> <s_m_source_file>
AV-unprocessed.smi

> <i_m_source_file_index>
2928

> <i_lp_mmshare_version>
43012

> <i_f3d_flags>
0

> <s_epik_input>
W0NIMl0xW0NIMl1bQ0gyXVtDQEhdKE4oW0NIM10pW0NIXTEyKVtDSDJdW0NASF0oW0NIMl0yKVtOSF1DKD1PKVtOSF1jM1tjSF1bY0hdW2NIXW5jM040W0NIMl1bQ0gyXVtDSDJdW0NIMl00

> <s_epik_cmdline>
J2VwaWtfcHl0aG9uJywgJy1waCcsICc3LjAnLCAnLXRuJywgJzgnLCAnLW1hJywgJzIwMCcsICctbWV0YWxfYmluZGluZycsICctaW1hZScsICc8aW5maWxlLm1hZT4nLCAnLW9tYWUnLCAnPG91dGZpbGUubWFlPic=

> <r_lp_tautomer_probability>
0.999994

> <r_epik_Ionization_Penalty>
1.2404

> <r_epik_Ionization_Penalty_Charging>
1.24038

> <r_epik_Ionization_Penalty_Neutral>
1.86539e-05

> <r_epik_State_Penalty>
1.30821

> <r_epik_Charging_Adjusted_Penalty>
2.54859

> <i_epik_Tot_Q>
2

> <i_epik_Tot_abs_Q>
2

> <r_epik_Metal_State_Penalty>
1.3782

> <b_epik_Metal_Only>
0

> <s_lp_Force_Field>
OPLS_2005

> <r_lp_Energy>
72.136

> <b_lp_Chiralities_Consistent>
1

> <s_lp_Variant>
AV-unprocessed.smi:2928-6

> <Gold.Version>
5.8.1

> <Gold.Id.Protein>
6NUR|6NUR_protein|mol2

> <Gold.PLP.Fitness>
43.1664

> <Gold.PLP.PLP>
-37.5215

> <Gold.PLP.part.hbond>
-3.0000

> <Gold.PLP.part.metal>
0.0000

> <Gold.PLP.part.buried>
-3.5582

> <Gold.PLP.part.nonpolar>
-31.3991

> <Gold.PLP.part.repulsive>
1.9633

> <Gold.PLP.ligand.clash>
0.0000

> <Gold.PLP.ligand.torsion>
0.7775

> <Gold.PLP.Chemscore.Hbond>
2.2740

> <Gold.PLP.Chemscore.CHOScore>
0.0000

> <Gold.PLP.Chemscore.Metal>
0.0000

> <Gold.Chemscore.Hbonds>
donor molecule, donor type, donor heavy atom, donor atom, acceptor molecule, acceptor atom, score
      L1  H     2    55       P1  8028  1.95
      L1  H    18    56       P1 10747  0.57

> <Gold.PLP.Chemscore.Internal.Correction>
0.3777

> <Gold.Rescore>
     Score         DG    S(hbond)    S(metal)    S(lipo)     H(rot)  DE(clash)    DE(int)     intcor
     13.17     -15.25       0.98        0.00      81.41       1.19       0.12       1.96       ----

> <Gold.Chemscore.Fitness>
13.1720

> <Gold.Chemscore.DG>
-15.2511

> <Gold.Chemscore.ZeroCoef>
-5.4800

> <Gold.Chemscore.Hbond>
0.9841

> <Gold.Chemscore.Metal>
0.0000

> <Gold.Chemscore.Lipo>
81.4125

> <Gold.Chemscore.Internal_Hbond>
0.0000

> <Gold.Chemscore.DEClash>
0.1198

> <Gold.Chemscore.DEInternal>
1.9594

> <Gold.Chemscore.Rot>
1.1879

> <Gold.Chemscore.Internal.Correction>
   9.000000E+99

> <Gold.Chemscore.Hbonds>
donor molecule, donor type, donor heavy atom, donor atom, acceptor molecule, acceptor atom, score
      L1  H     2    55       P1  8028  0.92
      L1  H    18    56       P1 10747  0.55

> <Gold.Chemscore.Hbond.Weighted>
-3.2869

> <Gold.Chemscore.Metal.Weighted>
-0.0000

> <Gold.Chemscore.Lipo.Weighted>
-9.5253

> <Gold.Chemscore.Internal_Hbond.Weighted>
0.0000

> <Gold.Chemscore.DEClash.Weighted>
0.1198

> <Gold.Chemscore.DEInternal.Weighted>
1.9594

> <Gold.Chemscore.Rot.Weighted>
3.0410

> <Gold.Chemscore.Internal.Correction.Weighted>
   9.000000E+99

> <Gold.Protein.RotatedTorsions>
[ 6907 6896 6895 6894 ] final -157.56 input  -60.11 | X-H torsion
[ 7974 7965 7964 7962 ] final  118.12 input  175.53 | X-H torsion
[ 8008 7997 7996 7995 ] final  -17.61 input   59.86 | X-H torsion
[ 10167 10162 10161 10158 ] final   32.23 input  -65.29 | X-H torsion
[ 10718 10713 10712 10709 ] final   17.87 input   66.30 | X-H torsion
[ 10763 10752 10751 10750 ] final -106.94 input  -60.55 | X-H torsion
[ 11005 11000 10999 10996 ] final -179.36 input  -57.11 | X-H torsion

> <Gold.Protein.ActiveResidues>
 VAL166  LYS551  ARG553  GLY616  TRP617  ASP618  TYR619  PRO620  LYS621  CYS622 
 ASP623  PHE694  ASN695  SER759  ASP760  ASP761  ALA762  ILE779  LEU786  VAL792 
 PHE793  MET794  SER795  GLU796  ALA797  LYS798  CYS799  TRP800  GLU811  SER814 

> <Gold.Protein.RotatedAtoms>
  151.3048  133.4106  159.2642 H   0  0  0  0  0  0  0  0  0  0  0  0  # atno 6907 bound_to 6896
  151.0165  134.9437  159.8046 H   0  0  0  0  0  0  0  0  0  0  0  0  # atno 6908 bound_to 6896
  152.5314  134.3011  159.9131 H   0  0  0  0  0  0  0  0  0  0  0  0  # atno 6909 bound_to 6896
  145.1591  139.3165  143.4526 H   0  0  0  0  0  0  0  0  0  0  0  0  # atno 7974 bound_to 7965
  154.4965  140.2138  155.9435 H   0  0  0  0  0  0  0  0  0  0  0  0  # atno 8008 bound_to 7997
  156.1377  140.3185  155.8415 H   0  0  0  0  0  0  0  0  0  0  0  0  # atno 8009 bound_to 7997
  155.4178  140.0495  157.3018 H   0  0  0  0  0  0  0  0  0  0  0  0  # atno 8010 bound_to 7997
  140.4518  144.1037  150.6193 H   0  0  0  0  0  0  0  0  0  0  0  0  # atno 10167 bound_to 10162
  157.0883  130.6417  149.5843 H   0  0  0  0  0  0  0  0  0  0  0  0  # atno 10718 bound_to 10713
  154.8044  135.4693  154.0355 H   0  0  0  0  0  0  0  0  0  0  0  0  # atno 10763 bound_to 10752
  153.1835  135.6844  153.8453 H   0  0  0  0  0  0  0  0  0  0  0  0  # atno 10764 bound_to 10752
  153.7995  135.3232  155.3366 H   0  0  0  0  0  0  0  0  0  0  0  0  # atno 10765 bound_to 10752
  140.4195  134.6618  157.4656 H   0  0  0  0  0  0  0  0  0  0  0  0  # atno 11005 bound_to 11000
  146.3485  140.1695  142.8590 LP  0  0  0  0  0  0  0  0  0  0  0  0  # atno 17320 bound_to 7965
  145.0350  140.8900  143.5087 LP  0  0  0  0  0  0  0  0  0  0  0  0  # atno 17321 bound_to 7965
  140.4199  143.2617  151.9729 LP  0  0  0  0  0  0  0  0  0  0  0  0  # atno 17342 bound_to 10162
  139.4797  144.5840  151.7884 LP  0  0  0  0  0  0  0  0  0  0  0  0  # atno 17343 bound_to 10162
  155.9905  130.4956  150.7258 LP  0  0  0  0  0  0  0  0  0  0  0  0  # atno 17370 bound_to 10713
  157.4742  131.0896  151.0608 LP  0  0  0  0  0  0  0  0  0  0  0  0  # atno 17371 bound_to 10713
  140.0210  134.6547  155.9240 LP  0  0  0  0  0  0  0  0  0  0  0  0  # atno 17394 bound_to 11000
  141.1790  133.6544  156.4941 LP  0  0  0  0  0  0  0  0  0  0  0  0  # atno 17395 bound_to 11000

$$$$
