AV-unprocessed.smi:789|AV-procd|sdf|3739|dock7
  -GOLD-   22720 1173D 1   1.00000     0.00000
 Structure written by MMmdl.
 34 35  0  0  0  0  0  0  0  0  1 V2000
  147.3479  138.4033  152.9741 C   0  0  0  0  0  0  0  0  0  0  0  0
  147.6112  139.7294  153.6241 C   0  0  0  0  0  0  0  0  0  0  0  0
  148.7090  140.0969  154.4552 C   0  0  0  0  0  0  0  0  0  0  0  0
  148.4335  141.4021  154.7581 C   0  0  0  0  0  0  0  0  0  0  0  0
  149.1459  142.2681  155.5256 N   0  0  0  0  0  0  0  0  0  0  0  0
  150.3031  142.0652  156.1858 C   0  0  0  0  0  0  0  0  0  0  0  0
  150.9398  141.0134  156.1832 O   0  0  0  0  0  0  0  0  0  0  0  0
  150.7270  143.1333  156.8860 N   0  0  0  0  0  0  0  0  0  0  0  0
  151.9340  143.2550  157.7084 C   0  0  0  0  0  0  0  0  0  0  0  0
  151.7066  142.6396  159.1026 C   0  0  0  0  0  0  0  0  0  0  0  0
  152.2322  143.6636  160.1097 C   0  0  0  0  0  0  0  0  0  0  0  0
  152.0182  145.0089  159.4243 C   0  0  0  0  0  0  0  0  0  0  0  0
  152.3169  144.7303  157.9512 C   0  0  0  0  0  0  0  0  0  0  0  0
  147.2553  141.7638  154.1409 N   0  0  0  0  0  0  0  0  0  0  0  0
  146.5435  143.0276  154.1502 C   0  0  0  0  0  0  0  0  0  0  0  0
  146.7517  140.7252  153.4402 N   0  0  0  0  0  0  0  0  0  0  0  0
  148.0978  137.6670  153.2636 H   0  0  0  0  0  0  0  0  0  0  0  0
  147.3682  138.4881  151.8875 H   0  0  0  0  0  0  0  0  0  0  0  0
  146.3716  138.0119  153.2613 H   0  0  0  0  0  0  0  0  0  0  0  0
  149.5460  139.4892  154.7640 H   0  0  0  0  0  0  0  0  0  0  0  0
  148.7376  143.1854  155.6287 H   0  0  0  0  0  0  0  0  0  0  0  0
  150.1338  143.9501  156.8584 H   0  0  0  0  0  0  0  0  0  0  0  0
  152.7644  142.7364  157.2252 H   0  0  0  0  0  0  0  0  0  0  0  0
  150.6424  142.4804  159.2846 H   0  0  0  0  0  0  0  0  0  0  0  0
  152.1986  141.6725  159.2111 H   0  0  0  0  0  0  0  0  0  0  0  0
  151.7305  143.5986  161.0755 H   0  0  0  0  0  0  0  0  0  0  0  0
  153.2981  143.5026  160.2761 H   0  0  0  0  0  0  0  0  0  0  0  0
  150.9776  145.3164  159.5368 H   0  0  0  0  0  0  0  0  0  0  0  0
  152.6464  145.7976  159.8391 H   0  0  0  0  0  0  0  0  0  0  0  0
  153.3852  144.8567  157.7706 H   0  0  0  0  0  0  0  0  0  0  0  0
  151.7988  145.4302  157.2943 H   0  0  0  0  0  0  0  0  0  0  0  0
  147.0155  143.7317  154.8355 H   0  0  0  0  0  0  0  0  0  0  0  0
  145.5130  142.8674  154.4683 H   0  0  0  0  0  0  0  0  0  0  0  0
  146.5448  143.4559  153.1476 H   0  0  0  0  0  0  0  0  0  0  0  0
  1  2  1  0  0  0  0
  1 17  1  0  0  0  0
  1 18  1  0  0  0  0
  1 19  1  0  0  0  0
  2 16  2  0  0  0  0
  2  3  1  0  0  0  0
  3  4  2  0  0  0  0
  3 20  1  0  0  0  0
  4  5  1  0  0  0  0
  4 14  1  0  0  0  0
  5  6  1  0  0  0  0
  5 21  1  0  0  0  0
  6  7  2  0  0  0  0
  6  8  1  0  0  0  0
  8  9  1  0  0  0  0
  8 22  1  0  0  0  0
  9 13  1  0  0  0  0
  9 10  1  0  0  0  0
  9 23  1  0  0  0  0
 10 11  1  0  0  0  0
 10 24  1  0  0  0  0
 10 25  1  0  0  0  0
 11 12  1  0  0  0  0
 11 26  1  0  0  0  0
 11 27  1  0  0  0  0
 12 13  1  0  0  0  0
 12 28  1  0  0  0  0
 12 29  1  0  0  0  0
 13 30  1  0  0  0  0
 13 31  1  0  0  0  0
 14 15  1  0  0  0  0
 14 16  1  0  0  0  0
 15 32  1  0  0  0  0
 15 33  1  0  0  0  0
 15 34  1  0  0  0  0
M  END
> <s_m_source_file>
AV-unprocessed.smi

> <i_m_source_file_index>
789

> <i_lp_mmshare_version>
43012

> <i_f3d_flags>
0

> <s_epik_input>
W0NIM11jMVtjSF1jKG4objEpW0NIM10pW05IXUMoPU8pW05IXVtDSF0yW0NIMl1bQ0gyXVtDSDJdW0NIMl0y

> <s_epik_cmdline>
J2VwaWtfcHl0aG9uJywgJy1waCcsICc3LjAnLCAnLXRuJywgJzgnLCAnLW1hJywgJzIwMCcsICctbWV0YWxfYmluZGluZycsICctaW1hZScsICc8aW5maWxlLm1hZT4nLCAnLW9tYWUnLCAnPG91dGZpbGUubWFlPic=

> <r_lp_tautomer_probability>
1

> <r_epik_Ionization_Penalty>
0.000101808

> <r_epik_Ionization_Penalty_Charging>
0

> <r_epik_Ionization_Penalty_Neutral>
0.000101808

> <r_epik_State_Penalty>
-0

> <r_epik_Charging_Adjusted_Penalty>
0

> <i_epik_Tot_Q>
0

> <i_epik_Tot_abs_Q>
0

> <r_epik_Metal_State_Penalty>
-0

> <b_epik_Metal_Only>
0

> <s_lp_Force_Field>
OPLS_2005

> <r_lp_Energy>
29.7198

> <b_lp_Chiralities_Consistent>
1

> <s_lp_Variant>
AV-unprocessed.smi:789-1

> <Gold.Version>
5.8.1

> <Gold.Id.Protein>
6NUR|6NUR_protein|mol2

> <Gold.PLP.Fitness>
40.1291

> <Gold.PLP.PLP>
-35.3959

> <Gold.PLP.part.hbond>
-1.8764

> <Gold.PLP.part.metal>
0.0000

> <Gold.PLP.part.buried>
-0.4202

> <Gold.PLP.part.nonpolar>
-33.2298

> <Gold.PLP.part.repulsive>
0.4127

> <Gold.PLP.ligand.clash>
0.0000

> <Gold.PLP.ligand.torsion>
0.2865

> <Gold.PLP.Chemscore.Hbond>
1.7680

> <Gold.PLP.Chemscore.CHOScore>
0.0000

> <Gold.PLP.Chemscore.Metal>
0.0000

> <Gold.Chemscore.Hbonds>
donor molecule, donor type, donor heavy atom, donor atom, acceptor molecule, acceptor atom, score
      L1  H     5    21       P1  8028  1.00
      L1  H     8    22       P1  8028  0.77

> <Gold.PLP.Chemscore.Internal.Correction>
0.0022

> <Gold.Rescore>
     Score         DG    S(hbond)    S(metal)    S(lipo)     H(rot)  DE(clash)    DE(int)     intcor
     15.96     -18.57       1.64        0.00      87.05       1.00       1.12       1.49       ----

> <Gold.Chemscore.Fitness>
15.9584

> <Gold.Chemscore.DG>
-18.5704

> <Gold.Chemscore.ZeroCoef>
-5.4800

> <Gold.Chemscore.Hbond>
1.6363

> <Gold.Chemscore.Metal>
0.0000

> <Gold.Chemscore.Lipo>
87.0537

> <Gold.Chemscore.Internal_Hbond>
0.0000

> <Gold.Chemscore.DEClash>
1.1179

> <Gold.Chemscore.DEInternal>
1.4942

> <Gold.Chemscore.Rot>
1.0000

> <Gold.Chemscore.Internal.Correction>
   9.000000E+99

> <Gold.Chemscore.Hbonds>
donor molecule, donor type, donor heavy atom, donor atom, acceptor molecule, acceptor atom, score
      L1  H     5    21       P1  8028  0.89
      L1  H     8    22       P1  8028  0.75

> <Gold.Chemscore.Hbond.Weighted>
-5.4652

> <Gold.Chemscore.Metal.Weighted>
-0.0000

> <Gold.Chemscore.Lipo.Weighted>
-10.1853

> <Gold.Chemscore.Internal_Hbond.Weighted>
0.0000

> <Gold.Chemscore.DEClash.Weighted>
1.1179

> <Gold.Chemscore.DEInternal.Weighted>
1.4942

> <Gold.Chemscore.Rot.Weighted>
2.5600

> <Gold.Chemscore.Internal.Correction.Weighted>
   9.000000E+99

> <Gold.Protein.RotatedTorsions>
[ 6907 6896 6895 6894 ] final  163.56 input  -60.11 | X-H torsion
[ 7974 7965 7964 7962 ] final -114.71 input  175.53 | X-H torsion
[ 8008 7997 7996 7995 ] final -127.25 input   59.86 | X-H torsion
[ 10167 10162 10161 10158 ] final  -33.32 input  -65.29 | X-H torsion
[ 10718 10713 10712 10709 ] final  136.94 input   66.30 | X-H torsion
[ 10763 10752 10751 10750 ] final   29.01 input  -60.55 | X-H torsion
[ 11005 11000 10999 10996 ] final   95.38 input  -57.11 | X-H torsion

> <Gold.Protein.ActiveResidues>
 VAL166  LYS551  ARG553  GLY616  TRP617  ASP618  TYR619  PRO620  LYS621  CYS622 
 ASP623  PHE694  ASN695  SER759  ASP760  ASP761  ALA762  ILE779  LEU786  VAL792 
 PHE793  MET794  SER795  GLU796  ALA797  LYS798  CYS799  TRP800  GLU811  SER814 

> <Gold.Protein.RotatedAtoms>
  151.9233  133.3591  159.3904 H   0  0  0  0  0  0  0  0  0  0  0  0  # atno 6907 bound_to 6896
  150.7032  134.4612  159.5391 H   0  0  0  0  0  0  0  0  0  0  0  0  # atno 6908 bound_to 6896
  152.2240  134.8386  160.0533 H   0  0  0  0  0  0  0  0  0  0  0  0  # atno 6909 bound_to 6896
  145.1170  140.8646  143.3836 H   0  0  0  0  0  0  0  0  0  0  0  0  # atno 7974 bound_to 7965
  155.2431  140.0429  157.2977 H   0  0  0  0  0  0  0  0  0  0  0  0  # atno 8008 bound_to 7997
  154.5816  140.2402  155.8016 H   0  0  0  0  0  0  0  0  0  0  0  0  # atno 8009 bound_to 7997
  156.2197  140.2974  155.9930 H   0  0  0  0  0  0  0  0  0  0  0  0  # atno 8010 bound_to 7997
  140.7206  143.3629  151.1928 H   0  0  0  0  0  0  0  0  0  0  0  0  # atno 10167 bound_to 10162
  157.4414  131.1058  151.0139 H   0  0  0  0  0  0  0  0  0  0  0  0  # atno 10718 bound_to 10713
  153.0456  135.6499  154.0825 H   0  0  0  0  0  0  0  0  0  0  0  0  # atno 10763 bound_to 10752
  154.0523  135.2894  155.3340 H   0  0  0  0  0  0  0  0  0  0  0  0  # atno 10764 bound_to 10752
  154.6712  135.5355  153.8206 H   0  0  0  0  0  0  0  0  0  0  0  0  # atno 10765 bound_to 10752
  139.8789  134.8896  156.4002 H   0  0  0  0  0  0  0  0  0  0  0  0  # atno 11005 bound_to 11000
  145.0783  139.2979  143.5796 LP  0  0  0  0  0  0  0  0  0  0  0  0  # atno 17320 bound_to 7965
  146.3523  140.0281  142.8653 LP  0  0  0  0  0  0  0  0  0  0  0  0  # atno 17321 bound_to 7965
  139.7184  143.9262  152.2976 LP  0  0  0  0  0  0  0  0  0  0  0  0  # atno 17342 bound_to 10162
  139.9011  144.6911  150.8664 LP  0  0  0  0  0  0  0  0  0  0  0  0  # atno 17343 bound_to 10162
  157.1001  130.5978  149.5458 LP  0  0  0  0  0  0  0  0  0  0  0  0  # atno 17370 bound_to 10713
  155.9950  130.5016  150.7442 LP  0  0  0  0  0  0  0  0  0  0  0  0  # atno 17371 bound_to 10713
  140.9272  133.7604  155.9979 LP  0  0  0  0  0  0  0  0  0  0  0  0  # atno 17394 bound_to 11000
  140.8372  134.3109  157.5327 LP  0  0  0  0  0  0  0  0  0  0  0  0  # atno 17395 bound_to 11000

$$$$
