AV-unprocessed.smi:271|AV-procd|sdf|2052|dock4
  -GOLD-   2262021293D 1   1.00000     0.00000
 Structure written by MMmdl.
 58 60  0  0  0  0  0  0  0  0  1 V2000
  152.9011  143.5674  159.4810 C   0  0  0  0  0  0  0  0  0  0  0  0
  151.6171  144.1275  158.8459 C   0  0  0  0  0  0  0  0  0  0  0  0
  150.9061  145.0762  159.8231 C   0  0  0  0  0  0  0  0  0  0  0  0
  150.6617  143.0124  158.3770 C   0  0  0  0  0  0  0  0  0  0  0  0
  151.3152  141.9999  157.4151 C   0  0  0  0  0  0  0  0  0  0  0  0
  150.4478  140.8651  157.1010 N   0  0  0  0  0  0  0  0  0  0  0  0
  150.1269  139.9530  158.2003 C   0  0  0  0  0  0  0  0  0  0  0  0
  149.7365  138.5479  157.7163 C   0  0  0  0  0  0  0  0  0  0  0  0
  149.9149  137.5282  158.7602 C   0  0  0  0  0  0  0  0  0  0  0  0
  150.0546  136.7255  159.5816 N   0  0  0  0  0  0  0  0  0  0  0  0
  149.4811  141.1339  156.1842 C   0  0  0  0  0  0  0  0  0  0  0  0
  149.6827  140.8185  154.8765 N   0  0  0  0  0  0  0  0  0  0  0  0
  148.7324  141.0589  153.9687 C   0  0  0  0  0  0  0  0  0  0  0  0
  147.5252  141.5975  154.1480 N   0  0  0  0  0  0  0  0  0  0  0  0
  147.3149  141.9158  155.4569 C   0  0  0  0  0  0  0  0  0  0  0  0
  148.2303  141.7200  156.5298 C   0  0  0  0  0  0  0  0  0  0  0  0
  147.6695  142.1764  157.7172 N   0  0  0  0  0  0  0  0  0  0  0  0
  146.4882  142.6076  157.3682 C   0  0  0  0  0  0  0  0  0  0  0  0
  146.1902  142.4827  156.0306 N   0  0  0  0  0  0  0  0  0  0  0  0
  144.9551  142.8837  155.3789 C   0  0  0  0  0  0  0  0  0  0  0  0
  144.5767  144.3626  155.6388 C   0  0  1  0  0  0  0  0  0  0  0  0
  143.4303  144.8007  154.6965 C   0  0  0  0  0  0  0  0  0  0  0  0
  143.8776  144.8492  153.3574 O   0  0  0  0  0  0  0  0  0  0  0  0
  144.2889  144.6513  157.1392 C   0  0  1  0  0  0  0  0  0  0  0  0
  143.5770  145.9743  157.4288 C   0  0  0  0  0  0  0  0  0  0  0  0
  142.4088  145.5825  158.3333 C   0  0  0  0  0  0  0  0  0  0  0  0
  142.8161  144.3516  158.9073 O   0  0  0  0  0  0  0  0  0  0  0  0
  143.4331  143.6077  157.8700 C   0  0  0  0  0  0  0  0  0  0  0  0
  152.6750  142.9410  160.3443 H   0  0  0  0  0  0  0  0  0  0  0  0
  153.5539  144.3729  159.8187 H   0  0  0  0  0  0  0  0  0  0  0  0
  153.4731  142.9675  158.7739 H   0  0  0  0  0  0  0  0  0  0  0  0
  151.9027  144.7175  157.9740 H   0  0  0  0  0  0  0  0  0  0  0  0
  150.5739  144.5478  160.7174 H   0  0  0  0  0  0  0  0  0  0  0  0
  150.0302  145.5326  159.3615 H   0  0  0  0  0  0  0  0  0  0  0  0
  151.5662  145.8844  160.1395 H   0  0  0  0  0  0  0  0  0  0  0  0
  150.2528  142.4951  159.2457 H   0  0  0  0  0  0  0  0  0  0  0  0
  149.8110  143.4717  157.8723 H   0  0  0  0  0  0  0  0  0  0  0  0
  151.6251  142.5066  156.5020 H   0  0  0  0  0  0  0  0  0  0  0  0
  152.2303  141.6049  157.8554 H   0  0  0  0  0  0  0  0  0  0  0  0
  150.9971  139.8713  158.8525 H   0  0  0  0  0  0  0  0  0  0  0  0
  149.3288  140.3750  158.8127 H   0  0  0  0  0  0  0  0  0  0  0  0
  148.6960  138.5081  157.3959 H   0  0  0  0  0  0  0  0  0  0  0  0
  150.3487  138.2583  156.8620 H   0  0  0  0  0  0  0  0  0  0  0  0
  148.9733  140.7778  152.9541 H   0  0  0  0  0  0  0  0  0  0  0  0
  145.7948  143.0289  158.0817 H   0  0  0  0  0  0  0  0  0  0  0  0
  145.0756  142.7033  154.3102 H   0  0  0  0  0  0  0  0  0  0  0  0
  144.1516  142.2255  155.7109 H   0  0  0  0  0  0  0  0  0  0  0  0
  145.4481  144.9673  155.3816 H   0  0  0  0  0  0  0  0  0  0  0  0
  142.5859  144.1139  154.7570 H   0  0  0  0  0  0  0  0  0  0  0  0
  143.0537  145.7897  154.9532 H   0  0  0  0  0  0  0  0  0  0  0  0
  143.3473  144.2610  152.8415 H   0  0  0  0  0  0  0  0  0  0  0  0
  145.2384  144.7123  157.6718 H   0  0  0  0  0  0  0  0  0  0  0  0
  144.2531  146.6476  157.9576 H   0  0  0  0  0  0  0  0  0  0  0  0
  143.2363  146.5011  156.5378 H   0  0  0  0  0  0  0  0  0  0  0  0
  142.1955  146.3318  159.0959 H   0  0  0  0  0  0  0  0  0  0  0  0
  141.5026  145.4243  157.7463 H   0  0  0  0  0  0  0  0  0  0  0  0
  142.6556  143.1859  157.2332 H   0  0  0  0  0  0  0  0  0  0  0  0
  144.0251  142.7851  158.2703 H   0  0  0  0  0  0  0  0  0  0  0  0
  1  2  1  0  0  0  0
  1 29  1  0  0  0  0
  1 30  1  0  0  0  0
  1 31  1  0  0  0  0
  2  3  1  0  0  0  0
  2  4  1  0  0  0  0
  2 32  1  0  0  0  0
  3 33  1  0  0  0  0
  3 34  1  0  0  0  0
  3 35  1  0  0  0  0
  4  5  1  0  0  0  0
  4 36  1  0  0  0  0
  4 37  1  0  0  0  0
  5  6  1  0  0  0  0
  5 38  1  0  0  0  0
  5 39  1  0  0  0  0
  6  7  1  0  0  0  0
  6 11  1  0  0  0  0
  7  8  1  0  0  0  0
  7 40  1  0  0  0  0
  7 41  1  0  0  0  0
  8  9  1  0  0  0  0
  8 42  1  0  0  0  0
  8 43  1  0  0  0  0
  9 10  3  0  0  0  0
 11 16  1  0  0  0  0
 11 12  2  0  0  0  0
 12 13  1  0  0  0  0
 13 14  2  0  0  0  0
 13 44  1  0  0  0  0
 14 15  1  0  0  0  0
 15 19  1  0  0  0  0
 15 16  2  0  0  0  0
 16 17  1  0  0  0  0
 17 18  2  0  0  0  0
 18 19  1  0  0  0  0
 18 45  1  0  0  0  0
 19 20  1  0  0  0  0
 20 21  1  0  0  0  0
 20 46  1  0  0  0  0
 20 47  1  0  0  0  0
 21 22  1  0  0  0  0
 21 24  1  0  0  0  0
 21 48  1  0  0  0  0
 22 23  1  0  0  0  0
 22 49  1  0  0  0  0
 22 50  1  0  0  0  0
 23 51  1  0  0  0  0
 24 28  1  0  0  0  0
 24 25  1  0  0  0  0
 24 52  1  0  0  0  0
 25 26  1  0  0  0  0
 25 53  1  0  0  0  0
 25 54  1  0  0  0  0
 26 27  1  0  0  0  0
 26 55  1  0  0  0  0
 26 56  1  0  0  0  0
 27 28  1  0  0  0  0
 28 57  1  0  0  0  0
 28 58  1  0  0  0  0
M  END
> <s_m_source_file>
AV-unprocessed.smi

> <i_m_source_file_index>
271

> <i_lp_mmshare_version>
43012

> <i_f3d_flags>
0

> <s_epik_input>
W0NIM11bQ0hdKFtDSDNdKVtDSDJdW0NIMl1OKFtDSDJdW0NIMl1DI04pYyhuW2NIXW4xKWMoYzEyKW5bY0hdbjJbQ0gyXVtDQEhdKFtDSDJdW09IXSlbQ0BASF0zW0NIMl1bQ0gyXU9bQ0gyXTM=

> <s_epik_cmdline>
J2VwaWtfcHl0aG9uJywgJy1waCcsICc3LjAnLCAnLXRuJywgJzgnLCAnLW1hJywgJzIwMCcsICctbWV0YWxfYmluZGluZycsICctaW1hZScsICc8aW5maWxlLm1hZT4nLCAnLW9tYWUnLCAnPG91dGZpbGUubWFlPic=

> <r_lp_tautomer_probability>
1

> <r_epik_Ionization_Penalty>
0.000825874

> <r_epik_Ionization_Penalty_Charging>
0

> <r_epik_Ionization_Penalty_Neutral>
0.000825874

> <r_epik_State_Penalty>
0.000396768

> <r_epik_Charging_Adjusted_Penalty>
0.000396768

> <i_epik_Tot_Q>
0

> <i_epik_Tot_abs_Q>
0

> <r_epik_Metal_State_Penalty>
-0

> <b_epik_Metal_Only>
0

> <s_lp_Force_Field>
OPLS_2005

> <r_lp_Energy>
37.4576

> <b_lp_Chiralities_Consistent>
1

> <s_lp_Variant>
AV-unprocessed.smi:271-4

> <Gold.Version>
5.8.1

> <Gold.Id.Protein>
6NUR|6NUR_protein|mol2

> <Gold.PLP.Fitness>
49.2711

> <Gold.PLP.PLP>
-41.0110

> <Gold.PLP.part.hbond>
-3.5946

> <Gold.PLP.part.metal>
0.0000

> <Gold.PLP.part.buried>
-6.6500

> <Gold.PLP.part.nonpolar>
-31.7068

> <Gold.PLP.part.repulsive>
0.4545

> <Gold.PLP.ligand.clash>
0.0000

> <Gold.PLP.ligand.torsion>
1.1639

> <Gold.PLP.Chemscore.Hbond>
2.1404

> <Gold.PLP.Chemscore.CHOScore>
1.0000

> <Gold.PLP.Chemscore.Metal>
0.0000

> <Gold.Chemscore.Hbonds>
donor molecule, donor type, donor heavy atom, donor atom, acceptor molecule, acceptor atom, score
      L1  H    23    51       P1 10174  1.00
      P1  H  6896  6909       L1    10  1.00
      P1  H  7989  7998       L1    12  0.11
      L1  C    13    44       P1  7957  1.00

> <Gold.PLP.Chemscore.Internal.Correction>
1.1668

> <Gold.Rescore>
     Score         DG    S(hbond)    S(metal)    S(lipo)     H(rot)  DE(clash)    DE(int)     intcor
     11.53     -12.95       2.05        0.00      87.70       3.77       0.22       1.21       ----

> <Gold.Chemscore.Fitness>
11.5252

> <Gold.Chemscore.DG>
-12.9497

> <Gold.Chemscore.ZeroCoef>
-5.4800

> <Gold.Chemscore.Hbond>
2.0527

> <Gold.Chemscore.Metal>
0.0000

> <Gold.Chemscore.Lipo>
87.6967

> <Gold.Chemscore.Internal_Hbond>
0.0000

> <Gold.Chemscore.DEClash>
0.2175

> <Gold.Chemscore.DEInternal>
1.2070

> <Gold.Chemscore.Rot>
3.7683

> <Gold.Chemscore.Internal.Correction>
   9.000000E+99

> <Gold.Chemscore.Hbonds>
donor molecule, donor type, donor heavy atom, donor atom, acceptor molecule, acceptor atom, score
      L1  H    23    51       P1 10174  0.95
      P1  H  6896  6909       L1    10  0.98
      P1  H  7989  7998       L1    12  0.03

> <Gold.Chemscore.Hbond.Weighted>
-6.8560

> <Gold.Chemscore.Metal.Weighted>
-0.0000

> <Gold.Chemscore.Lipo.Weighted>
-10.2605

> <Gold.Chemscore.Internal_Hbond.Weighted>
0.0000

> <Gold.Chemscore.DEClash.Weighted>
0.2175

> <Gold.Chemscore.DEInternal.Weighted>
1.2070

> <Gold.Chemscore.Rot.Weighted>
9.6468

> <Gold.Chemscore.Internal.Correction.Weighted>
   9.000000E+99

> <Gold.Protein.RotatedTorsions>
[ 6907 6896 6895 6894 ] final   87.45 input  -60.11 | X-H torsion
[ 7974 7965 7964 7962 ] final -175.08 input  175.53 | X-H torsion
[ 8008 7997 7996 7995 ] final -103.76 input   59.86 | X-H torsion
[ 10167 10162 10161 10158 ] final   83.50 input  -65.29 | X-H torsion
[ 10718 10713 10712 10709 ] final -110.36 input   66.30 | X-H torsion
[ 10763 10752 10751 10750 ] final  154.09 input  -60.55 | X-H torsion
[ 11005 11000 10999 10996 ] final -145.48 input  -57.11 | X-H torsion

> <Gold.Protein.ActiveResidues>
 VAL166  LYS551  ARG553  GLY616  TRP617  ASP618  TYR619  PRO620  LYS621  CYS622 
 ASP623  PHE694  ASN695  SER759  ASP760  ASP761  ALA762  ILE779  LEU786  VAL792 
 PHE793  MET794  SER795  GLU796  ALA797  LYS798  CYS799  TRP800  GLU811  SER814 

> <Gold.Protein.RotatedAtoms>
  152.5411  134.2274  159.8811 H   0  0  0  0  0  0  0  0  0  0  0  0  # atno 6907 bound_to 6896
  151.2248  133.4476  159.2609 H   0  0  0  0  0  0  0  0  0  0  0  0  # atno 6908 bound_to 6896
  151.0771  134.9848  159.8393 H   0  0  0  0  0  0  0  0  0  0  0  0  # atno 6909 bound_to 6896
  144.7129  140.1374  143.6394 H   0  0  0  0  0  0  0  0  0  0  0  0  # atno 7974 bound_to 7965
  154.8756  140.0421  157.1751 H   0  0  0  0  0  0  0  0  0  0  0  0  # atno 8008 bound_to 7997
  154.8693  140.2956  155.5470 H   0  0  0  0  0  0  0  0  0  0  0  0  # atno 8009 bound_to 7997
  156.2999  140.2432  156.3679 H   0  0  0  0  0  0  0  0  0  0  0  0  # atno 8010 bound_to 7997
  139.9178  144.6232  150.8471 H   0  0  0  0  0  0  0  0  0  0  0  0  # atno 10167 bound_to 10162
  156.0587  130.5811  150.8227 H   0  0  0  0  0  0  0  0  0  0  0  0  # atno 10718 bound_to 10713
  154.1467  135.2817  155.3146 H   0  0  0  0  0  0  0  0  0  0  0  0  # atno 10763 bound_to 10752
  154.6247  135.5455  153.7617 H   0  0  0  0  0  0  0  0  0  0  0  0  # atno 10764 bound_to 10752
  153.0234  135.6448  154.1612 H   0  0  0  0  0  0  0  0  0  0  0  0  # atno 10765 bound_to 10752
  140.7918  134.2959  157.5010 H   0  0  0  0  0  0  0  0  0  0  0  0  # atno 11005 bound_to 11000
  145.9232  139.2559  143.1369 LP  0  0  0  0  0  0  0  0  0  0  0  0  # atno 17320 bound_to 7965
  145.9599  140.8844  143.0216 LP  0  0  0  0  0  0  0  0  0  0  0  0  # atno 17321 bound_to 7965
  140.7670  143.3319  151.2392 LP  0  0  0  0  0  0  0  0  0  0  0  0  # atno 17342 bound_to 10162
  139.6887  143.9728  152.2848 LP  0  0  0  0  0  0  0  0  0  0  0  0  # atno 17343 bound_to 10162
  157.5578  131.0945  150.9603 LP  0  0  0  0  0  0  0  0  0  0  0  0  # atno 17370 bound_to 10713
  156.9848  130.5540  149.5299 LP  0  0  0  0  0  0  0  0  0  0  0  0  # atno 17371 bound_to 10713
  139.8730  134.9379  156.3700 LP  0  0  0  0  0  0  0  0  0  0  0  0  # atno 17394 bound_to 11000
  140.9382  133.7533  156.0112 LP  0  0  0  0  0  0  0  0  0  0  0  0  # atno 17395 bound_to 11000

$$$$
