AV-unprocessed.smi:2550|AV-procd|sdf|10012|dock9
  -GOLD-   2272014 53D 1   1.00000     0.00000
 Structure written by MMmdl.
 27 28  0  0  0  0  0  0  0  0  1 V2000
  148.8319  141.6955  154.5906 C   0  0  0  0  0  0  0  0  0  0  0  0
  149.6459  140.4761  155.0537 C   0  0  0  0  0  0  0  0  0  0  0  0
  148.7436  139.3111  155.4917 C   0  0  0  0  0  0  0  0  0  0  0  0
  150.3929  140.0271  153.9381 O   0  0  0  0  0  0  0  0  0  0  0  0
  150.6434  140.8443  156.1261 C   0  0  0  0  0  0  0  0  0  0  0  0
  150.8075  142.0131  156.8201 C   0  0  0  0  0  0  0  0  0  0  0  0
  151.8616  141.7433  157.6661 N   0  0  0  0  0  0  0  0  0  0  0  0
  152.5061  142.6437  158.5753 C   0  0  0  0  0  0  0  0  0  0  0  0
  152.4389  142.4259  160.0893 C   0  0  0  0  0  0  0  0  0  0  0  0
  152.3908  143.8727  160.2150 N   0  0  0  0  0  0  0  0  0  0  0  0
  151.9047  144.0220  158.8540 C   0  0  0  0  0  0  0  0  0  0  0  0
  152.3515  140.4975  157.4691 N   0  0  0  0  0  0  0  0  0  0  0  0
  151.6144  139.9389  156.5615 N   0  0  0  0  0  0  0  0  0  0  0  0
  148.2336  142.1030  155.4061 H   0  0  0  0  0  0  0  0  0  0  0  0
  148.1484  141.4342  153.7820 H   0  0  0  0  0  0  0  0  0  0  0  0
  149.4826  142.4929  154.2294 H   0  0  0  0  0  0  0  0  0  0  0  0
  148.1399  139.5838  156.3580 H   0  0  0  0  0  0  0  0  0  0  0  0
  149.3325  138.4342  155.7637 H   0  0  0  0  0  0  0  0  0  0  0  0
  148.0592  139.0167  154.6953 H   0  0  0  0  0  0  0  0  0  0  0  0
  149.8358  140.0514  153.1754 H   0  0  0  0  0  0  0  0  0  0  0  0
  150.2917  142.9613  156.7876 H   0  0  0  0  0  0  0  0  0  0  0  0
  153.5412  142.7293  158.2374 H   0  0  0  0  0  0  0  0  0  0  0  0
  151.5196  141.9537  160.4391 H   0  0  0  0  0  0  0  0  0  0  0  0
  153.3331  141.9720  160.5172 H   0  0  0  0  0  0  0  0  0  0  0  0
  151.7143  144.1774  160.9006 H   0  0  0  0  0  0  0  0  0  0  0  0
  152.3742  144.8361  158.3011 H   0  0  0  0  0  0  0  0  0  0  0  0
  150.8151  144.0563  158.8077 H   0  0  0  0  0  0  0  0  0  0  0  0
  1  2  1  0  0  0  0
  1 14  1  0  0  0  0
  1 15  1  0  0  0  0
  1 16  1  0  0  0  0
  2  3  1  0  0  0  0
  2  4  1  0  0  0  0
  2  5  1  0  0  0  0
  3 17  1  0  0  0  0
  3 18  1  0  0  0  0
  3 19  1  0  0  0  0
  4 20  1  0  0  0  0
  5 13  1  0  0  0  0
  5  6  2  0  0  0  0
  6  7  1  0  0  0  0
  6 21  1  0  0  0  0
  7  8  1  0  0  0  0
  7 12  1  0  0  0  0
  8 11  1  0  0  0  0
  8  9  1  0  0  0  0
  8 22  1  0  0  0  0
  9 10  1  0  0  0  0
  9 23  1  0  0  0  0
  9 24  1  0  0  0  0
 10 11  1  0  0  0  0
 10 25  1  0  0  0  0
 11 26  1  0  0  0  0
 11 27  1  0  0  0  0
 12 13  2  0  0  0  0
M  END
> <s_m_source_file>
AV-unprocessed.smi

> <i_m_source_file_index>
2550

> <i_lp_mmshare_version>
43012

> <i_f3d_flags>
0

> <s_epik_input>
W0NIM11DKFtDSDNdKShbT0hdKWMxW2NIXW4obm4xKVtDSF0yW0NIMl1bTkhdW0NIMl0y

> <s_epik_cmdline>
J2VwaWtfcHl0aG9uJywgJy1waCcsICc3LjAnLCAnLXRuJywgJzgnLCAnLW1hJywgJzIwMCcsICctbWV0YWxfYmluZGluZycsICctaW1hZScsICc8aW5maWxlLm1hZT4nLCAnLW9tYWUnLCAnPG91dGZpbGUubWFlPic=

> <r_lp_tautomer_probability>
1

> <r_epik_Ionization_Penalty>
0.705036

> <r_epik_Ionization_Penalty_Charging>
0

> <r_epik_Ionization_Penalty_Neutral>
0.705036

> <r_epik_State_Penalty>
0.727806

> <r_epik_Charging_Adjusted_Penalty>
0.727806

> <i_epik_Tot_Q>
0

> <i_epik_Tot_abs_Q>
0

> <r_epik_Metal_State_Penalty>
0.727613

> <b_epik_Metal_Only>
0

> <s_lp_Force_Field>
OPLS_2005

> <r_lp_Energy>
8.86137

> <b_lp_Chiralities_Consistent>
1

> <s_lp_Variant>
AV-unprocessed.smi:2550-2

> <Gold.Version>
5.8.1

> <Gold.Id.Protein>
6NUR|6NUR_protein|mol2

> <Gold.PLP.Fitness>
35.6726

> <Gold.PLP.PLP>
-25.4506

> <Gold.PLP.part.hbond>
-2.6079

> <Gold.PLP.part.metal>
0.0000

> <Gold.PLP.part.buried>
-1.8264

> <Gold.PLP.part.nonpolar>
-19.5994

> <Gold.PLP.part.repulsive>
0.0000

> <Gold.PLP.ligand.clash>
0.0000

> <Gold.PLP.ligand.torsion>
0.2320

> <Gold.PLP.Chemscore.Hbond>
2.4659

> <Gold.PLP.Chemscore.CHOScore>
1.0000

> <Gold.PLP.Chemscore.Metal>
0.0000

> <Gold.Chemscore.Hbonds>
donor molecule, donor type, donor heavy atom, donor atom, acceptor molecule, acceptor atom, score
      L1  H     4    20       P1  7957  0.99
      P1  H  7989  7998       L1     4  1.00
      P1  H  7997  8008       L1    12  0.48
      L1  C     6    21       P1  8028  1.00

> <Gold.PLP.Chemscore.Internal.Correction>
0.2882

> <Gold.Rescore>
     Score         DG    S(hbond)    S(metal)    S(lipo)     H(rot)  DE(clash)    DE(int)     intcor
     13.80     -14.04       1.70        0.00      62.42       1.73       0.09       0.15       ----

> <Gold.Chemscore.Fitness>
13.7967

> <Gold.Chemscore.DG>
-14.0422

> <Gold.Chemscore.ZeroCoef>
-5.4800

> <Gold.Chemscore.Hbond>
1.7024

> <Gold.Chemscore.Metal>
0.0000

> <Gold.Chemscore.Lipo>
62.4237

> <Gold.Chemscore.Internal_Hbond>
0.0000

> <Gold.Chemscore.DEClash>
0.0939

> <Gold.Chemscore.DEInternal>
0.1516

> <Gold.Chemscore.Rot>
1.7295

> <Gold.Chemscore.Internal.Correction>
   9.000000E+99

> <Gold.Chemscore.Hbonds>
donor molecule, donor type, donor heavy atom, donor atom, acceptor molecule, acceptor atom, score
      L1  H     4    20       P1  7957  0.88
      P1  H  7989  7998       L1     4  0.30
      P1  H  7997  8008       L1    12  0.14

> <Gold.Chemscore.Hbond.Weighted>
-5.6861

> <Gold.Chemscore.Metal.Weighted>
-0.0000

> <Gold.Chemscore.Lipo.Weighted>
-7.3036

> <Gold.Chemscore.Internal_Hbond.Weighted>
0.0000

> <Gold.Chemscore.DEClash.Weighted>
0.0939

> <Gold.Chemscore.DEInternal.Weighted>
0.1516

> <Gold.Chemscore.Rot.Weighted>
4.4275

> <Gold.Chemscore.Internal.Correction.Weighted>
   9.000000E+99

> <Gold.Protein.RotatedTorsions>
[ 6907 6896 6895 6894 ] final  -87.69 input  -60.11 | X-H torsion
[ 7974 7965 7964 7962 ] final   36.70 input  175.53 | X-H torsion
[ 8008 7997 7996 7995 ] final  -61.20 input   59.86 | X-H torsion
[ 10167 10162 10161 10158 ] final   47.47 input  -65.29 | X-H torsion
[ 10718 10713 10712 10709 ] final -143.51 input   66.30 | X-H torsion
[ 10763 10752 10751 10750 ] final  122.10 input  -60.55 | X-H torsion
[ 11005 11000 10999 10996 ] final    5.35 input  -57.11 | X-H torsion

> <Gold.Protein.ActiveResidues>
 VAL166  LYS551  ARG553  GLY616  TRP617  ASP618  TYR619  PRO620  LYS621  CYS622 
 ASP623  PHE694  ASN695  SER759  ASP760  ASP761  ALA762  ILE779  LEU786  VAL792 
 PHE793  MET794  SER795  GLU796  ALA797  LYS798  CYS799  TRP800  GLU811  SER814 

> <Gold.Protein.RotatedAtoms>
  150.6867  134.2857  159.4645 H   0  0  0  0  0  0  0  0  0  0  0  0  # atno 6907 bound_to 6896
  152.0766  134.9496  160.0583 H   0  0  0  0  0  0  0  0  0  0  0  0  # atno 6908 bound_to 6896
  152.0865  133.4144  159.4561 H   0  0  0  0  0  0  0  0  0  0  0  0  # atno 6909 bound_to 6896
  146.1192  139.5985  142.9301 H   0  0  0  0  0  0  0  0  0  0  0  0  # atno 7974 bound_to 7965
  154.4436  140.1023  156.6394 H   0  0  0  0  0  0  0  0  0  0  0  0  # atno 8008 bound_to 7997
  155.5518  140.3486  155.4452 H   0  0  0  0  0  0  0  0  0  0  0  0  # atno 8009 bound_to 7997
  156.0523  140.1307  157.0025 H   0  0  0  0  0  0  0  0  0  0  0  0  # atno 8010 bound_to 7997
  140.3033  144.2908  150.6214 H   0  0  0  0  0  0  0  0  0  0  0  0  # atno 10167 bound_to 10162
  156.3589  130.7727  151.1892 H   0  0  0  0  0  0  0  0  0  0  0  0  # atno 10718 bound_to 10713
  153.6245  135.3407  155.3021 H   0  0  0  0  0  0  0  0  0  0  0  0  # atno 10763 bound_to 10752
  154.8593  135.4281  154.2172 H   0  0  0  0  0  0  0  0  0  0  0  0  # atno 10764 bound_to 10752
  153.3053  135.7027  153.7238 H   0  0  0  0  0  0  0  0  0  0  0  0  # atno 10765 bound_to 10752
  140.5717  134.0096  155.8011 H   0  0  0  0  0  0  0  0  0  0  0  0  # atno 11005 bound_to 11000
  145.5503  141.0414  143.2282 LP  0  0  0  0  0  0  0  0  0  0  0  0  # atno 17320 bound_to 7965
  144.7581  139.7024  143.7246 LP  0  0  0  0  0  0  0  0  0  0  0  0  # atno 17321 bound_to 7965
  140.5632  143.2189  151.7729 LP  0  0  0  0  0  0  0  0  0  0  0  0  # atno 17342 bound_to 10162
  139.4910  144.4320  151.9861 LP  0  0  0  0  0  0  0  0  0  0  0  0  # atno 17343 bound_to 10162
  157.7471  131.0406  150.4605 LP  0  0  0  0  0  0  0  0  0  0  0  0  # atno 17370 bound_to 10713
  156.4813  130.4074  149.6460 LP  0  0  0  0  0  0  0  0  0  0  0  0  # atno 17371 bound_to 10713
  141.1052  133.9705  157.3009 LP  0  0  0  0  0  0  0  0  0  0  0  0  # atno 17394 bound_to 11000
  139.9359  135.0196  156.8553 LP  0  0  0  0  0  0  0  0  0  0  0  0  # atno 17395 bound_to 11000

$$$$
