AV-unprocessed.smi:37|AV-procd|sdf|306|dock6
  -GOLD-   2262016113D 1   1.00000     0.00000
 Structure written by MMmdl.
 44 45  0  0  0  0  0  0  0  0  1 V2000
  147.3248  136.3454  162.3016 C   0  0  0  0  0  0  0  0  0  0  0  0
  146.9626  135.5025  161.0700 C   0  0  0  0  0  0  0  0  0  0  0  0
  147.7735  135.8608  159.8231 C   0  0  0  0  0  0  0  0  0  0  0  0
  148.4220  135.0247  159.1916 O   0  0  0  0  0  0  0  0  0  0  0  0
  147.6880  137.1651  159.5314 O   0  0  0  0  0  0  0  0  0  0  0  0
  148.2707  137.6622  158.3384 C   0  0  0  0  0  0  0  0  0  0  0  0
  149.6254  138.3324  158.6275 C   0  0  1  0  0  0  0  0  0  0  0  0
  150.6027  137.3191  158.8750 O   0  0  0  0  0  0  0  0  0  0  0  0
  151.8298  137.6768  158.3118 C   0  0  2  0  0  0  0  0  0  0  0  0
  152.6655  138.4635  159.3113 N   0  0  0  0  0  0  0  0  0  0  0  0
  152.8214  139.8449  159.2396 C   0  0  0  0  0  0  0  0  0  0  0  0
  153.5386  140.5564  160.1414 C   0  0  0  0  0  0  0  0  0  0  0  0
  153.6428  141.8890  160.0024 F   0  0  0  0  0  0  0  0  0  0  0  0
  154.1829  139.8949  161.2709 C   0  0  0  0  0  0  0  0  0  0  0  0
  154.8641  140.4511  162.1298 O   0  0  0  0  0  0  0  0  0  0  0  0
  153.9599  138.5173  161.3335 N   0  0  0  0  0  0  0  0  0  0  0  0
  153.2138  137.7742  160.4178 C   0  0  0  0  0  0  0  0  0  0  0  0
  153.0516  136.5679  160.5974 O   0  0  0  0  0  0  0  0  0  0  0  0
  151.4720  138.5198  157.0793 C   0  0  1  0  0  0  0  0  0  0  0  0
  151.0939  137.2924  155.5508 Br  0  0  0  0  0  0  0  0  0  0  0  0
  150.2166  139.2506  157.5368 C   0  0  1  0  0  0  0  0  0  0  0  0
  149.3608  139.5567  156.4410 O   0  0  0  0  0  0  0  0  0  0  0  0
  149.8434  140.1845  155.3532 C   0  0  0  0  0  0  0  0  0  0  0  0
  151.0011  140.5739  155.2001 O   0  0  0  0  0  0  0  0  0  0  0  0
  148.7879  140.3802  154.2667 C   0  0  0  0  0  0  0  0  0  0  0  0
  148.3738  141.8497  154.1099 C   0  0  0  0  0  0  0  0  0  0  0  0
  154.3634  138.0197  162.1141 H   0  0  0  0  0  0  0  0  0  0  0  0
  146.7161  136.0539  163.1576 H   0  0  0  0  0  0  0  0  0  0  0  0
  147.1533  137.4074  162.1216 H   0  0  0  0  0  0  0  0  0  0  0  0
  148.3706  136.2129  162.5811 H   0  0  0  0  0  0  0  0  0  0  0  0
  147.1156  134.4456  161.2895 H   0  0  0  0  0  0  0  0  0  0  0  0
  145.9038  135.6257  160.8408 H   0  0  0  0  0  0  0  0  0  0  0  0
  148.4086  136.8479  157.6258 H   0  0  0  0  0  0  0  0  0  0  0  0
  147.5912  138.3798  157.8771 H   0  0  0  0  0  0  0  0  0  0  0  0
  149.5057  138.9273  159.5328 H   0  0  0  0  0  0  0  0  0  0  0  0
  152.4289  136.7915  158.0906 H   0  0  0  0  0  0  0  0  0  0  0  0
  152.3516  140.4088  158.4492 H   0  0  0  0  0  0  0  0  0  0  0  0
  152.2660  139.1969  156.7684 H   0  0  0  0  0  0  0  0  0  0  0  0
  150.5440  140.1741  158.0179 H   0  0  0  0  0  0  0  0  0  0  0  0
  149.1866  140.0086  153.3223 H   0  0  0  0  0  0  0  0  0  0  0  0
  147.9174  139.7688  154.5048 H   0  0  0  0  0  0  0  0  0  0  0  0
  147.6871  141.9679  153.2717 H   0  0  0  0  0  0  0  0  0  0  0  0
  149.2366  142.4898  153.9227 H   0  0  0  0  0  0  0  0  0  0  0  0
  147.8670  142.2173  155.0027 H   0  0  0  0  0  0  0  0  0  0  0  0
  1  2  1  0  0  0  0
  1 28  1  0  0  0  0
  1 29  1  0  0  0  0
  1 30  1  0  0  0  0
  2  3  1  0  0  0  0
  2 31  1  0  0  0  0
  2 32  1  0  0  0  0
  3  4  2  0  0  0  0
  3  5  1  0  0  0  0
  5  6  1  0  0  0  0
  6  7  1  0  0  0  0
  6 33  1  0  0  0  0
  6 34  1  0  0  0  0
  7 21  1  0  0  0  0
  7  8  1  0  0  0  0
  7 35  1  0  0  0  0
  8  9  1  0  0  0  0
  9 10  1  0  0  0  0
  9 19  1  0  0  0  0
  9 36  1  0  0  0  0
 10 17  1  0  0  0  0
 10 11  1  0  0  0  0
 11 12  2  0  0  0  0
 11 37  1  0  0  0  0
 12 13  1  0  0  0  0
 12 14  1  0  0  0  0
 14 15  2  0  0  0  0
 14 16  1  0  0  0  0
 16 27  1  0  0  0  0
 16 17  1  0  0  0  0
 17 18  2  0  0  0  0
 19 20  1  0  0  0  0
 19 21  1  0  0  0  0
 19 38  1  0  0  0  0
 21 22  1  0  0  0  0
 21 39  1  0  0  0  0
 22 23  1  0  0  0  0
 23 24  2  0  0  0  0
 23 25  1  0  0  0  0
 25 26  1  0  0  0  0
 25 40  1  0  0  0  0
 25 41  1  0  0  0  0
 26 42  1  0  0  0  0
 26 43  1  0  0  0  0
 26 44  1  0  0  0  0
M  END
> <s_m_source_file>
AV-unprocessed.smi

> <i_m_source_file_index>
37

> <i_lp_mmshare_version>
43012

> <i_f3d_flags>
0

> <s_epik_input>
W0NIM11bQ0gyXUMoPU8pT1tDSDJdW0NAQEhdMU9bQ0BASF0objJbY0hdYyhGKWMoPU8pW25IXWMyPU8pW0NAQEhdKEJyKVtDQEhdMU9DKD1PKVtDSDJdW0NIM10=

> <s_epik_cmdline>
J2VwaWtfcHl0aG9uJywgJy1waCcsICc3LjAnLCAnLXRuJywgJzgnLCAnLW1hJywgJzIwMCcsICctbWV0YWxfYmluZGluZycsICctaW1hZScsICc8aW5maWxlLm1hZT4nLCAnLW9tYWUnLCAnPG91dGZpbGUubWFlPic=

> <r_lp_tautomer_probability>
0.999537

> <r_epik_Ionization_Penalty>
0.104106

> <r_epik_Ionization_Penalty_Charging>
0.104106

> <r_epik_Ionization_Penalty_Neutral>
3.94675e-16

> <r_epik_State_Penalty>
0.0940182

> <r_epik_Charging_Adjusted_Penalty>
0.198124

> <i_epik_Tot_Q>
0

> <i_epik_Tot_abs_Q>
0

> <r_epik_Metal_State_Penalty>
3.05314

> <b_epik_Metal_Only>
0

> <s_epik_Chemistry_Notes>
This compound has an ester and may undergo hydrolysis at high or low pH. This compound contains an acetal/aminal-like group ( X-CH(R)-Y where X, Y are N, S, or O) that may be acid/base labile, releasing an aldehyde.

> <s_lp_Force_Field>
OPLS_2005

> <r_lp_Energy>
23.6922

> <b_lp_Chiralities_Consistent>
1

> <s_lp_Variant>
AV-unprocessed.smi:37-4

> <Gold.Version>
5.8.1

> <Gold.Id.Protein>
6NUR|6NUR_protein|mol2

> <Gold.PLP.Fitness>
47.7938

> <Gold.PLP.PLP>
-40.8752

> <Gold.PLP.part.hbond>
-4.1049

> <Gold.PLP.part.metal>
0.0000

> <Gold.PLP.part.buried>
-6.9816

> <Gold.PLP.part.nonpolar>
-30.1286

> <Gold.PLP.part.repulsive>
0.0496

> <Gold.PLP.ligand.clash>
0.0000

> <Gold.PLP.ligand.torsion>
0.8906

> <Gold.PLP.Chemscore.Hbond>
2.8533

> <Gold.PLP.Chemscore.CHOScore>
0.0000

> <Gold.PLP.Chemscore.Metal>
0.0000

> <Gold.Chemscore.Hbonds>
donor molecule, donor type, donor heavy atom, donor atom, acceptor molecule, acceptor atom, score
      P1  H  6896  6908       L1     4  0.21
      P1  H  6896  6909       L1    18  1.00
      P1  H  7989  7998       L1    24  0.94

> <Gold.PLP.Chemscore.Internal.Correction>
0.1399

> <Gold.Rescore>
     Score         DG    S(hbond)    S(metal)    S(lipo)     H(rot)  DE(clash)    DE(int)     intcor
     11.75     -14.20       2.99        0.00      62.17       3.33       0.03       2.43       ----

> <Gold.Chemscore.Fitness>
11.7459

> <Gold.Chemscore.DG>
-14.1986

> <Gold.Chemscore.ZeroCoef>
-5.4800

> <Gold.Chemscore.Hbond>
2.9852

> <Gold.Chemscore.Metal>
0.0000

> <Gold.Chemscore.Lipo>
62.1669

> <Gold.Chemscore.Internal_Hbond>
0.0000

> <Gold.Chemscore.DEClash>
0.0272

> <Gold.Chemscore.DEInternal>
2.4254

> <Gold.Chemscore.Rot>
3.3303

> <Gold.Chemscore.Internal.Correction>
   9.000000E+99

> <Gold.Chemscore.Hbonds>
donor molecule, donor type, donor heavy atom, donor atom, acceptor molecule, acceptor atom, score
      P1  H  6896  6908       L1     4  0.22
      P1  H  6896  6909       L1    18  1.00
      P1  H  7989  7998       L1    24  0.89

> <Gold.Chemscore.Hbond.Weighted>
-9.9706

> <Gold.Chemscore.Metal.Weighted>
-0.0000

> <Gold.Chemscore.Lipo.Weighted>
-7.2735

> <Gold.Chemscore.Internal_Hbond.Weighted>
0.0000

> <Gold.Chemscore.DEClash.Weighted>
0.0272

> <Gold.Chemscore.DEInternal.Weighted>
2.4254

> <Gold.Chemscore.Rot.Weighted>
8.5256

> <Gold.Chemscore.Internal.Correction.Weighted>
   9.000000E+99

> <Gold.Protein.RotatedTorsions>
[ 6907 6896 6895 6894 ] final  148.50 input  -60.11 | X-H torsion
[ 7974 7965 7964 7962 ] final -170.78 input  175.53 | X-H torsion
[ 8008 7997 7996 7995 ] final -131.93 input   59.86 | X-H torsion
[ 10167 10162 10161 10158 ] final  -54.53 input  -65.29 | X-H torsion
[ 10718 10713 10712 10709 ] final -139.34 input   66.30 | X-H torsion
[ 10763 10752 10751 10750 ] final  -10.38 input  -60.55 | X-H torsion
[ 11005 11000 10999 10996 ] final  174.79 input  -57.11 | X-H torsion

> <Gold.Protein.ActiveResidues>
 VAL166  LYS551  ARG553  GLY616  TRP617  ASP618  TYR619  PRO620  LYS621  CYS622 
 ASP623  PHE694  ASN695  SER759  ASP760  ASP761  ALA762  ILE779  LEU786  VAL792 
 PHE793  MET794  SER795  GLU796  ALA797  LYS798  CYS799  TRP800  GLU811  SER814 

> <Gold.Protein.RotatedAtoms>
  152.1407  133.4462  159.4764 H   0  0  0  0  0  0  0  0  0  0  0  0  # atno 6907 bound_to 6896
  150.6886  134.2309  159.4443 H   0  0  0  0  0  0  0  0  0  0  0  0  # atno 6908 bound_to 6896
  152.0200  134.9828  160.0621 H   0  0  0  0  0  0  0  0  0  0  0  0  # atno 6909 bound_to 6896
  144.7165  140.2021  143.6337 H   0  0  0  0  0  0  0  0  0  0  0  0  # atno 7974 bound_to 7965
  155.3205  140.0462  157.3039 H   0  0  0  0  0  0  0  0  0  0  0  0  # atno 8008 bound_to 7997
  154.5382  140.2279  155.8652 H   0  0  0  0  0  0  0  0  0  0  0  0  # atno 8009 bound_to 7997
  156.1856  140.3063  155.9238 H   0  0  0  0  0  0  0  0  0  0  0  0  # atno 8010 bound_to 7997
  140.6425  143.2516  151.4949 H   0  0  0  0  0  0  0  0  0  0  0  0  # atno 10167 bound_to 10162
  156.3096  130.7474  151.1547 H   0  0  0  0  0  0  0  0  0  0  0  0  # atno 10718 bound_to 10713
  153.4684  135.7016  153.6008 H   0  0  0  0  0  0  0  0  0  0  0  0  # atno 10763 bound_to 10752
  153.4272  135.3811  155.2148 H   0  0  0  0  0  0  0  0  0  0  0  0  # atno 10764 bound_to 10752
  154.8726  135.3942  154.4119 H   0  0  0  0  0  0  0  0  0  0  0  0  # atno 10765 bound_to 10752
  140.3552  134.7160  157.4294 H   0  0  0  0  0  0  0  0  0  0  0  0  # atno 11005 bound_to 11000
  145.8670  139.2252  143.1683 LP  0  0  0  0  0  0  0  0  0  0  0  0  # atno 17320 bound_to 7965
  146.0120  140.8426  142.9966 LP  0  0  0  0  0  0  0  0  0  0  0  0  # atno 17321 bound_to 7965
  139.5635  144.2099  152.1728 LP  0  0  0  0  0  0  0  0  0  0  0  0  # atno 17342 bound_to 10162
  140.1374  144.5233  150.6765 LP  0  0  0  0  0  0  0  0  0  0  0  0  # atno 17343 bound_to 10162
  157.7388  131.0537  150.5273 LP  0  0  0  0  0  0  0  0  0  0  0  0  # atno 17370 bound_to 10713
  156.5411  130.4208  149.6153 LP  0  0  0  0  0  0  0  0  0  0  0  0  # atno 17371 bound_to 10713
  140.0671  134.5915  155.8683 LP  0  0  0  0  0  0  0  0  0  0  0  0  # atno 17394 bound_to 11000
  141.2000  133.6610  156.5876 LP  0  0  0  0  0  0  0  0  0  0  0  0  # atno 17395 bound_to 11000

$$$$
