AV-unprocessed.smi:2510|AV-procd|sdf|9878|dock4
  -GOLD-   2272013513D 1   1.00000     0.00000
 Structure written by MMmdl.
 48 49  0  0  0  0  0  0  0  0  1 V2000
  149.2936  141.5257  154.6811 C   0  0  0  0  0  0  0  0  0  0  0  0
  149.2506  140.7102  155.9832 C   0  0  0  0  0  0  0  0  0  0  0  0
  150.6075  140.5792  156.7260 C   0  0  0  0  0  0  0  0  0  0  0  0
  151.0355  141.9855  157.2132 C   0  0  0  0  0  0  0  0  0  0  0  0
  150.1132  142.6242  158.2654 C   0  0  0  0  0  0  0  0  0  0  0  0
  150.7512  139.4700  157.8145 C   0  0  1  0  0  0  0  0  0  0  0  0
  149.8448  138.3387  157.6302 N   0  0  0  0  0  0  0  0  0  0  0  0
  149.8288  137.2240  158.3754 C   0  0  0  0  0  0  0  0  0  0  0  0
  150.6674  136.9723  159.2397 O   0  0  0  0  0  0  0  0  0  0  0  0
  148.6638  136.2645  158.1251 C   0  0  0  0  0  0  0  0  0  0  0  0
  147.9426  135.9727  159.4042 C   0  0  0  0  0  0  0  0  0  0  0  0
  147.5688  134.7893  159.9783 C   0  0  0  0  0  0  0  0  0  0  0  0
  146.8587  135.1752  161.1520 C   0  0  0  0  0  0  0  0  0  0  0  0
  146.1876  134.2905  162.1601 C   0  0  0  0  0  0  0  0  0  0  0  0
  146.8152  136.4900  161.3074 N   0  0  0  0  0  0  0  0  0  0  0  0
  147.4798  136.9654  160.2379 N   0  0  0  0  0  0  0  0  0  0  0  0
  152.1588  139.1570  157.2763 C   0  0  1  0  0  0  0  0  0  0  0  0
  152.7198  137.7363  157.2998 C   0  0  0  0  0  0  0  0  0  0  0  0
  151.7234  139.8203  155.9565 C   0  0  1  0  0  0  0  0  0  0  0  0
  151.1825  138.8845  155.0289 O   0  0  0  0  0  0  0  0  0  0  0  0
  152.1703  138.1127  154.3691 C   0  0  0  0  0  0  0  0  0  0  0  0
  147.5948  137.9570  160.0831 H   0  0  0  0  0  0  0  0  0  0  0  0
  148.3389  141.4584  154.1597 H   0  0  0  0  0  0  0  0  0  0  0  0
  150.0635  141.1550  154.0044 H   0  0  0  0  0  0  0  0  0  0  0  0
  149.4826  142.5825  154.8659 H   0  0  0  0  0  0  0  0  0  0  0  0
  148.4826  141.1147  156.6415 H   0  0  0  0  0  0  0  0  0  0  0  0
  148.8736  139.7265  155.7074 H   0  0  0  0  0  0  0  0  0  0  0  0
  152.0318  141.9365  157.6521 H   0  0  0  0  0  0  0  0  0  0  0  0
  151.1497  142.6695  156.3730 H   0  0  0  0  0  0  0  0  0  0  0  0
  150.5524  143.5463  158.6465 H   0  0  0  0  0  0  0  0  0  0  0  0
  149.9517  141.9621  159.1158 H   0  0  0  0  0  0  0  0  0  0  0  0
  149.1399  142.8833  157.8502 H   0  0  0  0  0  0  0  0  0  0  0  0
  150.7758  139.8458  158.8383 H   0  0  0  0  0  0  0  0  0  0  0  0
  149.1121  138.4571  156.9453 H   0  0  0  0  0  0  0  0  0  0  0  0
  147.9814  136.7124  157.4022 H   0  0  0  0  0  0  0  0  0  0  0  0
  149.0350  135.3407  157.6794 H   0  0  0  0  0  0  0  0  0  0  0  0
  147.7515  133.7942  159.6006 H   0  0  0  0  0  0  0  0  0  0  0  0
  146.3256  133.2376  161.9135 H   0  0  0  0  0  0  0  0  0  0  0  0
  145.1151  134.4833  162.1970 H   0  0  0  0  0  0  0  0  0  0  0  0
  146.5918  134.4540  163.1591 H   0  0  0  0  0  0  0  0  0  0  0  0
  152.8647  139.8224  157.7756 H   0  0  0  0  0  0  0  0  0  0  0  0
  152.0951  137.0386  156.7419 H   0  0  0  0  0  0  0  0  0  0  0  0
  152.7965  137.3627  158.3209 H   0  0  0  0  0  0  0  0  0  0  0  0
  153.7180  137.7018  156.8635 H   0  0  0  0  0  0  0  0  0  0  0  0
  152.4678  140.4877  155.5178 H   0  0  0  0  0  0  0  0  0  0  0  0
  151.6876  137.3954  153.7055 H   0  0  0  0  0  0  0  0  0  0  0  0
  152.7863  137.5580  155.0767 H   0  0  0  0  0  0  0  0  0  0  0  0
  152.8193  138.7465  153.7637 H   0  0  0  0  0  0  0  0  0  0  0  0
  1  2  1  0  0  0  0
  1 23  1  0  0  0  0
  1 24  1  0  0  0  0
  1 25  1  0  0  0  0
  2  3  1  0  0  0  0
  2 26  1  0  0  0  0
  2 27  1  0  0  0  0
  3 19  1  0  0  0  0
  3  4  1  0  0  0  0
  3  6  1  0  0  0  0
  4  5  1  0  0  0  0
  4 28  1  0  0  0  0
  4 29  1  0  0  0  0
  5 30  1  0  0  0  0
  5 31  1  0  0  0  0
  5 32  1  0  0  0  0
  6  7  1  0  0  0  0
  6 17  1  0  0  0  0
  6 33  1  0  0  0  0
  7  8  1  0  0  0  0
  7 34  1  0  0  0  0
  8  9  2  0  0  0  0
  8 10  1  0  0  0  0
 10 35  1  0  0  0  0
 10 36  1  0  0  0  0
 10 11  1  0  0  0  0
 11 16  1  0  0  0  0
 11 12  2  0  0  0  0
 12 13  1  0  0  0  0
 12 37  1  0  0  0  0
 13 14  1  0  0  0  0
 13 15  2  0  0  0  0
 14 38  1  0  0  0  0
 14 39  1  0  0  0  0
 14 40  1  0  0  0  0
 15 16  1  0  0  0  0
 16 22  1  0  0  0  0
 17 18  1  0  0  0  0
 17 19  1  0  0  0  0
 17 41  1  0  0  0  0
 18 42  1  0  0  0  0
 18 43  1  0  0  0  0
 18 44  1  0  0  0  0
 19 20  1  0  0  0  0
 19 45  1  0  0  0  0
 20 21  1  0  0  0  0
 21 46  1  0  0  0  0
 21 47  1  0  0  0  0
 21 48  1  0  0  0  0
M  END
> <s_m_source_file>
AV-unprocessed.smi

> <i_m_source_file_index>
2510

> <i_lp_mmshare_version>
43012

> <i_f3d_flags>
0

> <s_epik_input>
W0NIM11PW0NAQEhdMVtDQEhdKFtDSDNdKVtDQEBIXShDMShbQ0gyXVtDSDNdKVtDSDJdW0NIM10pW05IXUMoPU8pW0NIMl1jMltjSF1jKFtDSDNdKVtuSF1uMg==

> <s_epik_cmdline>
J2VwaWtfcHl0aG9uJywgJy1waCcsICc3LjAnLCAnLXRuJywgJzgnLCAnLW1hJywgJzIwMCcsICctbWV0YWxfYmluZGluZycsICctaW1hZScsICc8aW5maWxlLm1hZT4nLCAnLW9tYWUnLCAnPG91dGZpbGUubWFlPic=

> <r_lp_tautomer_probability>
0.5

> <r_epik_Ionization_Penalty>
0.000134763

> <r_epik_Ionization_Penalty_Charging>
0

> <r_epik_Ionization_Penalty_Neutral>
0.000134763

> <r_epik_State_Penalty>
0.41068

> <r_epik_Charging_Adjusted_Penalty>
0.41068

> <i_epik_Tot_Q>
0

> <i_epik_Tot_abs_Q>
0

> <r_epik_Metal_State_Penalty>
0.410661

> <b_epik_Metal_Only>
0

> <s_lp_Force_Field>
OPLS_2005

> <r_lp_Energy>
25.663

> <b_lp_Chiralities_Consistent>
1

> <s_lp_Variant>
AV-unprocessed.smi:2510-9

> <Gold.Version>
5.8.1

> <Gold.Id.Protein>
6NUR|6NUR_protein|mol2

> <Gold.PLP.Fitness>
36.5412

> <Gold.PLP.PLP>
-33.8212

> <Gold.PLP.part.hbond>
-1.0000

> <Gold.PLP.part.metal>
0.0000

> <Gold.PLP.part.buried>
-7.0155

> <Gold.PLP.part.nonpolar>
-27.4623

> <Gold.PLP.part.repulsive>
0.3382

> <Gold.PLP.ligand.clash>
0.0000

> <Gold.PLP.ligand.torsion>
0.4686

> <Gold.PLP.Chemscore.Hbond>
1.0000

> <Gold.PLP.Chemscore.CHOScore>
0.0000

> <Gold.PLP.Chemscore.Metal>
0.0000

> <Gold.Chemscore.Hbonds>
donor molecule, donor type, donor heavy atom, donor atom, acceptor molecule, acceptor atom, score
      P1  H  6896  6909       L1     9  0.99

> <Gold.PLP.Chemscore.Internal.Correction>
0.6571

> <Gold.Rescore>
     Score         DG    S(hbond)    S(metal)    S(lipo)     H(rot)  DE(clash)    DE(int)     intcor
     13.15     -14.71       0.98        0.00      90.59       1.81       0.23       1.34       ----

> <Gold.Chemscore.Fitness>
13.1457

> <Gold.Chemscore.DG>
-14.7106

> <Gold.Chemscore.ZeroCoef>
-5.4800

> <Gold.Chemscore.Hbond>
0.9778

> <Gold.Chemscore.Metal>
0.0000

> <Gold.Chemscore.Lipo>
90.5879

> <Gold.Chemscore.Internal_Hbond>
0.0000

> <Gold.Chemscore.DEClash>
0.2292

> <Gold.Chemscore.DEInternal>
1.3357

> <Gold.Chemscore.Rot>
1.8102

> <Gold.Chemscore.Internal.Correction>
   9.000000E+99

> <Gold.Chemscore.Hbonds>
donor molecule, donor type, donor heavy atom, donor atom, acceptor molecule, acceptor atom, score
      P1  H  6896  6909       L1     9  0.92

> <Gold.Chemscore.Hbond.Weighted>
-3.2659

> <Gold.Chemscore.Metal.Weighted>
-0.0000

> <Gold.Chemscore.Lipo.Weighted>
-10.5988

> <Gold.Chemscore.Internal_Hbond.Weighted>
0.0000

> <Gold.Chemscore.DEClash.Weighted>
0.2292

> <Gold.Chemscore.DEInternal.Weighted>
1.3357

> <Gold.Chemscore.Rot.Weighted>
4.6341

> <Gold.Chemscore.Internal.Correction.Weighted>
   9.000000E+99

> <Gold.Protein.RotatedTorsions>
[ 6907 6896 6895 6894 ] final   98.88 input  -60.11 | X-H torsion
[ 7974 7965 7964 7962 ] final   52.06 input  175.53 | X-H torsion
[ 8008 7997 7996 7995 ] final  -53.57 input   59.86 | X-H torsion
[ 10167 10162 10161 10158 ] final   23.27 input  -65.29 | X-H torsion
[ 10718 10713 10712 10709 ] final -146.06 input   66.30 | X-H torsion
[ 10763 10752 10751 10750 ] final   73.80 input  -60.55 | X-H torsion
[ 11005 11000 10999 10996 ] final -126.67 input  -57.11 | X-H torsion

> <Gold.Protein.ActiveResidues>
 VAL166  LYS551  ARG553  GLY616  TRP617  ASP618  TYR619  PRO620  LYS621  CYS622 
 ASP623  PHE694  ASN695  SER759  ASP760  ASP761  ALA762  ILE779  LEU786  VAL792 
 PHE793  MET794  SER795  GLU796  ALA797  LYS798  CYS799  TRP800  GLU811  SER814 

> <Gold.Protein.RotatedAtoms>
  152.5402  134.0514  159.8111 H   0  0  0  0  0  0  0  0  0  0  0  0  # atno 6907 bound_to 6896
  151.0655  133.5501  159.2638 H   0  0  0  0  0  0  0  0  0  0  0  0  # atno 6908 bound_to 6896
  151.2384  135.0588  159.9069 H   0  0  0  0  0  0  0  0  0  0  0  0  # atno 6909 bound_to 6896
  145.9851  139.4281  143.0108 H   0  0  0  0  0  0  0  0  0  0  0  0  # atno 7974 bound_to 7965
  154.4137  140.1197  156.5175 H   0  0  0  0  0  0  0  0  0  0  0  0  # atno 8008 bound_to 7997
  155.6736  140.3496  155.4808 H   0  0  0  0  0  0  0  0  0  0  0  0  # atno 8009 bound_to 7997
  155.9611  140.1123  157.0884 H   0  0  0  0  0  0  0  0  0  0  0  0  # atno 8010 bound_to 7997
  140.5282  143.9886  150.6452 H   0  0  0  0  0  0  0  0  0  0  0  0  # atno 10167 bound_to 10162
  156.3903  130.7882  151.2083 H   0  0  0  0  0  0  0  0  0  0  0  0  # atno 10718 bound_to 10713
  153.0545  135.5049  154.7948 H   0  0  0  0  0  0  0  0  0  0  0  0  # atno 10763 bound_to 10752
  154.6784  135.2964  154.9649 H   0  0  0  0  0  0  0  0  0  0  0  0  # atno 10764 bound_to 10752
  154.0443  135.6712  153.4846 H   0  0  0  0  0  0  0  0  0  0  0  0  # atno 10765 bound_to 10752
  140.9662  134.0868  157.3917 H   0  0  0  0  0  0  0  0  0  0  0  0  # atno 11005 bound_to 11000
  145.7713  140.9895  143.1148 LP  0  0  0  0  0  0  0  0  0  0  0  0  # atno 17320 bound_to 7965
  144.6872  139.9450  143.7476 LP  0  0  0  0  0  0  0  0  0  0  0  0  # atno 17321 bound_to 7965
  140.3254  143.3111  152.0742 LP  0  0  0  0  0  0  0  0  0  0  0  0  # atno 17342 bound_to 10162
  139.4945  144.6546  151.6602 LP  0  0  0  0  0  0  0  0  0  0  0  0  # atno 17343 bound_to 10162
  157.7498  131.0318  150.4196 LP  0  0  0  0  0  0  0  0  0  0  0  0  # atno 17370 bound_to 10713
  156.4456  130.4001  149.6669 LP  0  0  0  0  0  0  0  0  0  0  0  0  # atno 17371 bound_to 10713
  139.8895  135.0106  156.6685 LP  0  0  0  0  0  0  0  0  0  0  0  0  # atno 17394 bound_to 11000
  140.7395  133.8990  155.8268 LP  0  0  0  0  0  0  0  0  0  0  0  0  # atno 17395 bound_to 11000

$$$$
