AV-unprocessed.smi:2407|AV-procd|sdf|9519|dock1
  -GOLD-   2272013153D 1   1.00000     0.00000
 Structure written by MMmdl.
 38 39  0  0  0  0  0  0  0  0  1 V2000
  155.2226  137.5574  164.9758 C   0  0  0  0  0  0  0  0  0  0  0  0
  155.0604  136.8681  163.6531 C   0  0  0  0  0  0  0  0  0  0  0  0
  155.6465  135.5725  163.3659 C   0  0  0  0  0  0  0  0  0  0  0  0
  155.4625  135.0180  162.1484 C   0  0  0  0  0  0  0  0  0  0  0  0
  154.6870  135.6901  161.1080 C   0  0  0  0  0  0  0  0  0  0  0  0
  154.5159  135.2211  159.9828 O   0  0  0  0  0  0  0  0  0  0  0  0
  154.1755  136.8943  161.4972 N   0  0  0  0  0  0  0  0  0  0  0  0
  153.3823  137.7103  160.5720 C   0  0  0  0  0  0  0  0  0  0  0  0
  154.2143  138.8743  159.9814 C   0  0  1  0  0  0  0  0  0  0  0  0
  154.0516  138.8932  158.5776 O   0  0  0  0  0  0  0  0  0  0  0  0
  153.7864  140.2480  160.5187 C   0  0  0  0  0  0  0  0  0  0  0  0
  152.4797  140.5360  160.0396 O   0  0  0  0  0  0  0  0  0  0  0  0
  152.1302  141.8516  159.8156 C   0  0  0  0  0  0  0  0  0  0  0  0
  152.6700  142.9393  160.5489 C   0  0  0  0  0  0  0  0  0  0  0  0
  152.2683  144.2593  160.2727 C   0  0  0  0  0  0  0  0  0  0  0  0
  151.3255  144.5110  159.2617 C   0  0  0  0  0  0  0  0  0  0  0  0
  150.7851  143.4412  158.5260 C   0  0  0  0  0  0  0  0  0  0  0  0
  151.1804  142.1114  158.7964 C   0  0  0  0  0  0  0  0  0  0  0  0
  150.6003  140.9581  157.9841 C   0  0  0  0  0  0  0  0  0  0  0  0
  149.7325  141.3813  157.0641 F   0  0  0  0  0  0  0  0  0  0  0  0
  151.5888  140.3182  157.3603 F   0  0  0  0  0  0  0  0  0  0  0  0
  149.9664  140.1023  158.7866 F   0  0  0  0  0  0  0  0  0  0  0  0
  154.3676  137.4691  162.7420 N   0  0  0  0  0  0  0  0  0  0  0  0
  155.6312  136.8798  165.7256 H   0  0  0  0  0  0  0  0  0  0  0  0
  154.2650  137.9247  165.3466 H   0  0  0  0  0  0  0  0  0  0  0  0
  155.8998  138.4071  164.8884 H   0  0  0  0  0  0  0  0  0  0  0  0
  156.2235  135.0641  164.1241 H   0  0  0  0  0  0  0  0  0  0  0  0
  155.8999  134.0536  161.9358 H   0  0  0  0  0  0  0  0  0  0  0  0
  152.9602  137.0823  159.7846 H   0  0  0  0  0  0  0  0  0  0  0  0
  152.5091  138.1014  161.0981 H   0  0  0  0  0  0  0  0  0  0  0  0
  155.2772  138.7350  160.1858 H   0  0  0  0  0  0  0  0  0  0  0  0
  154.6617  138.2786  158.1983 H   0  0  0  0  0  0  0  0  0  0  0  0
  153.7809  140.2239  161.6099 H   0  0  0  0  0  0  0  0  0  0  0  0
  154.4909  141.0177  160.1982 H   0  0  0  0  0  0  0  0  0  0  0  0
  153.3964  142.7891  161.3326 H   0  0  0  0  0  0  0  0  0  0  0  0
  152.6855  145.0796  160.8380 H   0  0  0  0  0  0  0  0  0  0  0  0
  151.0180  145.5241  159.0486 H   0  0  0  0  0  0  0  0  0  0  0  0
  150.0658  143.6548  157.7497 H   0  0  0  0  0  0  0  0  0  0  0  0
  1  2  1  0  0  0  0
  1 24  1  0  0  0  0
  1 25  1  0  0  0  0
  1 26  1  0  0  0  0
  2 23  2  0  0  0  0
  2  3  1  0  0  0  0
  3  4  2  0  0  0  0
  3 27  1  0  0  0  0
  4  5  1  0  0  0  0
  4 28  1  0  0  0  0
  5  6  2  0  0  0  0
  5  7  1  0  0  0  0
  7  8  1  0  0  0  0
  7 23  1  0  0  0  0
  8  9  1  0  0  0  0
  8 29  1  0  0  0  0
  8 30  1  0  0  0  0
  9 10  1  0  0  0  0
  9 11  1  0  0  0  0
  9 31  1  0  0  0  0
 10 32  1  0  0  0  0
 11 12  1  0  0  0  0
 11 33  1  0  0  0  0
 11 34  1  0  0  0  0
 12 13  1  0  0  0  0
 13 18  1  0  0  0  0
 13 14  2  0  0  0  0
 14 15  1  0  0  0  0
 14 35  1  0  0  0  0
 15 16  2  0  0  0  0
 15 36  1  0  0  0  0
 16 17  1  0  0  0  0
 16 37  1  0  0  0  0
 17 18  2  0  0  0  0
 17 38  1  0  0  0  0
 18 19  1  0  0  0  0
 19 20  1  0  0  0  0
 19 21  1  0  0  0  0
 19 22  1  0  0  0  0
M  END
> <s_m_source_file>
AV-unprocessed.smi

> <i_m_source_file_index>
2407

> <i_lp_mmshare_version>
43012

> <i_f3d_flags>
0

> <s_epik_input>
W0NIM11jMVtjSF1bY0hdYyg9TyluKG4xKVtDSDJdW0NASF0oW09IXSlbQ0gyXU9jMltjSF1bY0hdW2NIXVtjSF1jMkMoRikoRilG

> <s_epik_cmdline>
J2VwaWtfcHl0aG9uJywgJy1waCcsICc3LjAnLCAnLXRuJywgJzgnLCAnLW1hJywgJzIwMCcsICctbWV0YWxfYmluZGluZycsICctaW1hZScsICc8aW5maWxlLm1hZT4nLCAnLW9tYWUnLCAnPG91dGZpbGUubWFlPic=

> <r_lp_tautomer_probability>
1

> <r_epik_Ionization_Penalty>
5.91655e-06

> <r_epik_Ionization_Penalty_Charging>
5.79937e-06

> <r_epik_Ionization_Penalty_Neutral>
1.17174e-07

> <r_epik_State_Penalty>
-0

> <r_epik_Charging_Adjusted_Penalty>
5.79937e-06

> <i_epik_Tot_Q>
0

> <i_epik_Tot_abs_Q>
0

> <r_epik_Metal_State_Penalty>
-0

> <b_epik_Metal_Only>
0

> <s_lp_Force_Field>
OPLS_2005

> <r_lp_Energy>
30.1001

> <b_lp_Chiralities_Consistent>
1

> <s_lp_Variant>
AV-unprocessed.smi:2407-2

> <Gold.Version>
5.8.1

> <Gold.Id.Protein>
6NUR|6NUR_protein|mol2

> <Gold.PLP.Fitness>
49.0631

> <Gold.PLP.PLP>
-46.2003

> <Gold.PLP.part.hbond>
-2.0000

> <Gold.PLP.part.metal>
0.0000

> <Gold.PLP.part.buried>
-6.0481

> <Gold.PLP.part.nonpolar>
-38.2262

> <Gold.PLP.part.repulsive>
0.0000

> <Gold.PLP.ligand.clash>
0.4912

> <Gold.PLP.ligand.torsion>
1.5215

> <Gold.PLP.Chemscore.Hbond>
1.9120

> <Gold.PLP.Chemscore.CHOScore>
0.0000

> <Gold.PLP.Chemscore.Metal>
0.0000

> <Gold.Chemscore.Hbonds>
donor molecule, donor type, donor heavy atom, donor atom, acceptor molecule, acceptor atom, score
      P1  H  6896  6907       L1     6  0.83
      P1  H  7997  8010       L1    10  0.15

> <Gold.PLP.Chemscore.Internal.Correction>
0.6610

> <Gold.Rescore>
     Score         DG    S(hbond)    S(metal)    S(lipo)     H(rot)  DE(clash)    DE(int)     intcor
     13.83     -17.73       1.60        0.00     116.01       2.60       0.04       3.86       ----

> <Gold.Chemscore.Fitness>
13.8286

> <Gold.Chemscore.DG>
-17.7321

> <Gold.Chemscore.ZeroCoef>
-5.4800

> <Gold.Chemscore.Hbond>
1.6000

> <Gold.Chemscore.Metal>
0.0000

> <Gold.Chemscore.Lipo>
116.0096

> <Gold.Chemscore.Internal_Hbond>
0.0000

> <Gold.Chemscore.DEClash>
0.0389

> <Gold.Chemscore.DEInternal>
3.8646

> <Gold.Chemscore.Rot>
2.6035

> <Gold.Chemscore.Internal.Correction>
   9.000000E+99

> <Gold.Chemscore.Hbonds>
donor molecule, donor type, donor heavy atom, donor atom, acceptor molecule, acceptor atom, score
      P1  H  6896  6907       L1     6  0.45

> <Gold.Chemscore.Hbond.Weighted>
-5.3439

> <Gold.Chemscore.Metal.Weighted>
-0.0000

> <Gold.Chemscore.Lipo.Weighted>
-13.5731

> <Gold.Chemscore.Internal_Hbond.Weighted>
0.0000

> <Gold.Chemscore.DEClash.Weighted>
0.0389

> <Gold.Chemscore.DEInternal.Weighted>
3.8646

> <Gold.Chemscore.Rot.Weighted>
6.6649

> <Gold.Chemscore.Internal.Correction.Weighted>
   9.000000E+99

> <Gold.Protein.RotatedTorsions>
[ 6907 6896 6895 6894 ] final   73.33 input  -60.11 | X-H torsion
[ 7974 7965 7964 7962 ] final   99.55 input  175.53 | X-H torsion
[ 8008 7997 7996 7995 ] final   37.72 input   59.86 | X-H torsion
[ 10167 10162 10161 10158 ] final  -25.61 input  -65.29 | X-H torsion
[ 10718 10713 10712 10709 ] final -124.31 input   66.30 | X-H torsion
[ 10763 10752 10751 10750 ] final   29.78 input  -60.55 | X-H torsion
[ 11005 11000 10999 10996 ] final -123.53 input  -57.11 | X-H torsion

> <Gold.Protein.ActiveResidues>
 VAL166  LYS551  ARG553  GLY616  TRP617  ASP618  TYR619  PRO620  LYS621  CYS622 
 ASP623  PHE694  ASN695  SER759  ASP760  ASP761  ALA762  ILE779  LEU786  VAL792 
 PHE793  MET794  SER795  GLU796  ALA797  LYS798  CYS799  TRP800  GLU811  SER814 

> <Gold.Protein.RotatedAtoms>
  152.4917  134.4437  159.9551 H   0  0  0  0  0  0  0  0  0  0  0  0  # atno 6907 bound_to 6896
  151.4423  133.3634  159.2791 H   0  0  0  0  0  0  0  0  0  0  0  0  # atno 6908 bound_to 6896
  150.9079  134.8518  159.7465 H   0  0  0  0  0  0  0  0  0  0  0  0  # atno 6909 bound_to 6896
  145.3973  139.2353  143.3319 H   0  0  0  0  0  0  0  0  0  0  0  0  # atno 7974 bound_to 7965
  155.2084  140.3321  155.4332 H   0  0  0  0  0  0  0  0  0  0  0  0  # atno 8008 bound_to 7997
  156.2380  140.1881  156.7115 H   0  0  0  0  0  0  0  0  0  0  0  0  # atno 8009 bound_to 7997
  154.6095  140.0611  156.9460 H   0  0  0  0  0  0  0  0  0  0  0  0  # atno 8010 bound_to 7997
  140.7286  143.4250  151.0891 H   0  0  0  0  0  0  0  0  0  0  0  0  # atno 10167 bound_to 10162
  156.1577  130.6579  151.0005 H   0  0  0  0  0  0  0  0  0  0  0  0  # atno 10718 bound_to 10713
  153.0410  135.6480  154.0943 H   0  0  0  0  0  0  0  0  0  0  0  0  # atno 10763 bound_to 10752
  154.0649  135.2885  155.3320 H   0  0  0  0  0  0  0  0  0  0  0  0  # atno 10764 bound_to 10752
  154.6633  135.5383  153.8110 H   0  0  0  0  0  0  0  0  0  0  0  0  # atno 10765 bound_to 10752
  140.9911  134.0537  157.3653 H   0  0  0  0  0  0  0  0  0  0  0  0  # atno 11005 bound_to 11000
  146.2769  140.4665  142.8792 LP  0  0  0  0  0  0  0  0  0  0  0  0  # atno 17320 bound_to 7965
  144.8398  140.6839  143.6237 LP  0  0  0  0  0  0  0  0  0  0  0  0  # atno 17321 bound_to 7965
  139.7900  143.8231  152.3150 LP  0  0  0  0  0  0  0  0  0  0  0  0  # atno 17342 bound_to 10162
  139.8212  144.7295  150.9570 LP  0  0  0  0  0  0  0  0  0  0  0  0  # atno 17343 bound_to 10162
  157.6708  131.0862  150.7617 LP  0  0  0  0  0  0  0  0  0  0  0  0  # atno 17370 bound_to 10713
  156.7682  130.4820  149.5423 LP  0  0  0  0  0  0  0  0  0  0  0  0  # atno 17371 bound_to 10713
  139.8993  135.0158  156.7189 LP  0  0  0  0  0  0  0  0  0  0  0  0  # atno 17394 bound_to 11000
  140.7038  133.9283  155.8041 LP  0  0  0  0  0  0  0  0  0  0  0  0  # atno 17395 bound_to 11000

$$$$
