AV-unprocessed.smi:749|AV-procd|sdf|3586|dock3
  -GOLD-   22720 0583D 1   1.00000     0.00000
 Structure written by MMmdl.
 42 43  0  0  0  0  0  0  0  0  2 V2000
  145.8068  130.1292  151.7037 C   0  0  0  0  0  0  0  0  0  0  0  0
  145.7869  131.5909  151.7812 N   0  0  0  0  0  0  0  0  0  0  0  0
  146.9439  132.1890  152.4652 C   0  0  0  0  0  0  0  0  0  0  0  0
  146.7461  133.6606  152.8667 C   0  0  1  0  0  0  0  0  0  0  0  0
  148.0288  134.2423  153.2503 N   0  0  0  0  0  0  0  0  0  0  0  0
  148.8137  133.8483  154.2724 C   0  0  0  0  0  0  0  0  0  0  0  0
  148.4457  132.9100  154.9783 O   0  0  0  0  0  0  0  0  0  0  0  0
  149.9813  134.5164  154.4706 N   0  5  0  0  0  0  0  0  0  0  0  0
  150.2343  135.2236  155.5858 C   0  0  0  0  0  0  0  0  0  0  0  0
  149.2825  135.9658  156.3358 C   0  0  0  0  0  0  0  0  0  0  0  0
  150.0225  136.4896  157.3603 C   0  0  0  0  0  0  0  0  0  0  0  0
  149.6877  137.3609  158.5381 C   0  0  0  0  0  0  0  0  0  0  0  0
  148.6714  136.6631  159.4641 C   0  0  0  0  0  0  0  0  0  0  0  0
  149.0742  138.6882  158.0543 C   0  0  0  0  0  0  0  0  0  0  0  0
  150.9615  137.6578  159.3514 C   0  0  0  0  0  0  0  0  0  0  0  0
  151.3231  136.1042  157.2342 O   0  0  0  0  0  0  0  0  0  0  0  0
  151.4514  135.3017  156.0952 N   0  0  0  0  0  0  0  0  0  0  0  0
  146.1254  134.4326  151.6982 C   0  0  0  0  0  0  0  0  0  0  0  0
  144.7705  133.8254  151.3152 C   0  0  0  0  0  0  0  0  0  0  0  0
  144.7921  132.2942  151.1876 C   0  0  0  0  0  0  0  0  0  0  0  0
  143.8759  131.7511  150.5693 O   0  0  0  0  0  0  0  0  0  0  0  0
  144.9555  129.7076  152.2393 H   0  0  0  0  0  0  0  0  0  0  0  0
  146.7138  129.7058  152.1371 H   0  0  0  0  0  0  0  0  0  0  0  0
  145.7579  129.7947  150.6664 H   0  0  0  0  0  0  0  0  0  0  0  0
  147.1902  131.6080  153.3552 H   0  0  0  0  0  0  0  0  0  0  0  0
  147.7983  132.1024  151.7917 H   0  0  0  0  0  0  0  0  0  0  0  0
  146.0640  133.6946  153.7187 H   0  0  0  0  0  0  0  0  0  0  0  0
  148.3558  135.0181  152.6933 H   0  0  0  0  0  0  0  0  0  0  0  0
  148.2252  136.0860  156.1523 H   0  0  0  0  0  0  0  0  0  0  0  0
  148.4213  137.2866  160.3232 H   0  0  0  0  0  0  0  0  0  0  0  0
  149.0643  135.7208  159.8485 H   0  0  0  0  0  0  0  0  0  0  0  0
  147.7410  136.4422  158.9393 H   0  0  0  0  0  0  0  0  0  0  0  0
  148.1652  138.5160  157.4768 H   0  0  0  0  0  0  0  0  0  0  0  0
  149.7670  139.2403  157.4182 H   0  0  0  0  0  0  0  0  0  0  0  0
  148.8138  139.3363  158.8918 H   0  0  0  0  0  0  0  0  0  0  0  0
  150.7443  138.2804  160.2200 H   0  0  0  0  0  0  0  0  0  0  0  0
  151.7052  138.1840  158.7517 H   0  0  0  0  0  0  0  0  0  0  0  0
  151.4234  136.7380  159.7125 H   0  0  0  0  0  0  0  0  0  0  0  0
  145.9910  135.4818  151.9638 H   0  0  0  0  0  0  0  0  0  0  0  0
  146.7964  134.4147  150.8379 H   0  0  0  0  0  0  0  0  0  0  0  0
  144.0315  134.0815  152.0753 H   0  0  0  0  0  0  0  0  0  0  0  0
  144.4193  134.2630  150.3801 H   0  0  0  0  0  0  0  0  0  0  0  0
  1  2  1  0  0  0  0
  1 22  1  0  0  0  0
  1 23  1  0  0  0  0
  1 24  1  0  0  0  0
  2 20  1  0  0  0  0
  2  3  1  0  0  0  0
  3  4  1  0  0  0  0
  3 25  1  0  0  0  0
  3 26  1  0  0  0  0
  4  5  1  0  0  0  0
  4 18  1  0  0  0  0
  4 27  1  0  0  0  0
  5  6  1  0  0  0  0
  5 28  1  0  0  0  0
  6  7  2  0  0  0  0
  6  8  1  0  0  0  0
  8  9  1  0  0  0  0
  9 17  2  0  0  0  0
  9 10  1  0  0  0  0
 10 11  2  0  0  0  0
 10 29  1  0  0  0  0
 11 12  1  0  0  0  0
 11 16  1  0  0  0  0
 12 13  1  0  0  0  0
 12 14  1  0  0  0  0
 12 15  1  0  0  0  0
 13 30  1  0  0  0  0
 13 31  1  0  0  0  0
 13 32  1  0  0  0  0
 14 33  1  0  0  0  0
 14 34  1  0  0  0  0
 14 35  1  0  0  0  0
 15 36  1  0  0  0  0
 15 37  1  0  0  0  0
 15 38  1  0  0  0  0
 16 17  1  0  0  0  0
 18 19  1  0  0  0  0
 18 39  1  0  0  0  0
 18 40  1  0  0  0  0
 19 20  1  0  0  0  0
 19 41  1  0  0  0  0
 19 42  1  0  0  0  0
 20 21  2  0  0  0  0
M  CHG  1   8  -1
M  END
> <s_m_source_file>
AV-unprocessed.smi

> <i_m_source_file_index>
749

> <i_lp_mmshare_version>
43012

> <i_f3d_flags>
0

> <s_epik_input>
Tz1DMVtDSDJdW0NIMl1bQ0BASF0oW0NIMl1OMVtDSDNdKVtOSF1DKD1PKVtOSF1jMltjSF1jKG9uMilDKFtDSDNdKShbQ0gzXSlbQ0gzXQ==

> <s_epik_cmdline>
J2VwaWtfcHl0aG9uJywgJy1waCcsICc3LjAnLCAnLXRuJywgJzgnLCAnLW1hJywgJzIwMCcsICctbWV0YWxfYmluZGluZycsICctaW1hZScsICc8aW5maWxlLm1hZT4nLCAnLW9tYWUnLCAnPG91dGZpbGUubWFlPic=

> <r_lp_tautomer_probability>
1

> <r_epik_Ionization_Penalty>
6.47858

> <r_epik_Ionization_Penalty_Charging>
6.47844

> <r_epik_Ionization_Penalty_Neutral>
0.000138814

> <r_epik_State_Penalty>
6.47843

> <r_epik_Charging_Adjusted_Penalty>
12.9569

> <i_epik_Tot_Q>
-1

> <i_epik_Tot_abs_Q>
1

> <r_epik_Metal_State_Penalty>
2.40644

> <b_epik_Metal_Only>
1

> <s_lp_Force_Field>
OPLS_2005

> <r_lp_Energy>
10.0232

> <b_lp_Chiralities_Consistent>
1

> <s_lp_Variant>
AV-unprocessed.smi:749-3

> <Gold.Version>
5.8.1

> <Gold.Id.Protein>
6NUR|6NUR_protein|mol2

> <Gold.PLP.Fitness>
34.5563

> <Gold.PLP.PLP>
-30.2214

> <Gold.PLP.part.hbond>
-2.6320

> <Gold.PLP.part.metal>
0.0000

> <Gold.PLP.part.buried>
-5.1351

> <Gold.PLP.part.nonpolar>
-22.2877

> <Gold.PLP.part.repulsive>
0.3609

> <Gold.PLP.ligand.clash>
0.0000

> <Gold.PLP.ligand.torsion>
0.8535

> <Gold.PLP.Chemscore.Hbond>
2.0000

> <Gold.PLP.Chemscore.CHOScore>
0.0000

> <Gold.PLP.Chemscore.Metal>
0.0000

> <Gold.Chemscore.Hbonds>
donor molecule, donor type, donor heavy atom, donor atom, acceptor molecule, acceptor atom, score
      L1  H     5    28       P1  7948  1.00
      P1  H 10752 10763       L1    17  1.00

> <Gold.PLP.Chemscore.Internal.Correction>
0.0419

> <Gold.Rescore>
     Score         DG    S(hbond)    S(metal)    S(lipo)     H(rot)  DE(clash)    DE(int)     intcor
     14.01     -14.87       1.96        0.00      51.03       1.22       0.00       0.85       ----

> <Gold.Chemscore.Fitness>
14.0065

> <Gold.Chemscore.DG>
-14.8662

> <Gold.Chemscore.ZeroCoef>
-5.4800

> <Gold.Chemscore.Hbond>
1.9576

> <Gold.Chemscore.Metal>
0.0000

> <Gold.Chemscore.Lipo>
51.0294

> <Gold.Chemscore.Internal_Hbond>
0.0000

> <Gold.Chemscore.DEClash>
0.0048

> <Gold.Chemscore.DEInternal>
0.8550

> <Gold.Chemscore.Rot>
1.2198

> <Gold.Chemscore.Internal.Correction>
   9.000000E+99

> <Gold.Chemscore.Hbonds>
donor molecule, donor type, donor heavy atom, donor atom, acceptor molecule, acceptor atom, score
      L1  H     5    28       P1  7948  0.67
      P1  H 10752 10763       L1    17  0.86
      P1  H 10785 10796       L1    21  0.01

> <Gold.Chemscore.Hbond.Weighted>
-6.5385

> <Gold.Chemscore.Metal.Weighted>
-0.0000

> <Gold.Chemscore.Lipo.Weighted>
-5.9704

> <Gold.Chemscore.Internal_Hbond.Weighted>
0.0000

> <Gold.Chemscore.DEClash.Weighted>
0.0048

> <Gold.Chemscore.DEInternal.Weighted>
0.8550

> <Gold.Chemscore.Rot.Weighted>
3.1228

> <Gold.Chemscore.Internal.Correction.Weighted>
   9.000000E+99

> <Gold.Protein.RotatedTorsions>
[ 6907 6896 6895 6894 ] final -135.22 input  -60.11 | X-H torsion
[ 7974 7965 7964 7962 ] final  118.92 input  175.53 | X-H torsion
[ 8008 7997 7996 7995 ] final  -27.42 input   59.86 | X-H torsion
[ 10167 10162 10161 10158 ] final  -19.06 input  -65.29 | X-H torsion
[ 10718 10713 10712 10709 ] final  170.25 input   66.30 | X-H torsion
[ 10763 10752 10751 10750 ] final   95.40 input  -60.55 | X-H torsion
[ 11005 11000 10999 10996 ] final   96.16 input  -57.11 | X-H torsion

> <Gold.Protein.ActiveResidues>
 VAL166  LYS551  ARG553  GLY616  TRP617  ASP618  TYR619  PRO620  LYS621  CYS622 
 ASP623  PHE694  ASN695  SER759  ASP760  ASP761  ALA762  ILE779  LEU786  VAL792 
 PHE793  MET794  SER795  GLU796  ALA797  LYS798  CYS799  TRP800  GLU811  SER814 

> <Gold.Protein.RotatedAtoms>
  150.9952  133.6110  159.2702 H   0  0  0  0  0  0  0  0  0  0  0  0  # atno 6907 bound_to 6896
  151.3316  135.0842  159.9350 H   0  0  0  0  0  0  0  0  0  0  0  0  # atno 6908 bound_to 6896
  152.5258  133.9580  159.7758 H   0  0  0  0  0  0  0  0  0  0  0  0  # atno 6909 bound_to 6896
  145.1494  139.3220  143.4574 H   0  0  0  0  0  0  0  0  0  0  0  0  # atno 7974 bound_to 7965
  154.4378  140.1873  156.0929 H   0  0  0  0  0  0  0  0  0  0  0  0  # atno 8008 bound_to 7997
  156.0352  140.3326  155.7156 H   0  0  0  0  0  0  0  0  0  0  0  0  # atno 8009 bound_to 7997
  155.5781  140.0619  157.2781 H   0  0  0  0  0  0  0  0  0  0  0  0  # atno 8010 bound_to 7997
  140.7265  143.4856  151.0060 H   0  0  0  0  0  0  0  0  0  0  0  0  # atno 10167 bound_to 10162
  157.0109  131.0204  151.2803 H   0  0  0  0  0  0  0  0  0  0  0  0  # atno 10718 bound_to 10713
  153.2527  135.4255  155.0814 H   0  0  0  0  0  0  0  0  0  0  0  0  # atno 10763 bound_to 10752
  154.8388  135.3430  154.6489 H   0  0  0  0  0  0  0  0  0  0  0  0  # atno 10764 bound_to 10752
  153.6910  135.7033  153.5147 H   0  0  0  0  0  0  0  0  0  0  0  0  # atno 10765 bound_to 10752
  139.8783  134.8936  156.4118 H   0  0  0  0  0  0  0  0  0  0  0  0  # atno 11005 bound_to 11000
  146.3496  140.1562  142.8591 LP  0  0  0  0  0  0  0  0  0  0  0  0  # atno 17320 bound_to 7965
  145.0447  140.8972  143.5031 LP  0  0  0  0  0  0  0  0  0  0  0  0  # atno 17321 bound_to 7965
  139.8557  143.7380  152.3176 LP  0  0  0  0  0  0  0  0  0  0  0  0  # atno 17342 bound_to 10162
  139.7577  144.7515  151.0410 LP  0  0  0  0  0  0  0  0  0  0  0  0  # atno 17343 bound_to 10162
  157.5321  130.8065  149.7929 LP  0  0  0  0  0  0  0  0  0  0  0  0  # atno 17370 bound_to 10713
  156.0136  130.3822  150.2182 LP  0  0  0  0  0  0  0  0  0  0  0  0  # atno 17371 bound_to 10713
  140.9195  133.7655  155.9889 LP  0  0  0  0  0  0  0  0  0  0  0  0  # atno 17394 bound_to 11000
  140.8455  134.3016  157.5296 LP  0  0  0  0  0  0  0  0  0  0  0  0  # atno 17395 bound_to 11000

$$$$
