AV-unprocessed.smi:386|AV-procd|sdf|2473|dock4
  -GOLD-   2262022413D 1   1.00000     0.00000
 Structure written by MMmdl.
 27 28  0  0  0  0  0  0  0  0  1 V2000
  151.5851  137.1054  159.5830 N   0  0  0  0  0  0  0  0  0  0  0  0
  151.5294  138.1969  159.2019 C   0  0  0  0  0  0  0  0  0  0  0  0
  151.4308  139.5369  158.7262 C   0  0  0  0  0  0  0  0  0  0  0  0
  152.1576  140.5377  159.2642 C   0  0  0  0  0  0  0  0  0  0  0  0
  152.0806  141.8367  158.8112 N   0  0  0  0  0  0  0  0  0  0  0  0
  152.7401  142.9102  159.5003 C   0  0  0  0  0  0  0  0  0  0  0  0
  152.4923  143.1389  160.9787 C   0  0  0  0  0  0  0  0  0  0  0  0
  151.9235  144.0976  159.9613 C   0  0  0  0  0  0  0  0  0  0  0  0
  151.1589  142.1813  157.7984 C   0  0  0  0  0  0  0  0  0  0  0  0
  151.0040  143.3540  157.4483 O   0  0  0  0  0  0  0  0  0  0  0  0
  150.4064  141.1390  157.2045 N   0  0  0  0  0  0  0  0  0  0  0  0
  149.4489  141.4798  156.1290 C   0  0  0  0  0  0  0  0  0  0  0  0
  149.7977  140.8481  154.7720 C   0  0  0  0  0  0  0  0  0  0  0  0
  148.9796  141.1328  153.7566 N   0  0  0  0  0  0  0  0  0  0  0  0
  150.7786  140.1185  154.6339 O   0  0  0  0  0  0  0  0  0  0  0  0
  150.5000  139.7886  157.6284 C   0  0  0  0  0  0  0  0  0  0  0  0
  149.8210  138.9077  157.0977 O   0  0  0  0  0  0  0  0  0  0  0  0
  152.8309  140.3144  160.0794 H   0  0  0  0  0  0  0  0  0  0  0  0
  153.7462  143.1351  159.1507 H   0  0  0  0  0  0  0  0  0  0  0  0
  151.7893  142.4849  161.4914 H   0  0  0  0  0  0  0  0  0  0  0  0
  153.3322  143.4812  161.5797 H   0  0  0  0  0  0  0  0  0  0  0  0
  152.3821  145.0814  159.8870 H   0  0  0  0  0  0  0  0  0  0  0  0
  150.8471  144.0727  159.8022 H   0  0  0  0  0  0  0  0  0  0  0  0
  148.4357  141.1785  156.3998 H   0  0  0  0  0  0  0  0  0  0  0  0
  149.3761  142.5610  156.0006 H   0  0  0  0  0  0  0  0  0  0  0  0
  149.1567  140.7458  152.8410 H   0  0  0  0  0  0  0  0  0  0  0  0
  148.1835  141.7351  153.9091 H   0  0  0  0  0  0  0  0  0  0  0  0
  1  2  3  0  0  0  0
  2  3  1  0  0  0  0
  3 16  1  0  0  0  0
  3  4  2  0  0  0  0
  4  5  1  0  0  0  0
  4 18  1  0  0  0  0
  5  6  1  0  0  0  0
  5  9  1  0  0  0  0
  6  8  1  0  0  0  0
  6  7  1  0  0  0  0
  6 19  1  0  0  0  0
  7  8  1  0  0  0  0
  7 20  1  0  0  0  0
  7 21  1  0  0  0  0
  8 22  1  0  0  0  0
  8 23  1  0  0  0  0
  9 10  2  0  0  0  0
  9 11  1  0  0  0  0
 11 12  1  0  0  0  0
 11 16  1  0  0  0  0
 12 13  1  0  0  0  0
 12 24  1  0  0  0  0
 12 25  1  0  0  0  0
 13 14  1  0  0  0  0
 13 15  2  0  0  0  0
 14 26  1  0  0  0  0
 14 27  1  0  0  0  0
 16 17  2  0  0  0  0
M  END
> <s_m_source_file>
AV-unprocessed.smi

> <i_m_source_file_index>
386

> <i_lp_mmshare_version>
43012

> <i_f3d_flags>
0

> <s_epik_input>
TiNDYzFbY0hdbihbQ0hdMltDSDJdW0NIMl0yKWMoPU8pbihjMT1PKVtDSDJdQyg9TylbTkgyXQ==

> <s_epik_cmdline>
J2VwaWtfcHl0aG9uJywgJy1waCcsICc3LjAnLCAnLXRuJywgJzgnLCAnLW1hJywgJzIwMCcsICctbWV0YWxfYmluZGluZycsICctaW1hZScsICc8aW5maWxlLm1hZT4nLCAnLW9tYWUnLCAnPG91dGZpbGUubWFlPic=

> <r_lp_tautomer_probability>
1

> <r_epik_Ionization_Penalty>
3.46323e-08

> <r_epik_Ionization_Penalty_Charging>
7.2855e-11

> <r_epik_Ionization_Penalty_Neutral>
3.45594e-08

> <r_epik_State_Penalty>
-0

> <r_epik_Charging_Adjusted_Penalty>
7.2855e-11

> <i_epik_Tot_Q>
0

> <i_epik_Tot_abs_Q>
0

> <r_epik_Metal_State_Penalty>
-0

> <b_epik_Metal_Only>
0

> <s_lp_Force_Field>
OPLS_2005

> <r_lp_Energy>
26.3068

> <b_lp_Chiralities_Consistent>
1

> <s_lp_Variant>
AV-unprocessed.smi:386-1

> <Gold.Version>
5.8.1

> <Gold.Id.Protein>
6NUR|6NUR_protein|mol2

> <Gold.PLP.Fitness>
42.1024

> <Gold.PLP.PLP>
-33.2049

> <Gold.PLP.part.hbond>
-3.0000

> <Gold.PLP.part.metal>
0.0000

> <Gold.PLP.part.buried>
-5.7579

> <Gold.PLP.part.nonpolar>
-25.1144

> <Gold.PLP.part.repulsive>
0.4155

> <Gold.PLP.ligand.clash>
0.0000

> <Gold.PLP.ligand.torsion>
0.1560

> <Gold.PLP.Chemscore.Hbond>
3.0000

> <Gold.PLP.Chemscore.CHOScore>
0.0000

> <Gold.PLP.Chemscore.Metal>
0.0000

> <Gold.Chemscore.Hbonds>
donor molecule, donor type, donor heavy atom, donor atom, acceptor molecule, acceptor atom, score
      L1  H    14    26       P1  7957  1.00
      P1  H  6896  6907       L1     1  1.00
      P1  H  7989  7998       L1    15  1.00

> <Gold.PLP.Chemscore.Internal.Correction>
0.2094

> <Gold.Rescore>
     Score         DG    S(hbond)    S(metal)    S(lipo)     H(rot)  DE(clash)    DE(int)     intcor
     14.09     -15.62       2.74        0.00      52.97       2.03       0.01       1.52       ----

> <Gold.Chemscore.Fitness>
14.0905

> <Gold.Chemscore.DG>
-15.6153

> <Gold.Chemscore.ZeroCoef>
-5.4800

> <Gold.Chemscore.Hbond>
2.7359

> <Gold.Chemscore.Metal>
0.0000

> <Gold.Chemscore.Lipo>
52.9696

> <Gold.Chemscore.Internal_Hbond>
0.0000

> <Gold.Chemscore.DEClash>
0.0089

> <Gold.Chemscore.DEInternal>
1.5159

> <Gold.Chemscore.Rot>
2.0313

> <Gold.Chemscore.Internal.Correction>
   9.000000E+99

> <Gold.Chemscore.Hbonds>
donor molecule, donor type, donor heavy atom, donor atom, acceptor molecule, acceptor atom, score
      L1  H    14    26       P1  7957  1.00
      P1  H  6896  6907       L1     1  0.98
      P1  H  7989  7998       L1    15  0.39

> <Gold.Chemscore.Hbond.Weighted>
-9.1380

> <Gold.Chemscore.Metal.Weighted>
-0.0000

> <Gold.Chemscore.Lipo.Weighted>
-6.1974

> <Gold.Chemscore.Internal_Hbond.Weighted>
0.0000

> <Gold.Chemscore.DEClash.Weighted>
0.0089

> <Gold.Chemscore.DEInternal.Weighted>
1.5159

> <Gold.Chemscore.Rot.Weighted>
5.2001

> <Gold.Chemscore.Internal.Correction.Weighted>
   9.000000E+99

> <Gold.Protein.RotatedTorsions>
[ 6907 6896 6895 6894 ] final    2.88 input  -60.11 | X-H torsion
[ 7974 7965 7964 7962 ] final  -86.38 input  175.53 | X-H torsion
[ 8008 7997 7996 7995 ] final   91.52 input   59.86 | X-H torsion
[ 10167 10162 10161 10158 ] final  137.84 input  -65.29 | X-H torsion
[ 10718 10713 10712 10709 ] final -159.01 input   66.30 | X-H torsion
[ 10763 10752 10751 10750 ] final  137.33 input  -60.55 | X-H torsion
[ 11005 11000 10999 10996 ] final  159.82 input  -57.11 | X-H torsion

> <Gold.Protein.ActiveResidues>
 VAL166  LYS551  ARG553  GLY616  TRP617  ASP618  TYR619  PRO620  LYS621  CYS622 
 ASP623  PHE694  ASN695  SER759  ASP760  ASP761  ALA762  ILE779  LEU786  VAL792 
 PHE793  MET794  SER795  GLU796  ALA797  LYS798  CYS799  TRP800  GLU811  SER814 

> <Gold.Protein.RotatedAtoms>
  151.6160  135.1036  160.0091 H   0  0  0  0  0  0  0  0  0  0  0  0  # atno 6907 bound_to 6896
  152.4183  133.7070  159.6467 H   0  0  0  0  0  0  0  0  0  0  0  0  # atno 6908 bound_to 6896
  150.8071  133.8417  159.3222 H   0  0  0  0  0  0  0  0  0  0  0  0  # atno 6909 bound_to 6896
  145.4806  140.9557  143.1866 H   0  0  0  0  0  0  0  0  0  0  0  0  # atno 7974 bound_to 7965
  156.0247  140.3336  155.7075 H   0  0  0  0  0  0  0  0  0  0  0  0  # atno 8008 bound_to 7997
  155.5972  140.0652  157.2760 H   0  0  0  0  0  0  0  0  0  0  0  0  # atno 8009 bound_to 7997
  154.4329  140.1817  156.1124 H   0  0  0  0  0  0  0  0  0  0  0  0  # atno 8010 bound_to 7997
  139.5131  144.6387  151.5627 H   0  0  0  0  0  0  0  0  0  0  0  0  # atno 10167 bound_to 10162
  156.5622  130.8652  151.2813 H   0  0  0  0  0  0  0  0  0  0  0  0  # atno 10718 bound_to 10713
  153.8712  135.3055  155.3442 H   0  0  0  0  0  0  0  0  0  0  0  0  # atno 10763 bound_to 10752
  154.7804  135.4838  153.9836 H   0  0  0  0  0  0  0  0  0  0  0  0  # atno 10764 bound_to 10752
  153.1405  135.6823  153.9131 H   0  0  0  0  0  0  0  0  0  0  0  0  # atno 10765 bound_to 10752
  140.1999  134.8346  157.3006 H   0  0  0  0  0  0  0  0  0  0  0  0  # atno 11005 bound_to 11000
  144.7891  139.6365  143.7121 LP  0  0  0  0  0  0  0  0  0  0  0  0  # atno 17320 bound_to 7965
  146.2343  139.5874  142.9534 LP  0  0  0  0  0  0  0  0  0  0  0  0  # atno 17321 bound_to 7965
  140.6146  143.9373  150.6479 LP  0  0  0  0  0  0  0  0  0  0  0  0  # atno 17342 bound_to 10162
  140.2626  143.3513  152.1309 LP  0  0  0  0  0  0  0  0  0  0  0  0  # atno 17343 bound_to 10162
  157.7366  130.9781  150.2146 LP  0  0  0  0  0  0  0  0  0  0  0  0  # atno 17370 bound_to 10713
  156.2789  130.3731  149.7955 LP  0  0  0  0  0  0  0  0  0  0  0  0  # atno 17371 bound_to 10713
  140.2066  134.4189  155.7634 LP  0  0  0  0  0  0  0  0  0  0  0  0  # atno 17394 bound_to 11000
  141.2227  133.7098  156.8270 LP  0  0  0  0  0  0  0  0  0  0  0  0  # atno 17395 bound_to 11000

$$$$
