AV-unprocessed.smi:3321|AV-procd|sdf|12772|dock4
  -GOLD-   2272019113D 1   1.00000     0.00000
 Structure written by MMmdl.
 40 41  0  0  0  0  0  0  0  0  1 V2000
  149.7505  140.2223  157.5128 C   0  0  0  0  0  0  0  0  0  0  0  0
  149.7034  141.7142  157.1464 C   0  0  1  0  0  0  0  0  0  0  0  0
  148.7030  141.9222  156.0834 N   0  0  0  0  0  0  0  0  0  0  0  0
  148.8668  141.0352  154.9349 C   0  0  0  0  0  0  0  0  0  0  0  0
  147.7929  141.3353  153.8756 C   0  0  0  0  0  0  0  0  0  0  0  0
  147.1606  140.1308  153.3673 N   0  0  0  0  0  0  0  0  0  0  0  0
  146.7984  138.9957  154.0616 C   0  0  0  0  0  0  0  0  0  0  0  0
  146.2442  138.1294  153.1633 C   0  0  0  0  0  0  0  0  0  0  0  0
  146.3108  138.8348  151.9293 C   0  0  0  0  0  0  0  0  0  0  0  0
  146.8583  140.0331  152.0547 N   0  0  0  0  0  0  0  0  0  0  0  0
  149.4409  142.5614  158.4140 C   0  0  0  0  0  0  0  0  0  0  0  0
  148.4000  142.3559  159.0419 O   0  0  0  0  0  0  0  0  0  0  0  0
  150.3416  143.4965  158.8101 N   0  0  0  0  0  0  0  0  0  0  0  0
  151.6498  143.6537  158.1596 C   0  0  0  0  0  0  0  0  0  0  0  0
  152.7413  143.1638  159.1301 C   0  0  0  0  0  0  0  0  0  0  0  0
  152.6631  143.9093  160.4770 C   0  0  0  0  0  0  0  0  0  0  0  0
  151.2305  143.9149  161.0459 C   0  0  0  0  0  0  0  0  0  0  0  0
  150.2254  144.3810  159.9778 C   0  0  0  0  0  0  0  0  0  0  0  0
  150.5012  140.0192  158.2773 H   0  0  0  0  0  0  0  0  0  0  0  0
  150.0017  139.6148  156.6427 H   0  0  0  0  0  0  0  0  0  0  0  0
  148.7890  139.8743  157.8926 H   0  0  0  0  0  0  0  0  0  0  0  0
  150.6633  141.9916  156.7132 H   0  0  0  0  0  0  0  0  0  0  0  0
  148.6794  142.8850  155.7787 H   0  0  0  0  0  0  0  0  0  0  0  0
  149.8514  141.1724  154.4877 H   0  0  0  0  0  0  0  0  0  0  0  0
  148.8012  139.9931  155.2513 H   0  0  0  0  0  0  0  0  0  0  0  0
  147.0236  141.9927  154.2830 H   0  0  0  0  0  0  0  0  0  0  0  0
  148.2408  141.8666  153.0347 H   0  0  0  0  0  0  0  0  0  0  0  0
  146.9673  138.8994  155.1239 H   0  0  0  0  0  0  0  0  0  0  0  0
  145.8526  137.1421  153.3578 H   0  0  0  0  0  0  0  0  0  0  0  0
  145.9799  138.5139  150.9526 H   0  0  0  0  0  0  0  0  0  0  0  0
  151.7261  143.1126  157.2159 H   0  0  0  0  0  0  0  0  0  0  0  0
  151.8105  144.7035  157.9104 H   0  0  0  0  0  0  0  0  0  0  0  0
  152.6210  142.0929  159.2993 H   0  0  0  0  0  0  0  0  0  0  0  0
  153.7278  143.2980  158.6856 H   0  0  0  0  0  0  0  0  0  0  0  0
  153.3533  143.4659  161.1950 H   0  0  0  0  0  0  0  0  0  0  0  0
  152.9908  144.9395  160.3310 H   0  0  0  0  0  0  0  0  0  0  0  0
  150.9644  142.9127  161.3847 H   0  0  0  0  0  0  0  0  0  0  0  0
  151.1788  144.5634  161.9208 H   0  0  0  0  0  0  0  0  0  0  0  0
  150.4598  145.4024  159.6747 H   0  0  0  0  0  0  0  0  0  0  0  0
  149.2222  144.4412  160.3942 H   0  0  0  0  0  0  0  0  0  0  0  0
  1  2  1  0  0  0  0
  1 19  1  0  0  0  0
  1 20  1  0  0  0  0
  1 21  1  0  0  0  0
  2  3  1  0  0  0  0
  2 11  1  0  0  0  0
  2 22  1  0  0  0  0
  3  4  1  0  0  0  0
  3 23  1  0  0  0  0
  4  5  1  0  0  0  0
  4 24  1  0  0  0  0
  4 25  1  0  0  0  0
  5  6  1  0  0  0  0
  5 26  1  0  0  0  0
  5 27  1  0  0  0  0
  6 10  1  0  0  0  0
  6  7  1  0  0  0  0
  7  8  2  0  0  0  0
  7 28  1  0  0  0  0
  8  9  1  0  0  0  0
  8 29  1  0  0  0  0
  9 10  2  0  0  0  0
  9 30  1  0  0  0  0
 11 12  2  0  0  0  0
 11 13  1  0  0  0  0
 13 18  1  0  0  0  0
 13 14  1  0  0  0  0
 14 15  1  0  0  0  0
 14 31  1  0  0  0  0
 14 32  1  0  0  0  0
 15 16  1  0  0  0  0
 15 33  1  0  0  0  0
 15 34  1  0  0  0  0
 16 17  1  0  0  0  0
 16 35  1  0  0  0  0
 16 36  1  0  0  0  0
 17 18  1  0  0  0  0
 17 37  1  0  0  0  0
 17 38  1  0  0  0  0
 18 39  1  0  0  0  0
 18 40  1  0  0  0  0
M  END
> <s_m_source_file>
AV-unprocessed.smi

> <i_m_source_file_index>
3321

> <i_lp_mmshare_version>
43012

> <i_f3d_flags>
0

> <s_epik_input>
W0NIMl0xW0NIMl1bQ0gyXVtDSDJdW0NIMl1OMUMoPU8pW0NASF0oW0NIM10pW05IXVtDSDJdW0NIMl1uMltjSF1bY0hdW2NIXW4y

> <s_epik_cmdline>
J2VwaWtfcHl0aG9uJywgJy1waCcsICc3LjAnLCAnLXRuJywgJzgnLCAnLW1hJywgJzIwMCcsICctbWV0YWxfYmluZGluZycsICctaW1hZScsICc8aW5maWxlLm1hZT4nLCAnLW9tYWUnLCAnPG91dGZpbGUubWFlPic=

> <r_lp_tautomer_probability>
1

> <r_epik_Ionization_Penalty>
0.736446

> <r_epik_Ionization_Penalty_Charging>
0

> <r_epik_Ionization_Penalty_Neutral>
0.736446

> <r_epik_State_Penalty>
0.761204

> <r_epik_Charging_Adjusted_Penalty>
0.761204

> <i_epik_Tot_Q>
0

> <i_epik_Tot_abs_Q>
0

> <r_epik_Metal_State_Penalty>
0.760551

> <b_epik_Metal_Only>
0

> <s_lp_Force_Field>
OPLS_2005

> <r_lp_Energy>
28.7251

> <b_lp_Chiralities_Consistent>
1

> <s_lp_Variant>
AV-unprocessed.smi:3321-4

> <Gold.Version>
5.8.1

> <Gold.Id.Protein>
6NUR|6NUR_protein|mol2

> <Gold.PLP.Fitness>
39.6140

> <Gold.PLP.PLP>
-34.8653

> <Gold.PLP.part.hbond>
-1.9898

> <Gold.PLP.part.metal>
0.0000

> <Gold.PLP.part.buried>
-5.4021

> <Gold.PLP.part.nonpolar>
-30.8901

> <Gold.PLP.part.repulsive>
2.9221

> <Gold.PLP.ligand.clash>
0.0000

> <Gold.PLP.ligand.torsion>
0.6695

> <Gold.PLP.Chemscore.Hbond>
1.0000

> <Gold.PLP.Chemscore.CHOScore>
0.9973

> <Gold.PLP.Chemscore.Metal>
0.0000

> <Gold.Chemscore.Hbonds>
donor molecule, donor type, donor heavy atom, donor atom, acceptor molecule, acceptor atom, score
      L1  H     3    23       P1  8028  1.00
      P1  H  6933  6944       L1    12  0.04
      L1  C     9    30       P1 10171  1.00

> <Gold.PLP.Chemscore.Internal.Correction>
0.0959

> <Gold.Rescore>
     Score         DG    S(hbond)    S(metal)    S(lipo)     H(rot)  DE(clash)    DE(int)     intcor
     14.22     -16.15       1.00        0.00     100.49       1.73       1.07       0.86       ----

> <Gold.Chemscore.Fitness>
14.2177

> <Gold.Chemscore.DG>
-16.1515

> <Gold.Chemscore.ZeroCoef>
-5.4800

> <Gold.Chemscore.Hbond>
0.9989

> <Gold.Chemscore.Metal>
0.0000

> <Gold.Chemscore.Lipo>
100.4949

> <Gold.Chemscore.Internal_Hbond>
0.0000

> <Gold.Chemscore.DEClash>
1.0727

> <Gold.Chemscore.DEInternal>
0.8612

> <Gold.Chemscore.Rot>
1.7277

> <Gold.Chemscore.Internal.Correction>
   9.000000E+99

> <Gold.Chemscore.Hbonds>
donor molecule, donor type, donor heavy atom, donor atom, acceptor molecule, acceptor atom, score
      L1  H     3    23       P1  8028  1.00
      P1  H  6933  6944       L1    12  0.04

> <Gold.Chemscore.Hbond.Weighted>
-3.3364

> <Gold.Chemscore.Metal.Weighted>
-0.0000

> <Gold.Chemscore.Lipo.Weighted>
-11.7579

> <Gold.Chemscore.Internal_Hbond.Weighted>
0.0000

> <Gold.Chemscore.DEClash.Weighted>
1.0727

> <Gold.Chemscore.DEInternal.Weighted>
0.8612

> <Gold.Chemscore.Rot.Weighted>
4.4228

> <Gold.Chemscore.Internal.Correction.Weighted>
   9.000000E+99

> <Gold.Protein.RotatedTorsions>
[ 6907 6896 6895 6894 ] final   88.02 input  -60.11 | X-H torsion
[ 7974 7965 7964 7962 ] final   64.54 input  175.53 | X-H torsion
[ 8008 7997 7996 7995 ] final  -14.19 input   59.86 | X-H torsion
[ 10167 10162 10161 10158 ] final  127.16 input  -65.29 | X-H torsion
[ 10718 10713 10712 10709 ] final -169.91 input   66.30 | X-H torsion
[ 10763 10752 10751 10750 ] final   68.63 input  -60.55 | X-H torsion
[ 11005 11000 10999 10996 ] final  -97.96 input  -57.11 | X-H torsion

> <Gold.Protein.ActiveResidues>
 VAL166  LYS551  ARG553  GLY616  TRP617  ASP618  TYR619  PRO620  LYS621  CYS622 
 ASP623  PHE694  ASN695  SER759  ASP760  ASP761  ALA762  ILE779  LEU786  VAL792 
 PHE793  MET794  SER795  GLU796  ALA797  LYS798  CYS799  TRP800  GLU811  SER814 

> <Gold.Protein.RotatedAtoms>
  152.5419  134.2186  159.8778 H   0  0  0  0  0  0  0  0  0  0  0  0  # atno 6907 bound_to 6896
  151.2164  133.4520  159.2607 H   0  0  0  0  0  0  0  0  0  0  0  0  # atno 6908 bound_to 6896
  151.0847  134.9892  159.8429 H   0  0  0  0  0  0  0  0  0  0  0  0  # atno 6909 bound_to 6896
  145.8490  139.3242  143.0886 H   0  0  0  0  0  0  0  0  0  0  0  0  # atno 7974 bound_to 7965
  154.5231  140.2229  155.8940 H   0  0  0  0  0  0  0  0  0  0  0  0  # atno 8008 bound_to 7997
  156.1683  140.3127  155.8893 H   0  0  0  0  0  0  0  0  0  0  0  0  # atno 8009 bound_to 7997
  155.3610  140.0461  157.3037 H   0  0  0  0  0  0  0  0  0  0  0  0  # atno 8010 bound_to 7997
  139.5593  144.6871  151.4090 H   0  0  0  0  0  0  0  0  0  0  0  0  # atno 10167 bound_to 10162
  156.7184  130.9260  151.3095 H   0  0  0  0  0  0  0  0  0  0  0  0  # atno 10718 bound_to 10713
  153.0245  135.5240  154.7164 H   0  0  0  0  0  0  0  0  0  0  0  0  # atno 10763 bound_to 10752
  154.6231  135.2891  155.0305 H   0  0  0  0  0  0  0  0  0  0  0  0  # atno 10764 bound_to 10752
  154.1284  135.6597  153.4969 H   0  0  0  0  0  0  0  0  0  0  0  0  # atno 10765 bound_to 10752
  141.1361  133.8210  157.0776 H   0  0  0  0  0  0  0  0  0  0  0  0  # atno 11005 bound_to 11000
  145.9379  140.9001  143.0323 LP  0  0  0  0  0  0  0  0  0  0  0  0  # atno 17320 bound_to 7965
  144.6730  140.1508  143.7430 LP  0  0  0  0  0  0  0  0  0  0  0  0  # atno 17321 bound_to 7965
  140.6871  143.7949  150.7201 LP  0  0  0  0  0  0  0  0  0  0  0  0  # atno 17342 bound_to 10162
  140.1420  143.4433  152.2187 LP  0  0  0  0  0  0  0  0  0  0  0  0  # atno 17343 bound_to 10162
  157.6908  130.9231  150.0508 LP  0  0  0  0  0  0  0  0  0  0  0  0  # atno 17370 bound_to 10713
  156.1611  130.3644  149.9297 LP  0  0  0  0  0  0  0  0  0  0  0  0  # atno 17371 bound_to 10713
  140.0472  134.9824  157.1070 LP  0  0  0  0  0  0  0  0  0  0  0  0  # atno 17394 bound_to 11000
  140.4045  134.2047  155.7163 LP  0  0  0  0  0  0  0  0  0  0  0  0  # atno 17395 bound_to 11000

$$$$
