AV-unprocessed.smi:157|AV-procd|sdf|1294|dock10
  -GOLD-   2262018583D 1   1.00000     0.00000
 Structure written by MMmdl.
 35 37  0  0  0  0  0  0  0  0  1 V2000
  144.8192  133.1480  148.9985 O   0  0  0  0  0  0  0  0  0  0  0  0
  144.0651  133.4798  150.1461 C   0  0  0  0  0  0  0  0  0  0  0  0
  144.9491  134.1787  151.2002 C   0  0  2  0  0  0  0  0  0  0  0  0
  144.2263  134.1651  152.4331 O   0  0  0  0  0  0  0  0  0  0  0  0
  143.8512  135.4601  152.8005 C   0  0  2  0  0  0  0  0  0  0  0  0
  142.4075  135.4554  153.1948 N   0  0  0  0  0  0  0  0  0  0  0  0
  141.6366  134.3769  153.3898 C   0  0  0  0  0  0  0  0  0  0  0  0
  140.3887  134.6493  153.7323 N   0  0  0  0  0  0  0  0  0  0  0  0
  140.3412  136.0422  153.7510 C   0  0  0  0  0  0  0  0  0  0  0  0
  141.5817  136.5622  153.4101 C   0  0  0  0  0  0  0  0  0  0  0  0
  142.1267  137.8233  153.2612 N   0  0  0  0  0  0  0  0  0  0  0  0
  141.3152  138.8218  153.1082 C   0  0  0  0  0  0  0  0  0  0  0  0
  139.9292  138.8654  153.1608 N   0  0  0  0  0  0  0  0  0  0  0  0
  139.1533  138.2624  154.2309 C   0  0  0  0  0  0  0  0  0  0  0  0
  139.0657  136.7340  154.1381 C   0  0  1  0  0  0  0  0  0  0  0  0
  138.0942  136.3814  153.1747 O   0  0  0  0  0  0  0  0  0  0  0  0
  144.0628  136.3505  151.5813 C   0  0  0  0  0  0  0  0  0  0  0  0
  145.2526  135.6671  150.9471 C   0  0  2  0  0  0  0  0  0  0  0  0
  145.3922  136.0235  149.5867 O   0  0  0  0  0  0  0  0  0  0  0  0
  145.8731  133.6141  151.3329 H   0  0  0  0  0  0  0  0  0  0  0  0
  144.4093  135.7751  153.6829 H   0  0  0  0  0  0  0  0  0  0  0  0
  138.7137  136.3502  155.0961 H   0  0  0  0  0  0  0  0  0  0  0  0
  146.1597  135.9491  151.4833 H   0  0  0  0  0  0  0  0  0  0  0  0
  145.3085  133.9105  148.7299 H   0  0  0  0  0  0  0  0  0  0  0  0
  143.2076  134.0933  149.8689 H   0  0  0  0  0  0  0  0  0  0  0  0
  143.6701  132.5493  150.5549 H   0  0  0  0  0  0  0  0  0  0  0  0
  141.9985  133.3651  153.2812 H   0  0  0  0  0  0  0  0  0  0  0  0
  141.7386  139.8078  152.9121 H   0  0  0  0  0  0  0  0  0  0  0  0
  139.4590  139.6732  152.7788 H   0  0  0  0  0  0  0  0  0  0  0  0
  139.6375  138.5296  155.1714 H   0  0  0  0  0  0  0  0  0  0  0  0
  138.1582  138.7068  154.2648 H   0  0  0  0  0  0  0  0  0  0  0  0
  138.5439  136.1056  152.3903 H   0  0  0  0  0  0  0  0  0  0  0  0
  143.1871  136.3049  150.9314 H   0  0  0  0  0  0  0  0  0  0  0  0
  144.2441  137.3858  151.8715 H   0  0  0  0  0  0  0  0  0  0  0  0
  145.6457  135.2536  149.1003 H   0  0  0  0  0  0  0  0  0  0  0  0
  1  2  1  0  0  0  0
  1 24  1  0  0  0  0
  2  3  1  0  0  0  0
  2 25  1  0  0  0  0
  2 26  1  0  0  0  0
  3 20  1  0  0  0  0
  3 18  1  0  0  0  0
  3  4  1  0  0  0  0
  4  5  1  0  0  0  0
  5 21  1  0  0  0  0
  5  6  1  0  0  0  0
  5 17  1  0  0  0  0
  6 10  1  0  0  0  0
  6  7  1  0  0  0  0
  7  8  2  0  0  0  0
  7 27  1  0  0  0  0
  8  9  1  0  0  0  0
  9 15  1  0  0  0  0
  9 10  2  0  0  0  0
 10 11  1  0  0  0  0
 11 12  2  0  0  0  0
 12 13  1  0  0  0  0
 12 28  1  0  0  0  0
 13 14  1  0  0  0  0
 13 29  1  0  0  0  0
 14 15  1  0  0  0  0
 14 30  1  0  0  0  0
 14 31  1  0  0  0  0
 15 22  1  0  0  0  0
 15 16  1  0  0  0  0
 16 32  1  0  0  0  0
 17 18  1  0  0  0  0
 17 33  1  0  0  0  0
 17 34  1  0  0  0  0
 18 23  1  0  0  0  0
 18 19  1  0  0  0  0
 19 35  1  0  0  0  0
M  END
> <s_m_source_file>
AV-unprocessed.smi

> <i_m_source_file_index>
157

> <i_lp_mmshare_version>
43012

> <i_f3d_flags>
0

> <s_epik_input>
W09IXVtDSDJdW0NASF0xT1tDQEhdKFtDSDJdW0NAQEhdMVtPSF0pbihbY0hdbjIpYyhjMjMpTj1bQ0hdW05IXVtDSDJdW0NASF0zW09IXQ==

> <s_epik_cmdline>
J2VwaWtfcHl0aG9uJywgJy1waCcsICc3LjAnLCAnLXRuJywgJzgnLCAnLW1hJywgJzIwMCcsICctbWV0YWxfYmluZGluZycsICctaW1hZScsICc8aW5maWxlLm1hZT4nLCAnLW9tYWUnLCAnPG91dGZpbGUubWFlPic=

> <r_lp_tautomer_probability>
1

> <r_epik_Ionization_Penalty>
0.0357149

> <r_epik_Ionization_Penalty_Charging>
0.0355056

> <r_epik_Ionization_Penalty_Neutral>
0.000209255

> <r_epik_State_Penalty>
0.0296046

> <r_epik_Charging_Adjusted_Penalty>
0.0651102

> <i_epik_Tot_Q>
0

> <i_epik_Tot_abs_Q>
0

> <r_epik_Metal_State_Penalty>
3.03559e-05

> <b_epik_Metal_Only>
0

> <s_epik_Chemistry_Notes>
This compound has an imine and may undergo hydrolysis. This compound contains an acetal/aminal-like group ( X-CH(R)-Y where X, Y are N, S, or O) that may be acid/base labile, releasing an aldehyde.

> <s_lp_Force_Field>
OPLS_2005

> <r_lp_Energy>
46.7001

> <b_lp_Chiralities_Consistent>
1

> <s_lp_Variant>
AV-unprocessed.smi:157-4

> <Gold.Version>
5.8.1

> <Gold.Id.Protein>
6NUR|6NUR_protein|mol2

> <Gold.PLP.Fitness>
43.0576

> <Gold.PLP.PLP>
-24.8093

> <Gold.PLP.part.hbond>
-6.8188

> <Gold.PLP.part.metal>
0.0000

> <Gold.PLP.part.buried>
5.3435

> <Gold.PLP.part.nonpolar>
-25.9122

> <Gold.PLP.part.repulsive>
0.7587

> <Gold.PLP.ligand.clash>
0.0000

> <Gold.PLP.ligand.torsion>
0.3103

> <Gold.PLP.Chemscore.Hbond>
3.9526

> <Gold.PLP.Chemscore.CHOScore>
2.3326

> <Gold.PLP.Chemscore.Metal>
0.0000

> <Gold.Chemscore.Hbonds>
donor molecule, donor type, donor heavy atom, donor atom, acceptor molecule, acceptor atom, score
      L1  H     1    24       P1  7921  1.00
      L1  H    13    29       P1 10160  0.08
      L1  H    16    32       P1 10187  1.00
      L1  H    19    35       P1  7921  0.80
      P1  H 10995 11001       L1     8  0.09
      P1  H 11000 11005       L1     8  0.95
      L1  C     7    27       P1 10957  1.00
      L1  C    12    28       P1 10160  0.45
      L1  C    12    28       P1 10175  0.91

> <Gold.PLP.Chemscore.Internal.Correction>
0.0131

> <Gold.Rescore>
     Score         DG    S(hbond)    S(metal)    S(lipo)     H(rot)  DE(clash)    DE(int)     intcor
      5.08     -10.78       2.75        0.00      46.34       3.64       4.12       1.58       ----

> <Gold.Chemscore.Fitness>
5.0817

> <Gold.Chemscore.DG>
-10.7827

> <Gold.Chemscore.ZeroCoef>
-5.4800

> <Gold.Chemscore.Hbond>
2.7515

> <Gold.Chemscore.Metal>
0.0000

> <Gold.Chemscore.Lipo>
46.3369

> <Gold.Chemscore.Internal_Hbond>
0.0000

> <Gold.Chemscore.DEClash>
4.1189

> <Gold.Chemscore.DEInternal>
1.5820

> <Gold.Chemscore.Rot>
3.6362

> <Gold.Chemscore.Internal.Correction>
   9.000000E+99

> <Gold.Chemscore.Hbonds>
donor molecule, donor type, donor heavy atom, donor atom, acceptor molecule, acceptor atom, score
      L1  H     1    24       P1  7921  0.82
      L1  H    13    29       P1 10160  0.08
      L1  H    16    32       P1 10187  0.98
      L1  H    19    35       P1  7921  0.78
      P1  H 10995 11001       L1     8  0.09
      P1  H 11000 11005       L1     8  0.10

> <Gold.Chemscore.Hbond.Weighted>
-9.1900

> <Gold.Chemscore.Metal.Weighted>
-0.0000

> <Gold.Chemscore.Lipo.Weighted>
-5.4214

> <Gold.Chemscore.Internal_Hbond.Weighted>
0.0000

> <Gold.Chemscore.DEClash.Weighted>
4.1189

> <Gold.Chemscore.DEInternal.Weighted>
1.5820

> <Gold.Chemscore.Rot.Weighted>
9.3087

> <Gold.Chemscore.Internal.Correction.Weighted>
   9.000000E+99

> <Gold.Protein.RotatedTorsions>
[ 6907 6896 6895 6894 ] final -169.82 input  -60.11 | X-H torsion
[ 7974 7965 7964 7962 ] final   56.92 input  175.53 | X-H torsion
[ 8008 7997 7996 7995 ] final  -58.12 input   59.86 | X-H torsion
[ 10167 10162 10161 10158 ] final    0.49 input  -65.29 | X-H torsion
[ 10718 10713 10712 10709 ] final  -58.26 input   66.30 | X-H torsion
[ 10763 10752 10751 10750 ] final  -67.32 input  -60.55 | X-H torsion
[ 11005 11000 10999 10996 ] final   31.01 input  -57.11 | X-H torsion

> <Gold.Protein.ActiveResidues>
 VAL166  LYS551  ARG553  GLY616  TRP617  ASP618  TYR619  PRO620  LYS621  CYS622 
 ASP623  PHE694  ASN695  SER759  ASP760  ASP761  ALA762  ILE779  LEU786  VAL792 
 PHE793  MET794  SER795  GLU796  ALA797  LYS798  CYS799  TRP800  GLU811  SER814 

> <Gold.Protein.RotatedAtoms>
  151.4977  133.3511  159.2863 H   0  0  0  0  0  0  0  0  0  0  0  0  # atno 6907 bound_to 6896
  150.8793  134.8183  159.7224 H   0  0  0  0  0  0  0  0  0  0  0  0  # atno 6908 bound_to 6896
  152.4752  134.4872  159.9736 H   0  0  0  0  0  0  0  0  0  0  0  0  # atno 6909 bound_to 6896
  145.9346  139.3836  143.0400 H   0  0  0  0  0  0  0  0  0  0  0  0  # atno 7974 bound_to 7965
  154.4295  140.1091  156.5906 H   0  0  0  0  0  0  0  0  0  0  0  0  # atno 8008 bound_to 7997
  155.6016  140.3493  155.4576 H   0  0  0  0  0  0  0  0  0  0  0  0  # atno 8009 bound_to 7997
  156.0169  140.1231  157.0387 H   0  0  0  0  0  0  0  0  0  0  0  0  # atno 8010 bound_to 7997
  140.6726  143.7005  150.7955 H   0  0  0  0  0  0  0  0  0  0  0  0  # atno 10167 bound_to 10162
  156.1148  130.4171  150.0553 H   0  0  0  0  0  0  0  0  0  0  0  0  # atno 10718 bound_to 10713
  154.3727  135.6091  153.5749 H   0  0  0  0  0  0  0  0  0  0  0  0  # atno 10763 bound_to 10752
  152.9790  135.5842  154.4502 H   0  0  0  0  0  0  0  0  0  0  0  0  # atno 10764 bound_to 10752
  154.4259  135.2847  155.1922 H   0  0  0  0  0  0  0  0  0  0  0  0  # atno 10765 bound_to 10752
  140.2883  134.2893  155.7782 H   0  0  0  0  0  0  0  0  0  0  0  0  # atno 11005 bound_to 11000
  145.8380  140.9595  143.0814 LP  0  0  0  0  0  0  0  0  0  0  0  0  # atno 17320 bound_to 7965
  144.6770  140.0248  143.7483 LP  0  0  0  0  0  0  0  0  0  0  0  0  # atno 17321 bound_to 7965
  140.0693  143.5077  152.2588 LP  0  0  0  0  0  0  0  0  0  0  0  0  # atno 17342 bound_to 10162
  139.6002  144.7580  151.3190 LP  0  0  0  0  0  0  0  0  0  0  0  0  # atno 17343 bound_to 10162
  156.8507  130.9458  151.3625 LP  0  0  0  0  0  0  0  0  0  0  0  0  # atno 17370 bound_to 10713
  157.6331  130.8745  149.9310 LP  0  0  0  0  0  0  0  0  0  0  0  0  # atno 17371 bound_to 10713
  141.2151  133.7569  156.9586 LP  0  0  0  0  0  0  0  0  0  0  0  0  # atno 17394 bound_to 11000
  140.1219  134.9412  157.2215 LP  0  0  0  0  0  0  0  0  0  0  0  0  # atno 17395 bound_to 11000

$$$$
