AV-unprocessed.smi:1487|AV-procd|sdf|6012|dock5
  -GOLD-   22720 6113D 1   1.00000     0.00000
 Structure written by MMmdl.
 48 50  0  0  0  0  0  0  0  0  2 V2000
  153.4504  142.3702  160.3649 C   0  0  0  0  0  0  0  0  0  0  0  0
  152.5994  142.1227  159.1320 C   0  0  0  0  0  0  0  0  0  0  0  0
  152.6578  140.8605  158.4992 C   0  0  0  0  0  0  0  0  0  0  0  0
  151.8819  140.5893  157.3512 C   0  0  0  0  0  0  0  0  0  0  0  0
  151.7807  139.4409  156.5845 N   0  0  0  0  0  0  0  0  0  0  0  0
  150.8991  139.8115  155.6608 C   0  0  0  0  0  0  0  0  0  0  0  0
  150.4134  141.0652  155.7401 N   0  0  0  0  0  0  0  0  0  0  0  0
  149.4453  141.6850  154.8531 C   0  0  0  0  0  0  0  0  0  0  0  0
  147.9915  141.3590  155.2466 C   0  0  1  0  0  0  0  0  0  0  0  0
  147.5909  142.2020  156.3102 O   0  0  0  0  0  0  0  0  0  0  0  0
  147.0226  141.5668  154.0660 C   0  0  0  0  0  0  0  0  0  0  0  0
  146.4434  140.2916  153.5702 N   0  3  1  0  0  0  0  0  0  0  0  0
  147.2504  139.6912  152.4773 C   0  0  0  0  0  0  0  0  0  0  0  0
  146.5323  138.4795  151.8635 C   0  0  0  0  0  0  0  0  0  0  0  0
  146.2121  137.4280  152.9348 C   0  0  0  0  0  0  0  0  0  0  0  0
  145.4471  138.0542  154.1128 C   0  0  2  0  0  0  0  0  0  0  0  0
  144.1268  138.3821  153.7259 O   0  0  0  0  0  0  0  0  0  0  0  0
  146.1600  139.3097  154.6530 C   0  0  0  0  0  0  0  0  0  0  0  0
  151.0403  141.6243  156.8486 C   0  0  0  0  0  0  0  0  0  0  0  0
  150.9746  142.8846  157.4683 C   0  0  0  0  0  0  0  0  0  0  0  0
  151.7552  143.1383  158.6153 C   0  0  0  0  0  0  0  0  0  0  0  0
  151.6744  144.5011  159.2801 C   0  0  0  0  0  0  0  0  0  0  0  0
  154.0094  141.4778  160.6483 H   0  0  0  0  0  0  0  0  0  0  0  0
  152.8255  142.6553  161.2114 H   0  0  0  0  0  0  0  0  0  0  0  0
  154.1678  143.1697  160.1783 H   0  0  0  0  0  0  0  0  0  0  0  0
  153.3009  140.0868  158.8925 H   0  0  0  0  0  0  0  0  0  0  0  0
  150.5861  139.1313  154.8820 H   0  0  0  0  0  0  0  0  0  0  0  0
  149.6132  142.7630  154.8532 H   0  0  0  0  0  0  0  0  0  0  0  0
  149.6454  141.3402  153.8376 H   0  0  0  0  0  0  0  0  0  0  0  0
  147.9530  140.3281  155.5969 H   0  0  0  0  0  0  0  0  0  0  0  0
  148.1405  142.9717  156.3084 H   0  0  0  0  0  0  0  0  0  0  0  0
  146.2223  142.2320  154.3950 H   0  0  0  0  0  0  0  0  0  0  0  0
  147.5227  142.0798  153.2430 H   0  0  0  0  0  0  0  0  0  0  0  0
  147.4232  140.4318  151.6953 H   0  0  0  0  0  0  0  0  0  0  0  0
  148.2291  139.3994  152.8615 H   0  0  0  0  0  0  0  0  0  0  0  0
  145.6113  138.8062  151.3785 H   0  0  0  0  0  0  0  0  0  0  0  0
  147.1504  138.0366  151.0818 H   0  0  0  0  0  0  0  0  0  0  0  0
  145.6443  136.6034  152.5021 H   0  0  0  0  0  0  0  0  0  0  0  0
  147.1455  136.9987  153.3017 H   0  0  0  0  0  0  0  0  0  0  0  0
  145.3663  137.3172  154.9126 H   0  0  0  0  0  0  0  0  0  0  0  0
  144.1242  139.2531  153.3583 H   0  0  0  0  0  0  0  0  0  0  0  0
  147.1021  139.0199  155.1211 H   0  0  0  0  0  0  0  0  0  0  0  0
  145.5520  139.7608  155.4364 H   0  0  0  0  0  0  0  0  0  0  0  0
  150.3264  143.6488  157.0655 H   0  0  0  0  0  0  0  0  0  0  0  0
  150.9964  145.1659  158.7442 H   0  0  0  0  0  0  0  0  0  0  0  0
  152.6564  144.9739  159.3046 H   0  0  0  0  0  0  0  0  0  0  0  0
  151.3100  144.4055  160.3031 H   0  0  0  0  0  0  0  0  0  0  0  0
  145.5537  140.5331  153.1559 H   0  0  0  0  0  0  0  0  0  0  0  0
  1  2  1  0  0  0  0
  1 23  1  0  0  0  0
  1 24  1  0  0  0  0
  1 25  1  0  0  0  0
  2 21  1  0  0  0  0
  2  3  2  0  0  0  0
  3  4  1  0  0  0  0
  3 26  1  0  0  0  0
  4 19  2  0  0  0  0
  4  5  1  0  0  0  0
  5  6  2  0  0  0  0
  6  7  1  0  0  0  0
  6 27  1  0  0  0  0
  7  8  1  0  0  0  0
  7 19  1  0  0  0  0
  8  9  1  0  0  0  0
  8 28  1  0  0  0  0
  8 29  1  0  0  0  0
  9 10  1  0  0  0  0
  9 11  1  0  0  0  0
  9 30  1  0  0  0  0
 10 31  1  0  0  0  0
 11 12  1  0  0  0  0
 11 32  1  0  0  0  0
 11 33  1  0  0  0  0
 12 18  1  0  0  0  0
 12 13  1  0  0  0  0
 12 48  1  0  0  0  0
 13 14  1  0  0  0  0
 13 34  1  0  0  0  0
 13 35  1  0  0  0  0
 14 15  1  0  0  0  0
 14 36  1  0  0  0  0
 14 37  1  0  0  0  0
 15 16  1  0  0  0  0
 15 38  1  0  0  0  0
 15 39  1  0  0  0  0
 16 17  1  0  0  0  0
 16 18  1  0  0  0  0
 16 40  1  0  0  0  0
 17 41  1  0  0  0  0
 18 42  1  0  0  0  0
 18 43  1  0  0  0  0
 19 20  1  0  0  0  0
 20 21  2  0  0  0  0
 20 44  1  0  0  0  0
 21 22  1  0  0  0  0
 22 45  1  0  0  0  0
 22 46  1  0  0  0  0
 22 47  1  0  0  0  0
M  CHG  1  12   1
M  END
> <s_m_source_file>
AV-unprocessed.smi

> <i_m_source_file_index>
1487

> <i_lp_mmshare_version>
43012

> <i_f3d_flags>
0

> <s_epik_input>
W0NIM11jKFtjSF0xKWMoW0NIM10pW2NIXWMoYzEyKW4oW2NIXW4yKVtDSDJdW0NASF0oW09IXSlbQ0gyXU4zW0NIMl1bQ0gyXVtDSDJdW0NAQEhdKFtPSF0pW0NIMl0z

> <s_epik_cmdline>
J2VwaWtfcHl0aG9uJywgJy1waCcsICc3LjAnLCAnLXRuJywgJzgnLCAnLW1hJywgJzIwMCcsICctbWV0YWxfYmluZGluZycsICctaW1hZScsICc8aW5maWxlLm1hZT4nLCAnLW9tYWUnLCAnPG91dGZpbGUubWFlPic=

> <r_epik_Ionization_Penalty>
0.0940186

> <r_epik_Ionization_Penalty_Charging>
0.00679686

> <r_epik_Ionization_Penalty_Neutral>
0.0872218

> <r_epik_State_Penalty>
0.0799311

> <r_epik_Charging_Adjusted_Penalty>
0.086728

> <i_epik_Tot_Q>
1

> <i_epik_Tot_abs_Q>
1

> <r_epik_Metal_State_Penalty>
7.95545e-05

> <b_epik_Metal_Only>
0

> <s_lp_Force_Field>
OPLS_2005

> <r_lp_Energy>
22.2404

> <b_lp_Chiralities_Consistent>
1

> <s_lp_Variant>
AV-unprocessed.smi:1487-6

> <Gold.Version>
5.8.1

> <Gold.Id.Protein>
6NUR|6NUR_protein|mol2

> <Gold.PLP.Fitness>
54.0628

> <Gold.PLP.PLP>
-45.2041

> <Gold.PLP.part.hbond>
-2.6709

> <Gold.PLP.part.metal>
0.0000

> <Gold.PLP.part.buried>
-0.4731

> <Gold.PLP.part.nonpolar>
-42.1216

> <Gold.PLP.part.repulsive>
0.0002

> <Gold.PLP.ligand.clash>
0.0000

> <Gold.PLP.ligand.torsion>
1.5882

> <Gold.PLP.Chemscore.Hbond>
4.0000

> <Gold.PLP.Chemscore.CHOScore>
0.0000

> <Gold.PLP.Chemscore.Metal>
0.0000

> <Gold.Chemscore.Hbonds>
donor molecule, donor type, donor heavy atom, donor atom, acceptor molecule, acceptor atom, score
      L1  H    10    31       P1  8028  1.00
      L1  H    12    48       P1 10175  2.00
      L1  H    17    41       P1 10175  1.00

> <Gold.PLP.Chemscore.Internal.Correction>
0.0352

> <Gold.Rescore>
     Score         DG    S(hbond)    S(metal)    S(lipo)     H(rot)  DE(clash)    DE(int)     intcor
     19.98     -21.82       2.65        0.00     122.47       2.67       0.27       1.57       ----

> <Gold.Chemscore.Fitness>
19.9807

> <Gold.Chemscore.DG>
-21.8198

> <Gold.Chemscore.ZeroCoef>
-5.4800

> <Gold.Chemscore.Hbond>
2.6495

> <Gold.Chemscore.Metal>
0.0000

> <Gold.Chemscore.Lipo>
122.4691

> <Gold.Chemscore.Internal_Hbond>
0.0000

> <Gold.Chemscore.DEClash>
0.2654

> <Gold.Chemscore.DEInternal>
1.5738

> <Gold.Chemscore.Rot>
2.6712

> <Gold.Chemscore.Internal.Correction>
   9.000000E+99

> <Gold.Chemscore.Hbonds>
donor molecule, donor type, donor heavy atom, donor atom, acceptor molecule, acceptor atom, score
      L1  H    10    31       P1  8028  0.58
      L1  H    12    48       P1 10175  0.86
      L1  H    17    41       P1 10175  0.95

> <Gold.Chemscore.Hbond.Weighted>
-8.8493

> <Gold.Chemscore.Metal.Weighted>
-0.0000

> <Gold.Chemscore.Lipo.Weighted>
-14.3289

> <Gold.Chemscore.Internal_Hbond.Weighted>
0.0000

> <Gold.Chemscore.DEClash.Weighted>
0.2654

> <Gold.Chemscore.DEInternal.Weighted>
1.5738

> <Gold.Chemscore.Rot.Weighted>
6.8383

> <Gold.Chemscore.Internal.Correction.Weighted>
   9.000000E+99

> <Gold.Protein.RotatedTorsions>
[ 6907 6896 6895 6894 ] final   99.02 input  -60.11 | X-H torsion
[ 7974 7965 7964 7962 ] final  -56.79 input  175.53 | X-H torsion
[ 8008 7997 7996 7995 ] final  100.35 input   59.86 | X-H torsion
[ 10167 10162 10161 10158 ] final  149.08 input  -65.29 | X-H torsion
[ 10718 10713 10712 10709 ] final  122.80 input   66.30 | X-H torsion
[ 10763 10752 10751 10750 ] final    2.12 input  -60.55 | X-H torsion
[ 11005 11000 10999 10996 ] final -115.42 input  -57.11 | X-H torsion

> <Gold.Protein.ActiveResidues>
 VAL166  LYS551  ARG553  GLY616  TRP617  ASP618  TYR619  PRO620  LYS621  CYS622 
 ASP623  PHE694  ASN695  SER759  ASP760  ASP761  ALA762  ILE779  LEU786  VAL792 
 PHE793  MET794  SER795  GLU796  ALA797  LYS798  CYS799  TRP800  GLU811  SER814 

> <Gold.Protein.RotatedAtoms>
  152.5399  134.0492  159.8102 H   0  0  0  0  0  0  0  0  0  0  0  0  # atno 6907 bound_to 6896
  151.0636  133.5516  159.2639 H   0  0  0  0  0  0  0  0  0  0  0  0  # atno 6908 bound_to 6896
  151.2405  135.0595  159.9077 H   0  0  0  0  0  0  0  0  0  0  0  0  # atno 6909 bound_to 6896
  145.8586  140.8301  142.9948 H   0  0  0  0  0  0  0  0  0  0  0  0  # atno 7974 bound_to 7965
  156.1195  140.3214  155.8188 H   0  0  0  0  0  0  0  0  0  0  0  0  # atno 8008 bound_to 7997
  155.4530  140.0534  157.3016 H   0  0  0  0  0  0  0  0  0  0  0  0  # atno 8009 bound_to 7997
  154.4817  140.2056  155.9762 H   0  0  0  0  0  0  0  0  0  0  0  0  # atno 8010 bound_to 7997
  139.4866  144.5629  151.7198 H   0  0  0  0  0  0  0  0  0  0  0  0  # atno 10167 bound_to 10162
  157.5714  131.1083  150.8360 H   0  0  0  0  0  0  0  0  0  0  0  0  # atno 10718 bound_to 10713
  153.2995  135.6955  153.7216 H   0  0  0  0  0  0  0  0  0  0  0  0  # atno 10763 bound_to 10752
  153.6136  135.3440  155.2988 H   0  0  0  0  0  0  0  0  0  0  0  0  # atno 10764 bound_to 10752
  154.8547  135.4369  154.2102 H   0  0  0  0  0  0  0  0  0  0  0  0  # atno 10765 bound_to 10752
  141.0489  133.9719  157.2871 H   0  0  0  0  0  0  0  0  0  0  0  0  # atno 11005 bound_to 11000
  144.6727  140.1062  143.7458 LP  0  0  0  0  0  0  0  0  0  0  0  0  # atno 17320 bound_to 7965
  145.9274  139.2584  143.1345 LP  0  0  0  0  0  0  0  0  0  0  0  0  # atno 17321 bound_to 7965
  140.5202  144.0890  150.6020 LP  0  0  0  0  0  0  0  0  0  0  0  0  # atno 17342 bound_to 10162
  140.3846  143.2784  152.0131 LP  0  0  0  0  0  0  0  0  0  0  0  0  # atno 17343 bound_to 10162
  156.8830  130.5186  149.5290 LP  0  0  0  0  0  0  0  0  0  0  0  0  # atno 17370 bound_to 10713
  156.0759  130.5781  150.9473 LP  0  0  0  0  0  0  0  0  0  0  0  0  # atno 17371 bound_to 10713
  139.9334  135.0198  156.8476 LP  0  0  0  0  0  0  0  0  0  0  0  0  # atno 17394 bound_to 11000
  140.6094  134.0097  155.7570 LP  0  0  0  0  0  0  0  0  0  0  0  0  # atno 17395 bound_to 11000

$$$$
