AV-unprocessed.smi:2693|AV-procd|sdf|10402|dock10
  -GOLD-   2272014433D 1   1.00000     0.00000
 Structure written by MMmdl.
 45 47  0  0  0  0  0  0  0  0  1 V2000
  145.7853  131.8590  150.9115 C   0  0  0  0  0  0  0  0  0  0  0  0
  144.7123  132.8407  150.7805 N   0  0  0  0  0  0  0  0  0  0  0  0
  143.4859  132.4169  150.1110 C   0  0  0  0  0  0  0  0  0  0  0  0
  144.8514  134.1370  151.2848 C   0  0  0  0  0  0  0  0  0  0  0  0
  143.8190  134.9754  151.1245 N   0  0  0  0  0  0  0  0  0  0  0  0
  143.9457  136.2302  151.6062 C   0  0  0  0  0  0  0  0  0  0  0  0
  145.1236  136.6578  152.2643 C   0  0  0  0  0  0  0  0  0  0  0  0
  145.3494  137.9643  152.7747 N   0  0  0  0  0  0  0  0  0  0  0  0
  146.3580  138.3942  153.5513 C   0  0  0  0  0  0  0  0  0  0  0  0
  147.3306  137.7220  153.8928 O   0  0  0  0  0  0  0  0  0  0  0  0
  146.1829  139.6728  153.9098 N   0  0  0  0  0  0  0  0  0  0  0  0
  147.0997  140.4195  154.7651 C   0  0  1  0  0  0  0  0  0  0  0  0
  148.4862  140.6009  154.1278 C   0  0  2  0  0  0  0  0  0  0  0  0
  149.6894  139.9488  154.7529 C   0  0  0  0  0  0  0  0  0  0  0  0
  150.2645  141.0638  155.6313 C   0  0  0  0  0  0  0  0  0  0  0  0
  149.1695  141.9500  155.8521 O   0  0  0  0  0  0  0  0  0  0  0  0
  148.4342  142.0346  154.6337 C   0  0  2  0  0  0  0  0  0  0  0  0
  146.8971  141.9565  154.7451 C   0  0  0  0  0  0  0  0  0  0  0  0
  146.1486  142.5592  153.5471 C   0  0  0  0  0  0  0  0  0  0  0  0
  146.2832  142.5728  156.0031 C   0  0  0  0  0  0  0  0  0  0  0  0
  146.1487  135.6968  152.3695 C   0  0  0  0  0  0  0  0  0  0  0  0
  146.0088  134.4449  151.8851 N   0  0  0  0  0  0  0  0  0  0  0  0
  146.0506  131.7208  151.9602 H   0  0  0  0  0  0  0  0  0  0  0  0
  146.6724  132.1937  150.3734 H   0  0  0  0  0  0  0  0  0  0  0  0
  145.4992  130.8860  150.5121 H   0  0  0  0  0  0  0  0  0  0  0  0
  142.6418  132.4652  150.7993 H   0  0  0  0  0  0  0  0  0  0  0  0
  143.5561  131.3945  149.7398 H   0  0  0  0  0  0  0  0  0  0  0  0
  143.2725  133.0641  149.2598 H   0  0  0  0  0  0  0  0  0  0  0  0
  143.1019  136.8795  151.4334 H   0  0  0  0  0  0  0  0  0  0  0  0
  144.6655  138.6575  152.5083 H   0  0  0  0  0  0  0  0  0  0  0  0
  145.3609  140.1579  153.5814 H   0  0  0  0  0  0  0  0  0  0  0  0
  147.1714  140.0253  155.7815 H   0  0  0  0  0  0  0  0  0  0  0  0
  148.4590  140.5601  153.0373 H   0  0  0  0  0  0  0  0  0  0  0  0
  149.3966  139.0897  155.3575 H   0  0  0  0  0  0  0  0  0  0  0  0
  150.4139  139.6074  154.0130 H   0  0  0  0  0  0  0  0  0  0  0  0
  150.6753  140.6915  156.5699 H   0  0  0  0  0  0  0  0  0  0  0  0
  151.0533  141.6001  155.1017 H   0  0  0  0  0  0  0  0  0  0  0  0
  148.8314  142.7706  153.9329 H   0  0  0  0  0  0  0  0  0  0  0  0
  146.2622  143.6430  153.5121 H   0  0  0  0  0  0  0  0  0  0  0  0
  145.0801  142.3452  153.5891 H   0  0  0  0  0  0  0  0  0  0  0  0
  146.5205  142.1696  152.5992 H   0  0  0  0  0  0  0  0  0  0  0  0
  146.4149  143.6550  156.0243 H   0  0  0  0  0  0  0  0  0  0  0  0
  146.7392  142.1746  156.9098 H   0  0  0  0  0  0  0  0  0  0  0  0
  145.2141  142.3674  156.0674 H   0  0  0  0  0  0  0  0  0  0  0  0
  147.0901  135.9314  152.8445 H   0  0  0  0  0  0  0  0  0  0  0  0
  1  2  1  0  0  0  0
  1 23  1  0  0  0  0
  1 24  1  0  0  0  0
  1 25  1  0  0  0  0
  2  3  1  0  0  0  0
  2  4  1  0  0  0  0
  3 26  1  0  0  0  0
  3 27  1  0  0  0  0
  3 28  1  0  0  0  0
  4 22  1  0  0  0  0
  4  5  2  0  0  0  0
  5  6  1  0  0  0  0
  6  7  2  0  0  0  0
  6 29  1  0  0  0  0
  7  8  1  0  0  0  0
  7 21  1  0  0  0  0
  8  9  1  0  0  0  0
  8 30  1  0  0  0  0
  9 10  2  0  0  0  0
  9 11  1  0  0  0  0
 11 12  1  0  0  0  0
 11 31  1  0  0  0  0
 12 18  1  0  0  0  0
 12 13  1  0  0  0  0
 12 32  1  0  0  0  0
 13 17  1  0  0  0  0
 13 14  1  0  0  0  0
 13 33  1  0  0  0  0
 14 15  1  0  0  0  0
 14 34  1  0  0  0  0
 14 35  1  0  0  0  0
 15 16  1  0  0  0  0
 15 36  1  0  0  0  0
 15 37  1  0  0  0  0
 16 17  1  0  0  0  0
 17 18  1  0  0  0  0
 17 38  1  0  0  0  0
 18 19  1  0  0  0  0
 18 20  1  0  0  0  0
 19 39  1  0  0  0  0
 19 40  1  0  0  0  0
 19 41  1  0  0  0  0
 20 42  1  0  0  0  0
 20 43  1  0  0  0  0
 20 44  1  0  0  0  0
 21 22  2  0  0  0  0
 21 45  1  0  0  0  0
M  END
> <s_m_source_file>
AV-unprocessed.smi

> <i_m_source_file_index>
2693

> <i_lp_mmshare_version>
43012

> <i_f3d_flags>
0

> <s_epik_input>
W0NIM11OKFtDSDNdKWMxbltjSF1jKFtjSF1uMSlbTkhdQyg9TylbTkhdW0NASF0yQyhbQ0gzXSkoW0NIM10pW0NAQEhdKFtDQEhdMjMpT1tDSDJdW0NIMl0z

> <s_epik_cmdline>
J2VwaWtfcHl0aG9uJywgJy1waCcsICc3LjAnLCAnLXRuJywgJzgnLCAnLW1hJywgJzIwMCcsICctbWV0YWxfYmluZGluZycsICctaW1hZScsICc8aW5maWxlLm1hZT4nLCAnLW9tYWUnLCAnPG91dGZpbGUubWFlPic=

> <r_lp_tautomer_probability>
1

> <r_epik_Ionization_Penalty>
0.00031779

> <r_epik_Ionization_Penalty_Charging>
0

> <r_epik_Ionization_Penalty_Neutral>
0.00031779

> <r_epik_State_Penalty>
-0

> <r_epik_Charging_Adjusted_Penalty>
0

> <i_epik_Tot_Q>
0

> <i_epik_Tot_abs_Q>
0

> <r_epik_Metal_State_Penalty>
-0

> <b_epik_Metal_Only>
0

> <s_lp_Force_Field>
OPLS_2005

> <r_lp_Energy>
29.1856

> <b_lp_Chiralities_Consistent>
1

> <s_lp_Variant>
AV-unprocessed.smi:2693-6

> <Gold.Version>
5.8.1

> <Gold.Id.Protein>
6NUR|6NUR_protein|mol2

> <Gold.PLP.Fitness>
40.2188

> <Gold.PLP.PLP>
-30.0195

> <Gold.PLP.part.hbond>
-2.0000

> <Gold.PLP.part.metal>
0.0000

> <Gold.PLP.part.buried>
0.6593

> <Gold.PLP.part.nonpolar>
-31.0355

> <Gold.PLP.part.repulsive>
3.7467

> <Gold.PLP.ligand.clash>
0.0000

> <Gold.PLP.ligand.torsion>
0.1280

> <Gold.PLP.Chemscore.Hbond>
1.9750

> <Gold.PLP.Chemscore.CHOScore>
1.4514

> <Gold.PLP.Chemscore.Metal>
0.0000

> <Gold.Chemscore.Hbonds>
donor molecule, donor type, donor heavy atom, donor atom, acceptor molecule, acceptor atom, score
      L1  H     8    30       P1 10175  0.96
      L1  H    11    31       P1 10175  0.99
      L1  C     6    29       P1 10171  0.54
      L1  C    21    45       P1  7948  0.91

> <Gold.PLP.Chemscore.Internal.Correction>
0.1762

> <Gold.Rescore>
     Score         DG    S(hbond)    S(metal)    S(lipo)     H(rot)  DE(clash)    DE(int)     intcor
     14.38     -18.52       1.94        0.00      77.89       1.00       2.61       1.52       ----

> <Gold.Chemscore.Fitness>
14.3835

> <Gold.Chemscore.DG>
-18.5194

> <Gold.Chemscore.ZeroCoef>
-5.4800

> <Gold.Chemscore.Hbond>
1.9420

> <Gold.Chemscore.Metal>
0.0000

> <Gold.Chemscore.Lipo>
77.8892

> <Gold.Chemscore.Internal_Hbond>
0.0000

> <Gold.Chemscore.DEClash>
2.6135

> <Gold.Chemscore.DEInternal>
1.5224

> <Gold.Chemscore.Rot>
1.0000

> <Gold.Chemscore.Internal.Correction>
   9.000000E+99

> <Gold.Chemscore.Hbonds>
donor molecule, donor type, donor heavy atom, donor atom, acceptor molecule, acceptor atom, score
      L1  H     8    30       P1 10175  0.90
      L1  H    11    31       P1 10175  0.92

> <Gold.Chemscore.Hbond.Weighted>
-6.4863

> <Gold.Chemscore.Metal.Weighted>
-0.0000

> <Gold.Chemscore.Lipo.Weighted>
-9.1130

> <Gold.Chemscore.Internal_Hbond.Weighted>
0.0000

> <Gold.Chemscore.DEClash.Weighted>
2.6135

> <Gold.Chemscore.DEInternal.Weighted>
1.5224

> <Gold.Chemscore.Rot.Weighted>
2.5600

> <Gold.Chemscore.Internal.Correction.Weighted>
   9.000000E+99

> <Gold.Protein.RotatedTorsions>
[ 6907 6896 6895 6894 ] final  -56.87 input  -60.11 | X-H torsion
[ 7974 7965 7964 7962 ] final  -26.65 input  175.53 | X-H torsion
[ 8008 7997 7996 7995 ] final  103.25 input   59.86 | X-H torsion
[ 10167 10162 10161 10158 ] final  -61.10 input  -65.29 | X-H torsion
[ 10718 10713 10712 10709 ] final -137.52 input   66.30 | X-H torsion
[ 10763 10752 10751 10750 ] final  128.95 input  -60.55 | X-H torsion
[ 11005 11000 10999 10996 ] final  -71.08 input  -57.11 | X-H torsion

> <Gold.Protein.ActiveResidues>
 VAL166  LYS551  ARG553  GLY616  TRP617  ASP618  TYR619  PRO620  LYS621  CYS622 
 ASP623  PHE694  ASN695  SER759  ASP760  ASP761  ALA762  ILE779  LEU786  VAL792 
 PHE793  MET794  SER795  GLU796  ALA797  LYS798  CYS799  TRP800  GLU811  SER814 

> <Gold.Protein.RotatedAtoms>
  150.8132  134.7299  159.6706 H   0  0  0  0  0  0  0  0  0  0  0  0  # atno 6907 bound_to 6896
  152.4252  134.5879  159.9976 H   0  0  0  0  0  0  0  0  0  0  0  0  # atno 6908 bound_to 6896
  151.6083  133.3312  159.3098 H   0  0  0  0  0  0  0  0  0  0  0  0  # atno 6909 bound_to 6896
  146.1411  140.5048  142.8651 H   0  0  0  0  0  0  0  0  0  0  0  0  # atno 7974 bound_to 7965
  156.1467  140.3168  155.8582 H   0  0  0  0  0  0  0  0  0  0  0  0  # atno 8008 bound_to 7997
  155.4050  140.0502  157.3052 H   0  0  0  0  0  0  0  0  0  0  0  0  # atno 8009 bound_to 7997
  154.5022  140.2134  155.9334 H   0  0  0  0  0  0  0  0  0  0  0  0  # atno 8010 bound_to 7997
  140.6028  143.2366  151.5889 H   0  0  0  0  0  0  0  0  0  0  0  0  # atno 10167 bound_to 10162
  156.2890  130.7364  151.1384 H   0  0  0  0  0  0  0  0  0  0  0  0  # atno 10718 bound_to 10713
  153.7339  135.3234  155.3291 H   0  0  0  0  0  0  0  0  0  0  0  0  # atno 10763 bound_to 10752
  154.8317  135.4528  154.1094 H   0  0  0  0  0  0  0  0  0  0  0  0  # atno 10764 bound_to 10752
  153.2249  135.6953  153.8038 H   0  0  0  0  0  0  0  0  0  0  0  0  # atno 10765 bound_to 10752
  141.1586  133.6807  156.6851 H   0  0  0  0  0  0  0  0  0  0  0  0  # atno 11005 bound_to 11000
  144.7793  140.5807  143.6616 LP  0  0  0  0  0  0  0  0  0  0  0  0  # atno 17320 bound_to 7965
  145.5044  139.1482  143.3639 LP  0  0  0  0  0  0  0  0  0  0  0  0  # atno 17321 bound_to 7965
  139.5303  144.2935  152.1132 LP  0  0  0  0  0  0  0  0  0  0  0  0  # atno 17342 bound_to 10162
  140.2119  144.4554  150.6382 LP  0  0  0  0  0  0  0  0  0  0  0  0  # atno 17343 bound_to 10162
  157.7337  131.0588  150.5564 LP  0  0  0  0  0  0  0  0  0  0  0  0  # atno 17370 bound_to 10713
  156.5678  130.4272  149.6033 LP  0  0  0  0  0  0  0  0  0  0  0  0  # atno 17371 bound_to 10713
  140.3073  134.8115  157.4147 LP  0  0  0  0  0  0  0  0  0  0  0  0  # atno 17394 bound_to 11000
  140.1210  134.5220  155.8184 LP  0  0  0  0  0  0  0  0  0  0  0  0  # atno 17395 bound_to 11000

$$$$
