AV-unprocessed.smi:833|AV-procd|sdf|3880|dock2
  -GOLD-   22720 1333D 1   1.00000     0.00000
 Structure written by MMmdl.
 39 40  0  0  0  0  0  0  0  0  1 V2000
  152.5233  142.9699  160.2522 C   0  0  0  0  0  0  0  0  0  0  0  0
  151.6277  144.1813  159.9628 C   0  0  2  0  0  0  0  0  0  0  0  0
  150.2864  143.7430  160.0369 O   0  0  0  0  0  0  0  0  0  0  0  0
  151.8852  144.7643  158.5594 C   0  0  0  0  0  0  0  0  0  0  0  0
  151.1156  144.0709  157.5313 N   0  0  0  0  0  0  0  0  0  0  0  0
  151.2826  142.7891  157.1764 C   0  0  0  0  0  0  0  0  0  0  0  0
  152.1230  142.0477  157.6856 O   0  0  0  0  0  0  0  0  0  0  0  0
  150.4347  142.4454  156.1926 N   0  0  0  0  0  0  0  0  0  0  0  0
  150.3123  141.1966  155.5179 C   0  0  0  0  0  0  0  0  0  0  0  0
  151.3572  140.2396  155.5148 C   0  0  0  0  0  0  0  0  0  0  0  0
  151.1860  139.0327  154.8150 C   0  0  0  0  0  0  0  0  0  0  0  0
  149.9713  138.8207  154.1427 C   0  0  0  0  0  0  0  0  0  0  0  0
  148.9599  139.7114  154.1522 N   0  0  0  0  0  0  0  0  0  0  0  0
  149.1043  140.8737  154.8352 C   0  0  0  0  0  0  0  0  0  0  0  0
  148.0017  141.7582  154.8312 N   0  0  0  0  0  0  0  0  0  0  0  0
  147.0338  141.7296  153.7394 C   0  0  0  0  0  0  0  0  0  0  0  0
  145.8238  142.4960  154.2651 C   0  0  0  0  0  0  0  0  0  0  0  0
  145.8115  142.1084  155.7405 C   0  0  0  0  0  0  0  0  0  0  0  0
  147.2971  141.9741  156.0915 C   0  0  0  0  0  0  0  0  0  0  0  0
  153.5768  143.2502  160.2308 H   0  0  0  0  0  0  0  0  0  0  0  0
  152.3749  142.1789  159.5162 H   0  0  0  0  0  0  0  0  0  0  0  0
  152.3153  142.5530  161.2381 H   0  0  0  0  0  0  0  0  0  0  0  0
  151.7976  144.9350  160.7328 H   0  0  0  0  0  0  0  0  0  0  0  0
  149.7425  144.4828  160.2595 H   0  0  0  0  0  0  0  0  0  0  0  0
  151.6175  145.8224  158.5400 H   0  0  0  0  0  0  0  0  0  0  0  0
  152.9456  144.7188  158.3085 H   0  0  0  0  0  0  0  0  0  0  0  0
  150.4054  144.6081  157.0559 H   0  0  0  0  0  0  0  0  0  0  0  0
  149.8703  143.1926  155.8156 H   0  0  0  0  0  0  0  0  0  0  0  0
  152.2836  140.4047  156.0426 H   0  0  0  0  0  0  0  0  0  0  0  0
  151.9684  138.2886  154.7932 H   0  0  0  0  0  0  0  0  0  0  0  0
  149.8031  137.9088  153.5893 H   0  0  0  0  0  0  0  0  0  0  0  0
  147.4407  142.1839  152.8355 H   0  0  0  0  0  0  0  0  0  0  0  0
  146.7391  140.7057  153.5065 H   0  0  0  0  0  0  0  0  0  0  0  0
  145.9874  143.5698  154.1629 H   0  0  0  0  0  0  0  0  0  0  0  0
  144.8993  142.2402  153.7468 H   0  0  0  0  0  0  0  0  0  0  0  0
  145.2913  142.8326  156.3676 H   0  0  0  0  0  0  0  0  0  0  0  0
  145.3177  141.1431  155.8603 H   0  0  0  0  0  0  0  0  0  0  0  0
  147.4668  141.1640  156.8024 H   0  0  0  0  0  0  0  0  0  0  0  0
  147.6569  142.9002  156.5403 H   0  0  0  0  0  0  0  0  0  0  0  0
  1  2  1  0  0  0  0
  1 20  1  0  0  0  0
  1 21  1  0  0  0  0
  1 22  1  0  0  0  0
  2  3  1  0  0  0  0
  2  4  1  0  0  0  0
  2 23  1  0  0  0  0
  3 24  1  0  0  0  0
  4  5  1  0  0  0  0
  4 25  1  0  0  0  0
  4 26  1  0  0  0  0
  5  6  1  0  0  0  0
  5 27  1  0  0  0  0
  6  7  2  0  0  0  0
  6  8  1  0  0  0  0
  8  9  1  0  0  0  0
  8 28  1  0  0  0  0
  9 14  1  0  0  0  0
  9 10  2  0  0  0  0
 10 11  1  0  0  0  0
 10 29  1  0  0  0  0
 11 12  2  0  0  0  0
 11 30  1  0  0  0  0
 12 13  1  0  0  0  0
 12 31  1  0  0  0  0
 13 14  2  0  0  0  0
 14 15  1  0  0  0  0
 15 19  1  0  0  0  0
 15 16  1  0  0  0  0
 16 17  1  0  0  0  0
 16 32  1  0  0  0  0
 16 33  1  0  0  0  0
 17 18  1  0  0  0  0
 17 34  1  0  0  0  0
 17 35  1  0  0  0  0
 18 19  1  0  0  0  0
 18 36  1  0  0  0  0
 18 37  1  0  0  0  0
 19 38  1  0  0  0  0
 19 39  1  0  0  0  0
M  END
> <s_m_source_file>
AV-unprocessed.smi

> <i_m_source_file_index>
833

> <i_lp_mmshare_version>
43012

> <i_f3d_flags>
0

> <s_epik_input>
W0NIM11bQ0BIXShbT0hdKVtDSDJdW05IXUMoPU8pW05IXWMxW2NIXVtjSF1bY0hdbmMxTjJbQ0gyXVtDSDJdW0NIMl1bQ0gyXTI=

> <s_epik_cmdline>
J2VwaWtfcHl0aG9uJywgJy1waCcsICc3LjAnLCAnLXRuJywgJzgnLCAnLW1hJywgJzIwMCcsICctbWV0YWxfYmluZGluZycsICctaW1hZScsICc8aW5maWxlLm1hZT4nLCAnLW9tYWUnLCAnPG91dGZpbGUubWFlPic=

> <r_lp_tautomer_probability>
1

> <r_epik_Ionization_Penalty>
0.0986749

> <r_epik_Ionization_Penalty_Charging>
0

> <r_epik_Ionization_Penalty_Neutral>
0.0986749

> <r_epik_State_Penalty>
0.0881977

> <r_epik_Charging_Adjusted_Penalty>
0.0881977

> <i_epik_Tot_Q>
0

> <i_epik_Tot_abs_Q>
0

> <r_epik_Metal_State_Penalty>
0.0755487

> <b_epik_Metal_Only>
0

> <s_lp_Force_Field>
OPLS_2005

> <r_lp_Energy>
31.5613

> <b_lp_Chiralities_Consistent>
1

> <s_lp_Variant>
AV-unprocessed.smi:833-1

> <Gold.Version>
5.8.1

> <Gold.Id.Protein>
6NUR|6NUR_protein|mol2

> <Gold.PLP.Fitness>
48.3369

> <Gold.PLP.PLP>
-40.6923

> <Gold.PLP.part.hbond>
-3.0000

> <Gold.PLP.part.metal>
0.0000

> <Gold.PLP.part.buried>
-3.9354

> <Gold.PLP.part.nonpolar>
-33.7306

> <Gold.PLP.part.repulsive>
0.7101

> <Gold.PLP.ligand.clash>
0.0000

> <Gold.PLP.ligand.torsion>
0.8170

> <Gold.PLP.Chemscore.Hbond>
1.9913

> <Gold.PLP.Chemscore.CHOScore>
0.9955

> <Gold.PLP.Chemscore.Metal>
0.0000

> <Gold.Chemscore.Hbonds>
donor molecule, donor type, donor heavy atom, donor atom, acceptor molecule, acceptor atom, score
      L1  H     5    27       P1  8028  1.00
      L1  H     8    28       P1  8028  1.00
      L1  C    12    31       P1  7948  1.00

> <Gold.PLP.Chemscore.Internal.Correction>
0.3184

> <Gold.Rescore>
     Score         DG    S(hbond)    S(metal)    S(lipo)     H(rot)  DE(clash)    DE(int)     intcor
     12.78     -16.14       1.87        0.00      82.12       2.03       0.02       3.34       ----

> <Gold.Chemscore.Fitness>
12.7803

> <Gold.Chemscore.DG>
-16.1377

> <Gold.Chemscore.ZeroCoef>
-5.4800

> <Gold.Chemscore.Hbond>
1.8706

> <Gold.Chemscore.Metal>
0.0000

> <Gold.Chemscore.Lipo>
82.1220

> <Gold.Chemscore.Internal_Hbond>
0.0000

> <Gold.Chemscore.DEClash>
0.0161

> <Gold.Chemscore.DEInternal>
3.3413

> <Gold.Chemscore.Rot>
2.0306

> <Gold.Chemscore.Internal.Correction>
   9.000000E+99

> <Gold.Chemscore.Hbonds>
donor molecule, donor type, donor heavy atom, donor atom, acceptor molecule, acceptor atom, score
      L1  H     5    27       P1  8028  0.62
      L1  H     8    28       P1  8028  1.00

> <Gold.Chemscore.Hbond.Weighted>
-6.2478

> <Gold.Chemscore.Metal.Weighted>
-0.0000

> <Gold.Chemscore.Lipo.Weighted>
-9.6083

> <Gold.Chemscore.Internal_Hbond.Weighted>
0.0000

> <Gold.Chemscore.DEClash.Weighted>
0.0161

> <Gold.Chemscore.DEInternal.Weighted>
3.3413

> <Gold.Chemscore.Rot.Weighted>
5.1984

> <Gold.Chemscore.Internal.Correction.Weighted>
   9.000000E+99

> <Gold.Protein.RotatedTorsions>
[ 6907 6896 6895 6894 ] final   56.40 input  -60.11 | X-H torsion
[ 7974 7965 7964 7962 ] final  -16.58 input  175.53 | X-H torsion
[ 8008 7997 7996 7995 ] final   66.94 input   59.86 | X-H torsion
[ 10167 10162 10161 10158 ] final   70.09 input  -65.29 | X-H torsion
[ 10718 10713 10712 10709 ] final   15.49 input   66.30 | X-H torsion
[ 10763 10752 10751 10750 ] final  -52.64 input  -60.55 | X-H torsion
[ 11005 11000 10999 10996 ] final -122.67 input  -57.11 | X-H torsion

> <Gold.Protein.ActiveResidues>
 VAL166  LYS551  ARG553  GLY616  TRP617  ASP618  TYR619  PRO620  LYS621  CYS622 
 ASP623  PHE694  ASN695  SER759  ASP760  ASP761  ALA762  ILE779  LEU786  VAL792 
 PHE793  MET794  SER795  GLU796  ALA797  LYS798  CYS799  TRP800  GLU811  SER814 

> <Gold.Protein.RotatedAtoms>
  152.3633  134.6841  160.0199 H   0  0  0  0  0  0  0  0  0  0  0  0  # atno 6907 bound_to 6896
  151.7157  133.3308  159.3310 H   0  0  0  0  0  0  0  0  0  0  0  0  # atno 6908 bound_to 6896
  150.7620  134.6427  159.6290 H   0  0  0  0  0  0  0  0  0  0  0  0  # atno 6909 bound_to 6896
  146.1981  140.3656  142.8433 H   0  0  0  0  0  0  0  0  0  0  0  0  # atno 7974 bound_to 7965
  155.6852  140.3496  155.4871 H   0  0  0  0  0  0  0  0  0  0  0  0  # atno 8008 bound_to 7997
  155.9572  140.1130  157.0949 H   0  0  0  0  0  0  0  0  0  0  0  0  # atno 8009 bound_to 7997
  154.4135  140.1182  156.5117 H   0  0  0  0  0  0  0  0  0  0  0  0  # atno 8010 bound_to 7997
  140.0607  144.5235  150.7296 H   0  0  0  0  0  0  0  0  0  0  0  0  # atno 10167 bound_to 10162
  157.0542  130.6282  149.5773 H   0  0  0  0  0  0  0  0  0  0  0  0  # atno 10718 bound_to 10713
  154.1460  135.6497  153.4953 H   0  0  0  0  0  0  0  0  0  0  0  0  # atno 10763 bound_to 10752
  153.0152  135.5327  154.6856 H   0  0  0  0  0  0  0  0  0  0  0  0  # atno 10764 bound_to 10752
  154.6131  135.2956  155.0381 H   0  0  0  0  0  0  0  0  0  0  0  0  # atno 10765 bound_to 10752
  140.9978  134.0447  157.3576 H   0  0  0  0  0  0  0  0  0  0  0  0  # atno 11005 bound_to 11000
  144.8624  140.7158  143.6099 LP  0  0  0  0  0  0  0  0  0  0  0  0  # atno 17320 bound_to 7965
  145.3576  139.1690  143.4401 LP  0  0  0  0  0  0  0  0  0  0  0  0  # atno 17321 bound_to 7965
  140.7173  143.2556  151.4392 LP  0  0  0  0  0  0  0  0  0  0  0  0  # atno 17342 bound_to 10162
  139.5896  144.1529  152.2071 LP  0  0  0  0  0  0  0  0  0  0  0  0  # atno 17343 bound_to 10162
  155.9998  130.5075  150.7620 LP  0  0  0  0  0  0  0  0  0  0  0  0  # atno 17370 bound_to 10713
  157.5006  131.0918  151.0319 LP  0  0  0  0  0  0  0  0  0  0  0  0  # atno 17371 bound_to 10713
  139.9023  135.0169  156.7327 LP  0  0  0  0  0  0  0  0  0  0  0  0  # atno 17394 bound_to 11000
  140.6938  133.9366  155.7982 LP  0  0  0  0  0  0  0  0  0  0  0  0  # atno 17395 bound_to 11000

$$$$
