AV-unprocessed.smi:1661|AV-procd|sdf|6653|dock7
  -GOLD-   22720 7363D 1   1.00000     0.00000
 Structure written by MMmdl.
 38 39  0  0  0  0  0  0  0  0  2 V2000
  141.4446  134.5608  153.1052 C   0  0  0  0  0  0  0  0  0  0  0  0
  142.8672  135.1250  152.9853 C   0  0  2  0  0  0  0  0  0  0  0  0
  142.8982  136.6459  153.2096 C   0  0  0  0  0  0  0  0  0  0  0  0
  144.3227  137.2049  153.0555 C   0  0  0  0  0  0  0  0  0  0  0  0
  144.8915  136.8688  151.7246 N   0  3  1  0  0  0  0  0  0  0  0  0
  146.2135  137.5061  151.5028 C   0  0  0  0  0  0  0  0  0  0  0  0
  146.3263  138.8797  152.1930 C   0  0  0  0  0  0  0  0  0  0  0  0
  147.7041  139.1825  152.5626 N   0  0  0  0  0  0  0  0  0  0  0  0
  148.1659  139.2195  153.8211 C   0  0  0  0  0  0  0  0  0  0  0  0
  147.4571  139.0082  154.8056 O   0  0  0  0  0  0  0  0  0  0  0  0
  149.4774  139.5146  153.8536 N   0  0  0  0  0  0  0  0  0  0  0  0
  150.3204  139.6491  154.9886 C   0  0  0  0  0  0  0  0  0  0  0  0
  151.6431  139.8647  154.9118 N   0  0  0  0  0  0  0  0  0  0  0  0
  152.2286  139.9550  156.1680 N   0  0  0  0  0  0  0  0  0  0  0  0
  151.3259  139.8045  157.1414 C   0  0  0  0  0  0  0  0  0  0  0  0
  149.6717  139.5381  156.6185 S   0  0  0  0  0  0  0  0  0  0  0  0
  144.9065  135.3988  151.4970 C   0  0  0  0  0  0  0  0  0  0  0  0
  143.4941  134.8029  151.6186 C   0  0  0  0  0  0  0  0  0  0  0  0
  140.7807  134.9925  152.3556 H   0  0  0  0  0  0  0  0  0  0  0  0
  141.0197  134.7719  154.0870 H   0  0  0  0  0  0  0  0  0  0  0  0
  141.4393  133.4787  152.9709 H   0  0  0  0  0  0  0  0  0  0  0  0
  143.4769  134.6547  153.7584 H   0  0  0  0  0  0  0  0  0  0  0  0
  142.2349  137.1395  152.4976 H   0  0  0  0  0  0  0  0  0  0  0  0
  142.5168  136.8848  154.2029 H   0  0  0  0  0  0  0  0  0  0  0  0
  144.2944  138.2879  153.1822 H   0  0  0  0  0  0  0  0  0  0  0  0
  144.9704  136.8102  153.8400 H   0  0  0  0  0  0  0  0  0  0  0  0
  146.9970  136.8633  151.9071 H   0  0  0  0  0  0  0  0  0  0  0  0
  146.4044  137.5833  150.4312 H   0  0  0  0  0  0  0  0  0  0  0  0
  145.9452  139.6807  151.5591 H   0  0  0  0  0  0  0  0  0  0  0  0
  145.7222  138.8895  153.1006 H   0  0  0  0  0  0  0  0  0  0  0  0
  148.3514  139.3648  151.8093 H   0  0  0  0  0  0  0  0  0  0  0  0
  149.9278  139.6606  152.9622 H   0  0  0  0  0  0  0  0  0  0  0  0
  151.6364  139.8511  158.1748 H   0  0  0  0  0  0  0  0  0  0  0  0
  145.2994  135.1698  150.5073 H   0  0  0  0  0  0  0  0  0  0  0  0
  145.5756  134.9243  152.2169 H   0  0  0  0  0  0  0  0  0  0  0  0
  143.5396  133.7228  151.4745 H   0  0  0  0  0  0  0  0  0  0  0  0
  142.8636  135.1946  150.8189 H   0  0  0  0  0  0  0  0  0  0  0  0
  144.2626  137.2678  151.0424 H   0  0  0  0  0  0  0  0  0  0  0  0
  1  2  1  0  0  0  0
  1 19  1  0  0  0  0
  1 20  1  0  0  0  0
  1 21  1  0  0  0  0
  2 18  1  0  0  0  0
  2  3  1  0  0  0  0
  2 22  1  0  0  0  0
  3  4  1  0  0  0  0
  3 23  1  0  0  0  0
  3 24  1  0  0  0  0
  4  5  1  0  0  0  0
  4 25  1  0  0  0  0
  4 26  1  0  0  0  0
  5  6  1  0  0  0  0
  5 17  1  0  0  0  0
  5 38  1  0  0  0  0
  6  7  1  0  0  0  0
  6 27  1  0  0  0  0
  6 28  1  0  0  0  0
  7  8  1  0  0  0  0
  7 29  1  0  0  0  0
  7 30  1  0  0  0  0
  8  9  1  0  0  0  0
  8 31  1  0  0  0  0
  9 10  2  0  0  0  0
  9 11  1  0  0  0  0
 11 12  1  0  0  0  0
 11 32  1  0  0  0  0
 12 16  1  0  0  0  0
 12 13  2  0  0  0  0
 13 14  1  0  0  0  0
 14 15  2  0  0  0  0
 15 16  1  0  0  0  0
 15 33  1  0  0  0  0
 17 18  1  0  0  0  0
 17 34  1  0  0  0  0
 17 35  1  0  0  0  0
 18 36  1  0  0  0  0
 18 37  1  0  0  0  0
M  CHG  1   5   1
M  END
> <s_m_source_file>
AV-unprocessed.smi

> <i_m_source_file_index>
1661

> <i_lp_mmshare_version>
43012

> <i_f3d_flags>
0

> <s_epik_input>
W0NIM11bQ0hdMVtDSDJdW0NIMl1OKFtDSDJdW0NIMl0xKVtDSDJdW0NIMl1bTkhdQyg9TylbTkhdYzJubltjSF1zMg==

> <s_epik_cmdline>
J2VwaWtfcHl0aG9uJywgJy1waCcsICc3LjAnLCAnLXRuJywgJzgnLCAnLW1hJywgJzIwMCcsICctbWV0YWxfYmluZGluZycsICctaW1hZScsICc8aW5maWxlLm1hZT4nLCAnLW9tYWUnLCAnPG91dGZpbGUubWFlPic=

> <r_lp_tautomer_probability>
1

> <r_epik_Ionization_Penalty>
0.0053917

> <r_epik_Ionization_Penalty_Charging>
0.00168873

> <r_epik_Ionization_Penalty_Neutral>
0.00370297

> <r_epik_State_Penalty>
-0

> <r_epik_Charging_Adjusted_Penalty>
0.00168873

> <i_epik_Tot_Q>
1

> <i_epik_Tot_abs_Q>
1

> <r_epik_Metal_State_Penalty>
0.36997

> <b_epik_Metal_Only>
0

> <s_lp_Force_Field>
OPLS_2005

> <r_lp_Energy>
14.0049

> <b_lp_Chiralities_Consistent>
1

> <s_lp_Variant>
AV-unprocessed.smi:1661-1

> <Gold.Version>
5.8.1

> <Gold.Id.Protein>
6NUR|6NUR_protein|mol2

> <Gold.PLP.Fitness>
43.1003

> <Gold.PLP.PLP>
-29.6535

> <Gold.PLP.part.hbond>
-5.1289

> <Gold.PLP.part.metal>
0.0000

> <Gold.PLP.part.buried>
-0.5695

> <Gold.PLP.part.nonpolar>
-24.9769

> <Gold.PLP.part.repulsive>
0.3675

> <Gold.PLP.ligand.clash>
0.0000

> <Gold.PLP.ligand.torsion>
0.4815

> <Gold.PLP.Chemscore.Hbond>
4.7953

> <Gold.PLP.Chemscore.CHOScore>
0.0000

> <Gold.PLP.Chemscore.Metal>
0.0000

> <Gold.Chemscore.Hbonds>
donor molecule, donor type, donor heavy atom, donor atom, acceptor molecule, acceptor atom, score
      L1  H     5    38       P1 10171  1.00
      L1  H     8    31       P1  7957  1.00
      L1  H    11    32       P1  7957  0.88
      P1  H  7989  7998       L1    13  0.95
      P1  H  7997  8010       L1    14  0.73

> <Gold.PLP.Chemscore.Internal.Correction>
0.0241

> <Gold.Rescore>
     Score         DG    S(hbond)    S(metal)    S(lipo)     H(rot)  DE(clash)    DE(int)     intcor
     18.48     -20.92       4.04        0.00      54.00       1.70       0.73       1.71       ----

> <Gold.Chemscore.Fitness>
18.4838

> <Gold.Chemscore.DG>
-20.9155

> <Gold.Chemscore.ZeroCoef>
-5.4800

> <Gold.Chemscore.Hbond>
4.0363

> <Gold.Chemscore.Metal>
0.0000

> <Gold.Chemscore.Lipo>
54.0013

> <Gold.Chemscore.Internal_Hbond>
0.0000

> <Gold.Chemscore.DEClash>
0.7262

> <Gold.Chemscore.DEInternal>
1.7054

> <Gold.Chemscore.Rot>
1.7046

> <Gold.Chemscore.Internal.Correction>
   9.000000E+99

> <Gold.Chemscore.Hbonds>
donor molecule, donor type, donor heavy atom, donor atom, acceptor molecule, acceptor atom, score
      L1  H     5    38       P1 10171  0.95
      L1  H     8    31       P1  7957  0.93
      L1  H    11    32       P1  7957  0.86
      P1  H  7989  7998       L1    13  0.21
      P1  H  7997  8010       L1    14  0.63

> <Gold.Chemscore.Hbond.Weighted>
-13.4811

> <Gold.Chemscore.Metal.Weighted>
-0.0000

> <Gold.Chemscore.Lipo.Weighted>
-6.3181

> <Gold.Chemscore.Internal_Hbond.Weighted>
0.0000

> <Gold.Chemscore.DEClash.Weighted>
0.7262

> <Gold.Chemscore.DEInternal.Weighted>
1.7054

> <Gold.Chemscore.Rot.Weighted>
4.3638

> <Gold.Chemscore.Internal.Correction.Weighted>
   9.000000E+99

> <Gold.Protein.RotatedTorsions>
[ 6907 6896 6895 6894 ] final  165.74 input  -60.11 | X-H torsion
[ 7974 7965 7964 7962 ] final  156.01 input  175.53 | X-H torsion
[ 8008 7997 7996 7995 ] final   90.04 input   59.86 | X-H torsion
[ 10167 10162 10161 10158 ] final   58.83 input  -65.29 | X-H torsion
[ 10718 10713 10712 10709 ] final   87.31 input   66.30 | X-H torsion
[ 10763 10752 10751 10750 ] final   28.16 input  -60.55 | X-H torsion
[ 11005 11000 10999 10996 ] final   83.15 input  -57.11 | X-H torsion

> <Gold.Protein.ActiveResidues>
 VAL166  LYS551  ARG553  GLY616  TRP617  ASP618  TYR619  PRO620  LYS621  CYS622 
 ASP623  PHE694  ASN695  SER759  ASP760  ASP761  ALA762  ILE779  LEU786  VAL792 
 PHE793  MET794  SER795  GLU796  ALA797  LYS798  CYS799  TRP800  GLU811  SER814 

> <Gold.Protein.RotatedAtoms>
  151.8897  133.3513  159.3793 H   0  0  0  0  0  0  0  0  0  0  0  0  # atno 6907 bound_to 6896
  150.7106  134.4936  159.5537 H   0  0  0  0  0  0  0  0  0  0  0  0  # atno 6908 bound_to 6896
  152.2504  134.8139  160.0498 H   0  0  0  0  0  0  0  0  0  0  0  0  # atno 6909 bound_to 6896
  144.7989  139.7146  143.6190 H   0  0  0  0  0  0  0  0  0  0  0  0  # atno 7974 bound_to 7965
  156.0072  140.3354  155.6904 H   0  0  0  0  0  0  0  0  0  0  0  0  # atno 8008 bound_to 7997
  155.6209  140.0675  157.2696 H   0  0  0  0  0  0  0  0  0  0  0  0  # atno 8009 bound_to 7997
  154.4269  140.1777  156.1358 H   0  0  0  0  0  0  0  0  0  0  0  0  # atno 8010 bound_to 7997
  140.1830  144.4163  150.6606 H   0  0  0  0  0  0  0  0  0  0  0  0  # atno 10167 bound_to 10162
  157.6939  131.0250  150.3105 H   0  0  0  0  0  0  0  0  0  0  0  0  # atno 10718 bound_to 10713
  153.0509  135.6520  154.0696 H   0  0  0  0  0  0  0  0  0  0  0  0  # atno 10763 bound_to 10752
  154.0384  135.2905  155.3360 H   0  0  0  0  0  0  0  0  0  0  0  0  # atno 10764 bound_to 10752
  154.6797  135.5324  153.8313 H   0  0  0  0  0  0  0  0  0  0  0  0  # atno 10765 bound_to 10752
  139.9040  134.8124  156.2271 H   0  0  0  0  0  0  0  0  0  0  0  0  # atno 11005 bound_to 11000
  146.2265  139.5732  142.9584 LP  0  0  0  0  0  0  0  0  0  0  0  0  # atno 17320 bound_to 7965
  145.5603  141.0405  143.2230 LP  0  0  0  0  0  0  0  0  0  0  0  0  # atno 17321 bound_to 7965
  140.6507  143.2224  151.6083 LP  0  0  0  0  0  0  0  0  0  0  0  0  # atno 17342 bound_to 10162
  139.5288  144.2978  152.1099 LP  0  0  0  0  0  0  0  0  0  0  0  0  # atno 17343 bound_to 10162
  156.3607  130.3846  149.7254 LP  0  0  0  0  0  0  0  0  0  0  0  0  # atno 17370 bound_to 10713
  156.4701  130.7992  151.3010 LP  0  0  0  0  0  0  0  0  0  0  0  0  # atno 17371 bound_to 10713
  141.0369  133.6958  156.1528 LP  0  0  0  0  0  0  0  0  0  0  0  0  # atno 17394 bound_to 11000
  140.7014  134.4560  157.5586 LP  0  0  0  0  0  0  0  0  0  0  0  0  # atno 17395 bound_to 11000

$$$$
