AV-unprocessed.smi:1231|AV-procd|sdf|5166|dock9
  -GOLD-   22720 4243D 1   1.00000     0.00000
 Structure written by MMmdl.
 43 44  0  0  0  0  0  0  0  0  2 V2000
  149.6274  133.5518  153.7525 C   0  0  0  0  0  0  0  0  0  0  0  0
  149.9845  134.1386  155.1298 C   0  0  1  0  0  0  0  0  0  0  0  0
  150.9461  135.3413  155.0569 C   0  0  0  0  0  0  0  0  0  0  0  0
  150.2518  136.5561  154.5678 N   0  3  2  0  0  0  0  0  0  0  0  0
  151.1682  137.7152  154.4327 C   0  0  0  0  0  0  0  0  0  0  0  0
  150.4144  139.0259  154.1361 C   0  0  0  0  0  0  0  0  0  0  0  0
  150.2046  139.8095  155.3480 N   0  0  0  0  0  0  0  0  0  0  0  0
  151.1788  140.2029  156.1814 C   0  0  0  0  0  0  0  0  0  0  0  0
  152.3685  139.9420  155.9989 O   0  0  0  0  0  0  0  0  0  0  0  0
  150.6834  140.9038  157.2164 N   0  0  0  0  0  0  0  0  0  0  0  0
  151.3940  141.4996  158.2925 C   0  0  0  0  0  0  0  0  0  0  0  0
  150.8633  142.7255  158.7542 C   0  0  0  0  0  0  0  0  0  0  0  0
  151.4951  143.3966  159.8191 C   0  0  0  0  0  0  0  0  0  0  0  0
  152.6439  142.8246  160.3941 C   0  0  0  0  0  0  0  0  0  0  0  0
  153.1080  141.6023  159.8736 C   0  0  0  0  0  0  0  0  0  0  0  0
  152.5034  140.9570  158.8537 N   0  0  0  0  0  0  0  0  0  0  0  0
  149.0612  136.8388  155.4052 C   0  0  0  0  0  0  0  0  0  0  0  0
  148.1166  135.6238  155.4235 C   0  0  2  0  0  0  0  0  0  0  0  0
  146.9152  135.8438  156.3493 C   0  0  0  0  0  0  0  0  0  0  0  0
  148.8255  134.4788  155.8904 O   0  0  0  0  0  0  0  0  0  0  0  0
  150.5200  133.1807  153.2481 H   0  0  0  0  0  0  0  0  0  0  0  0
  149.1671  134.2879  153.0942 H   0  0  0  0  0  0  0  0  0  0  0  0
  148.9366  132.7145  153.8542 H   0  0  0  0  0  0  0  0  0  0  0  0
  150.4875  133.3473  155.6864 H   0  0  0  0  0  0  0  0  0  0  0  0
  151.3562  135.5428  156.0480 H   0  0  0  0  0  0  0  0  0  0  0  0
  151.7906  135.1022  154.4091 H   0  0  0  0  0  0  0  0  0  0  0  0
  151.7792  137.8035  155.3325 H   0  0  0  0  0  0  0  0  0  0  0  0
  151.8599  137.5310  153.6091 H   0  0  0  0  0  0  0  0  0  0  0  0
  150.9876  139.6331  153.4351 H   0  0  0  0  0  0  0  0  0  0  0  0
  149.4498  138.8360  153.6648 H   0  0  0  0  0  0  0  0  0  0  0  0
  149.2529  140.0631  155.5711 H   0  0  0  0  0  0  0  0  0  0  0  0
  149.6821  141.0271  157.2382 H   0  0  0  0  0  0  0  0  0  0  0  0
  149.9793  143.1510  158.3013 H   0  0  0  0  0  0  0  0  0  0  0  0
  151.1041  144.3334  160.1878 H   0  0  0  0  0  0  0  0  0  0  0  0
  153.1559  143.3090  161.2123 H   0  0  0  0  0  0  0  0  0  0  0  0
  153.9874  141.1305  160.2860 H   0  0  0  0  0  0  0  0  0  0  0  0
  149.3794  137.0856  156.4197 H   0  0  0  0  0  0  0  0  0  0  0  0
  148.5230  137.7053  155.0222 H   0  0  0  0  0  0  0  0  0  0  0  0
  147.7381  135.4389  154.4180 H   0  0  0  0  0  0  0  0  0  0  0  0
  146.3228  136.7006  156.0277 H   0  0  0  0  0  0  0  0  0  0  0  0
  147.2351  136.0250  157.3761 H   0  0  0  0  0  0  0  0  0  0  0  0
  146.2617  134.9709  156.3535 H   0  0  0  0  0  0  0  0  0  0  0  0
  149.9195  136.3397  153.6390 H   0  0  0  0  0  0  0  0  0  0  0  0
  1  2  1  0  0  0  0
  1 21  1  0  0  0  0
  1 22  1  0  0  0  0
  1 23  1  0  0  0  0
  2 20  1  0  0  0  0
  2  3  1  0  0  0  0
  2 24  1  0  0  0  0
  3  4  1  0  0  0  0
  3 25  1  0  0  0  0
  3 26  1  0  0  0  0
  4  5  1  0  0  0  0
  4 17  1  0  0  0  0
  4 43  1  0  0  0  0
  5  6  1  0  0  0  0
  5 27  1  0  0  0  0
  5 28  1  0  0  0  0
  6  7  1  0  0  0  0
  6 29  1  0  0  0  0
  6 30  1  0  0  0  0
  7  8  1  0  0  0  0
  7 31  1  0  0  0  0
  8  9  2  0  0  0  0
  8 10  1  0  0  0  0
 10 11  1  0  0  0  0
 10 32  1  0  0  0  0
 11 16  1  0  0  0  0
 11 12  2  0  0  0  0
 12 13  1  0  0  0  0
 12 33  1  0  0  0  0
 13 14  2  0  0  0  0
 13 34  1  0  0  0  0
 14 15  1  0  0  0  0
 14 35  1  0  0  0  0
 15 16  2  0  0  0  0
 15 36  1  0  0  0  0
 17 18  1  0  0  0  0
 17 37  1  0  0  0  0
 17 38  1  0  0  0  0
 18 19  1  0  0  0  0
 18 20  1  0  0  0  0
 18 39  1  0  0  0  0
 19 40  1  0  0  0  0
 19 41  1  0  0  0  0
 19 42  1  0  0  0  0
M  CHG  1   4   1
M  END
> <s_m_source_file>
AV-unprocessed.smi

> <i_m_source_file_index>
1231

> <i_lp_mmshare_version>
43012

> <i_f3d_flags>
0

> <s_epik_input>
W0NIM11bQ0BASF0xW0NIMl1OKFtDSDJdW0NASF0oTzEpW0NIM10pW0NIMl1bQ0gyXVtOSF1DKD1PKVtOSF1jMltjSF1bY0hdW2NIXVtjSF1uMg==

> <s_epik_cmdline>
J2VwaWtfcHl0aG9uJywgJy1waCcsICc3LjAnLCAnLXRuJywgJzgnLCAnLW1hJywgJzIwMCcsICctbWV0YWxfYmluZGluZycsICctaW1hZScsICc8aW5maWxlLm1hZT4nLCAnLW9tYWUnLCAnPG91dGZpbGUubWFlPic=

> <r_epik_Ionization_Penalty>
0.602565

> <r_epik_Ionization_Penalty_Charging>
0.602531

> <r_epik_Ionization_Penalty_Neutral>
3.43186e-05

> <r_epik_State_Penalty>
0.617039

> <r_epik_Charging_Adjusted_Penalty>
1.21957

> <i_epik_Tot_Q>
1

> <i_epik_Tot_abs_Q>
1

> <r_epik_Metal_State_Penalty>
0.617041

> <b_epik_Metal_Only>
0

> <s_lp_Force_Field>
OPLS_2005

> <r_lp_Energy>
18.3102

> <b_lp_Chiralities_Consistent>
1

> <s_lp_Variant>
AV-unprocessed.smi:1231-7

> <Gold.Version>
5.8.1

> <Gold.Id.Protein>
6NUR|6NUR_protein|mol2

> <Gold.PLP.Fitness>
42.7061

> <Gold.PLP.PLP>
-34.8923

> <Gold.PLP.part.hbond>
-2.2284

> <Gold.PLP.part.metal>
0.0000

> <Gold.PLP.part.buried>
-3.7124

> <Gold.PLP.part.nonpolar>
-27.7383

> <Gold.PLP.part.repulsive>
0.2571

> <Gold.PLP.ligand.clash>
0.0000

> <Gold.PLP.ligand.torsion>
0.5981

> <Gold.PLP.Chemscore.Hbond>
3.0000

> <Gold.PLP.Chemscore.CHOScore>
0.0000

> <Gold.PLP.Chemscore.Metal>
0.0000

> <Gold.Chemscore.Hbonds>
donor molecule, donor type, donor heavy atom, donor atom, acceptor molecule, acceptor atom, score
      L1  H     4    43       P1  7948  1.80
      P1  H  7997  8009       L1     9  1.00

> <Gold.PLP.Chemscore.Internal.Correction>
0.0100

> <Gold.Rescore>
     Score         DG    S(hbond)    S(metal)    S(lipo)     H(rot)  DE(clash)    DE(int)     intcor
     15.76     -17.05       1.94        0.00      77.61       1.55       0.04       1.25       ----

> <Gold.Chemscore.Fitness>
15.7641

> <Gold.Chemscore.DG>
-17.0480

> <Gold.Chemscore.ZeroCoef>
-5.4800

> <Gold.Chemscore.Hbond>
1.9362

> <Gold.Chemscore.Metal>
0.0000

> <Gold.Chemscore.Lipo>
77.6142

> <Gold.Chemscore.Internal_Hbond>
0.0000

> <Gold.Chemscore.DEClash>
0.0368

> <Gold.Chemscore.DEInternal>
1.2471

> <Gold.Chemscore.Rot>
1.5546

> <Gold.Chemscore.Internal.Correction>
   9.000000E+99

> <Gold.Chemscore.Hbonds>
donor molecule, donor type, donor heavy atom, donor atom, acceptor molecule, acceptor atom, score
      L1  H     4    43       P1  7948  0.17
      P1  H  7997  8009       L1     9  0.97

> <Gold.Chemscore.Hbond.Weighted>
-6.4668

> <Gold.Chemscore.Metal.Weighted>
-0.0000

> <Gold.Chemscore.Lipo.Weighted>
-9.0809

> <Gold.Chemscore.Internal_Hbond.Weighted>
0.0000

> <Gold.Chemscore.DEClash.Weighted>
0.0368

> <Gold.Chemscore.DEInternal.Weighted>
1.2471

> <Gold.Chemscore.Rot.Weighted>
3.9797

> <Gold.Chemscore.Internal.Correction.Weighted>
   9.000000E+99

> <Gold.Protein.RotatedTorsions>
[ 6907 6896 6895 6894 ] final -101.17 input  -60.11 | X-H torsion
[ 7974 7965 7964 7962 ] final  -21.07 input  175.53 | X-H torsion
[ 8008 7997 7996 7995 ] final -160.38 input   59.86 | X-H torsion
[ 10167 10162 10161 10158 ] final  119.03 input  -65.29 | X-H torsion
[ 10718 10713 10712 10709 ] final   37.40 input   66.30 | X-H torsion
[ 10763 10752 10751 10750 ] final   54.25 input  -60.55 | X-H torsion
[ 11005 11000 10999 10996 ] final -154.36 input  -57.11 | X-H torsion

> <Gold.Protein.ActiveResidues>
 VAL166  LYS551  ARG553  GLY616  TRP617  ASP618  TYR619  PRO620  LYS621  CYS622 
 ASP623  PHE694  ASN695  SER759  ASP760  ASP761  ALA762  ILE779  LEU786  VAL792 
 PHE793  MET794  SER795  GLU796  ALA797  LYS798  CYS799  TRP800  GLU811  SER814 

> <Gold.Protein.RotatedAtoms>
  150.7144  134.0774  159.3885 H   0  0  0  0  0  0  0  0  0  0  0  0  # atno 6907 bound_to 6896
  151.8758  135.0470  160.0493 H   0  0  0  0  0  0  0  0  0  0  0  0  # atno 6908 bound_to 6896
  152.2607  133.5259  159.5416 H   0  0  0  0  0  0  0  0  0  0  0  0  # atno 6909 bound_to 6896
  146.1753  140.4289  142.8516 H   0  0  0  0  0  0  0  0  0  0  0  0  # atno 7974 bound_to 7965
  155.7766  140.0859  157.2080 H   0  0  0  0  0  0  0  0  0  0  0  0  # atno 8008 bound_to 7997
  154.3992  140.1515  156.3061 H   0  0  0  0  0  0  0  0  0  0  0  0  # atno 8009 bound_to 7997
  155.8694  140.3426  155.5813 H   0  0  0  0  0  0  0  0  0  0  0  0  # atno 8010 bound_to 7997
  139.6072  144.7073  151.2925 H   0  0  0  0  0  0  0  0  0  0  0  0  # atno 10167 bound_to 10162
  157.3464  130.7575  149.6948 H   0  0  0  0  0  0  0  0  0  0  0  0  # atno 10718 bound_to 10713
  152.9803  135.5751  154.4874 H   0  0  0  0  0  0  0  0  0  0  0  0  # atno 10763 bound_to 10752
  154.4414  135.2776  155.1847 H   0  0  0  0  0  0  0  0  0  0  0  0  # atno 10764 bound_to 10752
  154.3513  135.6208  153.5698 H   0  0  0  0  0  0  0  0  0  0  0  0  # atno 10765 bound_to 10752
  140.6982  134.3966  157.5212 H   0  0  0  0  0  0  0  0  0  0  0  0  # atno 11005 bound_to 11000
  144.8227  140.6577  143.6342 LP  0  0  0  0  0  0  0  0  0  0  0  0  # atno 17320 bound_to 7965
  145.4227  139.1561  143.4065 LP  0  0  0  0  0  0  0  0  0  0  0  0  # atno 17321 bound_to 7965
  140.7293  143.6910  150.7922 LP  0  0  0  0  0  0  0  0  0  0  0  0  # atno 17342 bound_to 10162
  140.0498  143.5261  152.2679 LP  0  0  0  0  0  0  0  0  0  0  0  0  # atno 17343 bound_to 10162
  155.9715  130.4153  150.4174 LP  0  0  0  0  0  0  0  0  0  0  0  0  # atno 17370 bound_to 10713
  157.2230  131.0487  151.2536 LP  0  0  0  0  0  0  0  0  0  0  0  0  # atno 17371 bound_to 10713
  139.8904  134.8806  156.2371 LP  0  0  0  0  0  0  0  0  0  0  0  0  # atno 17394 bound_to 11000
  141.0185  133.7054  156.1229 LP  0  0  0  0  0  0  0  0  0  0  0  0  # atno 17395 bound_to 11000

$$$$
