AV-unprocessed.smi:2061|AV-procd|sdf|8378|dock2
  -GOLD-   2272011 53D 1   1.00000     0.00000
 Structure written by MMmdl.
 44 45  0  0  0  0  0  0  0  0  2 V2000
  144.9927  134.3500  162.9926 C   0  0  0  0  0  0  0  0  0  0  0  0
  145.8777  135.0846  162.0445 C   0  0  0  0  0  0  0  0  0  0  0  0
  146.3640  136.3610  162.0283 C   0  0  0  0  0  0  0  0  0  0  0  0
  147.1480  136.3951  160.8425 C   0  0  0  0  0  0  0  0  0  0  0  0
  147.8274  137.4536  160.3747 N   0  5  0  0  0  0  0  0  0  0  0  0
  148.6505  137.3201  159.3092 C   0  0  0  0  0  0  0  0  0  0  0  0
  149.1311  136.2672  158.8834 O   0  0  0  0  0  0  0  0  0  0  0  0
  148.9383  138.4805  158.7018 N   0  0  0  0  0  0  0  0  0  0  0  0
  149.8123  138.6478  157.5427 C   0  0  0  0  0  0  0  0  0  0  0  0
  149.9715  140.1306  157.0948 C   0  0  2  0  0  0  0  0  0  0  0  0
  150.7131  140.1634  155.7336 C   0  0  0  0  0  0  0  0  0  0  0  0
  150.6147  140.9890  158.1180 N   0  0  0  0  0  0  0  0  0  0  0  0
  151.8394  140.3925  158.6592 C   0  0  0  0  0  0  0  0  0  0  0  0
  152.5085  141.2661  159.7353 C   0  0  1  0  0  0  0  0  0  0  0  0
  153.8298  140.6638  160.2251 C   0  0  0  0  0  0  0  0  0  0  0  0
  152.7853  142.5552  159.1988 O   0  0  0  0  0  0  0  0  0  0  0  0
  151.6556  143.2236  158.6424 C   0  0  2  0  0  0  0  0  0  0  0  0
  150.7086  143.7554  159.7321 C   0  0  0  0  0  0  0  0  0  0  0  0
  150.9518  142.3230  157.6075 C   0  0  0  0  0  0  0  0  0  0  0  0
  147.1245  135.2462  160.1881 N   0  0  0  0  0  0  0  0  0  0  0  0
  146.3163  134.3987  160.9551 O   0  0  0  0  0  0  0  0  0  0  0  0
  143.9571  134.6706  162.8786 H   0  0  0  0  0  0  0  0  0  0  0  0
  145.2933  134.5352  164.0239 H   0  0  0  0  0  0  0  0  0  0  0  0
  145.0356  133.2749  162.8172 H   0  0  0  0  0  0  0  0  0  0  0  0
  146.1908  137.1450  162.7498 H   0  0  0  0  0  0  0  0  0  0  0  0
  148.5221  139.3174  159.0827 H   0  0  0  0  0  0  0  0  0  0  0  0
  150.7658  138.1922  157.8055 H   0  0  0  0  0  0  0  0  0  0  0  0
  149.4040  138.0550  156.7238 H   0  0  0  0  0  0  0  0  0  0  0  0
  148.9681  140.5208  156.9175 H   0  0  0  0  0  0  0  0  0  0  0  0
  150.2707  139.4888  155.0014 H   0  0  0  0  0  0  0  0  0  0  0  0
  151.7599  139.8801  155.8482 H   0  0  0  0  0  0  0  0  0  0  0  0
  150.6776  141.1458  155.2657 H   0  0  0  0  0  0  0  0  0  0  0  0
  151.6250  139.4318  159.1230 H   0  0  0  0  0  0  0  0  0  0  0  0
  152.5450  140.2021  157.8488 H   0  0  0  0  0  0  0  0  0  0  0  0
  151.8404  141.3637  160.5916 H   0  0  0  0  0  0  0  0  0  0  0  0
  153.6743  139.6768  160.6613 H   0  0  0  0  0  0  0  0  0  0  0  0
  154.2862  141.2954  160.9876 H   0  0  0  0  0  0  0  0  0  0  0  0
  154.5437  140.5602  159.4074 H   0  0  0  0  0  0  0  0  0  0  0  0
  152.0476  144.0930  158.1142 H   0  0  0  0  0  0  0  0  0  0  0  0
  149.9182  144.3650  159.2940 H   0  0  0  0  0  0  0  0  0  0  0  0
  151.2483  144.3779  160.4461 H   0  0  0  0  0  0  0  0  0  0  0  0
  150.2267  142.9501  160.2861 H   0  0  0  0  0  0  0  0  0  0  0  0
  151.5944  142.2218  156.7314 H   0  0  0  0  0  0  0  0  0  0  0  0
  150.0600  142.8527  157.2800 H   0  0  0  0  0  0  0  0  0  0  0  0
  1  2  1  0  0  0  0
  1 22  1  0  0  0  0
  1 23  1  0  0  0  0
  1 24  1  0  0  0  0
  2 21  1  0  0  0  0
  2  3  2  0  0  0  0
  3  4  1  0  0  0  0
  3 25  1  0  0  0  0
  4  5  1  0  0  0  0
  4 20  2  0  0  0  0
  5  6  1  0  0  0  0
  6  7  2  0  0  0  0
  6  8  1  0  0  0  0
  8  9  1  0  0  0  0
  8 26  1  0  0  0  0
  9 10  1  0  0  0  0
  9 27  1  0  0  0  0
  9 28  1  0  0  0  0
 10 11  1  0  0  0  0
 10 12  1  0  0  0  0
 10 29  1  0  0  0  0
 11 30  1  0  0  0  0
 11 31  1  0  0  0  0
 11 32  1  0  0  0  0
 12 19  1  0  0  0  0
 12 13  1  0  0  0  0
 13 14  1  0  0  0  0
 13 33  1  0  0  0  0
 13 34  1  0  0  0  0
 14 15  1  0  0  0  0
 14 16  1  0  0  0  0
 14 35  1  0  0  0  0
 15 36  1  0  0  0  0
 15 37  1  0  0  0  0
 15 38  1  0  0  0  0
 16 17  1  0  0  0  0
 17 18  1  0  0  0  0
 17 19  1  0  0  0  0
 17 39  1  0  0  0  0
 18 40  1  0  0  0  0
 18 41  1  0  0  0  0
 18 42  1  0  0  0  0
 19 43  1  0  0  0  0
 19 44  1  0  0  0  0
 20 21  1  0  0  0  0
M  CHG  1   5  -1
M  END
> <s_m_source_file>
AV-unprocessed.smi

> <i_m_source_file_index>
2061

> <i_lp_mmshare_version>
43012

> <i_f3d_flags>
0

> <s_epik_input>
W0NIM11jMVtjSF1jKG5vMSlbTkhdQyg9TylbTkhdW0NIMl1bQ0BIXShbQ0gzXSlOMltDSDJdW0NAQEhdKFtDSDNdKU9bQ0BASF0oW0NIM10pW0NIMl0y

> <s_epik_cmdline>
J2VwaWtfcHl0aG9uJywgJy1waCcsICc3LjAnLCAnLXRuJywgJzgnLCAnLW1hJywgJzIwMCcsICctbWV0YWxfYmluZGluZycsICctaW1hZScsICc8aW5maWxlLm1hZT4nLCAnLW9tYWUnLCAnPG91dGZpbGUubWFlPic=

> <r_epik_Ionization_Penalty>
6.88367

> <r_epik_Ionization_Penalty_Charging>
6.57198

> <r_epik_Ionization_Penalty_Neutral>
0.311681

> <r_epik_State_Penalty>
6.77619

> <r_epik_Charging_Adjusted_Penalty>
13.3482

> <i_epik_Tot_Q>
-1

> <i_epik_Tot_abs_Q>
1

> <r_epik_Metal_State_Penalty>
2.70524

> <b_epik_Metal_Only>
1

> <s_lp_Force_Field>
OPLS_2005

> <r_lp_Energy>
23.679

> <b_lp_Chiralities_Consistent>
1

> <s_lp_Variant>
AV-unprocessed.smi:2061-19

> <Gold.Version>
5.8.1

> <Gold.Id.Protein>
6NUR|6NUR_protein|mol2

> <Gold.PLP.Fitness>
44.9313

> <Gold.PLP.PLP>
-36.0054

> <Gold.PLP.part.hbond>
-3.0000

> <Gold.PLP.part.metal>
0.0000

> <Gold.PLP.part.buried>
-4.9092

> <Gold.PLP.part.nonpolar>
-29.8455

> <Gold.PLP.part.repulsive>
0.2147

> <Gold.PLP.ligand.clash>
0.0000

> <Gold.PLP.ligand.torsion>
0.2787

> <Gold.PLP.Chemscore.Hbond>
3.1494

> <Gold.PLP.Chemscore.CHOScore>
0.0000

> <Gold.PLP.Chemscore.Metal>
0.0000

> <Gold.Chemscore.Hbonds>
donor molecule, donor type, donor heavy atom, donor atom, acceptor molecule, acceptor atom, score
      P1  H  6896  6909       L1     7  0.19
      P1  H  6931  6943       L1     5  1.03
      P1  H  6934  6947       L1     5  1.57

> <Gold.PLP.Chemscore.Internal.Correction>
0.0352

> <Gold.Rescore>
     Score         DG    S(hbond)    S(metal)    S(lipo)     H(rot)  DE(clash)    DE(int)     intcor
     16.06     -17.92       1.83        0.00      87.25       1.52       0.01       1.86       ----

> <Gold.Chemscore.Fitness>
16.0578

> <Gold.Chemscore.DG>
-17.9240

> <Gold.Chemscore.ZeroCoef>
-5.4800

> <Gold.Chemscore.Hbond>
1.8336

> <Gold.Chemscore.Metal>
0.0000

> <Gold.Chemscore.Lipo>
87.2512

> <Gold.Chemscore.Internal_Hbond>
0.0000

> <Gold.Chemscore.DEClash>
0.0060

> <Gold.Chemscore.DEInternal>
1.8602

> <Gold.Chemscore.Rot>
1.5190

> <Gold.Chemscore.Internal.Correction>
   9.000000E+99

> <Gold.Chemscore.Hbonds>
donor molecule, donor type, donor heavy atom, donor atom, acceptor molecule, acceptor atom, score
      P1  H  6896  6909       L1     7  0.19
      P1  H  6931  6943       L1     5  0.18
      P1  H  6934  6947       L1     5  0.70

> <Gold.Chemscore.Hbond.Weighted>
-6.1243

> <Gold.Chemscore.Metal.Weighted>
-0.0000

> <Gold.Chemscore.Lipo.Weighted>
-10.2084

> <Gold.Chemscore.Internal_Hbond.Weighted>
0.0000

> <Gold.Chemscore.DEClash.Weighted>
0.0060

> <Gold.Chemscore.DEInternal.Weighted>
1.8602

> <Gold.Chemscore.Rot.Weighted>
3.8886

> <Gold.Chemscore.Internal.Correction.Weighted>
   9.000000E+99

> <Gold.Protein.RotatedTorsions>
[ 6907 6896 6895 6894 ] final   54.59 input  -60.11 | X-H torsion
[ 7974 7965 7964 7962 ] final -175.87 input  175.53 | X-H torsion
[ 8008 7997 7996 7995 ] final -172.84 input   59.86 | X-H torsion
[ 10167 10162 10161 10158 ] final   49.82 input  -65.29 | X-H torsion
[ 10718 10713 10712 10709 ] final -123.67 input   66.30 | X-H torsion
[ 10763 10752 10751 10750 ] final   16.95 input  -60.55 | X-H torsion
[ 11005 11000 10999 10996 ] final  101.62 input  -57.11 | X-H torsion

> <Gold.Protein.ActiveResidues>
 VAL166  LYS551  ARG553  GLY616  TRP617  ASP618  TYR619  PRO620  LYS621  CYS622 
 ASP623  PHE694  ASN695  SER759  ASP760  ASP761  ALA762  ILE779  LEU786  VAL792 
 PHE793  MET794  SER795  GLU796  ALA797  LYS798  CYS799  TRP800  GLU811  SER814 

> <Gold.Protein.RotatedAtoms>
  152.3454  134.7079  160.0251 H   0  0  0  0  0  0  0  0  0  0  0  0  # atno 6907 bound_to 6896
  151.7450  133.3318  159.3384 H   0  0  0  0  0  0  0  0  0  0  0  0  # atno 6908 bound_to 6896
  150.7505  134.6176  159.6164 H   0  0  0  0  0  0  0  0  0  0  0  0  # atno 6909 bound_to 6896
  144.7127  140.1256  143.6402 H   0  0  0  0  0  0  0  0  0  0  0  0  # atno 7974 bound_to 7965
  155.9498  140.1124  157.0986 H   0  0  0  0  0  0  0  0  0  0  0  0  # atno 8008 bound_to 7997
  154.4107  140.1203  156.5103 H   0  0  0  0  0  0  0  0  0  0  0  0  # atno 8009 bound_to 7997
  155.6857  140.3473  155.4875 H   0  0  0  0  0  0  0  0  0  0  0  0  # atno 8010 bound_to 7997
  140.2788  144.3180  150.6270 H   0  0  0  0  0  0  0  0  0  0  0  0  # atno 10167 bound_to 10162
  156.1521  130.6542  150.9929 H   0  0  0  0  0  0  0  0  0  0  0  0  # atno 10718 bound_to 10713
  153.1383  135.6754  153.9068 H   0  0  0  0  0  0  0  0  0  0  0  0  # atno 10763 bound_to 10752
  153.8532  135.3090  155.3435 H   0  0  0  0  0  0  0  0  0  0  0  0  # atno 10764 bound_to 10752
  154.7766  135.4911  153.9840 H   0  0  0  0  0  0  0  0  0  0  0  0  # atno 10765 bound_to 10752
  139.8774  134.9190  156.4934 H   0  0  0  0  0  0  0  0  0  0  0  0  # atno 11005 bound_to 11000
  145.9332  139.2620  143.1312 LP  0  0  0  0  0  0  0  0  0  0  0  0  # atno 17320 bound_to 7965
  145.9501  140.8915  143.0263 LP  0  0  0  0  0  0  0  0  0  0  0  0  # atno 17321 bound_to 7965
  140.5828  143.2171  151.7396 LP  0  0  0  0  0  0  0  0  0  0  0  0  # atno 17342 bound_to 10162
  139.4968  144.4054  152.0137 LP  0  0  0  0  0  0  0  0  0  0  0  0  # atno 17343 bound_to 10162
  157.6666  131.0870  150.7714 LP  0  0  0  0  0  0  0  0  0  0  0  0  # atno 17370 bound_to 10713
  156.7782  130.4850  149.5406 LP  0  0  0  0  0  0  0  0  0  0  0  0  # atno 17371 bound_to 10713
  140.8642  133.8037  155.9296 LP  0  0  0  0  0  0  0  0  0  0  0  0  # atno 17394 bound_to 11000
  140.9019  134.2368  157.5037 LP  0  0  0  0  0  0  0  0  0  0  0  0  # atno 17395 bound_to 11000

$$$$
