AV-unprocessed.smi:2927|AV-procd|sdf|11230|dock4
  -GOLD-   2272016123D 1   1.00000     0.00000
 Structure written by MMmdl.
 54 55  0  0  0  0  0  0  0  0  1 V2000
  152.5997  138.6201  154.7625 C   0  0  0  0  0  0  0  0  0  0  0  0
  151.4218  138.0882  155.5680 C   0  0  0  0  0  0  0  0  0  0  0  0
  151.2071  136.7599  155.6257 C   0  0  0  0  0  0  0  0  0  0  0  0
  150.1079  136.1654  156.3803 C   0  0  0  0  0  0  0  0  0  0  0  0
  149.9442  134.9446  156.4109 O   0  0  0  0  0  0  0  0  0  0  0  0
  149.2912  137.0360  157.0523 N   0  0  0  0  0  0  0  0  0  0  0  0
  148.2261  136.4525  157.9052 C   0  0  0  0  0  0  0  0  0  0  0  0
  148.5947  136.3960  159.3966 C   0  0  0  0  0  0  0  0  0  0  0  0
  149.7324  136.6750  159.7776 O   0  0  0  0  0  0  0  0  0  0  0  0
  147.6138  136.0146  160.2292 N   0  0  0  0  0  0  0  0  0  0  0  0
  147.7357  135.8889  161.6788 C   0  0  0  0  0  0  0  0  0  0  0  0
  147.2715  134.4978  162.1384 C   0  0  0  0  0  0  0  0  0  0  0  0
  146.9345  137.0080  162.3569 C   0  0  0  0  0  0  0  0  0  0  0  0
  149.4576  138.4522  156.9703 C   0  0  0  0  0  0  0  0  0  0  0  0
  148.3937  139.3133  157.6706 C   0  0  0  0  0  0  0  0  0  0  0  0
  150.5040  138.9723  156.2758 C   0  0  0  0  0  0  0  0  0  0  0  0
  150.6948  140.4178  156.1643 C   0  0  0  0  0  0  0  0  0  0  0  0
  150.6369  141.0102  155.0861 O   0  0  0  0  0  0  0  0  0  0  0  0
  150.9167  141.0624  157.3406 N   0  0  0  0  0  0  0  0  0  0  0  0
  151.1247  140.3747  158.6242 C   0  0  0  0  0  0  0  0  0  0  0  0
  150.9989  142.5302  157.3877 C   0  0  0  0  0  0  0  0  0  0  0  0
  152.2938  143.0023  158.0579 C   0  0  0  0  0  0  0  0  0  0  0  0
  152.3696  142.9929  159.5925 C   0  0  0  0  0  0  0  0  0  0  0  0
  152.0970  144.4984  159.5763 C   0  0  0  0  0  0  0  0  0  0  0  0
  152.5971  144.5084  158.1308 C   0  0  0  0  0  0  0  0  0  0  0  0
  153.1969  137.8122  154.3382 H   0  0  0  0  0  0  0  0  0  0  0  0
  153.2552  139.2210  155.3934 H   0  0  0  0  0  0  0  0  0  0  0  0
  152.2478  139.2414  153.9385 H   0  0  0  0  0  0  0  0  0  0  0  0
  151.8754  136.0931  155.1001 H   0  0  0  0  0  0  0  0  0  0  0  0
  147.3031  137.0267  157.8036 H   0  0  0  0  0  0  0  0  0  0  0  0
  147.9258  135.4603  157.5715 H   0  0  0  0  0  0  0  0  0  0  0  0
  146.7112  135.8020  159.8296 H   0  0  0  0  0  0  0  0  0  0  0  0
  148.7828  136.0155  161.9600 H   0  0  0  0  0  0  0  0  0  0  0  0
  147.3633  134.3922  163.2197 H   0  0  0  0  0  0  0  0  0  0  0  0
  147.8706  133.7095  161.6813 H   0  0  0  0  0  0  0  0  0  0  0  0
  146.2287  134.3191  161.8744 H   0  0  0  0  0  0  0  0  0  0  0  0
  147.0369  136.9605  163.4413 H   0  0  0  0  0  0  0  0  0  0  0  0
  145.8723  136.9374  162.1196 H   0  0  0  0  0  0  0  0  0  0  0  0
  147.2838  137.9903  162.0369 H   0  0  0  0  0  0  0  0  0  0  0  0
  148.3135  140.3133  157.2464 H   0  0  0  0  0  0  0  0  0  0  0  0
  148.6336  139.4240  158.7282 H   0  0  0  0  0  0  0  0  0  0  0  0
  147.3915  138.8978  157.5808 H   0  0  0  0  0  0  0  0  0  0  0  0
  150.2207  139.8509  158.9349 H   0  0  0  0  0  0  0  0  0  0  0  0
  151.3850  141.0556  159.4344 H   0  0  0  0  0  0  0  0  0  0  0  0
  151.9339  139.6474  158.5490 H   0  0  0  0  0  0  0  0  0  0  0  0
  150.9162  142.9594  156.3889 H   0  0  0  0  0  0  0  0  0  0  0  0
  150.1351  142.9275  157.9233 H   0  0  0  0  0  0  0  0  0  0  0  0
  153.1589  142.4756  157.6524 H   0  0  0  0  0  0  0  0  0  0  0  0
  151.6001  142.3988  160.0865 H   0  0  0  0  0  0  0  0  0  0  0  0
  153.3661  142.7488  159.9649 H   0  0  0  0  0  0  0  0  0  0  0  0
  151.0355  144.7376  159.6587 H   0  0  0  0  0  0  0  0  0  0  0  0
  152.7008  145.0802  160.2733 H   0  0  0  0  0  0  0  0  0  0  0  0
  153.6635  144.7277  158.0550 H   0  0  0  0  0  0  0  0  0  0  0  0
  152.0122  145.1333  157.4555 H   0  0  0  0  0  0  0  0  0  0  0  0
  1  2  1  0  0  0  0
  1 26  1  0  0  0  0
  1 27  1  0  0  0  0
  1 28  1  0  0  0  0
  2 16  1  0  0  0  0
  2  3  2  0  0  0  0
  3  4  1  0  0  0  0
  3 29  1  0  0  0  0
  4  5  2  0  0  0  0
  4  6  1  0  0  0  0
  6  7  1  0  0  0  0
  6 14  1  0  0  0  0
  7  8  1  0  0  0  0
  7 30  1  0  0  0  0
  7 31  1  0  0  0  0
  8  9  2  0  0  0  0
  8 10  1  0  0  0  0
 10 11  1  0  0  0  0
 10 32  1  0  0  0  0
 11 12  1  0  0  0  0
 11 13  1  0  0  0  0
 11 33  1  0  0  0  0
 12 34  1  0  0  0  0
 12 35  1  0  0  0  0
 12 36  1  0  0  0  0
 13 37  1  0  0  0  0
 13 38  1  0  0  0  0
 13 39  1  0  0  0  0
 14 15  1  0  0  0  0
 14 16  2  0  0  0  0
 15 40  1  0  0  0  0
 15 41  1  0  0  0  0
 15 42  1  0  0  0  0
 16 17  1  0  0  0  0
 17 18  2  0  0  0  0
 17 19  1  0  0  0  0
 19 20  1  0  0  0  0
 19 21  1  0  0  0  0
 20 43  1  0  0  0  0
 20 44  1  0  0  0  0
 20 45  1  0  0  0  0
 21 22  1  0  0  0  0
 21 46  1  0  0  0  0
 21 47  1  0  0  0  0
 22 25  1  0  0  0  0
 22 23  1  0  0  0  0
 22 48  1  0  0  0  0
 23 24  1  0  0  0  0
 23 49  1  0  0  0  0
 23 50  1  0  0  0  0
 24 25  1  0  0  0  0
 24 51  1  0  0  0  0
 24 52  1  0  0  0  0
 25 53  1  0  0  0  0
 25 54  1  0  0  0  0
M  END
> <s_m_source_file>
AV-unprocessed.smi

> <i_m_source_file_index>
2927

> <i_lp_mmshare_version>
43012

> <i_f3d_flags>
0

> <s_epik_input>
W0NIM11bQ0hdKFtDSDNdKVtOSF1DKD1PKVtDSDJdbihjKD1PKVtjSF1jMVtDSDNdKWMoW0NIM10pYzFDKD1PKU4oW0NIM10pW0NIMl1bQ0hdMltDSDJdW0NIMl1bQ0gyXTI=

> <s_epik_cmdline>
J2VwaWtfcHl0aG9uJywgJy1waCcsICc3LjAnLCAnLXRuJywgJzgnLCAnLW1hJywgJzIwMCcsICctbWV0YWxfYmluZGluZycsICctaW1hZScsICc8aW5maWxlLm1hZT4nLCAnLW9tYWUnLCAnPG91dGZpbGUubWFlPic=

> <r_lp_tautomer_probability>
1

> <r_epik_Ionization_Penalty>
4.54151e-08

> <r_epik_Ionization_Penalty_Charging>
2.47394e-08

> <r_epik_Ionization_Penalty_Neutral>
2.06757e-08

> <r_epik_State_Penalty>
-0

> <r_epik_Charging_Adjusted_Penalty>
2.47394e-08

> <i_epik_Tot_Q>
0

> <i_epik_Tot_abs_Q>
0

> <r_epik_Metal_State_Penalty>
-0

> <b_epik_Metal_Only>
0

> <s_lp_Force_Field>
OPLS_2005

> <r_lp_Energy>
49.3499

> <b_lp_Chiralities_Consistent>
1

> <s_lp_Variant>
AV-unprocessed.smi:2927-1

> <Gold.Version>
5.8.1

> <Gold.Id.Protein>
6NUR|6NUR_protein|mol2

> <Gold.PLP.Fitness>
50.4566

> <Gold.PLP.PLP>
-46.3284

> <Gold.PLP.part.hbond>
-2.0000

> <Gold.PLP.part.metal>
0.0000

> <Gold.PLP.part.buried>
-6.0928

> <Gold.PLP.part.nonpolar>
-39.5842

> <Gold.PLP.part.repulsive>
0.2288

> <Gold.PLP.ligand.clash>
0.0000

> <Gold.PLP.ligand.torsion>
1.7486

> <Gold.PLP.Chemscore.Hbond>
1.6953

> <Gold.PLP.Chemscore.CHOScore>
0.0000

> <Gold.PLP.Chemscore.Metal>
0.0000

> <Gold.Chemscore.Hbonds>
donor molecule, donor type, donor heavy atom, donor atom, acceptor molecule, acceptor atom, score
      P1  H  6896  6907       L1     9  0.84
      P1  H  7989  7998       L1    18  0.72

> <Gold.PLP.Chemscore.Internal.Correction>
2.5396

> <Gold.Rescore>
     Score         DG    S(hbond)    S(metal)    S(lipo)     H(rot)  DE(clash)    DE(int)     intcor
     17.68     -20.06       1.52        0.00     116.69       1.62       0.25       2.12       ----

> <Gold.Chemscore.Fitness>
17.6843

> <Gold.Chemscore.DG>
-20.0613

> <Gold.Chemscore.ZeroCoef>
-5.4800

> <Gold.Chemscore.Hbond>
1.5175

> <Gold.Chemscore.Metal>
0.0000

> <Gold.Chemscore.Lipo>
116.6930

> <Gold.Chemscore.Internal_Hbond>
0.0000

> <Gold.Chemscore.DEClash>
0.2526

> <Gold.Chemscore.DEInternal>
2.1244

> <Gold.Chemscore.Rot>
1.6172

> <Gold.Chemscore.Internal.Correction>
   9.000000E+99

> <Gold.Chemscore.Hbonds>
donor molecule, donor type, donor heavy atom, donor atom, acceptor molecule, acceptor atom, score
      P1  H  6896  6907       L1     9  0.58
      P1  H  7989  7998       L1    18  0.72

> <Gold.Chemscore.Hbond.Weighted>
-5.0683

> <Gold.Chemscore.Metal.Weighted>
-0.0000

> <Gold.Chemscore.Lipo.Weighted>
-13.6531

> <Gold.Chemscore.Internal_Hbond.Weighted>
0.0000

> <Gold.Chemscore.DEClash.Weighted>
0.2526

> <Gold.Chemscore.DEInternal.Weighted>
2.1244

> <Gold.Chemscore.Rot.Weighted>
4.1400

> <Gold.Chemscore.Internal.Correction.Weighted>
   9.000000E+99

> <Gold.Protein.RotatedTorsions>
[ 6907 6896 6895 6894 ] final  -43.64 input  -60.11 | X-H torsion
[ 7974 7965 7964 7962 ] final  117.48 input  175.53 | X-H torsion
[ 8008 7997 7996 7995 ] final   75.76 input   59.86 | X-H torsion
[ 10167 10162 10161 10158 ] final   93.16 input  -65.29 | X-H torsion
[ 10718 10713 10712 10709 ] final   14.62 input   66.30 | X-H torsion
[ 10763 10752 10751 10750 ] final  -87.57 input  -60.55 | X-H torsion
[ 11005 11000 10999 10996 ] final -126.04 input  -57.11 | X-H torsion

> <Gold.Protein.ActiveResidues>
 VAL166  LYS551  ARG553  GLY616  TRP617  ASP618  TYR619  PRO620  LYS621  CYS622 
 ASP623  PHE694  ASN695  SER759  ASP760  ASP761  ALA762  ILE779  LEU786  VAL792 
 PHE793  MET794  SER795  GLU796  ALA797  LYS798  CYS799  TRP800  GLU811  SER814 

> <Gold.Protein.RotatedAtoms>
  150.9417  134.8825  159.7615 H   0  0  0  0  0  0  0  0  0  0  0  0  # atno 6907 bound_to 6896
  152.5083  134.3933  159.9401 H   0  0  0  0  0  0  0  0  0  0  0  0  # atno 6908 bound_to 6896
  151.3953  133.3735  159.2760 H   0  0  0  0  0  0  0  0  0  0  0  0  # atno 6909 bound_to 6896
  145.1668  139.3124  143.4488 H   0  0  0  0  0  0  0  0  0  0  0  0  # atno 7974 bound_to 7965
  155.8176  140.3471  155.5495 H   0  0  0  0  0  0  0  0  0  0  0  0  # atno 8008 bound_to 7997
  155.8376  140.0936  157.1774 H   0  0  0  0  0  0  0  0  0  0  0  0  # atno 8009 bound_to 7997
  154.4004  140.1400  156.3676 H   0  0  0  0  0  0  0  0  0  0  0  0  # atno 8010 bound_to 7997
  139.8207  144.6732  150.9523 H   0  0  0  0  0  0  0  0  0  0  0  0  # atno 10167 bound_to 10162
  157.0417  130.6234  149.5752 H   0  0  0  0  0  0  0  0  0  0  0  0  # atno 10718 bound_to 10713
  154.6351  135.5408  153.7724 H   0  0  0  0  0  0  0  0  0  0  0  0  # atno 10763 bound_to 10752
  153.0304  135.6445  154.1244 H   0  0  0  0  0  0  0  0  0  0  0  0  # atno 10764 bound_to 10752
  154.1172  135.2923  155.3197 H   0  0  0  0  0  0  0  0  0  0  0  0  # atno 10765 bound_to 10752
  140.9713  134.0801  157.3866 H   0  0  0  0  0  0  0  0  0  0  0  0  # atno 11005 bound_to 11000
  146.3474  140.1799  142.8589 LP  0  0  0  0  0  0  0  0  0  0  0  0  # atno 17320 bound_to 7965
  145.0274  140.8843  143.5130 LP  0  0  0  0  0  0  0  0  0  0  0  0  # atno 17321 bound_to 7965
  140.7813  143.4095  151.1016 LP  0  0  0  0  0  0  0  0  0  0  0  0  # atno 17342 bound_to 10162
  139.7755  143.8431  152.3128 LP  0  0  0  0  0  0  0  0  0  0  0  0  # atno 17343 bound_to 10162
  156.0036  130.5119  150.7751 LP  0  0  0  0  0  0  0  0  0  0  0  0  # atno 17370 bound_to 10713
  157.5099  131.0925  151.0211 LP  0  0  0  0  0  0  0  0  0  0  0  0  # atno 17371 bound_to 10713
  139.8913  135.0118  156.6786 LP  0  0  0  0  0  0  0  0  0  0  0  0  # atno 17394 bound_to 11000
  140.7324  133.9047  155.8220 LP  0  0  0  0  0  0  0  0  0  0  0  0  # atno 17395 bound_to 11000

$$$$
