AV-unprocessed.smi:1066|AV-procd|sdf|4669|dock7
  -GOLD-   22720 3183D 1   1.00000     0.00000
 Structure written by MMmdl.
 38 40  0  0  0  0  0  0  0  0  2 V2000
  150.0919  130.5327  154.2097 C   0  0  0  0  0  0  0  0  0  0  0  0
  150.2601  131.5978  155.2552 C   0  0  0  0  0  0  0  0  0  0  0  0
  150.6596  131.2497  156.4713 N   0  0  0  0  0  0  0  0  0  0  0  0
  150.7163  132.4298  157.2218 O   0  0  0  0  0  0  0  0  0  0  0  0
  150.3428  133.4381  156.4018 C   0  0  0  0  0  0  0  0  0  0  0  0
  150.2516  135.0705  156.9337 Cl  0  0  0  0  0  0  0  0  0  0  0  0
  150.0382  133.0026  155.1443 C   0  0  0  0  0  0  0  0  0  0  0  0
  149.5749  133.7906  153.9448 C   0  0  0  0  0  0  0  0  0  0  0  0
  148.0600  133.6537  153.7973 C   0  0  0  0  0  0  0  0  0  0  0  0
  147.4557  132.7816  154.4203 O   0  0  0  0  0  0  0  0  0  0  0  0
  147.4564  134.5291  152.9789 N   0  0  0  0  0  0  0  0  0  0  0  0
  146.0181  134.5971  152.7500 C   0  0  1  0  0  0  0  0  0  0  0  0
  145.6005  135.5861  151.6581 C   0  0  0  0  0  0  0  0  0  0  0  0
  144.3175  134.9846  151.0604 C   0  0  0  0  0  0  0  0  0  0  0  0
  144.1612  133.6338  151.6483 N   0  3  1  0  0  0  0  0  0  0  0  0
  143.6150  132.6258  150.7152 C   0  0  0  0  0  0  0  0  0  0  0  0
  144.6786  131.8238  150.0041 C   0  0  0  0  0  0  0  0  0  0  0  0
  143.9279  132.9108  149.2660 C   0  0  0  0  0  0  0  0  0  0  0  0
  145.4662  133.2732  152.2300 C   0  0  0  0  0  0  0  0  0  0  0  0
  149.6952  130.9419  153.2808 H   0  0  0  0  0  0  0  0  0  0  0  0
  149.4030  129.7579  154.5466 H   0  0  0  0  0  0  0  0  0  0  0  0
  151.0448  130.0553  153.9805 H   0  0  0  0  0  0  0  0  0  0  0  0
  149.8294  134.8473  154.0347 H   0  0  0  0  0  0  0  0  0  0  0  0
  150.0584  133.4426  153.0314 H   0  0  0  0  0  0  0  0  0  0  0  0
  148.0328  135.2094  152.5043 H   0  0  0  0  0  0  0  0  0  0  0  0
  145.5083  134.8492  153.6823 H   0  0  0  0  0  0  0  0  0  0  0  0
  145.4469  136.5922  152.0496 H   0  0  0  0  0  0  0  0  0  0  0  0
  146.3681  135.6468  150.8846 H   0  0  0  0  0  0  0  0  0  0  0  0
  143.4408  135.5863  151.3014 H   0  0  0  0  0  0  0  0  0  0  0  0
  144.3983  134.9364  149.9732 H   0  0  0  0  0  0  0  0  0  0  0  0
  142.6713  132.1623  150.9980 H   0  0  0  0  0  0  0  0  0  0  0  0
  145.7210  132.0137  150.2541 H   0  0  0  0  0  0  0  0  0  0  0  0
  144.4428  130.7931  149.7472 H   0  0  0  0  0  0  0  0  0  0  0  0
  143.1980  132.5950  148.5233 H   0  0  0  0  0  0  0  0  0  0  0  0
  144.4720  133.8226  149.0250 H   0  0  0  0  0  0  0  0  0  0  0  0
  146.1162  132.8653  151.4532 H   0  0  0  0  0  0  0  0  0  0  0  0
  145.3619  132.5242  153.0160 H   0  0  0  0  0  0  0  0  0  0  0  0
  143.5166  133.7267  152.4204 H   0  0  0  0  0  0  0  0  0  0  0  0
  1  2  1  0  0  0  0
  1 20  1  0  0  0  0
  1 21  1  0  0  0  0
  1 22  1  0  0  0  0
  2  7  1  0  0  0  0
  2  3  2  0  0  0  0
  3  4  1  0  0  0  0
  4  5  1  0  0  0  0
  5  6  1  0  0  0  0
  5  7  2  0  0  0  0
  7  8  1  0  0  0  0
  8  9  1  0  0  0  0
  8 23  1  0  0  0  0
  8 24  1  0  0  0  0
  9 10  2  0  0  0  0
  9 11  1  0  0  0  0
 11 12  1  0  0  0  0
 11 25  1  0  0  0  0
 12 19  1  0  0  0  0
 12 13  1  0  0  0  0
 12 26  1  0  0  0  0
 13 14  1  0  0  0  0
 13 27  1  0  0  0  0
 13 28  1  0  0  0  0
 14 15  1  0  0  0  0
 14 29  1  0  0  0  0
 14 30  1  0  0  0  0
 15 16  1  0  0  0  0
 15 19  1  0  0  0  0
 15 38  1  0  0  0  0
 16 18  1  0  0  0  0
 16 17  1  0  0  0  0
 16 31  1  0  0  0  0
 17 18  1  0  0  0  0
 17 32  1  0  0  0  0
 17 33  1  0  0  0  0
 18 34  1  0  0  0  0
 18 35  1  0  0  0  0
 19 36  1  0  0  0  0
 19 37  1  0  0  0  0
M  CHG  1  15   1
M  END
> <s_m_source_file>
AV-unprocessed.smi

> <i_m_source_file_index>
1066

> <i_lp_mmshare_version>
43012

> <i_f3d_flags>
0

> <s_epik_input>
W0NIM11jMW5vYyhDbCljMVtDSDJdQyg9TylbTkhdW0NAQEhdMltDSDJdW0NIMl1OKFtDSDJdMilbQ0hdM1tDSDJdW0NIMl0z

> <s_epik_cmdline>
J2VwaWtfcHl0aG9uJywgJy1waCcsICc3LjAnLCAnLXRuJywgJzgnLCAnLW1hJywgJzIwMCcsICctbWV0YWxfYmluZGluZycsICctaW1hZScsICc8aW5maWxlLm1hZT4nLCAnLW9tYWUnLCAnPG91dGZpbGUubWFlPic=

> <r_epik_Ionization_Penalty>
0.00108138

> <r_epik_Ionization_Penalty_Charging>
0.00108128

> <r_epik_Ionization_Penalty_Neutral>
9.66632e-08

> <r_epik_State_Penalty>
0.000708577

> <r_epik_Charging_Adjusted_Penalty>
0.00178986

> <i_epik_Tot_Q>
1

> <i_epik_Tot_abs_Q>
1

> <r_epik_Metal_State_Penalty>
-0

> <b_epik_Metal_Only>
0

> <s_lp_Force_Field>
OPLS_2005

> <r_lp_Energy>
30.6816

> <b_lp_Chiralities_Consistent>
1

> <s_lp_Variant>
AV-unprocessed.smi:1066-2

> <Gold.Version>
5.8.1

> <Gold.Id.Protein>
6NUR|6NUR_protein|mol2

> <Gold.PLP.Fitness>
37.0022

> <Gold.PLP.PLP>
-32.4561

> <Gold.PLP.part.hbond>
-2.0000

> <Gold.PLP.part.metal>
0.0000

> <Gold.PLP.part.buried>
-4.5998

> <Gold.PLP.part.nonpolar>
-27.3279

> <Gold.PLP.part.repulsive>
0.0279

> <Gold.PLP.ligand.clash>
0.0000

> <Gold.PLP.ligand.torsion>
1.3493

> <Gold.PLP.Chemscore.Hbond>
1.9913

> <Gold.PLP.Chemscore.CHOScore>
0.0000

> <Gold.PLP.Chemscore.Metal>
0.0000

> <Gold.Chemscore.Hbonds>
donor molecule, donor type, donor heavy atom, donor atom, acceptor molecule, acceptor atom, score
      L1  H    11    25       P1  7948  0.89
      P1  H  6896  6907       L1     4  0.36

> <Gold.PLP.Chemscore.Internal.Correction>
1.2710

> <Gold.Rescore>
     Score         DG    S(hbond)    S(metal)    S(lipo)     H(rot)  DE(clash)    DE(int)     intcor
     15.97     -17.28       1.94        0.00      79.77       1.57       0.04       1.27       ----

> <Gold.Chemscore.Fitness>
15.9715

> <Gold.Chemscore.DG>
-17.2822

> <Gold.Chemscore.ZeroCoef>
-5.4800

> <Gold.Chemscore.Hbond>
1.9434

> <Gold.Chemscore.Metal>
0.0000

> <Gold.Chemscore.Lipo>
79.7720

> <Gold.Chemscore.Internal_Hbond>
0.0000

> <Gold.Chemscore.DEClash>
0.0380

> <Gold.Chemscore.DEInternal>
1.2726

> <Gold.Chemscore.Rot>
1.5711

> <Gold.Chemscore.Internal.Correction>
   9.000000E+99

> <Gold.Chemscore.Hbonds>
donor molecule, donor type, donor heavy atom, donor atom, acceptor molecule, acceptor atom, score
      L1  H    11    25       P1  7948  0.83
      P1  H  6896  6907       L1     4  0.23

> <Gold.Chemscore.Hbond.Weighted>
-6.4909

> <Gold.Chemscore.Metal.Weighted>
-0.0000

> <Gold.Chemscore.Lipo.Weighted>
-9.3333

> <Gold.Chemscore.Internal_Hbond.Weighted>
0.0000

> <Gold.Chemscore.DEClash.Weighted>
0.0380

> <Gold.Chemscore.DEInternal.Weighted>
1.2726

> <Gold.Chemscore.Rot.Weighted>
4.0221

> <Gold.Chemscore.Internal.Correction.Weighted>
   9.000000E+99

> <Gold.Protein.RotatedTorsions>
[ 6907 6896 6895 6894 ] final -162.71 input  -60.11 | X-H torsion
[ 7974 7965 7964 7962 ] final   95.03 input  175.53 | X-H torsion
[ 8008 7997 7996 7995 ] final   67.71 input   59.86 | X-H torsion
[ 10167 10162 10161 10158 ] final   60.94 input  -65.29 | X-H torsion
[ 10718 10713 10712 10709 ] final  -74.46 input   66.30 | X-H torsion
[ 10763 10752 10751 10750 ] final -154.55 input  -60.55 | X-H torsion
[ 11005 11000 10999 10996 ] final  -78.96 input  -57.11 | X-H torsion

> <Gold.Protein.ActiveResidues>
 VAL166  LYS551  ARG553  GLY616  TRP617  ASP618  TYR619  PRO620  LYS621  CYS622 
 ASP623  PHE694  ASN695  SER759  ASP760  ASP761  ALA762  ILE779  LEU786  VAL792 
 PHE793  MET794  SER795  GLU796  ALA797  LYS798  CYS799  TRP800  GLU811  SER814 

> <Gold.Protein.RotatedAtoms>
  151.3846  133.3809  159.2713 H   0  0  0  0  0  0  0  0  0  0  0  0  # atno 6907 bound_to 6896
  150.9551  134.8947  159.7706 H   0  0  0  0  0  0  0  0  0  0  0  0  # atno 6908 bound_to 6896
  152.5127  134.3803  159.9401 H   0  0  0  0  0  0  0  0  0  0  0  0  # atno 6909 bound_to 6896
  145.4576  139.2289  143.3005 H   0  0  0  0  0  0  0  0  0  0  0  0  # atno 7974 bound_to 7965
  155.6970  140.3495  155.4917 H   0  0  0  0  0  0  0  0  0  0  0  0  # atno 8008 bound_to 7997
  155.9474  140.1113  157.1028 H   0  0  0  0  0  0  0  0  0  0  0  0  # atno 8009 bound_to 7997
  154.4115  140.1201  156.4993 H   0  0  0  0  0  0  0  0  0  0  0  0  # atno 8010 bound_to 7997
  140.1601  144.4378  150.6714 H   0  0  0  0  0  0  0  0  0  0  0  0  # atno 10167 bound_to 10162
  156.0242  130.4417  150.2896 H   0  0  0  0  0  0  0  0  0  0  0  0  # atno 10718 bound_to 10713
  154.7851  135.3187  154.7905 H   0  0  0  0  0  0  0  0  0  0  0  0  # atno 10763 bound_to 10752
  153.8607  135.6853  153.4787 H   0  0  0  0  0  0  0  0  0  0  0  0  # atno 10764 bound_to 10752
  153.1499  135.4703  154.9560 H   0  0  0  0  0  0  0  0  0  0  0  0  # atno 10765 bound_to 10752
  141.1666  133.7085  156.8051 H   0  0  0  0  0  0  0  0  0  0  0  0  # atno 11005 bound_to 11000
  146.2469  140.5342  142.8910 LP  0  0  0  0  0  0  0  0  0  0  0  0  # atno 17320 bound_to 7965
  144.8022  140.6235  143.6470 LP  0  0  0  0  0  0  0  0  0  0  0  0  # atno 17321 bound_to 7965
  140.6648  143.2264  151.5769 LP  0  0  0  0  0  0  0  0  0  0  0  0  # atno 17342 bound_to 10162
  139.5385  144.2713  152.1302 LP  0  0  0  0  0  0  0  0  0  0  0  0  # atno 17343 bound_to 10162
  157.1000  131.0193  151.3089 LP  0  0  0  0  0  0  0  0  0  0  0  0  # atno 17370 bound_to 10713
  157.4787  130.7752  149.7393 LP  0  0  0  0  0  0  0  0  0  0  0  0  # atno 17371 bound_to 10713
  140.2228  134.8744  157.3395 LP  0  0  0  0  0  0  0  0  0  0  0  0  # atno 17394 bound_to 11000
  140.1970  134.4301  155.7683 LP  0  0  0  0  0  0  0  0  0  0  0  0  # atno 17395 bound_to 11000

$$$$
