AV-unprocessed.smi:3185|AV-procd|sdf|12166|dock5
  -GOLD-   2272018 03D 1   1.00000     0.00000
 Structure written by MMmdl.
 38 39  0  0  0  0  0  0  0  0  2 V2000
  143.5377  134.8516  151.9610 N   0  0  0  0  0  0  0  0  0  0  0  0
  144.4456  135.5134  151.6871 C   0  0  0  0  0  0  0  0  0  0  0  0
  145.6007  136.3539  151.3386 C   0  0  0  0  0  0  0  0  0  0  0  0
  145.7577  137.5571  152.2752 C   0  0  0  0  0  0  0  0  0  0  0  0
  146.6986  138.6228  151.7008 C   0  0  0  0  0  0  0  0  0  0  0  0
  147.8646  138.8271  152.5854 N   0  3  0  0  0  0  0  0  0  0  0  0
  147.5903  139.5327  153.8596 C   0  0  1  0  0  0  0  0  0  0  0  0
  146.8406  138.6356  154.8769 C   0  0  0  0  0  0  0  0  0  0  0  0
  146.6268  139.3483  156.2219 C   0  0  0  0  0  0  0  0  0  0  0  0
  147.9454  139.8833  156.7982 C   0  0  0  0  0  0  0  0  0  0  0  0
  148.6342  140.8272  155.8000 C   0  0  0  0  0  0  0  0  0  0  0  0
  148.8958  140.1564  154.4352 C   0  0  1  0  0  0  0  0  0  0  0  0
  150.0497  139.2556  154.4967 N   0  0  0  0  0  0  0  0  0  0  0  0
  150.0353  137.8788  154.3931 C   0  0  0  0  0  0  0  0  0  0  0  0
  151.3267  137.4420  154.4646 C   0  0  0  0  0  0  0  0  0  0  0  0
  152.0797  138.6406  154.5938 C   0  0  0  0  0  0  0  0  0  0  0  0
  151.3156  139.7199  154.6055 N   0  0  0  0  0  0  0  0  0  0  0  0
  146.4917  135.7261  151.3701 H   0  0  0  0  0  0  0  0  0  0  0  0
  145.4727  136.6850  150.3076 H   0  0  0  0  0  0  0  0  0  0  0  0
  144.7775  137.9972  152.4637 H   0  0  0  0  0  0  0  0  0  0  0  0
  146.1351  137.2154  153.2402 H   0  0  0  0  0  0  0  0  0  0  0  0
  147.0424  138.3171  150.7117 H   0  0  0  0  0  0  0  0  0  0  0  0
  146.1547  139.5596  151.5806 H   0  0  0  0  0  0  0  0  0  0  0  0
  148.2826  137.9320  152.7982 H   0  0  0  0  0  0  0  0  0  0  0  0
  146.9311  140.3697  153.6235 H   0  0  0  0  0  0  0  0  0  0  0  0
  145.8653  138.3518  154.4824 H   0  0  0  0  0  0  0  0  0  0  0  0
  147.3732  137.7001  155.0417 H   0  0  0  0  0  0  0  0  0  0  0  0
  145.9282  140.1751  156.0884 H   0  0  0  0  0  0  0  0  0  0  0  0
  146.1614  138.6648  156.9328 H   0  0  0  0  0  0  0  0  0  0  0  0
  147.7502  140.4131  157.7310 H   0  0  0  0  0  0  0  0  0  0  0  0
  148.6057  139.0534  157.0511 H   0  0  0  0  0  0  0  0  0  0  0  0
  148.0021  141.7037  155.6513 H   0  0  0  0  0  0  0  0  0  0  0  0
  149.5676  141.2001  156.2231 H   0  0  0  0  0  0  0  0  0  0  0  0
  149.1890  140.9513  153.7473 H   0  0  0  0  0  0  0  0  0  0  0  0
  149.1139  137.3267  154.2779 H   0  0  0  0  0  0  0  0  0  0  0  0
  151.6801  136.4224  154.4212 H   0  0  0  0  0  0  0  0  0  0  0  0
  153.1504  138.7583  154.6749 H   0  0  0  0  0  0  0  0  0  0  0  0
  148.5384  139.3779  152.0730 H   0  0  0  0  0  0  0  0  0  0  0  0
  1  2  3  0  0  0  0
  2  3  1  0  0  0  0
  3  4  1  0  0  0  0
  3 18  1  0  0  0  0
  3 19  1  0  0  0  0
  4  5  1  0  0  0  0
  4 20  1  0  0  0  0
  4 21  1  0  0  0  0
  5  6  1  0  0  0  0
  5 22  1  0  0  0  0
  5 23  1  0  0  0  0
  6  7  1  0  0  0  0
  6 24  1  0  0  0  0
  6 38  1  0  0  0  0
  7 12  1  0  0  0  0
  7  8  1  0  0  0  0
  7 25  1  0  0  0  0
  8  9  1  0  0  0  0
  8 26  1  0  0  0  0
  8 27  1  0  0  0  0
  9 10  1  0  0  0  0
  9 28  1  0  0  0  0
  9 29  1  0  0  0  0
 10 11  1  0  0  0  0
 10 30  1  0  0  0  0
 10 31  1  0  0  0  0
 11 12  1  0  0  0  0
 11 32  1  0  0  0  0
 11 33  1  0  0  0  0
 12 13  1  0  0  0  0
 12 34  1  0  0  0  0
 13 17  1  0  0  0  0
 13 14  1  0  0  0  0
 14 15  2  0  0  0  0
 14 35  1  0  0  0  0
 15 16  1  0  0  0  0
 15 36  1  0  0  0  0
 16 17  2  0  0  0  0
 16 37  1  0  0  0  0
M  CHG  1   6   1
M  END
> <s_m_source_file>
AV-unprocessed.smi

> <i_m_source_file_index>
3185

> <i_lp_mmshare_version>
43012

> <i_f3d_flags>
0

> <s_epik_input>
TiNDW0NIMl1bQ0gyXVtDSDJdW05IXVtDQEBIXTFbQ0gyXVtDSDJdW0NIMl1bQ0gyXVtDQEhdMW4yW2NIXVtjSF1bY0hdbjI=

> <s_epik_cmdline>
J2VwaWtfcHl0aG9uJywgJy1waCcsICc3LjAnLCAnLXRuJywgJzgnLCAnLW1hJywgJzIwMCcsICctbWV0YWxfYmluZGluZycsICctaW1hZScsICc8aW5maWxlLm1hZT4nLCAnLW9tYWUnLCAnPG91dGZpbGUubWFlPic=

> <r_lp_tautomer_probability>
1

> <r_epik_Ionization_Penalty>
0.0143465

> <r_epik_Ionization_Penalty_Charging>
0.0143338

> <r_epik_Ionization_Penalty_Neutral>
1.27047e-05

> <r_epik_State_Penalty>
0.0112058

> <r_epik_Charging_Adjusted_Penalty>
0.0255397

> <i_epik_Tot_Q>
1

> <i_epik_Tot_abs_Q>
1

> <r_epik_Metal_State_Penalty>
0.0112253

> <b_epik_Metal_Only>
0

> <s_lp_Force_Field>
OPLS_2005

> <r_lp_Energy>
18.1439

> <b_lp_Chiralities_Consistent>
1

> <s_lp_Variant>
AV-unprocessed.smi:3185-2

> <Gold.Version>
5.8.1

> <Gold.Id.Protein>
6NUR|6NUR_protein|mol2

> <Gold.PLP.Fitness>
40.4130

> <Gold.PLP.PLP>
-30.4148

> <Gold.PLP.part.hbond>
-2.9733

> <Gold.PLP.part.metal>
0.0000

> <Gold.PLP.part.buried>
-2.9546

> <Gold.PLP.part.nonpolar>
-26.4581

> <Gold.PLP.part.repulsive>
0.3225

> <Gold.PLP.ligand.clash>
0.6717

> <Gold.PLP.ligand.torsion>
0.9457

> <Gold.PLP.Chemscore.Hbond>
3.6407

> <Gold.PLP.Chemscore.CHOScore>
0.5015

> <Gold.PLP.Chemscore.Metal>
0.0000

> <Gold.Chemscore.Hbonds>
donor molecule, donor type, donor heavy atom, donor atom, acceptor molecule, acceptor atom, score
      L1  H     6    24       P1  7948  1.59
      L1  H     6    38       P1  7957  1.00
      P1  H  7989  7998       L1    17  1.00
      L1  C    14    35       P1  7948  0.44

> <Gold.PLP.Chemscore.Internal.Correction>
0.1348

> <Gold.Rescore>
     Score         DG    S(hbond)    S(metal)    S(lipo)     H(rot)  DE(clash)    DE(int)     intcor
     14.59     -16.84       2.49        0.00      67.12       1.88       0.12       2.12       ----

> <Gold.Chemscore.Fitness>
14.5929

> <Gold.Chemscore.DG>
-16.8385

> <Gold.Chemscore.ZeroCoef>
-5.4800

> <Gold.Chemscore.Hbond>
2.4881

> <Gold.Chemscore.Metal>
0.0000

> <Gold.Chemscore.Lipo>
67.1213

> <Gold.Chemscore.Internal_Hbond>
0.0000

> <Gold.Chemscore.DEClash>
0.1242

> <Gold.Chemscore.DEInternal>
2.1214

> <Gold.Chemscore.Rot>
1.8769

> <Gold.Chemscore.Internal.Correction>
   9.000000E+99

> <Gold.Chemscore.Hbonds>
donor molecule, donor type, donor heavy atom, donor atom, acceptor molecule, acceptor atom, score
      L1  H     6    24       P1  7948  0.73
      L1  H     6    38       P1  7957  0.93
      P1  H  7989  7998       L1    17  0.76

> <Gold.Chemscore.Hbond.Weighted>
-8.3103

> <Gold.Chemscore.Metal.Weighted>
-0.0000

> <Gold.Chemscore.Lipo.Weighted>
-7.8532

> <Gold.Chemscore.Internal_Hbond.Weighted>
0.0000

> <Gold.Chemscore.DEClash.Weighted>
0.1242

> <Gold.Chemscore.DEInternal.Weighted>
2.1214

> <Gold.Chemscore.Rot.Weighted>
4.8049

> <Gold.Chemscore.Internal.Correction.Weighted>
   9.000000E+99

> <Gold.Protein.RotatedTorsions>
[ 6907 6896 6895 6894 ] final  100.63 input  -60.11 | X-H torsion
[ 7974 7965 7964 7962 ] final   20.17 input  175.53 | X-H torsion
[ 8008 7997 7996 7995 ] final  -47.05 input   59.86 | X-H torsion
[ 10167 10162 10161 10158 ] final  -94.01 input  -65.29 | X-H torsion
[ 10718 10713 10712 10709 ] final  173.91 input   66.30 | X-H torsion
[ 10763 10752 10751 10750 ] final  -70.19 input  -60.55 | X-H torsion
[ 11005 11000 10999 10996 ] final   90.35 input  -57.11 | X-H torsion

> <Gold.Protein.ActiveResidues>
 VAL166  LYS551  ARG553  GLY616  TRP617  ASP618  TYR619  PRO620  LYS621  CYS622 
 ASP623  PHE694  ASN695  SER759  ASP760  ASP761  ALA762  ILE779  LEU786  VAL792 
 PHE793  MET794  SER795  GLU796  ALA797  LYS798  CYS799  TRP800  GLU811  SER814 

> <Gold.Protein.RotatedAtoms>
  152.5368  134.0248  159.7997 H   0  0  0  0  0  0  0  0  0  0  0  0  # atno 6907 bound_to 6896
  151.0428  133.5683  159.2656 H   0  0  0  0  0  0  0  0  0  0  0  0  # atno 6908 bound_to 6896
  151.2646  135.0672  159.9165 H   0  0  0  0  0  0  0  0  0  0  0  0  # atno 6909 bound_to 6896
  146.2122  139.8208  142.8680 H   0  0  0  0  0  0  0  0  0  0  0  0  # atno 7974 bound_to 7965
  154.4013  140.1356  156.4112 H   0  0  0  0  0  0  0  0  0  0  0  0  # atno 8008 bound_to 7997
  155.7732  140.3483  155.5237 H   0  0  0  0  0  0  0  0  0  0  0  0  # atno 8009 bound_to 7997
  155.8746  140.0977  157.1517 H   0  0  0  0  0  0  0  0  0  0  0  0  # atno 8010 bound_to 7997
  140.3188  143.3061  152.0069 H   0  0  0  0  0  0  0  0  0  0  0  0  # atno 10167 bound_to 10162
  156.9573  131.0050  151.2935 H   0  0  0  0  0  0  0  0  0  0  0  0  # atno 10718 bound_to 10713
  154.4141  135.6002  153.5970 H   0  0  0  0  0  0  0  0  0  0  0  0  # atno 10763 bound_to 10752
  152.9791  135.5936  154.4034 H   0  0  0  0  0  0  0  0  0  0  0  0  # atno 10764 bound_to 10752
  154.3850  135.2841  155.2167 H   0  0  0  0  0  0  0  0  0  0  0  0  # atno 10765 bound_to 10752
  139.8858  134.8608  156.3271 H   0  0  0  0  0  0  0  0  0  0  0  0  # atno 11005 bound_to 11000
  145.3098  141.0217  143.3561 LP  0  0  0  0  0  0  0  0  0  0  0  0  # atno 17320 bound_to 7965
  144.8944  139.4731  143.6662 LP  0  0  0  0  0  0  0  0  0  0  0  0  # atno 17321 bound_to 7965
  139.4878  144.6327  151.7037 LP  0  0  0  0  0  0  0  0  0  0  0  0  # atno 17342 bound_to 10162
  140.5502  144.0437  150.6124 LP  0  0  0  0  0  0  0  0  0  0  0  0  # atno 17343 bound_to 10162
  157.5681  130.8292  149.8355 LP  0  0  0  0  0  0  0  0  0  0  0  0  # atno 17370 bound_to 10713
  156.0337  130.3757  150.1618 LP  0  0  0  0  0  0  0  0  0  0  0  0  # atno 17371 bound_to 10713
  140.9747  133.7305  156.0585 LP  0  0  0  0  0  0  0  0  0  0  0  0  # atno 17394 bound_to 11000
  140.7825  134.3709  157.5484 LP  0  0  0  0  0  0  0  0  0  0  0  0  # atno 17395 bound_to 11000

$$$$
