AV-unprocessed.smi:532|AV-procd|sdf|2848|dock4
  -GOLD-   2262023333D 1   1.00000     0.00000
 Structure written by MMmdl.
 49 51  0  0  0  0  0  0  0  0  1 V2000
  151.6832  138.0738  159.1029 C   0  0  0  0  0  0  0  0  0  0  0  0
  150.9838  137.8957  157.8838 O   0  0  0  0  0  0  0  0  0  0  0  0
  151.8383  137.9516  156.7546 C   0  0  0  0  0  0  0  0  0  0  0  0
  152.1444  139.4254  156.4424 C   0  0  0  0  0  0  0  0  0  0  0  0
  150.9406  140.1917  156.1339 N   0  0  0  0  0  0  0  0  0  0  0  0
  150.4174  141.2863  156.7622 C   0  0  0  0  0  0  0  0  0  0  0  0
  151.0109  141.9108  157.8694 N   0  0  0  0  0  0  0  0  0  0  0  0
  151.6865  141.1684  158.9364 C   0  0  0  0  0  0  0  0  0  0  0  0
  153.1055  141.7074  159.2049 C   0  0  2  0  0  0  0  0  0  0  0  0
  153.8218  140.8864  160.2858 C   0  0  0  0  0  0  0  0  0  0  0  0
  153.0392  143.1970  159.5802 C   0  0  0  0  0  0  0  0  0  0  0  0
  152.2459  143.9797  158.5218 C   0  0  2  0  0  0  0  0  0  0  0  0
  152.0850  145.4553  158.9103 C   0  0  0  0  0  0  0  0  0  0  0  0
  150.8772  143.3058  158.2966 C   0  0  0  0  0  0  0  0  0  0  0  0
  149.2557  141.7042  156.2474 N   0  0  0  0  0  0  0  0  0  0  0  0
  149.0246  140.8241  155.2042 C   0  0  0  0  0  0  0  0  0  0  0  0
  150.0182  139.9052  155.1239 C   0  0  0  0  0  0  0  0  0  0  0  0
  150.0116  138.8285  154.1225 C   0  0  0  0  0  0  0  0  0  0  0  0
  150.8876  137.9703  154.0412 O   0  0  0  0  0  0  0  0  0  0  0  0
  148.9380  138.8753  153.2970 N   0  0  0  0  0  0  0  0  0  0  0  0
  147.9106  139.7778  153.3193 C   0  0  0  0  0  0  0  0  0  0  0  0
  147.0007  139.6948  152.4946 O   0  0  0  0  0  0  0  0  0  0  0  0
  147.9427  140.7551  154.2807 N   0  0  0  0  0  0  0  0  0  0  0  0
  146.8670  141.7458  154.3547 C   0  0  0  0  0  0  0  0  0  0  0  0
  148.8892  138.1607  152.5856 H   0  0  0  0  0  0  0  0  0  0  0  0
  150.9841  138.0225  159.9376 H   0  0  0  0  0  0  0  0  0  0  0  0
  152.1758  139.0465  159.1363 H   0  0  0  0  0  0  0  0  0  0  0  0
  152.4346  137.2958  159.2443 H   0  0  0  0  0  0  0  0  0  0  0  0
  152.7543  137.3955  156.9542 H   0  0  0  0  0  0  0  0  0  0  0  0
  151.3578  137.4706  155.9024 H   0  0  0  0  0  0  0  0  0  0  0  0
  152.6460  139.8904  157.2909 H   0  0  0  0  0  0  0  0  0  0  0  0
  152.8530  139.5093  155.6230 H   0  0  0  0  0  0  0  0  0  0  0  0
  151.0833  141.2135  159.8444 H   0  0  0  0  0  0  0  0  0  0  0  0
  151.7539  140.1139  158.6670 H   0  0  0  0  0  0  0  0  0  0  0  0
  153.6818  141.6131  158.2831 H   0  0  0  0  0  0  0  0  0  0  0  0
  153.2913  140.9361  161.2372 H   0  0  0  0  0  0  0  0  0  0  0  0
  154.8353  141.2533  160.4497 H   0  0  0  0  0  0  0  0  0  0  0  0
  153.8929  139.8372  159.9985 H   0  0  0  0  0  0  0  0  0  0  0  0
  152.5611  143.3094  160.5544 H   0  0  0  0  0  0  0  0  0  0  0  0
  154.0452  143.6068  159.6765 H   0  0  0  0  0  0  0  0  0  0  0  0
  152.8086  143.9460  157.5884 H   0  0  0  0  0  0  0  0  0  0  0  0
  151.5241  145.5619  159.8394 H   0  0  0  0  0  0  0  0  0  0  0  0
  151.5537  146.0078  158.1347 H   0  0  0  0  0  0  0  0  0  0  0  0
  153.0551  145.9331  159.0494 H   0  0  0  0  0  0  0  0  0  0  0  0
  150.2911  143.8739  157.5814 H   0  0  0  0  0  0  0  0  0  0  0  0
  150.2994  143.3308  159.2217 H   0  0  0  0  0  0  0  0  0  0  0  0
  145.8935  141.2577  154.4172 H   0  0  0  0  0  0  0  0  0  0  0  0
  146.8740  142.3793  153.4669 H   0  0  0  0  0  0  0  0  0  0  0  0
  146.9567  142.3971  155.2238 H   0  0  0  0  0  0  0  0  0  0  0  0
  1  2  1  0  0  0  0
  1 26  1  0  0  0  0
  1 27  1  0  0  0  0
  1 28  1  0  0  0  0
  2  3  1  0  0  0  0
  3  4  1  0  0  0  0
  3 29  1  0  0  0  0
  3 30  1  0  0  0  0
  4  5  1  0  0  0  0
  4 31  1  0  0  0  0
  4 32  1  0  0  0  0
  5 17  1  0  0  0  0
  5  6  1  0  0  0  0
  6  7  1  0  0  0  0
  6 15  2  0  0  0  0
  7 14  1  0  0  0  0
  7  8  1  0  0  0  0
  8  9  1  0  0  0  0
  8 33  1  0  0  0  0
  8 34  1  0  0  0  0
  9 10  1  0  0  0  0
  9 11  1  0  0  0  0
  9 35  1  0  0  0  0
 10 36  1  0  0  0  0
 10 37  1  0  0  0  0
 10 38  1  0  0  0  0
 11 12  1  0  0  0  0
 11 39  1  0  0  0  0
 11 40  1  0  0  0  0
 12 13  1  0  0  0  0
 12 14  1  0  0  0  0
 12 41  1  0  0  0  0
 13 42  1  0  0  0  0
 13 43  1  0  0  0  0
 13 44  1  0  0  0  0
 14 45  1  0  0  0  0
 14 46  1  0  0  0  0
 15 16  1  0  0  0  0
 16 23  1  0  0  0  0
 16 17  2  0  0  0  0
 17 18  1  0  0  0  0
 18 19  2  0  0  0  0
 18 20  1  0  0  0  0
 20 25  1  0  0  0  0
 20 21  1  0  0  0  0
 21 22  2  0  0  0  0
 21 23  1  0  0  0  0
 23 24  1  0  0  0  0
 24 47  1  0  0  0  0
 24 48  1  0  0  0  0
 24 49  1  0  0  0  0
M  END
> <s_m_source_file>
AV-unprocessed.smi

> <i_m_source_file_index>
532

> <i_lp_mmshare_version>
43012

> <i_f3d_flags>
0

> <s_epik_input>
W0NIM11uMWMoPU8pW25IXWMoPU8pYyhjMTIpbihbQ0gyXVtDSDJdT1tDSDNdKWMobjIpTjNbQ0gyXVtDQEBIXShbQ0gzXSlbQ0gyXVtDQEBIXShbQ0gzXSlbQ0gyXTM=

> <s_epik_cmdline>
J2VwaWtfcHl0aG9uJywgJy1waCcsICc3LjAnLCAnLXRuJywgJzgnLCAnLW1hJywgJzIwMCcsICctbWV0YWxfYmluZGluZycsICctaW1hZScsICc8aW5maWxlLm1hZT4nLCAnLW9tYWUnLCAnPG91dGZpbGUubWFlPic=

> <r_lp_tautomer_probability>
1

> <r_epik_Ionization_Penalty>
0.000642525

> <r_epik_Ionization_Penalty_Charging>
0.000121571

> <r_epik_Ionization_Penalty_Neutral>
0.000520954

> <r_epik_State_Penalty>
-0

> <r_epik_Charging_Adjusted_Penalty>
0.000121571

> <i_epik_Tot_Q>
0

> <i_epik_Tot_abs_Q>
0

> <r_epik_Metal_State_Penalty>
0.0931709

> <b_epik_Metal_Only>
0

> <s_lp_Force_Field>
OPLS_2005

> <r_lp_Energy>
38.055

> <b_lp_Chiralities_Consistent>
1

> <s_lp_Variant>
AV-unprocessed.smi:532-1

> <Gold.Version>
5.8.1

> <Gold.Id.Protein>
6NUR|6NUR_protein|mol2

> <Gold.PLP.Fitness>
49.0655

> <Gold.PLP.PLP>
-47.0840

> <Gold.PLP.part.hbond>
-1.9838

> <Gold.PLP.part.metal>
0.0000

> <Gold.PLP.part.buried>
-4.8595

> <Gold.PLP.part.nonpolar>
-42.7536

> <Gold.PLP.part.repulsive>
2.2465

> <Gold.PLP.ligand.clash>
0.0000

> <Gold.PLP.ligand.torsion>
0.5331

> <Gold.PLP.Chemscore.Hbond>
1.0000

> <Gold.PLP.Chemscore.CHOScore>
0.0000

> <Gold.PLP.Chemscore.Metal>
0.0000

> <Gold.Chemscore.Hbonds>
donor molecule, donor type, donor heavy atom, donor atom, acceptor molecule, acceptor atom, score
      L1  H    20    25       P1  7948  1.00

> <Gold.PLP.Chemscore.Internal.Correction>
0.0477

> <Gold.Rescore>
     Score         DG    S(hbond)    S(metal)    S(lipo)     H(rot)  DE(clash)    DE(int)     intcor
     15.27     -17.31       1.00        0.00     104.00       1.43       0.17       1.87       ----

> <Gold.Chemscore.Fitness>
15.2668

> <Gold.Chemscore.DG>
-17.3093

> <Gold.Chemscore.ZeroCoef>
-5.4800

> <Gold.Chemscore.Hbond>
0.9963

> <Gold.Chemscore.Metal>
0.0000

> <Gold.Chemscore.Lipo>
104.0044

> <Gold.Chemscore.Internal_Hbond>
0.0000

> <Gold.Chemscore.DEClash>
0.1714

> <Gold.Chemscore.DEInternal>
1.8711

> <Gold.Chemscore.Rot>
1.4324

> <Gold.Chemscore.Internal.Correction>
   9.000000E+99

> <Gold.Chemscore.Hbonds>
donor molecule, donor type, donor heavy atom, donor atom, acceptor molecule, acceptor atom, score
      L1  H    20    25       P1  7948  0.92

> <Gold.Chemscore.Hbond.Weighted>
-3.3277

> <Gold.Chemscore.Metal.Weighted>
-0.0000

> <Gold.Chemscore.Lipo.Weighted>
-12.1685

> <Gold.Chemscore.Internal_Hbond.Weighted>
0.0000

> <Gold.Chemscore.DEClash.Weighted>
0.1714

> <Gold.Chemscore.DEInternal.Weighted>
1.8711

> <Gold.Chemscore.Rot.Weighted>
3.6669

> <Gold.Chemscore.Internal.Correction.Weighted>
   9.000000E+99

> <Gold.Protein.RotatedTorsions>
[ 6907 6896 6895 6894 ] final  -72.43 input  -60.11 | X-H torsion
[ 7974 7965 7964 7962 ] final  -14.32 input  175.53 | X-H torsion
[ 8008 7997 7996 7995 ] final  -20.17 input   59.86 | X-H torsion
[ 10167 10162 10161 10158 ] final  -22.69 input  -65.29 | X-H torsion
[ 10718 10713 10712 10709 ] final  166.25 input   66.30 | X-H torsion
[ 10763 10752 10751 10750 ] final -171.12 input  -60.55 | X-H torsion
[ 11005 11000 10999 10996 ] final  134.81 input  -57.11 | X-H torsion

> <Gold.Protein.ActiveResidues>
 VAL166  LYS551  ARG553  GLY616  TRP617  ASP618  TYR619  PRO620  LYS621  CYS622 
 ASP623  PHE694  ASN695  SER759  ASP760  ASP761  ALA762  ILE779  LEU786  VAL792 
 PHE793  MET794  SER795  GLU796  ALA797  LYS798  CYS799  TRP800  GLU811  SER814 

> <Gold.Protein.RotatedAtoms>
  150.7170  134.5163  159.5631 H   0  0  0  0  0  0  0  0  0  0  0  0  # atno 6907 bound_to 6896
  152.2729  134.7910  160.0420 H   0  0  0  0  0  0  0  0  0  0  0  0  # atno 6908 bound_to 6896
  151.8584  133.3417  159.3732 H   0  0  0  0  0  0  0  0  0  0  0  0  # atno 6909 bound_to 6896
  146.2079  140.3331  142.8401 H   0  0  0  0  0  0  0  0  0  0  0  0  # atno 7974 bound_to 7965
  154.4788  140.2069  155.9814 H   0  0  0  0  0  0  0  0  0  0  0  0  # atno 8008 bound_to 7997
  156.1132  140.3225  155.8071 H   0  0  0  0  0  0  0  0  0  0  0  0  # atno 8009 bound_to 7997
  155.4599  140.0523  157.2983 H   0  0  0  0  0  0  0  0  0  0  0  0  # atno 8010 bound_to 7997
  140.7286  143.4511  151.0514 H   0  0  0  0  0  0  0  0  0  0  0  0  # atno 10167 bound_to 10162
  157.0686  131.0360  151.2620 H   0  0  0  0  0  0  0  0  0  0  0  0  # atno 10718 bound_to 10713
  154.6340  135.2890  155.0183 H   0  0  0  0  0  0  0  0  0  0  0  0  # atno 10763 bound_to 10752
  154.1333  135.6530  153.4930 H   0  0  0  0  0  0  0  0  0  0  0  0  # atno 10764 bound_to 10752
  153.0293  135.5315  154.7179 H   0  0  0  0  0  0  0  0  0  0  0  0  # atno 10765 bound_to 10752
  139.9939  134.9505  156.9919 H   0  0  0  0  0  0  0  0  0  0  0  0  # atno 11005 bound_to 11000
  144.8838  140.7436  143.5969 LP  0  0  0  0  0  0  0  0  0  0  0  0  # atno 17320 bound_to 7965
  145.3251  139.1776  143.4567 LP  0  0  0  0  0  0  0  0  0  0  0  0  # atno 17321 bound_to 7965
  139.8188  143.7849  152.3176 LP  0  0  0  0  0  0  0  0  0  0  0  0  # atno 17342 bound_to 10162
  139.7924  144.7405  150.9936 LP  0  0  0  0  0  0  0  0  0  0  0  0  # atno 17343 bound_to 10162
  157.4897  130.7814  149.7495 LP  0  0  0  0  0  0  0  0  0  0  0  0  # atno 17370 bound_to 10713
  155.9957  130.3910  150.2808 LP  0  0  0  0  0  0  0  0  0  0  0  0  # atno 17371 bound_to 10713
  140.4856  134.1245  155.7224 LP  0  0  0  0  0  0  0  0  0  0  0  0  # atno 17394 bound_to 11000
  141.1588  133.8831  157.1904 LP  0  0  0  0  0  0  0  0  0  0  0  0  # atno 17395 bound_to 11000

$$$$
