AV-unprocessed.smi:2855|AV-procd|sdf|10984|dock10
  -GOLD-   2272015433D 1   1.00000     0.00000
 Structure written by MMmdl.
 47 48  0  0  0  0  0  0  0  0  1 V2000
  153.2696  140.9960  160.2294 C   0  0  0  0  0  0  0  0  0  0  0  0
  152.1405  140.7223  159.2258 C   0  0  1  0  0  0  0  0  0  0  0  0
  151.9176  141.9181  158.2874 C   0  0  0  0  0  0  0  0  0  0  0  0
  150.7918  141.6471  157.2772 C   0  0  0  0  0  0  0  0  0  0  0  0
  151.0430  140.3732  156.4303 C   0  0  2  0  0  0  0  0  0  0  0  0
  149.9040  140.1262  155.3915 C   0  0  0  0  0  0  0  0  0  0  0  0
  150.2908  139.1009  154.3081 C   0  0  0  0  0  0  0  0  0  0  0  0
  149.4405  141.4243  154.7033 C   0  0  0  0  0  0  0  0  0  0  0  0
  151.3090  139.1609  157.3687 C   0  0  2  0  0  0  0  0  0  0  0  0
  150.0714  138.7455  158.0238 N   0  0  0  0  0  0  0  0  0  0  0  0
  149.8174  137.5462  158.5711 C   0  0  0  0  0  0  0  0  0  0  0  0
  150.6588  136.6517  158.6471 O   0  0  0  0  0  0  0  0  0  0  0  0
  148.3942  137.2950  159.0978 C   0  0  0  0  0  0  0  0  0  0  0  0
  148.2250  135.9974  159.7749 N   0  0  0  0  0  0  0  0  0  0  0  0
  148.4987  134.8142  159.1032 C   0  0  0  0  0  0  0  0  0  0  0  0
  148.4042  133.5920  159.6782 C   0  0  0  0  0  0  0  0  0  0  0  0
  147.9975  133.4608  161.0734 C   0  0  0  0  0  0  0  0  0  0  0  0
  147.8863  132.3997  161.6831 O   0  0  0  0  0  0  0  0  0  0  0  0
  147.7285  134.6731  161.7140 N   0  0  0  0  0  0  0  0  0  0  0  0
  147.8241  135.9357  161.1280 C   0  0  0  0  0  0  0  0  0  0  0  0
  147.5772  136.9435  161.7889 O   0  0  0  0  0  0  0  0  0  0  0  0
  152.4208  139.4561  158.3983 C   0  0  0  0  0  0  0  0  0  0  0  0
  147.4442  134.6326  162.6820 H   0  0  0  0  0  0  0  0  0  0  0  0
  154.2204  141.1600  159.7215 H   0  0  0  0  0  0  0  0  0  0  0  0
  153.3979  140.1564  160.9131 H   0  0  0  0  0  0  0  0  0  0  0  0
  153.0553  141.8801  160.8306 H   0  0  0  0  0  0  0  0  0  0  0  0
  151.2254  140.5642  159.7986 H   0  0  0  0  0  0  0  0  0  0  0  0
  151.6758  142.8074  158.8704 H   0  0  0  0  0  0  0  0  0  0  0  0
  152.8399  142.1444  157.7504 H   0  0  0  0  0  0  0  0  0  0  0  0
  149.8416  141.5596  157.8059 H   0  0  0  0  0  0  0  0  0  0  0  0
  150.7049  142.5242  156.6383 H   0  0  0  0  0  0  0  0  0  0  0  0
  151.9620  140.5397  155.8662 H   0  0  0  0  0  0  0  0  0  0  0  0
  149.0383  139.7223  155.9178 H   0  0  0  0  0  0  0  0  0  0  0  0
  151.2046  139.3948  153.7911 H   0  0  0  0  0  0  0  0  0  0  0  0
  149.5036  139.0036  153.5601 H   0  0  0  0  0  0  0  0  0  0  0  0
  150.4426  138.1054  154.7244 H   0  0  0  0  0  0  0  0  0  0  0  0
  150.2749  141.9423  154.2295 H   0  0  0  0  0  0  0  0  0  0  0  0
  148.9678  142.1129  155.4025 H   0  0  0  0  0  0  0  0  0  0  0  0
  148.7005  141.2159  153.9299 H   0  0  0  0  0  0  0  0  0  0  0  0
  151.6617  138.3271  156.7606 H   0  0  0  0  0  0  0  0  0  0  0  0
  149.3160  139.4152  158.0116 H   0  0  0  0  0  0  0  0  0  0  0  0
  148.1148  138.1104  159.7679 H   0  0  0  0  0  0  0  0  0  0  0  0
  147.7066  137.3702  158.2543 H   0  0  0  0  0  0  0  0  0  0  0  0
  148.8106  134.8637  158.0696 H   0  0  0  0  0  0  0  0  0  0  0  0
  148.6337  132.7064  159.1036 H   0  0  0  0  0  0  0  0  0  0  0  0
  153.3669  139.5766  157.8687 H   0  0  0  0  0  0  0  0  0  0  0  0
  152.5579  138.6004  159.0605 H   0  0  0  0  0  0  0  0  0  0  0  0
  1  2  1  0  0  0  0
  1 24  1  0  0  0  0
  1 25  1  0  0  0  0
  1 26  1  0  0  0  0
  2 22  1  0  0  0  0
  2  3  1  0  0  0  0
  2 27  1  0  0  0  0
  3  4  1  0  0  0  0
  3 28  1  0  0  0  0
  3 29  1  0  0  0  0
  4  5  1  0  0  0  0
  4 30  1  0  0  0  0
  4 31  1  0  0  0  0
  5  6  1  0  0  0  0
  5  9  1  0  0  0  0
  5 32  1  0  0  0  0
  6  7  1  0  0  0  0
  6  8  1  0  0  0  0
  6 33  1  0  0  0  0
  7 34  1  0  0  0  0
  7 35  1  0  0  0  0
  7 36  1  0  0  0  0
  8 37  1  0  0  0  0
  8 38  1  0  0  0  0
  8 39  1  0  0  0  0
  9 10  1  0  0  0  0
  9 22  1  0  0  0  0
  9 40  1  0  0  0  0
 10 11  1  0  0  0  0
 10 41  1  0  0  0  0
 11 12  2  0  0  0  0
 11 13  1  0  0  0  0
 13 14  1  0  0  0  0
 13 42  1  0  0  0  0
 13 43  1  0  0  0  0
 14 20  1  0  0  0  0
 14 15  1  0  0  0  0
 15 16  2  0  0  0  0
 15 44  1  0  0  0  0
 16 17  1  0  0  0  0
 16 45  1  0  0  0  0
 17 18  2  0  0  0  0
 17 19  1  0  0  0  0
 19 23  1  0  0  0  0
 19 20  1  0  0  0  0
 20 21  2  0  0  0  0
 22 46  1  0  0  0  0
 22 47  1  0  0  0  0
M  END
> <s_m_source_file>
AV-unprocessed.smi

> <i_m_source_file_index>
2855

> <i_lp_mmshare_version>
43012

> <i_f3d_flags>
0

> <s_epik_input>
W0NIM11bQ0BASF0xW0NIMl1bQ0gyXVtDQEBIXShbQ0hdKFtDSDNdKVtDSDNdKVtDQEhdKFtDSDJdMSlbTkhdQyg9TylbQ0gyXW4yW2NIXVtjSF1jKD1PKVtuSF1jMj1P

> <s_epik_cmdline>
J2VwaWtfcHl0aG9uJywgJy1waCcsICc3LjAnLCAnLXRuJywgJzgnLCAnLW1hJywgJzIwMCcsICctbWV0YWxfYmluZGluZycsICctaW1hZScsICc8aW5maWxlLm1hZT4nLCAnLW9tYWUnLCAnPG91dGZpbGUubWFlPic=

> <r_lp_tautomer_probability>
0.999537

> <r_epik_Ionization_Penalty>
0.00306256

> <r_epik_Ionization_Penalty_Charging>
0.00306254

> <r_epik_Ionization_Penalty_Neutral>
2.0223e-08

> <r_epik_State_Penalty>
0.0021533

> <r_epik_Charging_Adjusted_Penalty>
0.00521583

> <i_epik_Tot_Q>
0

> <i_epik_Tot_abs_Q>
0

> <r_epik_Metal_State_Penalty>
0.362116

> <b_epik_Metal_Only>
0

> <s_lp_Force_Field>
OPLS_2005

> <r_lp_Energy>
12.2647

> <b_lp_Chiralities_Consistent>
1

> <s_lp_Variant>
AV-unprocessed.smi:2855-8

> <Gold.Version>
5.8.1

> <Gold.Id.Protein>
6NUR|6NUR_protein|mol2

> <Gold.PLP.Fitness>
43.8601

> <Gold.PLP.PLP>
-36.8605

> <Gold.PLP.part.hbond>
-3.0000

> <Gold.PLP.part.metal>
0.0000

> <Gold.PLP.part.buried>
-4.5616

> <Gold.PLP.part.nonpolar>
-29.6326

> <Gold.PLP.part.repulsive>
0.2076

> <Gold.PLP.ligand.clash>
0.0000

> <Gold.PLP.ligand.torsion>
0.4790

> <Gold.PLP.Chemscore.Hbond>
2.6396

> <Gold.PLP.Chemscore.CHOScore>
0.0000

> <Gold.PLP.Chemscore.Metal>
0.0000

> <Gold.Chemscore.Hbonds>
donor molecule, donor type, donor heavy atom, donor atom, acceptor molecule, acceptor atom, score
      P1  H  6896  6909       L1    12  0.99
      P1  H  6931  6943       L1    21  1.00
      P1  H  6934  6947       L1    21  0.31

> <Gold.PLP.Chemscore.Internal.Correction>
0.0390

> <Gold.Rescore>
     Score         DG    S(hbond)    S(metal)    S(lipo)     H(rot)  DE(clash)    DE(int)     intcor
     15.77     -17.55       2.50        0.00      72.34       1.85       0.06       1.72       ----

> <Gold.Chemscore.Fitness>
15.7712

> <Gold.Chemscore.DG>
-17.5453

> <Gold.Chemscore.ZeroCoef>
-5.4800

> <Gold.Chemscore.Hbond>
2.4994

> <Gold.Chemscore.Metal>
0.0000

> <Gold.Chemscore.Lipo>
72.3357

> <Gold.Chemscore.Internal_Hbond>
0.0000

> <Gold.Chemscore.DEClash>
0.0584

> <Gold.Chemscore.DEInternal>
1.7157

> <Gold.Chemscore.Rot>
1.8539

> <Gold.Chemscore.Internal.Correction>
   9.000000E+99

> <Gold.Chemscore.Hbonds>
donor molecule, donor type, donor heavy atom, donor atom, acceptor molecule, acceptor atom, score
      P1  H  6896  6909       L1    12  0.87
      P1  H  6931  6943       L1    21  0.89
      P1  H  6934  6947       L1    21  0.30

> <Gold.Chemscore.Hbond.Weighted>
-8.3480

> <Gold.Chemscore.Metal.Weighted>
-0.0000

> <Gold.Chemscore.Lipo.Weighted>
-8.4633

> <Gold.Chemscore.Internal_Hbond.Weighted>
0.0000

> <Gold.Chemscore.DEClash.Weighted>
0.0584

> <Gold.Chemscore.DEInternal.Weighted>
1.7157

> <Gold.Chemscore.Rot.Weighted>
4.7460

> <Gold.Chemscore.Internal.Correction.Weighted>
   9.000000E+99

> <Gold.Protein.RotatedTorsions>
[ 6907 6896 6895 6894 ] final   83.19 input  -60.11 | X-H torsion
[ 7974 7965 7964 7962 ] final   27.10 input  175.53 | X-H torsion
[ 8008 7997 7996 7995 ] final  -82.43 input   59.86 | X-H torsion
[ 10167 10162 10161 10158 ] final   42.40 input  -65.29 | X-H torsion
[ 10718 10713 10712 10709 ] final   17.40 input   66.30 | X-H torsion
[ 10763 10752 10751 10750 ] final   45.22 input  -60.55 | X-H torsion
[ 11005 11000 10999 10996 ] final   24.38 input  -57.11 | X-H torsion

> <Gold.Protein.ActiveResidues>
 VAL166  LYS551  ARG553  GLY616  TRP617  ASP618  TYR619  PRO620  LYS621  CYS622 
 ASP623  PHE694  ASN695  SER759  ASP760  ASP761  ALA762  ILE779  LEU786  VAL792 
 PHE793  MET794  SER795  GLU796  ALA797  LYS798  CYS799  TRP800  GLU811  SER814 

> <Gold.Protein.RotatedAtoms>
  152.5320  134.2934  159.9051 H   0  0  0  0  0  0  0  0  0  0  0  0  # atno 6907 bound_to 6896
  151.2885  133.4169  159.2639 H   0  0  0  0  0  0  0  0  0  0  0  0  # atno 6908 bound_to 6896
  151.0221  134.9492  159.8122 H   0  0  0  0  0  0  0  0  0  0  0  0  # atno 6909 bound_to 6896
  146.1802  139.7237  142.8906 H   0  0  0  0  0  0  0  0  0  0  0  0  # atno 7974 bound_to 7965
  154.6086  140.0633  156.9463 H   0  0  0  0  0  0  0  0  0  0  0  0  # atno 8008 bound_to 7997
  155.2012  140.3315  155.4324 H   0  0  0  0  0  0  0  0  0  0  0  0  # atno 8009 bound_to 7997
  156.2362  140.1864  156.7095 H   0  0  0  0  0  0  0  0  0  0  0  0  # atno 8010 bound_to 7997
  140.3548  144.2304  150.6142 H   0  0  0  0  0  0  0  0  0  0  0  0  # atno 10167 bound_to 10162
  157.0816  130.6390  149.5828 H   0  0  0  0  0  0  0  0  0  0  0  0  # atno 10718 bound_to 10713
  152.9828  135.6046  154.3402 H   0  0  0  0  0  0  0  0  0  0  0  0  # atno 10763 bound_to 10752
  154.3099  135.2771  155.2573 H   0  0  0  0  0  0  0  0  0  0  0  0  # atno 10764 bound_to 10752
  154.4787  135.5923  153.6429 H   0  0  0  0  0  0  0  0  0  0  0  0  # atno 10765 bound_to 10752
  140.3594  134.2142  155.7673 H   0  0  0  0  0  0  0  0  0  0  0  0  # atno 11005 bound_to 11000
  145.4097  141.0395  143.3024 LP  0  0  0  0  0  0  0  0  0  0  0  0  # atno 17320 bound_to 7965
  144.8303  139.5640  143.6947 LP  0  0  0  0  0  0  0  0  0  0  0  0  # atno 17321 bound_to 7965
  140.5184  143.2272  151.8427 LP  0  0  0  0  0  0  0  0  0  0  0  0  # atno 17342 bound_to 10162
  139.4821  144.4866  151.9239 LP  0  0  0  0  0  0  0  0  0  0  0  0  # atno 17343 bound_to 10162
  155.9922  130.4979  150.7330 LP  0  0  0  0  0  0  0  0  0  0  0  0  # atno 17370 bound_to 10713
  157.4795  131.0901  151.0552 LP  0  0  0  0  0  0  0  0  0  0  0  0  # atno 17371 bound_to 10713
  141.1989  133.8025  157.0563 LP  0  0  0  0  0  0  0  0  0  0  0  0  # atno 17394 bound_to 11000
  140.0639  134.9740  157.1352 LP  0  0  0  0  0  0  0  0  0  0  0  0  # atno 17395 bound_to 11000

$$$$
