AV-unprocessed.smi:2558|AV-procd|sdf|10032|dock9
  -GOLD-   2272014 73D 1   1.00000     0.00000
 Structure written by MMmdl.
 43 44  0  0  0  0  0  0  0  0  1 V2000
  150.7213  136.9773  158.1989 C   0  0  0  0  0  0  0  0  0  0  0  0
  151.3078  135.8845  156.8391 S   0  0  0  0  0  0  0  0  0  0  0  0
  152.3827  136.5828  156.1161 O   0  0  0  0  0  0  0  0  0  0  0  0
  151.5720  134.5500  157.3995 O   0  0  0  0  0  0  0  0  0  0  0  0
  149.8944  135.7778  155.8068 N   0  0  0  0  0  0  0  0  0  0  0  0
  149.3792  134.5525  155.3124 C   0  0  0  0  0  0  0  0  0  0  0  0
  149.5924  133.4895  155.9001 O   0  0  0  0  0  0  0  0  0  0  0  0
  148.5643  134.6675  154.2423 N   0  0  0  0  0  0  0  0  0  0  0  0
  147.8889  133.6941  153.6015 C   0  0  0  0  0  0  0  0  0  0  0  0
  147.8834  132.5047  153.9232 O   0  0  0  0  0  0  0  0  0  0  0  0
  147.2024  134.2115  152.5669 N   0  0  0  0  0  0  0  0  0  0  0  0
  146.3534  133.5510  151.6377 C   0  0  0  0  0  0  0  0  0  0  0  0
  145.2722  134.2821  151.1035 C   0  0  0  0  0  0  0  0  0  0  0  0
  144.4186  133.6641  150.1705 C   0  0  0  0  0  0  0  0  0  0  0  0
  144.6855  132.3325  149.7989 C   0  0  0  0  0  0  0  0  0  0  0  0
  145.7238  131.6225  150.2875 N   0  0  0  0  0  0  0  0  0  0  0  0
  146.5386  132.2211  151.1830 C   0  0  0  0  0  0  0  0  0  0  0  0
  149.3294  137.0732  155.3328 C   0  0  0  0  0  0  0  0  0  0  0  0
  150.4063  138.0020  154.7322 C   0  0  0  0  0  0  0  0  0  0  0  0
  149.7679  139.2810  154.1655 C   0  0  0  0  0  0  0  0  0  0  0  0
  148.9148  139.9994  155.2254 C   0  0  0  0  0  0  0  0  0  0  0  0
  147.8370  139.0683  155.8072 C   0  0  0  0  0  0  0  0  0  0  0  0
  148.4607  137.7910  156.3925 C   0  0  0  0  0  0  0  0  0  0  0  0
  151.5239  137.1168  158.9226 H   0  0  0  0  0  0  0  0  0  0  0  0
  149.8664  136.5167  158.6937 H   0  0  0  0  0  0  0  0  0  0  0  0
  150.4271  137.9451  157.7942 H   0  0  0  0  0  0  0  0  0  0  0  0
  148.4602  135.5986  153.8673 H   0  0  0  0  0  0  0  0  0  0  0  0
  147.2536  135.2141  152.4619 H   0  0  0  0  0  0  0  0  0  0  0  0
  145.0943  135.3038  151.4064 H   0  0  0  0  0  0  0  0  0  0  0  0
  143.5793  134.1979  149.7498 H   0  0  0  0  0  0  0  0  0  0  0  0
  144.0512  131.8263  149.0864 H   0  0  0  0  0  0  0  0  0  0  0  0
  147.3619  131.6095  151.5156 H   0  0  0  0  0  0  0  0  0  0  0  0
  148.6413  136.8511  154.5176 H   0  0  0  0  0  0  0  0  0  0  0  0
  151.1441  138.2823  155.4830 H   0  0  0  0  0  0  0  0  0  0  0  0
  150.9499  137.4819  153.9429 H   0  0  0  0  0  0  0  0  0  0  0  0
  150.5448  139.9512  153.7970 H   0  0  0  0  0  0  0  0  0  0  0  0
  149.1455  139.0287  153.3061 H   0  0  0  0  0  0  0  0  0  0  0  0
  149.5587  140.3595  156.0288 H   0  0  0  0  0  0  0  0  0  0  0  0
  148.4455  140.8808  154.7874 H   0  0  0  0  0  0  0  0  0  0  0  0
  147.2704  139.5911  156.5781 H   0  0  0  0  0  0  0  0  0  0  0  0
  147.1231  138.8034  155.0261 H   0  0  0  0  0  0  0  0  0  0  0  0
  147.6730  137.1247  156.7460 H   0  0  0  0  0  0  0  0  0  0  0  0
  149.0508  138.0662  157.2663 H   0  0  0  0  0  0  0  0  0  0  0  0
  1  2  1  0  0  0  0
  1 24  1  0  0  0  0
  1 25  1  0  0  0  0
  1 26  1  0  0  0  0
  2  3  2  0  0  0  0
  2  4  2  0  0  0  0
  2  5  1  0  0  0  0
  5  6  1  0  0  0  0
  5 18  1  0  0  0  0
  6  7  2  0  0  0  0
  6  8  1  0  0  0  0
  8  9  1  0  0  0  0
  8 27  1  0  0  0  0
  9 10  2  0  0  0  0
  9 11  1  0  0  0  0
 11 12  1  0  0  0  0
 11 28  1  0  0  0  0
 12 17  1  0  0  0  0
 12 13  2  0  0  0  0
 13 14  1  0  0  0  0
 13 29  1  0  0  0  0
 14 15  2  0  0  0  0
 14 30  1  0  0  0  0
 15 16  1  0  0  0  0
 15 31  1  0  0  0  0
 16 17  2  0  0  0  0
 17 32  1  0  0  0  0
 18 23  1  0  0  0  0
 18 19  1  0  0  0  0
 18 33  1  0  0  0  0
 19 20  1  0  0  0  0
 19 34  1  0  0  0  0
 19 35  1  0  0  0  0
 20 21  1  0  0  0  0
 20 36  1  0  0  0  0
 20 37  1  0  0  0  0
 21 22  1  0  0  0  0
 21 38  1  0  0  0  0
 21 39  1  0  0  0  0
 22 23  1  0  0  0  0
 22 40  1  0  0  0  0
 22 41  1  0  0  0  0
 23 42  1  0  0  0  0
 23 43  1  0  0  0  0
M  END
> <s_m_source_file>
AV-unprocessed.smi

> <i_m_source_file_index>
2558

> <i_lp_mmshare_version>
43012

> <i_f3d_flags>
0

> <s_epik_input>
W0NIMl0xW0NIMl1bQ0gyXVtDSDJdW0NIMl1bQ0hdMU4oUyg9TykoPU8pW0NIM10pQyg9TylbTkhdQyg9TylbTkhdYzJbY0hdW2NIXVtjSF1uW2NIXTI=

> <s_epik_cmdline>
J2VwaWtfcHl0aG9uJywgJy1waCcsICc3LjAnLCAnLXRuJywgJzgnLCAnLW1hJywgJzIwMCcsICctbWV0YWxfYmluZGluZycsICctaW1hZScsICc8aW5maWxlLm1hZT4nLCAnLW9tYWUnLCAnPG91dGZpbGUubWFlPic=

> <r_epik_Ionization_Penalty>
0.00647128

> <r_epik_Ionization_Penalty_Charging>
0

> <r_epik_Ionization_Penalty_Neutral>
0.00647128

> <r_epik_State_Penalty>
0.00476147

> <r_epik_Charging_Adjusted_Penalty>
0.00476147

> <i_epik_Tot_Q>
0

> <i_epik_Tot_abs_Q>
0

> <r_epik_Metal_State_Penalty>
0.0176635

> <b_epik_Metal_Only>
0

> <s_lp_Force_Field>
OPLS_2005

> <r_lp_Energy>
21.3267

> <b_lp_Chiralities_Consistent>
1

> <s_lp_Variant>
AV-unprocessed.smi:2558-1

> <Gold.Version>
5.8.1

> <Gold.Id.Protein>
6NUR|6NUR_protein|mol2

> <Gold.PLP.Fitness>
37.6786

> <Gold.PLP.PLP>
-30.0512

> <Gold.PLP.part.hbond>
-3.7629

> <Gold.PLP.part.metal>
0.0000

> <Gold.PLP.part.buried>
-2.5465

> <Gold.PLP.part.nonpolar>
-24.3319

> <Gold.PLP.part.repulsive>
0.2567

> <Gold.PLP.ligand.clash>
0.0053

> <Gold.PLP.ligand.torsion>
1.7244

> <Gold.PLP.Chemscore.Hbond>
1.9830

> <Gold.PLP.Chemscore.CHOScore>
0.9931

> <Gold.PLP.Chemscore.Metal>
0.0000

> <Gold.Chemscore.Hbonds>
donor molecule, donor type, donor heavy atom, donor atom, acceptor molecule, acceptor atom, score
      L1  H     8    27       P1  7948  0.37
      L1  H    11    28       P1  7948  0.44
      P1  H  6896  6907       L1     4  0.04
      P1  H 10752 10765       L1     3  1.00
      L1  C    17    32       P1 10747  0.92

> <Gold.PLP.Chemscore.Internal.Correction>
2.1529

> <Gold.Rescore>
     Score         DG    S(hbond)    S(metal)    S(lipo)     H(rot)  DE(clash)    DE(int)     intcor
     14.08     -20.01       2.62        0.00      71.33       1.00       0.14       5.80       ----

> <Gold.Chemscore.Fitness>
14.0781

> <Gold.Chemscore.DG>
-20.0148

> <Gold.Chemscore.ZeroCoef>
-5.4800

> <Gold.Chemscore.Hbond>
2.6195

> <Gold.Chemscore.Metal>
0.0000

> <Gold.Chemscore.Lipo>
71.3302

> <Gold.Chemscore.Internal_Hbond>
0.0000

> <Gold.Chemscore.DEClash>
0.1356

> <Gold.Chemscore.DEInternal>
5.8012

> <Gold.Chemscore.Rot>
1.0000

> <Gold.Chemscore.Internal.Correction>
   9.000000E+99

> <Gold.Chemscore.Hbonds>
donor molecule, donor type, donor heavy atom, donor atom, acceptor molecule, acceptor atom, score
      L1  H     8    27       P1  7948  0.35
      L1  H    11    28       P1  7948  0.42
      P1  H  6896  6907       L1     4  0.07
      P1  H 10752 10765       L1     3  0.72

> <Gold.Chemscore.Hbond.Weighted>
-8.7492

> <Gold.Chemscore.Metal.Weighted>
-0.0000

> <Gold.Chemscore.Lipo.Weighted>
-8.3456

> <Gold.Chemscore.Internal_Hbond.Weighted>
0.0000

> <Gold.Chemscore.DEClash.Weighted>
0.1356

> <Gold.Chemscore.DEInternal.Weighted>
5.8012

> <Gold.Chemscore.Rot.Weighted>
2.5600

> <Gold.Chemscore.Internal.Correction.Weighted>
   9.000000E+99

> <Gold.Protein.RotatedTorsions>
[ 6907 6896 6895 6894 ] final -153.29 input  -60.11 | X-H torsion
[ 7974 7965 7964 7962 ] final  -34.66 input  175.53 | X-H torsion
[ 8008 7997 7996 7995 ] final   26.25 input   59.86 | X-H torsion
[ 10167 10162 10161 10158 ] final  -51.61 input  -65.29 | X-H torsion
[ 10718 10713 10712 10709 ] final   80.59 input   66.30 | X-H torsion
[ 10763 10752 10751 10750 ] final -157.19 input  -60.55 | X-H torsion
[ 11005 11000 10999 10996 ] final   31.56 input  -57.11 | X-H torsion

> <Gold.Protein.ActiveResidues>
 VAL166  LYS551  ARG553  GLY616  TRP617  ASP618  TYR619  PRO620  LYS621  CYS622 
 ASP623  PHE694  ASN695  SER759  ASP760  ASP761  ALA762  ILE779  LEU786  VAL792 
 PHE793  MET794  SER795  GLU796  ALA797  LYS798  CYS799  TRP800  GLU811  SER814 

> <Gold.Protein.RotatedAtoms>
  151.2404  133.4403  159.2606 H   0  0  0  0  0  0  0  0  0  0  0  0  # atno 6907 bound_to 6896
  151.0711  134.9799  159.8319 H   0  0  0  0  0  0  0  0  0  0  0  0  # atno 6908 bound_to 6896
  152.5412  134.2349  159.8892 H   0  0  0  0  0  0  0  0  0  0  0  0  # atno 6909 bound_to 6896
  146.0811  140.6065  142.8908 H   0  0  0  0  0  0  0  0  0  0  0  0  # atno 7974 bound_to 7965
  155.0243  140.3151  155.4782 H   0  0  0  0  0  0  0  0  0  0  0  0  # atno 8008 bound_to 7997
  156.2886  140.2191  156.5305 H   0  0  0  0  0  0  0  0  0  0  0  0  # atno 8009 bound_to 7997
  154.7425  140.0472  157.0811 H   0  0  0  0  0  0  0  0  0  0  0  0  # atno 8010 bound_to 7997
  140.6580  143.2613  151.4528 H   0  0  0  0  0  0  0  0  0  0  0  0  # atno 10167 bound_to 10162
  157.6810  130.9966  150.2102 H   0  0  0  0  0  0  0  0  0  0  0  0  # atno 10718 bound_to 10713
  154.7655  135.3130  154.8294 H   0  0  0  0  0  0  0  0  0  0  0  0  # atno 10763 bound_to 10752
  153.9043  135.6812  153.4758 H   0  0  0  0  0  0  0  0  0  0  0  0  # atno 10764 bound_to 10752
  153.1261  135.4801  154.9207 H   0  0  0  0  0  0  0  0  0  0  0  0  # atno 10765 bound_to 10752
  140.2826  134.2956  155.7796 H   0  0  0  0  0  0  0  0  0  0  0  0  # atno 11005 bound_to 11000
  144.7294  140.4625  143.6949 LP  0  0  0  0  0  0  0  0  0  0  0  0  # atno 17320 bound_to 7965
  145.6215  139.1525  143.3019 LP  0  0  0  0  0  0  0  0  0  0  0  0  # atno 17321 bound_to 7965
  139.5806  144.1718  152.1963 LP  0  0  0  0  0  0  0  0  0  0  0  0  # atno 17342 bound_to 10162
  140.1042  144.5513  150.6968 LP  0  0  0  0  0  0  0  0  0  0  0  0  # atno 17343 bound_to 10162
  156.2775  130.3729  149.7969 LP  0  0  0  0  0  0  0  0  0  0  0  0  # atno 17370 bound_to 10713
  156.5667  130.8407  151.3345 LP  0  0  0  0  0  0  0  0  0  0  0  0  # atno 17371 bound_to 10713
  141.2160  133.7535  156.9503 LP  0  0  0  0  0  0  0  0  0  0  0  0  # atno 17394 bound_to 11000
  140.1269  134.9381  157.2283 LP  0  0  0  0  0  0  0  0  0  0  0  0  # atno 17395 bound_to 11000

$$$$
