AV-unprocessed.smi:1952|AV-procd|sdf|7891|dock5
  -GOLD-   2272010 43D 1   1.00000     0.00000
 Structure written by MMmdl.
 39 40  0  0  0  0  0  0  0  0  3 V2000
  153.4833  142.1130  161.4430 C   0  0  0  0  0  0  0  0  0  0  0  0
  153.1858  141.5128  160.1114 C   0  0  0  0  0  0  0  0  0  0  0  0
  152.2402  141.7834  159.1631 C   0  0  0  0  0  0  0  0  0  0  0  0
  152.5266  140.8371  158.1438 C   0  0  0  0  0  0  0  0  0  0  0  0
  151.7406  140.7846  156.9627 N   0  0  0  0  0  0  0  0  0  0  0  0
  152.0184  140.1800  155.7941 C   0  0  0  0  0  0  0  0  0  0  0  0
  153.1097  139.6244  155.6211 O   0  0  0  0  0  0  0  0  0  0  0  0
  150.9845  140.2598  154.9107 N   0  5  0  0  0  0  0  0  0  0  0  0
  149.9272  139.2533  154.7463 C   0  0  2  0  0  0  0  0  0  0  0  0
  150.5788  137.9043  154.4116 C   0  0  0  0  0  0  0  0  0  0  0  0
  148.9399  139.6915  153.6364 C   0  0  0  0  0  0  0  0  0  0  0  0
  148.0084  138.5987  153.2484 N   0  3  0  0  0  0  0  0  0  0  0  0
  147.4439  137.8592  154.4008 C   0  0  0  0  0  0  0  0  0  0  0  0
  146.6117  136.6662  153.9017 C   0  0  0  0  0  0  0  0  0  0  0  0
  145.5882  137.1273  153.0273 O   0  0  0  0  0  0  0  0  0  0  0  0
  146.1203  137.7776  151.8787 C   0  0  0  0  0  0  0  0  0  0  0  0
  146.9303  139.0091  152.3141 C   0  0  0  0  0  0  0  0  0  0  0  0
  153.5527  140.0554  158.4457 N   0  0  0  0  0  0  0  0  0  0  0  0
  153.9819  140.4862  159.7065 O   0  0  0  0  0  0  0  0  0  0  0  0
  152.5731  142.2101  162.0348 H   0  0  0  0  0  0  0  0  0  0  0  0
  153.9202  143.1051  161.3288 H   0  0  0  0  0  0  0  0  0  0  0  0
  154.1860  141.4970  162.0045 H   0  0  0  0  0  0  0  0  0  0  0  0
  151.4681  142.5376  159.1953 H   0  0  0  0  0  0  0  0  0  0  0  0
  150.8432  141.2431  157.0158 H   0  0  0  0  0  0  0  0  0  0  0  0
  149.3592  139.1140  155.6672 H   0  0  0  0  0  0  0  0  0  0  0  0
  149.8252  137.1257  154.2913 H   0  0  0  0  0  0  0  0  0  0  0  0
  151.2542  137.5851  155.2062 H   0  0  0  0  0  0  0  0  0  0  0  0
  151.1531  137.9555  153.4858 H   0  0  0  0  0  0  0  0  0  0  0  0
  148.3747  140.5532  153.9964 H   0  0  0  0  0  0  0  0  0  0  0  0
  149.4808  140.0405  152.7556 H   0  0  0  0  0  0  0  0  0  0  0  0
  148.2514  137.4973  155.0386 H   0  0  0  0  0  0  0  0  0  0  0  0
  146.8283  138.5288  155.0030 H   0  0  0  0  0  0  0  0  0  0  0  0
  147.2440  135.9392  153.3891 H   0  0  0  0  0  0  0  0  0  0  0  0
  146.1515  136.1501  154.7445 H   0  0  0  0  0  0  0  0  0  0  0  0
  146.7417  137.0852  151.3081 H   0  0  0  0  0  0  0  0  0  0  0  0
  145.2984  138.0781  151.2290 H   0  0  0  0  0  0  0  0  0  0  0  0
  146.2786  139.7368  152.7998 H   0  0  0  0  0  0  0  0  0  0  0  0
  147.3562  139.4950  151.4358 H   0  0  0  0  0  0  0  0  0  0  0  0
  148.5851  137.9332  152.7512 H   0  0  0  0  0  0  0  0  0  0  0  0
  1  2  1  0  0  0  0
  1 20  1  0  0  0  0
  1 21  1  0  0  0  0
  1 22  1  0  0  0  0
  2 19  1  0  0  0  0
  2  3  2  0  0  0  0
  3  4  1  0  0  0  0
  3 23  1  0  0  0  0
  4  5  1  0  0  0  0
  4 18  2  0  0  0  0
  5  6  1  0  0  0  0
  5 24  1  0  0  0  0
  6  7  2  0  0  0  0
  6  8  1  0  0  0  0
  8  9  1  0  0  0  0
  9 10  1  0  0  0  0
  9 11  1  0  0  0  0
  9 25  1  0  0  0  0
 10 26  1  0  0  0  0
 10 27  1  0  0  0  0
 10 28  1  0  0  0  0
 11 12  1  0  0  0  0
 11 29  1  0  0  0  0
 11 30  1  0  0  0  0
 12 17  1  0  0  0  0
 12 13  1  0  0  0  0
 12 39  1  0  0  0  0
 13 14  1  0  0  0  0
 13 31  1  0  0  0  0
 13 32  1  0  0  0  0
 14 15  1  0  0  0  0
 14 33  1  0  0  0  0
 14 34  1  0  0  0  0
 15 16  1  0  0  0  0
 16 17  1  0  0  0  0
 16 35  1  0  0  0  0
 16 36  1  0  0  0  0
 17 37  1  0  0  0  0
 17 38  1  0  0  0  0
 18 19  1  0  0  0  0
M  CHG  1   8  -1
M  CHG  1  12   1
M  END
> <s_m_source_file>
AV-unprocessed.smi

> <i_m_source_file_index>
1952

> <i_lp_mmshare_version>
43012

> <i_f3d_flags>
0

> <s_epik_input>
W0NIM11jMVtjSF1jKG5vMSlbTkhdQyg9TylbTkhdW0NASF0oW0NIM10pW0NIMl1OMltDSDJdW0NIMl1PW0NIMl1bQ0gyXTI=

> <s_epik_cmdline>
J2VwaWtfcHl0aG9uJywgJy1waCcsICc3LjAnLCAnLXRuJywgJzgnLCAnLW1hJywgJzIwMCcsICctbWV0YWxfYmluZGluZycsICctaW1hZScsICc8aW5maWxlLm1hZT4nLCAnLW9tYWUnLCAnPG91dGZpbGUubWFlPic=

> <r_epik_Ionization_Penalty>
6.76648

> <r_epik_Ionization_Penalty_Charging>
6.76648

> <r_epik_Ionization_Penalty_Neutral>
5.6208e-06

> <r_epik_State_Penalty>
7.45901

> <r_epik_Charging_Adjusted_Penalty>
14.2255

> <i_epik_Tot_Q>
0

> <i_epik_Tot_abs_Q>
2

> <r_epik_Metal_State_Penalty>
3.38802

> <b_epik_Metal_Only>
1

> <s_lp_Force_Field>
OPLS_2005

> <r_lp_Energy>
9.23167

> <b_lp_Chiralities_Consistent>
1

> <s_lp_Variant>
AV-unprocessed.smi:1952-9

> <Gold.Version>
5.8.1

> <Gold.Id.Protein>
6NUR|6NUR_protein|mol2

> <Gold.PLP.Fitness>
42.9658

> <Gold.PLP.PLP>
-31.6200

> <Gold.PLP.part.hbond>
-4.7184

> <Gold.PLP.part.metal>
0.0000

> <Gold.PLP.part.buried>
0.5646

> <Gold.PLP.part.nonpolar>
-27.6694

> <Gold.PLP.part.repulsive>
0.3643

> <Gold.PLP.ligand.clash>
0.0000

> <Gold.PLP.ligand.torsion>
0.9493

> <Gold.PLP.Chemscore.Hbond>
4.3440

> <Gold.PLP.Chemscore.CHOScore>
0.0000

> <Gold.PLP.Chemscore.Metal>
0.0000

> <Gold.Chemscore.Hbonds>
donor molecule, donor type, donor heavy atom, donor atom, acceptor molecule, acceptor atom, score
      L1  H    12    39       P1  7948  2.00
      P1  H  7989  7998       L1     8  1.00
      P1  H  7997  8008       L1    18  0.77
      P1  H  7997  8009       L1     7  0.61

> <Gold.PLP.Chemscore.Internal.Correction>
0.2123

> <Gold.Rescore>
     Score         DG    S(hbond)    S(metal)    S(lipo)     H(rot)  DE(clash)    DE(int)     intcor
     14.50     -18.11       2.49        0.00      71.41       1.58       1.36       2.24       ----

> <Gold.Chemscore.Fitness>
14.4993

> <Gold.Chemscore.DG>
-18.1075

> <Gold.Chemscore.ZeroCoef>
-5.4800

> <Gold.Chemscore.Hbond>
2.4900

> <Gold.Chemscore.Metal>
0.0000

> <Gold.Chemscore.Lipo>
71.4102

> <Gold.Chemscore.Internal_Hbond>
0.0000

> <Gold.Chemscore.DEClash>
1.3650

> <Gold.Chemscore.DEInternal>
2.2433

> <Gold.Chemscore.Rot>
1.5798

> <Gold.Chemscore.Internal.Correction>
   9.000000E+99

> <Gold.Chemscore.Hbonds>
donor molecule, donor type, donor heavy atom, donor atom, acceptor molecule, acceptor atom, score
      L1  H    12    39       P1  7948  0.98
      P1  H  7989  7998       L1     8  0.51
      P1  H  7997  8008       L1    18  0.51
      P1  H  7997  8009       L1     7  0.62

> <Gold.Chemscore.Hbond.Weighted>
-8.3167

> <Gold.Chemscore.Metal.Weighted>
-0.0000

> <Gold.Chemscore.Lipo.Weighted>
-8.3550

> <Gold.Chemscore.Internal_Hbond.Weighted>
0.0000

> <Gold.Chemscore.DEClash.Weighted>
1.3650

> <Gold.Chemscore.DEInternal.Weighted>
2.2433

> <Gold.Chemscore.Rot.Weighted>
4.0442

> <Gold.Chemscore.Internal.Correction.Weighted>
   9.000000E+99

> <Gold.Protein.RotatedTorsions>
[ 6907 6896 6895 6894 ] final  175.25 input  -60.11 | X-H torsion
[ 7974 7965 7964 7962 ] final   98.18 input  175.53 | X-H torsion
[ 8008 7997 7996 7995 ] final -113.92 input   59.86 | X-H torsion
[ 10167 10162 10161 10158 ] final  122.10 input  -65.29 | X-H torsion
[ 10718 10713 10712 10709 ] final   11.34 input   66.30 | X-H torsion
[ 10763 10752 10751 10750 ] final   52.14 input  -60.55 | X-H torsion
[ 11005 11000 10999 10996 ] final  -36.54 input  -57.11 | X-H torsion

> <Gold.Protein.ActiveResidues>
 VAL166  LYS551  ARG553  GLY616  TRP617  ASP618  TYR619  PRO620  LYS621  CYS622 
 ASP623  PHE694  ASN695  SER759  ASP760  ASP761  ALA762  ILE779  LEU786  VAL792 
 PHE793  MET794  SER795  GLU796  ALA797  LYS798  CYS799  TRP800  GLU811  SER814 

> <Gold.Protein.RotatedAtoms>
  151.7393  133.3321  159.3361 H   0  0  0  0  0  0  0  0  0  0  0  0  # atno 6907 bound_to 6896
  150.7580  134.6293  159.6187 H   0  0  0  0  0  0  0  0  0  0  0  0  # atno 6908 bound_to 6896
  152.3541  134.6967  160.0279 H   0  0  0  0  0  0  0  0  0  0  0  0  # atno 6909 bound_to 6896
  145.4156  139.2328  143.3224 H   0  0  0  0  0  0  0  0  0  0  0  0  # atno 7974 bound_to 7965
  155.0283  140.0393  157.2464 H   0  0  0  0  0  0  0  0  0  0  0  0  # atno 8008 bound_to 7997
  154.7319  140.2732  155.6425 H   0  0  0  0  0  0  0  0  0  0  0  0  # atno 8009 bound_to 7997
  156.2843  140.2682  156.2021 H   0  0  0  0  0  0  0  0  0  0  0  0  # atno 8010 bound_to 7997
  139.5879  144.7014  151.3363 H   0  0  0  0  0  0  0  0  0  0  0  0  # atno 10167 bound_to 10162
  156.9941  130.6054  149.5689 H   0  0  0  0  0  0  0  0  0  0  0  0  # atno 10718 bound_to 10713
  152.9787  135.5822  154.4531 H   0  0  0  0  0  0  0  0  0  0  0  0  # atno 10763 bound_to 10752
  154.4117  135.2770  155.2034 H   0  0  0  0  0  0  0  0  0  0  0  0  # atno 10764 bound_to 10752
  154.3822  135.6144  153.5851 H   0  0  0  0  0  0  0  0  0  0  0  0  # atno 10765 bound_to 10752
  140.9882  133.7019  156.1803 H   0  0  0  0  0  0  0  0  0  0  0  0  # atno 11005 bound_to 11000
  146.2683  140.4873  142.8825 LP  0  0  0  0  0  0  0  0  0  0  0  0  # atno 17320 bound_to 7965
  144.8279  140.6659  143.6310 LP  0  0  0  0  0  0  0  0  0  0  0  0  # atno 17321 bound_to 7965
  140.7147  143.7297  150.7633 LP  0  0  0  0  0  0  0  0  0  0  0  0  # atno 17342 bound_to 10162
  140.0845  143.4936  152.2512 LP  0  0  0  0  0  0  0  0  0  0  0  0  # atno 17343 bound_to 10162
  156.0196  130.5290  150.8236 LP  0  0  0  0  0  0  0  0  0  0  0  0  # atno 17370 bound_to 10713
  157.5437  131.0941  150.9792 LP  0  0  0  0  0  0  0  0  0  0  0  0  # atno 17371 bound_to 10713
  140.7081  134.4491  157.5583 LP  0  0  0  0  0  0  0  0  0  0  0  0  # atno 17394 bound_to 11000
  139.8980  134.8623  156.2019 LP  0  0  0  0  0  0  0  0  0  0  0  0  # atno 17395 bound_to 11000

$$$$
