AV-unprocessed.smi:2001|AV-procd|sdf|8103|dock4
  -GOLD-   2272010323D 1   1.00000     0.00000
 Structure written by MMmdl.
 50 51  0  0  0  0  0  0  0  0  1 V2000
  145.3411  132.2493  149.8000 C   0  0  0  0  0  0  0  0  0  0  0  0
  145.1955  133.1104  150.9159 O   0  0  0  0  0  0  0  0  0  0  0  0
  146.0120  132.7250  152.0086 C   0  0  0  0  0  0  0  0  0  0  0  0
  147.4308  133.2714  151.7871 C   0  0  0  0  0  0  0  0  0  0  0  0
  148.3169  132.9404  152.9077 N   0  0  0  0  0  0  0  0  0  0  0  0
  148.9467  134.0370  153.4731 N   0  0  0  0  0  0  0  0  0  0  0  0
  149.7609  133.8783  154.4663 C   0  0  0  0  0  0  0  0  0  0  0  0
  150.4534  135.0305  155.1074 C   0  0  0  0  0  0  0  0  0  0  0  0
  151.1574  134.8909  156.1091 O   0  0  0  0  0  0  0  0  0  0  0  0
  150.2531  136.2236  154.5194 N   0  0  0  0  0  0  0  0  0  0  0  0
  150.8148  137.4875  154.9782 C   0  0  0  0  0  0  0  0  0  0  0  0
  150.6230  138.5974  153.9284 C   0  0  0  0  0  0  0  0  0  0  0  0
  149.9683  139.8055  154.4263 N   0  0  0  0  0  0  0  0  0  0  0  0
  150.6324  140.3042  155.6239 C   0  0  0  0  0  0  0  0  0  0  0  0
  149.9871  141.6025  156.1407 C   0  0  2  0  0  0  0  0  0  0  0  0
  150.6324  142.0883  157.4429 C   0  0  0  0  0  0  0  0  0  0  0  0
  148.6016  141.3742  156.3903 O   0  0  0  0  0  0  0  0  0  0  0  0
  147.8624  140.8493  155.2862 C   0  0  1  0  0  0  0  0  0  0  0  0
  147.5942  141.9222  154.2174 C   0  0  0  0  0  0  0  0  0  0  0  0
  148.5537  139.5898  154.7257 C   0  0  0  0  0  0  0  0  0  0  0  0
  150.0316  132.5549  155.0025 C   0  0  0  0  0  0  0  0  0  0  0  0
  149.4097  131.4952  154.4406 C   0  0  0  0  0  0  0  0  0  0  0  0
  148.4839  131.6468  153.3174 C   0  0  0  0  0  0  0  0  0  0  0  0
  147.9091  130.6970  152.7862 O   0  0  0  0  0  0  0  0  0  0  0  0
  144.6985  132.5895  148.9880 H   0  0  0  0  0  0  0  0  0  0  0  0
  145.0533  131.2273  150.0504 H   0  0  0  0  0  0  0  0  0  0  0  0
  146.3696  132.2446  149.4364 H   0  0  0  0  0  0  0  0  0  0  0  0
  145.5950  133.1152  152.9383 H   0  0  0  0  0  0  0  0  0  0  0  0
  146.0368  131.6371  152.0889 H   0  0  0  0  0  0  0  0  0  0  0  0
  147.8353  132.8619  150.8596 H   0  0  0  0  0  0  0  0  0  0  0  0
  147.3964  134.3519  151.6364 H   0  0  0  0  0  0  0  0  0  0  0  0
  149.6635  136.2555  153.7000 H   0  0  0  0  0  0  0  0  0  0  0  0
  150.3133  137.7649  155.9057 H   0  0  0  0  0  0  0  0  0  0  0  0
  151.8675  137.3452  155.2246 H   0  0  0  0  0  0  0  0  0  0  0  0
  151.5852  138.8589  153.4849 H   0  0  0  0  0  0  0  0  0  0  0  0
  150.0233  138.1817  153.1173 H   0  0  0  0  0  0  0  0  0  0  0  0
  150.6028  139.5439  156.4063 H   0  0  0  0  0  0  0  0  0  0  0  0
  151.6859  140.4899  155.4105 H   0  0  0  0  0  0  0  0  0  0  0  0
  150.0960  142.3867  155.3909 H   0  0  0  0  0  0  0  0  0  0  0  0
  151.6951  142.2874  157.3030 H   0  0  0  0  0  0  0  0  0  0  0  0
  150.5315  141.3455  158.2347 H   0  0  0  0  0  0  0  0  0  0  0  0
  150.1646  143.0102  157.7893 H   0  0  0  0  0  0  0  0  0  0  0  0
  146.8926  140.5488  155.6837 H   0  0  0  0  0  0  0  0  0  0  0  0
  146.9333  141.5378  153.4402 H   0  0  0  0  0  0  0  0  0  0  0  0
  148.5106  142.2541  153.7297 H   0  0  0  0  0  0  0  0  0  0  0  0
  147.1134  142.7965  154.6564 H   0  0  0  0  0  0  0  0  0  0  0  0
  148.0177  139.2622  153.8359 H   0  0  0  0  0  0  0  0  0  0  0  0
  148.4586  138.7836  155.4548 H   0  0  0  0  0  0  0  0  0  0  0  0
  150.7101  132.4133  155.8311 H   0  0  0  0  0  0  0  0  0  0  0  0
  149.5999  130.5059  154.8302 H   0  0  0  0  0  0  0  0  0  0  0  0
  1  2  1  0  0  0  0
  1 25  1  0  0  0  0
  1 26  1  0  0  0  0
  1 27  1  0  0  0  0
  2  3  1  0  0  0  0
  3  4  1  0  0  0  0
  3 28  1  0  0  0  0
  3 29  1  0  0  0  0
  4  5  1  0  0  0  0
  4 30  1  0  0  0  0
  4 31  1  0  0  0  0
  5 23  1  0  0  0  0
  5  6  1  0  0  0  0
  6  7  2  0  0  0  0
  7  8  1  0  0  0  0
  7 21  1  0  0  0  0
  8  9  2  0  0  0  0
  8 10  1  0  0  0  0
 10 11  1  0  0  0  0
 10 32  1  0  0  0  0
 11 12  1  0  0  0  0
 11 33  1  0  0  0  0
 11 34  1  0  0  0  0
 12 13  1  0  0  0  0
 12 35  1  0  0  0  0
 12 36  1  0  0  0  0
 13 20  1  0  0  0  0
 13 14  1  0  0  0  0
 14 15  1  0  0  0  0
 14 37  1  0  0  0  0
 14 38  1  0  0  0  0
 15 16  1  0  0  0  0
 15 17  1  0  0  0  0
 15 39  1  0  0  0  0
 16 40  1  0  0  0  0
 16 41  1  0  0  0  0
 16 42  1  0  0  0  0
 17 18  1  0  0  0  0
 18 19  1  0  0  0  0
 18 20  1  0  0  0  0
 18 43  1  0  0  0  0
 19 44  1  0  0  0  0
 19 45  1  0  0  0  0
 19 46  1  0  0  0  0
 20 47  1  0  0  0  0
 20 48  1  0  0  0  0
 21 22  2  0  0  0  0
 21 49  1  0  0  0  0
 22 23  1  0  0  0  0
 22 50  1  0  0  0  0
 23 24  2  0  0  0  0
M  END
> <s_m_source_file>
AV-unprocessed.smi

> <i_m_source_file_index>
2001

> <i_lp_mmshare_version>
43012

> <i_f3d_flags>
0

> <s_epik_input>
W0NIM11PW0NIMl1bQ0gyXW4xbmMoW2NIXVtjSF1jMT1PKUMoPU8pW05IXVtDSDJdW0NIMl1OMltDSDJdW0NAQEhdKFtDSDNdKU9bQ0BASF0oW0NIM10pW0NIMl0y

> <s_epik_cmdline>
J2VwaWtfcHl0aG9uJywgJy1waCcsICc3LjAnLCAnLXRuJywgJzgnLCAnLW1hJywgJzIwMCcsICctbWV0YWxfYmluZGluZycsICctaW1hZScsICc8aW5maWxlLm1hZT4nLCAnLW9tYWUnLCAnPG91dGZpbGUubWFlPic=

> <r_lp_tautomer_probability>
1

> <r_epik_Ionization_Penalty>
0.206669

> <r_epik_Ionization_Penalty_Charging>
5.55992e-09

> <r_epik_Ionization_Penalty_Neutral>
0.206669

> <r_epik_State_Penalty>
0.196651

> <r_epik_Charging_Adjusted_Penalty>
0.196651

> <i_epik_Tot_Q>
0

> <i_epik_Tot_abs_Q>
0

> <r_epik_Metal_State_Penalty>
0.198372

> <b_epik_Metal_Only>
0

> <s_lp_Force_Field>
OPLS_2005

> <r_lp_Energy>
40.7423

> <b_lp_Chiralities_Consistent>
1

> <s_lp_Variant>
AV-unprocessed.smi:2001-2

> <Gold.Version>
5.8.1

> <Gold.Id.Protein>
6NUR|6NUR_protein|mol2

> <Gold.PLP.Fitness>
44.8737

> <Gold.PLP.PLP>
-41.6712

> <Gold.PLP.part.hbond>
-3.5594

> <Gold.PLP.part.metal>
0.0000

> <Gold.PLP.part.buried>
-5.3851

> <Gold.PLP.part.nonpolar>
-35.1044

> <Gold.PLP.part.repulsive>
2.2181

> <Gold.PLP.ligand.clash>
0.0000

> <Gold.PLP.ligand.torsion>
0.6213

> <Gold.PLP.Chemscore.Hbond>
1.4040

> <Gold.PLP.Chemscore.CHOScore>
0.0000

> <Gold.PLP.Chemscore.Metal>
0.0000

> <Gold.Chemscore.Hbonds>
donor molecule, donor type, donor heavy atom, donor atom, acceptor molecule, acceptor atom, score
      L1  H    10    32       P1  7948  1.00
      P1  H  7989  7998       L1    13  0.01
      P1  H 10752 10763       L1     9  0.21

> <Gold.PLP.Chemscore.Internal.Correction>
0.2331

> <Gold.Rescore>
     Score         DG    S(hbond)    S(metal)    S(lipo)     H(rot)  DE(clash)    DE(int)     intcor
     10.86     -12.12       0.57        0.00      84.30       2.00       0.47       0.80       ----

> <Gold.Chemscore.Fitness>
10.8589

> <Gold.Chemscore.DG>
-12.1195

> <Gold.Chemscore.ZeroCoef>
-5.4800

> <Gold.Chemscore.Hbond>
0.5695

> <Gold.Chemscore.Metal>
0.0000

> <Gold.Chemscore.Lipo>
84.2958

> <Gold.Chemscore.Internal_Hbond>
0.0000

> <Gold.Chemscore.DEClash>
0.4651

> <Gold.Chemscore.DEInternal>
0.7955

> <Gold.Chemscore.Rot>
2.0020

> <Gold.Chemscore.Internal.Correction>
   9.000000E+99

> <Gold.Chemscore.Hbonds>
donor molecule, donor type, donor heavy atom, donor atom, acceptor molecule, acceptor atom, score
      L1  H    10    32       P1  7948  0.44
      P1  H 10752 10763       L1     9  0.03

> <Gold.Chemscore.Hbond.Weighted>
-1.9021

> <Gold.Chemscore.Metal.Weighted>
-0.0000

> <Gold.Chemscore.Lipo.Weighted>
-9.8626

> <Gold.Chemscore.Internal_Hbond.Weighted>
0.0000

> <Gold.Chemscore.DEClash.Weighted>
0.4651

> <Gold.Chemscore.DEInternal.Weighted>
0.7955

> <Gold.Chemscore.Rot.Weighted>
5.1252

> <Gold.Chemscore.Internal.Correction.Weighted>
   9.000000E+99

> <Gold.Protein.RotatedTorsions>
[ 6907 6896 6895 6894 ] final   38.27 input  -60.11 | X-H torsion
[ 7974 7965 7964 7962 ] final -149.98 input  175.53 | X-H torsion
[ 8008 7997 7996 7995 ] final  -20.21 input   59.86 | X-H torsion
[ 10167 10162 10161 10158 ] final -128.23 input  -65.29 | X-H torsion
[ 10718 10713 10712 10709 ] final  155.02 input   66.30 | X-H torsion
[ 10763 10752 10751 10750 ] final   90.23 input  -60.55 | X-H torsion
[ 11005 11000 10999 10996 ] final    8.08 input  -57.11 | X-H torsion

> <Gold.Protein.ActiveResidues>
 VAL166  LYS551  ARG553  GLY616  TRP617  ASP618  TYR619  PRO620  LYS621  CYS622 
 ASP623  PHE694  ASN695  SER759  ASP760  ASP761  ALA762  ILE779  LEU786  VAL792 
 PHE793  MET794  SER795  GLU796  ALA797  LYS798  CYS799  TRP800  GLU811  SER814 

> <Gold.Protein.RotatedAtoms>
  152.1543  134.8963  160.0545 H   0  0  0  0  0  0  0  0  0  0  0  0  # atno 6907 bound_to 6896
  151.9983  133.3811  159.4180 H   0  0  0  0  0  0  0  0  0  0  0  0  # atno 6908 bound_to 6896
  150.6879  134.3783  159.5066 H   0  0  0  0  0  0  0  0  0  0  0  0  # atno 6909 bound_to 6896
  144.7935  140.4993  143.5756 H   0  0  0  0  0  0  0  0  0  0  0  0  # atno 7974 bound_to 7965
  154.4785  140.2068  155.9821 H   0  0  0  0  0  0  0  0  0  0  0  0  # atno 8008 bound_to 7997
  156.1127  140.3226  155.8065 H   0  0  0  0  0  0  0  0  0  0  0  0  # atno 8009 bound_to 7997
  155.4607  140.0524  157.2982 H   0  0  0  0  0  0  0  0  0  0  0  0  # atno 8010 bound_to 7997
  139.9525  143.6040  152.2471 H   0  0  0  0  0  0  0  0  0  0  0  0  # atno 10167 bound_to 10162
  157.2239  131.0724  151.1895 H   0  0  0  0  0  0  0  0  0  0  0  0  # atno 10718 bound_to 10713
  153.1954  135.4441  155.0201 H   0  0  0  0  0  0  0  0  0  0  0  0  # atno 10763 bound_to 10752
  154.8115  135.3296  154.7294 H   0  0  0  0  0  0  0  0  0  0  0  0  # atno 10764 bound_to 10752
  153.7744  135.6982  153.4955 H   0  0  0  0  0  0  0  0  0  0  0  0  # atno 10765 bound_to 10752
  140.5410  134.0375  155.7904 H   0  0  0  0  0  0  0  0  0  0  0  0  # atno 11005 bound_to 11000
  145.5733  139.1484  143.3276 LP  0  0  0  0  0  0  0  0  0  0  0  0  # atno 17320 bound_to 7965
  146.2195  140.5866  142.9023 LP  0  0  0  0  0  0  0  0  0  0  0  0  # atno 17321 bound_to 7965
  139.6617  144.7662  151.1949 LP  0  0  0  0  0  0  0  0  0  0  0  0  # atno 17342 bound_to 10162
  140.7578  143.5999  150.8710 LP  0  0  0  0  0  0  0  0  0  0  0  0  # atno 17343 bound_to 10162
  157.3547  130.7100  149.6463 LP  0  0  0  0  0  0  0  0  0  0  0  0  # atno 17370 bound_to 10713
  155.9680  130.4242  150.4599 LP  0  0  0  0  0  0  0  0  0  0  0  0  # atno 17371 bound_to 10713
  141.1227  133.9434  157.2697 LP  0  0  0  0  0  0  0  0  0  0  0  0  # atno 17394 bound_to 11000
  139.9504  135.0176  156.8977 LP  0  0  0  0  0  0  0  0  0  0  0  0  # atno 17395 bound_to 11000

$$$$
