AV-unprocessed.smi:2889|AV-procd|sdf|11114|dock3
  -GOLD-   2272015583D 1   1.00000     0.00000
 Structure written by MMmdl.
 35 36  0  0  0  0  0  0  0  0  2 V2000
  151.8041  144.2676  158.2703 C   0  0  0  0  0  0  0  0  0  0  0  0
  151.2638  142.6346  157.6904 S   0  0  0  0  0  0  0  0  0  0  0  0
  151.9634  141.5360  158.9698 C   0  0  2  0  0  0  0  0  0  0  0  0
  153.3255  142.0857  159.4754 C   0  0  0  0  0  0  0  0  0  0  0  0
  153.9283  141.2374  160.6147 C   0  0  0  0  0  0  0  0  0  0  0  0
  154.0211  139.7625  160.1741 C   0  0  0  0  0  0  0  0  0  0  0  0
  152.6675  139.2044  159.6626 C   0  0  0  0  0  0  0  0  0  0  0  0
  152.0258  140.0428  158.5267 C   0  0  2  0  0  0  0  0  0  0  0  0
  152.8015  139.8967  157.3009 N   0  5  0  0  0  0  0  0  0  0  0  0
  152.1698  139.1113  156.0315 S   0  0  0  0  0  0  0  0  0  0  0  0
  152.2724  139.8758  154.7770 O   0  0  0  0  0  0  0  0  0  0  0  0
  152.5872  137.7003  155.9916 O   0  0  0  0  0  0  0  0  0  0  0  0
  150.3819  139.0942  156.4945 C   0  0  0  0  0  0  0  0  0  0  0  0
  149.6140  140.1039  155.6863 C   0  0  0  0  0  0  0  0  0  0  0  0
  148.6415  141.0401  156.1354 C   0  0  0  0  0  0  0  0  0  0  0  0
  148.2775  141.6946  154.9945 C   0  0  0  0  0  0  0  0  0  0  0  0
  148.9707  141.2172  153.9305 O   0  0  0  0  0  0  0  0  0  0  0  0
  149.8257  140.2060  154.3828 N   0  0  0  0  0  0  0  0  0  0  0  0
  151.4932  145.0352  157.5622 H   0  0  0  0  0  0  0  0  0  0  0  0
  152.8898  144.3011  158.3598 H   0  0  0  0  0  0  0  0  0  0  0  0
  151.3653  144.5016  159.2401 H   0  0  0  0  0  0  0  0  0  0  0  0
  151.2787  141.5943  159.8168 H   0  0  0  0  0  0  0  0  0  0  0  0
  154.0400  142.1468  158.6519 H   0  0  0  0  0  0  0  0  0  0  0  0
  153.1946  143.1092  159.8278 H   0  0  0  0  0  0  0  0  0  0  0  0
  154.9132  141.6152  160.8903 H   0  0  0  0  0  0  0  0  0  0  0  0
  153.3003  141.3165  161.5028 H   0  0  0  0  0  0  0  0  0  0  0  0
  154.7854  139.6619  159.4006 H   0  0  0  0  0  0  0  0  0  0  0  0
  154.3685  139.1567  161.0113 H   0  0  0  0  0  0  0  0  0  0  0  0
  152.7925  138.1682  159.3467 H   0  0  0  0  0  0  0  0  0  0  0  0
  151.9717  139.1721  160.5018 H   0  0  0  0  0  0  0  0  0  0  0  0
  151.0027  139.6928  158.3837 H   0  0  0  0  0  0  0  0  0  0  0  0
  150.0021  138.0921  156.2992 H   0  0  0  0  0  0  0  0  0  0  0  0
  150.2957  139.2729  157.5666 H   0  0  0  0  0  0  0  0  0  0  0  0
  148.2652  141.1973  157.1351 H   0  0  0  0  0  0  0  0  0  0  0  0
  147.5747  142.4875  154.7864 H   0  0  0  0  0  0  0  0  0  0  0  0
  1  2  1  0  0  0  0
  1 19  1  0  0  0  0
  1 20  1  0  0  0  0
  1 21  1  0  0  0  0
  2  3  1  0  0  0  0
  3  8  1  0  0  0  0
  3  4  1  0  0  0  0
  3 22  1  0  0  0  0
  4  5  1  0  0  0  0
  4 23  1  0  0  0  0
  4 24  1  0  0  0  0
  5  6  1  0  0  0  0
  5 25  1  0  0  0  0
  5 26  1  0  0  0  0
  6  7  1  0  0  0  0
  6 27  1  0  0  0  0
  6 28  1  0  0  0  0
  7  8  1  0  0  0  0
  7 29  1  0  0  0  0
  7 30  1  0  0  0  0
  8  9  1  0  0  0  0
  8 31  1  0  0  0  0
  9 10  1  0  0  0  0
 10 11  2  0  0  0  0
 10 12  2  0  0  0  0
 10 13  1  0  0  0  0
 13 14  1  0  0  0  0
 13 32  1  0  0  0  0
 13 33  1  0  0  0  0
 14 18  2  0  0  0  0
 14 15  1  0  0  0  0
 15 16  2  0  0  0  0
 15 34  1  0  0  0  0
 16 17  1  0  0  0  0
 16 35  1  0  0  0  0
 17 18  1  0  0  0  0
M  CHG  1   9  -1
M  END
> <s_m_source_file>
AV-unprocessed.smi

> <i_m_source_file_index>
2889

> <i_lp_mmshare_version>
43012

> <i_f3d_flags>
0

> <s_epik_input>
W0NIM11TW0NAQEhdMVtDSDJdW0NIMl1bQ0gyXVtDSDJdW0NASF0xW05IXVMoPU8pKD1PKVtDSDJdYzJbY0hdW2NIXW9uMg==

> <s_epik_cmdline>
J2VwaWtfcHl0aG9uJywgJy1waCcsICc3LjAnLCAnLXRuJywgJzgnLCAnLW1hJywgJzIwMCcsICctbWV0YWxfYmluZGluZycsICctaW1hZScsICc8aW5maWxlLm1hZT4nLCAnLW9tYWUnLCAnPG91dGZpbGUubWFlPic=

> <r_lp_tautomer_probability>
1

> <r_epik_Ionization_Penalty>
4.65467

> <r_epik_Ionization_Penalty_Charging>
4.65467

> <r_epik_Ionization_Penalty_Neutral>
2.71476e-10

> <r_epik_State_Penalty>
4.65444

> <r_epik_Charging_Adjusted_Penalty>
9.30911

> <i_epik_Tot_Q>
-1

> <i_epik_Tot_abs_Q>
1

> <r_epik_Metal_State_Penalty>
0.901484

> <b_epik_Metal_Only>
1

> <s_lp_Force_Field>
OPLS_2005

> <r_lp_Energy>
12.0464

> <b_lp_Chiralities_Consistent>
1

> <s_lp_Variant>
AV-unprocessed.smi:2889-7

> <Gold.Version>
5.8.1

> <Gold.Id.Protein>
6NUR|6NUR_protein|mol2

> <Gold.PLP.Fitness>
44.6168

> <Gold.PLP.PLP>
-33.8967

> <Gold.PLP.part.hbond>
-5.1107

> <Gold.PLP.part.metal>
0.0000

> <Gold.PLP.part.buried>
-2.9034

> <Gold.PLP.part.nonpolar>
-26.6613

> <Gold.PLP.part.repulsive>
1.5158

> <Gold.PLP.ligand.clash>
0.0000

> <Gold.PLP.ligand.torsion>
1.3982

> <Gold.PLP.Chemscore.Hbond>
3.6368

> <Gold.PLP.Chemscore.CHOScore>
0.5054

> <Gold.PLP.Chemscore.Metal>
0.0000

> <Gold.Chemscore.Hbonds>
donor molecule, donor type, donor heavy atom, donor atom, acceptor molecule, acceptor atom, score
      P1  H  7989  7998       L1    11  0.70
      P1  H  7997  8010       L1     9  1.90
      P1  H  8011  8017       L1    17  0.57
      L1  C    16    35       P1  8028  0.28

> <Gold.PLP.Chemscore.Internal.Correction>
1.0899

> <Gold.Rescore>
     Score         DG    S(hbond)    S(metal)    S(lipo)     H(rot)  DE(clash)    DE(int)     intcor
     15.33     -18.41       1.91        0.00      89.49       1.53       0.35       2.73       ----

> <Gold.Chemscore.Fitness>
15.3307

> <Gold.Chemscore.DG>
-18.4072

> <Gold.Chemscore.ZeroCoef>
-5.4800

> <Gold.Chemscore.Hbond>
1.9094

> <Gold.Chemscore.Metal>
0.0000

> <Gold.Chemscore.Lipo>
89.4883

> <Gold.Chemscore.Internal_Hbond>
0.0000

> <Gold.Chemscore.DEClash>
0.3490

> <Gold.Chemscore.DEInternal>
2.7274

> <Gold.Chemscore.Rot>
1.5314

> <Gold.Chemscore.Internal.Correction>
   9.000000E+99

> <Gold.Chemscore.Hbonds>
donor molecule, donor type, donor heavy atom, donor atom, acceptor molecule, acceptor atom, score
      P1  H  7989  7998       L1    11  0.70
      P1  H  7997  8010       L1     9  0.21
      P1  H  8011  8017       L1    17  0.48
      P1  H 10752 10765       L1    12  0.02

> <Gold.Chemscore.Hbond.Weighted>
-6.3775

> <Gold.Chemscore.Metal.Weighted>
-0.0000

> <Gold.Chemscore.Lipo.Weighted>
-10.4701

> <Gold.Chemscore.Internal_Hbond.Weighted>
0.0000

> <Gold.Chemscore.DEClash.Weighted>
0.3490

> <Gold.Chemscore.DEInternal.Weighted>
2.7274

> <Gold.Chemscore.Rot.Weighted>
3.9205

> <Gold.Chemscore.Internal.Correction.Weighted>
   9.000000E+99

> <Gold.Protein.RotatedTorsions>
[ 6907 6896 6895 6894 ] final  165.38 input  -60.11 | X-H torsion
[ 7974 7965 7964 7962 ] final   66.80 input  175.53 | X-H torsion
[ 8008 7997 7996 7995 ] final   54.35 input   59.86 | X-H torsion
[ 10167 10162 10161 10158 ] final   -6.74 input  -65.29 | X-H torsion
[ 10718 10713 10712 10709 ] final -112.66 input   66.30 | X-H torsion
[ 10763 10752 10751 10750 ] final -169.85 input  -60.55 | X-H torsion
[ 11005 11000 10999 10996 ] final   92.37 input  -57.11 | X-H torsion

> <Gold.Protein.ActiveResidues>
 VAL166  LYS551  ARG553  GLY616  TRP617  ASP618  TYR619  PRO620  LYS621  CYS622 
 ASP623  PHE694  ASN695  SER759  ASP760  ASP761  ALA762  ILE779  LEU786  VAL792 
 PHE793  MET794  SER795  GLU796  ALA797  LYS798  CYS799  TRP800  GLU811  SER814 

> <Gold.Protein.RotatedAtoms>
  151.8953  133.3525  159.3811 H   0  0  0  0  0  0  0  0  0  0  0  0  # atno 6907 bound_to 6896
  150.7093  134.4883  159.5513 H   0  0  0  0  0  0  0  0  0  0  0  0  # atno 6908 bound_to 6896
  152.2461  134.8180  160.0504 H   0  0  0  0  0  0  0  0  0  0  0  0  # atno 6909 bound_to 6896
  145.8223  139.3091  143.1036 H   0  0  0  0  0  0  0  0  0  0  0  0  # atno 7974 bound_to 7965
  155.4833  140.3469  155.4343 H   0  0  0  0  0  0  0  0  0  0  0  0  # atno 8008 bound_to 7997
  156.1025  140.1439  156.9477 H   0  0  0  0  0  0  0  0  0  0  0  0  # atno 8009 bound_to 7997
  154.4703  140.0903  156.7105 H   0  0  0  0  0  0  0  0  0  0  0  0  # atno 8010 bound_to 7997
  140.7007  143.6160  150.8658 H   0  0  0  0  0  0  0  0  0  0  0  0  # atno 10167 bound_to 10162
  156.0719  130.5932  150.8538 H   0  0  0  0  0  0  0  0  0  0  0  0  # atno 10718 bound_to 10713
  154.6478  135.2907  155.0024 H   0  0  0  0  0  0  0  0  0  0  0  0  # atno 10763 bound_to 10752
  154.1128  135.6560  153.4892 H   0  0  0  0  0  0  0  0  0  0  0  0  # atno 10764 bound_to 10752
  153.0360  135.5269  154.7373 H   0  0  0  0  0  0  0  0  0  0  0  0  # atno 10765 bound_to 10752
  139.8824  134.8729  156.3562 H   0  0  0  0  0  0  0  0  0  0  0  0  # atno 11005 bound_to 11000
  145.9662  140.8797  143.0186 LP  0  0  0  0  0  0  0  0  0  0  0  0  # atno 17320 bound_to 7965
  144.6746  140.1881  143.7399 LP  0  0  0  0  0  0  0  0  0  0  0  0  # atno 17321 bound_to 7965
  139.9881  143.5877  152.2919 LP  0  0  0  0  0  0  0  0  0  0  0  0  # atno 17342 bound_to 10162
  139.6522  144.7661  151.2126 LP  0  0  0  0  0  0  0  0  0  0  0  0  # atno 17343 bound_to 10162
  157.5794  131.0946  150.9294 LP  0  0  0  0  0  0  0  0  0  0  0  0  # atno 17370 bound_to 10713
  156.9493  130.5414  149.5282 LP  0  0  0  0  0  0  0  0  0  0  0  0  # atno 17371 bound_to 10713
  140.9560  133.7419  156.0336 LP  0  0  0  0  0  0  0  0  0  0  0  0  # atno 17394 bound_to 11000
  140.8048  134.3468  157.5429 LP  0  0  0  0  0  0  0  0  0  0  0  0  # atno 17395 bound_to 11000

$$$$
