AV-unprocessed.smi:2703|AV-procd|sdf|10438|dock2
  -GOLD-   2272014483D 1   1.00000     0.00000
 Structure written by MMmdl.
 42 44  0  0  0  0  0  0  0  0  3 V2000
  152.7865  143.5671  161.0099 C   0  0  0  0  0  0  0  0  0  0  0  0
  152.1559  142.9609  159.7686 C   0  0  0  0  0  0  0  0  0  0  0  0
  152.7349  141.8047  159.1985 C   0  0  0  0  0  0  0  0  0  0  0  0
  152.1801  141.2111  158.0435 C   0  0  0  0  0  0  0  0  0  0  0  0
  152.5784  140.0954  157.3272 N   0  0  0  0  0  0  0  0  0  0  0  0
  151.6641  140.0566  156.3622 C   0  0  0  0  0  0  0  0  0  0  0  0
  150.7179  141.0150  156.3695 N   0  0  0  0  0  0  0  0  0  0  0  0
  149.6280  141.1713  155.4226 C   0  0  0  0  0  0  0  0  0  0  0  0
  149.1785  139.8297  154.8128 C   0  0  2  0  0  0  0  0  0  0  0  0
  150.0708  139.4518  153.7812 O   0  0  0  0  0  0  0  0  0  0  0  0
  147.7511  139.9061  154.2467 C   0  0  0  0  0  0  0  0  0  0  0  0
  146.5316  140.3449  155.5206 S   0  0  0  0  0  0  0  0  0  0  0  0
  145.8067  141.9073  155.0837 C   0  0  0  0  0  0  0  0  0  0  0  0
  146.1152  142.5667  153.8729 C   0  0  0  0  0  0  0  0  0  0  0  0
  145.5120  143.7992  153.5783 C   0  0  0  0  0  0  0  0  0  0  0  0
  144.6109  144.3502  154.5012 C   0  0  0  0  0  0  0  0  0  0  0  0
  144.3334  143.6586  155.6957 C   0  0  0  0  0  0  0  0  0  0  0  0
  144.9222  142.4570  155.9829 N   0  3  0  0  0  0  0  0  0  0  0  0
  144.6354  141.8641  157.0893 O   0  5  0  0  0  0  0  0  0  0  0  0
  151.0194  141.8091  157.4711 C   0  0  0  0  0  0  0  0  0  0  0  0
  150.4342  142.9593  158.0294 C   0  0  0  0  0  0  0  0  0  0  0  0
  151.0026  143.5410  159.1820 C   0  0  0  0  0  0  0  0  0  0  0  0
  150.3651  144.7849  159.7751 C   0  0  0  0  0  0  0  0  0  0  0  0
  153.6488  142.9881  161.3419 H   0  0  0  0  0  0  0  0  0  0  0  0
  152.0676  143.5956  161.8290 H   0  0  0  0  0  0  0  0  0  0  0  0
  153.1237  144.5841  160.8087 H   0  0  0  0  0  0  0  0  0  0  0  0
  153.6139  141.3631  159.6444 H   0  0  0  0  0  0  0  0  0  0  0  0
  151.6827  139.2871  155.6041 H   0  0  0  0  0  0  0  0  0  0  0  0
  148.7941  141.6458  155.9417 H   0  0  0  0  0  0  0  0  0  0  0  0
  149.9403  141.8637  154.6398 H   0  0  0  0  0  0  0  0  0  0  0  0
  149.2139  139.0602  155.5854 H   0  0  0  0  0  0  0  0  0  0  0  0
  149.6163  139.5025  152.9545 H   0  0  0  0  0  0  0  0  0  0  0  0
  147.7074  140.6631  153.4630 H   0  0  0  0  0  0  0  0  0  0  0  0
  147.4716  138.9546  153.7928 H   0  0  0  0  0  0  0  0  0  0  0  0
  146.8085  142.1419  153.1643 H   0  0  0  0  0  0  0  0  0  0  0  0
  145.7376  144.3146  152.6562 H   0  0  0  0  0  0  0  0  0  0  0  0
  144.1331  145.2973  154.2980 H   0  0  0  0  0  0  0  0  0  0  0  0
  143.6517  144.0201  156.4521 H   0  0  0  0  0  0  0  0  0  0  0  0
  149.5570  143.3917  157.5718 H   0  0  0  0  0  0  0  0  0  0  0  0
  149.5011  145.1057  159.1928 H   0  0  0  0  0  0  0  0  0  0  0  0
  151.0793  145.6084  159.7938 H   0  0  0  0  0  0  0  0  0  0  0  0
  150.0293  144.5930  160.7943 H   0  0  0  0  0  0  0  0  0  0  0  0
  1  2  1  0  0  0  0
  1 24  1  0  0  0  0
  1 25  1  0  0  0  0
  1 26  1  0  0  0  0
  2 22  1  0  0  0  0
  2  3  2  0  0  0  0
  3  4  1  0  0  0  0
  3 27  1  0  0  0  0
  4 20  2  0  0  0  0
  4  5  1  0  0  0  0
  5  6  2  0  0  0  0
  6  7  1  0  0  0  0
  6 28  1  0  0  0  0
  7  8  1  0  0  0  0
  7 20  1  0  0  0  0
  8  9  1  0  0  0  0
  8 29  1  0  0  0  0
  8 30  1  0  0  0  0
  9 10  1  0  0  0  0
  9 11  1  0  0  0  0
  9 31  1  0  0  0  0
 10 32  1  0  0  0  0
 11 12  1  0  0  0  0
 11 33  1  0  0  0  0
 11 34  1  0  0  0  0
 12 13  1  0  0  0  0
 13 18  1  0  0  0  0
 13 14  2  0  0  0  0
 14 15  1  0  0  0  0
 14 35  1  0  0  0  0
 15 16  2  0  0  0  0
 15 36  1  0  0  0  0
 16 17  1  0  0  0  0
 16 37  1  0  0  0  0
 17 18  2  0  0  0  0
 17 38  1  0  0  0  0
 18 19  1  0  0  0  0
 20 21  1  0  0  0  0
 21 22  2  0  0  0  0
 21 39  1  0  0  0  0
 22 23  1  0  0  0  0
 23 40  1  0  0  0  0
 23 41  1  0  0  0  0
 23 42  1  0  0  0  0
M  CHG  1  18   1
M  CHG  1  19  -1
M  END
> <s_m_source_file>
AV-unprocessed.smi

> <i_m_source_file_index>
2703

> <i_lp_mmshare_version>
43012

> <i_f3d_flags>
0

> <s_epik_input>
W0NIM11jKFtjSF0xKWMoW0NIM10pW2NIXWMoYzEyKW4oW2NIXW4yKVtDSDJdW0NASF0oW09IXSlbQ0gyXVNjM1tjSF1bY0hdW2NIXVtjSF1bbitdM1tPLV0=

> <s_epik_cmdline>
J2VwaWtfcHl0aG9uJywgJy1waCcsICc3LjAnLCAnLXRuJywgJzgnLCAnLW1hJywgJzIwMCcsICctbWV0YWxfYmluZGluZycsICctaW1hZScsICc8aW5maWxlLm1hZT4nLCAnLW9tYWUnLCAnPG91dGZpbGUubWFlPic=

> <r_epik_Ionization_Penalty>
0.106001

> <r_epik_Ionization_Penalty_Charging>
1.39204e-07

> <r_epik_Ionization_Penalty_Neutral>
0.106001

> <r_epik_State_Penalty>
0.0958598

> <r_epik_Charging_Adjusted_Penalty>
0.0958599

> <i_epik_Tot_Q>
0

> <i_epik_Tot_abs_Q>
2

> <r_epik_Metal_State_Penalty>
0.000104041

> <b_epik_Metal_Only>
0

> <s_lp_Force_Field>
OPLS_2005

> <r_lp_Energy>
16.8737

> <b_lp_Chiralities_Consistent>
1

> <s_lp_Variant>
AV-unprocessed.smi:2703-1

> <Gold.Version>
5.8.1

> <Gold.Id.Protein>
6NUR|6NUR_protein|mol2

> <Gold.PLP.Fitness>
54.5950

> <Gold.PLP.PLP>
-47.7397

> <Gold.PLP.part.hbond>
-3.0000

> <Gold.PLP.part.metal>
0.0000

> <Gold.PLP.part.buried>
-7.0206

> <Gold.PLP.part.nonpolar>
-37.6492

> <Gold.PLP.part.repulsive>
0.0102

> <Gold.PLP.ligand.clash>
0.0000

> <Gold.PLP.ligand.torsion>
0.9631

> <Gold.PLP.Chemscore.Hbond>
2.8720

> <Gold.PLP.Chemscore.CHOScore>
0.0000

> <Gold.PLP.Chemscore.Metal>
0.0000

> <Gold.Chemscore.Hbonds>
donor molecule, donor type, donor heavy atom, donor atom, acceptor molecule, acceptor atom, score
      L1  H    10    32       P1  7957  0.98
      P1  H  7989  7998       L1    10  0.74
      P1  H  7997  8009       L1     5  0.96

> <Gold.PLP.Chemscore.Internal.Correction>
0.1654

> <Gold.Rescore>
     Score         DG    S(hbond)    S(metal)    S(lipo)     H(rot)  DE(clash)    DE(int)     intcor
     19.01     -20.21       1.80        0.00     124.01       2.26       0.17       1.04       ----

> <Gold.Chemscore.Fitness>
19.0111

> <Gold.Chemscore.DG>
-20.2140

> <Gold.Chemscore.ZeroCoef>
-5.4800

> <Gold.Chemscore.Hbond>
1.7961

> <Gold.Chemscore.Metal>
0.0000

> <Gold.Chemscore.Lipo>
124.0140

> <Gold.Chemscore.Internal_Hbond>
0.0000

> <Gold.Chemscore.DEClash>
0.1677

> <Gold.Chemscore.DEInternal>
1.0352

> <Gold.Chemscore.Rot>
2.2558

> <Gold.Chemscore.Internal.Correction>
   9.000000E+99

> <Gold.Chemscore.Hbonds>
donor molecule, donor type, donor heavy atom, donor atom, acceptor molecule, acceptor atom, score
      L1  H    10    32       P1  7957  0.93
      P1  H  7989  7998       L1    10  0.15
      P1  H  7997  8009       L1     5  0.78

> <Gold.Chemscore.Hbond.Weighted>
-5.9991

> <Gold.Chemscore.Metal.Weighted>
-0.0000

> <Gold.Chemscore.Lipo.Weighted>
-14.5096

> <Gold.Chemscore.Internal_Hbond.Weighted>
0.0000

> <Gold.Chemscore.DEClash.Weighted>
0.1677

> <Gold.Chemscore.DEInternal.Weighted>
1.0352

> <Gold.Chemscore.Rot.Weighted>
5.7748

> <Gold.Chemscore.Internal.Correction.Weighted>
   9.000000E+99

> <Gold.Protein.RotatedTorsions>
[ 6907 6896 6895 6894 ] final  124.97 input  -60.11 | X-H torsion
[ 7974 7965 7964 7962 ] final   72.44 input  175.53 | X-H torsion
[ 8008 7997 7996 7995 ] final  163.57 input   59.86 | X-H torsion
[ 10167 10162 10161 10158 ] final  129.95 input  -65.29 | X-H torsion
[ 10718 10713 10712 10709 ] final   23.16 input   66.30 | X-H torsion
[ 10763 10752 10751 10750 ] final  141.82 input  -60.55 | X-H torsion
[ 11005 11000 10999 10996 ] final  -99.66 input  -57.11 | X-H torsion

> <Gold.Protein.ActiveResidues>
 VAL166  LYS551  ARG553  GLY616  TRP617  ASP618  TYR619  PRO620  LYS621  CYS622 
 ASP623  PHE694  ASN695  SER759  ASP760  ASP761  ALA762  ILE779  LEU786  VAL792 
 PHE793  MET794  SER795  GLU796  ALA797  LYS798  CYS799  TRP800  GLU811  SER814 

> <Gold.Protein.RotatedAtoms>
  152.4032  133.6850  159.6334 H   0  0  0  0  0  0  0  0  0  0  0  0  # atno 6907 bound_to 6896
  150.7921  133.8754  159.3279 H   0  0  0  0  0  0  0  0  0  0  0  0  # atno 6908 bound_to 6896
  151.6514  135.1002  160.0213 H   0  0  0  0  0  0  0  0  0  0  0  0  # atno 6909 bound_to 6896
  145.7533  139.2769  143.1418 H   0  0  0  0  0  0  0  0  0  0  0  0  # atno 7974 bound_to 7965
  156.1947  140.1720  156.8022 H   0  0  0  0  0  0  0  0  0  0  0  0  # atno 8008 bound_to 7997
  154.5515  140.0717  156.8706 H   0  0  0  0  0  0  0  0  0  0  0  0  # atno 8009 bound_to 7997
  155.3020  140.3362  155.4249 H   0  0  0  0  0  0  0  0  0  0  0  0  # atno 8010 bound_to 7997
  139.5453  144.6768  151.4493 H   0  0  0  0  0  0  0  0  0  0  0  0  # atno 10167 bound_to 10162
  157.1623  130.6722  149.6048 H   0  0  0  0  0  0  0  0  0  0  0  0  # atno 10718 bound_to 10713
  153.9455  135.2975  155.3441 H   0  0  0  0  0  0  0  0  0  0  0  0  # atno 10763 bound_to 10752
  154.7454  135.5005  153.9198 H   0  0  0  0  0  0  0  0  0  0  0  0  # atno 10764 bound_to 10752
  153.1020  135.6737  153.9762 H   0  0  0  0  0  0  0  0  0  0  0  0  # atno 10765 bound_to 10752
  141.1300  133.8339  157.1001 H   0  0  0  0  0  0  0  0  0  0  0  0  # atno 11005 bound_to 11000
  146.0335  140.8235  142.9864 LP  0  0  0  0  0  0  0  0  0  0  0  0  # atno 17320 bound_to 7965
  144.6845  140.2804  143.7293 LP  0  0  0  0  0  0  0  0  0  0  0  0  # atno 17321 bound_to 7965
  140.6699  143.8317  150.6986 LP  0  0  0  0  0  0  0  0  0  0  0  0  # atno 17342 bound_to 10162
  140.1738  143.4172  152.1982 LP  0  0  0  0  0  0  0  0  0  0  0  0  # atno 17343 bound_to 10162
  155.9752  130.4707  150.6440 LP  0  0  0  0  0  0  0  0  0  0  0  0  # atno 17370 bound_to 10713
  157.4121  131.0825  151.1211 LP  0  0  0  0  0  0  0  0  0  0  0  0  # atno 17371 bound_to 10713
  140.0339  134.9888  157.0833 LP  0  0  0  0  0  0  0  0  0  0  0  0  # atno 17394 bound_to 11000
  140.4242  134.1849  155.7165 LP  0  0  0  0  0  0  0  0  0  0  0  0  # atno 17395 bound_to 11000

$$$$
