AV-unprocessed.smi:3297|AV-procd|sdf|12638|dock2
  -GOLD-   2272018573D 1   1.00000     0.00000
 Structure written by MMmdl.
 34 35  0  0  0  0  0  0  0  0  1 V2000
  146.4732  140.0470  152.4251 O   0  0  0  0  0  0  0  0  0  0  0  0
  147.0660  140.0460  153.7060 C   0  0  0  0  0  0  0  0  0  0  0  0
  147.6182  141.4384  154.0345 C   0  0  0  0  0  0  0  0  0  0  0  0
  148.1318  141.4301  155.3586 O   0  0  0  0  0  0  0  0  0  0  0  0
  149.5401  141.2576  155.4452 C   0  0  2  0  0  0  0  0  0  0  0  0
  149.9429  139.8104  155.0968 C   0  0  0  0  0  0  0  0  0  0  0  0
  151.4436  139.6001  155.3516 C   0  0  0  0  0  0  0  0  0  0  0  0
  151.8202  139.9853  156.7921 C   0  0  0  0  0  0  0  0  0  0  0  0
  151.3838  141.3468  157.0989 N   0  0  0  0  0  0  0  0  0  0  0  0
  151.9686  141.8970  158.2578 C   0  0  0  0  0  0  0  0  0  0  0  0
  152.4557  141.0454  159.1949 N   0  0  0  0  0  0  0  0  0  0  0  0
  153.0287  141.5568  160.3051 C   0  0  0  0  0  0  0  0  0  0  0  0
  153.1482  142.9385  160.5453 C   0  0  0  0  0  0  0  0  0  0  0  0
  152.6401  143.8274  159.5805 C   0  0  0  0  0  0  0  0  0  0  0  0
  152.0399  143.3028  158.4193 C   0  0  0  0  0  0  0  0  0  0  0  0
  151.5251  144.1437  157.4893 F   0  0  0  0  0  0  0  0  0  0  0  0
  149.9566  141.5956  156.8879 C   0  0  0  0  0  0  0  0  0  0  0  0
  145.5503  140.2256  152.5214 H   0  0  0  0  0  0  0  0  0  0  0  0
  146.2928  139.7763  154.4257 H   0  0  0  0  0  0  0  0  0  0  0  0
  147.8441  139.2849  153.7673 H   0  0  0  0  0  0  0  0  0  0  0  0
  148.3660  141.7429  153.3018 H   0  0  0  0  0  0  0  0  0  0  0  0
  146.8042  142.1629  153.9844 H   0  0  0  0  0  0  0  0  0  0  0  0
  150.0444  141.9540  154.7724 H   0  0  0  0  0  0  0  0  0  0  0  0
  149.3669  139.1115  155.7045 H   0  0  0  0  0  0  0  0  0  0  0  0
  149.7151  139.5813  154.0561 H   0  0  0  0  0  0  0  0  0  0  0  0
  151.7134  138.5611  155.1607 H   0  0  0  0  0  0  0  0  0  0  0  0
  152.0206  140.2041  154.6503 H   0  0  0  0  0  0  0  0  0  0  0  0
  151.3444  139.3002  157.4950 H   0  0  0  0  0  0  0  0  0  0  0  0
  152.8954  139.8723  156.9275 H   0  0  0  0  0  0  0  0  0  0  0  0
  153.4038  140.8430  161.0234 H   0  0  0  0  0  0  0  0  0  0  0  0
  153.6142  143.3058  161.4475 H   0  0  0  0  0  0  0  0  0  0  0  0
  152.7064  144.8950  159.7297 H   0  0  0  0  0  0  0  0  0  0  0  0
  149.7282  142.6419  157.0952 H   0  0  0  0  0  0  0  0  0  0  0  0
  149.3800  140.9937  157.5921 H   0  0  0  0  0  0  0  0  0  0  0  0
  1  2  1  0  0  0  0
  1 18  1  0  0  0  0
  2  3  1  0  0  0  0
  2 19  1  0  0  0  0
  2 20  1  0  0  0  0
  3  4  1  0  0  0  0
  3 21  1  0  0  0  0
  3 22  1  0  0  0  0
  4  5  1  0  0  0  0
  5 17  1  0  0  0  0
  5  6  1  0  0  0  0
  5 23  1  0  0  0  0
  6  7  1  0  0  0  0
  6 24  1  0  0  0  0
  6 25  1  0  0  0  0
  7  8  1  0  0  0  0
  7 26  1  0  0  0  0
  7 27  1  0  0  0  0
  8  9  1  0  0  0  0
  8 28  1  0  0  0  0
  8 29  1  0  0  0  0
  9 10  1  0  0  0  0
  9 17  1  0  0  0  0
 10 15  1  0  0  0  0
 10 11  2  0  0  0  0
 11 12  1  0  0  0  0
 12 13  2  0  0  0  0
 12 30  1  0  0  0  0
 13 14  1  0  0  0  0
 13 31  1  0  0  0  0
 14 15  2  0  0  0  0
 14 32  1  0  0  0  0
 15 16  1  0  0  0  0
 17 33  1  0  0  0  0
 17 34  1  0  0  0  0
M  END
> <s_m_source_file>
AV-unprocessed.smi

> <i_m_source_file_index>
3297

> <i_lp_mmshare_version>
43012

> <i_f3d_flags>
0

> <s_epik_input>
W09IXVtDSDJdW0NIMl1PW0NAQEhdMVtDSDJdW0NIMl1bQ0gyXU4oW0NIMl0xKWMybltjSF1bY0hdW2NIXWMyRg==

> <s_epik_cmdline>
J2VwaWtfcHl0aG9uJywgJy1waCcsICc3LjAnLCAnLXRuJywgJzgnLCAnLW1hJywgJzIwMCcsICctbWV0YWxfYmluZGluZycsICctaW1hZScsICc8aW5maWxlLm1hZT4nLCAnLW9tYWUnLCAnPG91dGZpbGUubWFlPic=

> <r_lp_tautomer_probability>
1

> <r_epik_Ionization_Penalty>
0.00104501

> <r_epik_Ionization_Penalty_Charging>
0

> <r_epik_Ionization_Penalty_Neutral>
0.00104501

> <r_epik_State_Penalty>
0.000654582

> <r_epik_Charging_Adjusted_Penalty>
0.000654582

> <i_epik_Tot_Q>
0

> <i_epik_Tot_abs_Q>
0

> <r_epik_Metal_State_Penalty>
-0

> <b_epik_Metal_Only>
0

> <s_lp_Force_Field>
OPLS_2005

> <r_lp_Energy>
21.0324

> <b_lp_Chiralities_Consistent>
1

> <s_lp_Variant>
AV-unprocessed.smi:3297-1

> <Gold.Version>
5.8.1

> <Gold.Id.Protein>
6NUR|6NUR_protein|mol2

> <Gold.PLP.Fitness>
42.2952

> <Gold.PLP.PLP>
-40.3486

> <Gold.PLP.part.hbond>
-1.7298

> <Gold.PLP.part.metal>
0.0000

> <Gold.PLP.part.buried>
-4.3050

> <Gold.PLP.part.nonpolar>
-35.7725

> <Gold.PLP.part.repulsive>
0.1512

> <Gold.PLP.ligand.clash>
0.0000

> <Gold.PLP.ligand.torsion>
0.6920

> <Gold.PLP.Chemscore.Hbond>
0.9913

> <Gold.PLP.Chemscore.CHOScore>
0.0000

> <Gold.PLP.Chemscore.Metal>
0.0000

> <Gold.Chemscore.Hbonds>
donor molecule, donor type, donor heavy atom, donor atom, acceptor molecule, acceptor atom, score
      L1  H     1    18       P1 10175  1.00

> <Gold.PLP.Chemscore.Internal.Correction>
0.3567

> <Gold.Rescore>
     Score         DG    S(hbond)    S(metal)    S(lipo)     H(rot)  DE(clash)    DE(int)     intcor
     12.94     -13.65       0.99        0.00      90.75       2.25       0.00       0.71       ----

> <Gold.Chemscore.Fitness>
12.9403

> <Gold.Chemscore.DG>
-13.6478

> <Gold.Chemscore.ZeroCoef>
-5.4800

> <Gold.Chemscore.Hbond>
0.9928

> <Gold.Chemscore.Metal>
0.0000

> <Gold.Chemscore.Lipo>
90.7523

> <Gold.Chemscore.Internal_Hbond>
0.0000

> <Gold.Chemscore.DEClash>
0.0000

> <Gold.Chemscore.DEInternal>
0.7074

> <Gold.Chemscore.Rot>
2.2524

> <Gold.Chemscore.Internal.Correction>
   9.000000E+99

> <Gold.Chemscore.Hbonds>
donor molecule, donor type, donor heavy atom, donor atom, acceptor molecule, acceptor atom, score
      L1  H     1    18       P1 10175  0.82

> <Gold.Chemscore.Hbond.Weighted>
-3.3159

> <Gold.Chemscore.Metal.Weighted>
-0.0000

> <Gold.Chemscore.Lipo.Weighted>
-10.6180

> <Gold.Chemscore.Internal_Hbond.Weighted>
0.0000

> <Gold.Chemscore.DEClash.Weighted>
0.0000

> <Gold.Chemscore.DEInternal.Weighted>
0.7074

> <Gold.Chemscore.Rot.Weighted>
5.7661

> <Gold.Chemscore.Internal.Correction.Weighted>
   9.000000E+99

> <Gold.Protein.RotatedTorsions>
[ 6907 6896 6895 6894 ] final   43.66 input  -60.11 | X-H torsion
[ 7974 7965 7964 7962 ] final   45.65 input  175.53 | X-H torsion
[ 8008 7997 7996 7995 ] final  -25.02 input   59.86 | X-H torsion
[ 10167 10162 10161 10158 ] final  139.82 input  -65.29 | X-H torsion
[ 10718 10713 10712 10709 ] final -107.73 input   66.30 | X-H torsion
[ 10763 10752 10751 10750 ] final -107.38 input  -60.55 | X-H torsion
[ 11005 11000 10999 10996 ] final   37.59 input  -57.11 | X-H torsion

> <Gold.Protein.ActiveResidues>
 VAL166  LYS551  ARG553  GLY616  TRP617  ASP618  TYR619  PRO620  LYS621  CYS622 
 ASP623  PHE694  ASN695  SER759  ASP760  ASP761  ALA762  ILE779  LEU786  VAL792 
 PHE793  MET794  SER795  GLU796  ALA797  LYS798  CYS799  TRP800  GLU811  SER814 

> <Gold.Protein.RotatedAtoms>
  152.2231  134.8394  160.0483 H   0  0  0  0  0  0  0  0  0  0  0  0  # atno 6907 bound_to 6896
  151.9171  133.3571  159.3892 H   0  0  0  0  0  0  0  0  0  0  0  0  # atno 6908 bound_to 6896
  150.7005  134.4599  159.5419 H   0  0  0  0  0  0  0  0  0  0  0  0  # atno 6909 bound_to 6896
  146.0461  139.4941  142.9748 H   0  0  0  0  0  0  0  0  0  0  0  0  # atno 7974 bound_to 7965
  154.4498  140.1938  156.0554 H   0  0  0  0  0  0  0  0  0  0  0  0  # atno 8008 bound_to 7997
  156.0623  140.3295  155.7448 H   0  0  0  0  0  0  0  0  0  0  0  0  # atno 8009 bound_to 7997
  155.5393  140.0585  157.2864 H   0  0  0  0  0  0  0  0  0  0  0  0  # atno 8010 bound_to 7997
  139.5067  144.6271  151.5909 H   0  0  0  0  0  0  0  0  0  0  0  0  # atno 10167 bound_to 10162
  156.0451  130.5677  150.7863 H   0  0  0  0  0  0  0  0  0  0  0  0  # atno 10718 bound_to 10713
  154.8071  135.4677  154.0421 H   0  0  0  0  0  0  0  0  0  0  0  0  # atno 10763 bound_to 10752
  153.1881  135.6851  153.8395 H   0  0  0  0  0  0  0  0  0  0  0  0  # atno 10764 bound_to 10752
  153.7923  135.3241  155.3357 H   0  0  0  0  0  0  0  0  0  0  0  0  # atno 10765 bound_to 10752
  140.2210  134.3641  155.8005 H   0  0  0  0  0  0  0  0  0  0  0  0  # atno 11005 bound_to 11000
  145.6804  141.0192  143.1609 LP  0  0  0  0  0  0  0  0  0  0  0  0  # atno 17320 bound_to 7965
  144.7098  139.8414  143.7418 LP  0  0  0  0  0  0  0  0  0  0  0  0  # atno 17321 bound_to 7965
  140.5992  143.9641  150.6375 LP  0  0  0  0  0  0  0  0  0  0  0  0  # atno 17342 bound_to 10162
  140.2847  143.3365  152.1119 LP  0  0  0  0  0  0  0  0  0  0  0  0  # atno 17343 bound_to 10162
  157.5316  131.0937  150.9947 LP  0  0  0  0  0  0  0  0  0  0  0  0  # atno 17370 bound_to 10713
  157.0252  130.5689  149.5336 LP  0  0  0  0  0  0  0  0  0  0  0  0  # atno 17371 bound_to 10713
  141.2223  133.7193  156.8576 LP  0  0  0  0  0  0  0  0  0  0  0  0  # atno 17394 bound_to 11000
  140.1849  134.9007  157.2993 LP  0  0  0  0  0  0  0  0  0  0  0  0  # atno 17395 bound_to 11000

$$$$
