AV-unprocessed.smi:2047|AV-procd|sdf|8315|dock6
  -GOLD-   2272010583D 1   1.00000     0.00000
 Structure written by MMmdl.
 42 44  0  0  0  0  0  0  0  0  1 V2000
  150.5740  135.1986  155.8139 O   0  0  0  0  0  0  0  0  0  0  0  0
  149.8559  135.4827  154.8554 C   0  0  0  0  0  0  0  0  0  0  0  0
  149.2941  134.5994  154.0132 N   0  0  0  0  0  0  0  0  0  0  0  0
  149.3665  133.1769  154.0344 C   0  0  0  0  0  0  0  0  0  0  0  0
  150.4408  132.4908  154.6532 C   0  0  0  0  0  0  0  0  0  0  0  0
  150.4958  131.0880  154.5842 C   0  0  0  0  0  0  0  0  0  0  0  0
  149.4809  130.4168  153.8829 C   0  0  0  0  0  0  0  0  0  0  0  0
  148.4600  131.0542  153.2766 N   0  0  0  0  0  0  0  0  0  0  0  0
  148.3849  132.4063  153.3465 C   0  0  0  0  0  0  0  0  0  0  0  0
  147.2855  133.0181  152.7013 N   0  0  0  0  0  0  0  0  0  0  0  0
  147.4679  133.7212  151.4360 C   0  0  0  0  0  0  0  0  0  0  0  0
  146.0592  133.8987  150.8774 C   0  0  0  0  0  0  0  0  0  0  0  0
  145.3710  132.6100  151.3165 C   0  0  0  0  0  0  0  0  0  0  0  0
  146.0182  132.2938  152.6694 C   0  0  0  0  0  0  0  0  0  0  0  0
  149.5235  136.7387  154.5270 N   0  0  0  0  0  0  0  0  0  0  0  0
  149.9788  137.9371  155.2246 C   0  0  2  0  0  0  0  0  0  0  0  0
  149.6858  139.2040  154.3999 C   0  0  0  0  0  0  0  0  0  0  0  0
  150.4965  140.3670  154.9832 C   0  0  0  0  0  0  0  0  0  0  0  0
  152.0376  139.6280  155.6447 S   0  0  0  0  0  0  0  0  0  0  0  0
  153.1396  139.8622  154.6993 O   0  0  0  0  0  0  0  0  0  0  0  0
  152.1687  139.9871  157.0647 O   0  0  0  0  0  0  0  0  0  0  0  0
  151.4901  137.8850  155.5008 C   0  0  0  0  0  0  0  0  0  0  0  0
  148.6643  134.9844  153.3245 H   0  0  0  0  0  0  0  0  0  0  0  0
  151.2376  133.0136  155.1588 H   0  0  0  0  0  0  0  0  0  0  0  0
  151.3043  130.5417  155.0468 H   0  0  0  0  0  0  0  0  0  0  0  0
  149.4918  129.3401  153.8002 H   0  0  0  0  0  0  0  0  0  0  0  0
  147.9708  134.6777  151.5814 H   0  0  0  0  0  0  0  0  0  0  0  0
  148.0598  133.1231  150.7415 H   0  0  0  0  0  0  0  0  0  0  0  0
  145.5763  134.7578  151.3455 H   0  0  0  0  0  0  0  0  0  0  0  0
  146.0450  134.0458  149.7972 H   0  0  0  0  0  0  0  0  0  0  0  0
  144.2865  132.7052  151.3773 H   0  0  0  0  0  0  0  0  0  0  0  0
  145.5990  131.8140  150.6065 H   0  0  0  0  0  0  0  0  0  0  0  0
  146.1555  131.2198  152.8035 H   0  0  0  0  0  0  0  0  0  0  0  0
  145.3840  132.6583  153.4778 H   0  0  0  0  0  0  0  0  0  0  0  0
  148.9211  136.8776  153.7288 H   0  0  0  0  0  0  0  0  0  0  0  0
  149.4536  138.0342  156.1768 H   0  0  0  0  0  0  0  0  0  0  0  0
  150.0027  139.0428  153.3683 H   0  0  0  0  0  0  0  0  0  0  0  0
  148.6202  139.4336  154.3736 H   0  0  0  0  0  0  0  0  0  0  0  0
  150.7315  141.1359  154.2474 H   0  0  0  0  0  0  0  0  0  0  0  0
  149.9633  140.8304  155.8135 H   0  0  0  0  0  0  0  0  0  0  0  0
  151.7371  137.3365  156.4100 H   0  0  0  0  0  0  0  0  0  0  0  0
  152.0309  137.4361  154.6669 H   0  0  0  0  0  0  0  0  0  0  0  0
  1  2  2  0  0  0  0
  2  3  1  0  0  0  0
  2 15  1  0  0  0  0
  3  4  1  0  0  0  0
  3 23  1  0  0  0  0
  4  9  1  0  0  0  0
  4  5  2  0  0  0  0
  5  6  1  0  0  0  0
  5 24  1  0  0  0  0
  6  7  2  0  0  0  0
  6 25  1  0  0  0  0
  7  8  1  0  0  0  0
  7 26  1  0  0  0  0
  8  9  2  0  0  0  0
  9 10  1  0  0  0  0
 10 14  1  0  0  0  0
 10 11  1  0  0  0  0
 11 12  1  0  0  0  0
 11 27  1  0  0  0  0
 11 28  1  0  0  0  0
 12 13  1  0  0  0  0
 12 29  1  0  0  0  0
 12 30  1  0  0  0  0
 13 14  1  0  0  0  0
 13 31  1  0  0  0  0
 13 32  1  0  0  0  0
 14 33  1  0  0  0  0
 14 34  1  0  0  0  0
 15 16  1  0  0  0  0
 15 35  1  0  0  0  0
 16 22  1  0  0  0  0
 16 17  1  0  0  0  0
 16 36  1  0  0  0  0
 17 18  1  0  0  0  0
 17 37  1  0  0  0  0
 17 38  1  0  0  0  0
 18 19  1  0  0  0  0
 18 39  1  0  0  0  0
 18 40  1  0  0  0  0
 19 20  2  0  0  0  0
 19 21  2  0  0  0  0
 19 22  1  0  0  0  0
 22 41  1  0  0  0  0
 22 42  1  0  0  0  0
M  END
> <s_m_source_file>
AV-unprocessed.smi

> <i_m_source_file_index>
2047

> <i_lp_mmshare_version>
43012

> <i_f3d_flags>
0

> <s_epik_input>
Tz1TMSg9TylbQ0gyXVtDSDJdW0NASF0oW0NIMl0xKVtOSF1DKD1PKVtOSF1jMltjSF1bY0hdW2NIXW5jMk4zW0NIMl1bQ0gyXVtDSDJdW0NIMl0z

> <s_epik_cmdline>
J2VwaWtfcHl0aG9uJywgJy1waCcsICc3LjAnLCAnLXRuJywgJzgnLCAnLW1hJywgJzIwMCcsICctbWV0YWxfYmluZGluZycsICctaW1hZScsICc8aW5maWxlLm1hZT4nLCAnLW9tYWUnLCAnPG91dGZpbGUubWFlPic=

> <r_lp_tautomer_probability>
1

> <r_epik_Ionization_Penalty>
0.0840625

> <r_epik_Ionization_Penalty_Charging>
0

> <r_epik_Ionization_Penalty_Neutral>
0.0840625

> <r_epik_State_Penalty>
0.0741601

> <r_epik_Charging_Adjusted_Penalty>
0.0741601

> <i_epik_Tot_Q>
0

> <i_epik_Tot_abs_Q>
0

> <r_epik_Metal_State_Penalty>
0.0657339

> <b_epik_Metal_Only>
0

> <s_lp_Force_Field>
OPLS_2005

> <r_lp_Energy>
32.0686

> <b_lp_Chiralities_Consistent>
1

> <s_lp_Variant>
AV-unprocessed.smi:2047-1

> <Gold.Version>
5.8.1

> <Gold.Id.Protein>
6NUR|6NUR_protein|mol2

> <Gold.PLP.Fitness>
41.3981

> <Gold.PLP.PLP>
-36.2931

> <Gold.PLP.part.hbond>
-4.0000

> <Gold.PLP.part.metal>
0.0000

> <Gold.PLP.part.buried>
-4.0042

> <Gold.PLP.part.nonpolar>
-27.7130

> <Gold.PLP.part.repulsive>
0.3023

> <Gold.PLP.ligand.clash>
0.0000

> <Gold.PLP.ligand.torsion>
0.8203

> <Gold.PLP.Chemscore.Hbond>
2.1420

> <Gold.PLP.Chemscore.CHOScore>
0.0000

> <Gold.PLP.Chemscore.Metal>
0.0000

> <Gold.Chemscore.Hbonds>
donor molecule, donor type, donor heavy atom, donor atom, acceptor molecule, acceptor atom, score
      L1  H     3    23       P1  7948  0.62
      L1  H    15    35       P1  7948  0.66
      P1  H  7989  7998       L1    20  0.06
      P1  H  7997  8009       L1    20  1.00

> <Gold.PLP.Chemscore.Internal.Correction>
0.3197

> <Gold.Rescore>
     Score         DG    S(hbond)    S(metal)    S(lipo)     H(rot)  DE(clash)    DE(int)     intcor
     13.97     -17.35       2.06        0.00      69.84       1.25       0.18       3.20       ----

> <Gold.Chemscore.Fitness>
13.9745

> <Gold.Chemscore.DG>
-17.3460

> <Gold.Chemscore.ZeroCoef>
-5.4800

> <Gold.Chemscore.Hbond>
2.0626

> <Gold.Chemscore.Metal>
0.0000

> <Gold.Chemscore.Lipo>
69.8443

> <Gold.Chemscore.Internal_Hbond>
0.0000

> <Gold.Chemscore.DEClash>
0.1761

> <Gold.Chemscore.DEInternal>
3.1954

> <Gold.Chemscore.Rot>
1.2480

> <Gold.Chemscore.Internal.Correction>
   9.000000E+99

> <Gold.Chemscore.Hbonds>
donor molecule, donor type, donor heavy atom, donor atom, acceptor molecule, acceptor atom, score
      L1  H     3    23       P1  7948  0.37
      L1  H    15    35       P1  7948  0.65
      P1  H  7997  8009       L1    20  0.60

> <Gold.Chemscore.Hbond.Weighted>
-6.8891

> <Gold.Chemscore.Metal.Weighted>
-0.0000

> <Gold.Chemscore.Lipo.Weighted>
-8.1718

> <Gold.Chemscore.Internal_Hbond.Weighted>
0.0000

> <Gold.Chemscore.DEClash.Weighted>
0.1761

> <Gold.Chemscore.DEInternal.Weighted>
3.1954

> <Gold.Chemscore.Rot.Weighted>
3.1948

> <Gold.Chemscore.Internal.Correction.Weighted>
   9.000000E+99

> <Gold.Protein.RotatedTorsions>
[ 6907 6896 6895 6894 ] final  -96.63 input  -60.11 | X-H torsion
[ 7974 7965 7964 7962 ] final  -96.95 input  175.53 | X-H torsion
[ 8008 7997 7996 7995 ] final -119.81 input   59.86 | X-H torsion
[ 10167 10162 10161 10158 ] final   16.37 input  -65.29 | X-H torsion
[ 10718 10713 10712 10709 ] final -132.83 input   66.30 | X-H torsion
[ 10763 10752 10751 10750 ] final -144.23 input  -60.55 | X-H torsion
[ 11005 11000 10999 10996 ] final  161.40 input  -57.11 | X-H torsion

> <Gold.Protein.ActiveResidues>
 VAL166  LYS551  ARG553  GLY616  TRP617  ASP618  TYR619  PRO620  LYS621  CYS622 
 ASP623  PHE694  ASN695  SER759  ASP760  ASP761  ALA762  ILE779  LEU786  VAL792 
 PHE793  MET794  SER795  GLU796  ALA797  LYS798  CYS799  TRP800  GLU811  SER814 

> <Gold.Protein.RotatedAtoms>
  150.6994  134.1473  159.4126 H   0  0  0  0  0  0  0  0  0  0  0  0  # atno 6907 bound_to 6896
  151.9456  135.0190  160.0548 H   0  0  0  0  0  0  0  0  0  0  0  0  # atno 6908 bound_to 6896
  152.2055  133.4837  159.5118 H   0  0  0  0  0  0  0  0  0  0  0  0  # atno 6909 bound_to 6896
  145.3402  140.9458  143.2612 H   0  0  0  0  0  0  0  0  0  0  0  0  # atno 7974 bound_to 7965
  155.1218  140.0398  157.2752 H   0  0  0  0  0  0  0  0  0  0  0  0  # atno 8008 bound_to 7997
  154.6608  140.2590  155.7085 H   0  0  0  0  0  0  0  0  0  0  0  0  # atno 8009 bound_to 7997
  156.2618  140.2817  156.1079 H   0  0  0  0  0  0  0  0  0  0  0  0  # atno 8010 bound_to 7997
  140.5802  143.8996  150.6783 H   0  0  0  0  0  0  0  0  0  0  0  0  # atno 10167 bound_to 10162
  156.2386  130.7082  151.0933 H   0  0  0  0  0  0  0  0  0  0  0  0  # atno 10718 bound_to 10713
  154.8437  135.3446  154.6312 H   0  0  0  0  0  0  0  0  0  0  0  0  # atno 10763 bound_to 10752
  153.6922  135.6974  153.5091 H   0  0  0  0  0  0  0  0  0  0  0  0  # atno 10764 bound_to 10752
  153.2586  135.4330  155.0826 H   0  0  0  0  0  0  0  0  0  0  0  0  # atno 10765 bound_to 10752
  140.2154  134.8236  157.3165 H   0  0  0  0  0  0  0  0  0  0  0  0  # atno 11005 bound_to 11000
  144.8796  139.4922  143.6729 LP  0  0  0  0  0  0  0  0  0  0  0  0  # atno 17320 bound_to 7965
  146.3010  139.7428  142.9091 LP  0  0  0  0  0  0  0  0  0  0  0  0  # atno 17321 bound_to 7965
  140.2493  143.3605  152.1419 LP  0  0  0  0  0  0  0  0  0  0  0  0  # atno 17342 bound_to 10162
  139.5165  144.6979  151.5579 LP  0  0  0  0  0  0  0  0  0  0  0  0  # atno 17343 bound_to 10162
  157.7165  131.0706  150.6305 LP  0  0  0  0  0  0  0  0  0  0  0  0  # atno 17370 bound_to 10713
  156.6377  130.4449  149.5763 LP  0  0  0  0  0  0  0  0  0  0  0  0  # atno 17371 bound_to 10713
  140.1906  134.4377  155.7718 LP  0  0  0  0  0  0  0  0  0  0  0  0  # atno 17394 bound_to 11000
  141.2225  133.7025  156.8020 LP  0  0  0  0  0  0  0  0  0  0  0  0  # atno 17395 bound_to 11000

$$$$
