AV-unprocessed.smi:99|AV-procd|sdf|874|dock9
  -GOLD-   2262017343D 1   1.00000     0.00000
 Structure written by MMmdl.
 53 56  0  0  0  0  0  0  0  0  1 V2000
  152.0246  135.4914  156.1907 O   0  0  0  0  0  0  0  0  0  0  0  0
  150.8934  135.5828  155.7092 C   0  0  0  0  0  0  0  0  0  0  0  0
  150.1841  136.7282  155.6848 O   0  0  0  0  0  0  0  0  0  0  0  0
  150.8087  137.9547  156.0253 C   0  0  0  0  0  0  0  0  0  0  0  0
  150.3141  139.0554  155.0818 C   0  0  1  0  0  0  0  0  0  0  0  0
  149.5154  138.4906  154.0534 O   0  0  0  0  0  0  0  0  0  0  0  0
  148.6148  139.4440  153.5834 C   0  0  1  0  0  0  0  0  0  0  0  0
  147.2840  138.7522  153.3744 N   0  0  0  0  0  0  0  0  0  0  0  0
  146.8309  137.8071  154.2851 C   0  0  0  0  0  0  0  0  0  0  0  0
  145.6573  137.1473  154.1438 C   0  0  0  0  0  0  0  0  0  0  0  0
  144.7957  137.4089  152.9953 C   0  0  0  0  0  0  0  0  0  0  0  0
  143.7168  136.8611  152.7794 O   0  0  0  0  0  0  0  0  0  0  0  0
  145.2890  138.3687  152.1065 N   0  0  0  0  0  0  0  0  0  0  0  0
  146.4957  139.0576  152.2426 C   0  0  0  0  0  0  0  0  0  0  0  0
  146.8229  139.8932  151.4012 O   0  0  0  0  0  0  0  0  0  0  0  0
  148.5459  140.5936  154.6136 C   0  0  1  0  0  0  0  0  0  0  0  0
  147.2391  140.9220  155.0496 O   0  0  0  0  0  0  0  0  0  0  0  0
  149.3815  140.0538  155.7669 C   0  0  2  0  0  0  0  0  0  0  0  0
  150.1528  141.0916  156.3591 O   0  0  0  0  0  0  0  0  0  0  0  0
  150.8192  140.8823  157.5147 C   0  0  0  0  0  0  0  0  0  0  0  0
  150.8713  139.7916  158.0866 O   0  0  0  0  0  0  0  0  0  0  0  0
  151.4877  142.1121  158.0289 C   0  0  0  0  0  0  0  0  0  0  0  0
  152.3441  142.0169  159.1507 C   0  0  0  0  0  0  0  0  0  0  0  0
  152.9864  143.1610  159.6624 C   0  0  0  0  0  0  0  0  0  0  0  0
  152.7793  144.4150  159.0590 C   0  0  0  0  0  0  0  0  0  0  0  0
  151.9298  144.5232  157.9426 C   0  0  0  0  0  0  0  0  0  0  0  0
  151.2872  143.3797  157.4285 C   0  0  0  0  0  0  0  0  0  0  0  0
  150.1669  134.4361  155.0912 C   0  0  0  0  0  0  0  0  0  0  0  0
  148.9779  134.6801  154.3647 C   0  0  0  0  0  0  0  0  0  0  0  0
  148.2694  133.6178  153.7706 C   0  0  0  0  0  0  0  0  0  0  0  0
  148.7415  132.2982  153.8950 C   0  0  0  0  0  0  0  0  0  0  0  0
  149.9240  132.0424  154.6131 C   0  0  0  0  0  0  0  0  0  0  0  0
  150.6337  133.1035  155.2085 C   0  0  0  0  0  0  0  0  0  0  0  0
  144.7232  138.5837  151.2982 H   0  0  0  0  0  0  0  0  0  0  0  0
  150.6003  138.2212  157.0626 H   0  0  0  0  0  0  0  0  0  0  0  0
  151.8888  137.8390  155.9253 H   0  0  0  0  0  0  0  0  0  0  0  0
  151.1517  139.5835  154.6217 H   0  0  0  0  0  0  0  0  0  0  0  0
  148.9701  139.7820  152.6090 H   0  0  0  0  0  0  0  0  0  0  0  0
  147.4345  137.5844  155.1534 H   0  0  0  0  0  0  0  0  0  0  0  0
  145.3535  136.4219  154.8847 H   0  0  0  0  0  0  0  0  0  0  0  0
  149.0187  141.4708  154.1692 H   0  0  0  0  0  0  0  0  0  0  0  0
  146.7126  140.1373  155.0353 H   0  0  0  0  0  0  0  0  0  0  0  0
  148.7539  139.5223  156.4846 H   0  0  0  0  0  0  0  0  0  0  0  0
  152.5178  141.0652  159.6320 H   0  0  0  0  0  0  0  0  0  0  0  0
  153.6377  143.0759  160.5199 H   0  0  0  0  0  0  0  0  0  0  0  0
  153.2713  145.2925  159.4523 H   0  0  0  0  0  0  0  0  0  0  0  0
  151.7695  145.4858  157.4795 H   0  0  0  0  0  0  0  0  0  0  0  0
  150.6402  143.4984  156.5717 H   0  0  0  0  0  0  0  0  0  0  0  0
  148.5953  135.6849  154.2557 H   0  0  0  0  0  0  0  0  0  0  0  0
  147.3624  133.8164  153.2188 H   0  0  0  0  0  0  0  0  0  0  0  0
  148.1975  131.4838  153.4399 H   0  0  0  0  0  0  0  0  0  0  0  0
  150.2877  131.0298  154.7079 H   0  0  0  0  0  0  0  0  0  0  0  0
  151.5379  132.8719  155.7522 H   0  0  0  0  0  0  0  0  0  0  0  0
  1  2  2  0  0  0  0
  2  3  1  0  0  0  0
  2 28  1  0  0  0  0
  3  4  1  0  0  0  0
  4  5  1  0  0  0  0
  4 35  1  0  0  0  0
  4 36  1  0  0  0  0
  5 18  1  0  0  0  0
  5  6  1  0  0  0  0
  5 37  1  0  0  0  0
  6  7  1  0  0  0  0
  7  8  1  0  0  0  0
  7 16  1  0  0  0  0
  7 38  1  0  0  0  0
  8 14  1  0  0  0  0
  8  9  1  0  0  0  0
  9 10  2  0  0  0  0
  9 39  1  0  0  0  0
 10 11  1  0  0  0  0
 10 40  1  0  0  0  0
 11 12  2  0  0  0  0
 11 13  1  0  0  0  0
 13 34  1  0  0  0  0
 13 14  1  0  0  0  0
 14 15  2  0  0  0  0
 16 17  1  0  0  0  0
 16 18  1  0  0  0  0
 16 41  1  0  0  0  0
 17 42  1  0  0  0  0
 18 19  1  0  0  0  0
 18 43  1  0  0  0  0
 19 20  1  0  0  0  0
 20 21  2  0  0  0  0
 20 22  1  0  0  0  0
 22 27  1  0  0  0  0
 22 23  2  0  0  0  0
 23 24  1  0  0  0  0
 23 44  1  0  0  0  0
 24 25  2  0  0  0  0
 24 45  1  0  0  0  0
 25 26  1  0  0  0  0
 25 46  1  0  0  0  0
 26 27  2  0  0  0  0
 26 47  1  0  0  0  0
 27 48  1  0  0  0  0
 28 33  1  0  0  0  0
 28 29  2  0  0  0  0
 29 30  1  0  0  0  0
 29 49  1  0  0  0  0
 30 31  2  0  0  0  0
 30 50  1  0  0  0  0
 31 32  1  0  0  0  0
 31 51  1  0  0  0  0
 32 33  2  0  0  0  0
 32 52  1  0  0  0  0
 33 53  1  0  0  0  0
M  END
> <s_m_source_file>
AV-unprocessed.smi

> <i_m_source_file_index>
99

> <i_lp_mmshare_version>
43012

> <i_f3d_flags>
0

> <s_epik_input>
W2NIXTFbY0hdW2NIXVtjSF1bY0hdYzFDKD1PKU9bQ0gyXVtDQEBIXTJPW0NAQEhdKG4zW2NIXVtjSF1jKD1PKVtuSF1jMz1PKVtDQEBIXShbT0hdKVtDQEhdMk9DKD1PKWM0W2NIXVtjSF1bY0hdW2NIXVtjSF00

> <s_epik_cmdline>
J2VwaWtfcHl0aG9uJywgJy1waCcsICc3LjAnLCAnLXRuJywgJzgnLCAnLW1hJywgJzIwMCcsICctbWV0YWxfYmluZGluZycsICctaW1hZScsICc8aW5maWxlLm1hZT4nLCAnLW9tYWUnLCAnPG91dGZpbGUubWFlPic=

> <r_lp_tautomer_probability>
1

> <r_epik_Ionization_Penalty>
0.00454555

> <r_epik_Ionization_Penalty_Charging>
0.0045191

> <r_epik_Ionization_Penalty_Neutral>
2.64449e-05

> <r_epik_State_Penalty>
-0

> <r_epik_Charging_Adjusted_Penalty>
0.0045191

> <i_epik_Tot_Q>
0

> <i_epik_Tot_abs_Q>
0

> <r_epik_Metal_State_Penalty>
1.27877

> <b_epik_Metal_Only>
0

> <s_epik_Chemistry_Notes>
This compound has an ester and may undergo hydrolysis at high or low pH. This compound contains an acetal/aminal-like group ( X-CH(R)-Y where X, Y are N, S, or O) that may be acid/base labile, releasing an aldehyde.

> <s_lp_Force_Field>
OPLS_2005

> <r_lp_Energy>
37.9182

> <b_lp_Chiralities_Consistent>
1

> <s_lp_Variant>
AV-unprocessed.smi:99-10

> <Gold.Version>
5.8.1

> <Gold.Id.Protein>
6NUR|6NUR_protein|mol2

> <Gold.PLP.Fitness>
51.4443

> <Gold.PLP.PLP>
-48.8547

> <Gold.PLP.part.hbond>
-3.0000

> <Gold.PLP.part.metal>
0.0000

> <Gold.PLP.part.buried>
-2.6525

> <Gold.PLP.part.nonpolar>
-46.0793

> <Gold.PLP.part.repulsive>
3.3678

> <Gold.PLP.ligand.clash>
0.2831

> <Gold.PLP.ligand.torsion>
1.8155

> <Gold.PLP.Chemscore.Hbond>
2.0000

> <Gold.PLP.Chemscore.CHOScore>
0.0000

> <Gold.PLP.Chemscore.Metal>
0.0000

> <Gold.Chemscore.Hbonds>
donor molecule, donor type, donor heavy atom, donor atom, acceptor molecule, acceptor atom, score
      L1  H    13    34       P1 10171  1.00
      P1  H 10752 10765       L1     1  1.00

> <Gold.PLP.Chemscore.Internal.Correction>
0.5037

> <Gold.Rescore>
     Score         DG    S(hbond)    S(metal)    S(lipo)     H(rot)  DE(clash)    DE(int)     intcor
     13.34     -17.83       1.94        0.00     119.84       3.19       1.20       3.29       ----

> <Gold.Chemscore.Fitness>
13.3381

> <Gold.Chemscore.DG>
-17.8272

> <Gold.Chemscore.ZeroCoef>
-5.4800

> <Gold.Chemscore.Hbond>
1.9438

> <Gold.Chemscore.Metal>
0.0000

> <Gold.Chemscore.Lipo>
119.8446

> <Gold.Chemscore.Internal_Hbond>
0.0000

> <Gold.Chemscore.DEClash>
1.1997

> <Gold.Chemscore.DEInternal>
3.2894

> <Gold.Chemscore.Rot>
3.1903

> <Gold.Chemscore.Internal.Correction>
   9.000000E+99

> <Gold.Chemscore.Hbonds>
donor molecule, donor type, donor heavy atom, donor atom, acceptor molecule, acceptor atom, score
      L1  H    13    34       P1 10171  1.00
      P1  H 10752 10765       L1     1  0.73

> <Gold.Chemscore.Hbond.Weighted>
-6.4924

> <Gold.Chemscore.Metal.Weighted>
-0.0000

> <Gold.Chemscore.Lipo.Weighted>
-14.0218

> <Gold.Chemscore.Internal_Hbond.Weighted>
0.0000

> <Gold.Chemscore.DEClash.Weighted>
1.1997

> <Gold.Chemscore.DEInternal.Weighted>
3.2894

> <Gold.Chemscore.Rot.Weighted>
8.1671

> <Gold.Chemscore.Internal.Correction.Weighted>
   9.000000E+99

> <Gold.Protein.RotatedTorsions>
[ 6907 6896 6895 6894 ] final -168.39 input  -60.11 | X-H torsion
[ 7974 7965 7964 7962 ] final  122.31 input  175.53 | X-H torsion
[ 8008 7997 7996 7995 ] final -162.23 input   59.86 | X-H torsion
[ 10167 10162 10161 10158 ] final   72.65 input  -65.29 | X-H torsion
[ 10718 10713 10712 10709 ] final  -42.23 input   66.30 | X-H torsion
[ 10763 10752 10751 10750 ] final -153.39 input  -60.55 | X-H torsion
[ 11005 11000 10999 10996 ] final  148.19 input  -57.11 | X-H torsion

> <Gold.Protein.ActiveResidues>
 VAL166  LYS551  ARG553  GLY616  TRP617  ASP618  TYR619  PRO620  LYS621  CYS622 
 ASP623  PHE694  ASN695  SER759  ASP760  ASP761  ALA762  ILE779  LEU786  VAL792 
 PHE793  MET794  SER795  GLU796  ALA797  LYS798  CYS799  TRP800  GLU811  SER814 

> <Gold.Protein.RotatedAtoms>
  151.4749  133.3560  159.2828 H   0  0  0  0  0  0  0  0  0  0  0  0  # atno 6907 bound_to 6896
  150.8936  134.8344  159.7322 H   0  0  0  0  0  0  0  0  0  0  0  0  # atno 6908 bound_to 6896
  152.4838  134.4661  159.9672 H   0  0  0  0  0  0  0  0  0  0  0  0  # atno 6909 bound_to 6896
  145.1090  139.3465  143.4773 H   0  0  0  0  0  0  0  0  0  0  0  0  # atno 7974 bound_to 7965
  155.8038  140.0895  157.1942 H   0  0  0  0  0  0  0  0  0  0  0  0  # atno 8008 bound_to 7997
  154.3981  140.1467  156.3365 H   0  0  0  0  0  0  0  0  0  0  0  0  # atno 8009 bound_to 7997
  155.8435  140.3437  155.5650 H   0  0  0  0  0  0  0  0  0  0  0  0  # atno 8010 bound_to 7997
  140.0329  144.5451  150.7493 H   0  0  0  0  0  0  0  0  0  0  0  0  # atno 10167 bound_to 10162
  156.2618  130.4198  149.8533 H   0  0  0  0  0  0  0  0  0  0  0  0  # atno 10718 bound_to 10713
  154.7931  135.3214  154.7731 H   0  0  0  0  0  0  0  0  0  0  0  0  # atno 10763 bound_to 10752
  153.8415  135.6870  153.4806 H   0  0  0  0  0  0  0  0  0  0  0  0  # atno 10764 bound_to 10752
  153.1610  135.4661  154.9712 H   0  0  0  0  0  0  0  0  0  0  0  0  # atno 10765 bound_to 10752
  140.0938  134.9024  157.1692 H   0  0  0  0  0  0  0  0  0  0  0  0  # atno 11005 bound_to 11000
  146.3527  140.1001  142.8608 LP  0  0  0  0  0  0  0  0  0  0  0  0  # atno 17320 bound_to 7965
  145.0868  140.9258  143.4792 LP  0  0  0  0  0  0  0  0  0  0  0  0  # atno 17321 bound_to 7965
  140.7294  143.2672  151.4006 LP  0  0  0  0  0  0  0  0  0  0  0  0  # atno 17342 bound_to 10162
  139.6064  144.1189  152.2253 LP  0  0  0  0  0  0  0  0  0  0  0  0  # atno 17343 bound_to 10162
  156.6046  130.8561  151.3440 LP  0  0  0  0  0  0  0  0  0  0  0  0  # atno 17370 bound_to 10713
  157.7253  130.9614  150.1610 LP  0  0  0  0  0  0  0  0  0  0  0  0  # atno 17371 bound_to 10713
  140.3314  134.2805  155.7227 LP  0  0  0  0  0  0  0  0  0  0  0  0  # atno 17394 bound_to 11000
  141.2086  133.7773  157.0049 LP  0  0  0  0  0  0  0  0  0  0  0  0  # atno 17395 bound_to 11000

$$$$
