AV-unprocessed.smi:688|AV-procd|sdf|3354|dock1
  -GOLD-   22720 0323D 1   1.00000     0.00000
 Structure written by MMmdl.
 36 37  0  0  0  0  0  0  0  0  1 V2000
  143.5663  145.1166  154.3636 O   0  0  0  0  0  0  0  0  0  0  0  0
  144.4934  144.3239  154.5178 C   0  0  0  0  0  0  0  0  0  0  0  0
  144.5948  143.5944  155.7063 N   0  0  0  0  0  0  0  0  0  0  0  0
  145.5924  142.6662  156.0070 C   0  0  0  0  0  0  0  0  0  0  0  0
  145.5869  142.0887  157.0943 O   0  0  0  0  0  0  0  0  0  0  0  0
  146.5757  142.4446  155.0152 N   0  0  0  0  0  0  0  0  0  0  0  0
  147.6272  141.4979  155.3008 C   0  0  0  0  0  0  0  0  0  0  0  0
  148.9977  141.9104  154.7183 C   0  0  2  0  0  0  0  0  0  0  0  0
  149.0949  141.3737  153.4131 O   0  0  0  0  0  0  0  0  0  0  0  0
  150.1620  141.3304  155.5388 C   0  0  0  0  0  0  0  0  0  0  0  0
  150.1738  141.9327  156.8227 O   0  0  0  0  0  0  0  0  0  0  0  0
  151.1328  142.9725  156.9341 C   0  0  0  0  0  0  0  0  0  0  0  0
  151.6516  143.1257  158.3517 C   0  0  0  0  0  0  0  0  0  0  0  0
  152.2798  142.0441  159.0060 C   0  0  0  0  0  0  0  0  0  0  0  0
  152.7436  142.1882  160.3281 C   0  0  0  0  0  0  0  0  0  0  0  0
  152.5749  143.4118  161.0051 C   0  0  0  0  0  0  0  0  0  0  0  0
  153.1428  143.5885  162.6248 Cl  0  0  0  0  0  0  0  0  0  0  0  0
  151.9392  144.4903  160.3597 C   0  0  0  0  0  0  0  0  0  0  0  0
  151.4759  144.3463  159.0373 C   0  0  0  0  0  0  0  0  0  0  0  0
  146.5193  143.1522  153.8244 C   0  0  0  0  0  0  0  0  0  0  0  0
  145.5493  144.0552  153.5422 C   0  0  0  0  0  0  0  0  0  0  0  0
  145.5475  144.8983  152.0344 Cl  0  0  0  0  0  0  0  0  0  0  0  0
  143.8874  143.7556  156.4085 H   0  0  0  0  0  0  0  0  0  0  0  0
  147.6572  141.3873  156.3870 H   0  0  0  0  0  0  0  0  0  0  0  0
  147.2952  140.5310  154.9177 H   0  0  0  0  0  0  0  0  0  0  0  0
  149.0862  142.9970  154.6796 H   0  0  0  0  0  0  0  0  0  0  0  0
  148.3477  140.8159  153.2611 H   0  0  0  0  0  0  0  0  0  0  0  0
  150.0199  140.2569  155.6727 H   0  0  0  0  0  0  0  0  0  0  0  0
  151.1147  141.4670  155.0237 H   0  0  0  0  0  0  0  0  0  0  0  0
  151.9701  142.7715  156.2638 H   0  0  0  0  0  0  0  0  0  0  0  0
  150.6904  143.9216  156.6277 H   0  0  0  0  0  0  0  0  0  0  0  0
  152.4093  141.0999  158.4974 H   0  0  0  0  0  0  0  0  0  0  0  0
  153.2275  141.3583  160.8222 H   0  0  0  0  0  0  0  0  0  0  0  0
  151.8047  145.4286  160.8774 H   0  0  0  0  0  0  0  0  0  0  0  0
  150.9861  145.1770  158.5508 H   0  0  0  0  0  0  0  0  0  0  0  0
  147.2867  142.9800  153.0831 H   0  0  0  0  0  0  0  0  0  0  0  0
  1  2  2  0  0  0  0
  2 21  1  0  0  0  0
  2  3  1  0  0  0  0
  3 23  1  0  0  0  0
  3  4  1  0  0  0  0
  4  5  2  0  0  0  0
  4  6  1  0  0  0  0
  6  7  1  0  0  0  0
  6 20  1  0  0  0  0
  7  8  1  0  0  0  0
  7 24  1  0  0  0  0
  7 25  1  0  0  0  0
  8  9  1  0  0  0  0
  8 10  1  0  0  0  0
  8 26  1  0  0  0  0
  9 27  1  0  0  0  0
 10 11  1  0  0  0  0
 10 28  1  0  0  0  0
 10 29  1  0  0  0  0
 11 12  1  0  0  0  0
 12 13  1  0  0  0  0
 12 30  1  0  0  0  0
 12 31  1  0  0  0  0
 13 19  1  0  0  0  0
 13 14  2  0  0  0  0
 14 15  1  0  0  0  0
 14 32  1  0  0  0  0
 15 16  2  0  0  0  0
 15 33  1  0  0  0  0
 16 17  1  0  0  0  0
 16 18  1  0  0  0  0
 18 19  2  0  0  0  0
 18 34  1  0  0  0  0
 19 35  1  0  0  0  0
 20 21  2  0  0  0  0
 20 36  1  0  0  0  0
 21 22  1  0  0  0  0
M  END
> <s_m_source_file>
AV-unprocessed.smi

> <i_m_source_file_index>
688

> <i_lp_mmshare_version>
43012

> <i_f3d_flags>
0

> <s_epik_input>
Tz1jMVtuSF1jKD1PKW4oW2NIXWMxQ2wpW0NIMl1bQ0BIXShbT0hdKVtDSDJdT1tDSDJdYzJbY0hdW2NIXWMoQ2wpW2NIXVtjSF0y

> <s_epik_cmdline>
J2VwaWtfcHl0aG9uJywgJy1waCcsICc3LjAnLCAnLXRuJywgJzgnLCAnLW1hJywgJzIwMCcsICctbWV0YWxfYmluZGluZycsICctaW1hZScsICc8aW5maWxlLm1hZT4nLCAnLW9tYWUnLCAnPG91dGZpbGUubWFlPic=

> <r_lp_tautomer_probability>
0.999537

> <r_epik_Ionization_Penalty>
0.0280571

> <r_epik_Ionization_Penalty_Charging>
0.028057

> <r_epik_Ionization_Penalty_Neutral>
6.25502e-08

> <r_epik_State_Penalty>
0.0230008

> <r_epik_Charging_Adjusted_Penalty>
0.0510579

> <i_epik_Tot_Q>
0

> <i_epik_Tot_abs_Q>
0

> <r_epik_Metal_State_Penalty>
2.1942

> <b_epik_Metal_Only>
0

> <s_lp_Force_Field>
OPLS_2005

> <r_lp_Energy>
17.1949

> <b_lp_Chiralities_Consistent>
1

> <s_lp_Variant>
AV-unprocessed.smi:688-1

> <Gold.Version>
5.8.1

> <Gold.Id.Protein>
6NUR|6NUR_protein|mol2

> <Gold.PLP.Fitness>
53.3522

> <Gold.PLP.PLP>
-52.6978

> <Gold.PLP.part.hbond>
-3.0000

> <Gold.PLP.part.metal>
0.0000

> <Gold.PLP.part.buried>
-5.1538

> <Gold.PLP.part.nonpolar>
-43.6986

> <Gold.PLP.part.repulsive>
0.1718

> <Gold.PLP.ligand.clash>
0.0000

> <Gold.PLP.ligand.torsion>
1.1669

> <Gold.PLP.Chemscore.Hbond>
0.9440

> <Gold.PLP.Chemscore.CHOScore>
0.0000

> <Gold.PLP.Chemscore.Metal>
0.0000

> <Gold.Chemscore.Hbonds>
donor molecule, donor type, donor heavy atom, donor atom, acceptor molecule, acceptor atom, score
      P1  H  8011  8017       L1     9  0.94

> <Gold.PLP.Chemscore.Internal.Correction>
0.1562

> <Gold.Rescore>
     Score         DG    S(hbond)    S(metal)    S(lipo)     H(rot)  DE(clash)    DE(int)     intcor
     14.36     -15.67       1.07        0.00     120.98       2.94       0.14       1.16       ----

> <Gold.Chemscore.Fitness>
14.3632

> <Gold.Chemscore.DG>
-15.6671

> <Gold.Chemscore.ZeroCoef>
-5.4800

> <Gold.Chemscore.Hbond>
1.0679

> <Gold.Chemscore.Metal>
0.0000

> <Gold.Chemscore.Lipo>
120.9759

> <Gold.Chemscore.Internal_Hbond>
0.0000

> <Gold.Chemscore.DEClash>
0.1397

> <Gold.Chemscore.DEInternal>
1.1642

> <Gold.Chemscore.Rot>
2.9429

> <Gold.Chemscore.Internal.Correction>
   9.000000E+99

> <Gold.Chemscore.Hbonds>
donor molecule, donor type, donor heavy atom, donor atom, acceptor molecule, acceptor atom, score
      P1  H  8011  8017       L1     9  0.77

> <Gold.Chemscore.Hbond.Weighted>
-3.5666

> <Gold.Chemscore.Metal.Weighted>
-0.0000

> <Gold.Chemscore.Lipo.Weighted>
-14.1542

> <Gold.Chemscore.Internal_Hbond.Weighted>
0.0000

> <Gold.Chemscore.DEClash.Weighted>
0.1397

> <Gold.Chemscore.DEInternal.Weighted>
1.1642

> <Gold.Chemscore.Rot.Weighted>
7.5337

> <Gold.Chemscore.Internal.Correction.Weighted>
   9.000000E+99

> <Gold.Protein.RotatedTorsions>
[ 6907 6896 6895 6894 ] final  116.28 input  -60.11 | X-H torsion
[ 7974 7965 7964 7962 ] final   23.86 input  175.53 | X-H torsion
[ 8008 7997 7996 7995 ] final   32.72 input   59.86 | X-H torsion
[ 10167 10162 10161 10158 ] final  -33.03 input  -65.29 | X-H torsion
[ 10718 10713 10712 10709 ] final  -87.39 input   66.30 | X-H torsion
[ 10763 10752 10751 10750 ] final    8.04 input  -60.55 | X-H torsion
[ 11005 11000 10999 10996 ] final -172.35 input  -57.11 | X-H torsion

> <Gold.Protein.ActiveResidues>
 VAL166  LYS551  ARG553  GLY616  TRP617  ASP618  TYR619  PRO620  LYS621  CYS622 
 ASP623  PHE694  ASN695  SER759  ASP760  ASP761  ALA762  ILE779  LEU786  VAL792 
 PHE793  MET794  SER795  GLU796  ALA797  LYS798  CYS799  TRP800  GLU811  SER814 

> <Gold.Protein.RotatedAtoms>
  152.4688  133.7983  159.6938 H   0  0  0  0  0  0  0  0  0  0  0  0  # atno 6907 bound_to 6896
  150.8666  133.7555  159.2981 H   0  0  0  0  0  0  0  0  0  0  0  0  # atno 6908 bound_to 6896
  151.5104  135.1068  159.9904 H   0  0  0  0  0  0  0  0  0  0  0  0  # atno 6909 bound_to 6896
  146.1964  139.7685  142.8794 H   0  0  0  0  0  0  0  0  0  0  0  0  # atno 7974 bound_to 7965
  155.1270  140.3253  155.4483 H   0  0  0  0  0  0  0  0  0  0  0  0  # atno 8008 bound_to 7997
  156.2646  140.2017  156.6339 H   0  0  0  0  0  0  0  0  0  0  0  0  # atno 8009 bound_to 7997
  154.6641  140.0544  157.0081 H   0  0  0  0  0  0  0  0  0  0  0  0  # atno 8010 bound_to 7997
  140.7211  143.3651  151.1887 H   0  0  0  0  0  0  0  0  0  0  0  0  # atno 10167 bound_to 10162
  155.9985  130.4798  150.4860 H   0  0  0  0  0  0  0  0  0  0  0  0  # atno 10718 bound_to 10713
  153.2295  135.6891  153.7906 H   0  0  0  0  0  0  0  0  0  0  0  0  # atno 10763 bound_to 10752
  153.7076  135.3287  155.3240 H   0  0  0  0  0  0  0  0  0  0  0  0  # atno 10764 bound_to 10752
  154.8307  135.4583  154.1174 H   0  0  0  0  0  0  0  0  0  0  0  0  # atno 10765 bound_to 10752
  140.4979  134.5922  157.4977 H   0  0  0  0  0  0  0  0  0  0  0  0  # atno 11005 bound_to 11000
  145.3628  141.0329  143.3275 LP  0  0  0  0  0  0  0  0  0  0  0  0  # atno 17320 bound_to 7965
  144.8590  139.5205  143.6821 LP  0  0  0  0  0  0  0  0  0  0  0  0  # atno 17321 bound_to 7965
  139.7210  143.9223  152.2985 LP  0  0  0  0  0  0  0  0  0  0  0  0  # atno 17342 bound_to 10162
  139.8980  144.6928  150.8697 LP  0  0  0  0  0  0  0  0  0  0  0  0  # atno 17343 bound_to 10162
  157.2860  131.0616  151.2165 LP  0  0  0  0  0  0  0  0  0  0  0  0  # atno 17370 bound_to 10713
  157.3195  130.6930  149.6261 LP  0  0  0  0  0  0  0  0  0  0  0  0  # atno 17371 bound_to 10713
  139.9730  134.7261  156.0003 LP  0  0  0  0  0  0  0  0  0  0  0  0  # atno 17394 bound_to 11000
  141.1450  133.6557  156.3842 LP  0  0  0  0  0  0  0  0  0  0  0  0  # atno 17395 bound_to 11000

$$$$
