AV-unprocessed.smi:2603|AV-procd|sdf|10185|dock3
  -GOLD-   2272014203D 1   1.00000     0.00000
 Structure written by MMmdl.
 35 36  0  0  0  0  0  0  0  0  1 V2000
  151.4092  144.5279  157.9231 C   0  0  0  0  0  0  0  0  0  0  0  0
  150.9078  145.2465  159.1779 C   0  0  0  0  0  0  0  0  0  0  0  0
  151.7070  144.8584  160.2814 O   0  0  0  0  0  0  0  0  0  0  0  0
  151.6059  143.4720  160.5497 C   0  0  2  0  0  0  0  0  0  0  0  0
  152.6817  142.9431  161.4560 C   0  0  0  0  0  0  0  0  0  0  0  0
  152.7555  142.6885  159.9608 C   0  0  1  0  0  0  0  0  0  0  0  0
  152.4810  141.3669  159.5003 N   0  0  0  0  0  0  0  0  0  0  0  0
  151.4781  141.0175  158.6812 C   0  0  0  0  0  0  0  0  0  0  0  0
  150.6579  141.8144  158.2256 O   0  0  0  0  0  0  0  0  0  0  0  0
  151.3904  139.5371  158.3115 C   0  0  0  0  0  0  0  0  0  0  0  0
  151.6871  139.3635  156.8443 C   0  0  0  0  0  0  0  0  0  0  0  0
  152.6892  138.5537  156.2351 C   0  0  0  0  0  0  0  0  0  0  0  0
  153.7108  137.6712  156.8933 C   0  0  0  0  0  0  0  0  0  0  0  0
  152.6668  138.6488  154.9164 N   0  0  0  0  0  0  0  0  0  0  0  0
  151.6310  139.5377  154.6135 O   0  0  0  0  0  0  0  0  0  0  0  0
  151.0652  139.9496  155.7765 C   0  0  0  0  0  0  0  0  0  0  0  0
  149.9359  140.9176  155.6689 C   0  0  0  0  0  0  0  0  0  0  0  0
  150.8112  144.7999  157.0533 H   0  0  0  0  0  0  0  0  0  0  0  0
  151.3532  143.4457  158.0427 H   0  0  0  0  0  0  0  0  0  0  0  0
  152.4462  144.7895  157.7112 H   0  0  0  0  0  0  0  0  0  0  0  0
  150.9617  146.3270  159.0359 H   0  0  0  0  0  0  0  0  0  0  0  0
  149.8639  144.9888  159.3630 H   0  0  0  0  0  0  0  0  0  0  0  0
  150.6032  143.0468  160.5510 H   0  0  0  0  0  0  0  0  0  0  0  0
  153.3840  143.6589  161.8791 H   0  0  0  0  0  0  0  0  0  0  0  0
  152.4262  142.1055  162.1021 H   0  0  0  0  0  0  0  0  0  0  0  0
  153.5023  143.2630  159.4142 H   0  0  0  0  0  0  0  0  0  0  0  0
  153.1021  140.6380  159.8200 H   0  0  0  0  0  0  0  0  0  0  0  0
  152.0823  138.9642  158.9302 H   0  0  0  0  0  0  0  0  0  0  0  0
  150.3936  139.1717  158.5610 H   0  0  0  0  0  0  0  0  0  0  0  0
  154.6085  138.2366  157.1438 H   0  0  0  0  0  0  0  0  0  0  0  0
  154.0065  136.8468  156.2435 H   0  0  0  0  0  0  0  0  0  0  0  0
  153.3228  137.2385  157.8154 H   0  0  0  0  0  0  0  0  0  0  0  0
  150.2223  141.8880  156.0741 H   0  0  0  0  0  0  0  0  0  0  0  0
  149.0683  140.5620  156.2248 H   0  0  0  0  0  0  0  0  0  0  0  0
  149.6361  141.0599  154.6302 H   0  0  0  0  0  0  0  0  0  0  0  0
  1  2  1  0  0  0  0
  1 18  1  0  0  0  0
  1 19  1  0  0  0  0
  1 20  1  0  0  0  0
  2  3  1  0  0  0  0
  2 21  1  0  0  0  0
  2 22  1  0  0  0  0
  3  4  1  0  0  0  0
  4  6  1  0  0  0  0
  4  5  1  0  0  0  0
  4 23  1  0  0  0  0
  5  6  1  0  0  0  0
  5 24  1  0  0  0  0
  5 25  1  0  0  0  0
  6  7  1  0  0  0  0
  6 26  1  0  0  0  0
  7  8  1  0  0  0  0
  7 27  1  0  0  0  0
  8  9  2  0  0  0  0
  8 10  1  0  0  0  0
 10 11  1  0  0  0  0
 10 28  1  0  0  0  0
 10 29  1  0  0  0  0
 11 16  2  0  0  0  0
 11 12  1  0  0  0  0
 12 13  1  0  0  0  0
 12 14  2  0  0  0  0
 13 30  1  0  0  0  0
 13 31  1  0  0  0  0
 13 32  1  0  0  0  0
 14 15  1  0  0  0  0
 15 16  1  0  0  0  0
 16 17  1  0  0  0  0
 17 33  1  0  0  0  0
 17 34  1  0  0  0  0
 17 35  1  0  0  0  0
M  END
> <s_m_source_file>
AV-unprocessed.smi

> <i_m_source_file_index>
2603

> <i_lp_mmshare_version>
43012

> <i_f3d_flags>
0

> <s_epik_input>
W0NIM11bQ0gyXU9bQ0BASF0xW0NIMl1bQ0BIXTFbTkhdQyg9TylbQ0gyXWMyYyhbQ0gzXSlub2MyW0NIM10=

> <s_epik_cmdline>
J2VwaWtfcHl0aG9uJywgJy1waCcsICc3LjAnLCAnLXRuJywgJzgnLCAnLW1hJywgJzIwMCcsICctbWV0YWxfYmluZGluZycsICctaW1hZScsICc8aW5maWxlLm1hZT4nLCAnLW9tYWUnLCAnPG91dGZpbGUubWFlPic=

> <r_lp_tautomer_probability>
1

> <r_epik_Ionization_Penalty>
2.37325e-08

> <r_epik_Ionization_Penalty_Charging>
0

> <r_epik_Ionization_Penalty_Neutral>
2.37325e-08

> <r_epik_State_Penalty>
-0

> <r_epik_Charging_Adjusted_Penalty>
0

> <i_epik_Tot_Q>
0

> <i_epik_Tot_abs_Q>
0

> <r_epik_Metal_State_Penalty>
-0

> <b_epik_Metal_Only>
0

> <s_lp_Force_Field>
OPLS_2005

> <r_lp_Energy>
10.4269

> <b_lp_Chiralities_Consistent>
1

> <s_lp_Variant>
AV-unprocessed.smi:2603-1

> <Gold.Version>
5.8.1

> <Gold.Id.Protein>
6NUR|6NUR_protein|mol2

> <Gold.PLP.Fitness>
38.8563

> <Gold.PLP.PLP>
-36.0579

> <Gold.PLP.part.hbond>
-1.0000

> <Gold.PLP.part.metal>
0.0000

> <Gold.PLP.part.buried>
-3.8045

> <Gold.PLP.part.nonpolar>
-30.8911

> <Gold.PLP.part.repulsive>
0.3478

> <Gold.PLP.ligand.clash>
0.0000

> <Gold.PLP.ligand.torsion>
0.4327

> <Gold.PLP.Chemscore.Hbond>
0.9920

> <Gold.PLP.Chemscore.CHOScore>
0.0000

> <Gold.PLP.Chemscore.Metal>
0.0000

> <Gold.Chemscore.Hbonds>
donor molecule, donor type, donor heavy atom, donor atom, acceptor molecule, acceptor atom, score
      P1  H  7989  7998       L1    15  1.00

> <Gold.PLP.Chemscore.Internal.Correction>
0.6877

> <Gold.Rescore>
     Score         DG    S(hbond)    S(metal)    S(lipo)     H(rot)  DE(clash)    DE(int)     intcor
     10.49     -12.45       0.01        0.00      96.44       1.69       0.32       1.64       ----

> <Gold.Chemscore.Fitness>
10.4897

> <Gold.Chemscore.DG>
-12.4496

> <Gold.Chemscore.ZeroCoef>
-5.4800

> <Gold.Chemscore.Hbond>
0.0064

> <Gold.Chemscore.Metal>
0.0000

> <Gold.Chemscore.Lipo>
96.4358

> <Gold.Chemscore.Internal_Hbond>
0.0000

> <Gold.Chemscore.DEClash>
0.3161

> <Gold.Chemscore.DEInternal>
1.6438

> <Gold.Chemscore.Rot>
1.6933

> <Gold.Chemscore.Internal.Correction>
   9.000000E+99

> <Gold.Chemscore.Hbonds>
donor molecule, donor type, donor heavy atom, donor atom, acceptor molecule, acceptor atom, score
      P1  H  7989  7998       L1    15  0.69

> <Gold.Chemscore.Hbond.Weighted>
-0.0213

> <Gold.Chemscore.Metal.Weighted>
-0.0000

> <Gold.Chemscore.Lipo.Weighted>
-11.2830

> <Gold.Chemscore.Internal_Hbond.Weighted>
0.0000

> <Gold.Chemscore.DEClash.Weighted>
0.3161

> <Gold.Chemscore.DEInternal.Weighted>
1.6438

> <Gold.Chemscore.Rot.Weighted>
4.3348

> <Gold.Chemscore.Internal.Correction.Weighted>
   9.000000E+99

> <Gold.Protein.RotatedTorsions>
[ 6907 6896 6895 6894 ] final -136.17 input  -60.11 | X-H torsion
[ 7974 7965 7964 7962 ] final   83.16 input  175.53 | X-H torsion
[ 8008 7997 7996 7995 ] final   65.21 input   59.86 | X-H torsion
[ 10167 10162 10161 10158 ] final   26.92 input  -65.29 | X-H torsion
[ 10718 10713 10712 10709 ] final -156.14 input   66.30 | X-H torsion
[ 10763 10752 10751 10750 ] final   72.91 input  -60.55 | X-H torsion
[ 11005 11000 10999 10996 ] final   35.35 input  -57.11 | X-H torsion

> <Gold.Protein.ActiveResidues>
 VAL166  LYS551  ARG553  GLY616  TRP617  ASP618  TYR619  PRO620  LYS621  CYS622 
 ASP623  PHE694  ASN695  SER759  ASP760  ASP761  ALA762  ILE779  LEU786  VAL792 
 PHE793  MET794  SER795  GLU796  ALA797  LYS798  CYS799  TRP800  GLU811  SER814 

> <Gold.Protein.RotatedAtoms>
  151.0068  133.6003  159.2687 H   0  0  0  0  0  0  0  0  0  0  0  0  # atno 6907 bound_to 6896
  151.3169  135.0808  159.9302 H   0  0  0  0  0  0  0  0  0  0  0  0  # atno 6908 bound_to 6896
  152.5289  133.9722  159.7822 H   0  0  0  0  0  0  0  0  0  0  0  0  # atno 6909 bound_to 6896
  145.6155  139.2376  143.2168 H   0  0  0  0  0  0  0  0  0  0  0  0  # atno 7974 bound_to 7965
  155.6582  140.3497  155.4773 H   0  0  0  0  0  0  0  0  0  0  0  0  # atno 8008 bound_to 7997
  155.9791  140.1171  157.0766 H   0  0  0  0  0  0  0  0  0  0  0  0  # atno 8009 bound_to 7997
  154.4186  140.1142  156.5397 H   0  0  0  0  0  0  0  0  0  0  0  0  # atno 8010 bound_to 7997
  140.4982  144.0358  150.6322 H   0  0  0  0  0  0  0  0  0  0  0  0  # atno 10167 bound_to 10162
  156.5225  130.8484  151.2687 H   0  0  0  0  0  0  0  0  0  0  0  0  # atno 10718 bound_to 10713
  153.0488  135.5082  154.7815 H   0  0  0  0  0  0  0  0  0  0  0  0  # atno 10763 bound_to 10752
  154.6693  135.2950  154.9765 H   0  0  0  0  0  0  0  0  0  0  0  0  # atno 10764 bound_to 10752
  154.0589  135.6693  153.4862 H   0  0  0  0  0  0  0  0  0  0  0  0  # atno 10765 bound_to 10752
  140.2435  134.3387  155.7916 H   0  0  0  0  0  0  0  0  0  0  0  0  # atno 11005 bound_to 11000
  146.1471  140.6977  142.9339 LP  0  0  0  0  0  0  0  0  0  0  0  0  # atno 17320 bound_to 7965
  144.7252  140.4502  143.6978 LP  0  0  0  0  0  0  0  0  0  0  0  0  # atno 17321 bound_to 7965
  140.3646  143.2888  152.0346 LP  0  0  0  0  0  0  0  0  0  0  0  0  # atno 17342 bound_to 10162
  139.4866  144.6277  151.7133 LP  0  0  0  0  0  0  0  0  0  0  0  0  # atno 17343 bound_to 10162
  157.7434  130.9912  150.2594 LP  0  0  0  0  0  0  0  0  0  0  0  0  # atno 17370 bound_to 10713
  156.3136  130.3775  149.7639 LP  0  0  0  0  0  0  0  0  0  0  0  0  # atno 17371 bound_to 10713
  141.2208  133.7312  156.8923 LP  0  0  0  0  0  0  0  0  0  0  0  0  # atno 17394 bound_to 11000
  140.1629  134.9153  157.2737 LP  0  0  0  0  0  0  0  0  0  0  0  0  # atno 17395 bound_to 11000

$$$$
