AV-unprocessed.smi:1442|AV-procd|sdf|5876|dock4
  -GOLD-   22720 5553D 1   1.00000     0.00000
 Structure written by MMmdl.
 44 45  0  0  0  0  0  0  0  0  1 V2000
  145.8818  129.3884  152.0675 C   0  0  0  0  0  0  0  0  0  0  0  0
  145.4351  130.6787  151.5651 N   0  0  0  0  0  0  0  0  0  0  0  0
  145.7058  131.8531  152.1528 C   0  0  0  0  0  0  0  0  0  0  0  0
  146.3685  131.9513  153.1862 O   0  0  0  0  0  0  0  0  0  0  0  0
  145.1441  133.1073  151.4697 C   0  0  0  0  0  0  0  0  0  0  0  0
  146.2811  134.0691  151.0494 C   0  0  0  0  0  0  0  0  0  0  0  0
  145.7133  135.3857  150.4894 C   0  0  0  0  0  0  0  0  0  0  0  0
  144.8417  135.9938  151.5093 N   0  0  0  0  0  0  0  0  0  0  0  0
  145.1481  137.0561  152.2969 C   0  0  0  0  0  0  0  0  0  0  0  0
  144.3606  137.5433  153.1092 O   0  0  0  0  0  0  0  0  0  0  0  0
  146.3820  137.5557  152.1124 N   0  0  0  0  0  0  0  0  0  0  0  0
  146.9569  138.6752  152.8482 C   0  0  0  0  0  0  0  0  0  0  0  0
  147.6047  138.2115  154.1631 C   0  0  0  0  0  0  0  0  0  0  0  0
  149.0042  138.7398  154.3056 C   0  0  0  0  0  0  0  0  0  0  0  0
  149.4247  140.1000  154.3455 C   0  0  0  0  0  0  0  0  0  0  0  0
  150.7348  140.2302  154.4766 N   0  0  0  0  0  0  0  0  0  0  0  0
  151.1944  138.9631  154.5289 N   0  0  0  0  0  0  0  0  0  0  0  0
  152.6146  138.7243  154.6728 C   0  0  0  0  0  0  0  0  0  0  0  0
  150.1732  138.0430  154.4278 C   0  0  0  0  0  0  0  0  0  0  0  0
  143.6617  135.1576  151.7600 C   0  0  0  0  0  0  0  0  0  0  0  0
  144.1217  133.8262  152.3819 C   0  0  0  0  0  0  0  0  0  0  0  0
  145.5075  128.5901  151.4265 H   0  0  0  0  0  0  0  0  0  0  0  0
  145.5121  129.2152  153.0789 H   0  0  0  0  0  0  0  0  0  0  0  0
  146.9712  129.3330  152.0799 H   0  0  0  0  0  0  0  0  0  0  0  0
  144.8846  130.6803  150.7184 H   0  0  0  0  0  0  0  0  0  0  0  0
  144.6190  132.8011  150.5630 H   0  0  0  0  0  0  0  0  0  0  0  0
  146.9263  134.2936  151.9005 H   0  0  0  0  0  0  0  0  0  0  0  0
  146.9141  133.5939  150.2989 H   0  0  0  0  0  0  0  0  0  0  0  0
  146.5283  136.0304  150.1608 H   0  0  0  0  0  0  0  0  0  0  0  0
  145.1276  135.1848  149.5911 H   0  0  0  0  0  0  0  0  0  0  0  0
  146.9705  137.1150  151.4207 H   0  0  0  0  0  0  0  0  0  0  0  0
  147.7060  139.1469  152.2114 H   0  0  0  0  0  0  0  0  0  0  0  0
  146.1916  139.4296  153.0397 H   0  0  0  0  0  0  0  0  0  0  0  0
  146.9938  138.5363  155.0061 H   0  0  0  0  0  0  0  0  0  0  0  0
  147.6021  137.1213  154.1995 H   0  0  0  0  0  0  0  0  0  0  0  0
  148.8183  140.9915  154.2802 H   0  0  0  0  0  0  0  0  0  0  0  0
  152.7978  137.6672  154.8668 H   0  0  0  0  0  0  0  0  0  0  0  0
  153.0076  139.3097  155.5047 H   0  0  0  0  0  0  0  0  0  0  0  0
  153.1302  139.0123  153.7563 H   0  0  0  0  0  0  0  0  0  0  0  0
  150.3597  136.9792  154.4505 H   0  0  0  0  0  0  0  0  0  0  0  0
  142.9329  135.6417  152.4116 H   0  0  0  0  0  0  0  0  0  0  0  0
  143.1391  134.9737  150.8201 H   0  0  0  0  0  0  0  0  0  0  0  0
  143.2571  133.1838  152.5539 H   0  0  0  0  0  0  0  0  0  0  0  0
  144.5590  134.0233  153.3624 H   0  0  0  0  0  0  0  0  0  0  0  0
  1  2  1  0  0  0  0
  1 22  1  0  0  0  0
  1 23  1  0  0  0  0
  1 24  1  0  0  0  0
  2  3  1  0  0  0  0
  2 25  1  0  0  0  0
  3  4  2  0  0  0  0
  3  5  1  0  0  0  0
  5 21  1  0  0  0  0
  5  6  1  0  0  0  0
  5 26  1  0  0  0  0
  6  7  1  0  0  0  0
  6 27  1  0  0  0  0
  6 28  1  0  0  0  0
  7  8  1  0  0  0  0
  7 29  1  0  0  0  0
  7 30  1  0  0  0  0
  8  9  1  0  0  0  0
  8 20  1  0  0  0  0
  9 10  2  0  0  0  0
  9 11  1  0  0  0  0
 11 12  1  0  0  0  0
 11 31  1  0  0  0  0
 12 13  1  0  0  0  0
 12 32  1  0  0  0  0
 12 33  1  0  0  0  0
 13 14  1  0  0  0  0
 13 34  1  0  0  0  0
 13 35  1  0  0  0  0
 14 19  2  0  0  0  0
 14 15  1  0  0  0  0
 15 16  2  0  0  0  0
 15 36  1  0  0  0  0
 16 17  1  0  0  0  0
 17 18  1  0  0  0  0
 17 19  1  0  0  0  0
 18 37  1  0  0  0  0
 18 38  1  0  0  0  0
 18 39  1  0  0  0  0
 19 40  1  0  0  0  0
 20 21  1  0  0  0  0
 20 41  1  0  0  0  0
 20 42  1  0  0  0  0
 21 43  1  0  0  0  0
 21 44  1  0  0  0  0
M  END
> <s_m_source_file>
AV-unprocessed.smi

> <i_m_source_file_index>
1442

> <i_lp_mmshare_version>
43012

> <i_f3d_flags>
0

> <s_epik_input>
W0NIM11bTkhdQyg9TylbQ0hdMVtDSDJdW0NIMl1OKFtDSDJdW0NIMl0xKUMoPU8pW05IXVtDSDJdW0NIMl1jMltjSF1ubihbQ0gzXSlbY0hdMg==

> <s_epik_cmdline>
J2VwaWtfcHl0aG9uJywgJy1waCcsICc3LjAnLCAnLXRuJywgJzgnLCAnLW1hJywgJzIwMCcsICctbWV0YWxfYmluZGluZycsICctaW1hZScsICc8aW5maWxlLm1hZT4nLCAnLW9tYWUnLCAnPG91dGZpbGUubWFlPic=

> <r_lp_tautomer_probability>
1

> <r_epik_Ionization_Penalty>
0.000562975

> <r_epik_Ionization_Penalty_Charging>
0

> <r_epik_Ionization_Penalty_Neutral>
0.000562975

> <r_epik_State_Penalty>
-0

> <r_epik_Charging_Adjusted_Penalty>
0

> <i_epik_Tot_Q>
0

> <i_epik_Tot_abs_Q>
0

> <r_epik_Metal_State_Penalty>
-0

> <b_epik_Metal_Only>
0

> <s_lp_Force_Field>
OPLS_2005

> <r_lp_Energy>
25.7174

> <b_lp_Chiralities_Consistent>
1

> <s_lp_Variant>
AV-unprocessed.smi:1442-1

> <Gold.Version>
5.8.1

> <Gold.Id.Protein>
6NUR|6NUR_protein|mol2

> <Gold.PLP.Fitness>
40.3422

> <Gold.PLP.PLP>
-37.4050

> <Gold.PLP.part.hbond>
-1.9748

> <Gold.PLP.part.metal>
0.0000

> <Gold.PLP.part.buried>
-5.1685

> <Gold.PLP.part.nonpolar>
-31.2339

> <Gold.PLP.part.repulsive>
0.5831

> <Gold.PLP.ligand.clash>
0.0000

> <Gold.PLP.ligand.torsion>
0.5840

> <Gold.PLP.Chemscore.Hbond>
1.3432

> <Gold.PLP.Chemscore.CHOScore>
0.0000

> <Gold.PLP.Chemscore.Metal>
0.0000

> <Gold.Chemscore.Hbonds>
donor molecule, donor type, donor heavy atom, donor atom, acceptor molecule, acceptor atom, score
      L1  H    11    31       P1  7948  0.32
      P1  H  7989  7998       L1    16  0.86

> <Gold.PLP.Chemscore.Internal.Correction>
0.0756

> <Gold.Rescore>
     Score         DG    S(hbond)    S(metal)    S(lipo)     H(rot)  DE(clash)    DE(int)     intcor
     13.21     -14.47       1.38        0.00      76.03       1.77       0.55       0.70       ----

> <Gold.Chemscore.Fitness>
13.2133

> <Gold.Chemscore.DG>
-14.4676

> <Gold.Chemscore.ZeroCoef>
-5.4800

> <Gold.Chemscore.Hbond>
1.3812

> <Gold.Chemscore.Metal>
0.0000

> <Gold.Chemscore.Lipo>
76.0312

> <Gold.Chemscore.Internal_Hbond>
0.0000

> <Gold.Chemscore.DEClash>
0.5513

> <Gold.Chemscore.DEInternal>
0.7030

> <Gold.Chemscore.Rot>
1.7661

> <Gold.Chemscore.Internal.Correction>
   9.000000E+99

> <Gold.Chemscore.Hbonds>
donor molecule, donor type, donor heavy atom, donor atom, acceptor molecule, acceptor atom, score
      L1  H    11    31       P1  7948  0.33
      P1  H  7989  7998       L1    16  0.33

> <Gold.Chemscore.Hbond.Weighted>
-4.6131

> <Gold.Chemscore.Metal.Weighted>
-0.0000

> <Gold.Chemscore.Lipo.Weighted>
-8.8957

> <Gold.Chemscore.Internal_Hbond.Weighted>
0.0000

> <Gold.Chemscore.DEClash.Weighted>
0.5513

> <Gold.Chemscore.DEInternal.Weighted>
0.7030

> <Gold.Chemscore.Rot.Weighted>
4.5211

> <Gold.Chemscore.Internal.Correction.Weighted>
   9.000000E+99

> <Gold.Protein.RotatedTorsions>
[ 6907 6896 6895 6894 ] final  -95.67 input  -60.11 | X-H torsion
[ 7974 7965 7964 7962 ] final -171.08 input  175.53 | X-H torsion
[ 8008 7997 7996 7995 ] final  112.72 input   59.86 | X-H torsion
[ 10167 10162 10161 10158 ] final  163.24 input  -65.29 | X-H torsion
[ 10718 10713 10712 10709 ] final -111.02 input   66.30 | X-H torsion
[ 10763 10752 10751 10750 ] final -111.92 input  -60.55 | X-H torsion
[ 11005 11000 10999 10996 ] final  166.38 input  -57.11 | X-H torsion

> <Gold.Protein.ActiveResidues>
 VAL166  LYS551  ARG553  GLY616  TRP617  ASP618  TYR619  PRO620  LYS621  CYS622 
 ASP623  PHE694  ASN695  SER759  ASP760  ASP761  ALA762  ILE779  LEU786  VAL792 
 PHE793  MET794  SER795  GLU796  ALA797  LYS798  CYS799  TRP800  GLU811  SER814 

> <Gold.Protein.RotatedAtoms>
  150.6969  134.1622  159.4180 H   0  0  0  0  0  0  0  0  0  0  0  0  # atno 6907 bound_to 6896
  151.9602  135.0125  160.0556 H   0  0  0  0  0  0  0  0  0  0  0  0  # atno 6908 bound_to 6896
  152.1933  133.4754  159.5056 H   0  0  0  0  0  0  0  0  0  0  0  0  # atno 6909 bound_to 6896
  144.7161  140.1976  143.6342 H   0  0  0  0  0  0  0  0  0  0  0  0  # atno 7974 bound_to 7965
  156.2211  140.2994  155.9954 H   0  0  0  0  0  0  0  0  0  0  0  0  # atno 8008 bound_to 7997
  155.2479  140.0425  157.3000 H   0  0  0  0  0  0  0  0  0  0  0  0  # atno 8009 bound_to 7997
  154.5842  140.2383  155.8019 H   0  0  0  0  0  0  0  0  0  0  0  0  # atno 8010 bound_to 7997
  139.4871  144.4357  151.9015 H   0  0  0  0  0  0  0  0  0  0  0  0  # atno 10167 bound_to 10162
  156.0623  130.5846  150.8317 H   0  0  0  0  0  0  0  0  0  0  0  0  # atno 10718 bound_to 10713
  154.8324  135.4509  154.1114 H   0  0  0  0  0  0  0  0  0  0  0  0  # atno 10763 bound_to 10752
  153.2375  135.6912  153.7826 H   0  0  0  0  0  0  0  0  0  0  0  0  # atno 10764 bound_to 10752
  153.7186  135.3345  155.3238 H   0  0  0  0  0  0  0  0  0  0  0  0  # atno 10765 bound_to 10752
  140.2659  134.7865  157.3632 H   0  0  0  0  0  0  0  0  0  0  0  0  # atno 11005 bound_to 11000
  145.8710  139.2272  143.1661 LP  0  0  0  0  0  0  0  0  0  0  0  0  # atno 17320 bound_to 7965
  146.0084  140.8457  142.9983 LP  0  0  0  0  0  0  0  0  0  0  0  0  # atno 17321 bound_to 7965
  140.3806  144.2741  150.5909 LP  0  0  0  0  0  0  0  0  0  0  0  0  # atno 17342 bound_to 10162
  140.5237  143.2259  151.8349 LP  0  0  0  0  0  0  0  0  0  0  0  0  # atno 17343 bound_to 10162
  157.5641  131.0946  150.9515 LP  0  0  0  0  0  0  0  0  0  0  0  0  # atno 17370 bound_to 10713
  156.9746  130.5504  149.5292 LP  0  0  0  0  0  0  0  0  0  0  0  0  # atno 17371 bound_to 10713
  140.1420  134.4960  155.8024 LP  0  0  0  0  0  0  0  0  0  0  0  0  # atno 17394 bound_to 11000
  141.2184  133.6829  156.7227 LP  0  0  0  0  0  0  0  0  0  0  0  0  # atno 17395 bound_to 11000

$$$$
