AV-unprocessed.smi:251|AV-procd|sdf|1935|dock5
  -GOLD-   2262021 53D 1   1.00000     0.00000
 Structure written by MMmdl.
 50 54  0  0  0  0  0  0  0  0  1 V2000
  149.8928  132.9904  158.1712 O   0  0  0  0  0  0  0  0  0  0  0  0
  149.2905  134.2636  158.0500 C   0  0  0  0  0  0  0  0  0  0  0  0
  149.2111  134.7390  156.5751 C   0  0  0  0  0  0  0  0  0  0  0  0
  148.5263  136.1408  156.4846 C   0  0  0  0  0  0  0  0  0  0  0  0
  149.2688  137.2326  157.1009 N   0  0  0  0  0  0  0  0  0  0  0  0
  149.6091  137.3455  158.4295 C   0  0  0  0  0  0  0  0  0  0  0  0
  150.2805  138.4181  158.7430 N   0  0  0  0  0  0  0  0  0  0  0  0
  150.4446  139.0903  157.5368 C   0  0  0  0  0  0  0  0  0  0  0  0
  151.0769  140.3094  157.1471 C   0  0  0  0  0  0  0  0  0  0  0  0
  151.7157  141.1545  157.9987 N   0  0  0  0  0  0  0  0  0  0  0  0
  152.2405  140.6918  159.2826 C   0  0  0  0  0  0  0  0  0  0  0  0
  152.6598  141.9418  160.0169 C   0  0  1  0  0  0  0  0  0  0  0  0
  153.6404  142.9300  159.4178 C   0  0  0  0  0  0  0  0  0  0  0  0
  152.1478  143.1201  159.2478 C   0  0  2  0  0  0  0  0  0  0  0  0
  151.4370  144.3007  159.8962 C   0  0  0  0  0  0  0  0  0  0  0  0
  151.8167  144.4072  161.1690 F   0  0  0  0  0  0  0  0  0  0  0  0
  151.7394  145.4306  159.2564 F   0  0  0  0  0  0  0  0  0  0  0  0
  150.1138  144.1407  159.8602 F   0  0  0  0  0  0  0  0  0  0  0  0
  151.4474  142.5894  158.0137 C   0  0  0  0  0  0  0  0  0  0  0  0
  151.0175  140.6443  155.8307 N   0  0  0  0  0  0  0  0  0  0  0  0
  150.4020  139.8482  154.9529 C   0  0  0  0  0  0  0  0  0  0  0  0
  149.7798  138.6901  155.1728 N   0  0  0  0  0  0  0  0  0  0  0  0
  149.8189  138.3489  156.4919 C   0  0  0  0  0  0  0  0  0  0  0  0
  150.6538  134.7537  156.0085 C   0  0  0  0  0  0  0  0  0  0  0  0
  150.6875  134.9367  154.4811 C   0  0  0  0  0  0  0  0  0  0  0  0
  149.9444  133.8972  153.8587 O   0  0  0  0  0  0  0  0  0  0  0  0
  148.5697  133.9068  154.2224 C   0  0  0  0  0  0  0  0  0  0  0  0
  148.4186  133.7005  155.7417 C   0  0  0  0  0  0  0  0  0  0  0  0
  149.3637  132.4611  158.7481 H   0  0  0  0  0  0  0  0  0  0  0  0
  148.3005  134.2299  158.5049 H   0  0  0  0  0  0  0  0  0  0  0  0
  149.8756  134.9626  158.6486 H   0  0  0  0  0  0  0  0  0  0  0  0
  148.3497  136.4219  155.4475 H   0  0  0  0  0  0  0  0  0  0  0  0
  147.5364  136.1063  156.9405 H   0  0  0  0  0  0  0  0  0  0  0  0
  149.3345  136.6071  159.1682 H   0  0  0  0  0  0  0  0  0  0  0  0
  151.4671  140.1737  159.8510 H   0  0  0  0  0  0  0  0  0  0  0  0
  153.0939  140.0260  159.1505 H   0  0  0  0  0  0  0  0  0  0  0  0
  152.5603  141.9323  161.1003 H   0  0  0  0  0  0  0  0  0  0  0  0
  154.1690  143.5879  160.1041 H   0  0  0  0  0  0  0  0  0  0  0  0
  154.2135  142.6148  158.5479 H   0  0  0  0  0  0  0  0  0  0  0  0
  151.8466  143.0778  157.1246 H   0  0  0  0  0  0  0  0  0  0  0  0
  150.3742  142.7735  158.0702 H   0  0  0  0  0  0  0  0  0  0  0  0
  150.4067  140.1892  153.9283 H   0  0  0  0  0  0  0  0  0  0  0  0
  151.2639  135.5139  156.4949 H   0  0  0  0  0  0  0  0  0  0  0  0
  151.1416  133.8052  156.2375 H   0  0  0  0  0  0  0  0  0  0  0  0
  150.2984  135.9102  154.1818 H   0  0  0  0  0  0  0  0  0  0  0  0
  151.7166  134.8889  154.1250 H   0  0  0  0  0  0  0  0  0  0  0  0
  148.1003  134.8340  153.8932 H   0  0  0  0  0  0  0  0  0  0  0  0
  148.0663  133.1003  153.6890 H   0  0  0  0  0  0  0  0  0  0  0  0
  148.7708  132.6965  155.9827 H   0  0  0  0  0  0  0  0  0  0  0  0
  147.3615  133.7204  156.0089 H   0  0  0  0  0  0  0  0  0  0  0  0
  1  2  1  0  0  0  0
  1 29  1  0  0  0  0
  2  3  1  0  0  0  0
  2 30  1  0  0  0  0
  2 31  1  0  0  0  0
  3 28  1  0  0  0  0
  3  4  1  0  0  0  0
  3 24  1  0  0  0  0
  4  5  1  0  0  0  0
  4 32  1  0  0  0  0
  4 33  1  0  0  0  0
  5 23  1  0  0  0  0
  5  6  1  0  0  0  0
  6  7  2  0  0  0  0
  6 34  1  0  0  0  0
  7  8  1  0  0  0  0
  8 23  2  0  0  0  0
  8  9  1  0  0  0  0
  9 10  1  0  0  0  0
  9 20  2  0  0  0  0
 10 19  1  0  0  0  0
 10 11  1  0  0  0  0
 11 12  1  0  0  0  0
 11 35  1  0  0  0  0
 11 36  1  0  0  0  0
 12 14  1  0  0  0  0
 12 13  1  0  0  0  0
 12 37  1  0  0  0  0
 13 14  1  0  0  0  0
 13 38  1  0  0  0  0
 13 39  1  0  0  0  0
 14 15  1  0  0  0  0
 14 19  1  0  0  0  0
 15 16  1  0  0  0  0
 15 17  1  0  0  0  0
 15 18  1  0  0  0  0
 19 40  1  0  0  0  0
 19 41  1  0  0  0  0
 20 21  1  0  0  0  0
 21 22  2  0  0  0  0
 21 42  1  0  0  0  0
 22 23  1  0  0  0  0
 24 25  1  0  0  0  0
 24 43  1  0  0  0  0
 24 44  1  0  0  0  0
 25 26  1  0  0  0  0
 25 45  1  0  0  0  0
 25 46  1  0  0  0  0
 26 27  1  0  0  0  0
 27 28  1  0  0  0  0
 27 47  1  0  0  0  0
 27 48  1  0  0  0  0
 28 49  1  0  0  0  0
 28 50  1  0  0  0  0
M  END
> <s_m_source_file>
AV-unprocessed.smi

> <i_m_source_file_index>
251

> <i_lp_mmshare_version>
43012

> <i_f3d_flags>
0

> <s_epik_input>
W0NIMl0xW0NIMl1PW0NIMl1bQ0gyXUMxKFtDSDJdW09IXSlbQ0gyXW4oW2NIXW4yKWMoYzIzKW5bY0hdbmMzTihbQ0gyXTQpW0NIMl1bQ0BIXShbQ0gyXTUpW0NAQF00NUMoRikoRilG

> <s_epik_cmdline>
J2VwaWtfcHl0aG9uJywgJy1waCcsICc3LjAnLCAnLXRuJywgJzgnLCAnLW1hJywgJzIwMCcsICctbWV0YWxfYmluZGluZycsICctaW1hZScsICc8aW5maWxlLm1hZT4nLCAnLW9tYWUnLCAnPG91dGZpbGUubWFlPic=

> <r_lp_tautomer_probability>
1

> <r_epik_Ionization_Penalty>
0.00226625

> <r_epik_Ionization_Penalty_Charging>
0

> <r_epik_Ionization_Penalty_Neutral>
0.00226625

> <r_epik_State_Penalty>
0.00138204

> <r_epik_Charging_Adjusted_Penalty>
0.00138204

> <i_epik_Tot_Q>
0

> <i_epik_Tot_abs_Q>
0

> <r_epik_Metal_State_Penalty>
-0

> <b_epik_Metal_Only>
0

> <s_lp_Force_Field>
OPLS_2005

> <r_lp_Energy>
66.9276

> <b_lp_Chiralities_Consistent>
1

> <s_lp_Variant>
AV-unprocessed.smi:251-2

> <Gold.Version>
5.8.1

> <Gold.Id.Protein>
6NUR|6NUR_protein|mol2

> <Gold.PLP.Fitness>
46.5067

> <Gold.PLP.PLP>
-44.6313

> <Gold.PLP.part.hbond>
-1.5076

> <Gold.PLP.part.metal>
0.0000

> <Gold.PLP.part.buried>
-6.3957

> <Gold.PLP.part.nonpolar>
-36.9820

> <Gold.PLP.part.repulsive>
0.2716

> <Gold.PLP.ligand.clash>
0.0000

> <Gold.PLP.ligand.torsion>
1.7101

> <Gold.PLP.Chemscore.Hbond>
1.0000

> <Gold.PLP.Chemscore.CHOScore>
0.1746

> <Gold.PLP.Chemscore.Metal>
0.0000

> <Gold.Chemscore.Hbonds>
donor molecule, donor type, donor heavy atom, donor atom, acceptor molecule, acceptor atom, score
      P1  H  6896  6909       L1     1  0.40
      L1  C    21    42       P1  7957  0.13

> <Gold.PLP.Chemscore.Internal.Correction>
1.7717

> <Gold.Rescore>
     Score         DG    S(hbond)    S(metal)    S(lipo)     H(rot)  DE(clash)    DE(int)     intcor
      9.93     -11.72       0.64        0.00      84.00       2.23       0.09       1.69       ----

> <Gold.Chemscore.Fitness>
9.9347

> <Gold.Chemscore.DG>
-11.7184

> <Gold.Chemscore.ZeroCoef>
-5.4800

> <Gold.Chemscore.Hbond>
0.6378

> <Gold.Chemscore.Metal>
0.0000

> <Gold.Chemscore.Lipo>
84.0011

> <Gold.Chemscore.Internal_Hbond>
0.0000

> <Gold.Chemscore.DEClash>
0.0928

> <Gold.Chemscore.DEInternal>
1.6908

> <Gold.Chemscore.Rot>
2.2344

> <Gold.Chemscore.Internal.Correction>
   9.000000E+99

> <Gold.Chemscore.Hbond.Weighted>
-2.1303

> <Gold.Chemscore.Metal.Weighted>
-0.0000

> <Gold.Chemscore.Lipo.Weighted>
-9.8281

> <Gold.Chemscore.Internal_Hbond.Weighted>
0.0000

> <Gold.Chemscore.DEClash.Weighted>
0.0928

> <Gold.Chemscore.DEInternal.Weighted>
1.6908

> <Gold.Chemscore.Rot.Weighted>
5.7200

> <Gold.Chemscore.Internal.Correction.Weighted>
   9.000000E+99

> <Gold.Protein.RotatedTorsions>
[ 6907 6896 6895 6894 ] final  -10.20 input  -60.11 | X-H torsion
[ 7974 7965 7964 7962 ] final   48.42 input  175.53 | X-H torsion
[ 8008 7997 7996 7995 ] final -176.39 input   59.86 | X-H torsion
[ 10167 10162 10161 10158 ] final  -50.35 input  -65.29 | X-H torsion
[ 10718 10713 10712 10709 ] final -110.83 input   66.30 | X-H torsion
[ 10763 10752 10751 10750 ] final   69.83 input  -60.55 | X-H torsion
[ 11005 11000 10999 10996 ] final  165.84 input  -57.11 | X-H torsion

> <Gold.Protein.ActiveResidues>
 VAL166  LYS551  ARG553  GLY616  TRP617  ASP618  TYR619  PRO620  LYS621  CYS622 
 ASP623  PHE694  ASN695  SER759  ASP760  ASP761  ALA762  ILE779  LEU786  VAL792 
 PHE793  MET794  SER795  GLU796  ALA797  LYS798  CYS799  TRP800  GLU811  SER814 

> <Gold.Protein.RotatedAtoms>
  151.4057  135.0977  159.9569 H   0  0  0  0  0  0  0  0  0  0  0  0  # atno 6907 bound_to 6896
  152.5036  133.8845  159.7373 H   0  0  0  0  0  0  0  0  0  0  0  0  # atno 6908 bound_to 6896
  150.9329  133.6689  159.2835 H   0  0  0  0  0  0  0  0  0  0  0  0  # atno 6909 bound_to 6896
  146.0206  139.4647  142.9899 H   0  0  0  0  0  0  0  0  0  0  0  0  # atno 7974 bound_to 7965
  155.9943  140.1207  157.0609 H   0  0  0  0  0  0  0  0  0  0  0  0  # atno 8008 bound_to 7997
  154.4221  140.1119  156.5677 H   0  0  0  0  0  0  0  0  0  0  0  0  # atno 8009 bound_to 7997
  155.6300  140.3473  155.4682 H   0  0  0  0  0  0  0  0  0  0  0  0  # atno 8010 bound_to 7997
  140.6642  143.2661  151.4347 H   0  0  0  0  0  0  0  0  0  0  0  0  # atno 10167 bound_to 10162
  156.0613  130.5836  150.8291 H   0  0  0  0  0  0  0  0  0  0  0  0  # atno 10718 bound_to 10713
  153.0308  135.5196  154.7348 H   0  0  0  0  0  0  0  0  0  0  0  0  # atno 10763 bound_to 10752
  154.6365  135.2907  155.0157 H   0  0  0  0  0  0  0  0  0  0  0  0  # atno 10764 bound_to 10752
  154.1090  135.6625  153.4934 H   0  0  0  0  0  0  0  0  0  0  0  0  # atno 10765 bound_to 10752
  140.2603  134.7907  157.3584 H   0  0  0  0  0  0  0  0  0  0  0  0  # atno 11005 bound_to 11000
  145.7199  141.0078  143.1408 LP  0  0  0  0  0  0  0  0  0  0  0  0  # atno 17320 bound_to 7965
  144.6988  139.8858  143.7450 LP  0  0  0  0  0  0  0  0  0  0  0  0  # atno 17321 bound_to 7965
  139.5885  144.1552  152.2058 LP  0  0  0  0  0  0  0  0  0  0  0  0  # atno 17342 bound_to 10162
  140.0899  144.5630  150.7062 LP  0  0  0  0  0  0  0  0  0  0  0  0  # atno 17343 bound_to 10162
  157.5623  131.0946  150.9541 LP  0  0  0  0  0  0  0  0  0  0  0  0  # atno 17370 bound_to 10713
  156.9775  130.5514  149.5294 LP  0  0  0  0  0  0  0  0  0  0  0  0  # atno 17371 bound_to 10713
  140.1471  134.4897  155.7988 LP  0  0  0  0  0  0  0  0  0  0  0  0  # atno 17394 bound_to 11000
  141.2191  133.6848  156.7313 LP  0  0  0  0  0  0  0  0  0  0  0  0  # atno 17395 bound_to 11000

$$$$
