AV-unprocessed.smi:2061|AV-procd|sdf|8393|dock2
  -GOLD-   2272011 73D 1   1.00000     0.00000
 Structure written by MMmdl.
 45 46  0  0  0  0  0  0  0  0  3 V2000
  144.5199  143.5118  162.3457 C   0  0  0  0  0  0  0  0  0  0  0  0
  145.5958  143.3745  161.3229 C   0  0  0  0  0  0  0  0  0  0  0  0
  145.6399  142.7653  160.1007 C   0  0  0  0  0  0  0  0  0  0  0  0
  146.9682  143.0158  159.6647 C   0  0  0  0  0  0  0  0  0  0  0  0
  147.4165  142.5471  158.4018 N   0  0  0  0  0  0  0  0  0  0  0  0
  147.2355  141.3372  157.8437 C   0  0  0  0  0  0  0  0  0  0  0  0
  146.5121  140.4982  158.3934 O   0  0  0  0  0  0  0  0  0  0  0  0
  147.9282  141.1953  156.6802 N   0  5  0  0  0  0  0  0  0  0  0  0
  149.1803  141.8880  156.3606 C   0  0  0  0  0  0  0  0  0  0  0  0
  150.3788  141.2877  157.1452 C   0  0  1  0  0  0  0  0  0  0  0  0
  151.4071  140.5420  156.2575 C   0  0  0  0  0  0  0  0  0  0  0  0
  150.9798  142.2933  158.0818 N   0  3  1  0  0  0  0  0  0  0  0  0
  151.9870  141.7227  159.0073 C   0  0  0  0  0  0  0  0  0  0  0  0
  152.3703  142.7566  160.0813 C   0  0  1  0  0  0  0  0  0  0  0  0
  153.4737  142.2377  161.0097 C   0  0  0  0  0  0  0  0  0  0  0  0
  152.8484  143.9447  159.4551 O   0  0  0  0  0  0  0  0  0  0  0  0
  151.9293  144.5573  158.5507 C   0  0  2  0  0  0  0  0  0  0  0  0
  150.7556  145.2359  159.2782 C   0  0  0  0  0  0  0  0  0  0  0  0
  151.4977  143.5477  157.4701 C   0  0  0  0  0  0  0  0  0  0  0  0
  147.6691  143.7221  160.5396 N   0  0  0  0  0  0  0  0  0  0  0  0
  146.7944  143.9526  161.6077 O   0  0  0  0  0  0  0  0  0  0  0  0
  143.6627  144.0445  161.9340 H   0  0  0  0  0  0  0  0  0  0  0  0
  144.8728  144.0635  163.2174 H   0  0  0  0  0  0  0  0  0  0  0  0
  144.1804  142.5319  162.6816 H   0  0  0  0  0  0  0  0  0  0  0  0
  144.8485  142.2269  159.6010 H   0  0  0  0  0  0  0  0  0  0  0  0
  147.9810  143.1946  157.8718 H   0  0  0  0  0  0  0  0  0  0  0  0
  149.4116  141.8520  155.2951 H   0  0  0  0  0  0  0  0  0  0  0  0
  149.1066  142.9501  156.5944 H   0  0  0  0  0  0  0  0  0  0  0  0
  149.9294  140.5072  157.7609 H   0  0  0  0  0  0  0  0  0  0  0  0
  150.9395  139.7377  155.6866 H   0  0  0  0  0  0  0  0  0  0  0  0
  152.1801  140.0757  156.8689 H   0  0  0  0  0  0  0  0  0  0  0  0
  151.9040  141.1979  155.5408 H   0  0  0  0  0  0  0  0  0  0  0  0
  151.5822  140.8349  159.4953 H   0  0  0  0  0  0  0  0  0  0  0  0
  152.8655  141.4090  158.4410 H   0  0  0  0  0  0  0  0  0  0  0  0
  151.4975  142.9874  160.6924 H   0  0  0  0  0  0  0  0  0  0  0  0
  153.1578  141.3321  161.5279 H   0  0  0  0  0  0  0  0  0  0  0  0
  153.7268  142.9808  161.7664 H   0  0  0  0  0  0  0  0  0  0  0  0
  154.3824  142.0063  160.4532 H   0  0  0  0  0  0  0  0  0  0  0  0
  152.4847  145.3519  158.0515 H   0  0  0  0  0  0  0  0  0  0  0  0
  150.1260  145.7790  158.5730 H   0  0  0  0  0  0  0  0  0  0  0  0
  151.1175  145.9533  160.0148 H   0  0  0  0  0  0  0  0  0  0  0  0
  150.1182  144.5210  159.7961 H   0  0  0  0  0  0  0  0  0  0  0  0
  152.3606  143.3183  156.8440 H   0  0  0  0  0  0  0  0  0  0  0  0
  150.7466  144.0020  156.8235 H   0  0  0  0  0  0  0  0  0  0  0  0
  150.2058  142.5766  158.6675 H   0  0  0  0  0  0  0  0  0  0  0  0
  1  2  1  0  0  0  0
  1 22  1  0  0  0  0
  1 23  1  0  0  0  0
  1 24  1  0  0  0  0
  2 21  1  0  0  0  0
  2  3  2  0  0  0  0
  3  4  1  0  0  0  0
  3 25  1  0  0  0  0
  4  5  1  0  0  0  0
  4 20  2  0  0  0  0
  5  6  1  0  0  0  0
  5 26  1  0  0  0  0
  6  7  2  0  0  0  0
  6  8  1  0  0  0  0
  8  9  1  0  0  0  0
  9 10  1  0  0  0  0
  9 27  1  0  0  0  0
  9 28  1  0  0  0  0
 10 11  1  0  0  0  0
 10 12  1  0  0  0  0
 10 29  1  0  0  0  0
 11 30  1  0  0  0  0
 11 31  1  0  0  0  0
 11 32  1  0  0  0  0
 12 19  1  0  0  0  0
 12 13  1  0  0  0  0
 12 45  1  0  0  0  0
 13 14  1  0  0  0  0
 13 33  1  0  0  0  0
 13 34  1  0  0  0  0
 14 15  1  0  0  0  0
 14 16  1  0  0  0  0
 14 35  1  0  0  0  0
 15 36  1  0  0  0  0
 15 37  1  0  0  0  0
 15 38  1  0  0  0  0
 16 17  1  0  0  0  0
 17 18  1  0  0  0  0
 17 19  1  0  0  0  0
 17 39  1  0  0  0  0
 18 40  1  0  0  0  0
 18 41  1  0  0  0  0
 18 42  1  0  0  0  0
 19 43  1  0  0  0  0
 19 44  1  0  0  0  0
 20 21  1  0  0  0  0
M  CHG  1   8  -1
M  CHG  1  12   1
M  END
> <s_m_source_file>
AV-unprocessed.smi

> <i_m_source_file_index>
2061

> <i_lp_mmshare_version>
43012

> <i_f3d_flags>
0

> <s_epik_input>
W0NIM11jMVtjSF1jKG5vMSlbTkhdQyg9TylbTkhdW0NIMl1bQ0BIXShbQ0gzXSlOMltDSDJdW0NAQEhdKFtDSDNdKU9bQ0BASF0oW0NIM10pW0NIMl0y

> <s_epik_cmdline>
J2VwaWtfcHl0aG9uJywgJy1waCcsICc3LjAnLCAnLXRuJywgJzgnLCAnLW1hJywgJzIwMCcsICctbWV0YWxfYmluZGluZycsICctaW1hZScsICc8aW5maWxlLm1hZT4nLCAnLW9tYWUnLCAnPG91dGZpbGUubWFlPic=

> <r_epik_Ionization_Penalty>
6.8073

> <r_epik_Ionization_Penalty_Charging>
6.80729

> <r_epik_Ionization_Penalty_Neutral>
5.65391e-06

> <r_epik_State_Penalty>
7.47323

> <r_epik_Charging_Adjusted_Penalty>
14.2805

> <i_epik_Tot_Q>
0

> <i_epik_Tot_abs_Q>
2

> <r_epik_Metal_State_Penalty>
3.40035

> <b_epik_Metal_Only>
1

> <s_lp_Force_Field>
OPLS_2005

> <r_lp_Energy>
16.8806

> <b_lp_Chiralities_Consistent>
1

> <s_lp_Variant>
AV-unprocessed.smi:2061-34

> <Gold.Version>
5.8.1

> <Gold.Id.Protein>
6NUR|6NUR_protein|mol2

> <Gold.PLP.Fitness>
38.4530

> <Gold.PLP.PLP>
-38.6554

> <Gold.PLP.part.hbond>
-2.0000

> <Gold.PLP.part.metal>
0.0000

> <Gold.PLP.part.buried>
-5.4756

> <Gold.PLP.part.nonpolar>
-32.7695

> <Gold.PLP.part.repulsive>
0.4503

> <Gold.PLP.ligand.clash>
0.0000

> <Gold.PLP.ligand.torsion>
1.4177

> <Gold.PLP.Chemscore.Hbond>
0.7734

> <Gold.PLP.Chemscore.CHOScore>
0.0000

> <Gold.PLP.Chemscore.Metal>
0.0000

> <Gold.Chemscore.Hbonds>
donor molecule, donor type, donor heavy atom, donor atom, acceptor molecule, acceptor atom, score
      P1  H  6933  6944       L1    20  0.60
      P1  H  6934  6946       L1     7  0.04

> <Gold.PLP.Chemscore.Internal.Correction>
0.3128

> <Gold.Rescore>
     Score         DG    S(hbond)    S(metal)    S(lipo)     H(rot)  DE(clash)    DE(int)     intcor
     12.35     -14.73       0.78        0.00      90.71       1.56       0.04       2.34       ----

> <Gold.Chemscore.Fitness>
12.3452

> <Gold.Chemscore.DG>
-14.7257

> <Gold.Chemscore.ZeroCoef>
-5.4800

> <Gold.Chemscore.Hbond>
0.7825

> <Gold.Chemscore.Metal>
0.0000

> <Gold.Chemscore.Lipo>
90.7086

> <Gold.Chemscore.Internal_Hbond>
0.0000

> <Gold.Chemscore.DEClash>
0.0444

> <Gold.Chemscore.DEInternal>
2.3360

> <Gold.Chemscore.Rot>
1.5550

> <Gold.Chemscore.Internal.Correction>
   9.000000E+99

> <Gold.Chemscore.Hbonds>
donor molecule, donor type, donor heavy atom, donor atom, acceptor molecule, acceptor atom, score
      P1  H  6933  6944       L1    20  0.01
      P1  H  6934  6946       L1     7  0.02

> <Gold.Chemscore.Hbond.Weighted>
-2.6137

> <Gold.Chemscore.Metal.Weighted>
-0.0000

> <Gold.Chemscore.Lipo.Weighted>
-10.6129

> <Gold.Chemscore.Internal_Hbond.Weighted>
0.0000

> <Gold.Chemscore.DEClash.Weighted>
0.0444

> <Gold.Chemscore.DEInternal.Weighted>
2.3360

> <Gold.Chemscore.Rot.Weighted>
3.9809

> <Gold.Chemscore.Internal.Correction.Weighted>
   9.000000E+99

> <Gold.Protein.RotatedTorsions>
[ 6907 6896 6895 6894 ] final   71.32 input  -60.11 | X-H torsion
[ 7974 7965 7964 7962 ] final -101.73 input  175.53 | X-H torsion
[ 8008 7997 7996 7995 ] final   39.38 input   59.86 | X-H torsion
[ 10167 10162 10161 10158 ] final  -42.15 input  -65.29 | X-H torsion
[ 10718 10713 10712 10709 ] final   83.59 input   66.30 | X-H torsion
[ 10763 10752 10751 10750 ] final   30.02 input  -60.55 | X-H torsion
[ 11005 11000 10999 10996 ] final   67.68 input  -57.11 | X-H torsion

> <Gold.Protein.ActiveResidues>
 VAL166  LYS551  ARG553  GLY616  TRP617  ASP618  TYR619  PRO620  LYS621  CYS622 
 ASP623  PHE694  ASN695  SER759  ASP760  ASP761  ALA762  ILE779  LEU786  VAL792 
 PHE793  MET794  SER795  GLU796  ALA797  LYS798  CYS799  TRP800  GLU811  SER814 

> <Gold.Protein.RotatedAtoms>
  152.4803  134.4738  159.9643 H   0  0  0  0  0  0  0  0  0  0  0  0  # atno 6907 bound_to 6896
  151.4745  133.3555  159.2836 H   0  0  0  0  0  0  0  0  0  0  0  0  # atno 6908 bound_to 6896
  150.8870  134.8295  159.7327 H   0  0  0  0  0  0  0  0  0  0  0  0  # atno 6909 bound_to 6896
  145.2778  140.9318  143.2949 H   0  0  0  0  0  0  0  0  0  0  0  0  # atno 7974 bound_to 7965
  155.2357  140.3341  155.4298 H   0  0  0  0  0  0  0  0  0  0  0  0  # atno 8008 bound_to 7997
  156.2277  140.1836  156.7368 H   0  0  0  0  0  0  0  0  0  0  0  0  # atno 8009 bound_to 7997
  154.5925  140.0635  156.9244 H   0  0  0  0  0  0  0  0  0  0  0  0  # atno 8010 bound_to 7997
  140.6979  143.3054  151.3167 H   0  0  0  0  0  0  0  0  0  0  0  0  # atno 10167 bound_to 10162
  157.6882  131.0097  150.2546 H   0  0  0  0  0  0  0  0  0  0  0  0  # atno 10718 bound_to 10713
  153.0396  135.6474  154.0980 H   0  0  0  0  0  0  0  0  0  0  0  0  # atno 10763 bound_to 10752
  154.0689  135.2882  155.3313 H   0  0  0  0  0  0  0  0  0  0  0  0  # atno 10764 bound_to 10752
  154.6608  135.5392  153.8080 H   0  0  0  0  0  0  0  0  0  0  0  0  # atno 10765 bound_to 10752
  139.9756  134.6827  156.0360 H   0  0  0  0  0  0  0  0  0  0  0  0  # atno 11005 bound_to 11000
  144.9279  139.4333  143.6509 LP  0  0  0  0  0  0  0  0  0  0  0  0  # atno 17320 bound_to 7965
  146.3226  139.8174  142.8933 LP  0  0  0  0  0  0  0  0  0  0  0  0  # atno 17321 bound_to 7965
  139.6458  144.0454  152.2589 LP  0  0  0  0  0  0  0  0  0  0  0  0  # atno 17342 bound_to 10162
  139.9974  144.6318  150.7760 LP  0  0  0  0  0  0  0  0  0  0  0  0  # atno 17343 bound_to 10162
  156.3137  130.3775  149.7638 LP  0  0  0  0  0  0  0  0  0  0  0  0  # atno 17370 bound_to 10713
  156.5230  130.8224  151.3210 LP  0  0  0  0  0  0  0  0  0  0  0  0  # atno 17371 bound_to 10713
  141.1433  133.6560  156.3794 LP  0  0  0  0  0  0  0  0  0  0  0  0  # atno 17394 bound_to 11000
  140.5201  134.6312  157.5315 LP  0  0  0  0  0  0  0  0  0  0  0  0  # atno 17395 bound_to 11000

$$$$
