AV-unprocessed.smi:2467|AV-procd|sdf|9727|dock2
  -GOLD-   2272013363D 1   1.00000     0.00000
 Structure written by MMmdl.
 46 47  0  0  0  0  0  0  0  0  1 V2000
  151.8104  138.9813  154.9671 C   0  0  0  0  0  0  0  0  0  0  0  0
  151.0679  139.7299  156.0848 C   0  0  0  0  0  0  0  0  0  0  0  0
  150.3465  141.0223  155.6276 C   0  0  0  0  0  0  0  0  0  0  0  0
  150.2215  142.0338  156.7952 C   0  0  0  0  0  0  0  0  0  0  0  0
  151.5446  142.3361  157.5150 C   0  0  0  0  0  0  0  0  0  0  0  0
  148.9745  140.7058  154.9755 C   0  0  2  0  0  0  0  0  0  0  0  0
  148.9104  139.3378  154.2600 C   0  0  0  0  0  0  0  0  0  0  0  0
  147.5131  139.1293  153.6503 C   0  0  2  0  0  0  0  0  0  0  0  0
  147.3718  137.8393  152.9717 N   0  0  0  0  0  0  0  0  0  0  0  0
  146.2474  137.1335  152.7527 C   0  0  0  0  0  0  0  0  0  0  0  0
  145.1367  137.5050  153.1272 O   0  0  0  0  0  0  0  0  0  0  0  0
  146.3949  135.9674  152.0876 N   0  0  0  0  0  0  0  0  0  0  0  0
  145.4496  134.9778  151.6852 C   0  0  0  0  0  0  0  0  0  0  0  0
  145.9745  133.9826  150.8299 C   0  0  0  0  0  0  0  0  0  0  0  0
  145.1382  132.9469  150.3696 C   0  0  0  0  0  0  0  0  0  0  0  0
  143.7930  132.9308  150.7773 C   0  0  0  0  0  0  0  0  0  0  0  0
  143.3476  133.9568  151.6298 C   0  0  0  0  0  0  0  0  0  0  0  0
  144.1485  134.9496  152.0716 N   0  0  0  0  0  0  0  0  0  0  0  0
  147.1495  140.3277  152.7560 C   0  0  0  0  0  0  0  0  0  0  0  0
  147.3084  141.6387  153.5423 C   0  0  0  0  0  0  0  0  0  0  0  0
  148.6319  141.7459  154.0596 O   0  0  0  0  0  0  0  0  0  0  0  0
  152.3835  138.1511  155.3802 H   0  0  0  0  0  0  0  0  0  0  0  0
  152.5093  139.6385  154.4494 H   0  0  0  0  0  0  0  0  0  0  0  0
  151.1287  138.5627  154.2279 H   0  0  0  0  0  0  0  0  0  0  0  0
  150.3573  139.0581  156.5670 H   0  0  0  0  0  0  0  0  0  0  0  0
  151.8074  139.9706  156.8468 H   0  0  0  0  0  0  0  0  0  0  0  0
  150.9672  141.4867  154.8600 H   0  0  0  0  0  0  0  0  0  0  0  0
  149.8375  142.9849  156.4322 H   0  0  0  0  0  0  0  0  0  0  0  0
  149.4862  141.6776  157.5176 H   0  0  0  0  0  0  0  0  0  0  0  0
  151.4027  143.1138  158.2656 H   0  0  0  0  0  0  0  0  0  0  0  0
  152.3019  142.6895  156.8147 H   0  0  0  0  0  0  0  0  0  0  0  0
  151.9431  141.4626  158.0292 H   0  0  0  0  0  0  0  0  0  0  0  0
  148.2181  140.6840  155.7596 H   0  0  0  0  0  0  0  0  0  0  0  0
  149.6634  139.2825  153.4765 H   0  0  0  0  0  0  0  0  0  0  0  0
  149.1339  138.5360  154.9648 H   0  0  0  0  0  0  0  0  0  0  0  0
  146.7952  139.1012  154.4710 H   0  0  0  0  0  0  0  0  0  0  0  0
  148.2285  137.4357  152.6190 H   0  0  0  0  0  0  0  0  0  0  0  0
  147.3504  135.7483  151.8462 H   0  0  0  0  0  0  0  0  0  0  0  0
  147.0111  134.0077  150.5260 H   0  0  0  0  0  0  0  0  0  0  0  0
  145.5236  132.1785  149.7160 H   0  0  0  0  0  0  0  0  0  0  0  0
  143.1210  132.1530  150.4461 H   0  0  0  0  0  0  0  0  0  0  0  0
  142.3223  133.9815  151.9677 H   0  0  0  0  0  0  0  0  0  0  0  0
  147.7944  140.3656  151.8781 H   0  0  0  0  0  0  0  0  0  0  0  0
  146.1266  140.2330  152.3903 H   0  0  0  0  0  0  0  0  0  0  0  0
  147.1165  142.4906  152.8899 H   0  0  0  0  0  0  0  0  0  0  0  0
  146.5842  141.6944  154.3565 H   0  0  0  0  0  0  0  0  0  0  0  0
  1  2  1  0  0  0  0
  1 22  1  0  0  0  0
  1 23  1  0  0  0  0
  1 24  1  0  0  0  0
  2  3  1  0  0  0  0
  2 25  1  0  0  0  0
  2 26  1  0  0  0  0
  3  4  1  0  0  0  0
  3  6  1  0  0  0  0
  3 27  1  0  0  0  0
  4  5  1  0  0  0  0
  4 28  1  0  0  0  0
  4 29  1  0  0  0  0
  5 30  1  0  0  0  0
  5 31  1  0  0  0  0
  5 32  1  0  0  0  0
  6 21  1  0  0  0  0
  6  7  1  0  0  0  0
  6 33  1  0  0  0  0
  7  8  1  0  0  0  0
  7 34  1  0  0  0  0
  7 35  1  0  0  0  0
  8  9  1  0  0  0  0
  8 19  1  0  0  0  0
  8 36  1  0  0  0  0
  9 10  1  0  0  0  0
  9 37  1  0  0  0  0
 10 11  2  0  0  0  0
 10 12  1  0  0  0  0
 12 13  1  0  0  0  0
 12 38  1  0  0  0  0
 13 18  1  0  0  0  0
 13 14  2  0  0  0  0
 14 15  1  0  0  0  0
 14 39  1  0  0  0  0
 15 16  2  0  0  0  0
 15 40  1  0  0  0  0
 16 17  1  0  0  0  0
 16 41  1  0  0  0  0
 17 18  2  0  0  0  0
 17 42  1  0  0  0  0
 19 20  1  0  0  0  0
 19 43  1  0  0  0  0
 19 44  1  0  0  0  0
 20 21  1  0  0  0  0
 20 45  1  0  0  0  0
 20 46  1  0  0  0  0
M  END
> <s_m_source_file>
AV-unprocessed.smi

> <i_m_source_file_index>
2467

> <i_lp_mmshare_version>
43012

> <i_f3d_flags>
0

> <s_epik_input>
W0NIM11bQ0gyXVtDSF0oW0NIMl1bQ0gzXSlbQ0BASF0xW0NIMl1bQ0BIXShbQ0gyXVtDSDJdTzEpW05IXUMoPU8pW05IXWMyW2NIXVtjSF1bY0hdW2NIXW4y

> <s_epik_cmdline>
J2VwaWtfcHl0aG9uJywgJy1waCcsICc3LjAnLCAnLXRuJywgJzgnLCAnLW1hJywgJzIwMCcsICctbWV0YWxfYmluZGluZycsICctaW1hZScsICc8aW5maWxlLm1hZT4nLCAnLW9tYWUnLCAnPG91dGZpbGUubWFlPic=

> <r_lp_tautomer_probability>
1

> <r_epik_Ionization_Penalty>
4.80427e-05

> <r_epik_Ionization_Penalty_Charging>
0

> <r_epik_Ionization_Penalty_Neutral>
4.80427e-05

> <r_epik_State_Penalty>
-0

> <r_epik_Charging_Adjusted_Penalty>
0

> <i_epik_Tot_Q>
0

> <i_epik_Tot_abs_Q>
0

> <r_epik_Metal_State_Penalty>
-0

> <b_epik_Metal_Only>
0

> <s_lp_Force_Field>
OPLS_2005

> <r_lp_Energy>
20.5229

> <b_lp_Chiralities_Consistent>
1

> <s_lp_Variant>
AV-unprocessed.smi:2467-3

> <Gold.Version>
5.8.1

> <Gold.Id.Protein>
6NUR|6NUR_protein|mol2

> <Gold.PLP.Fitness>
42.2492

> <Gold.PLP.PLP>
-37.6142

> <Gold.PLP.part.hbond>
-2.9423

> <Gold.PLP.part.metal>
0.0000

> <Gold.PLP.part.buried>
-1.8130

> <Gold.PLP.part.nonpolar>
-31.9159

> <Gold.PLP.part.repulsive>
0.5626

> <Gold.PLP.ligand.clash>
0.0000

> <Gold.PLP.ligand.torsion>
1.1906

> <Gold.PLP.Chemscore.Hbond>
2.2586

> <Gold.PLP.Chemscore.CHOScore>
0.0404

> <Gold.PLP.Chemscore.Metal>
0.0000

> <Gold.Chemscore.Hbonds>
donor molecule, donor type, donor heavy atom, donor atom, acceptor molecule, acceptor atom, score
      L1  H     9    37       P1  7948  0.99
      L1  H    12    38       P1  7948  0.98
      P1  H  8011  8017       L1    21  0.33
      L1  C    17    42       P1 10186  0.09

> <Gold.PLP.Chemscore.Internal.Correction>
0.1192

> <Gold.Rescore>
     Score         DG    S(hbond)    S(metal)    S(lipo)     H(rot)  DE(clash)    DE(int)     intcor
     16.73     -20.53       2.12        0.00     100.67       1.49       1.35       2.45       ----

> <Gold.Chemscore.Fitness>
16.7323

> <Gold.Chemscore.DG>
-20.5317

> <Gold.Chemscore.ZeroCoef>
-5.4800

> <Gold.Chemscore.Hbond>
2.1187

> <Gold.Chemscore.Metal>
0.0000

> <Gold.Chemscore.Lipo>
100.6690

> <Gold.Chemscore.Internal_Hbond>
0.0000

> <Gold.Chemscore.DEClash>
1.3453

> <Gold.Chemscore.DEInternal>
2.4542

> <Gold.Chemscore.Rot>
1.4856

> <Gold.Chemscore.Internal.Correction>
   9.000000E+99

> <Gold.Chemscore.Hbonds>
donor molecule, donor type, donor heavy atom, donor atom, acceptor molecule, acceptor atom, score
      L1  H     9    37       P1  7948  0.91
      L1  H    12    38       P1  7948  0.93
      P1  H  8011  8017       L1    21  0.13

> <Gold.Chemscore.Hbond.Weighted>
-7.0766

> <Gold.Chemscore.Metal.Weighted>
-0.0000

> <Gold.Chemscore.Lipo.Weighted>
-11.7783

> <Gold.Chemscore.Internal_Hbond.Weighted>
0.0000

> <Gold.Chemscore.DEClash.Weighted>
1.3453

> <Gold.Chemscore.DEInternal.Weighted>
2.4542

> <Gold.Chemscore.Rot.Weighted>
3.8031

> <Gold.Chemscore.Internal.Correction.Weighted>
   9.000000E+99

> <Gold.Protein.RotatedTorsions>
[ 6907 6896 6895 6894 ] final  158.73 input  -60.11 | X-H torsion
[ 7974 7965 7964 7962 ] final   49.40 input  175.53 | X-H torsion
[ 8008 7997 7996 7995 ] final  -30.76 input   59.86 | X-H torsion
[ 10167 10162 10161 10158 ] final  174.93 input  -65.29 | X-H torsion
[ 10718 10713 10712 10709 ] final   80.62 input   66.30 | X-H torsion
[ 10763 10752 10751 10750 ] final    1.51 input  -60.55 | X-H torsion
[ 11005 11000 10999 10996 ] final   87.88 input  -57.11 | X-H torsion

> <Gold.Protein.ActiveResidues>
 VAL166  LYS551  ARG553  GLY616  TRP617  ASP618  TYR619  PRO620  LYS621  CYS622 
 ASP623  PHE694  ASN695  SER759  ASP760  ASP761  ALA762  ILE779  LEU786  VAL792 
 PHE793  MET794  SER795  GLU796  ALA797  LYS798  CYS799  TRP800  GLU811  SER814 

> <Gold.Protein.RotatedAtoms>
  151.9961  133.3808  159.4163 H   0  0  0  0  0  0  0  0  0  0  0  0  # atno 6907 bound_to 6896
  150.6915  134.3884  159.5074 H   0  0  0  0  0  0  0  0  0  0  0  0  # atno 6908 bound_to 6896
  152.1624  134.8901  160.0591 H   0  0  0  0  0  0  0  0  0  0  0  0  # atno 6909 bound_to 6896
  146.0112  139.4546  142.9955 H   0  0  0  0  0  0  0  0  0  0  0  0  # atno 7974 bound_to 7965
  154.4238  140.1782  156.1458 H   0  0  0  0  0  0  0  0  0  0  0  0  # atno 8008 bound_to 7997
  155.9955  140.3365  155.6770 H   0  0  0  0  0  0  0  0  0  0  0  0  # atno 8009 bound_to 7997
  155.6314  140.0670  157.2638 H   0  0  0  0  0  0  0  0  0  0  0  0  # atno 8010 bound_to 7997
  139.5159  144.3090  152.0309 H   0  0  0  0  0  0  0  0  0  0  0  0  # atno 10167 bound_to 10162
  157.6811  130.9967  150.2106 H   0  0  0  0  0  0  0  0  0  0  0  0  # atno 10718 bound_to 10713
  153.3071  135.6960  153.7150 H   0  0  0  0  0  0  0  0  0  0  0  0  # atno 10763 bound_to 10752
  153.6041  135.3456  155.2956 H   0  0  0  0  0  0  0  0  0  0  0  0  # atno 10764 bound_to 10752
  154.8566  135.4348  154.2198 H   0  0  0  0  0  0  0  0  0  0  0  0  # atno 10765 bound_to 10752
  139.8909  134.8451  156.2922 H   0  0  0  0  0  0  0  0  0  0  0  0  # atno 11005 bound_to 11000
  145.7338  141.0033  143.1337 LP  0  0  0  0  0  0  0  0  0  0  0  0  # atno 17320 bound_to 7965
  144.6954  139.9017  143.7459 LP  0  0  0  0  0  0  0  0  0  0  0  0  # atno 17321 bound_to 7965
  140.2535  144.4143  150.6212 LP  0  0  0  0  0  0  0  0  0  0  0  0  # atno 17342 bound_to 10162
  140.6208  143.2176  151.6698 LP  0  0  0  0  0  0  0  0  0  0  0  0  # atno 17343 bound_to 10162
  156.2777  130.3729  149.7966 LP  0  0  0  0  0  0  0  0  0  0  0  0  # atno 17370 bound_to 10713
  156.5664  130.8406  151.3344 LP  0  0  0  0  0  0  0  0  0  0  0  0  # atno 17371 bound_to 10713
  140.9969  133.7175  156.0899 LP  0  0  0  0  0  0  0  0  0  0  0  0  # atno 17394 bound_to 11000
  140.7551  134.4002  157.5535 LP  0  0  0  0  0  0  0  0  0  0  0  0  # atno 17395 bound_to 11000

$$$$
