AV-unprocessed.smi:1612|AV-procd|sdf|6476|dock3
  -GOLD-   22720 7133D 1   1.00000     0.00000
 Structure written by MMmdl.
 37 38  0  0  0  0  0  0  0  0  1 V2000
  151.6897  144.4408  157.4478 C   0  0  0  0  0  0  0  0  0  0  0  0
  151.0071  143.6219  158.5565 C   0  0  2  0  0  0  0  0  0  0  0  0
  149.5602  143.7472  158.3798 N   0  0  0  0  0  0  0  0  0  0  0  0
  148.6835  142.7340  158.4528 C   0  0  0  0  0  0  0  0  0  0  0  0
  149.0145  141.5654  158.6568 O   0  0  0  0  0  0  0  0  0  0  0  0
  147.4227  143.1683  158.2802 N   0  0  0  0  0  0  0  0  0  0  0  0
  146.2237  142.4067  158.2842 C   0  0  0  0  0  0  0  0  0  0  0  0
  145.2667  142.7927  157.3183 C   0  0  0  0  0  0  0  0  0  0  0  0
  144.0437  142.0990  157.2389 C   0  0  0  0  0  0  0  0  0  0  0  0
  143.8083  141.0357  158.1286 C   0  0  0  0  0  0  0  0  0  0  0  0
  144.8134  140.7159  159.0599 C   0  0  0  0  0  0  0  0  0  0  0  0
  145.9867  141.3788  159.1372 N   0  0  0  0  0  0  0  0  0  0  0  0
  151.4402  144.2080  159.9188 C   0  0  0  0  0  0  0  0  0  0  0  0
  151.0579  145.3361  160.2371 O   0  0  0  0  0  0  0  0  0  0  0  0
  152.2432  143.4778  160.7223 N   0  0  0  0  0  0  0  0  0  0  0  0
  152.7423  142.1512  160.3637 C   0  0  0  0  0  0  0  0  0  0  0  0
  153.8025  141.8088  161.4100 C   0  0  0  0  0  0  0  0  0  0  0  0
  153.3951  142.6229  162.6297 C   0  0  0  0  0  0  0  0  0  0  0  0
  152.7367  143.8714  162.0419 C   0  0  0  0  0  0  0  0  0  0  0  0
  152.7762  144.3785  157.5188 H   0  0  0  0  0  0  0  0  0  0  0  0
  151.4139  145.4957  157.4922 H   0  0  0  0  0  0  0  0  0  0  0  0
  151.4095  144.0690  156.4617 H   0  0  0  0  0  0  0  0  0  0  0  0
  151.2824  142.5715  158.4590 H   0  0  0  0  0  0  0  0  0  0  0  0
  149.2027  144.6767  158.2157 H   0  0  0  0  0  0  0  0  0  0  0  0
  147.3065  144.1595  158.1299 H   0  0  0  0  0  0  0  0  0  0  0  0
  145.4634  143.6125  156.6426 H   0  0  0  0  0  0  0  0  0  0  0  0
  143.2994  142.3786  156.5079 H   0  0  0  0  0  0  0  0  0  0  0  0
  142.8830  140.4796  158.0985 H   0  0  0  0  0  0  0  0  0  0  0  0
  144.6723  139.9061  159.7605 H   0  0  0  0  0  0  0  0  0  0  0  0
  151.9172  141.4386  160.4064 H   0  0  0  0  0  0  0  0  0  0  0  0
  153.1597  142.1271  159.3557 H   0  0  0  0  0  0  0  0  0  0  0  0
  153.8657  140.7396  161.6145 H   0  0  0  0  0  0  0  0  0  0  0  0
  154.7810  142.1410  161.0607 H   0  0  0  0  0  0  0  0  0  0  0  0
  152.6628  142.0630  163.2131 H   0  0  0  0  0  0  0  0  0  0  0  0
  154.2355  142.8560  163.2840 H   0  0  0  0  0  0  0  0  0  0  0  0
  153.4732  144.6677  161.9230 H   0  0  0  0  0  0  0  0  0  0  0  0
  151.9396  144.2348  162.6917 H   0  0  0  0  0  0  0  0  0  0  0  0
  1  2  1  0  0  0  0
  1 20  1  0  0  0  0
  1 21  1  0  0  0  0
  1 22  1  0  0  0  0
  2  3  1  0  0  0  0
  2 13  1  0  0  0  0
  2 23  1  0  0  0  0
  3  4  1  0  0  0  0
  3 24  1  0  0  0  0
  4  5  2  0  0  0  0
  4  6  1  0  0  0  0
  6  7  1  0  0  0  0
  6 25  1  0  0  0  0
  7 12  1  0  0  0  0
  7  8  2  0  0  0  0
  8  9  1  0  0  0  0
  8 26  1  0  0  0  0
  9 10  2  0  0  0  0
  9 27  1  0  0  0  0
 10 11  1  0  0  0  0
 10 28  1  0  0  0  0
 11 12  2  0  0  0  0
 11 29  1  0  0  0  0
 13 14  2  0  0  0  0
 13 15  1  0  0  0  0
 15 19  1  0  0  0  0
 15 16  1  0  0  0  0
 16 17  1  0  0  0  0
 16 30  1  0  0  0  0
 16 31  1  0  0  0  0
 17 18  1  0  0  0  0
 17 32  1  0  0  0  0
 17 33  1  0  0  0  0
 18 19  1  0  0  0  0
 18 34  1  0  0  0  0
 18 35  1  0  0  0  0
 19 36  1  0  0  0  0
 19 37  1  0  0  0  0
M  END
> <s_m_source_file>
AV-unprocessed.smi

> <i_m_source_file_index>
1612

> <i_lp_mmshare_version>
43012

> <i_f3d_flags>
0

> <s_epik_input>
W0NIMl0xW0NIMl1bQ0gyXVtDSDJdTjFDKD1PKVtDQEhdKFtDSDNdKVtOSF1DKD1PKVtOSF1jMltjSF1bY0hdW2NIXVtjSF1uMg==

> <s_epik_cmdline>
J2VwaWtfcHl0aG9uJywgJy1waCcsICc3LjAnLCAnLXRuJywgJzgnLCAnLW1hJywgJzIwMCcsICctbWV0YWxfYmluZGluZycsICctaW1hZScsICc8aW5maWxlLm1hZT4nLCAnLW9tYWUnLCAnPG91dGZpbGUubWFlPic=

> <r_lp_tautomer_probability>
1

> <r_epik_Ionization_Penalty>
3.95281e-05

> <r_epik_Ionization_Penalty_Charging>
0

> <r_epik_Ionization_Penalty_Neutral>
3.95281e-05

> <r_epik_State_Penalty>
-0

> <r_epik_Charging_Adjusted_Penalty>
0

> <i_epik_Tot_Q>
0

> <i_epik_Tot_abs_Q>
0

> <r_epik_Metal_State_Penalty>
-0

> <b_epik_Metal_Only>
0

> <s_lp_Force_Field>
OPLS_2005

> <r_lp_Energy>
30.1614

> <b_lp_Chiralities_Consistent>
1

> <s_lp_Variant>
AV-unprocessed.smi:1612-1

> <Gold.Version>
5.8.1

> <Gold.Id.Protein>
6NUR|6NUR_protein|mol2

> <Gold.PLP.Fitness>
44.6206

> <Gold.PLP.PLP>
-37.3301

> <Gold.PLP.part.hbond>
-5.6926

> <Gold.PLP.part.metal>
0.0000

> <Gold.PLP.part.buried>
-4.4390

> <Gold.PLP.part.nonpolar>
-28.0715

> <Gold.PLP.part.repulsive>
0.3869

> <Gold.PLP.ligand.clash>
0.0000

> <Gold.PLP.ligand.torsion>
0.6440

> <Gold.PLP.Chemscore.Hbond>
2.8560

> <Gold.PLP.Chemscore.CHOScore>
0.0000

> <Gold.PLP.Chemscore.Metal>
0.0000

> <Gold.Chemscore.Hbonds>
donor molecule, donor type, donor heavy atom, donor atom, acceptor molecule, acceptor atom, score
      L1  H     3    24       P1  8029  0.96
      L1  H     6    25       P1  8029  0.96
      P1  H  6934  6946       L1    12  0.80

> <Gold.PLP.Chemscore.Internal.Correction>
0.0105

> <Gold.Rescore>
     Score         DG    S(hbond)    S(metal)    S(lipo)     H(rot)  DE(clash)    DE(int)     intcor
     15.29     -16.64       1.95        0.00      68.27       1.30       0.04       1.32       ----

> <Gold.Chemscore.Fitness>
15.2853

> <Gold.Chemscore.DG>
-16.6437

> <Gold.Chemscore.ZeroCoef>
-5.4800

> <Gold.Chemscore.Hbond>
1.9488

> <Gold.Chemscore.Metal>
0.0000

> <Gold.Chemscore.Lipo>
68.2654

> <Gold.Chemscore.Internal_Hbond>
0.0000

> <Gold.Chemscore.DEClash>
0.0431

> <Gold.Chemscore.DEInternal>
1.3153

> <Gold.Chemscore.Rot>
1.3016

> <Gold.Chemscore.Internal.Correction>
   9.000000E+99

> <Gold.Chemscore.Hbonds>
donor molecule, donor type, donor heavy atom, donor atom, acceptor molecule, acceptor atom, score
      L1  H     3    24       P1  8029  0.26
      L1  H     6    25       P1  8029  0.35
      P1  H  6934  6946       L1    12  0.56

> <Gold.Chemscore.Hbond.Weighted>
-6.5089

> <Gold.Chemscore.Metal.Weighted>
-0.0000

> <Gold.Chemscore.Lipo.Weighted>
-7.9871

> <Gold.Chemscore.Internal_Hbond.Weighted>
0.0000

> <Gold.Chemscore.DEClash.Weighted>
0.0431

> <Gold.Chemscore.DEInternal.Weighted>
1.3153

> <Gold.Chemscore.Rot.Weighted>
3.3322

> <Gold.Chemscore.Internal.Correction.Weighted>
   9.000000E+99

> <Gold.Protein.RotatedTorsions>
[ 6907 6896 6895 6894 ] final  -49.05 input  -60.11 | X-H torsion
[ 7974 7965 7964 7962 ] final -162.21 input  175.53 | X-H torsion
[ 8008 7997 7996 7995 ] final   -5.03 input   59.86 | X-H torsion
[ 10167 10162 10161 10158 ] final    1.20 input  -65.29 | X-H torsion
[ 10718 10713 10712 10709 ] final  -44.16 input   66.30 | X-H torsion
[ 10763 10752 10751 10750 ] final -118.95 input  -60.55 | X-H torsion
[ 11005 11000 10999 10996 ] final  163.22 input  -57.11 | X-H torsion

> <Gold.Protein.ActiveResidues>
 VAL166  LYS551  ARG553  GLY616  TRP617  ASP618  TYR619  PRO620  LYS621  CYS622 
 ASP623  PHE694  ASN695  SER759  ASP760  ASP761  ALA762  ILE779  LEU786  VAL792 
 PHE793  MET794  SER795  GLU796  ALA797  LYS798  CYS799  TRP800  GLU811  SER814 

> <Gold.Protein.RotatedAtoms>
  150.8844  134.8239  159.7247 H   0  0  0  0  0  0  0  0  0  0  0  0  # atno 6907 bound_to 6896
  152.4798  134.4746  159.9656 H   0  0  0  0  0  0  0  0  0  0  0  0  # atno 6908 bound_to 6896
  151.4817  133.3506  159.2874 H   0  0  0  0  0  0  0  0  0  0  0  0  # atno 6909 bound_to 6896
  144.7365  140.3286  143.6157 H   0  0  0  0  0  0  0  0  0  0  0  0  # atno 7974 bound_to 7965
  154.6081  140.2469  155.7705 H   0  0  0  0  0  0  0  0  0  0  0  0  # atno 8008 bound_to 7997
  156.2353  140.2952  156.0248 H   0  0  0  0  0  0  0  0  0  0  0  0  # atno 8009 bound_to 7997
  155.2098  140.0397  157.2922 H   0  0  0  0  0  0  0  0  0  0  0  0  # atno 8010 bound_to 7997
  140.6694  143.7091  150.7891 H   0  0  0  0  0  0  0  0  0  0  0  0  # atno 10167 bound_to 10162
  156.2414  130.4180  149.8756 H   0  0  0  0  0  0  0  0  0  0  0  0  # atno 10718 bound_to 10713
  154.8603  135.4255  154.2221 H   0  0  0  0  0  0  0  0  0  0  0  0  # atno 10763 bound_to 10752
  153.3224  135.6983  153.7025 H   0  0  0  0  0  0  0  0  0  0  0  0  # atno 10764 bound_to 10752
  153.6074  135.3525  155.2940 H   0  0  0  0  0  0  0  0  0  0  0  0  # atno 10765 bound_to 10752
  140.2336  134.8105  157.3341 H   0  0  0  0  0  0  0  0  0  0  0  0  # atno 11005 bound_to 11000
  145.7495  139.1789  143.2329 LP  0  0  0  0  0  0  0  0  0  0  0  0  # atno 17320 bound_to 7965
  146.1072  140.7473  142.9521 LP  0  0  0  0  0  0  0  0  0  0  0  0  # atno 17321 bound_to 7965
  140.0774  143.5002  152.2548 LP  0  0  0  0  0  0  0  0  0  0  0  0  # atno 17342 bound_to 10162
  139.5955  144.7565  151.3296 LP  0  0  0  0  0  0  0  0  0  0  0  0  # atno 17343 bound_to 10162
  156.6336  130.8676  151.3500 LP  0  0  0  0  0  0  0  0  0  0  0  0  # atno 17370 bound_to 10713
  157.7177  130.9518  150.1317 LP  0  0  0  0  0  0  0  0  0  0  0  0  # atno 17371 bound_to 10713
  140.1725  134.4590  155.7822 LP  0  0  0  0  0  0  0  0  0  0  0  0  # atno 17394 bound_to 11000
  141.2216  133.6948  156.7732 LP  0  0  0  0  0  0  0  0  0  0  0  0  # atno 17395 bound_to 11000

$$$$
