AV-unprocessed.smi:193|AV-procd|sdf|1516|dock9
  -GOLD-   2262019353D 1   1.00000     0.00000
 Structure written by MMmdl.
 61 65  0  0  0  0  0  0  0  0  1 V2000
  153.0606  138.9076  159.3546 C   0  0  0  0  0  0  0  0  0  0  0  0
  151.9851  139.9582  159.0428 C   0  0  2  0  0  0  0  0  0  0  0  0
  151.6396  139.9521  157.5386 C   0  0  0  0  0  0  0  0  0  0  0  0
  150.2826  140.4496  157.2992 N   0  0  0  0  0  0  0  0  0  0  0  0
  149.2362  139.5895  157.4662 C   0  0  0  0  0  0  0  0  0  0  0  0
  148.0820  139.8707  156.8045 N   0  0  0  0  0  0  0  0  0  0  0  0
  147.0118  139.0814  156.9215 C   0  0  0  0  0  0  0  0  0  0  0  0
  146.8739  137.9686  157.6405 N   0  0  0  0  0  0  0  0  0  0  0  0
  148.0219  137.6697  158.3109 C   0  0  0  0  0  0  0  0  0  0  0  0
  149.2396  138.4129  158.2807 C   0  0  0  0  0  0  0  0  0  0  0  0
  150.1836  137.7713  159.0778 N   0  0  0  0  0  0  0  0  0  0  0  0
  149.5637  136.7270  159.5514 C   0  0  0  0  0  0  0  0  0  0  0  0
  148.2550  136.5956  159.1524 N   0  0  0  0  0  0  0  0  0  0  0  0
  147.3329  135.5333  159.5258 C   0  0  0  0  0  0  0  0  0  0  0  0
  146.3535  135.9109  160.6718 C   0  0  0  0  0  0  0  0  0  0  0  0
  145.4014  136.8145  160.1428 O   0  0  0  0  0  0  0  0  0  0  0  0
  145.5844  134.6788  161.1881 C   0  0  0  0  0  0  0  0  0  0  0  0
  146.4800  133.7746  162.0554 C   0  0  0  0  0  0  0  0  0  0  0  0
  147.0380  134.5233  163.1304 O   0  0  0  0  0  0  0  0  0  0  0  0
  147.8612  135.6013  162.6974 C   0  0  0  0  0  0  0  0  0  0  0  0
  147.0250  136.6001  161.8788 C   0  0  0  0  0  0  0  0  0  0  0  0
  150.0900  141.8901  157.4095 C   0  0  0  0  0  0  0  0  0  0  0  0
  150.3730  142.4192  158.8269 C   0  0  0  0  0  0  0  0  0  0  0  0
  151.8183  142.5271  158.9999 N   0  0  0  0  0  0  0  0  0  0  0  0
  152.1412  143.6789  159.8313 C   0  0  2  0  0  0  0  0  0  0  0  0
  151.2422  144.8911  159.7302 C   0  0  0  0  0  0  0  0  0  0  0  0
  152.6411  144.9481  159.1644 C   0  0  2  0  0  0  0  0  0  0  0  0
  152.8512  145.0659  157.6668 C   0  0  0  0  0  0  0  0  0  0  0  0
  152.4224  141.3359  159.6059 C   0  0  0  0  0  0  0  0  0  0  0  0
  153.9917  139.1254  158.8300 H   0  0  0  0  0  0  0  0  0  0  0  0
  152.7354  137.9108  159.0552 H   0  0  0  0  0  0  0  0  0  0  0  0
  153.2783  138.8734  160.4225 H   0  0  0  0  0  0  0  0  0  0  0  0
  151.0930  139.6466  159.5886 H   0  0  0  0  0  0  0  0  0  0  0  0
  152.3527  140.5688  156.9900 H   0  0  0  0  0  0  0  0  0  0  0  0
  151.7590  138.9499  157.1275 H   0  0  0  0  0  0  0  0  0  0  0  0
  146.1412  139.3863  156.3598 H   0  0  0  0  0  0  0  0  0  0  0  0
  150.0459  136.0232  160.2140 H   0  0  0  0  0  0  0  0  0  0  0  0
  146.7728  135.2430  158.6359 H   0  0  0  0  0  0  0  0  0  0  0  0
  147.9284  134.6619  159.7962 H   0  0  0  0  0  0  0  0  0  0  0  0
  144.6171  136.7679  160.6677 H   0  0  0  0  0  0  0  0  0  0  0  0
  144.7370  135.0020  161.7949 H   0  0  0  0  0  0  0  0  0  0  0  0
  145.1654  134.1103  160.3570 H   0  0  0  0  0  0  0  0  0  0  0  0
  145.8898  132.9576  162.4703 H   0  0  0  0  0  0  0  0  0  0  0  0
  147.2746  133.3164  161.4658 H   0  0  0  0  0  0  0  0  0  0  0  0
  148.2764  136.0962  163.5755 H   0  0  0  0  0  0  0  0  0  0  0  0
  148.7060  135.2229  162.1210 H   0  0  0  0  0  0  0  0  0  0  0  0
  147.6360  137.4472  161.5682 H   0  0  0  0  0  0  0  0  0  0  0  0
  146.2576  137.0148  162.5344 H   0  0  0  0  0  0  0  0  0  0  0  0
  150.7450  142.3853  156.6912 H   0  0  0  0  0  0  0  0  0  0  0  0
  149.0822  142.1583  157.0953 H   0  0  0  0  0  0  0  0  0  0  0  0
  149.9278  143.4128  158.8915 H   0  0  0  0  0  0  0  0  0  0  0  0
  149.9087  141.8210  159.6117 H   0  0  0  0  0  0  0  0  0  0  0  0
  152.5406  143.4932  160.8271 H   0  0  0  0  0  0  0  0  0  0  0  0
  150.4123  144.8504  159.0269 H   0  0  0  0  0  0  0  0  0  0  0  0
  151.0485  145.4493  160.6439 H   0  0  0  0  0  0  0  0  0  0  0  0
  153.3631  145.5220  159.7423 H   0  0  0  0  0  0  0  0  0  0  0  0
  152.0874  144.5156  157.1166 H   0  0  0  0  0  0  0  0  0  0  0  0
  153.8301  144.6721  157.3939 H   0  0  0  0  0  0  0  0  0  0  0  0
  152.8033  146.1123  157.3661 H   0  0  0  0  0  0  0  0  0  0  0  0
  152.2282  141.3372  160.6797 H   0  0  0  0  0  0  0  0  0  0  0  0
  153.5024  141.4401  159.4969 H   0  0  0  0  0  0  0  0  0  0  0  0
  1  2  1  0  0  0  0
  1 30  1  0  0  0  0
  1 31  1  0  0  0  0
  1 32  1  0  0  0  0
  2 29  1  0  0  0  0
  2  3  1  0  0  0  0
  2 33  1  0  0  0  0
  3  4  1  0  0  0  0
  3 34  1  0  0  0  0
  3 35  1  0  0  0  0
  4  5  1  0  0  0  0
  4 22  1  0  0  0  0
  5 10  1  0  0  0  0
  5  6  2  0  0  0  0
  6  7  1  0  0  0  0
  7  8  2  0  0  0  0
  7 36  1  0  0  0  0
  8  9  1  0  0  0  0
  9 13  1  0  0  0  0
  9 10  2  0  0  0  0
 10 11  1  0  0  0  0
 11 12  2  0  0  0  0
 12 13  1  0  0  0  0
 12 37  1  0  0  0  0
 13 14  1  0  0  0  0
 14 15  1  0  0  0  0
 14 38  1  0  0  0  0
 14 39  1  0  0  0  0
 15 21  1  0  0  0  0
 15 16  1  0  0  0  0
 15 17  1  0  0  0  0
 16 40  1  0  0  0  0
 17 18  1  0  0  0  0
 17 41  1  0  0  0  0
 17 42  1  0  0  0  0
 18 19  1  0  0  0  0
 18 43  1  0  0  0  0
 18 44  1  0  0  0  0
 19 20  1  0  0  0  0
 20 21  1  0  0  0  0
 20 45  1  0  0  0  0
 20 46  1  0  0  0  0
 21 47  1  0  0  0  0
 21 48  1  0  0  0  0
 22 23  1  0  0  0  0
 22 49  1  0  0  0  0
 22 50  1  0  0  0  0
 23 24  1  0  0  0  0
 23 51  1  0  0  0  0
 23 52  1  0  0  0  0
 24 25  1  0  0  0  0
 24 29  1  0  0  0  0
 25 27  1  0  0  0  0
 25 26  1  0  0  0  0
 25 53  1  0  0  0  0
 26 27  1  0  0  0  0
 26 54  1  0  0  0  0
 26 55  1  0  0  0  0
 27 28  1  0  0  0  0
 27 56  1  0  0  0  0
 28 57  1  0  0  0  0
 28 58  1  0  0  0  0
 28 59  1  0  0  0  0
 29 60  1  0  0  0  0
 29 61  1  0  0  0  0
M  END
> <s_m_source_file>
AV-unprocessed.smi

> <i_m_source_file_index>
193

> <i_lp_mmshare_version>
43012

> <i_f3d_flags>
0

> <s_epik_input>
W0NIM11bQ0BASF0xW0NIMl1bQ0BIXTFOKFtDSDJdMilbQ0gyXVtDSDJdTihbQ0gyXVtDQEhdMltDSDNdKWMobltjSF1uMyljKGMzNCluW2NIXW40W0NIMl1DNShbT0hdKVtDSDJdW0NIMl1PW0NIMl1bQ0gyXTU=

> <s_epik_cmdline>
J2VwaWtfcHl0aG9uJywgJy1waCcsICc3LjAnLCAnLXRuJywgJzgnLCAnLW1hJywgJzIwMCcsICctbWV0YWxfYmluZGluZycsICctaW1hZScsICc8aW5maWxlLm1hZT4nLCAnLW9tYWUnLCAnPG91dGZpbGUubWFlPic=

> <r_lp_tautomer_probability>
1

> <r_epik_Ionization_Penalty>
1.45227

> <r_epik_Ionization_Penalty_Charging>
0

> <r_epik_Ionization_Penalty_Neutral>
1.45227

> <r_epik_State_Penalty>
2.02377

> <r_epik_Charging_Adjusted_Penalty>
2.02377

> <i_epik_Tot_Q>
0

> <i_epik_Tot_abs_Q>
0

> <r_epik_Metal_State_Penalty>
2.01937

> <b_epik_Metal_Only>
0

> <s_lp_Force_Field>
OPLS_2005

> <r_lp_Energy>
54.596

> <b_lp_Chiralities_Consistent>
1

> <s_lp_Variant>
AV-unprocessed.smi:193-21

> <Gold.Version>
5.8.1

> <Gold.Id.Protein>
6NUR|6NUR_protein|mol2

> <Gold.PLP.Fitness>
44.4652

> <Gold.PLP.PLP>
-46.8362

> <Gold.PLP.part.hbond>
-1.6046

> <Gold.PLP.part.metal>
0.0000

> <Gold.PLP.part.buried>
-8.7826

> <Gold.PLP.part.nonpolar>
-37.2339

> <Gold.PLP.part.repulsive>
0.0193

> <Gold.PLP.ligand.clash>
0.0000

> <Gold.PLP.ligand.torsion>
1.8402

> <Gold.PLP.Chemscore.Hbond>
0.0000

> <Gold.PLP.Chemscore.CHOScore>
0.0000

> <Gold.PLP.Chemscore.Metal>
0.0000

> <Gold.PLP.Chemscore.Internal.Correction>
1.3094

> <Gold.Rescore>
     Score         DG    S(hbond)    S(metal)    S(lipo)     H(rot)  DE(clash)    DE(int)     intcor
     10.76     -15.93       0.00        0.00     131.03       1.91       1.83       3.33       ----

> <Gold.Chemscore.Fitness>
10.7645

> <Gold.Chemscore.DG>
-15.9287

> <Gold.Chemscore.ZeroCoef>
-5.4800

> <Gold.Chemscore.Hbond>
0.0000

> <Gold.Chemscore.Metal>
0.0000

> <Gold.Chemscore.Lipo>
131.0263

> <Gold.Chemscore.Internal_Hbond>
0.0000

> <Gold.Chemscore.DEClash>
1.8326

> <Gold.Chemscore.DEInternal>
3.3316

> <Gold.Chemscore.Rot>
1.9068

> <Gold.Chemscore.Internal.Correction>
   9.000000E+99

> <Gold.Chemscore.Hbond.Weighted>
-0.0000

> <Gold.Chemscore.Metal.Weighted>
-0.0000

> <Gold.Chemscore.Lipo.Weighted>
-15.3301

> <Gold.Chemscore.Internal_Hbond.Weighted>
0.0000

> <Gold.Chemscore.DEClash.Weighted>
1.8326

> <Gold.Chemscore.DEInternal.Weighted>
3.3316

> <Gold.Chemscore.Rot.Weighted>
4.8814

> <Gold.Chemscore.Internal.Correction.Weighted>
   9.000000E+99

> <Gold.Protein.RotatedTorsions>
[ 6907 6896 6895 6894 ] final   10.32 input  -60.11 | X-H torsion
[ 7974 7965 7964 7962 ] final -112.04 input  175.53 | X-H torsion
[ 8008 7997 7996 7995 ] final -160.61 input   59.86 | X-H torsion
[ 10167 10162 10161 10158 ] final   23.26 input  -65.29 | X-H torsion
[ 10718 10713 10712 10709 ] final  -52.49 input   66.30 | X-H torsion
[ 10763 10752 10751 10750 ] final   58.65 input  -60.55 | X-H torsion
[ 11005 11000 10999 10996 ] final  143.80 input  -57.11 | X-H torsion

> <Gold.Protein.ActiveResidues>
 VAL166  LYS551  ARG553  GLY616  TRP617  ASP618  TYR619  PRO620  LYS621  CYS622 
 ASP623  PHE694  ASN695  SER759  ASP760  ASP761  ALA762  ILE779  LEU786  VAL792 
 PHE793  MET794  SER795  GLU796  ALA797  LYS798  CYS799  TRP800  GLU811  SER814 

> <Gold.Protein.RotatedAtoms>
  151.7363  135.0864  160.0308 H   0  0  0  0  0  0  0  0  0  0  0  0  # atno 6907 bound_to 6896
  152.3508  133.6173  159.5952 H   0  0  0  0  0  0  0  0  0  0  0  0  # atno 6908 bound_to 6896
  150.7539  133.9493  159.3522 H   0  0  0  0  0  0  0  0  0  0  0  0  # atno 6909 bound_to 6896
  145.1488  140.8817  143.3659 H   0  0  0  0  0  0  0  0  0  0  0  0  # atno 7974 bound_to 7965
  155.7799  140.0863  157.2064 H   0  0  0  0  0  0  0  0  0  0  0  0  # atno 8008 bound_to 7997
  154.3991  140.1509  156.3098 H   0  0  0  0  0  0  0  0  0  0  0  0  # atno 8009 bound_to 7997
  155.8663  140.3427  155.5793 H   0  0  0  0  0  0  0  0  0  0  0  0  # atno 8010 bound_to 7997
  140.5283  143.9885  150.6452 H   0  0  0  0  0  0  0  0  0  0  0  0  # atno 10167 bound_to 10162
  156.1617  130.4149  149.9783 H   0  0  0  0  0  0  0  0  0  0  0  0  # atno 10718 bound_to 10713
  152.9876  135.5599  154.5586 H   0  0  0  0  0  0  0  0  0  0  0  0  # atno 10763 bound_to 10752
  154.5010  135.2797  155.1423 H   0  0  0  0  0  0  0  0  0  0  0  0  # atno 10764 bound_to 10752
  154.2854  135.6337  153.5416 H   0  0  0  0  0  0  0  0  0  0  0  0  # atno 10765 bound_to 10752
  140.0582  134.9219  157.1137 H   0  0  0  0  0  0  0  0  0  0  0  0  # atno 11005 bound_to 11000
  145.0453  139.3226  143.5956 LP  0  0  0  0  0  0  0  0  0  0  0  0  # atno 17320 bound_to 7965
  146.3497  139.9842  142.8692 LP  0  0  0  0  0  0  0  0  0  0  0  0  # atno 17321 bound_to 7965
  140.3253  143.3111  152.0743 LP  0  0  0  0  0  0  0  0  0  0  0  0  # atno 17342 bound_to 10162
  139.4945  144.6546  151.6601 LP  0  0  0  0  0  0  0  0  0  0  0  0  # atno 17343 bound_to 10162
  156.7610  130.9151  151.3641 LP  0  0  0  0  0  0  0  0  0  0  0  0  # atno 17370 bound_to 10713
  157.6737  130.9075  150.0100 LP  0  0  0  0  0  0  0  0  0  0  0  0  # atno 17371 bound_to 10713
  140.3811  134.2286  155.7171 LP  0  0  0  0  0  0  0  0  0  0  0  0  # atno 17394 bound_to 11000
  141.1961  133.8089  157.0685 LP  0  0  0  0  0  0  0  0  0  0  0  0  # atno 17395 bound_to 11000

$$$$
