AV-unprocessed.smi:1007|AV-procd|sdf|4409|dock10
  -GOLD-   22720 2353D 1   1.00000     0.00000
 Structure written by MMmdl.
 57 59  0  0  0  0  0  0  0  0  3 V2000
  148.4486  133.3398  152.8588 C   0  0  0  0  0  0  0  0  0  0  0  0
  148.0411  134.3630  153.7505 O   0  0  0  0  0  0  0  0  0  0  0  0
  146.8527  135.0107  153.3282 C   0  0  0  0  0  0  0  0  0  0  0  0
  146.7614  136.3780  154.0228 C   0  0  0  0  0  0  0  0  0  0  0  0
  145.7449  137.2638  153.3945 N   0  3  2  0  0  0  0  0  0  0  0  0
  146.2396  138.0583  152.2393 C   0  0  0  0  0  0  0  0  0  0  0  0
  147.0937  139.2648  152.6817 C   0  0  0  0  0  0  0  0  0  0  0  0
  146.3712  140.1125  153.6665 N   0  3  2  0  0  0  0  0  0  0  0  0
  147.1347  141.3176  154.0834 C   0  0  0  0  0  0  0  0  0  0  0  0
  148.6184  141.0092  154.3642 C   0  0  1  0  0  0  0  0  0  0  0  0
  149.3598  141.2317  153.1795 O   0  0  0  0  0  0  0  0  0  0  0  0
  149.1822  141.8876  155.4979 C   0  0  0  0  0  0  0  0  0  0  0  0
  150.2383  141.2250  156.2421 N   0  0  0  0  0  0  0  0  0  0  0  0
  150.7519  140.0028  156.0044 C   0  0  0  0  0  0  0  0  0  0  0  0
  151.7226  139.5826  156.8099 N   0  0  0  0  0  0  0  0  0  0  0  0
  151.8523  140.6561  157.6741 C   0  0  0  0  0  0  0  0  0  0  0  0
  152.7179  140.8487  158.7731 C   0  0  0  0  0  0  0  0  0  0  0  0
  152.6773  142.0433  159.5269 C   0  0  0  0  0  0  0  0  0  0  0  0
  153.6266  142.2085  160.7006 C   0  0  0  0  0  0  0  0  0  0  0  0
  151.7598  143.0689  159.1845 C   0  0  0  0  0  0  0  0  0  0  0  0
  151.6975  144.3599  159.9816 C   0  0  0  0  0  0  0  0  0  0  0  0
  150.8883  142.8932  158.0892 C   0  0  0  0  0  0  0  0  0  0  0  0
  150.9378  141.6999  157.3468 C   0  0  0  0  0  0  0  0  0  0  0  0
  145.9024  139.3125  154.8254 C   0  0  0  0  0  0  0  0  0  0  0  0
  145.0309  138.1283  154.3666 C   0  0  0  0  0  0  0  0  0  0  0  0
  149.3629  132.8750  153.2275 H   0  0  0  0  0  0  0  0  0  0  0  0
  148.6529  133.7410  151.8654 H   0  0  0  0  0  0  0  0  0  0  0  0
  147.6872  132.5633  152.7737 H   0  0  0  0  0  0  0  0  0  0  0  0
  146.8835  135.1573  152.2473 H   0  0  0  0  0  0  0  0  0  0  0  0
  145.9803  134.3927  153.5419 H   0  0  0  0  0  0  0  0  0  0  0  0
  146.5022  136.2045  155.0682 H   0  0  0  0  0  0  0  0  0  0  0  0
  147.7375  136.8623  154.0315 H   0  0  0  0  0  0  0  0  0  0  0  0
  146.7985  137.4318  151.5450 H   0  0  0  0  0  0  0  0  0  0  0  0
  145.3729  138.4197  151.6840 H   0  0  0  0  0  0  0  0  0  0  0  0
  148.0357  138.9251  153.1141 H   0  0  0  0  0  0  0  0  0  0  0  0
  147.3542  139.8500  151.8007 H   0  0  0  0  0  0  0  0  0  0  0  0
  147.0831  142.0779  153.3020 H   0  0  0  0  0  0  0  0  0  0  0  0
  146.6608  141.7568  154.9625 H   0  0  0  0  0  0  0  0  0  0  0  0
  148.7410  139.9642  154.6471 H   0  0  0  0  0  0  0  0  0  0  0  0
  149.1669  140.5397  152.5645 H   0  0  0  0  0  0  0  0  0  0  0  0
  149.5690  142.8272  155.1012 H   0  0  0  0  0  0  0  0  0  0  0  0
  148.3888  142.1511  156.1987 H   0  0  0  0  0  0  0  0  0  0  0  0
  150.3943  139.3869  155.1920 H   0  0  0  0  0  0  0  0  0  0  0  0
  153.4168  140.0673  159.0331 H   0  0  0  0  0  0  0  0  0  0  0  0
  153.0690  142.3718  161.6230 H   0  0  0  0  0  0  0  0  0  0  0  0
  154.2888  143.0595  160.5399 H   0  0  0  0  0  0  0  0  0  0  0  0
  154.2477  141.3230  160.8381 H   0  0  0  0  0  0  0  0  0  0  0  0
  150.9474  145.0410  159.5783 H   0  0  0  0  0  0  0  0  0  0  0  0
  152.6603  144.8710  159.9588 H   0  0  0  0  0  0  0  0  0  0  0  0
  151.4381  144.1551  161.0205 H   0  0  0  0  0  0  0  0  0  0  0  0
  150.1859  143.6671  157.8187 H   0  0  0  0  0  0  0  0  0  0  0  0
  146.7610  138.9558  155.3966 H   0  0  0  0  0  0  0  0  0  0  0  0
  145.3189  139.9453  155.4952 H   0  0  0  0  0  0  0  0  0  0  0  0
  144.1272  138.5083  153.8880 H   0  0  0  0  0  0  0  0  0  0  0  0
  144.6946  137.5425  155.2228 H   0  0  0  0  0  0  0  0  0  0  0  0
  145.5388  140.4557  153.2075 H   0  0  0  0  0  0  0  0  0  0  0  0
  145.0458  136.6311  153.0301 H   0  0  0  0  0  0  0  0  0  0  0  0
  1  2  1  0  0  0  0
  1 26  1  0  0  0  0
  1 27  1  0  0  0  0
  1 28  1  0  0  0  0
  2  3  1  0  0  0  0
  3  4  1  0  0  0  0
  3 29  1  0  0  0  0
  3 30  1  0  0  0  0
  4  5  1  0  0  0  0
  4 31  1  0  0  0  0
  4 32  1  0  0  0  0
  5 25  1  0  0  0  0
  5  6  1  0  0  0  0
  5 57  1  0  0  0  0
  6  7  1  0  0  0  0
  6 33  1  0  0  0  0
  6 34  1  0  0  0  0
  7  8  1  0  0  0  0
  7 35  1  0  0  0  0
  7 36  1  0  0  0  0
  8  9  1  0  0  0  0
  8 24  1  0  0  0  0
  8 56  1  0  0  0  0
  9 10  1  0  0  0  0
  9 37  1  0  0  0  0
  9 38  1  0  0  0  0
 10 11  1  0  0  0  0
 10 12  1  0  0  0  0
 10 39  1  0  0  0  0
 11 40  1  0  0  0  0
 12 13  1  0  0  0  0
 12 41  1  0  0  0  0
 12 42  1  0  0  0  0
 13 23  1  0  0  0  0
 13 14  1  0  0  0  0
 14 15  2  0  0  0  0
 14 43  1  0  0  0  0
 15 16  1  0  0  0  0
 16 23  2  0  0  0  0
 16 17  1  0  0  0  0
 17 18  2  0  0  0  0
 17 44  1  0  0  0  0
 18 19  1  0  0  0  0
 18 20  1  0  0  0  0
 19 45  1  0  0  0  0
 19 46  1  0  0  0  0
 19 47  1  0  0  0  0
 20 21  1  0  0  0  0
 20 22  2  0  0  0  0
 21 48  1  0  0  0  0
 21 49  1  0  0  0  0
 21 50  1  0  0  0  0
 22 23  1  0  0  0  0
 22 51  1  0  0  0  0
 24 25  1  0  0  0  0
 24 52  1  0  0  0  0
 24 53  1  0  0  0  0
 25 54  1  0  0  0  0
 25 55  1  0  0  0  0
M  CHG  1   5   1
M  CHG  1   8   1
M  END
> <s_m_source_file>
AV-unprocessed.smi

> <i_m_source_file_index>
1007

> <i_lp_mmshare_version>
43012

> <i_f3d_flags>
0

> <s_epik_input>
W0NIM11PW0NIMl1bQ0gyXU4xW0NIMl1bQ0gyXU4oW0NIMl1bQ0gyXTEpW0NIMl1bQ0BIXShbT0hdKVtDSDJdbihbY0hdbjIpYyhjMjMpW2NIXWMoW0NIM10pYyhbY0hdMylbQ0gzXQ==

> <s_epik_cmdline>
J2VwaWtfcHl0aG9uJywgJy1waCcsICc3LjAnLCAnLXRuJywgJzgnLCAnLW1hJywgJzIwMCcsICctbWV0YWxfYmluZGluZycsICctaW1hZScsICc8aW5maWxlLm1hZT4nLCAnLW9tYWUnLCAnPG91dGZpbGUubWFlPic=

> <r_epik_Ionization_Penalty>
3.88944

> <r_epik_Ionization_Penalty_Charging>
3.80608

> <r_epik_Ionization_Penalty_Neutral>
0.0833653

> <r_epik_State_Penalty>
2.70739

> <r_epik_Charging_Adjusted_Penalty>
6.51347

> <i_epik_Tot_Q>
2

> <i_epik_Tot_abs_Q>
2

> <r_epik_Metal_State_Penalty>
2.62239

> <b_epik_Metal_Only>
0

> <s_lp_Force_Field>
OPLS_2005

> <r_lp_Energy>
30.9183

> <b_lp_Chiralities_Consistent>
1

> <s_lp_Variant>
AV-unprocessed.smi:1007-12

> <Gold.Version>
5.8.1

> <Gold.Id.Protein>
6NUR|6NUR_protein|mol2

> <Gold.PLP.Fitness>
53.7418

> <Gold.PLP.PLP>
-45.4819

> <Gold.PLP.part.hbond>
-3.1656

> <Gold.PLP.part.metal>
0.0000

> <Gold.PLP.part.buried>
-1.1808

> <Gold.PLP.part.nonpolar>
-41.4614

> <Gold.PLP.part.repulsive>
0.1221

> <Gold.PLP.ligand.clash>
0.0000

> <Gold.PLP.ligand.torsion>
1.5387

> <Gold.PLP.Chemscore.Hbond>
3.7233

> <Gold.PLP.Chemscore.CHOScore>
0.0000

> <Gold.PLP.Chemscore.Metal>
0.0000

> <Gold.Chemscore.Hbonds>
donor molecule, donor type, donor heavy atom, donor atom, acceptor molecule, acceptor atom, score
      L1  H     8    56       P1 10175  2.00
      L1  H    11    40       P1  7957  0.78
      P1  H  7989  7998       L1    11  0.03
      P1  H  8011  8017       L1    11  0.98

> <Gold.PLP.Chemscore.Internal.Correction>
0.1672

> <Gold.Rescore>
     Score         DG    S(hbond)    S(metal)    S(lipo)     H(rot)  DE(clash)    DE(int)     intcor
     17.68     -20.81       2.32        0.00     122.59       2.63       1.09       2.05       ----

> <Gold.Chemscore.Fitness>
17.6801

> <Gold.Chemscore.DG>
-20.8129

> <Gold.Chemscore.ZeroCoef>
-5.4800

> <Gold.Chemscore.Hbond>
2.3156

> <Gold.Chemscore.Metal>
0.0000

> <Gold.Chemscore.Lipo>
122.5941

> <Gold.Chemscore.Internal_Hbond>
0.0000

> <Gold.Chemscore.DEClash>
1.0864

> <Gold.Chemscore.DEInternal>
2.0464

> <Gold.Chemscore.Rot>
2.6347

> <Gold.Chemscore.Internal.Correction>
   9.000000E+99

> <Gold.Chemscore.Hbonds>
donor molecule, donor type, donor heavy atom, donor atom, acceptor molecule, acceptor atom, score
      L1  H     8    56       P1 10175  0.91
      L1  H    11    40       P1  7957  0.74
      P1  H  7989  7998       L1    11  0.01
      P1  H  8011  8017       L1    11  0.45

> <Gold.Chemscore.Hbond.Weighted>
-7.7341

> <Gold.Chemscore.Metal.Weighted>
-0.0000

> <Gold.Chemscore.Lipo.Weighted>
-14.3435

> <Gold.Chemscore.Internal_Hbond.Weighted>
0.0000

> <Gold.Chemscore.DEClash.Weighted>
1.0864

> <Gold.Chemscore.DEInternal.Weighted>
2.0464

> <Gold.Chemscore.Rot.Weighted>
6.7448

> <Gold.Chemscore.Internal.Correction.Weighted>
   9.000000E+99

> <Gold.Protein.RotatedTorsions>
[ 6907 6896 6895 6894 ] final   70.95 input  -60.11 | X-H torsion
[ 7974 7965 7964 7962 ] final  170.98 input  175.53 | X-H torsion
[ 8008 7997 7996 7995 ] final   80.20 input   59.86 | X-H torsion
[ 10167 10162 10161 10158 ] final   87.08 input  -65.29 | X-H torsion
[ 10718 10713 10712 10709 ] final   42.46 input   66.30 | X-H torsion
[ 10763 10752 10751 10750 ] final  177.74 input  -60.55 | X-H torsion
[ 11005 11000 10999 10996 ] final   -3.70 input  -57.11 | X-H torsion

> <Gold.Protein.ActiveResidues>
 VAL166  LYS551  ARG553  GLY616  TRP617  ASP618  TYR619  PRO620  LYS621  CYS622 
 ASP623  PHE694  ASN695  SER759  ASP760  ASP761  ALA762  ILE779  LEU786  VAL792 
 PHE793  MET794  SER795  GLU796  ALA797  LYS798  CYS799  TRP800  GLU811  SER814 

> <Gold.Protein.RotatedAtoms>
  152.4780  134.4793  159.9660 H   0  0  0  0  0  0  0  0  0  0  0  0  # atno 6907 bound_to 6896
  151.4804  133.3542  159.2845 H   0  0  0  0  0  0  0  0  0  0  0  0  # atno 6908 bound_to 6896
  150.8833  134.8253  159.7302 H   0  0  0  0  0  0  0  0  0  0  0  0  # atno 6909 bound_to 6896
  144.7308  139.9282  143.6423 H   0  0  0  0  0  0  0  0  0  0  0  0  # atno 7974 bound_to 7965
  155.8802  140.3444  155.5882 H   0  0  0  0  0  0  0  0  0  0  0  0  # atno 8008 bound_to 7997
  155.7729  140.0848  157.2118 H   0  0  0  0  0  0  0  0  0  0  0  0  # atno 8009 bound_to 7997
  154.4024  140.1515  156.2949 H   0  0  0  0  0  0  0  0  0  0  0  0  # atno 8010 bound_to 7997
  139.8810  144.6440  150.8843 H   0  0  0  0  0  0  0  0  0  0  0  0  # atno 10167 bound_to 10162
  157.4051  130.7882  149.7381 H   0  0  0  0  0  0  0  0  0  0  0  0  # atno 10718 bound_to 10713
  154.4985  135.2782  155.1439 H   0  0  0  0  0  0  0  0  0  0  0  0  # atno 10763 bound_to 10752
  154.3082  135.6234  153.5458 H   0  0  0  0  0  0  0  0  0  0  0  0  # atno 10764 bound_to 10752
  152.9899  135.5713  154.5423 H   0  0  0  0  0  0  0  0  0  0  0  0  # atno 10765 bound_to 10752
  140.6722  133.9226  155.8502 H   0  0  0  0  0  0  0  0  0  0  0  0  # atno 11005 bound_to 11000
  146.0877  139.3866  143.0425 LP  0  0  0  0  0  0  0  0  0  0  0  0  # atno 17320 bound_to 7965
  145.7754  140.9879  143.1127 LP  0  0  0  0  0  0  0  0  0  0  0  0  # atno 17321 bound_to 7965
  140.7744  143.3586  151.1873 LP  0  0  0  0  0  0  0  0  0  0  0  0  # atno 17342 bound_to 10162
  139.7196  143.9245  152.2980 LP  0  0  0  0  0  0  0  0  0  0  0  0  # atno 17343 bound_to 10162
  155.9834  130.4001  150.3365 LP  0  0  0  0  0  0  0  0  0  0  0  0  # atno 17370 bound_to 10713
  157.1497  131.0318  151.2890 LP  0  0  0  0  0  0  0  0  0  0  0  0  # atno 17371 bound_to 10713
  141.0383  134.0658  157.3933 LP  0  0  0  0  0  0  0  0  0  0  0  0  # atno 17394 bound_to 11000
  139.8978  135.0152  156.7117 LP  0  0  0  0  0  0  0  0  0  0  0  0  # atno 17395 bound_to 11000

$$$$
