AV-unprocessed.smi:3154|AV-procd|sdf|12023|dock10
  -GOLD-   2272017433D 1   1.00000     0.00000
 Structure written by MMmdl.
 34 35  0  0  0  0  0  0  0  0  1 V2000
  150.8361  144.7392  158.6087 C   0  0  0  0  0  0  0  0  0  0  0  0
  151.0985  143.2466  158.3486 C   0  0  2  0  0  0  0  0  0  0  0  0
  152.5447  142.8214  158.7115 C   0  0  0  0  0  0  0  0  0  0  0  0
  152.8061  142.7680  160.1412 N   0  0  0  0  0  0  0  0  0  0  0  0
  152.3910  143.6439  161.1229 C   0  0  0  0  0  0  0  0  0  0  0  0
  152.8737  143.1804  162.3131 C   0  0  0  0  0  0  0  0  0  0  0  0
  153.5766  141.9964  161.9539 C   0  0  0  0  0  0  0  0  0  0  0  0
  153.5296  141.7495  160.6550 N   0  0  0  0  0  0  0  0  0  0  0  0
  150.7627  142.9832  156.9513 N   0  0  0  0  0  0  0  0  0  0  0  0
  150.6854  141.5503  156.6328 C   0  0  0  0  0  0  0  0  0  0  0  0
  149.9013  141.2773  155.3464 C   0  0  0  0  0  0  0  0  0  0  0  0
  150.2505  140.3853  154.5717 O   0  0  0  0  0  0  0  0  0  0  0  0
  148.8343  142.0619  155.1349 N   0  0  0  0  0  0  0  0  0  0  0  0
  147.9599  141.9890  154.0092 C   0  0  0  0  0  0  0  0  0  0  0  0
  146.4723  141.9154  154.2776 C   0  0  0  0  0  0  0  0  0  0  0  0
  147.2047  140.6959  153.7897 C   0  0  0  0  0  0  0  0  0  0  0  0
  151.0746  145.0037  159.6393 H   0  0  0  0  0  0  0  0  0  0  0  0
  149.7877  144.9886  158.4422 H   0  0  0  0  0  0  0  0  0  0  0  0
  151.4325  145.3770  157.9553 H   0  0  0  0  0  0  0  0  0  0  0  0
  150.4071  142.6840  158.9778 H   0  0  0  0  0  0  0  0  0  0  0  0
  152.7339  141.8268  158.3055 H   0  0  0  0  0  0  0  0  0  0  0  0
  153.2854  143.4681  158.2416 H   0  0  0  0  0  0  0  0  0  0  0  0
  151.7966  144.5162  160.8938 H   0  0  0  0  0  0  0  0  0  0  0  0
  152.7442  143.6198  163.2910 H   0  0  0  0  0  0  0  0  0  0  0  0
  154.1139  141.3125  162.5942 H   0  0  0  0  0  0  0  0  0  0  0  0
  149.8890  143.4432  156.7389 H   0  0  0  0  0  0  0  0  0  0  0  0
  151.6846  141.1369  156.5018 H   0  0  0  0  0  0  0  0  0  0  0  0
  150.2141  141.0171  157.4599 H   0  0  0  0  0  0  0  0  0  0  0  0
  148.6226  142.7643  155.8286 H   0  0  0  0  0  0  0  0  0  0  0  0
  148.2594  142.5224  153.1080 H   0  0  0  0  0  0  0  0  0  0  0  0
  146.1411  141.9205  155.3144 H   0  0  0  0  0  0  0  0  0  0  0  0
  145.8108  142.4188  153.5755 H   0  0  0  0  0  0  0  0  0  0  0  0
  147.0323  140.3844  152.7615 H   0  0  0  0  0  0  0  0  0  0  0  0
  147.3608  139.8867  154.5007 H   0  0  0  0  0  0  0  0  0  0  0  0
  1  2  1  0  0  0  0
  1 17  1  0  0  0  0
  1 18  1  0  0  0  0
  1 19  1  0  0  0  0
  2  3  1  0  0  0  0
  2  9  1  0  0  0  0
  2 20  1  0  0  0  0
  3  4  1  0  0  0  0
  3 21  1  0  0  0  0
  3 22  1  0  0  0  0
  4  8  1  0  0  0  0
  4  5  1  0  0  0  0
  5  6  2  0  0  0  0
  5 23  1  0  0  0  0
  6  7  1  0  0  0  0
  6 24  1  0  0  0  0
  7  8  2  0  0  0  0
  7 25  1  0  0  0  0
  9 10  1  0  0  0  0
  9 26  1  0  0  0  0
 10 11  1  0  0  0  0
 10 27  1  0  0  0  0
 10 28  1  0  0  0  0
 11 12  2  0  0  0  0
 11 13  1  0  0  0  0
 13 14  1  0  0  0  0
 13 29  1  0  0  0  0
 14 16  1  0  0  0  0
 14 15  1  0  0  0  0
 14 30  1  0  0  0  0
 15 16  1  0  0  0  0
 15 31  1  0  0  0  0
 15 32  1  0  0  0  0
 16 33  1  0  0  0  0
 16 34  1  0  0  0  0
M  END
> <s_m_source_file>
AV-unprocessed.smi

> <i_m_source_file_index>
3154

> <i_lp_mmshare_version>
43012

> <i_f3d_flags>
0

> <s_epik_input>
bjFbY0hdW2NIXVtjSF1uMVtDSDJdW0NAQEhdKFtDSDNdKVtOSF1bQ0gyXUMoPU8pW05IXVtDSF0yW0NIMl1bQ0gyXTI=

> <s_epik_cmdline>
J2VwaWtfcHl0aG9uJywgJy1waCcsICc3LjAnLCAnLXRuJywgJzgnLCAnLW1hJywgJzIwMCcsICctbWV0YWxfYmluZGluZycsICctaW1hZScsICc8aW5maWxlLm1hZT4nLCAnLW9tYWUnLCAnPG91dGZpbGUubWFlPic=

> <r_lp_tautomer_probability>
1

> <r_epik_Ionization_Penalty>
1.00229

> <r_epik_Ionization_Penalty_Charging>
0

> <r_epik_Ionization_Penalty_Neutral>
1.00229

> <r_epik_State_Penalty>
1.0509

> <r_epik_Charging_Adjusted_Penalty>
1.0509

> <i_epik_Tot_Q>
0

> <i_epik_Tot_abs_Q>
0

> <r_epik_Metal_State_Penalty>
1.05084

> <b_epik_Metal_Only>
0

> <s_lp_Force_Field>
OPLS_2005

> <r_lp_Energy>
19.1763

> <b_lp_Chiralities_Consistent>
1

> <s_lp_Variant>
AV-unprocessed.smi:3154-3

> <Gold.Version>
5.8.1

> <Gold.Id.Protein>
6NUR|6NUR_protein|mol2

> <Gold.PLP.Fitness>
49.4274

> <Gold.PLP.PLP>
-43.3654

> <Gold.PLP.part.hbond>
-3.0000

> <Gold.PLP.part.metal>
0.0000

> <Gold.PLP.part.buried>
-6.2267

> <Gold.PLP.part.nonpolar>
-34.4566

> <Gold.PLP.part.repulsive>
0.2809

> <Gold.PLP.ligand.clash>
0.0000

> <Gold.PLP.ligand.torsion>
0.8457

> <Gold.PLP.Chemscore.Hbond>
2.5600

> <Gold.PLP.Chemscore.CHOScore>
0.0000

> <Gold.PLP.Chemscore.Metal>
0.0000

> <Gold.Chemscore.Hbonds>
donor molecule, donor type, donor heavy atom, donor atom, acceptor molecule, acceptor atom, score
      L1  H     9    26       P1  8028  0.98
      L1  H    13    29       P1  8028  0.54
      P1  H  7989  7998       L1    12  1.00

> <Gold.PLP.Chemscore.Internal.Correction>
0.0734

> <Gold.Rescore>
     Score         DG    S(hbond)    S(metal)    S(lipo)     H(rot)  DE(clash)    DE(int)     intcor
     18.56     -19.44       2.41        0.00      97.10       2.12       0.21       0.67       ----

> <Gold.Chemscore.Fitness>
18.5632

> <Gold.Chemscore.DG>
-19.4409

> <Gold.Chemscore.ZeroCoef>
-5.4800

> <Gold.Chemscore.Hbond>
2.4054

> <Gold.Chemscore.Metal>
0.0000

> <Gold.Chemscore.Lipo>
97.0991

> <Gold.Chemscore.Internal_Hbond>
0.0000

> <Gold.Chemscore.DEClash>
0.2052

> <Gold.Chemscore.DEInternal>
0.6725

> <Gold.Chemscore.Rot>
2.1225

> <Gold.Chemscore.Internal.Correction>
   9.000000E+99

> <Gold.Chemscore.Hbonds>
donor molecule, donor type, donor heavy atom, donor atom, acceptor molecule, acceptor atom, score
      L1  H     9    26       P1  8028  0.93
      L1  H    13    29       P1  8028  0.53
      P1  H  7989  7998       L1    12  0.81

> <Gold.Chemscore.Hbond.Weighted>
-8.0340

> <Gold.Chemscore.Metal.Weighted>
-0.0000

> <Gold.Chemscore.Lipo.Weighted>
-11.3606

> <Gold.Chemscore.Internal_Hbond.Weighted>
0.0000

> <Gold.Chemscore.DEClash.Weighted>
0.2052

> <Gold.Chemscore.DEInternal.Weighted>
0.6725

> <Gold.Chemscore.Rot.Weighted>
5.4337

> <Gold.Chemscore.Internal.Correction.Weighted>
   9.000000E+99

> <Gold.Protein.RotatedTorsions>
[ 6907 6896 6895 6894 ] final  -30.81 input  -60.11 | X-H torsion
[ 7974 7965 7964 7962 ] final   16.93 input  175.53 | X-H torsion
[ 8008 7997 7996 7995 ] final  132.39 input   59.86 | X-H torsion
[ 10167 10162 10161 10158 ] final   47.88 input  -65.29 | X-H torsion
[ 10718 10713 10712 10709 ] final  121.31 input   66.30 | X-H torsion
[ 10763 10752 10751 10750 ] final  -35.65 input  -60.55 | X-H torsion
[ 11005 11000 10999 10996 ] final   65.69 input  -57.11 | X-H torsion

> <Gold.Protein.ActiveResidues>
 VAL166  LYS551  ARG553  GLY616  TRP617  ASP618  TYR619  PRO620  LYS621  CYS622 
 ASP623  PHE694  ASN695  SER759  ASP760  ASP761  ALA762  ILE779  LEU786  VAL792 
 PHE793  MET794  SER795  GLU796  ALA797  LYS798  CYS799  TRP800  GLU811  SER814 

> <Gold.Protein.RotatedAtoms>
  151.1006  134.9970  159.8446 H   0  0  0  0  0  0  0  0  0  0  0  0  # atno 6907 bound_to 6896
  152.5436  134.1955  159.8701 H   0  0  0  0  0  0  0  0  0  0  0  0  # atno 6908 bound_to 6896
  151.1998  133.4573  159.2629 H   0  0  0  0  0  0  0  0  0  0  0  0  # atno 6909 bound_to 6896
  146.2234  139.8676  142.8593 H   0  0  0  0  0  0  0  0  0  0  0  0  # atno 7974 bound_to 7965
  156.2982  140.2547  156.3081 H   0  0  0  0  0  0  0  0  0  0  0  0  # atno 8008 bound_to 7997
  154.9352  140.0397  157.2087 H   0  0  0  0  0  0  0  0  0  0  0  0  # atno 8009 bound_to 7997
  154.8179  140.2855  155.5811 H   0  0  0  0  0  0  0  0  0  0  0  0  # atno 8010 bound_to 7997
  140.2990  144.2956  150.6223 H   0  0  0  0  0  0  0  0  0  0  0  0  # atno 10167 bound_to 10162
  157.5827  131.1073  150.8156 H   0  0  0  0  0  0  0  0  0  0  0  0  # atno 10718 bound_to 10713
  153.8668  135.6835  153.4778 H   0  0  0  0  0  0  0  0  0  0  0  0  # atno 10763 bound_to 10752
  153.1310  135.4698  154.9347 H   0  0  0  0  0  0  0  0  0  0  0  0  # atno 10764 bound_to 10752
  154.7733  135.3245  154.8094 H   0  0  0  0  0  0  0  0  0  0  0  0  # atno 10765 bound_to 10752
  139.9879  134.6639  156.0144 H   0  0  0  0  0  0  0  0  0  0  0  0  # atno 11005 bound_to 11000
  145.2641  141.0087  143.3809 LP  0  0  0  0  0  0  0  0  0  0  0  0  # atno 17320 bound_to 7965
  144.9275  139.4338  143.6511 LP  0  0  0  0  0  0  0  0  0  0  0  0  # atno 17321 bound_to 7965
  140.5667  143.2185  151.7671 LP  0  0  0  0  0  0  0  0  0  0  0  0  # atno 17342 bound_to 10162
  139.4919  144.4274  151.9911 LP  0  0  0  0  0  0  0  0  0  0  0  0  # atno 17343 bound_to 10162
  156.8598  130.5109  149.5304 LP  0  0  0  0  0  0  0  0  0  0  0  0  # atno 17370 bound_to 10713
  156.0873  130.5868  150.9671 LP  0  0  0  0  0  0  0  0  0  0  0  0  # atno 17371 bound_to 10713
  141.1540  133.6545  156.4103 LP  0  0  0  0  0  0  0  0  0  0  0  0  # atno 17394 bound_to 11000
  140.4967  134.6525  157.5232 LP  0  0  0  0  0  0  0  0  0  0  0  0  # atno 17395 bound_to 11000

$$$$
