AV-unprocessed.smi:1430|AV-procd|sdf|5823|dock2
  -GOLD-   22720 5483D 1   1.00000     0.00000
 Structure written by MMmdl.
 46 47  0  0  0  0  0  0  0  0  1 V2000
  154.0597  140.7074  161.5292 C   0  0  0  0  0  0  0  0  0  0  0  0
  153.8457  142.0345  161.0615 O   0  0  0  0  0  0  0  0  0  0  0  0
  153.0126  142.2210  159.9775 C   0  0  0  0  0  0  0  0  0  0  0  0
  152.8280  143.5286  159.4862 C   0  0  0  0  0  0  0  0  0  0  0  0
  151.9810  143.7280  158.3791 C   0  0  0  0  0  0  0  0  0  0  0  0
  151.3479  142.6067  157.7913 C   0  0  0  0  0  0  0  0  0  0  0  0
  150.4586  142.6737  156.6845 N   0  0  0  0  0  0  0  0  0  0  0  0
  149.9906  141.6720  155.9199 C   0  0  0  0  0  0  0  0  0  0  0  0
  150.2468  140.4778  156.0723 O   0  0  0  0  0  0  0  0  0  0  0  0
  149.1763  142.1357  154.9614 N   0  0  0  0  0  0  0  0  0  0  0  0
  148.4867  141.3088  153.9784 C   0  0  0  0  0  0  0  0  0  0  0  0
  146.9882  141.1816  154.3098 C   0  0  0  0  0  0  0  0  0  0  0  0
  146.4722  139.8143  154.3192 N   0  0  0  0  0  0  0  0  0  0  0  0
  146.9956  139.0701  155.4578 C   0  0  0  0  0  0  0  0  0  0  0  0
  146.4398  137.6360  155.5159 C   0  0  2  0  0  0  0  0  0  0  0  0
  147.0549  136.8265  156.6623 C   0  0  0  0  0  0  0  0  0  0  0  0
  146.7343  136.9646  154.2925 O   0  0  0  0  0  0  0  0  0  0  0  0
  146.2876  137.6307  153.1103 C   0  0  1  0  0  0  0  0  0  0  0  0
  144.7649  137.5103  152.9298 C   0  0  0  0  0  0  0  0  0  0  0  0
  146.7920  139.0880  153.0916 C   0  0  0  0  0  0  0  0  0  0  0  0
  151.5881  141.3422  158.3676 C   0  0  0  0  0  0  0  0  0  0  0  0
  152.3992  141.1438  159.4279 N   0  0  0  0  0  0  0  0  0  0  0  0
  154.7355  140.7309  162.3841 H   0  0  0  0  0  0  0  0  0  0  0  0
  154.5191  140.0831  160.7615 H   0  0  0  0  0  0  0  0  0  0  0  0
  153.1280  140.2443  161.8572 H   0  0  0  0  0  0  0  0  0  0  0  0
  153.3253  144.3659  159.9531 H   0  0  0  0  0  0  0  0  0  0  0  0
  151.8267  144.7322  158.0170 H   0  0  0  0  0  0  0  0  0  0  0  0
  150.0940  143.5927  156.4805 H   0  0  0  0  0  0  0  0  0  0  0  0
  149.0166  143.1313  154.9109 H   0  0  0  0  0  0  0  0  0  0  0  0
  148.6116  141.7720  152.9994 H   0  0  0  0  0  0  0  0  0  0  0  0
  148.9705  140.3329  153.9262 H   0  0  0  0  0  0  0  0  0  0  0  0
  146.7804  141.6573  155.2696 H   0  0  0  0  0  0  0  0  0  0  0  0
  146.4372  141.7584  153.5652 H   0  0  0  0  0  0  0  0  0  0  0  0
  148.0855  139.0373  155.4074 H   0  0  0  0  0  0  0  0  0  0  0  0
  146.7429  139.5883  156.3837 H   0  0  0  0  0  0  0  0  0  0  0  0
  145.3597  137.6691  155.6607 H   0  0  0  0  0  0  0  0  0  0  0  0
  146.8503  137.2927  157.6264 H   0  0  0  0  0  0  0  0  0  0  0  0
  148.1365  136.7452  156.5514 H   0  0  0  0  0  0  0  0  0  0  0  0
  146.6461  135.8161  156.6878 H   0  0  0  0  0  0  0  0  0  0  0  0
  146.7480  137.1070  152.2721 H   0  0  0  0  0  0  0  0  0  0  0  0
  144.4543  137.9255  151.9708 H   0  0  0  0  0  0  0  0  0  0  0  0
  144.2167  138.0423  153.7069 H   0  0  0  0  0  0  0  0  0  0  0  0
  144.4523  136.4662  152.9546 H   0  0  0  0  0  0  0  0  0  0  0  0
  146.3693  139.5944  152.2244 H   0  0  0  0  0  0  0  0  0  0  0  0
  147.8736  139.0828  152.9472 H   0  0  0  0  0  0  0  0  0  0  0  0
  151.1180  140.4577  157.9627 H   0  0  0  0  0  0  0  0  0  0  0  0
  1  2  1  0  0  0  0
  1 23  1  0  0  0  0
  1 24  1  0  0  0  0
  1 25  1  0  0  0  0
  2  3  1  0  0  0  0
  3 22  1  0  0  0  0
  3  4  2  0  0  0  0
  4  5  1  0  0  0  0
  4 26  1  0  0  0  0
  5  6  2  0  0  0  0
  5 27  1  0  0  0  0
  6  7  1  0  0  0  0
  6 21  1  0  0  0  0
  7  8  1  0  0  0  0
  7 28  1  0  0  0  0
  8  9  2  0  0  0  0
  8 10  1  0  0  0  0
 10 11  1  0  0  0  0
 10 29  1  0  0  0  0
 11 12  1  0  0  0  0
 11 30  1  0  0  0  0
 11 31  1  0  0  0  0
 12 13  1  0  0  0  0
 12 32  1  0  0  0  0
 12 33  1  0  0  0  0
 13 20  1  0  0  0  0
 13 14  1  0  0  0  0
 14 15  1  0  0  0  0
 14 34  1  0  0  0  0
 14 35  1  0  0  0  0
 15 16  1  0  0  0  0
 15 17  1  0  0  0  0
 15 36  1  0  0  0  0
 16 37  1  0  0  0  0
 16 38  1  0  0  0  0
 16 39  1  0  0  0  0
 17 18  1  0  0  0  0
 18 19  1  0  0  0  0
 18 20  1  0  0  0  0
 18 40  1  0  0  0  0
 19 41  1  0  0  0  0
 19 42  1  0  0  0  0
 19 43  1  0  0  0  0
 20 44  1  0  0  0  0
 20 45  1  0  0  0  0
 21 22  2  0  0  0  0
 21 46  1  0  0  0  0
M  END
> <s_m_source_file>
AV-unprocessed.smi

> <i_m_source_file_index>
1430

> <i_lp_mmshare_version>
43012

> <i_f3d_flags>
0

> <s_epik_input>
W0NIM11PYzFbY0hdW2NIXWMoW2NIXW4xKVtOSF1DKD1PKVtOSF1bQ0gyXVtDSDJdTjJbQ0gyXVtDQEBIXShbQ0gzXSlPW0NAQEhdKFtDSDNdKVtDSDJdMg==

> <s_epik_cmdline>
J2VwaWtfcHl0aG9uJywgJy1waCcsICc3LjAnLCAnLXRuJywgJzgnLCAnLW1hJywgJzIwMCcsICctbWV0YWxfYmluZGluZycsICctaW1hZScsICc8aW5maWxlLm1hZT4nLCAnLW9tYWUnLCAnPG91dGZpbGUubWFlPic=

> <r_lp_tautomer_probability>
1

> <r_epik_Ionization_Penalty>
0.266083

> <r_epik_Ionization_Penalty_Charging>
0

> <r_epik_Ionization_Penalty_Neutral>
0.266083

> <r_epik_State_Penalty>
0.257924

> <r_epik_Charging_Adjusted_Penalty>
0.257924

> <i_epik_Tot_Q>
0

> <i_epik_Tot_abs_Q>
0

> <r_epik_Metal_State_Penalty>
0.257922

> <b_epik_Metal_Only>
0

> <s_lp_Force_Field>
OPLS_2005

> <r_lp_Energy>
25.3264

> <b_lp_Chiralities_Consistent>
1

> <s_lp_Variant>
AV-unprocessed.smi:1430-2

> <Gold.Version>
5.8.1

> <Gold.Id.Protein>
6NUR|6NUR_protein|mol2

> <Gold.PLP.Fitness>
39.8482

> <Gold.PLP.PLP>
-34.8579

> <Gold.PLP.part.hbond>
-2.3633

> <Gold.PLP.part.metal>
0.0000

> <Gold.PLP.part.buried>
-3.1016

> <Gold.PLP.part.nonpolar>
-29.6569

> <Gold.PLP.part.repulsive>
0.5174

> <Gold.PLP.ligand.clash>
0.0000

> <Gold.PLP.ligand.torsion>
0.5249

> <Gold.PLP.Chemscore.Hbond>
2.0000

> <Gold.PLP.Chemscore.CHOScore>
0.0000

> <Gold.PLP.Chemscore.Metal>
0.0000

> <Gold.Chemscore.Hbonds>
donor molecule, donor type, donor heavy atom, donor atom, acceptor molecule, acceptor atom, score
      L1  H     7    28       P1  8028  1.00
      L1  H    10    29       P1  8028  1.00

> <Gold.PLP.Chemscore.Internal.Correction>
0.0401

> <Gold.Rescore>
     Score         DG    S(hbond)    S(metal)    S(lipo)     H(rot)  DE(clash)    DE(int)     intcor
     15.12     -17.07       1.96        0.00      80.58       1.71       0.03       1.92       ----

> <Gold.Chemscore.Fitness>
15.1187

> <Gold.Chemscore.DG>
-17.0669

> <Gold.Chemscore.ZeroCoef>
-5.4800

> <Gold.Chemscore.Hbond>
1.9576

> <Gold.Chemscore.Metal>
0.0000

> <Gold.Chemscore.Lipo>
80.5818

> <Gold.Chemscore.Internal_Hbond>
0.0000

> <Gold.Chemscore.DEClash>
0.0297

> <Gold.Chemscore.DEInternal>
1.9185

> <Gold.Chemscore.Rot>
1.7107

> <Gold.Chemscore.Internal.Correction>
   9.000000E+99

> <Gold.Chemscore.Hbonds>
donor molecule, donor type, donor heavy atom, donor atom, acceptor molecule, acceptor atom, score
      L1  H     7    28       P1  8028  0.97
      L1  H    10    29       P1  8028  0.97

> <Gold.Chemscore.Hbond.Weighted>
-6.5383

> <Gold.Chemscore.Metal.Weighted>
-0.0000

> <Gold.Chemscore.Lipo.Weighted>
-9.4281

> <Gold.Chemscore.Internal_Hbond.Weighted>
0.0000

> <Gold.Chemscore.DEClash.Weighted>
0.0297

> <Gold.Chemscore.DEInternal.Weighted>
1.9185

> <Gold.Chemscore.Rot.Weighted>
4.3794

> <Gold.Chemscore.Internal.Correction.Weighted>
   9.000000E+99

> <Gold.Protein.RotatedTorsions>
[ 6907 6896 6895 6894 ] final  -51.41 input  -60.11 | X-H torsion
[ 7974 7965 7964 7962 ] final   43.54 input  175.53 | X-H torsion
[ 8008 7997 7996 7995 ] final -132.81 input   59.86 | X-H torsion
[ 10167 10162 10161 10158 ] final   69.56 input  -65.29 | X-H torsion
[ 10718 10713 10712 10709 ] final   75.50 input   66.30 | X-H torsion
[ 10763 10752 10751 10750 ] final   -2.41 input  -60.55 | X-H torsion
[ 11005 11000 10999 10996 ] final   94.44 input  -57.11 | X-H torsion

> <Gold.Protein.ActiveResidues>
 VAL166  LYS551  ARG553  GLY616  TRP617  ASP618  TYR619  PRO620  LYS621  CYS622 
 ASP623  PHE694  ASN695  SER759  ASP760  ASP761  ALA762  ILE779  LEU786  VAL792 
 PHE793  MET794  SER795  GLU796  ALA797  LYS798  CYS799  TRP800  GLU811  SER814 

> <Gold.Protein.RotatedAtoms>
  150.8614  134.7967  159.7085 H   0  0  0  0  0  0  0  0  0  0  0  0  # atno 6907 bound_to 6896
  152.4650  134.5094  159.9759 H   0  0  0  0  0  0  0  0  0  0  0  0  # atno 6908 bound_to 6896
  151.5197  133.3430  159.2935 H   0  0  0  0  0  0  0  0  0  0  0  0  # atno 6909 bound_to 6896
  146.0647  139.5175  142.9636 H   0  0  0  0  0  0  0  0  0  0  0  0  # atno 7974 bound_to 7965
  155.3351  140.0469  157.3043 H   0  0  0  0  0  0  0  0  0  0  0  0  # atno 8008 bound_to 7997
  154.5307  140.2256  155.8774 H   0  0  0  0  0  0  0  0  0  0  0  0  # atno 8009 bound_to 7997
  156.1786  140.3079  155.9112 H   0  0  0  0  0  0  0  0  0  0  0  0  # atno 8010 bound_to 7997
  140.0665  144.5189  150.7257 H   0  0  0  0  0  0  0  0  0  0  0  0  # atno 10167 bound_to 10162
  157.6636  130.9729  150.1362 H   0  0  0  0  0  0  0  0  0  0  0  0  # atno 10718 bound_to 10713
  153.3576  135.6989  153.6738 H   0  0  0  0  0  0  0  0  0  0  0  0  # atno 10763 bound_to 10752
  153.5439  135.3567  155.2731 H   0  0  0  0  0  0  0  0  0  0  0  0  # atno 10764 bound_to 10752
  154.8663  135.4210  154.2826 H   0  0  0  0  0  0  0  0  0  0  0  0  # atno 10765 bound_to 10752
  139.8798  134.8845  156.3865 H   0  0  0  0  0  0  0  0  0  0  0  0  # atno 11005 bound_to 11000
  145.6499  141.0265  143.1766 LP  0  0  0  0  0  0  0  0  0  0  0  0  # atno 17320 bound_to 7965
  144.7195  139.8079  143.7387 LP  0  0  0  0  0  0  0  0  0  0  0  0  # atno 17321 bound_to 7965
  140.7146  143.2534  151.4473 LP  0  0  0  0  0  0  0  0  0  0  0  0  # atno 17342 bound_to 10162
  139.5862  144.1600  152.2031 LP  0  0  0  0  0  0  0  0  0  0  0  0  # atno 17343 bound_to 10162
  156.2196  130.3673  149.8571 LP  0  0  0  0  0  0  0  0  0  0  0  0  # atno 17370 bound_to 10713
  156.6428  130.8711  151.3517 LP  0  0  0  0  0  0  0  0  0  0  0  0  # atno 17371 bound_to 10713
  140.9362  133.7545  156.0088 LP  0  0  0  0  0  0  0  0  0  0  0  0  # atno 17394 bound_to 11000
  140.8272  134.3220  157.5361 LP  0  0  0  0  0  0  0  0  0  0  0  0  # atno 17395 bound_to 11000

$$$$
