AV-unprocessed.smi:2501|AV-procd|sdf|9844|dock2
  -GOLD-   2272013473D 1   1.00000     0.00000
 Structure written by MMmdl.
 44 45  0  0  0  0  0  0  0  0  2 V2000
  151.6838  138.9155  155.9567 C   0  0  0  0  0  0  0  0  0  0  0  0
  150.6290  139.7824  155.2918 C   0  0  0  0  0  0  0  0  0  0  0  0
  150.7649  141.1877  155.3307 C   0  0  0  0  0  0  0  0  0  0  0  0
  149.8390  141.9771  154.7455 N   0  3  0  0  0  0  0  0  0  0  0  0
  148.7571  141.4840  154.1068 C   0  0  0  0  0  0  0  0  0  0  0  0
  148.5629  140.0905  154.0327 C   0  0  0  0  0  0  0  0  0  0  0  0
  149.5058  139.2222  154.6280 C   0  0  0  0  0  0  0  0  0  0  0  0
  149.2835  137.7195  154.5440 C   0  0  0  0  0  0  0  0  0  0  0  0
  147.8462  137.3228  154.9091 C   0  0  0  0  0  0  0  0  0  0  0  0
  147.0793  137.0177  153.7087 N   0  0  0  0  0  0  0  0  0  0  0  0
  145.7393  137.0543  153.6236 C   0  0  0  0  0  0  0  0  0  0  0  0
  145.0339  137.3723  154.5820 O   0  0  0  0  0  0  0  0  0  0  0  0
  145.2367  136.7158  152.4090 N   0  0  0  0  0  0  0  0  0  0  0  0
  146.0111  136.3602  151.2088 C   0  0  0  0  0  0  0  0  0  0  0  0
  145.9056  134.8399  150.9832 C   0  0  0  0  0  0  0  0  0  0  0  0
  144.4340  134.3588  150.8846 C   0  0  0  0  0  0  0  0  0  0  0  0
  143.9078  134.8329  149.6573 O   0  0  0  0  0  0  0  0  0  0  0  0
  144.3403  132.8143  150.8536 C   0  0  0  0  0  0  0  0  0  0  0  0
  143.0908  132.4353  150.5826 F   0  0  0  0  0  0  0  0  0  0  0  0
  145.1403  132.3116  149.9124 F   0  0  0  0  0  0  0  0  0  0  0  0
  144.6822  132.3009  152.0364 F   0  0  0  0  0  0  0  0  0  0  0  0
  143.5759  134.9611  152.0276 C   0  0  0  0  0  0  0  0  0  0  0  0
  143.8049  136.4756  152.1986 C   0  0  0  0  0  0  0  0  0  0  0  0
  152.4100  139.5232  156.4975 H   0  0  0  0  0  0  0  0  0  0  0  0
  152.2245  138.3332  155.2104 H   0  0  0  0  0  0  0  0  0  0  0  0
  151.2298  138.2289  156.6709 H   0  0  0  0  0  0  0  0  0  0  0  0
  151.5836  141.7041  155.8109 H   0  0  0  0  0  0  0  0  0  0  0  0
  148.0848  142.2130  153.6784 H   0  0  0  0  0  0  0  0  0  0  0  0
  147.6962  139.6937  153.5239 H   0  0  0  0  0  0  0  0  0  0  0  0
  149.5084  137.3879  153.5293 H   0  0  0  0  0  0  0  0  0  0  0  0
  149.9948  137.2008  155.1870 H   0  0  0  0  0  0  0  0  0  0  0  0
  147.8568  136.4581  155.5740 H   0  0  0  0  0  0  0  0  0  0  0  0
  147.3536  138.1340  155.4467 H   0  0  0  0  0  0  0  0  0  0  0  0
  147.5986  136.7533  152.8841 H   0  0  0  0  0  0  0  0  0  0  0  0
  145.6050  136.8958  150.3495 H   0  0  0  0  0  0  0  0  0  0  0  0
  147.0591  136.6554  151.2551 H   0  0  0  0  0  0  0  0  0  0  0  0
  146.4591  134.5590  150.0863 H   0  0  0  0  0  0  0  0  0  0  0  0
  146.3997  134.3332  151.8132 H   0  0  0  0  0  0  0  0  0  0  0  0
  142.9659  134.7589  149.6874 H   0  0  0  0  0  0  0  0  0  0  0  0
  142.5176  134.7641  151.8532 H   0  0  0  0  0  0  0  0  0  0  0  0
  143.8235  134.4660  152.9675 H   0  0  0  0  0  0  0  0  0  0  0  0
  143.1890  136.8531  153.0161 H   0  0  0  0  0  0  0  0  0  0  0  0
  143.4714  137.0135  151.3100 H   0  0  0  0  0  0  0  0  0  0  0  0
  149.9622  142.9890  154.7887 H   0  0  0  0  0  0  0  0  0  0  0  0
  1  2  1  0  0  0  0
  1 24  1  0  0  0  0
  1 25  1  0  0  0  0
  1 26  1  0  0  0  0
  2  7  1  0  0  0  0
  2  3  2  0  0  0  0
  3  4  1  0  0  0  0
  3 27  1  0  0  0  0
  4  5  2  0  0  0  0
  4 44  1  0  0  0  0
  5  6  1  0  0  0  0
  5 28  1  0  0  0  0
  6  7  2  0  0  0  0
  6 29  1  0  0  0  0
  7  8  1  0  0  0  0
  8  9  1  0  0  0  0
  8 30  1  0  0  0  0
  8 31  1  0  0  0  0
  9 10  1  0  0  0  0
  9 32  1  0  0  0  0
  9 33  1  0  0  0  0
 10 11  1  0  0  0  0
 10 34  1  0  0  0  0
 11 12  2  0  0  0  0
 11 13  1  0  0  0  0
 13 23  1  0  0  0  0
 13 14  1  0  0  0  0
 14 15  1  0  0  0  0
 14 35  1  0  0  0  0
 14 36  1  0  0  0  0
 15 16  1  0  0  0  0
 15 37  1  0  0  0  0
 15 38  1  0  0  0  0
 16 17  1  0  0  0  0
 16 18  1  0  0  0  0
 16 22  1  0  0  0  0
 17 39  1  0  0  0  0
 18 19  1  0  0  0  0
 18 20  1  0  0  0  0
 18 21  1  0  0  0  0
 22 23  1  0  0  0  0
 22 40  1  0  0  0  0
 22 41  1  0  0  0  0
 23 42  1  0  0  0  0
 23 43  1  0  0  0  0
M  CHG  1   4   1
M  END
> <s_m_source_file>
AV-unprocessed.smi

> <i_m_source_file_index>
2501

> <i_lp_mmshare_version>
43012

> <i_f3d_flags>
0

> <s_epik_input>
W0NIM11jMVtjSF1uW2NIXVtjSF1jMVtDSDJdW0NIMl1bTkhdQyg9TylOKFtDSDJdW0NIMl0yKVtDSDJdW0NIMl1DMihbT0hdKUMoRikoRilG

> <s_epik_cmdline>
J2VwaWtfcHl0aG9uJywgJy1waCcsICc3LjAnLCAnLXRuJywgJzgnLCAnLW1hJywgJzIwMCcsICctbWV0YWxfYmluZGluZycsICctaW1hZScsICc8aW5maWxlLm1hZT4nLCAnLW9tYWUnLCAnPG91dGZpbGUubWFlPic=

> <r_epik_Ionization_Penalty>
1.07295

> <r_epik_Ionization_Penalty_Charging>
1.07289

> <r_epik_Ionization_Penalty_Neutral>
5.75735e-05

> <r_epik_State_Penalty>
1.12763

> <r_epik_Charging_Adjusted_Penalty>
2.20053

> <i_epik_Tot_Q>
1

> <i_epik_Tot_abs_Q>
1

> <r_epik_Metal_State_Penalty>
1.21871

> <b_epik_Metal_Only>
0

> <s_lp_Force_Field>
OPLS_2005

> <r_lp_Energy>
44.1439

> <b_lp_Chiralities_Consistent>
1

> <s_lp_Variant>
AV-unprocessed.smi:2501-2

> <Gold.Version>
5.8.1

> <Gold.Id.Protein>
6NUR|6NUR_protein|mol2

> <Gold.PLP.Fitness>
53.2525

> <Gold.PLP.PLP>
-42.6553

> <Gold.PLP.part.hbond>
-4.0000

> <Gold.PLP.part.metal>
0.0000

> <Gold.PLP.part.buried>
-3.2226

> <Gold.PLP.part.nonpolar>
-35.5228

> <Gold.PLP.part.repulsive>
0.9216

> <Gold.PLP.ligand.clash>
0.0000

> <Gold.PLP.ligand.torsion>
0.7343

> <Gold.PLP.Chemscore.Hbond>
4.0000

> <Gold.PLP.Chemscore.CHOScore>
0.0000

> <Gold.PLP.Chemscore.Metal>
0.0000

> <Gold.Chemscore.Hbonds>
donor molecule, donor type, donor heavy atom, donor atom, acceptor molecule, acceptor atom, score
      L1  H     4    44       P1  8028  0.86
      L1  H    10    34       P1  7948  1.00
      L1  H    17    39       P1 10186  1.00

> <Gold.PLP.Chemscore.Internal.Correction>
0.0657

> <Gold.Rescore>
     Score         DG    S(hbond)    S(metal)    S(lipo)     H(rot)  DE(clash)    DE(int)     intcor
     17.79     -18.54       2.82        0.00      75.40       2.02       0.12       0.63       ----

> <Gold.Chemscore.Fitness>
17.7935

> <Gold.Chemscore.DG>
-18.5368

> <Gold.Chemscore.ZeroCoef>
-5.4800

> <Gold.Chemscore.Hbond>
2.8161

> <Gold.Chemscore.Metal>
0.0000

> <Gold.Chemscore.Lipo>
75.3958

> <Gold.Chemscore.Internal_Hbond>
0.0000

> <Gold.Chemscore.DEClash>
0.1176

> <Gold.Chemscore.DEInternal>
0.6257

> <Gold.Chemscore.Rot>
2.0196

> <Gold.Chemscore.Internal.Correction>
   9.000000E+99

> <Gold.Chemscore.Hbonds>
donor molecule, donor type, donor heavy atom, donor atom, acceptor molecule, acceptor atom, score
      L1  H     4    44       P1  8028  0.43
      L1  H    10    34       P1  7948  1.00
      L1  H    17    39       P1 10186  0.80

> <Gold.Chemscore.Hbond.Weighted>
-9.4057

> <Gold.Chemscore.Metal.Weighted>
-0.0000

> <Gold.Chemscore.Lipo.Weighted>
-8.8213

> <Gold.Chemscore.Internal_Hbond.Weighted>
0.0000

> <Gold.Chemscore.DEClash.Weighted>
0.1176

> <Gold.Chemscore.DEInternal.Weighted>
0.6257

> <Gold.Chemscore.Rot.Weighted>
5.1702

> <Gold.Chemscore.Internal.Correction.Weighted>
   9.000000E+99

> <Gold.Protein.RotatedTorsions>
[ 6907 6896 6895 6894 ] final   63.59 input  -60.11 | X-H torsion
[ 7974 7965 7964 7962 ] final -148.50 input  175.53 | X-H torsion
[ 8008 7997 7996 7995 ] final  -24.58 input   59.86 | X-H torsion
[ 10167 10162 10161 10158 ] final -116.02 input  -65.29 | X-H torsion
[ 10718 10713 10712 10709 ] final   60.17 input   66.30 | X-H torsion
[ 10763 10752 10751 10750 ] final   94.30 input  -60.55 | X-H torsion
[ 11005 11000 10999 10996 ] final -164.08 input  -57.11 | X-H torsion

> <Gold.Protein.ActiveResidues>
 VAL166  LYS551  ARG553  GLY616  TRP617  ASP618  TYR619  PRO620  LYS621  CYS622 
 ASP623  PHE694  ASN695  SER759  ASP760  ASP761  ALA762  ILE779  LEU786  VAL792 
 PHE793  MET794  SER795  GLU796  ALA797  LYS798  CYS799  TRP800  GLU811  SER814 

> <Gold.Protein.RotatedAtoms>
  152.4265  134.5859  159.9960 H   0  0  0  0  0  0  0  0  0  0  0  0  # atno 6907 bound_to 6896
  151.5994  133.3352  159.3052 H   0  0  0  0  0  0  0  0  0  0  0  0  # atno 6908 bound_to 6896
  150.8154  134.7370  159.6791 H   0  0  0  0  0  0  0  0  0  0  0  0  # atno 6909 bound_to 6896
  144.8025  140.5188  143.5697 H   0  0  0  0  0  0  0  0  0  0  0  0  # atno 7974 bound_to 7965
  154.4521  140.1950  156.0486 H   0  0  0  0  0  0  0  0  0  0  0  0  # atno 8008 bound_to 7997
  156.0671  140.3289  155.7503 H   0  0  0  0  0  0  0  0  0  0  0  0  # atno 8009 bound_to 7997
  155.5322  140.0579  157.2877 H   0  0  0  0  0  0  0  0  0  0  0  0  # atno 8010 bound_to 7997
  140.0837  143.4764  152.1911 H   0  0  0  0  0  0  0  0  0  0  0  0  # atno 10167 bound_to 10162
  157.5733  130.8924  149.9303 H   0  0  0  0  0  0  0  0  0  0  0  0  # atno 10718 bound_to 10713
  153.2401  135.4294  155.0689 H   0  0  0  0  0  0  0  0  0  0  0  0  # atno 10763 bound_to 10752
  154.8337  135.3400  154.6661 H   0  0  0  0  0  0  0  0  0  0  0  0  # atno 10764 bound_to 10752
  153.7085  135.7024  153.5100 H   0  0  0  0  0  0  0  0  0  0  0  0  # atno 10765 bound_to 10752
  140.5909  134.5046  157.5192 H   0  0  0  0  0  0  0  0  0  0  0  0  # atno 11005 bound_to 11000
  145.5517  139.1477  143.3390 LP  0  0  0  0  0  0  0  0  0  0  0  0  # atno 17320 bound_to 7965
  146.2310  140.5655  142.8975 LP  0  0  0  0  0  0  0  0  0  0  0  0  # atno 17321 bound_to 7965
  139.5765  144.7490  151.3753 LP  0  0  0  0  0  0  0  0  0  0  0  0  # atno 17342 bound_to 10162
  140.7064  143.7502  150.7490 LP  0  0  0  0  0  0  0  0  0  0  0  0  # atno 17343 bound_to 10162
  156.0777  130.3677  150.0643 LP  0  0  0  0  0  0  0  0  0  0  0  0  # atno 17370 bound_to 10713
  156.8793  130.9551  151.3601 LP  0  0  0  0  0  0  0  0  0  0  0  0  # atno 17371 bound_to 10713
  139.9275  134.8028  156.1027 LP  0  0  0  0  0  0  0  0  0  0  0  0  # atno 17394 bound_to 11000
  141.0935  133.6704  156.2594 LP  0  0  0  0  0  0  0  0  0  0  0  0  # atno 17395 bound_to 11000

$$$$
