AV-unprocessed.smi:2027|AV-procd|sdf|8219|dock8
  -GOLD-   2272010493D 1   1.00000     0.00000
 Structure written by MMmdl.
 51 53  0  0  0  0  0  0  0  0  3 V2000
  152.8096  143.1270  160.9333 C   0  0  0  0  0  0  0  0  0  0  0  0
  152.1070  142.6101  159.6896 C   0  0  0  0  0  0  0  0  0  0  0  0
  152.4659  141.3373  159.1924 C   0  0  0  0  0  0  0  0  0  0  0  0
  151.8043  140.8908  158.0551 C   0  0  0  0  0  0  0  0  0  0  0  0
  151.9287  139.7010  157.3357 N   0  3  0  0  0  0  0  0  0  0  0  0
  151.0615  139.7115  156.2866 C   0  0  0  0  0  0  0  0  0  0  0  0
  150.3877  140.8943  156.3199 N   0  0  0  0  0  0  0  0  0  0  0  0
  149.3364  141.3994  155.4202 C   0  0  0  0  0  0  0  0  0  0  0  0
  148.7397  140.3239  154.4859 C   0  0  2  0  0  0  0  0  0  0  0  0
  149.7252  139.9275  153.5515 O   0  0  0  0  0  0  0  0  0  0  0  0
  147.4871  140.7955  153.7161 C   0  0  0  0  0  0  0  0  0  0  0  0
  146.4617  139.7312  153.5502 N   0  3  2  0  0  0  0  0  0  0  0  0
  146.0067  139.1970  154.8538 C   0  0  0  0  0  0  0  0  0  0  0  0
  146.8369  138.6526  152.5975 C   0  0  0  0  0  0  0  0  0  0  0  0
  145.8614  137.5109  152.6864 C   0  0  0  0  0  0  0  0  0  0  0  0
  146.1199  136.1598  153.0577 C   0  0  0  0  0  0  0  0  0  0  0  0
  145.0379  135.4007  153.0263 N   0  0  0  0  0  0  0  0  0  0  0  0
  144.0508  136.2377  152.6479 N   0  0  0  0  0  0  0  0  0  0  0  0
  142.7017  135.7326  152.5086 C   0  0  0  0  0  0  0  0  0  0  0  0
  144.5169  137.5178  152.4401 C   0  0  0  0  0  0  0  0  0  0  0  0
  150.8156  141.6616  157.4115 C   0  0  0  0  0  0  0  0  0  0  0  0
  150.4519  142.9192  157.8889 C   0  0  0  0  0  0  0  0  0  0  0  0
  151.1135  143.3915  159.0450 C   0  0  0  0  0  0  0  0  0  0  0  0
  150.7360  144.7594  159.5881 C   0  0  0  0  0  0  0  0  0  0  0  0
  153.5047  142.3890  161.3346 H   0  0  0  0  0  0  0  0  0  0  0  0
  152.0859  143.3604  161.7145 H   0  0  0  0  0  0  0  0  0  0  0  0
  153.3764  144.0297  160.7044 H   0  0  0  0  0  0  0  0  0  0  0  0
  153.2218  140.7370  159.6782 H   0  0  0  0  0  0  0  0  0  0  0  0
  150.9329  138.9239  155.5581 H   0  0  0  0  0  0  0  0  0  0  0  0
  148.5508  141.8185  156.0507 H   0  0  0  0  0  0  0  0  0  0  0  0
  149.7278  142.2358  154.8419 H   0  0  0  0  0  0  0  0  0  0  0  0
  148.4928  139.4603  155.1009 H   0  0  0  0  0  0  0  0  0  0  0  0
  149.4309  140.1646  152.6847 H   0  0  0  0  0  0  0  0  0  0  0  0
  147.0349  141.6528  154.2171 H   0  0  0  0  0  0  0  0  0  0  0  0
  147.7912  141.1438  152.7280 H   0  0  0  0  0  0  0  0  0  0  0  0
  146.8175  138.6789  155.3676 H   0  0  0  0  0  0  0  0  0  0  0  0
  145.1825  138.4960  154.7158 H   0  0  0  0  0  0  0  0  0  0  0  0
  145.6481  139.9990  155.5000 H   0  0  0  0  0  0  0  0  0  0  0  0
  146.8956  139.0474  151.5823 H   0  0  0  0  0  0  0  0  0  0  0  0
  147.8429  138.2904  152.8142 H   0  0  0  0  0  0  0  0  0  0  0  0
  147.0591  135.7086  153.3424 H   0  0  0  0  0  0  0  0  0  0  0  0
  142.0066  136.5589  152.3587 H   0  0  0  0  0  0  0  0  0  0  0  0
  142.4141  135.1874  153.4081 H   0  0  0  0  0  0  0  0  0  0  0  0
  142.6471  135.0624  151.6505 H   0  0  0  0  0  0  0  0  0  0  0  0
  143.8612  138.3188  152.1315 H   0  0  0  0  0  0  0  0  0  0  0  0
  149.6952  143.5177  157.4044 H   0  0  0  0  0  0  0  0  0  0  0  0
  150.0013  145.2536  158.9517 H   0  0  0  0  0  0  0  0  0  0  0  0
  151.6122  145.4056  159.6465 H   0  0  0  0  0  0  0  0  0  0  0  0
  150.3056  144.6682  160.5857 H   0  0  0  0  0  0  0  0  0  0  0  0
  145.6534  140.1870  153.1505 H   0  0  0  0  0  0  0  0  0  0  0  0
  152.5555  138.9343  157.5457 H   0  0  0  0  0  0  0  0  0  0  0  0
  1  2  1  0  0  0  0
  1 25  1  0  0  0  0
  1 26  1  0  0  0  0
  1 27  1  0  0  0  0
  2 23  1  0  0  0  0
  2  3  2  0  0  0  0
  3  4  1  0  0  0  0
  3 28  1  0  0  0  0
  4 21  2  0  0  0  0
  4  5  1  0  0  0  0
  5  6  2  0  0  0  0
  5 51  1  0  0  0  0
  6  7  1  0  0  0  0
  6 29  1  0  0  0  0
  7  8  1  0  0  0  0
  7 21  1  0  0  0  0
  8  9  1  0  0  0  0
  8 30  1  0  0  0  0
  8 31  1  0  0  0  0
  9 10  1  0  0  0  0
  9 11  1  0  0  0  0
  9 32  1  0  0  0  0
 10 33  1  0  0  0  0
 11 12  1  0  0  0  0
 11 34  1  0  0  0  0
 11 35  1  0  0  0  0
 12 13  1  0  0  0  0
 12 14  1  0  0  0  0
 12 50  1  0  0  0  0
 13 36  1  0  0  0  0
 13 37  1  0  0  0  0
 13 38  1  0  0  0  0
 14 15  1  0  0  0  0
 14 39  1  0  0  0  0
 14 40  1  0  0  0  0
 15 20  2  0  0  0  0
 15 16  1  0  0  0  0
 16 17  2  0  0  0  0
 16 41  1  0  0  0  0
 17 18  1  0  0  0  0
 18 19  1  0  0  0  0
 18 20  1  0  0  0  0
 19 42  1  0  0  0  0
 19 43  1  0  0  0  0
 19 44  1  0  0  0  0
 20 45  1  0  0  0  0
 21 22  1  0  0  0  0
 22 23  2  0  0  0  0
 22 46  1  0  0  0  0
 23 24  1  0  0  0  0
 24 47  1  0  0  0  0
 24 48  1  0  0  0  0
 24 49  1  0  0  0  0
M  CHG  1   5   1
M  CHG  1  12   1
M  END
> <s_m_source_file>
AV-unprocessed.smi

> <i_m_source_file_index>
2027

> <i_lp_mmshare_version>
43012

> <i_f3d_flags>
0

> <s_epik_input>
W0NIM11jKFtjSF0xKWMoW0NIM10pW2NIXWMoYzEyKW4oW2NIXW4yKVtDSDJdW0NASF0oW09IXSlbQ0gyXU4oW0NIM10pW0NIMl1jM1tjSF1ubihbQ0gzXSlbY0hdMw==

> <s_epik_cmdline>
J2VwaWtfcHl0aG9uJywgJy1waCcsICc3LjAnLCAnLXRuJywgJzgnLCAnLW1hJywgJzIwMCcsICctbWV0YWxfYmluZGluZycsICctaW1hZScsICc8aW5maWxlLm1hZT4nLCAnLW9tYWUnLCAnPG91dGZpbGUubWFlPic=

> <r_lp_tautomer_probability>
1

> <r_epik_Ionization_Penalty>
1.77469

> <r_epik_Ionization_Penalty_Charging>
1.77463

> <r_epik_Ionization_Penalty_Neutral>
6.41153e-05

> <r_epik_State_Penalty>
1.85225

> <r_epik_Charging_Adjusted_Penalty>
3.62688

> <i_epik_Tot_Q>
2

> <i_epik_Tot_abs_Q>
2

> <r_epik_Metal_State_Penalty>
1.92669

> <b_epik_Metal_Only>
0

> <s_lp_Force_Field>
OPLS_2005

> <r_lp_Energy>
22.3184

> <b_lp_Chiralities_Consistent>
1

> <s_lp_Variant>
AV-unprocessed.smi:2027-11

> <Gold.Version>
5.8.1

> <Gold.Id.Protein>
6NUR|6NUR_protein|mol2

> <Gold.PLP.Fitness>
56.6269

> <Gold.PLP.PLP>
-42.1673

> <Gold.PLP.part.hbond>
-2.2097

> <Gold.PLP.part.metal>
0.0000

> <Gold.PLP.part.buried>
-3.6165

> <Gold.PLP.part.nonpolar>
-37.7364

> <Gold.PLP.part.repulsive>
0.1652

> <Gold.PLP.ligand.clash>
0.0065

> <Gold.PLP.ligand.torsion>
0.8366

> <Gold.PLP.Chemscore.Hbond>
2.9900

> <Gold.PLP.Chemscore.CHOScore>
2.3237

> <Gold.PLP.Chemscore.Metal>
0.0000

> <Gold.Chemscore.Hbonds>
donor molecule, donor type, donor heavy atom, donor atom, acceptor molecule, acceptor atom, score
      L1  H    10    33       P1  7957  0.96
      L1  H    12    50       P1 10175  1.66
      P1  H  7989  7998       L1    10  0.46
      L1  C    16    41       P1  7948  0.70
      L1  C    20    45       P1 10171  0.65
      L1  C    20    45       P1 10175  1.00

> <Gold.PLP.Chemscore.Internal.Correction>
0.1982

> <Gold.Rescore>
     Score         DG    S(hbond)    S(metal)    S(lipo)     H(rot)  DE(clash)    DE(int)     intcor
     17.93     -18.75       1.74        0.00     120.23       2.58       0.05       0.77       ----

> <Gold.Chemscore.Fitness>
17.9347

> <Gold.Chemscore.DG>
-18.7536

> <Gold.Chemscore.ZeroCoef>
-5.4800

> <Gold.Chemscore.Hbond>
1.7426

> <Gold.Chemscore.Metal>
0.0000

> <Gold.Chemscore.Lipo>
120.2315

> <Gold.Chemscore.Internal_Hbond>
0.0000

> <Gold.Chemscore.DEClash>
0.0494

> <Gold.Chemscore.DEInternal>
0.7695

> <Gold.Chemscore.Rot>
2.5836

> <Gold.Chemscore.Internal.Correction>
   9.000000E+99

> <Gold.Chemscore.Hbonds>
donor molecule, donor type, donor heavy atom, donor atom, acceptor molecule, acceptor atom, score
      L1  H    10    33       P1  7957  0.87
      L1  H    12    50       P1 10175  0.79
      P1  H  7989  7998       L1    10  0.08

> <Gold.Chemscore.Hbond.Weighted>
-5.8204

> <Gold.Chemscore.Metal.Weighted>
-0.0000

> <Gold.Chemscore.Lipo.Weighted>
-14.0671

> <Gold.Chemscore.Internal_Hbond.Weighted>
0.0000

> <Gold.Chemscore.DEClash.Weighted>
0.0494

> <Gold.Chemscore.DEInternal.Weighted>
0.7695

> <Gold.Chemscore.Rot.Weighted>
6.6139

> <Gold.Chemscore.Internal.Correction.Weighted>
   9.000000E+99

> <Gold.Protein.RotatedTorsions>
[ 6907 6896 6895 6894 ] final  -31.35 input  -60.11 | X-H torsion
[ 7974 7965 7964 7962 ] final   13.70 input  175.53 | X-H torsion
[ 8008 7997 7996 7995 ] final  127.76 input   59.86 | X-H torsion
[ 10167 10162 10161 10158 ] final -146.52 input  -65.29 | X-H torsion
[ 10718 10713 10712 10709 ] final   46.62 input   66.30 | X-H torsion
[ 10763 10752 10751 10750 ] final   88.92 input  -60.55 | X-H torsion
[ 11005 11000 10999 10996 ] final  -58.56 input  -57.11 | X-H torsion

> <Gold.Protein.ActiveResidues>
 VAL166  LYS551  ARG553  GLY616  TRP617  ASP618  TYR619  PRO620  LYS621  CYS622 
 ASP623  PHE694  ASN695  SER759  ASP760  ASP761  ALA762  ILE779  LEU786  VAL792 
 PHE793  MET794  SER795  GLU796  ALA797  LYS798  CYS799  TRP800  GLU811  SER814 

> <Gold.Protein.RotatedAtoms>
  151.0933  134.9929  159.8413 H   0  0  0  0  0  0  0  0  0  0  0  0  # atno 6907 bound_to 6896
  152.5431  134.2039  159.8733 H   0  0  0  0  0  0  0  0  0  0  0  0  # atno 6908 bound_to 6896
  151.2076  133.4530  159.2631 H   0  0  0  0  0  0  0  0  0  0  0  0  # atno 6909 bound_to 6896
  146.2323  139.9150  142.8518 H   0  0  0  0  0  0  0  0  0  0  0  0  # atno 7974 bound_to 7965
  156.2899  140.2661  156.2325 H   0  0  0  0  0  0  0  0  0  0  0  0  # atno 8008 bound_to 7997
  155.0058  140.0387  157.2397 H   0  0  0  0  0  0  0  0  0  0  0  0  # atno 8009 bound_to 7997
  154.7561  140.2752  155.6257 H   0  0  0  0  0  0  0  0  0  0  0  0  # atno 8010 bound_to 7997
  139.7706  143.8244  152.2624 H   0  0  0  0  0  0  0  0  0  0  0  0  # atno 10167 bound_to 10162
  157.4500  130.8132  149.7779 H   0  0  0  0  0  0  0  0  0  0  0  0  # atno 10718 bound_to 10713
  153.1817  135.4489  155.0037 H   0  0  0  0  0  0  0  0  0  0  0  0  # atno 10763 bound_to 10752
  154.8034  135.3265  154.7494 H   0  0  0  0  0  0  0  0  0  0  0  0  # atno 10764 bound_to 10752
  153.7958  135.6966  153.4919 H   0  0  0  0  0  0  0  0  0  0  0  0  # atno 10765 bound_to 10752
  141.1212  133.6613  156.4939 H   0  0  0  0  0  0  0  0  0  0  0  0  # atno 11005 bound_to 11000
  145.2192  140.9928  143.4055 LP  0  0  0  0  0  0  0  0  0  0  0  0  # atno 17320 bound_to 7965
  144.9625  139.3965  143.6349 LP  0  0  0  0  0  0  0  0  0  0  0  0  # atno 17321 bound_to 7965
  139.8277  144.7268  150.9491 LP  0  0  0  0  0  0  0  0  0  0  0  0  # atno 17342 bound_to 10162
  140.7813  143.4099  151.1010 LP  0  0  0  0  0  0  0  0  0  0  0  0  # atno 17343 bound_to 10162
  155.9983  130.3895  150.2707 LP  0  0  0  0  0  0  0  0  0  0  0  0  # atno 17370 bound_to 10713
  157.0878  131.0161  151.3133 LP  0  0  0  0  0  0  0  0  0  0  0  0  # atno 17371 bound_to 10713
  140.4501  134.6937  157.5035 LP  0  0  0  0  0  0  0  0  0  0  0  0  # atno 17394 bound_to 11000
  140.0171  134.6602  155.9293 LP  0  0  0  0  0  0  0  0  0  0  0  0  # atno 17395 bound_to 11000

$$$$
