AV-unprocessed.smi:2024|AV-procd|sdf|8192|dock9
  -GOLD-   2272010443D 1   1.00000     0.00000
 Structure written by MMmdl.
 44 45  0  0  0  0  0  0  0  0  2 V2000
  151.8992  137.0134  156.5862 C   0  0  0  0  0  0  0  0  0  0  0  0
  151.5884  136.5988  155.2224 N   0  0  0  0  0  0  0  0  0  0  0  0
  150.3828  135.7771  155.1249 C   0  0  0  0  0  0  0  0  0  0  0  0
  149.1007  136.5965  155.3765 C   0  0  0  0  0  0  0  0  0  0  0  0
  148.9917  137.7278  154.4090 N   0  3  0  0  0  0  0  0  0  0  0  0
  147.6727  138.4641  154.4197 C   0  0  0  0  0  0  0  0  0  0  0  0
  147.4841  139.2454  155.7437 C   0  0  0  0  0  0  0  0  0  0  0  0
  147.5952  139.4852  153.2532 C   0  0  0  0  0  0  0  0  0  0  0  0
  146.5236  137.4272  154.2160 C   0  0  0  0  0  0  0  0  0  0  0  0
  146.7284  136.5119  153.0927 N   0  0  0  0  0  0  0  0  0  0  0  0
  145.7782  135.7682  152.5070 C   0  0  0  0  0  0  0  0  0  0  0  0
  144.5967  135.7825  152.8534 O   0  0  0  0  0  0  0  0  0  0  0  0
  146.2876  135.0272  151.5076 N   0  0  0  0  0  0  0  0  0  0  0  0
  145.6033  134.1365  150.6396 C   0  0  0  0  0  0  0  0  0  0  0  0
  144.3417  134.3056  150.2268 N   0  0  0  0  0  0  0  0  0  0  0  0
  143.9260  133.2769  149.3777 C   0  0  0  0  0  0  0  0  0  0  0  0
  144.8911  132.3273  149.1521 C   0  0  0  0  0  0  0  0  0  0  0  0
  146.3695  132.6890  150.0021 S   0  0  0  0  0  0  0  0  0  0  0  0
  150.2207  138.5678  154.5102 C   0  0  0  0  0  0  0  0  0  0  0  0
  151.4918  137.7195  154.2892 C   0  0  0  0  0  0  0  0  0  0  0  0
  152.0146  136.1399  157.2287 H   0  0  0  0  0  0  0  0  0  0  0  0
  151.1290  137.6511  157.0185 H   0  0  0  0  0  0  0  0  0  0  0  0
  152.8405  137.5638  156.6067 H   0  0  0  0  0  0  0  0  0  0  0  0
  150.3423  135.3317  154.1298 H   0  0  0  0  0  0  0  0  0  0  0  0
  150.4490  134.9489  155.8315 H   0  0  0  0  0  0  0  0  0  0  0  0
  148.2574  135.9162  155.2875 H   0  0  0  0  0  0  0  0  0  0  0  0
  149.0878  136.9645  156.4023 H   0  0  0  0  0  0  0  0  0  0  0  0
  146.6022  139.8855  155.7072 H   0  0  0  0  0  0  0  0  0  0  0  0
  148.3326  139.8959  155.9552 H   0  0  0  0  0  0  0  0  0  0  0  0
  147.3525  138.5803  156.5976 H   0  0  0  0  0  0  0  0  0  0  0  0
  146.6117  139.9486  153.1777 H   0  0  0  0  0  0  0  0  0  0  0  0
  147.8034  139.0120  152.2928 H   0  0  0  0  0  0  0  0  0  0  0  0
  148.2914  140.3138  153.3827 H   0  0  0  0  0  0  0  0  0  0  0  0
  146.4250  136.8149  155.1130 H   0  0  0  0  0  0  0  0  0  0  0  0
  145.5566  137.9108  154.0884 H   0  0  0  0  0  0  0  0  0  0  0  0
  147.6710  136.4344  152.7392 H   0  0  0  0  0  0  0  0  0  0  0  0
  147.2796  135.1137  151.3432 H   0  0  0  0  0  0  0  0  0  0  0  0
  142.9234  133.3002  148.9770 H   0  0  0  0  0  0  0  0  0  0  0  0
  144.8220  131.4408  148.5395 H   0  0  0  0  0  0  0  0  0  0  0  0
  150.2378  139.3362  153.7399 H   0  0  0  0  0  0  0  0  0  0  0  0
  150.2544  139.0829  155.4704 H   0  0  0  0  0  0  0  0  0  0  0  0
  152.3833  138.3418  154.3742 H   0  0  0  0  0  0  0  0  0  0  0  0
  151.4906  137.3225  153.2732 H   0  0  0  0  0  0  0  0  0  0  0  0
  149.0440  137.3070  153.4923 H   0  0  0  0  0  0  0  0  0  0  0  0
  1  2  1  0  0  0  0
  1 21  1  0  0  0  0
  1 22  1  0  0  0  0
  1 23  1  0  0  0  0
  2 20  1  0  0  0  0
  2  3  1  0  0  0  0
  3  4  1  0  0  0  0
  3 24  1  0  0  0  0
  3 25  1  0  0  0  0
  4  5  1  0  0  0  0
  4 26  1  0  0  0  0
  4 27  1  0  0  0  0
  5  6  1  0  0  0  0
  5 19  1  0  0  0  0
  5 44  1  0  0  0  0
  6  7  1  0  0  0  0
  6  8  1  0  0  0  0
  6  9  1  0  0  0  0
  7 28  1  0  0  0  0
  7 29  1  0  0  0  0
  7 30  1  0  0  0  0
  8 31  1  0  0  0  0
  8 32  1  0  0  0  0
  8 33  1  0  0  0  0
  9 10  1  0  0  0  0
  9 34  1  0  0  0  0
  9 35  1  0  0  0  0
 10 11  1  0  0  0  0
 10 36  1  0  0  0  0
 11 12  2  0  0  0  0
 11 13  1  0  0  0  0
 13 14  1  0  0  0  0
 13 37  1  0  0  0  0
 14 18  1  0  0  0  0
 14 15  2  0  0  0  0
 15 16  1  0  0  0  0
 16 17  2  0  0  0  0
 16 38  1  0  0  0  0
 17 18  1  0  0  0  0
 17 39  1  0  0  0  0
 19 20  1  0  0  0  0
 19 40  1  0  0  0  0
 19 41  1  0  0  0  0
 20 42  1  0  0  0  0
 20 43  1  0  0  0  0
M  CHG  1   5   1
M  END
> <s_m_source_file>
AV-unprocessed.smi

> <i_m_source_file_index>
2024

> <i_lp_mmshare_version>
43012

> <i_f3d_flags>
0

> <s_epik_input>
W0NIM11OMVtDSDJdW0NIMl1OKFtDSDJdW0NIMl0xKUMoW0NIM10pKFtDSDNdKVtDSDJdW05IXUMoPU8pW05IXWMybltjSF1bY0hdczI=

> <s_epik_cmdline>
J2VwaWtfcHl0aG9uJywgJy1waCcsICc3LjAnLCAnLXRuJywgJzgnLCAnLW1hJywgJzIwMCcsICctbWV0YWxfYmluZGluZycsICctaW1hZScsICc8aW5maWxlLm1hZT4nLCAnLW9tYWUnLCAnPG91dGZpbGUubWFlPic=

> <r_epik_Ionization_Penalty>
0.100627

> <r_epik_Ionization_Penalty_Charging>
0.0985296

> <r_epik_Ionization_Penalty_Neutral>
0.00209722

> <r_epik_State_Penalty>
1.056

> <r_epik_Charging_Adjusted_Penalty>
1.15453

> <i_epik_Tot_Q>
1

> <i_epik_Tot_abs_Q>
1

> <r_epik_Metal_State_Penalty>
1.08856

> <b_epik_Metal_Only>
0

> <s_lp_Force_Field>
OPLS_2005

> <r_lp_Energy>
25.1468

> <b_lp_Chiralities_Consistent>
1

> <s_lp_Variant>
AV-unprocessed.smi:2024-2

> <Gold.Version>
5.8.1

> <Gold.Id.Protein>
6NUR|6NUR_protein|mol2

> <Gold.PLP.Fitness>
44.7840

> <Gold.PLP.PLP>
-27.9301

> <Gold.PLP.part.hbond>
-4.0000

> <Gold.PLP.part.metal>
0.0000

> <Gold.PLP.part.buried>
-1.9220

> <Gold.PLP.part.nonpolar>
-22.9759

> <Gold.PLP.part.repulsive>
0.4135

> <Gold.PLP.ligand.clash>
0.0000

> <Gold.PLP.ligand.torsion>
0.4572

> <Gold.PLP.Chemscore.Hbond>
4.8960

> <Gold.PLP.Chemscore.CHOScore>
1.0000

> <Gold.PLP.Chemscore.Metal>
0.0000

> <Gold.Chemscore.Hbonds>
donor molecule, donor type, donor heavy atom, donor atom, acceptor molecule, acceptor atom, score
      L1  H     5    44       P1  7948  2.00
      L1  H    10    36       P1  7948  1.00
      L1  H    13    37       P1  7948  0.90
      P1  H 10752 10765       L1     2  0.95
      L1  C    16    38       P1 10186  1.00

> <Gold.PLP.Chemscore.Internal.Correction>
0.0803

> <Gold.Rescore>
     Score         DG    S(hbond)    S(metal)    S(lipo)     H(rot)  DE(clash)    DE(int)     intcor
     18.34     -18.99       2.68        0.00      73.82       1.60       0.10       0.55       ----

> <Gold.Chemscore.Fitness>
18.3382

> <Gold.Chemscore.DG>
-18.9854

> <Gold.Chemscore.ZeroCoef>
-5.4800

> <Gold.Chemscore.Hbond>
2.6834

> <Gold.Chemscore.Metal>
0.0000

> <Gold.Chemscore.Lipo>
73.8168

> <Gold.Chemscore.Internal_Hbond>
0.0000

> <Gold.Chemscore.DEClash>
0.1021

> <Gold.Chemscore.DEInternal>
0.5452

> <Gold.Chemscore.Rot>
1.5991

> <Gold.Chemscore.Internal.Correction>
   9.000000E+99

> <Gold.Chemscore.Hbonds>
donor molecule, donor type, donor heavy atom, donor atom, acceptor molecule, acceptor atom, score
      L1  H     5    44       P1  7948  0.99
      L1  H    10    36       P1  7948  0.97
      L1  H    13    37       P1  7948  0.58
      P1  H 10752 10765       L1     2  0.10

> <Gold.Chemscore.Hbond.Weighted>
-8.9625

> <Gold.Chemscore.Metal.Weighted>
-0.0000

> <Gold.Chemscore.Lipo.Weighted>
-8.6366

> <Gold.Chemscore.Internal_Hbond.Weighted>
0.0000

> <Gold.Chemscore.DEClash.Weighted>
0.1021

> <Gold.Chemscore.DEInternal.Weighted>
0.5452

> <Gold.Chemscore.Rot.Weighted>
4.0936

> <Gold.Chemscore.Internal.Correction.Weighted>
   9.000000E+99

> <Gold.Protein.RotatedTorsions>
[ 6907 6896 6895 6894 ] final   67.23 input  -60.11 | X-H torsion
[ 7974 7965 7964 7962 ] final  -74.56 input  175.53 | X-H torsion
[ 8008 7997 7996 7995 ] final   63.43 input   59.86 | X-H torsion
[ 10167 10162 10161 10158 ] final  -74.19 input  -65.29 | X-H torsion
[ 10718 10713 10712 10709 ] final  -37.30 input   66.30 | X-H torsion
[ 10763 10752 10751 10750 ] final  167.38 input  -60.55 | X-H torsion
[ 11005 11000 10999 10996 ] final -130.38 input  -57.11 | X-H torsion

> <Gold.Protein.ActiveResidues>
 VAL166  LYS551  ARG553  GLY616  TRP617  ASP618  TYR619  PRO620  LYS621  CYS622 
 ASP623  PHE694  ASN695  SER759  ASP760  ASP761  ALA762  ILE779  LEU786  VAL792 
 PHE793  MET794  SER795  GLU796  ALA797  LYS798  CYS799  TRP800  GLU811  SER814 

> <Gold.Protein.RotatedAtoms>
  152.4538  134.5337  159.9818 H   0  0  0  0  0  0  0  0  0  0  0  0  # atno 6907 bound_to 6896
  151.5403  133.3428  159.2942 H   0  0  0  0  0  0  0  0  0  0  0  0  # atno 6908 bound_to 6896
  150.8475  134.7819  159.7045 H   0  0  0  0  0  0  0  0  0  0  0  0  # atno 6909 bound_to 6896
  145.6374  140.9320  143.1054 H   0  0  0  0  0  0  0  0  0  0  0  0  # atno 7974 bound_to 7965
  155.6301  140.3496  155.4680 H   0  0  0  0  0  0  0  0  0  0  0  0  # atno 8008 bound_to 7997
  156.0010  140.1213  157.0571 H   0  0  0  0  0  0  0  0  0  0  0  0  # atno 8009 bound_to 7997
  154.4249  140.1100  156.5683 H   0  0  0  0  0  0  0  0  0  0  0  0  # atno 8010 bound_to 7997
  140.5048  143.2355  151.7692 H   0  0  0  0  0  0  0  0  0  0  0  0  # atno 10167 bound_to 10162
  156.3168  130.4260  149.7997 H   0  0  0  0  0  0  0  0  0  0  0  0  # atno 10718 bound_to 10713
  154.3530  135.2753  155.2361 H   0  0  0  0  0  0  0  0  0  0  0  0  # atno 10763 bound_to 10752
  154.4583  135.5913  153.6241 H   0  0  0  0  0  0  0  0  0  0  0  0  # atno 10764 bound_to 10752
  152.9848  135.6058  154.3742 H   0  0  0  0  0  0  0  0  0  0  0  0  # atno 10765 bound_to 10752
  140.9350  134.1269  157.4201 H   0  0  0  0  0  0  0  0  0  0  0  0  # atno 11005 bound_to 11000
  144.7170  139.8162  143.7395 LP  0  0  0  0  0  0  0  0  0  0  0  0  # atno 17320 bound_to 7965
  146.1308  139.4343  143.0170 LP  0  0  0  0  0  0  0  0  0  0  0  0  # atno 17321 bound_to 7965
  139.4881  144.4472  151.9696 LP  0  0  0  0  0  0  0  0  0  0  0  0  # atno 17342 bound_to 10162
  140.3562  144.3028  150.5941 LP  0  0  0  0  0  0  0  0  0  0  0  0  # atno 17343 bound_to 10162
  156.5320  130.8262  151.3240 LP  0  0  0  0  0  0  0  0  0  0  0  0  # atno 17370 bound_to 10713
  157.7403  130.9848  150.2371 LP  0  0  0  0  0  0  0  0  0  0  0  0  # atno 17371 bound_to 10713
  139.8805  135.0018  156.6088 LP  0  0  0  0  0  0  0  0  0  0  0  0  # atno 17394 bound_to 11000
  140.7811  133.8659  155.8568 LP  0  0  0  0  0  0  0  0  0  0  0  0  # atno 17395 bound_to 11000

$$$$
