AV-unprocessed.smi:224|AV-procd|sdf|1714|dock2
  -GOLD-   2262020183D 1   1.00000     0.00000
 Structure written by MMmdl.
 56 59  0  0  0  0  0  0  0  0  2 V2000
  145.1359  132.4247  150.2909 C   0  0  0  0  0  0  0  0  0  0  0  0
  145.6750  130.9888  150.3160 C   0  0  1  0  0  0  0  0  0  0  0  0
  146.8607  130.9583  149.5466 O   0  0  0  0  0  0  0  0  0  0  0  0
  145.9789  130.5200  151.7544 C   0  0  0  0  0  0  0  0  0  0  0  0
  147.3031  130.9655  152.2698 N   0  3  1  0  0  0  0  0  0  0  0  0
  147.4500  132.4452  152.2281 C   0  0  0  0  0  0  0  0  0  0  0  0
  148.8774  132.8760  152.6108 C   0  0  0  0  0  0  0  0  0  0  0  0
  149.2698  132.2940  153.8884 N   0  0  0  0  0  0  0  0  0  0  0  0
  149.1678  132.9941  155.0529 C   0  0  0  0  0  0  0  0  0  0  0  0
  148.7723  132.3080  156.1574 N   0  0  0  0  0  0  0  0  0  0  0  0
  148.6538  132.9192  157.3383 C   0  0  0  0  0  0  0  0  0  0  0  0
  148.8752  134.1983  157.6382 N   0  0  0  0  0  0  0  0  0  0  0  0
  149.2683  134.9027  156.5398 C   0  0  0  0  0  0  0  0  0  0  0  0
  149.4436  134.3870  155.2213 C   0  0  0  0  0  0  0  0  0  0  0  0
  149.8466  135.4173  154.3776 N   0  0  0  0  0  0  0  0  0  0  0  0
  149.9177  136.4668  155.1481 C   0  0  0  0  0  0  0  0  0  0  0  0
  149.5752  136.2502  156.4620 N   0  0  0  0  0  0  0  0  0  0  0  0
  149.5622  137.2380  157.5310 C   0  0  0  0  0  0  0  0  0  0  0  0
  150.9596  137.8151  157.8591 C   0  0  2  0  0  0  0  0  0  0  0  0
  151.7648  136.7880  158.4127 O   0  0  0  0  0  0  0  0  0  0  0  0
  150.9063  138.9689  158.8522 C   0  0  0  0  0  0  0  0  0  0  0  0
  152.1406  139.7821  158.4863 C   0  0  0  0  0  0  0  0  0  0  0  0
  152.1557  139.7176  157.0700 O   0  0  0  0  0  0  0  0  0  0  0  0
  151.7084  138.4289  156.6579 C   0  0  0  0  0  0  0  0  0  0  0  0
  149.1623  130.8361  153.9355 C   0  0  0  0  0  0  0  0  0  0  0  0
  147.7365  130.3666  153.5724 C   0  0  1  0  0  0  0  0  0  0  0  0
  146.7408  130.6115  154.7263 C   0  0  0  0  0  0  0  0  0  0  0  0
  144.2065  132.5035  150.8558 H   0  0  0  0  0  0  0  0  0  0  0  0
  144.9283  132.7494  149.2705 H   0  0  0  0  0  0  0  0  0  0  0  0
  145.8489  133.1268  150.7248 H   0  0  0  0  0  0  0  0  0  0  0  0
  144.9334  130.3467  149.8423 H   0  0  0  0  0  0  0  0  0  0  0  0
  147.6022  131.0801  150.1190 H   0  0  0  0  0  0  0  0  0  0  0  0
  145.2006  130.9110  152.4115 H   0  0  0  0  0  0  0  0  0  0  0  0
  145.9021  129.4348  151.8247 H   0  0  0  0  0  0  0  0  0  0  0  0
  147.2276  132.8093  151.2246 H   0  0  0  0  0  0  0  0  0  0  0  0
  146.7169  132.9018  152.8927 H   0  0  0  0  0  0  0  0  0  0  0  0
  149.5745  132.5126  151.8552 H   0  0  0  0  0  0  0  0  0  0  0  0
  148.9865  133.9596  152.6056 H   0  0  0  0  0  0  0  0  0  0  0  0
  148.3378  132.2938  158.1604 H   0  0  0  0  0  0  0  0  0  0  0  0
  150.2170  137.4360  154.7756 H   0  0  0  0  0  0  0  0  0  0  0  0
  148.8820  138.0420  157.2468 H   0  0  0  0  0  0  0  0  0  0  0  0
  149.1290  136.7735  158.4179 H   0  0  0  0  0  0  0  0  0  0  0  0
  152.5522  136.7147  157.8950 H   0  0  0  0  0  0  0  0  0  0  0  0
  150.0174  139.5772  158.6789 H   0  0  0  0  0  0  0  0  0  0  0  0
  150.8932  138.6518  159.8959 H   0  0  0  0  0  0  0  0  0  0  0  0
  152.0906  140.8113  158.8425 H   0  0  0  0  0  0  0  0  0  0  0  0
  153.0460  139.3214  158.8842 H   0  0  0  0  0  0  0  0  0  0  0  0
  152.5549  137.8182  156.3398 H   0  0  0  0  0  0  0  0  0  0  0  0
  151.0598  138.5627  155.7933 H   0  0  0  0  0  0  0  0  0  0  0  0
  149.8697  130.4323  153.2101 H   0  0  0  0  0  0  0  0  0  0  0  0
  149.4601  130.4186  154.8973 H   0  0  0  0  0  0  0  0  0  0  0  0
  147.8090  129.2882  153.4388 H   0  0  0  0  0  0  0  0  0  0  0  0
  147.1250  130.1978  155.6589 H   0  0  0  0  0  0  0  0  0  0  0  0
  145.7801  130.1309  154.5427 H   0  0  0  0  0  0  0  0  0  0  0  0
  146.5578  131.6724  154.8952 H   0  0  0  0  0  0  0  0  0  0  0  0
  147.9719  130.6278  151.5927 H   0  0  0  0  0  0  0  0  0  0  0  0
  1  2  1  0  0  0  0
  1 28  1  0  0  0  0
  1 29  1  0  0  0  0
  1 30  1  0  0  0  0
  2  3  1  0  0  0  0
  2  4  1  0  0  0  0
  2 31  1  0  0  0  0
  3 32  1  0  0  0  0
  4  5  1  0  0  0  0
  4 33  1  0  0  0  0
  4 34  1  0  0  0  0
  5 26  1  0  0  0  0
  5  6  1  0  0  0  0
  5 56  1  0  0  0  0
  6  7  1  0  0  0  0
  6 35  1  0  0  0  0
  6 36  1  0  0  0  0
  7  8  1  0  0  0  0
  7 37  1  0  0  0  0
  7 38  1  0  0  0  0
  8  9  1  0  0  0  0
  8 25  1  0  0  0  0
  9 14  1  0  0  0  0
  9 10  2  0  0  0  0
 10 11  1  0  0  0  0
 11 12  2  0  0  0  0
 11 39  1  0  0  0  0
 12 13  1  0  0  0  0
 13 17  1  0  0  0  0
 13 14  2  0  0  0  0
 14 15  1  0  0  0  0
 15 16  2  0  0  0  0
 16 17  1  0  0  0  0
 16 40  1  0  0  0  0
 17 18  1  0  0  0  0
 18 19  1  0  0  0  0
 18 41  1  0  0  0  0
 18 42  1  0  0  0  0
 19 24  1  0  0  0  0
 19 20  1  0  0  0  0
 19 21  1  0  0  0  0
 20 43  1  0  0  0  0
 21 22  1  0  0  0  0
 21 44  1  0  0  0  0
 21 45  1  0  0  0  0
 22 23  1  0  0  0  0
 22 46  1  0  0  0  0
 22 47  1  0  0  0  0
 23 24  1  0  0  0  0
 24 48  1  0  0  0  0
 24 49  1  0  0  0  0
 25 26  1  0  0  0  0
 25 50  1  0  0  0  0
 25 51  1  0  0  0  0
 26 27  1  0  0  0  0
 26 52  1  0  0  0  0
 27 53  1  0  0  0  0
 27 54  1  0  0  0  0
 27 55  1  0  0  0  0
M  CHG  1   5   1
M  END
> <s_m_source_file>
AV-unprocessed.smi

> <i_m_source_file_index>
224

> <i_lp_mmshare_version>
43012

> <i_f3d_flags>
0

> <s_epik_input>
W0NIM11bQ0BIXShbT0hdKVtDSDJdTjFbQ0gyXVtDSDJdTihbQ0gyXVtDQEhdMVtDSDNdKWMobltjSF1uMiljKGMyMyluW2NIXW4zW0NIMl1bQ0BAXTQoW09IXSlbQ0gyXVtDSDJdT1tDSDJdNA==

> <s_epik_cmdline>
J2VwaWtfcHl0aG9uJywgJy1waCcsICc3LjAnLCAnLXRuJywgJzgnLCAnLW1hJywgJzIwMCcsICctbWV0YWxfYmluZGluZycsICctaW1hZScsICc8aW5maWxlLm1hZT4nLCAnLW9tYWUnLCAnPG91dGZpbGUubWFlPic=

> <r_lp_tautomer_probability>
1

> <r_epik_Ionization_Penalty>
0.00516958

> <r_epik_Ionization_Penalty_Charging>
0.00509693

> <r_epik_Ionization_Penalty_Neutral>
7.26542e-05

> <r_epik_State_Penalty>
-0

> <r_epik_Charging_Adjusted_Penalty>
0.00509693

> <i_epik_Tot_Q>
1

> <i_epik_Tot_abs_Q>
1

> <r_epik_Metal_State_Penalty>
-0

> <b_epik_Metal_Only>
0

> <s_lp_Force_Field>
OPLS_2005

> <r_lp_Energy>
50.9618

> <b_lp_Chiralities_Consistent>
1

> <s_lp_Variant>
AV-unprocessed.smi:224-8

> <Gold.Version>
5.8.1

> <Gold.Id.Protein>
6NUR|6NUR_protein|mol2

> <Gold.PLP.Fitness>
50.6568

> <Gold.PLP.PLP>
-38.9156

> <Gold.PLP.part.hbond>
-5.0000

> <Gold.PLP.part.metal>
0.0000

> <Gold.PLP.part.buried>
-7.9210

> <Gold.PLP.part.nonpolar>
-27.0473

> <Gold.PLP.part.repulsive>
0.1813

> <Gold.PLP.ligand.clash>
0.0000

> <Gold.PLP.ligand.torsion>
0.6203

> <Gold.PLP.Chemscore.Hbond>
4.2480

> <Gold.PLP.Chemscore.CHOScore>
0.0000

> <Gold.PLP.Chemscore.Metal>
0.0000

> <Gold.Chemscore.Hbonds>
donor molecule, donor type, donor heavy atom, donor atom, acceptor molecule, acceptor atom, score
      L1  H     3    32       P1 10747  0.55
      L1  H     5    56       P1 10747  1.00
      P1  H  6896  6908       L1    20  0.30
      P1  H  7997  8009       L1    23  0.28

> <Gold.PLP.Chemscore.Internal.Correction>
0.2379

> <Gold.Rescore>
     Score         DG    S(hbond)    S(metal)    S(lipo)     H(rot)  DE(clash)    DE(int)     intcor
     17.72     -19.88       3.82        0.00      80.05       3.02       0.25       1.91       ----

> <Gold.Chemscore.Fitness>
17.7185

> <Gold.Chemscore.DG>
-19.8765

> <Gold.Chemscore.ZeroCoef>
-5.4800

> <Gold.Chemscore.Hbond>
3.8232

> <Gold.Chemscore.Metal>
0.0000

> <Gold.Chemscore.Lipo>
80.0512

> <Gold.Chemscore.Internal_Hbond>
0.0000

> <Gold.Chemscore.DEClash>
0.2518

> <Gold.Chemscore.DEInternal>
1.9061

> <Gold.Chemscore.Rot>
3.0231

> <Gold.Chemscore.Internal.Correction>
   9.000000E+99

> <Gold.Chemscore.Hbonds>
donor molecule, donor type, donor heavy atom, donor atom, acceptor molecule, acceptor atom, score
      L1  H     3    32       P1 10747  0.55
      L1  H     5    56       P1 10747  0.97
      P1  H  6896  6908       L1    20  0.24
      P1  H  7997  8009       L1    23  0.05

> <Gold.Chemscore.Hbond.Weighted>
-12.7696

> <Gold.Chemscore.Metal.Weighted>
-0.0000

> <Gold.Chemscore.Lipo.Weighted>
-9.3660

> <Gold.Chemscore.Internal_Hbond.Weighted>
0.0000

> <Gold.Chemscore.DEClash.Weighted>
0.2518

> <Gold.Chemscore.DEInternal.Weighted>
1.9061

> <Gold.Chemscore.Rot.Weighted>
7.7391

> <Gold.Chemscore.Internal.Correction.Weighted>
   9.000000E+99

> <Gold.Protein.RotatedTorsions>
[ 6907 6896 6895 6894 ] final -118.32 input  -60.11 | X-H torsion
[ 7974 7965 7964 7962 ] final -124.64 input  175.53 | X-H torsion
[ 8008 7997 7996 7995 ] final  173.36 input   59.86 | X-H torsion
[ 10167 10162 10161 10158 ] final   43.35 input  -65.29 | X-H torsion
[ 10718 10713 10712 10709 ] final   76.83 input   66.30 | X-H torsion
[ 10763 10752 10751 10750 ] final   52.00 input  -60.55 | X-H torsion
[ 11005 11000 10999 10996 ] final -139.39 input  -57.11 | X-H torsion

> <Gold.Protein.ActiveResidues>
 VAL166  LYS551  ARG553  GLY616  TRP617  ASP618  TYR619  PRO620  LYS621  CYS622 
 ASP623  PHE694  ASN695  SER759  ASP760  ASP761  ALA762  ILE779  LEU786  VAL792 
 PHE793  MET794  SER795  GLU796  ALA797  LYS798  CYS799  TRP800  GLU811  SER814 

> <Gold.Protein.RotatedAtoms>
  150.8210  133.8253  159.3139 H   0  0  0  0  0  0  0  0  0  0  0  0  # atno 6907 bound_to 6896
  151.6012  135.1045  160.0070 H   0  0  0  0  0  0  0  0  0  0  0  0  # atno 6908 bound_to 6896
  152.4299  133.7218  159.6594 H   0  0  0  0  0  0  0  0  0  0  0  0  # atno 6909 bound_to 6896
  145.0060  140.7863  143.4467 H   0  0  0  0  0  0  0  0  0  0  0  0  # atno 7974 bound_to 7965
  156.1083  140.1462  156.9373 H   0  0  0  0  0  0  0  0  0  0  0  0  # atno 8008 bound_to 7997
  154.4749  140.0897  156.7282 H   0  0  0  0  0  0  0  0  0  0  0  0  # atno 8009 bound_to 7997
  155.4640  140.3439  155.4319 H   0  0  0  0  0  0  0  0  0  0  0  0  # atno 8010 bound_to 7997
  140.3453  144.2419  150.6151 H   0  0  0  0  0  0  0  0  0  0  0  0  # atno 10167 bound_to 10162
  157.6688  130.9793  150.1553 H   0  0  0  0  0  0  0  0  0  0  0  0  # atno 10718 bound_to 10713
  152.9787  135.5827  154.4508 H   0  0  0  0  0  0  0  0  0  0  0  0  # atno 10763 bound_to 10752
  154.4097  135.2770  155.2047 H   0  0  0  0  0  0  0  0  0  0  0  0  # atno 10764 bound_to 10752
  154.3842  135.6140  153.5861 H   0  0  0  0  0  0  0  0  0  0  0  0  # atno 10765 bound_to 10752
  140.8525  134.2269  157.4753 H   0  0  0  0  0  0  0  0  0  0  0  0  # atno 11005 bound_to 11000
  145.2088  139.2215  143.5154 LP  0  0  0  0  0  0  0  0  0  0  0  0  # atno 17320 bound_to 7965
  146.3461  140.1922  142.8589 LP  0  0  0  0  0  0  0  0  0  0  0  0  # atno 17321 bound_to 7965
  140.5271  143.2252  151.8298 LP  0  0  0  0  0  0  0  0  0  0  0  0  # atno 17342 bound_to 10162
  139.4834  144.4766  151.9358 LP  0  0  0  0  0  0  0  0  0  0  0  0  # atno 17343 bound_to 10162
  156.2343  130.3685  149.8409 LP  0  0  0  0  0  0  0  0  0  0  0  0  # atno 17370 bound_to 10713
  156.6227  130.8633  151.3479 LP  0  0  0  0  0  0  0  0  0  0  0  0  # atno 17371 bound_to 10713
  139.8704  134.9690  156.4651 LP  0  0  0  0  0  0  0  0  0  0  0  0  # atno 17394 bound_to 11000
  140.8774  133.7943  155.9430 LP  0  0  0  0  0  0  0  0  0  0  0  0  # atno 17395 bound_to 11000

$$$$
