AV-unprocessed.smi:45|AV-procd|sdf|407|dock7
  -GOLD-   2262016263D 1   1.00000     0.00000
 Structure written by MMmdl.
 60 63  0  0  0  0  0  0  0  0  1 V2000
  156.3478  131.5398  153.8764 C   0  0  0  0  0  0  0  0  0  0  0  0
  155.7297  130.2773  153.6749 O   0  0  0  0  0  0  0  0  0  0  0  0
  154.3855  130.1567  153.9608 C   0  0  0  0  0  0  0  0  0  0  0  0
  153.5962  131.2091  154.4893 C   0  0  0  0  0  0  0  0  0  0  0  0
  152.2311  131.0115  154.7674 C   0  0  0  0  0  0  0  0  0  0  0  0
  151.6309  129.7622  154.5178 C   0  0  0  0  0  0  0  0  0  0  0  0
  150.1701  129.5354  154.8686 C   0  0  0  0  0  0  0  0  0  0  0  0
  149.5346  130.6859  155.4992 N   0  0  0  0  0  0  0  0  0  0  0  0
  149.0453  131.6666  154.6213 C   0  0  0  0  0  0  0  0  0  0  0  0
  148.1002  131.2778  153.7335 N   0  0  0  0  0  0  0  0  0  0  0  0
  147.5773  132.2013  152.9202 C   0  0  0  0  0  0  0  0  0  0  0  0
  146.5895  131.7708  152.0354 N   0  0  0  0  0  0  0  0  0  0  0  0
  145.9118  132.6978  151.1360 C   0  0  0  0  0  0  0  0  0  0  0  0
  144.5146  132.1219  150.9144 C   0  0  0  0  0  0  0  0  0  0  0  0
  144.7332  130.6240  151.0819 C   0  0  0  0  0  0  0  0  0  0  0  0
  145.8118  130.5382  152.1719 C   0  0  1  0  0  0  0  0  0  0  0  0
  146.6689  129.2602  152.0540 C   0  0  0  0  0  0  0  0  0  0  0  0
  147.4649  129.3160  150.8892 O   0  0  0  0  0  0  0  0  0  0  0  0
  147.9238  133.4919  152.8913 N   0  0  0  0  0  0  0  0  0  0  0  0
  148.8650  133.9016  153.7668 C   0  0  0  0  0  0  0  0  0  0  0  0
  149.4694  133.0207  154.6924 C   0  0  0  0  0  0  0  0  0  0  0  0
  150.4903  133.5168  155.6808 C   0  0  0  0  0  0  0  0  0  0  0  0
  150.9967  132.7634  156.5128 O   0  0  0  0  0  0  0  0  0  0  0  0
  150.7500  134.8325  155.6176 N   0  0  0  0  0  0  0  0  0  0  0  0
  151.6194  135.5592  156.5345 C   0  0  0  0  0  0  0  0  0  0  0  0
  151.5444  137.0615  156.3272 C   0  0  0  0  0  0  0  0  0  0  0  0
  151.6940  137.5017  155.0733 N   0  0  0  0  0  0  0  0  0  0  0  0
  151.6407  138.8380  154.8847 C   0  0  0  0  0  0  0  0  0  0  0  0
  151.4276  139.7302  155.9547 C   0  0  0  0  0  0  0  0  0  0  0  0
  151.2758  139.1495  157.2300 C   0  0  0  0  0  0  0  0  0  0  0  0
  151.3357  137.8128  157.4136 N   0  0  0  0  0  0  0  0  0  0  0  0
  152.4049  128.7131  153.9848 C   0  0  0  0  0  0  0  0  0  0  0  0
  153.7724  128.9081  153.7111 C   0  0  0  0  0  0  0  0  0  0  0  0
  154.6975  127.5944  153.0774 Cl  0  0  0  0  0  0  0  0  0  0  0  0
  145.3289  130.5663  153.1499 H   0  0  0  0  0  0  0  0  0  0  0  0
  157.4045  131.4674  153.6194 H   0  0  0  0  0  0  0  0  0  0  0  0
  156.2834  131.8522  154.9196 H   0  0  0  0  0  0  0  0  0  0  0  0
  155.9063  132.3083  153.2403 H   0  0  0  0  0  0  0  0  0  0  0  0
  154.0167  132.1799  154.6962 H   0  0  0  0  0  0  0  0  0  0  0  0
  151.6480  131.8193  155.1853 H   0  0  0  0  0  0  0  0  0  0  0  0
  149.6262  129.3041  153.9527 H   0  0  0  0  0  0  0  0  0  0  0  0
  150.0701  128.6617  155.5141 H   0  0  0  0  0  0  0  0  0  0  0  0
  148.8847  130.4351  156.2312 H   0  0  0  0  0  0  0  0  0  0  0  0
  145.8577  133.7065  151.5478 H   0  0  0  0  0  0  0  0  0  0  0  0
  146.4655  132.7427  150.1976 H   0  0  0  0  0  0  0  0  0  0  0  0
  143.8375  132.4835  151.6893 H   0  0  0  0  0  0  0  0  0  0  0  0
  144.0941  132.3884  149.9445 H   0  0  0  0  0  0  0  0  0  0  0  0
  143.8211  130.0886  151.3471 H   0  0  0  0  0  0  0  0  0  0  0  0
  145.1044  130.2085  150.1438 H   0  0  0  0  0  0  0  0  0  0  0  0
  147.3132  129.1407  152.9256 H   0  0  0  0  0  0  0  0  0  0  0  0
  146.0523  128.3648  151.9913 H   0  0  0  0  0  0  0  0  0  0  0  0
  147.9333  130.1368  150.8849 H   0  0  0  0  0  0  0  0  0  0  0  0
  149.1244  134.9496  153.7308 H   0  0  0  0  0  0  0  0  0  0  0  0
  150.2727  135.3815  154.9176 H   0  0  0  0  0  0  0  0  0  0  0  0
  151.3844  135.3136  157.5720 H   0  0  0  0  0  0  0  0  0  0  0  0
  152.6438  135.2222  156.3714 H   0  0  0  0  0  0  0  0  0  0  0  0
  151.7620  139.1974  153.8735 H   0  0  0  0  0  0  0  0  0  0  0  0
  151.3799  140.7985  155.8054 H   0  0  0  0  0  0  0  0  0  0  0  0
  151.1054  139.7591  158.1049 H   0  0  0  0  0  0  0  0  0  0  0  0
  151.9546  127.7482  153.8024 H   0  0  0  0  0  0  0  0  0  0  0  0
  1  2  1  0  0  0  0
  1 36  1  0  0  0  0
  1 37  1  0  0  0  0
  1 38  1  0  0  0  0
  2  3  1  0  0  0  0
  3 33  1  0  0  0  0
  3  4  2  0  0  0  0
  4  5  1  0  0  0  0
  4 39  1  0  0  0  0
  5  6  2  0  0  0  0
  5 40  1  0  0  0  0
  6  7  1  0  0  0  0
  6 32  1  0  0  0  0
  7  8  1  0  0  0  0
  7 41  1  0  0  0  0
  7 42  1  0  0  0  0
  8  9  1  0  0  0  0
  8 43  1  0  0  0  0
  9 21  1  0  0  0  0
  9 10  2  0  0  0  0
 10 11  1  0  0  0  0
 11 12  1  0  0  0  0
 11 19  2  0  0  0  0
 12 16  1  0  0  0  0
 12 13  1  0  0  0  0
 13 14  1  0  0  0  0
 13 44  1  0  0  0  0
 13 45  1  0  0  0  0
 14 15  1  0  0  0  0
 14 46  1  0  0  0  0
 14 47  1  0  0  0  0
 15 16  1  0  0  0  0
 15 48  1  0  0  0  0
 15 49  1  0  0  0  0
 16 35  1  0  0  0  0
 16 17  1  0  0  0  0
 17 18  1  0  0  0  0
 17 50  1  0  0  0  0
 17 51  1  0  0  0  0
 18 52  1  0  0  0  0
 19 20  1  0  0  0  0
 20 21  2  0  0  0  0
 20 53  1  0  0  0  0
 21 22  1  0  0  0  0
 22 23  2  0  0  0  0
 22 24  1  0  0  0  0
 24 25  1  0  0  0  0
 24 54  1  0  0  0  0
 25 26  1  0  0  0  0
 25 55  1  0  0  0  0
 25 56  1  0  0  0  0
 26 31  1  0  0  0  0
 26 27  2  0  0  0  0
 27 28  1  0  0  0  0
 28 29  2  0  0  0  0
 28 57  1  0  0  0  0
 29 30  1  0  0  0  0
 29 58  1  0  0  0  0
 30 31  2  0  0  0  0
 30 59  1  0  0  0  0
 32 33  2  0  0  0  0
 32 60  1  0  0  0  0
 33 34  1  0  0  0  0
M  END
> <s_m_source_file>
AV-unprocessed.smi

> <i_m_source_file_index>
45

> <i_lp_mmshare_version>
43012

> <i_f3d_flags>
0

> <s_epik_input>
W0NIM11PYzFbY0hdW2NIXWMoW2NIXWMxQ2wpW0NIMl1bTkhdYzJuYyhOM1tDSDJdW0NIMl1bQ0gyXVtDQEhdM1tDSDJdW09IXSluW2NIXWMyQyg9TylbTkhdW0NIMl1jNG5bY0hdW2NIXVtjSF1uNA==

> <s_epik_cmdline>
J2VwaWtfcHl0aG9uJywgJy1waCcsICc3LjAnLCAnLXRuJywgJzgnLCAnLW1hJywgJzIwMCcsICctbWV0YWxfYmluZGluZycsICctaW1hZScsICc8aW5maWxlLm1hZT4nLCAnLW9tYWUnLCAnPG91dGZpbGUubWFlPic=

> <r_lp_tautomer_probability>
1

> <r_epik_Ionization_Penalty>
0.0522664

> <r_epik_Ionization_Penalty_Charging>
0

> <r_epik_Ionization_Penalty_Neutral>
0.0522664

> <r_epik_State_Penalty>
0.0369431

> <r_epik_Charging_Adjusted_Penalty>
0.0369431

> <i_epik_Tot_Q>
0

> <i_epik_Tot_abs_Q>
0

> <r_epik_Metal_State_Penalty>
0.0404664

> <b_epik_Metal_Only>
0

> <s_epik_Chemistry_Notes>
This compound contains an electron-poor aromatic ring that is susceptible to covalent hydrolysis at low pH, typically resulting in measured values for nitrogen ring protonation that are around two units higher than predicted values.

> <s_lp_Force_Field>
OPLS_2005

> <r_lp_Energy>
30.7934

> <b_lp_Chiralities_Consistent>
1

> <s_lp_Variant>
AV-unprocessed.smi:45-1

> <Gold.Version>
5.8.1

> <Gold.Id.Protein>
6NUR|6NUR_protein|mol2

> <Gold.PLP.Fitness>
56.5639

> <Gold.PLP.PLP>
-49.2783

> <Gold.PLP.part.hbond>
-2.0000

> <Gold.PLP.part.metal>
0.0000

> <Gold.PLP.part.buried>
-6.5703

> <Gold.PLP.part.nonpolar>
-42.4282

> <Gold.PLP.part.repulsive>
0.6661

> <Gold.PLP.ligand.clash>
0.0000

> <Gold.PLP.ligand.torsion>
0.3914

> <Gold.PLP.Chemscore.Hbond>
1.8080

> <Gold.PLP.Chemscore.CHOScore>
0.7243

> <Gold.PLP.Chemscore.Metal>
0.0000

> <Gold.Chemscore.Hbonds>
donor molecule, donor type, donor heavy atom, donor atom, acceptor molecule, acceptor atom, score
      L1  H    18    52       P1 10747  0.54
      P1  H 10752 10763       L1    27  0.13
      L1  C    20    53       P1  7948  0.86

> <Gold.PLP.Chemscore.Internal.Correction>
0.4716

> <Gold.Rescore>
     Score         DG    S(hbond)    S(metal)    S(lipo)     H(rot)  DE(clash)    DE(int)     intcor
     13.22     -16.72       1.63        0.00     118.65       3.16       0.19       3.31       ----

> <Gold.Chemscore.Fitness>
13.2173

> <Gold.Chemscore.DG>
-16.7169

> <Gold.Chemscore.ZeroCoef>
-5.4800

> <Gold.Chemscore.Hbond>
1.6278

> <Gold.Chemscore.Metal>
0.0000

> <Gold.Chemscore.Lipo>
118.6524

> <Gold.Chemscore.Internal_Hbond>
0.0000

> <Gold.Chemscore.DEClash>
0.1873

> <Gold.Chemscore.DEInternal>
3.3123

> <Gold.Chemscore.Rot>
3.1571

> <Gold.Chemscore.Internal.Correction>
   9.000000E+99

> <Gold.Chemscore.Hbonds>
donor molecule, donor type, donor heavy atom, donor atom, acceptor molecule, acceptor atom, score
      L1  H    18    52       P1 10747  0.52
      P1  H 10752 10763       L1    27  0.01

> <Gold.Chemscore.Hbond.Weighted>
-5.4368

> <Gold.Chemscore.Metal.Weighted>
-0.0000

> <Gold.Chemscore.Lipo.Weighted>
-13.8823

> <Gold.Chemscore.Internal_Hbond.Weighted>
0.0000

> <Gold.Chemscore.DEClash.Weighted>
0.1873

> <Gold.Chemscore.DEInternal.Weighted>
3.3123

> <Gold.Chemscore.Rot.Weighted>
8.0822

> <Gold.Chemscore.Internal.Correction.Weighted>
   9.000000E+99

> <Gold.Protein.RotatedTorsions>
[ 6907 6896 6895 6894 ] final  -70.81 input  -60.11 | X-H torsion
[ 7974 7965 7964 7962 ] final -162.59 input  175.53 | X-H torsion
[ 8008 7997 7996 7995 ] final   17.65 input   59.86 | X-H torsion
[ 10167 10162 10161 10158 ] final   23.83 input  -65.29 | X-H torsion
[ 10718 10713 10712 10709 ] final  -47.08 input   66.30 | X-H torsion
[ 10763 10752 10751 10750 ] final   58.21 input  -60.55 | X-H torsion
[ 11005 11000 10999 10996 ] final  166.31 input  -57.11 | X-H torsion

> <Gold.Protein.ActiveResidues>
 VAL166  LYS551  ARG553  GLY616  TRP617  ASP618  TYR619  PRO620  LYS621  CYS622 
 ASP623  PHE694  ASN695  SER759  ASP760  ASP761  ALA762  ILE779  LEU786  VAL792 
 PHE793  MET794  SER795  GLU796  ALA797  LYS798  CYS799  TRP800  GLU811  SER814 

> <Gold.Protein.RotatedAtoms>
  150.7240  134.5399  159.5741 H   0  0  0  0  0  0  0  0  0  0  0  0  # atno 6907 bound_to 6896
  152.2912  134.7716  160.0386 H   0  0  0  0  0  0  0  0  0  0  0  0  # atno 6908 bound_to 6896
  151.8329  133.3376  159.3655 H   0  0  0  0  0  0  0  0  0  0  0  0  # atno 6909 bound_to 6896
  144.7352  140.3230  143.6167 H   0  0  0  0  0  0  0  0  0  0  0  0  # atno 7974 bound_to 7965
  154.8945  140.2992  155.5352 H   0  0  0  0  0  0  0  0  0  0  0  0  # atno 8008 bound_to 7997
  156.3020  140.2418  156.3900 H   0  0  0  0  0  0  0  0  0  0  0  0  # atno 8009 bound_to 7997
  154.8584  140.0406  157.1638 H   0  0  0  0  0  0  0  0  0  0  0  0  # atno 8010 bound_to 7997
  140.5237  143.9959  150.6429 H   0  0  0  0  0  0  0  0  0  0  0  0  # atno 10167 bound_to 10162
  156.2119  130.4161  149.9104 H   0  0  0  0  0  0  0  0  0  0  0  0  # atno 10718 bound_to 10713
  152.9866  135.5614  154.5516 H   0  0  0  0  0  0  0  0  0  0  0  0  # atno 10763 bound_to 10752
  154.4952  135.2794  155.1467 H   0  0  0  0  0  0  0  0  0  0  0  0  # atno 10764 bound_to 10752
  154.2920  135.6324  153.5442 H   0  0  0  0  0  0  0  0  0  0  0  0  # atno 10765 bound_to 10752
  140.2651  134.7871  157.3625 H   0  0  0  0  0  0  0  0  0  0  0  0  # atno 11005 bound_to 11000
  145.7549  139.1805  143.2300 LP  0  0  0  0  0  0  0  0  0  0  0  0  # atno 17320 bound_to 7965
  146.1032  140.7519  142.9539 LP  0  0  0  0  0  0  0  0  0  0  0  0  # atno 17321 bound_to 7965
  140.3315  143.3075  152.0682 LP  0  0  0  0  0  0  0  0  0  0  0  0  # atno 17342 bound_to 10162
  139.4931  144.6506  151.6684 LP  0  0  0  0  0  0  0  0  0  0  0  0  # atno 17343 bound_to 10162
  156.6779  130.8846  151.3571 LP  0  0  0  0  0  0  0  0  0  0  0  0  # atno 17370 bound_to 10713
  157.7043  130.9367  150.0881 LP  0  0  0  0  0  0  0  0  0  0  0  0  # atno 17371 bound_to 10713
  140.1427  134.4951  155.8019 LP  0  0  0  0  0  0  0  0  0  0  0  0  # atno 17394 bound_to 11000
  141.2185  133.6831  156.7238 LP  0  0  0  0  0  0  0  0  0  0  0  0  # atno 17395 bound_to 11000

$$$$
