AV-unprocessed.smi:475|AV-procd|sdf|2667|dock2
  -GOLD-   2262023 83D 1   1.00000     0.00000
 Structure written by MMmdl.
 39 41  0  0  0  0  0  0  0  0  1 V2000
  151.6481  138.6866  154.8142 C   0  0  0  0  0  0  0  0  0  0  0  0
  151.6133  140.0751  155.0926 O   0  0  0  0  0  0  0  0  0  0  0  0
  150.3291  140.5157  155.5030 C   0  0  0  0  0  0  0  0  0  0  0  0
  149.9630  139.8711  156.8481 C   0  0  0  0  0  0  0  0  0  0  0  0
  150.9701  140.1171  157.8700 N   0  0  0  0  0  0  0  0  0  0  0  0
  151.6211  139.2044  158.6313 C   0  0  0  0  0  0  0  0  0  0  0  0
  151.3074  137.4760  158.4689 S   0  0  0  0  0  0  0  0  0  0  0  0
  149.5409  137.4740  158.8883 C   0  0  0  0  0  0  0  0  0  0  0  0
  149.0473  136.0444  159.0867 C   0  0  0  0  0  0  0  0  0  0  0  0
  149.3476  135.1773  158.2664 O   0  0  0  0  0  0  0  0  0  0  0  0
  148.2288  135.7619  160.2629 C   0  0  0  0  0  0  0  0  0  0  0  0
  147.8054  134.5923  160.8357 C   0  0  0  0  0  0  0  0  0  0  0  0
  147.0199  134.9259  161.9791 C   0  0  0  0  0  0  0  0  0  0  0  0
  146.9835  136.2899  162.0812 C   0  0  0  0  0  0  0  0  0  0  0  0
  147.7237  136.7904  161.0315 N   0  0  0  0  0  0  0  0  0  0  0  0
  152.5038  139.7016  159.4990 N   0  0  0  0  0  0  0  0  0  0  0  0
  152.4237  141.0614  159.2721 C   0  0  0  0  0  0  0  0  0  0  0  0
  153.1174  142.1354  159.8745 C   0  0  0  0  0  0  0  0  0  0  0  0
  152.8678  143.4628  159.4694 C   0  0  0  0  0  0  0  0  0  0  0  0
  151.9240  143.7348  158.4579 C   0  0  0  0  0  0  0  0  0  0  0  0
  151.2212  142.6794  157.8455 C   0  0  0  0  0  0  0  0  0  0  0  0
  151.4728  141.3561  158.2550 C   0  0  0  0  0  0  0  0  0  0  0  0
  147.8755  137.7720  160.8468 H   0  0  0  0  0  0  0  0  0  0  0  0
  152.6528  138.4011  154.5031 H   0  0  0  0  0  0  0  0  0  0  0  0
  150.9599  138.4286  154.0084 H   0  0  0  0  0  0  0  0  0  0  0  0
  151.3898  138.0997  155.6962 H   0  0  0  0  0  0  0  0  0  0  0  0
  150.3198  141.6022  155.6010 H   0  0  0  0  0  0  0  0  0  0  0  0
  149.5876  140.2539  154.7473 H   0  0  0  0  0  0  0  0  0  0  0  0
  149.0082  140.2641  157.1983 H   0  0  0  0  0  0  0  0  0  0  0  0
  149.8253  138.7956  156.7328 H   0  0  0  0  0  0  0  0  0  0  0  0
  149.3752  138.0321  159.8099 H   0  0  0  0  0  0  0  0  0  0  0  0
  148.9744  137.9678  158.0984 H   0  0  0  0  0  0  0  0  0  0  0  0
  148.0322  133.6001  160.4736 H   0  0  0  0  0  0  0  0  0  0  0  0
  146.5339  134.2383  162.6552 H   0  0  0  0  0  0  0  0  0  0  0  0
  146.5057  136.9456  162.7941 H   0  0  0  0  0  0  0  0  0  0  0  0
  153.8435  141.9373  160.6489 H   0  0  0  0  0  0  0  0  0  0  0  0
  153.4039  144.2763  159.9360 H   0  0  0  0  0  0  0  0  0  0  0  0
  151.7398  144.7542  158.1518 H   0  0  0  0  0  0  0  0  0  0  0  0
  150.5001  142.8853  157.0687 H   0  0  0  0  0  0  0  0  0  0  0  0
  1  2  1  0  0  0  0
  1 24  1  0  0  0  0
  1 25  1  0  0  0  0
  1 26  1  0  0  0  0
  2  3  1  0  0  0  0
  3  4  1  0  0  0  0
  3 27  1  0  0  0  0
  3 28  1  0  0  0  0
  4  5  1  0  0  0  0
  4 29  1  0  0  0  0
  4 30  1  0  0  0  0
  5 22  1  0  0  0  0
  5  6  1  0  0  0  0
  6  7  1  0  0  0  0
  6 16  2  0  0  0  0
  7  8  1  0  0  0  0
  8  9  1  0  0  0  0
  8 31  1  0  0  0  0
  8 32  1  0  0  0  0
  9 10  2  0  0  0  0
  9 11  1  0  0  0  0
 11 15  1  0  0  0  0
 11 12  2  0  0  0  0
 12 13  1  0  0  0  0
 12 33  1  0  0  0  0
 13 14  2  0  0  0  0
 13 34  1  0  0  0  0
 14 15  1  0  0  0  0
 14 35  1  0  0  0  0
 15 23  1  0  0  0  0
 16 17  1  0  0  0  0
 17 22  2  0  0  0  0
 17 18  1  0  0  0  0
 18 19  2  0  0  0  0
 18 36  1  0  0  0  0
 19 20  1  0  0  0  0
 19 37  1  0  0  0  0
 20 21  2  0  0  0  0
 20 38  1  0  0  0  0
 21 22  1  0  0  0  0
 21 39  1  0  0  0  0
M  END
> <s_m_source_file>
AV-unprocessed.smi

> <i_m_source_file_index>
475

> <i_lp_mmshare_version>
43012

> <i_f3d_flags>
0

> <s_epik_input>
W2NIXTFbY0hdW2NIXVtjSF1jKGMxMiluKFtDSDJdW0NIMl1PW0NIM10pYyhuMilTW0NIMl1DKD1PKWMzW2NIXVtjSF1bY0hdW25IXTM=

> <s_epik_cmdline>
J2VwaWtfcHl0aG9uJywgJy1waCcsICc3LjAnLCAnLXRuJywgJzgnLCAnLW1hJywgJzIwMCcsICctbWV0YWxfYmluZGluZycsICctaW1hZScsICc8aW5maWxlLm1hZT4nLCAnLW9tYWUnLCAnPG91dGZpbGUubWFlPic=

> <r_lp_tautomer_probability>
0.9999

> <r_epik_Ionization_Penalty>
0.016511

> <r_epik_Ionization_Penalty_Charging>
0

> <r_epik_Ionization_Penalty_Neutral>
0.016511

> <r_epik_State_Penalty>
0.0130354

> <r_epik_Charging_Adjusted_Penalty>
0.0130354

> <i_epik_Tot_Q>
0

> <i_epik_Tot_abs_Q>
0

> <r_epik_Metal_State_Penalty>
0.0126412

> <b_epik_Metal_Only>
0

> <s_lp_Force_Field>
OPLS_2005

> <r_lp_Energy>
12.6628

> <b_lp_Chiralities_Consistent>
1

> <s_lp_Variant>
AV-unprocessed.smi:475-1

> <Gold.Version>
5.8.1

> <Gold.Id.Protein>
6NUR|6NUR_protein|mol2

> <Gold.PLP.Fitness>
51.1509

> <Gold.PLP.PLP>
-45.6673

> <Gold.PLP.part.hbond>
-2.0000

> <Gold.PLP.part.metal>
0.0000

> <Gold.PLP.part.buried>
-7.2682

> <Gold.PLP.part.nonpolar>
-38.8320

> <Gold.PLP.part.repulsive>
1.7840

> <Gold.PLP.ligand.clash>
0.0000

> <Gold.PLP.ligand.torsion>
0.2931

> <Gold.PLP.Chemscore.Hbond>
2.0000

> <Gold.PLP.Chemscore.CHOScore>
0.0000

> <Gold.PLP.Chemscore.Metal>
0.0000

> <Gold.Chemscore.Hbonds>
donor molecule, donor type, donor heavy atom, donor atom, acceptor molecule, acceptor atom, score
      P1  H  6896  6908       L1    10  0.90
      P1  H  7989  7998       L1     2  0.90

> <Gold.PLP.Chemscore.Internal.Correction>
0.0697

> <Gold.Rescore>
     Score         DG    S(hbond)    S(metal)    S(lipo)     H(rot)  DE(clash)    DE(int)     intcor
     18.28     -19.12       1.58        0.00     115.86       2.03       0.40       0.45       ----

> <Gold.Chemscore.Fitness>
18.2785

> <Gold.Chemscore.DG>
-19.1211

> <Gold.Chemscore.ZeroCoef>
-5.4800

> <Gold.Chemscore.Hbond>
1.5849

> <Gold.Chemscore.Metal>
0.0000

> <Gold.Chemscore.Lipo>
115.8648

> <Gold.Chemscore.Internal_Hbond>
0.0000

> <Gold.Chemscore.DEClash>
0.3968

> <Gold.Chemscore.DEInternal>
0.4458

> <Gold.Chemscore.Rot>
2.0346

> <Gold.Chemscore.Internal.Correction>
   9.000000E+99

> <Gold.Chemscore.Hbonds>
donor molecule, donor type, donor heavy atom, donor atom, acceptor molecule, acceptor atom, score
      P1  H  6896  6908       L1    10  0.17
      P1  H  7989  7998       L1     2  0.09

> <Gold.Chemscore.Hbond.Weighted>
-5.2936

> <Gold.Chemscore.Metal.Weighted>
-0.0000

> <Gold.Chemscore.Lipo.Weighted>
-13.5562

> <Gold.Chemscore.Internal_Hbond.Weighted>
0.0000

> <Gold.Chemscore.DEClash.Weighted>
0.3968

> <Gold.Chemscore.DEInternal.Weighted>
0.4458

> <Gold.Chemscore.Rot.Weighted>
5.2087

> <Gold.Chemscore.Internal.Correction.Weighted>
   9.000000E+99

> <Gold.Protein.RotatedTorsions>
[ 6907 6896 6895 6894 ] final  144.67 input  -60.11 | X-H torsion
[ 7974 7965 7964 7962 ] final   61.77 input  175.53 | X-H torsion
[ 8008 7997 7996 7995 ] final -149.55 input   59.86 | X-H torsion
[ 10167 10162 10161 10158 ] final -110.44 input  -65.29 | X-H torsion
[ 10718 10713 10712 10709 ] final   46.45 input   66.30 | X-H torsion
[ 10763 10752 10751 10750 ] final -157.44 input  -60.55 | X-H torsion
[ 11005 11000 10999 10996 ] final   89.65 input  -57.11 | X-H torsion

> <Gold.Protein.ActiveResidues>
 VAL166  LYS551  ARG553  GLY616  TRP617  ASP618  TYR619  PRO620  LYS621  CYS622 
 ASP623  PHE694  ASN695  SER759  ASP760  ASP761  ALA762  ILE779  LEU786  VAL792 
 PHE793  MET794  SER795  GLU796  ALA797  LYS798  CYS799  TRP800  GLU811  SER814 

> <Gold.Protein.RotatedAtoms>
  152.1908  133.4771  159.5006 H   0  0  0  0  0  0  0  0  0  0  0  0  # atno 6907 bound_to 6896
  150.6951  134.1715  159.4223 H   0  0  0  0  0  0  0  0  0  0  0  0  # atno 6908 bound_to 6896
  151.9630  135.0114  160.0599 H   0  0  0  0  0  0  0  0  0  0  0  0  # atno 6909 bound_to 6896
  145.8809  139.3443  143.0706 H   0  0  0  0  0  0  0  0  0  0  0  0  # atno 7974 bound_to 7965
  155.6094  140.0670  157.2710 H   0  0  0  0  0  0  0  0  0  0  0  0  # atno 8008 bound_to 7997
  154.4257  140.1804  156.1304 H   0  0  0  0  0  0  0  0  0  0  0  0  # atno 8009 bound_to 7997
  156.0096  140.3328  155.6931 H   0  0  0  0  0  0  0  0  0  0  0  0  # atno 8010 bound_to 7997
  140.1445  143.4251  152.1539 H   0  0  0  0  0  0  0  0  0  0  0  0  # atno 10167 bound_to 10162
  157.4482  130.8122  149.7762 H   0  0  0  0  0  0  0  0  0  0  0  0  # atno 10718 bound_to 10713
  154.7636  135.3124  154.8330 H   0  0  0  0  0  0  0  0  0  0  0  0  # atno 10763 bound_to 10752
  153.9085  135.6808  153.4756 H   0  0  0  0  0  0  0  0  0  0  0  0  # atno 10764 bound_to 10752
  153.1239  135.4810  154.9173 H   0  0  0  0  0  0  0  0  0  0  0  0  # atno 10765 bound_to 10752
  139.8871  134.8565  156.3172 H   0  0  0  0  0  0  0  0  0  0  0  0  # atno 11005 bound_to 11000
  145.9024  140.9234  143.0496 LP  0  0  0  0  0  0  0  0  0  0  0  0  # atno 17320 bound_to 7965
  144.6727  140.1051  143.7458 LP  0  0  0  0  0  0  0  0  0  0  0  0  # atno 17321 bound_to 7965
  139.5456  144.7295  151.4595 LP  0  0  0  0  0  0  0  0  0  0  0  0  # atno 17342 bound_to 10162
  140.6740  143.8230  150.7035 LP  0  0  0  0  0  0  0  0  0  0  0  0  # atno 17343 bound_to 10162
  155.9976  130.3899  150.2734 LP  0  0  0  0  0  0  0  0  0  0  0  0  # atno 17370 bound_to 10713
  157.0904  131.0168  151.3124 LP  0  0  0  0  0  0  0  0  0  0  0  0  # atno 17371 bound_to 10713
  140.9811  133.7267  156.0673 LP  0  0  0  0  0  0  0  0  0  0  0  0  # atno 17394 bound_to 11000
  140.7748  134.3791  157.5500 LP  0  0  0  0  0  0  0  0  0  0  0  0  # atno 17395 bound_to 11000

$$$$
