AV-unprocessed.smi:2008|AV-procd|sdf|8142|dock9
  -GOLD-   2272010383D 1   1.00000     0.00000
 Structure written by MMmdl.
 46 47  0  0  0  0  0  0  0  0  2 V2000
  154.5321  140.6700  160.4153 C   0  0  0  0  0  0  0  0  0  0  0  0
  154.0098  141.9727  160.1766 O   0  0  0  0  0  0  0  0  0  0  0  0
  153.0333  142.1196  159.2128 C   0  0  0  0  0  0  0  0  0  0  0  0
  152.5715  143.4164  158.9124 C   0  0  0  0  0  0  0  0  0  0  0  0
  151.5748  143.5705  157.9306 C   0  0  0  0  0  0  0  0  0  0  0  0
  151.0608  142.4277  157.2849 C   0  0  0  0  0  0  0  0  0  0  0  0
  150.0636  142.6166  156.2897 N   0  0  0  0  0  0  0  0  0  0  0  0
  149.4336  141.6887  155.5487 C   0  0  0  0  0  0  0  0  0  0  0  0
  149.6299  140.4748  155.6043 O   0  0  0  0  0  0  0  0  0  0  0  0
  148.5309  142.2494  154.7309 N   0  0  0  0  0  0  0  0  0  0  0  0
  147.6611  141.5117  153.8219 C   0  0  0  0  0  0  0  0  0  0  0  0
  146.8590  140.4262  154.5666 C   0  0  0  0  0  0  0  0  0  0  0  0
  146.1867  139.4583  153.6573 N   0  3  1  0  0  0  0  0  0  0  0  0
  147.0584  139.0736  152.5141 C   0  0  0  0  0  0  0  0  0  0  0  0
  146.2884  138.2476  151.4717 C   0  0  0  0  0  0  0  0  0  0  0  0
  145.6563  137.0075  152.1115 C   0  0  0  0  0  0  0  0  0  0  0  0
  144.7745  137.4278  153.2951 C   0  0  0  0  0  0  0  0  0  0  0  0
  145.5455  138.2808  154.3254 C   0  0  1  0  0  0  0  0  0  0  0  0
  146.5255  137.4333  155.1655 C   0  0  0  0  0  0  0  0  0  0  0  0
  151.5997  141.1691  157.6481 C   0  0  0  0  0  0  0  0  0  0  0  0
  152.5571  141.0149  158.5874 N   0  0  0  0  0  0  0  0  0  0  0  0
  155.2977  140.7237  161.1891 H   0  0  0  0  0  0  0  0  0  0  0  0
  154.9971  140.2554  159.5197 H   0  0  0  0  0  0  0  0  0  0  0  0
  153.7556  139.9878  160.7644 H   0  0  0  0  0  0  0  0  0  0  0  0
  152.9753  144.2768  159.4251 H   0  0  0  0  0  0  0  0  0  0  0  0
  151.2077  144.5557  157.6823 H   0  0  0  0  0  0  0  0  0  0  0  0
  149.7427  143.5672  156.1770 H   0  0  0  0  0  0  0  0  0  0  0  0
  148.4286  143.2540  154.7495 H   0  0  0  0  0  0  0  0  0  0  0  0
  147.0054  142.2213  153.3170 H   0  0  0  0  0  0  0  0  0  0  0  0
  148.2816  141.0546  153.0507 H   0  0  0  0  0  0  0  0  0  0  0  0
  147.5554  139.8754  155.2008 H   0  0  0  0  0  0  0  0  0  0  0  0
  146.1312  140.8707  155.2456 H   0  0  0  0  0  0  0  0  0  0  0  0
  147.4455  139.9713  152.0307 H   0  0  0  0  0  0  0  0  0  0  0  0
  147.9252  138.5188  152.8746 H   0  0  0  0  0  0  0  0  0  0  0  0
  145.5098  138.8632  151.0191 H   0  0  0  0  0  0  0  0  0  0  0  0
  146.9568  137.9504  150.6630 H   0  0  0  0  0  0  0  0  0  0  0  0
  145.0628  136.4659  151.3744 H   0  0  0  0  0  0  0  0  0  0  0  0
  146.4357  136.3221  152.4461 H   0  0  0  0  0  0  0  0  0  0  0  0
  143.9276  138.0028  152.9176 H   0  0  0  0  0  0  0  0  0  0  0  0
  144.3488  136.5460  153.7752 H   0  0  0  0  0  0  0  0  0  0  0  0
  144.7892  138.6591  155.0118 H   0  0  0  0  0  0  0  0  0  0  0  0
  146.0127  136.5773  155.6045 H   0  0  0  0  0  0  0  0  0  0  0  0
  146.9455  138.0018  155.9951 H   0  0  0  0  0  0  0  0  0  0  0  0
  147.3532  137.0449  154.5729 H   0  0  0  0  0  0  0  0  0  0  0  0
  151.2854  140.2526  157.1743 H   0  0  0  0  0  0  0  0  0  0  0  0
  145.4246  139.9727  153.2393 H   0  0  0  0  0  0  0  0  0  0  0  0
  1  2  1  0  0  0  0
  1 22  1  0  0  0  0
  1 23  1  0  0  0  0
  1 24  1  0  0  0  0
  2  3  1  0  0  0  0
  3 21  1  0  0  0  0
  3  4  2  0  0  0  0
  4  5  1  0  0  0  0
  4 25  1  0  0  0  0
  5  6  2  0  0  0  0
  5 26  1  0  0  0  0
  6  7  1  0  0  0  0
  6 20  1  0  0  0  0
  7  8  1  0  0  0  0
  7 27  1  0  0  0  0
  8  9  2  0  0  0  0
  8 10  1  0  0  0  0
 10 11  1  0  0  0  0
 10 28  1  0  0  0  0
 11 12  1  0  0  0  0
 11 29  1  0  0  0  0
 11 30  1  0  0  0  0
 12 13  1  0  0  0  0
 12 31  1  0  0  0  0
 12 32  1  0  0  0  0
 13 18  1  0  0  0  0
 13 14  1  0  0  0  0
 13 46  1  0  0  0  0
 14 15  1  0  0  0  0
 14 33  1  0  0  0  0
 14 34  1  0  0  0  0
 15 16  1  0  0  0  0
 15 35  1  0  0  0  0
 15 36  1  0  0  0  0
 16 17  1  0  0  0  0
 16 37  1  0  0  0  0
 16 38  1  0  0  0  0
 17 18  1  0  0  0  0
 17 39  1  0  0  0  0
 17 40  1  0  0  0  0
 18 19  1  0  0  0  0
 18 41  1  0  0  0  0
 19 42  1  0  0  0  0
 19 43  1  0  0  0  0
 19 44  1  0  0  0  0
 20 21  2  0  0  0  0
 20 45  1  0  0  0  0
M  CHG  1  13   1
M  END
> <s_m_source_file>
AV-unprocessed.smi

> <i_m_source_file_index>
2008

> <i_lp_mmshare_version>
43012

> <i_f3d_flags>
0

> <s_epik_input>
W0NIM11PYzFbY0hdW2NIXWMoW2NIXW4xKVtOSF1DKD1PKVtOSF1bQ0gyXVtDSDJdTjJbQ0gyXVtDSDJdW0NIMl1bQ0gyXVtDQEhdMltDSDNd

> <s_epik_cmdline>
J2VwaWtfcHl0aG9uJywgJy1waCcsICc3LjAnLCAnLXRuJywgJzgnLCAnLW1hJywgJzIwMCcsICctbWV0YWxfYmluZGluZycsICctaW1hZScsICc8aW5maWxlLm1hZT4nLCAnLW9tYWUnLCAnPG91dGZpbGUubWFlPic=

> <r_lp_tautomer_probability>
1

> <r_epik_Ionization_Penalty>
0.00219526

> <r_epik_Ionization_Penalty_Charging>
0.00211816

> <r_epik_Ionization_Penalty_Neutral>
7.71003e-05

> <r_epik_State_Penalty>
0.00145254

> <r_epik_Charging_Adjusted_Penalty>
0.0035707

> <i_epik_Tot_Q>
1

> <i_epik_Tot_abs_Q>
1

> <r_epik_Metal_State_Penalty>
-0

> <b_epik_Metal_Only>
0

> <s_lp_Force_Field>
OPLS_2005

> <r_lp_Energy>
23.0137

> <b_lp_Chiralities_Consistent>
1

> <s_lp_Variant>
AV-unprocessed.smi:2008-2

> <Gold.Version>
5.8.1

> <Gold.Id.Protein>
6NUR|6NUR_protein|mol2

> <Gold.PLP.Fitness>
48.7629

> <Gold.PLP.PLP>
-37.3618

> <Gold.PLP.part.hbond>
-2.9026

> <Gold.PLP.part.metal>
0.0000

> <Gold.PLP.part.buried>
-1.9767

> <Gold.PLP.part.nonpolar>
-33.7391

> <Gold.PLP.part.repulsive>
0.3737

> <Gold.PLP.ligand.clash>
0.0000

> <Gold.PLP.ligand.torsion>
0.1709

> <Gold.PLP.Chemscore.Hbond>
3.8960

> <Gold.PLP.Chemscore.CHOScore>
0.0000

> <Gold.PLP.Chemscore.Metal>
0.0000

> <Gold.Chemscore.Hbonds>
donor molecule, donor type, donor heavy atom, donor atom, acceptor molecule, acceptor atom, score
      L1  H     7    27       P1  8028  0.99
      L1  H    10    28       P1  8028  0.90
      L1  H    13    46       P1 10175  2.00

> <Gold.PLP.Chemscore.Internal.Correction>
0.0551

> <Gold.Rescore>
     Score         DG    S(hbond)    S(metal)    S(lipo)     H(rot)  DE(clash)    DE(int)     intcor
     18.68     -21.13       2.88        0.00      89.03       1.71       0.22       2.24       ----

> <Gold.Chemscore.Fitness>
18.6780

> <Gold.Chemscore.DG>
-21.1315

> <Gold.Chemscore.ZeroCoef>
-5.4800

> <Gold.Chemscore.Hbond>
2.8786

> <Gold.Chemscore.Metal>
0.0000

> <Gold.Chemscore.Lipo>
89.0300

> <Gold.Chemscore.Internal_Hbond>
0.0000

> <Gold.Chemscore.DEClash>
0.2153

> <Gold.Chemscore.DEInternal>
2.2382

> <Gold.Chemscore.Rot>
1.7107

> <Gold.Chemscore.Internal.Correction>
   9.000000E+99

> <Gold.Chemscore.Hbonds>
donor molecule, donor type, donor heavy atom, donor atom, acceptor molecule, acceptor atom, score
      L1  H     7    27       P1  8028  0.92
      L1  H    10    28       P1  8028  0.88
      L1  H    13    46       P1 10175  0.98

> <Gold.Chemscore.Hbond.Weighted>
-9.6144

> <Gold.Chemscore.Metal.Weighted>
-0.0000

> <Gold.Chemscore.Lipo.Weighted>
-10.4165

> <Gold.Chemscore.Internal_Hbond.Weighted>
0.0000

> <Gold.Chemscore.DEClash.Weighted>
0.2153

> <Gold.Chemscore.DEInternal.Weighted>
2.2382

> <Gold.Chemscore.Rot.Weighted>
4.3794

> <Gold.Chemscore.Internal.Correction.Weighted>
   9.000000E+99

> <Gold.Protein.RotatedTorsions>
[ 6907 6896 6895 6894 ] final   93.98 input  -60.11 | X-H torsion
[ 7974 7965 7964 7962 ] final -150.75 input  175.53 | X-H torsion
[ 8008 7997 7996 7995 ] final -178.03 input   59.86 | X-H torsion
[ 10167 10162 10161 10158 ] final  126.07 input  -65.29 | X-H torsion
[ 10718 10713 10712 10709 ] final   75.75 input   66.30 | X-H torsion
[ 10763 10752 10751 10750 ] final -141.40 input  -60.55 | X-H torsion
[ 11005 11000 10999 10996 ] final  136.59 input  -57.11 | X-H torsion

> <Gold.Protein.ActiveResidues>
 VAL166  LYS551  ARG553  GLY616  TRP617  ASP618  TYR619  PRO620  LYS621  CYS622 
 ASP623  PHE694  ASN695  SER759  ASP760  ASP761  ALA762  ILE779  LEU786  VAL792 
 PHE793  MET794  SER795  GLU796  ALA797  LYS798  CYS799  TRP800  GLU811  SER814 

> <Gold.Protein.RotatedAtoms>
  152.5451  134.1264  159.8420 H   0  0  0  0  0  0  0  0  0  0  0  0  # atno 6907 bound_to 6896
  151.1314  133.5027  159.2606 H   0  0  0  0  0  0  0  0  0  0  0  0  # atno 6908 bound_to 6896
  151.1671  135.0310  159.8790 H   0  0  0  0  0  0  0  0  0  0  0  0  # atno 6909 bound_to 6896
  144.7889  140.4890  143.5786 H   0  0  0  0  0  0  0  0  0  0  0  0  # atno 7974 bound_to 7965
  156.0140  140.1247  157.0425 H   0  0  0  0  0  0  0  0  0  0  0  0  # atno 8008 bound_to 7997
  154.4286  140.1082  156.5940 H   0  0  0  0  0  0  0  0  0  0  0  0  # atno 8009 bound_to 7997
  155.6039  140.3471  155.4604 H   0  0  0  0  0  0  0  0  0  0  0  0  # atno 8010 bound_to 7997
  139.5651  144.6906  151.3933 H   0  0  0  0  0  0  0  0  0  0  0  0  # atno 10167 bound_to 10162
  157.6646  130.9741  150.1398 H   0  0  0  0  0  0  0  0  0  0  0  0  # atno 10718 bound_to 10713
  154.8546  135.3525  154.5862 H   0  0  0  0  0  0  0  0  0  0  0  0  # atno 10763 bound_to 10752
  153.6472  135.6995  153.5226 H   0  0  0  0  0  0  0  0  0  0  0  0  # atno 10764 bound_to 10752
  153.2923  135.4231  155.1136 H   0  0  0  0  0  0  0  0  0  0  0  0  # atno 10765 bound_to 10752
  140.0056  134.9460  157.0167 H   0  0  0  0  0  0  0  0  0  0  0  0  # atno 11005 bound_to 11000
  145.5846  139.1491  143.3216 LP  0  0  0  0  0  0  0  0  0  0  0  0  # atno 17320 bound_to 7965
  146.2133  140.5974  142.9049 LP  0  0  0  0  0  0  0  0  0  0  0  0  # atno 17321 bound_to 7965
  140.6934  143.7807  150.7289 LP  0  0  0  0  0  0  0  0  0  0  0  0  # atno 17342 bound_to 10162
  140.1296  143.4538  152.2262 LP  0  0  0  0  0  0  0  0  0  0  0  0  # atno 17343 bound_to 10162
  156.2223  130.3675  149.8541 LP  0  0  0  0  0  0  0  0  0  0  0  0  # atno 17370 bound_to 10713
  156.6390  130.8697  151.3510 LP  0  0  0  0  0  0  0  0  0  0  0  0  # atno 17371 bound_to 10713
  140.4647  134.1447  155.7195 LP  0  0  0  0  0  0  0  0  0  0  0  0  # atno 17394 bound_to 11000
  141.1674  133.8675  157.1673 LP  0  0  0  0  0  0  0  0  0  0  0  0  # atno 17395 bound_to 11000

$$$$
