AV-unprocessed.smi:276|AV-procd|sdf|2071|dock7
  -GOLD-   2262021333D 1   1.00000     0.00000
 Structure written by MMmdl.
 57 61  0  0  0  0  0  0  0  0  1 V2000
  158.6235  135.6196  161.7433 C   0  0  0  0  0  0  0  0  0  0  0  0
  157.5188  135.4066  162.6043 O   0  0  0  0  0  0  0  0  0  0  0  0
  156.7717  134.2454  162.2684 C   0  0  1  0  0  0  0  0  0  0  0  0
  155.5338  134.0575  163.1588 C   0  0  0  0  0  0  0  0  0  0  0  0
  154.7079  134.8679  162.1400 C   0  0  1  0  0  0  0  0  0  0  0  0
  154.6200  136.2847  162.5217 N   0  0  0  0  0  0  0  0  0  0  0  0
  153.8661  136.5782  163.7363 C   0  0  0  0  0  0  0  0  0  0  0  0
  154.2604  137.1404  161.5397 C   0  0  0  0  0  0  0  0  0  0  0  0
  153.7357  136.5989  160.4123 N   0  0  0  0  0  0  0  0  0  0  0  0
  153.3426  137.3914  159.4108 C   0  0  0  0  0  0  0  0  0  0  0  0
  153.3898  138.7232  159.3312 N   0  0  0  0  0  0  0  0  0  0  0  0
  153.9338  139.2680  160.4574 C   0  0  0  0  0  0  0  0  0  0  0  0
  154.3995  138.5567  161.5987 C   0  0  0  0  0  0  0  0  0  0  0  0
  154.8941  139.4488  162.5430 N   0  0  0  0  0  0  0  0  0  0  0  0
  154.7158  140.6210  161.9984 C   0  0  0  0  0  0  0  0  0  0  0  0
  154.1418  140.6044  160.7482 N   0  0  0  0  0  0  0  0  0  0  0  0
  153.8238  141.7594  159.9261 C   0  0  0  0  0  0  0  0  0  0  0  0
  152.3049  141.9084  159.6782 C   0  0  2  0  0  0  0  0  0  0  0  0
  151.8865  140.8069  158.8927 O   0  0  0  0  0  0  0  0  0  0  0  0
  151.9109  143.1927  158.9115 C   0  0  2  0  0  0  0  0  0  0  0  0
  152.3320  144.5156  159.5774 C   0  0  0  0  0  0  0  0  0  0  0  0
  151.1098  144.9173  160.3706 C   0  0  0  0  0  0  0  0  0  0  0  0
  149.9995  144.4636  159.4383 C   0  0  0  0  0  0  0  0  0  0  0  0
  150.4807  143.2458  158.8857 O   0  0  0  0  0  0  0  0  0  0  0  0
  155.8057  134.5122  161.1012 C   0  0  0  0  0  0  0  0  0  0  0  0
  155.5516  133.3729  160.0984 C   0  0  0  0  0  0  0  0  0  0  0  0
  156.5261  134.0634  159.1415 C   0  0  0  0  0  0  0  0  0  0  0  0
  156.2241  135.3651  159.8852 C   0  0  0  0  0  0  0  0  0  0  0  0
  159.1511  136.5246  162.0439 H   0  0  0  0  0  0  0  0  0  0  0  0
  158.2970  135.7489  160.7109 H   0  0  0  0  0  0  0  0  0  0  0  0
  159.3301  134.7903  161.7850 H   0  0  0  0  0  0  0  0  0  0  0  0
  157.3836  133.3513  162.1380 H   0  0  0  0  0  0  0  0  0  0  0  0
  155.2169  133.0145  163.2061 H   0  0  0  0  0  0  0  0  0  0  0  0
  155.6192  134.4798  164.1592 H   0  0  0  0  0  0  0  0  0  0  0  0
  153.7441  134.4030  161.9328 H   0  0  0  0  0  0  0  0  0  0  0  0
  153.6112  137.6364  163.8173 H   0  0  0  0  0  0  0  0  0  0  0  0
  154.4498  136.3202  164.6192 H   0  0  0  0  0  0  0  0  0  0  0  0
  152.9386  136.0051  163.7606 H   0  0  0  0  0  0  0  0  0  0  0  0
  152.9280  136.8860  158.5512 H   0  0  0  0  0  0  0  0  0  0  0  0
  154.9958  141.5364  162.4991 H   0  0  0  0  0  0  0  0  0  0  0  0
  154.2272  142.6343  160.4335 H   0  0  0  0  0  0  0  0  0  0  0  0
  154.3578  141.6733  158.9788 H   0  0  0  0  0  0  0  0  0  0  0  0
  151.7793  141.8715  160.6334 H   0  0  0  0  0  0  0  0  0  0  0  0
  150.9785  140.6284  159.0847 H   0  0  0  0  0  0  0  0  0  0  0  0
  152.3022  143.1574  157.8934 H   0  0  0  0  0  0  0  0  0  0  0  0
  153.2304  144.4632  160.1884 H   0  0  0  0  0  0  0  0  0  0  0  0
  152.5169  145.2638  158.8050 H   0  0  0  0  0  0  0  0  0  0  0  0
  151.0680  144.3650  161.3104 H   0  0  0  0  0  0  0  0  0  0  0  0
  151.0722  145.9841  160.5928 H   0  0  0  0  0  0  0  0  0  0  0  0
  149.0476  144.3231  159.9509 H   0  0  0  0  0  0  0  0  0  0  0  0
  149.8535  145.1859  158.6339 H   0  0  0  0  0  0  0  0  0  0  0  0
  155.8631  132.3825  160.4318 H   0  0  0  0  0  0  0  0  0  0  0  0
  154.5275  133.3648  159.7212 H   0  0  0  0  0  0  0  0  0  0  0  0
  157.5571  133.7307  159.2724 H   0  0  0  0  0  0  0  0  0  0  0  0
  156.2238  134.0537  158.0940 H   0  0  0  0  0  0  0  0  0  0  0  0
  155.4024  135.9034  159.4137 H   0  0  0  0  0  0  0  0  0  0  0  0
  157.0872  136.0117  160.0446 H   0  0  0  0  0  0  0  0  0  0  0  0
  1  2  1  0  0  0  0
  1 29  1  0  0  0  0
  1 30  1  0  0  0  0
  1 31  1  0  0  0  0
  2  3  1  0  0  0  0
  3 25  1  0  0  0  0
  3  4  1  0  0  0  0
  3 32  1  0  0  0  0
  4  5  1  0  0  0  0
  4 33  1  0  0  0  0
  4 34  1  0  0  0  0
  5  6  1  0  0  0  0
  5 25  1  0  0  0  0
  5 35  1  0  0  0  0
  6  7  1  0  0  0  0
  6  8  1  0  0  0  0
  7 36  1  0  0  0  0
  7 37  1  0  0  0  0
  7 38  1  0  0  0  0
  8 13  1  0  0  0  0
  8  9  2  0  0  0  0
  9 10  1  0  0  0  0
 10 11  2  0  0  0  0
 10 39  1  0  0  0  0
 11 12  1  0  0  0  0
 12 16  1  0  0  0  0
 12 13  2  0  0  0  0
 13 14  1  0  0  0  0
 14 15  2  0  0  0  0
 15 16  1  0  0  0  0
 15 40  1  0  0  0  0
 16 17  1  0  0  0  0
 17 18  1  0  0  0  0
 17 41  1  0  0  0  0
 17 42  1  0  0  0  0
 18 19  1  0  0  0  0
 18 20  1  0  0  0  0
 18 43  1  0  0  0  0
 19 44  1  0  0  0  0
 20 24  1  0  0  0  0
 20 21  1  0  0  0  0
 20 45  1  0  0  0  0
 21 22  1  0  0  0  0
 21 46  1  0  0  0  0
 21 47  1  0  0  0  0
 22 23  1  0  0  0  0
 22 48  1  0  0  0  0
 22 49  1  0  0  0  0
 23 24  1  0  0  0  0
 23 50  1  0  0  0  0
 23 51  1  0  0  0  0
 25 28  1  0  0  0  0
 25 26  1  0  0  0  0
 26 27  1  0  0  0  0
 26 52  1  0  0  0  0
 26 53  1  0  0  0  0
 27 28  1  0  0  0  0
 27 54  1  0  0  0  0
 27 55  1  0  0  0  0
 28 56  1  0  0  0  0
 28 57  1  0  0  0  0
M  END
> <s_m_source_file>
AV-unprocessed.smi

> <i_m_source_file_index>
276

> <i_lp_mmshare_version>
43012

> <i_f3d_flags>
0

> <s_epik_input>
W0NIMl0xW0NIMl1bQ0gyXUMxMltDQEhdKE9bQ0gzXSlbQ0gyXVtDQEhdMk4oW0NIM10pYyhuW2NIXW4zKWMoYzM0KW5bY0hdbjRbQ0gyXVtDQEhdKFtPSF0pW0NAQEhdNVtDSDJdW0NIMl1bQ0gyXU81

> <s_epik_cmdline>
J2VwaWtfcHl0aG9uJywgJy1waCcsICc3LjAnLCAnLXRuJywgJzgnLCAnLW1hJywgJzIwMCcsICctbWV0YWxfYmluZGluZycsICctaW1hZScsICc8aW5maWxlLm1hZT4nLCAnLW9tYWUnLCAnPG91dGZpbGUubWFlPic=

> <r_lp_tautomer_probability>
1

> <r_epik_Ionization_Penalty>
0.00204117

> <r_epik_Ionization_Penalty_Charging>
0

> <r_epik_Ionization_Penalty_Neutral>
0.00204117

> <r_epik_State_Penalty>
0.00127401

> <r_epik_Charging_Adjusted_Penalty>
0.00127401

> <i_epik_Tot_Q>
0

> <i_epik_Tot_abs_Q>
0

> <r_epik_Metal_State_Penalty>
-0

> <b_epik_Metal_Only>
0

> <s_lp_Force_Field>
OPLS_2005

> <r_lp_Energy>
58.0583

> <b_lp_Chiralities_Consistent>
1

> <s_lp_Variant>
AV-unprocessed.smi:276-2

> <Gold.Version>
5.8.1

> <Gold.Id.Protein>
6NUR|6NUR_protein|mol2

> <Gold.PLP.Fitness>
44.8537

> <Gold.PLP.PLP>
-42.1406

> <Gold.PLP.part.hbond>
-0.9655

> <Gold.PLP.part.metal>
0.0000

> <Gold.PLP.part.buried>
-5.8987

> <Gold.PLP.part.nonpolar>
-35.8466

> <Gold.PLP.part.repulsive>
0.1011

> <Gold.PLP.ligand.clash>
0.0000

> <Gold.PLP.ligand.torsion>
0.4890

> <Gold.PLP.Chemscore.Hbond>
0.9588

> <Gold.PLP.Chemscore.CHOScore>
0.0000

> <Gold.PLP.Chemscore.Metal>
0.0000

> <Gold.Chemscore.Hbonds>
donor molecule, donor type, donor heavy atom, donor atom, acceptor molecule, acceptor atom, score
      P1  H  6896  6909       L1     9  0.36

> <Gold.PLP.Chemscore.Internal.Correction>
0.8147

> <Gold.Rescore>
     Score         DG    S(hbond)    S(metal)    S(lipo)     H(rot)  DE(clash)    DE(int)     intcor
     11.18     -12.84       0.85        0.00      98.20       2.72       0.14       1.51       ----

> <Gold.Chemscore.Fitness>
11.1817

> <Gold.Chemscore.DG>
-12.8365

> <Gold.Chemscore.ZeroCoef>
-5.4800

> <Gold.Chemscore.Hbond>
0.8452

> <Gold.Chemscore.Metal>
0.0000

> <Gold.Chemscore.Lipo>
98.2006

> <Gold.Chemscore.Internal_Hbond>
0.0000

> <Gold.Chemscore.DEClash>
0.1405

> <Gold.Chemscore.DEInternal>
1.5143

> <Gold.Chemscore.Rot>
2.7172

> <Gold.Chemscore.Internal.Correction>
   9.000000E+99

> <Gold.Chemscore.Hbonds>
donor molecule, donor type, donor heavy atom, donor atom, acceptor molecule, acceptor atom, score
      P1  H  6896  6909       L1     9  0.08

> <Gold.Chemscore.Hbond.Weighted>
-2.8230

> <Gold.Chemscore.Metal.Weighted>
-0.0000

> <Gold.Chemscore.Lipo.Weighted>
-11.4895

> <Gold.Chemscore.Internal_Hbond.Weighted>
0.0000

> <Gold.Chemscore.DEClash.Weighted>
0.1405

> <Gold.Chemscore.DEInternal.Weighted>
1.5143

> <Gold.Chemscore.Rot.Weighted>
6.9560

> <Gold.Chemscore.Internal.Correction.Weighted>
   9.000000E+99

> <Gold.Protein.RotatedTorsions>
[ 6907 6896 6895 6894 ] final  167.03 input  -60.11 | X-H torsion
[ 7974 7965 7964 7962 ] final -143.08 input  175.53 | X-H torsion
[ 8008 7997 7996 7995 ] final -113.11 input   59.86 | X-H torsion
[ 10167 10162 10161 10158 ] final  -19.76 input  -65.29 | X-H torsion
[ 10718 10713 10712 10709 ] final  118.69 input   66.30 | X-H torsion
[ 10763 10752 10751 10750 ] final    2.08 input  -60.55 | X-H torsion
[ 11005 11000 10999 10996 ] final   32.68 input  -57.11 | X-H torsion

> <Gold.Protein.ActiveResidues>
 VAL166  LYS551  ARG553  GLY616  TRP617  ASP618  TYR619  PRO620  LYS621  CYS622 
 ASP623  PHE694  ASN695  SER759  ASP760  ASP761  ALA762  ILE779  LEU786  VAL792 
 PHE793  MET794  SER795  GLU796  ALA797  LYS798  CYS799  TRP800  GLU811  SER814 

> <Gold.Protein.RotatedAtoms>
  151.8697  133.3473  159.3730 H   0  0  0  0  0  0  0  0  0  0  0  0  # atno 6907 bound_to 6896
  150.7156  134.5125  159.5623 H   0  0  0  0  0  0  0  0  0  0  0  0  # atno 6908 bound_to 6896
  152.2655  134.7989  160.0474 H   0  0  0  0  0  0  0  0  0  0  0  0  # atno 6909 bound_to 6896
  144.8396  140.5879  143.5461 H   0  0  0  0  0  0  0  0  0  0  0  0  # atno 7974 bound_to 7965
  155.0157  140.0393  157.2417 H   0  0  0  0  0  0  0  0  0  0  0  0  # atno 8008 bound_to 7997
  154.7422  140.2751  155.6340 H   0  0  0  0  0  0  0  0  0  0  0  0  # atno 8009 bound_to 7997
  156.2867  140.2663  156.2152 H   0  0  0  0  0  0  0  0  0  0  0  0  # atno 8010 bound_to 7997
  140.7271  143.4788  151.0146 H   0  0  0  0  0  0  0  0  0  0  0  0  # atno 10167 bound_to 10162
  157.6013  131.1050  150.7792 H   0  0  0  0  0  0  0  0  0  0  0  0  # atno 10718 bound_to 10713
  153.3000  135.6955  153.7212 H   0  0  0  0  0  0  0  0  0  0  0  0  # atno 10763 bound_to 10752
  153.6130  135.3441  155.2986 H   0  0  0  0  0  0  0  0  0  0  0  0  # atno 10764 bound_to 10752
  154.8548  135.4368  154.2108 H   0  0  0  0  0  0  0  0  0  0  0  0  # atno 10765 bound_to 10752
  140.2709  134.3083  155.7828 H   0  0  0  0  0  0  0  0  0  0  0  0  # atno 11005 bound_to 11000
  145.4722  139.1502  143.3808 LP  0  0  0  0  0  0  0  0  0  0  0  0  # atno 17320 bound_to 7965
  146.2690  140.4856  142.8822 LP  0  0  0  0  0  0  0  0  0  0  0  0  # atno 17321 bound_to 7965
  139.8485  143.7470  152.3178 LP  0  0  0  0  0  0  0  0  0  0  0  0  # atno 17342 bound_to 10162
  139.7643  144.7497  151.0317 LP  0  0  0  0  0  0  0  0  0  0  0  0  # atno 17343 bound_to 10162
  156.8191  130.4978  149.5345 LP  0  0  0  0  0  0  0  0  0  0  0  0  # atno 17370 bound_to 10713
  156.1086  130.6023  151.0012 LP  0  0  0  0  0  0  0  0  0  0  0  0  # atno 17371 bound_to 10713
  141.2177  133.7466  156.9333 LP  0  0  0  0  0  0  0  0  0  0  0  0  # atno 17394 bound_to 11000
  140.1374  134.9316  157.2420 LP  0  0  0  0  0  0  0  0  0  0  0  0  # atno 17395 bound_to 11000

$$$$
