AV-unprocessed.smi:1518|AV-procd|sdf|6126|dock6
  -GOLD-   22720 6263D 1   1.00000     0.00000
 Structure written by MMmdl.
 46 48  0  0  0  0  0  0  0  0  2 V2000
  146.5428  131.6972  160.4135 C   0  0  0  0  0  0  0  0  0  0  0  0
  147.2102  132.8332  159.6398 C   0  0  0  0  0  0  0  0  0  0  0  0
  147.5761  132.6231  158.4838 O   0  0  0  0  0  0  0  0  0  0  0  0
  147.3831  134.1430  160.3317 C   0  0  0  0  0  0  0  0  0  0  0  0
  146.8233  134.3235  161.6166 C   0  0  0  0  0  0  0  0  0  0  0  0
  146.9685  135.5485  162.2919 C   0  0  0  0  0  0  0  0  0  0  0  0
  147.6761  136.6046  161.6908 C   0  0  0  0  0  0  0  0  0  0  0  0
  148.2467  136.4512  160.4121 C   0  0  0  0  0  0  0  0  0  0  0  0
  148.9256  137.5367  159.9012 O   0  0  0  0  0  0  0  0  0  0  0  0
  149.6209  137.3836  158.6707 C   0  0  0  0  0  0  0  0  0  0  0  0
  149.4545  138.6682  157.8465 C   0  0  2  0  0  0  0  0  0  0  0  0
  148.6364  138.3844  156.7292 O   0  0  0  0  0  0  0  0  0  0  0  0
  150.8064  139.2473  157.3828 C   0  0  0  0  0  0  0  0  0  0  0  0
  150.7459  140.6929  157.1150 N   0  0  0  0  0  0  0  0  0  0  0  0
  150.1160  141.3694  156.1116 C   0  0  0  0  0  0  0  0  0  0  0  0
  149.3032  140.7806  155.0060 C   0  0  0  0  0  0  0  0  0  0  0  0
  150.1058  140.2197  153.9912 O   0  0  0  0  0  0  0  0  0  0  0  0
  150.3536  142.6968  156.3079 N   0  3  0  0  0  0  0  0  0  0  0  0
  151.1441  142.8724  157.4442 C   0  0  0  0  0  0  0  0  0  0  0  0
  151.6410  144.0292  158.0370 C   0  0  0  0  0  0  0  0  0  0  0  0
  152.4218  143.8598  159.1990 C   0  0  0  0  0  0  0  0  0  0  0  0
  152.6821  142.5788  159.7276 C   0  0  0  0  0  0  0  0  0  0  0  0
  152.1726  141.4133  159.1181 C   0  0  0  0  0  0  0  0  0  0  0  0
  151.4005  141.5890  157.9695 C   0  0  0  0  0  0  0  0  0  0  0  0
  148.0935  135.2137  159.7362 C   0  0  0  0  0  0  0  0  0  0  0  0
  145.5357  131.9816  160.7192 H   0  0  0  0  0  0  0  0  0  0  0  0
  147.1229  131.4475  161.3021 H   0  0  0  0  0  0  0  0  0  0  0  0
  146.4706  130.8040  159.7928 H   0  0  0  0  0  0  0  0  0  0  0  0
  146.2762  133.5254  162.0980 H   0  0  0  0  0  0  0  0  0  0  0  0
  146.5364  135.6784  163.2731 H   0  0  0  0  0  0  0  0  0  0  0  0
  147.7830  137.5417  162.2172 H   0  0  0  0  0  0  0  0  0  0  0  0
  150.6802  137.1861  158.8440 H   0  0  0  0  0  0  0  0  0  0  0  0
  149.2018  136.5376  158.1229 H   0  0  0  0  0  0  0  0  0  0  0  0
  148.9287  139.4079  158.4511 H   0  0  0  0  0  0  0  0  0  0  0  0
  149.0240  137.6714  156.2457 H   0  0  0  0  0  0  0  0  0  0  0  0
  151.5598  139.0990  158.1573 H   0  0  0  0  0  0  0  0  0  0  0  0
  151.1794  138.7285  156.4997 H   0  0  0  0  0  0  0  0  0  0  0  0
  148.6475  140.0083  155.4086 H   0  0  0  0  0  0  0  0  0  0  0  0
  148.6633  141.5483  154.5713 H   0  0  0  0  0  0  0  0  0  0  0  0
  149.6096  140.2089  153.1867 H   0  0  0  0  0  0  0  0  0  0  0  0
  151.4436  145.0115  157.6333 H   0  0  0  0  0  0  0  0  0  0  0  0
  152.8298  144.7293  159.6937 H   0  0  0  0  0  0  0  0  0  0  0  0
  153.2858  142.4877  160.6191 H   0  0  0  0  0  0  0  0  0  0  0  0
  152.3825  140.4386  159.5318 H   0  0  0  0  0  0  0  0  0  0  0  0
  148.5214  135.0827  158.7553 H   0  0  0  0  0  0  0  0  0  0  0  0
  149.9951  143.4282  155.7076 H   0  0  0  0  0  0  0  0  0  0  0  0
  1  2  1  0  0  0  0
  1 26  1  0  0  0  0
  1 27  1  0  0  0  0
  1 28  1  0  0  0  0
  2  3  2  0  0  0  0
  2  4  1  0  0  0  0
  4 25  1  0  0  0  0
  4  5  2  0  0  0  0
  5  6  1  0  0  0  0
  5 29  1  0  0  0  0
  6  7  2  0  0  0  0
  6 30  1  0  0  0  0
  7  8  1  0  0  0  0
  7 31  1  0  0  0  0
  8  9  1  0  0  0  0
  8 25  2  0  0  0  0
  9 10  1  0  0  0  0
 10 11  1  0  0  0  0
 10 32  1  0  0  0  0
 10 33  1  0  0  0  0
 11 12  1  0  0  0  0
 11 13  1  0  0  0  0
 11 34  1  0  0  0  0
 12 35  1  0  0  0  0
 13 14  1  0  0  0  0
 13 36  1  0  0  0  0
 13 37  1  0  0  0  0
 14 24  1  0  0  0  0
 14 15  1  0  0  0  0
 15 16  1  0  0  0  0
 15 18  2  0  0  0  0
 16 17  1  0  0  0  0
 16 38  1  0  0  0  0
 16 39  1  0  0  0  0
 17 40  1  0  0  0  0
 18 19  1  0  0  0  0
 18 46  1  0  0  0  0
 19 24  2  0  0  0  0
 19 20  1  0  0  0  0
 20 21  2  0  0  0  0
 20 41  1  0  0  0  0
 21 22  1  0  0  0  0
 21 42  1  0  0  0  0
 22 23  2  0  0  0  0
 22 43  1  0  0  0  0
 23 24  1  0  0  0  0
 23 44  1  0  0  0  0
 25 45  1  0  0  0  0
M  CHG  1  18   1
M  END
> <s_m_source_file>
AV-unprocessed.smi

> <i_m_source_file_index>
1518

> <i_lp_mmshare_version>
43012

> <i_f3d_flags>
0

> <s_epik_input>
W0NIM11DKD1PKWMxW2NIXVtjSF1bY0hdYyhbY0hdMSlPW0NIMl1bQ0BIXShbT0hdKVtDSDJdbihjKG4yKVtDSDJdW09IXSljKGMyMylbY0hdW2NIXVtjSF1bY0hdMw==

> <s_epik_cmdline>
J2VwaWtfcHl0aG9uJywgJy1waCcsICc3LjAnLCAnLXRuJywgJzgnLCAnLW1hJywgJzIwMCcsICctbWV0YWxfYmluZGluZycsICctaW1hZScsICc8aW5maWxlLm1hZT4nLCAnLW9tYWUnLCAnPG91dGZpbGUubWFlPic=

> <r_lp_tautomer_probability>
0.99995

> <r_epik_Ionization_Penalty>
1.40416

> <r_epik_Ionization_Penalty_Charging>
1.4033

> <r_epik_Ionization_Penalty_Neutral>
0.000858184

> <r_epik_State_Penalty>
1.48564

> <r_epik_Charging_Adjusted_Penalty>
2.88894

> <i_epik_Tot_Q>
1

> <i_epik_Tot_abs_Q>
1

> <r_epik_Metal_State_Penalty>
5.52809

> <b_epik_Metal_Only>
0

> <s_lp_Force_Field>
OPLS_2005

> <r_lp_Energy>
23.9778

> <b_lp_Chiralities_Consistent>
1

> <s_lp_Variant>
AV-unprocessed.smi:1518-3

> <Gold.Version>
5.8.1

> <Gold.Id.Protein>
6NUR|6NUR_protein|mol2

> <Gold.PLP.Fitness>
58.6517

> <Gold.PLP.PLP>
-50.6867

> <Gold.PLP.part.hbond>
-4.7522

> <Gold.PLP.part.metal>
0.0000

> <Gold.PLP.part.buried>
-4.7145

> <Gold.PLP.part.nonpolar>
-42.0471

> <Gold.PLP.part.repulsive>
0.0883

> <Gold.PLP.ligand.clash>
0.0000

> <Gold.PLP.ligand.torsion>
1.6096

> <Gold.PLP.Chemscore.Hbond>
3.6832

> <Gold.PLP.Chemscore.CHOScore>
0.0000

> <Gold.PLP.Chemscore.Metal>
0.0000

> <Gold.Chemscore.Hbonds>
donor molecule, donor type, donor heavy atom, donor atom, acceptor molecule, acceptor atom, score
      L1  H    17    40       P1  7957  0.95
      L1  H    18    46       P1  8028  1.73
      P1  H  6931  6943       L1     9  0.11
      P1  H  7989  7998       L1    17  0.86

> <Gold.PLP.Chemscore.Internal.Correction>
0.1346

> <Gold.Rescore>
     Score         DG    S(hbond)    S(metal)    S(lipo)     H(rot)  DE(clash)    DE(int)     intcor
     17.20     -19.00       2.37        0.00     120.85       3.34       0.01       1.80       ----

> <Gold.Chemscore.Fitness>
17.1965

> <Gold.Chemscore.DG>
-19.0029

> <Gold.Chemscore.ZeroCoef>
-5.4800

> <Gold.Chemscore.Hbond>
2.3746

> <Gold.Chemscore.Metal>
0.0000

> <Gold.Chemscore.Lipo>
120.8461

> <Gold.Chemscore.Internal_Hbond>
0.0000

> <Gold.Chemscore.DEClash>
0.0071

> <Gold.Chemscore.DEInternal>
1.7993

> <Gold.Chemscore.Rot>
3.3387

> <Gold.Chemscore.Internal.Correction>
   9.000000E+99

> <Gold.Chemscore.Hbonds>
donor molecule, donor type, donor heavy atom, donor atom, acceptor molecule, acceptor atom, score
      L1  H    17    40       P1  7957  0.85
      L1  H    18    46       P1  8028  0.85
      P1  H  7989  7998       L1    17  0.29

> <Gold.Chemscore.Hbond.Weighted>
-7.9310

> <Gold.Chemscore.Metal.Weighted>
-0.0000

> <Gold.Chemscore.Lipo.Weighted>
-14.1390

> <Gold.Chemscore.Internal_Hbond.Weighted>
0.0000

> <Gold.Chemscore.DEClash.Weighted>
0.0071

> <Gold.Chemscore.DEInternal.Weighted>
1.7993

> <Gold.Chemscore.Rot.Weighted>
8.5471

> <Gold.Chemscore.Internal.Correction.Weighted>
   9.000000E+99

> <Gold.Protein.RotatedTorsions>
[ 6907 6896 6895 6894 ] final  -22.99 input  -60.11 | X-H torsion
[ 7974 7965 7964 7962 ] final -167.90 input  175.53 | X-H torsion
[ 8008 7997 7996 7995 ] final   27.63 input   59.86 | X-H torsion
[ 10167 10162 10161 10158 ] final  -95.44 input  -65.29 | X-H torsion
[ 10718 10713 10712 10709 ] final  157.04 input   66.30 | X-H torsion
[ 10763 10752 10751 10750 ] final -160.03 input  -60.55 | X-H torsion
[ 11005 11000 10999 10996 ] final  132.33 input  -57.11 | X-H torsion

> <Gold.Protein.ActiveResidues>
 VAL166  LYS551  ARG553  GLY616  TRP617  ASP618  TYR619  PRO620  LYS621  CYS622 
 ASP623  PHE694  ASN695  SER759  ASP760  ASP761  ALA762  ILE779  LEU786  VAL792 
 PHE793  MET794  SER795  GLU796  ALA797  LYS798  CYS799  TRP800  GLU811  SER814 

> <Gold.Protein.RotatedAtoms>
  151.2105  135.0479  159.8908 H   0  0  0  0  0  0  0  0  0  0  0  0  # atno 6907 bound_to 6896
  152.5425  134.0750  159.8221 H   0  0  0  0  0  0  0  0  0  0  0  0  # atno 6908 bound_to 6896
  151.0903  133.5273  159.2647 H   0  0  0  0  0  0  0  0  0  0  0  0  # atno 6909 bound_to 6896
  144.7213  140.2449  143.6286 H   0  0  0  0  0  0  0  0  0  0  0  0  # atno 7974 bound_to 7965
  155.0459  140.3174  155.4708 H   0  0  0  0  0  0  0  0  0  0  0  0  # atno 8008 bound_to 7997
  156.2845  140.2154  156.5527 H   0  0  0  0  0  0  0  0  0  0  0  0  # atno 8009 bound_to 7997
  154.7251  140.0486  157.0663 H   0  0  0  0  0  0  0  0  0  0  0  0  # atno 8010 bound_to 7997
  140.3041  143.3144  152.0217 H   0  0  0  0  0  0  0  0  0  0  0  0  # atno 10167 bound_to 10162
  157.1968  131.0667  151.2048 H   0  0  0  0  0  0  0  0  0  0  0  0  # atno 10718 bound_to 10713
  154.7425  135.3072  154.8703 H   0  0  0  0  0  0  0  0  0  0  0  0  # atno 10763 bound_to 10752
  153.9513  135.6763  153.4748 H   0  0  0  0  0  0  0  0  0  0  0  0  # atno 10764 bound_to 10752
  153.1023  135.4906  154.8814 H   0  0  0  0  0  0  0  0  0  0  0  0  # atno 10765 bound_to 10752
  139.9783  134.9556  156.9566 H   0  0  0  0  0  0  0  0  0  0  0  0  # atno 11005 bound_to 11000
  145.8284  139.2075  143.1897 LP  0  0  0  0  0  0  0  0  0  0  0  0  # atno 17320 bound_to 7965
  146.0453  140.8124  142.9808 LP  0  0  0  0  0  0  0  0  0  0  0  0  # atno 17321 bound_to 7965
  139.4908  144.6433  151.6830 LP  0  0  0  0  0  0  0  0  0  0  0  0  # atno 17342 bound_to 10162
  140.5625  144.0245  150.6176 LP  0  0  0  0  0  0  0  0  0  0  0  0  # atno 17343 bound_to 10162
  157.3806  130.7229  149.6627 LP  0  0  0  0  0  0  0  0  0  0  0  0  # atno 17370 bound_to 10713
  155.9705  130.4173  150.4275 LP  0  0  0  0  0  0  0  0  0  0  0  0  # atno 17371 bound_to 10713
  140.5148  134.0966  155.7278 LP  0  0  0  0  0  0  0  0  0  0  0  0  # atno 17394 bound_to 11000
  141.1458  133.9057  157.2218 LP  0  0  0  0  0  0  0  0  0  0  0  0  # atno 17395 bound_to 11000

$$$$
