AV-unprocessed.smi:2889|AV-procd|sdf|11109|dock7
  -GOLD-   2272015573D 1   1.00000     0.00000
 Structure written by MMmdl.
 36 37  0  0  0  0  0  0  0  0  1 V2000
  153.6347  143.7510  163.0960 C   0  0  0  0  0  0  0  0  0  0  0  0
  153.7421  142.3340  161.9697 S   0  0  0  0  0  0  0  0  0  0  0  0
  152.5064  142.7810  160.7070 C   0  0  1  0  0  0  0  0  0  0  0  0
  153.0387  143.9102  159.8043 C   0  0  0  0  0  0  0  0  0  0  0  0
  152.0101  144.3241  158.7422 C   0  0  0  0  0  0  0  0  0  0  0  0
  151.5840  143.1215  157.8896 C   0  0  0  0  0  0  0  0  0  0  0  0
  151.0311  141.9841  158.7633 C   0  0  0  0  0  0  0  0  0  0  0  0
  152.0104  141.5670  159.8815 C   0  0  1  0  0  0  0  0  0  0  0  0
  153.1386  140.8007  159.3340 N   0  0  0  0  0  0  0  0  0  0  0  0
  152.8581  139.2448  158.6376 S   0  0  0  0  0  0  0  0  0  0  0  0
  154.1658  138.6275  158.3653 O   0  0  0  0  0  0  0  0  0  0  0  0
  151.8772  138.5601  159.4933 O   0  0  0  0  0  0  0  0  0  0  0  0
  152.0496  139.6725  157.0344 C   0  0  0  0  0  0  0  0  0  0  0  0
  151.5678  138.4262  156.3468 C   0  0  0  0  0  0  0  0  0  0  0  0
  150.7811  138.3193  155.1668 C   0  0  0  0  0  0  0  0  0  0  0  0
  150.6487  136.9722  154.9923 C   0  0  0  0  0  0  0  0  0  0  0  0
  151.2864  136.3002  155.9835 O   0  0  0  0  0  0  0  0  0  0  0  0
  151.8657  137.2372  156.8467 N   0  0  0  0  0  0  0  0  0  0  0  0
  154.4088  143.6771  163.8594 H   0  0  0  0  0  0  0  0  0  0  0  0
  152.6676  143.7750  163.5978 H   0  0  0  0  0  0  0  0  0  0  0  0
  153.7737  144.6854  162.5522 H   0  0  0  0  0  0  0  0  0  0  0  0
  151.6497  143.1824  161.2502 H   0  0  0  0  0  0  0  0  0  0  0  0
  153.3027  144.7763  160.4119 H   0  0  0  0  0  0  0  0  0  0  0  0
  153.9581  143.5882  159.3134 H   0  0  0  0  0  0  0  0  0  0  0  0
  151.1355  144.7591  159.2274 H   0  0  0  0  0  0  0  0  0  0  0  0
  152.4293  145.1019  158.1034 H   0  0  0  0  0  0  0  0  0  0  0  0
  150.8307  143.4293  157.1642 H   0  0  0  0  0  0  0  0  0  0  0  0
  152.4361  142.7597  157.3129 H   0  0  0  0  0  0  0  0  0  0  0  0
  150.1012  142.3211  159.2230 H   0  0  0  0  0  0  0  0  0  0  0  0
  150.7605  141.1293  158.1429 H   0  0  0  0  0  0  0  0  0  0  0  0
  151.4655  140.9099  160.5581 H   0  0  0  0  0  0  0  0  0  0  0  0
  153.7144  141.3795  158.7232 H   0  0  0  0  0  0  0  0  0  0  0  0
  151.2161  140.3419  157.2480 H   0  0  0  0  0  0  0  0  0  0  0  0
  152.7620  140.2210  156.4188 H   0  0  0  0  0  0  0  0  0  0  0  0
  150.3848  139.1060  154.5425 H   0  0  0  0  0  0  0  0  0  0  0  0
  150.1536  136.3655  154.2487 H   0  0  0  0  0  0  0  0  0  0  0  0
  1  2  1  0  0  0  0
  1 19  1  0  0  0  0
  1 20  1  0  0  0  0
  1 21  1  0  0  0  0
  2  3  1  0  0  0  0
  3  8  1  0  0  0  0
  3  4  1  0  0  0  0
  3 22  1  0  0  0  0
  4  5  1  0  0  0  0
  4 23  1  0  0  0  0
  4 24  1  0  0  0  0
  5  6  1  0  0  0  0
  5 25  1  0  0  0  0
  5 26  1  0  0  0  0
  6  7  1  0  0  0  0
  6 27  1  0  0  0  0
  6 28  1  0  0  0  0
  7  8  1  0  0  0  0
  7 29  1  0  0  0  0
  7 30  1  0  0  0  0
  8  9  1  0  0  0  0
  8 31  1  0  0  0  0
  9 10  1  0  0  0  0
  9 32  1  0  0  0  0
 10 11  2  0  0  0  0
 10 12  2  0  0  0  0
 10 13  1  0  0  0  0
 13 14  1  0  0  0  0
 13 33  1  0  0  0  0
 13 34  1  0  0  0  0
 14 18  2  0  0  0  0
 14 15  1  0  0  0  0
 15 16  2  0  0  0  0
 15 35  1  0  0  0  0
 16 17  1  0  0  0  0
 16 36  1  0  0  0  0
 17 18  1  0  0  0  0
M  END
> <s_m_source_file>
AV-unprocessed.smi

> <i_m_source_file_index>
2889

> <i_lp_mmshare_version>
43012

> <i_f3d_flags>
0

> <s_epik_input>
W0NIM11TW0NAQEhdMVtDSDJdW0NIMl1bQ0gyXVtDSDJdW0NASF0xW05IXVMoPU8pKD1PKVtDSDJdYzJbY0hdW2NIXW9uMg==

> <s_epik_cmdline>
J2VwaWtfcHl0aG9uJywgJy1waCcsICc3LjAnLCAnLXRuJywgJzgnLCAnLW1hJywgJzIwMCcsICctbWV0YWxfYmluZGluZycsICctaW1hZScsICc8aW5maWxlLm1hZT4nLCAnLW9tYWUnLCAnPG91dGZpbGUubWFlPic=

> <r_lp_tautomer_probability>
1

> <r_epik_Ionization_Penalty>
0.000229547

> <r_epik_Ionization_Penalty_Charging>
0

> <r_epik_Ionization_Penalty_Neutral>
0.000229547

> <r_epik_State_Penalty>
-0

> <r_epik_Charging_Adjusted_Penalty>
0

> <i_epik_Tot_Q>
0

> <i_epik_Tot_abs_Q>
0

> <r_epik_Metal_State_Penalty>
0.145979

> <b_epik_Metal_Only>
0

> <s_lp_Force_Field>
OPLS_2005

> <r_lp_Energy>
4.05076

> <b_lp_Chiralities_Consistent>
1

> <s_lp_Variant>
AV-unprocessed.smi:2889-2

> <Gold.Version>
5.8.1

> <Gold.Id.Protein>
6NUR|6NUR_protein|mol2

> <Gold.PLP.Fitness>
44.8784

> <Gold.PLP.PLP>
-37.0874

> <Gold.PLP.part.hbond>
-2.0000

> <Gold.PLP.part.metal>
0.0000

> <Gold.PLP.part.buried>
-3.2357

> <Gold.PLP.part.nonpolar>
-31.4900

> <Gold.PLP.part.repulsive>
0.0893

> <Gold.PLP.ligand.clash>
0.0000

> <Gold.PLP.ligand.torsion>
0.5777

> <Gold.PLP.Chemscore.Hbond>
1.9920

> <Gold.PLP.Chemscore.CHOScore>
0.9351

> <Gold.PLP.Chemscore.Metal>
0.0000

> <Gold.Chemscore.Hbonds>
donor molecule, donor type, donor heavy atom, donor atom, acceptor molecule, acceptor atom, score
      P1  H  7997  8010       L1    11  1.00
      P1  H 10752 10765       L1    17  0.57
      L1  C    16    36       P1  7948  0.70

> <Gold.PLP.Chemscore.Internal.Correction>
0.1652

> <Gold.Rescore>
     Score         DG    S(hbond)    S(metal)    S(lipo)     H(rot)  DE(clash)    DE(int)     intcor
     17.14     -19.61       1.66        0.00     112.93       1.81       0.04       2.42       ----

> <Gold.Chemscore.Fitness>
17.1444

> <Gold.Chemscore.DG>
-19.6086

> <Gold.Chemscore.ZeroCoef>
-5.4800

> <Gold.Chemscore.Hbond>
1.6582

> <Gold.Chemscore.Metal>
0.0000

> <Gold.Chemscore.Lipo>
112.9329

> <Gold.Chemscore.Internal_Hbond>
0.0000

> <Gold.Chemscore.DEClash>
0.0416

> <Gold.Chemscore.DEInternal>
2.4226

> <Gold.Chemscore.Rot>
1.8058

> <Gold.Chemscore.Internal.Correction>
   9.000000E+99

> <Gold.Chemscore.Hbonds>
donor molecule, donor type, donor heavy atom, donor atom, acceptor molecule, acceptor atom, score
      P1  H  7997  8010       L1    11  0.38
      P1  H 10752 10765       L1    17  0.06

> <Gold.Chemscore.Hbond.Weighted>
-5.5383

> <Gold.Chemscore.Metal.Weighted>
-0.0000

> <Gold.Chemscore.Lipo.Weighted>
-13.2132

> <Gold.Chemscore.Internal_Hbond.Weighted>
0.0000

> <Gold.Chemscore.DEClash.Weighted>
0.0416

> <Gold.Chemscore.DEInternal.Weighted>
2.4226

> <Gold.Chemscore.Rot.Weighted>
4.6228

> <Gold.Chemscore.Internal.Correction.Weighted>
   9.000000E+99

> <Gold.Protein.RotatedTorsions>
[ 6907 6896 6895 6894 ] final -106.73 input  -60.11 | X-H torsion
[ 7974 7965 7964 7962 ] final   17.26 input  175.53 | X-H torsion
[ 8008 7997 7996 7995 ] final    0.42 input   59.86 | X-H torsion
[ 10167 10162 10161 10158 ] final  -84.13 input  -65.29 | X-H torsion
[ 10718 10713 10712 10709 ] final  -16.53 input   66.30 | X-H torsion
[ 10763 10752 10751 10750 ] final -160.41 input  -60.55 | X-H torsion
[ 11005 11000 10999 10996 ] final   74.24 input  -57.11 | X-H torsion

> <Gold.Protein.ActiveResidues>
 VAL166  LYS551  ARG553  GLY616  TRP617  ASP618  TYR619  PRO620  LYS621  CYS622 
 ASP623  PHE694  ASN695  SER759  ASP760  ASP761  ALA762  ILE779  LEU786  VAL792 
 PHE793  MET794  SER795  GLU796  ALA797  LYS798  CYS799  TRP800  GLU811  SER814 

> <Gold.Protein.RotatedAtoms>
  150.7405  133.9933  159.3613 H   0  0  0  0  0  0  0  0  0  0  0  0  # atno 6907 bound_to 6896
  151.7882  135.0741  160.0393 H   0  0  0  0  0  0  0  0  0  0  0  0  # atno 6908 bound_to 6896
  152.3226  133.5834  159.5791 H   0  0  0  0  0  0  0  0  0  0  0  0  # atno 6909 bound_to 6896
  146.2224  139.8628  142.8601 H   0  0  0  0  0  0  0  0  0  0  0  0  # atno 7974 bound_to 7965
  154.6679  140.2605  155.7039 H   0  0  0  0  0  0  0  0  0  0  0  0  # atno 8008 bound_to 7997
  156.2646  140.2835  156.1098 H   0  0  0  0  0  0  0  0  0  0  0  0  # atno 8009 bound_to 7997
  155.1212  140.0377  157.2740 H   0  0  0  0  0  0  0  0  0  0  0  0  # atno 8010 bound_to 7997
  140.4161  143.2603  151.8953 H   0  0  0  0  0  0  0  0  0  0  0  0  # atno 10167 bound_to 10162
  156.5863  130.4787  149.6298 H   0  0  0  0  0  0  0  0  0  0  0  0  # atno 10718 bound_to 10713
  154.7392  135.3064  154.8758 H   0  0  0  0  0  0  0  0  0  0  0  0  # atno 10763 bound_to 10752
  153.9577  135.6756  153.4749 H   0  0  0  0  0  0  0  0  0  0  0  0  # atno 10764 bound_to 10752
  153.0992  135.4920  154.8760 H   0  0  0  0  0  0  0  0  0  0  0  0  # atno 10765 bound_to 10752
  139.9400  134.7416  156.1124 H   0  0  0  0  0  0  0  0  0  0  0  0  # atno 11005 bound_to 11000
  145.2687  141.0101  143.3784 LP  0  0  0  0  0  0  0  0  0  0  0  0  # atno 17320 bound_to 7965
  144.9240  139.4377  143.6527 LP  0  0  0  0  0  0  0  0  0  0  0  0  # atno 17321 bound_to 7965
  139.4782  144.5486  151.8420 LP  0  0  0  0  0  0  0  0  0  0  0  0  # atno 17342 bound_to 10162
  140.4585  144.1756  150.5904 LP  0  0  0  0  0  0  0  0  0  0  0  0  # atno 17343 bound_to 10162
  156.2588  130.6950  151.1712 LP  0  0  0  0  0  0  0  0  0  0  0  0  # atno 17370 bound_to 10713
  157.7314  131.0608  150.5678 LP  0  0  0  0  0  0  0  0  0  0  0  0  # atno 17371 bound_to 10713
  141.1031  133.6670  156.2800 LP  0  0  0  0  0  0  0  0  0  0  0  0  # atno 17394 bound_to 11000
  140.5975  134.5588  157.5511 LP  0  0  0  0  0  0  0  0  0  0  0  0  # atno 17395 bound_to 11000

$$$$
