AV-unprocessed.smi:3317|AV-procd|sdf|12761|dock10
  -GOLD-   2272019103D 1   1.00000     0.00000
 Structure written by MMmdl.
 36 37  0  0  0  0  0  0  0  0  1 V2000
  151.2442  138.8270  154.9127 C   0  0  0  0  0  0  0  0  0  0  0  0
  150.7323  140.1512  154.9478 O   0  0  0  0  0  0  0  0  0  0  0  0
  149.4248  140.3577  154.5529 C   0  0  0  0  0  0  0  0  0  0  0  0
  148.7616  139.5587  153.5868 C   0  0  0  0  0  0  0  0  0  0  0  0
  147.4277  139.8473  153.2511 C   0  0  0  0  0  0  0  0  0  0  0  0
  146.8002  140.9272  153.8934 C   0  0  0  0  0  0  0  0  0  0  0  0
  147.4183  141.6952  154.8117 N   0  0  0  0  0  0  0  0  0  0  0  0
  148.7055  141.4281  155.1459 C   0  0  0  0  0  0  0  0  0  0  0  0
  149.4289  142.1916  156.1023 N   0  0  0  0  0  0  0  0  0  0  0  0
  149.5802  141.9665  157.4212 C   0  0  0  0  0  0  0  0  0  0  0  0
  149.0828  141.0225  158.0345 O   0  0  0  0  0  0  0  0  0  0  0  0
  150.4202  142.9931  158.1805 C   0  0  0  0  0  0  0  0  0  0  0  0
  151.4237  142.3157  158.9251 O   0  0  0  0  0  0  0  0  0  0  0  0
  152.5891  143.0925  159.1679 C   0  0  0  0  0  0  0  0  0  0  0  0
  153.5129  142.2776  160.0731 C   0  0  0  0  0  0  0  0  0  0  0  0
  152.9690  142.4807  161.4916 C   0  0  0  0  0  0  0  0  0  0  0  0
  152.1858  143.8022  161.4656 C   0  0  0  0  0  0  0  0  0  0  0  0
  152.2629  144.3212  160.0249 C   0  0  0  0  0  0  0  0  0  0  0  0
  152.2790  138.8330  155.2550 H   0  0  0  0  0  0  0  0  0  0  0  0
  151.2349  138.4237  153.8991 H   0  0  0  0  0  0  0  0  0  0  0  0
  150.6836  138.1632  155.5722 H   0  0  0  0  0  0  0  0  0  0  0  0
  149.2483  138.7296  153.0960 H   0  0  0  0  0  0  0  0  0  0  0  0
  146.8990  139.2551  152.5190 H   0  0  0  0  0  0  0  0  0  0  0  0
  145.7761  141.1818  153.6641 H   0  0  0  0  0  0  0  0  0  0  0  0
  149.8982  143.0072  155.7359 H   0  0  0  0  0  0  0  0  0  0  0  0
  150.8752  143.6757  157.4616 H   0  0  0  0  0  0  0  0  0  0  0  0
  149.7750  143.5798  158.8352 H   0  0  0  0  0  0  0  0  0  0  0  0
  153.0867  143.3519  158.2318 H   0  0  0  0  0  0  0  0  0  0  0  0
  153.5657  141.2262  159.7880 H   0  0  0  0  0  0  0  0  0  0  0  0
  154.5236  142.6836  160.0141 H   0  0  0  0  0  0  0  0  0  0  0  0
  152.2975  141.6624  161.7543 H   0  0  0  0  0  0  0  0  0  0  0  0
  153.7718  142.4937  162.2292 H   0  0  0  0  0  0  0  0  0  0  0  0
  151.1471  143.6200  161.7441 H   0  0  0  0  0  0  0  0  0  0  0  0
  152.5898  144.5291  162.1708 H   0  0  0  0  0  0  0  0  0  0  0  0
  153.0832  145.0359  159.9467 H   0  0  0  0  0  0  0  0  0  0  0  0
  151.3550  144.8412  159.7205 H   0  0  0  0  0  0  0  0  0  0  0  0
  1  2  1  0  0  0  0
  1 19  1  0  0  0  0
  1 20  1  0  0  0  0
  1 21  1  0  0  0  0
  2  3  1  0  0  0  0
  3  8  1  0  0  0  0
  3  4  2  0  0  0  0
  4  5  1  0  0  0  0
  4 22  1  0  0  0  0
  5  6  2  0  0  0  0
  5 23  1  0  0  0  0
  6  7  1  0  0  0  0
  6 24  1  0  0  0  0
  7  8  2  0  0  0  0
  8  9  1  0  0  0  0
  9 10  1  0  0  0  0
  9 25  1  0  0  0  0
 10 11  2  0  0  0  0
 10 12  1  0  0  0  0
 12 13  1  0  0  0  0
 12 26  1  0  0  0  0
 12 27  1  0  0  0  0
 13 14  1  0  0  0  0
 14 18  1  0  0  0  0
 14 15  1  0  0  0  0
 14 28  1  0  0  0  0
 15 16  1  0  0  0  0
 15 29  1  0  0  0  0
 15 30  1  0  0  0  0
 16 17  1  0  0  0  0
 16 31  1  0  0  0  0
 16 32  1  0  0  0  0
 17 18  1  0  0  0  0
 17 33  1  0  0  0  0
 17 34  1  0  0  0  0
 18 35  1  0  0  0  0
 18 36  1  0  0  0  0
M  END
> <s_m_source_file>
AV-unprocessed.smi

> <i_m_source_file_index>
3317

> <i_lp_mmshare_version>
43012

> <i_f3d_flags>
0

> <s_epik_input>
W0NIM11PYzFbY0hdW2NIXVtjSF1uYzFbTkhdQyg9TylbQ0gyXU9bQ0hdMltDSDJdW0NIMl1bQ0gyXVtDSDJdMg==

> <s_epik_cmdline>
J2VwaWtfcHl0aG9uJywgJy1waCcsICc3LjAnLCAnLXRuJywgJzgnLCAnLW1hJywgJzIwMCcsICctbWV0YWxfYmluZGluZycsICctaW1hZScsICc8aW5maWxlLm1hZT4nLCAnLW9tYWUnLCAnPG91dGZpbGUubWFlPic=

> <r_lp_tautomer_probability>
1

> <r_epik_Ionization_Penalty>
0.000545986

> <r_epik_Ionization_Penalty_Charging>
0

> <r_epik_Ionization_Penalty_Neutral>
0.000545986

> <r_epik_State_Penalty>
-0

> <r_epik_Charging_Adjusted_Penalty>
0

> <i_epik_Tot_Q>
0

> <i_epik_Tot_abs_Q>
0

> <r_epik_Metal_State_Penalty>
-0

> <b_epik_Metal_Only>
0

> <s_lp_Force_Field>
OPLS_2005

> <r_lp_Energy>
28.4297

> <b_lp_Chiralities_Consistent>
1

> <s_lp_Variant>
AV-unprocessed.smi:3317-1

> <Gold.Version>
5.8.1

> <Gold.Id.Protein>
6NUR|6NUR_protein|mol2

> <Gold.PLP.Fitness>
42.9717

> <Gold.PLP.PLP>
-38.4574

> <Gold.PLP.part.hbond>
-2.0000

> <Gold.PLP.part.metal>
0.0000

> <Gold.PLP.part.buried>
-1.5115

> <Gold.PLP.part.nonpolar>
-36.0197

> <Gold.PLP.part.repulsive>
0.2995

> <Gold.PLP.ligand.clash>
0.0000

> <Gold.PLP.ligand.torsion>
1.3522

> <Gold.PLP.Chemscore.Hbond>
1.4000

> <Gold.PLP.Chemscore.CHOScore>
1.0000

> <Gold.PLP.Chemscore.Metal>
0.0000

> <Gold.Chemscore.Hbonds>
donor molecule, donor type, donor heavy atom, donor atom, acceptor molecule, acceptor atom, score
      L1  H     9    25       P1  8028  0.37
      P1  H  7989  7998       L1     2  1.00
      L1  C     6    24       P1 10175  1.00

> <Gold.PLP.Chemscore.Internal.Correction>
0.0188

> <Gold.Rescore>
     Score         DG    S(hbond)    S(metal)    S(lipo)     H(rot)  DE(clash)    DE(int)     intcor
     14.43     -15.89       0.96        0.00      96.82       1.61       0.11       1.35       ----

> <Gold.Chemscore.Fitness>
14.4305

> <Gold.Chemscore.DG>
-15.8925

> <Gold.Chemscore.ZeroCoef>
-5.4800

> <Gold.Chemscore.Hbond>
0.9619

> <Gold.Chemscore.Metal>
0.0000

> <Gold.Chemscore.Lipo>
96.8220

> <Gold.Chemscore.Internal_Hbond>
0.0000

> <Gold.Chemscore.DEClash>
0.1105

> <Gold.Chemscore.DEInternal>
1.3515

> <Gold.Chemscore.Rot>
1.6127

> <Gold.Chemscore.Internal.Correction>
   9.000000E+99

> <Gold.Chemscore.Hbonds>
donor molecule, donor type, donor heavy atom, donor atom, acceptor molecule, acceptor atom, score
      L1  H     9    25       P1  8028  0.37
      P1  H  7989  7998       L1     2  0.07

> <Gold.Chemscore.Hbond.Weighted>
-3.2128

> <Gold.Chemscore.Metal.Weighted>
-0.0000

> <Gold.Chemscore.Lipo.Weighted>
-11.3282

> <Gold.Chemscore.Internal_Hbond.Weighted>
0.0000

> <Gold.Chemscore.DEClash.Weighted>
0.1105

> <Gold.Chemscore.DEInternal.Weighted>
1.3515

> <Gold.Chemscore.Rot.Weighted>
4.1285

> <Gold.Chemscore.Internal.Correction.Weighted>
   9.000000E+99

> <Gold.Protein.RotatedTorsions>
[ 6907 6896 6895 6894 ] final   27.21 input  -60.11 | X-H torsion
[ 7974 7965 7964 7962 ] final -138.54 input  175.53 | X-H torsion
[ 8008 7997 7996 7995 ] final  126.82 input   59.86 | X-H torsion
[ 10167 10162 10161 10158 ] final  -48.61 input  -65.29 | X-H torsion
[ 10718 10713 10712 10709 ] final  -71.75 input   66.30 | X-H torsion
[ 10763 10752 10751 10750 ] final -124.19 input  -60.55 | X-H torsion
[ 11005 11000 10999 10996 ] final   53.01 input  -57.11 | X-H torsion

> <Gold.Protein.ActiveResidues>
 VAL166  LYS551  ARG553  GLY616  TRP617  ASP618  TYR619  PRO620  LYS621  CYS622 
 ASP623  PHE694  ASN695  SER759  ASP760  ASP761  ALA762  ILE779  LEU786  VAL792 
 PHE793  MET794  SER795  GLU796  ALA797  LYS798  CYS799  TRP800  GLU811  SER814 

> <Gold.Protein.RotatedAtoms>
  151.9988  134.9939  160.0564 H   0  0  0  0  0  0  0  0  0  0  0  0  # atno 6907 bound_to 6896
  152.1539  133.4534  159.4835 H   0  0  0  0  0  0  0  0  0  0  0  0  # atno 6908 bound_to 6896
  150.6879  134.2073  159.4389 H   0  0  0  0  0  0  0  0  0  0  0  0  # atno 6909 bound_to 6896
  144.8750  140.6424  143.5242 H   0  0  0  0  0  0  0  0  0  0  0  0  # atno 7974 bound_to 7965
  156.2874  140.2683  156.2173 H   0  0  0  0  0  0  0  0  0  0  0  0  # atno 8008 bound_to 7997
  155.0204  140.0386  157.2453 H   0  0  0  0  0  0  0  0  0  0  0  0  # atno 8009 bound_to 7997
  154.7441  140.2730  155.6353 H   0  0  0  0  0  0  0  0  0  0  0  0  # atno 8010 bound_to 7997
  140.6723  143.2733  151.4095 H   0  0  0  0  0  0  0  0  0  0  0  0  # atno 10167 bound_to 10162
  156.0349  130.4358  150.2491 H   0  0  0  0  0  0  0  0  0  0  0  0  # atno 10718 bound_to 10713
  154.8719  135.4072  154.3065 H   0  0  0  0  0  0  0  0  0  0  0  0  # atno 10763 bound_to 10752
  153.3916  135.7015  153.6496 H   0  0  0  0  0  0  0  0  0  0  0  0  # atno 10764 bound_to 10752
  153.5277  135.3674  155.2632 H   0  0  0  0  0  0  0  0  0  0  0  0  # atno 10765 bound_to 10752
  140.0802  134.5349  155.8954 H   0  0  0  0  0  0  0  0  0  0  0  0  # atno 11005 bound_to 11000
  145.4059  139.1589  143.4152 LP  0  0  0  0  0  0  0  0  0  0  0  0  # atno 17320 bound_to 7965
  146.2956  140.4159  142.8723 LP  0  0  0  0  0  0  0  0  0  0  0  0  # atno 17321 bound_to 7965
  139.5998  144.1321  152.2185 LP  0  0  0  0  0  0  0  0  0  0  0  0  # atno 17342 bound_to 10162
  140.0701  144.5786  150.7198 LP  0  0  0  0  0  0  0  0  0  0  0  0  # atno 17343 bound_to 10162
  157.0590  131.0084  151.3228 LP  0  0  0  0  0  0  0  0  0  0  0  0  # atno 17370 bound_to 10713
  157.5084  130.7923  149.7679 LP  0  0  0  0  0  0  0  0  0  0  0  0  # atno 17371 bound_to 10713
  141.2044  133.6639  156.6118 LP  0  0  0  0  0  0  0  0  0  0  0  0  # atno 17394 bound_to 11000
  140.3499  134.7778  157.4459 LP  0  0  0  0  0  0  0  0  0  0  0  0  # atno 17395 bound_to 11000

$$$$
